=
 OpenBabel11042410213D

 37 42  0  0  1  0  0  0  0  0999 V2000
  191.7290  177.8660  140.7130 O   0  0  0  0  0  0  0  0  0  0  0  0
  190.4150  176.2990  141.8410 N   0  0  0  0  0  2  0  0  0  0  0  0
  191.1150  176.7660  140.6830 C   0  0  0  0  0  0  0  0  0  0  0  0
  188.4920  177.0700  145.0040 C   0  0  2  0  0  3  0  0  0  0  0  0
  187.2430  177.8700  145.4230 C   0  0  0  0  0  2  0  0  0  0  0  0
  191.1740  176.5670  144.1110 C   0  0  0  0  0  3  0  0  0  0  0  0
  190.2560  177.1050  143.0450 C   0  0  2  0  0  3  0  0  0  0  0  0
  190.9260  176.7670  145.4120 C   0  0  0  0  0  0  0  0  0  0  0  0
  187.8100  177.2390  142.6270 C   0  0  0  0  0  3  0  0  0  0  0  0
  189.6930  177.5090  145.8410 C   0  0  0  0  0  2  0  0  0  0  0  0
  188.8100  177.1120  143.5130 C   0  0  0  0  0  0  0  0  0  0  0  0
  186.3940  177.3180  143.1020 C   0  0  0  0  0  2  0  0  0  0  0  0
  191.9950  176.0810  146.6190 Cl  0  0  0  0  0  0  0  0  0  0  0  0
  186.3310  178.3040  144.2650 C   0  0  1  0  0  3  0  0  0  0  0  0
  184.1020  179.1460  142.6940 O   0  0  0  0  0  0  0  0  0  0  0  0
  183.8870  178.8480  143.9010 C   0  0  0  0  0  0  0  0  0  0  0  0
  184.9640  178.4350  144.7450 N   0  0  0  0  0  2  0  0  0  0  0  0
  182.5970  178.9270  144.4330 O   0  0  0  0  0  0  0  0  0  0  0  0
  181.4480  179.1350  143.6210 C   0  0  0  0  0  2  0  0  0  0  0  0
  180.2930  178.2910  144.1220 C   0  0  0  0  0  1  0  0  0  0  0  0
  191.1150  176.0140  139.5090 O   0  0  0  0  0  0  0  0  0  0  0  0
  190.8800  174.1580  137.4660 C   0  0  0  0  0  1  0  0  0  0  0  0
  191.2820  176.7470  137.1550 C   0  0  1  0  0  3  0  0  0  0  0  0
  192.0090  176.3090  138.4360 C   0  0  2  0  0  3  0  0  0  0  0  0
  191.8450  175.3300  137.2770 C   0  0  1  0  0  0  0  0  0  0  0  0
  187.8010  178.3230  137.2290 C   0  0  1  0  0  3  0  0  0  0  0  0
  187.6350  177.2820  136.1410 C   0  0  0  0  0  2  0  0  0  0  0  0
  189.3060  178.2450  137.0700 C   0  0  2  0  0  3  0  0  0  0  0  0
  187.3270  179.6100  136.7520 N   0  0  0  0  0  1  0  0  0  0  0  0
  189.1400  177.2000  135.9850 C   0  0  1  0  0  3  0  0  0  0  0  0
  189.7650  176.8220  137.3130 C   0  0  1  0  0  3  0  0  0  0  0  0
  193.4670  173.7570  136.1730 C   0  0  0  0  0  3  0  0  0  0  0  0
  195.5210  174.5730  135.1820 C   0  0  0  0  0  3  0  0  0  0  0  0
  193.9750  176.1270  136.2130 C   0  0  0  0  0  3  0  0  0  0  0  0
  193.1100  175.0680  136.5210 C   0  0  0  0  0  0  0  0  0  0  0  0
  194.6680  173.5110  135.5000 C   0  0  0  0  0  3  0  0  0  0  0  0
  195.1760  175.8790  135.5410 C   0  0  0  0  0  3  0  0  0  0  0  0
  3  1  2  0  0  0  0
  3  2  1  0  0  0  0
  4  5  1  6  0  0  0
  4 10  1  0  0  0  0
  6  8  2  0  0  0  0
  7  2  1  6  0  0  0
  7 11  1  0  0  0  0
  7  6  1  0  0  0  0
  8 10  1  0  0  0  0
  8 13  1  0  0  0  0
  9 12  1  0  0  0  0
  9 11  2  0  0  0  0
 11  4  1  0  0  0  0
 12 14  1  0  0  0  0
 14 17  1  1  0  0  0
 14  5  1  0  0  0  0
 15 16  2  0  0  0  0
 16 18  1  0  0  0  0
 16 17  1  0  0  0  0
 19 20  1  0  0  0  0
 19 18  1  0  0  0  0
 21  3  1  0  0  0  0
 23 25  1  0  0  0  0
 23 31  1  1  0  0  0
 23 24  1  0  0  0  0
 24 21  1  1  0  0  0
 25 22  1  1  0  0  0
 25 24  1  0  0  0  0
 26 29  1  6  0  0  0
 27 26  1  0  0  0  0
 28 26  1  0  0  0  0
 28 31  1  0  0  0  0
 30 27  1  0  0  0  0
 30 28  1  0  0  0  0
 30 31  1  0  0  0  0
 32 35  1  0  0  0  0
 33 36  1  0  0  0  0
 33 37  2  0  0  0  0
 34 35  2  0  0  0  0
 35 25  1  0  0  0  0
 36 32  2  0  0  0  0
 37 34  1  0  0  0  0
M  END
>  <MODEL>
1

>  <REMARK>
 VINA RESULT:      -8.5      0.000      0.000
  Name = 
  8 active torsions:
  status: ('A' for Active; 'I' for Inactive)
    1  A    between atoms: O_1  and  C_16
    2  A    between atoms: O_1  and  C_24
    3  A    between atoms: C_8  and  O_25
    4  A    between atoms: C_13  and  O_25
    5  A    between atoms: N_14  and  C_17
    6  A    between atoms: C_23  and  C_33
    7  A    between atoms: C_26  and  C_32
    8  A    between atoms: N_30  and  C_36
                            x       y       z     vdW  Elec       q    Type
                         _______ _______ _______ _____ _____    ______ ____

>  <TORSDO>
F 8

$$$$
=
 OpenBabel11042410213D

 37 42  0  0  1  0  0  0  0  0999 V2000
  187.6690  178.6300  140.0450 O   0  0  0  0  0  0  0  0  0  0  0  0
  189.4990  177.1790  140.0570 N   0  0  0  0  0  2  0  0  0  0  0  0
  188.5470  178.0220  140.7140 C   0  0  0  0  0  0  0  0  0  0  0  0
  191.0050  175.5300  137.0050 C   0  0  2  0  0  3  0  0  0  0  0  0
  192.2890  175.6360  136.1580 C   0  0  0  0  0  2  0  0  0  0  0  0
  188.4500  176.2540  138.0950 C   0  0  0  0  0  3  0  0  0  0  0  0
  189.5990  177.0830  138.6060 C   0  0  2  0  0  3  0  0  0  0  0  0
  188.5210  175.6070  136.9250 C   0  0  0  0  0  0  0  0  0  0  0  0
  192.0690  176.8770  138.7940 C   0  0  0  0  0  3  0  0  0  0  0  0
  189.7770  175.6650  136.1050 C   0  0  0  0  0  2  0  0  0  0  0  0
  190.9350  176.4940  138.1860 C   0  0  0  0  0  0  0  0  0  0  0  0
  193.3860  176.3460  138.3270 C   0  0  0  0  0  2  0  0  0  0  0  0
  187.1780  174.6150  136.3940 Cl  0  0  0  0  0  0  0  0  0  0  0  0
  193.4290  176.4380  136.8040 C   0  0  1  0  0  3  0  0  0  0  0  0
  195.3000  177.9780  135.2950 O   0  0  0  0  0  0  0  0  0  0  0  0
  195.6080  176.7840  135.5650 C   0  0  0  0  0  0  0  0  0  0  0  0
  194.7070  175.9560  136.3030 N   0  0  0  0  0  2  0  0  0  0  0  0
  196.8280  176.2530  135.1380 O   0  0  0  0  0  0  0  0  0  0  0  0
  197.5220  175.2500  135.8700 C   0  0  0  0  0  2  0  0  0  0  0  0
  198.6960  174.7310  135.0630 C   0  0  0  0  0  1  0  0  0  0  0  0
  188.5880  178.1850  142.0980 O   0  0  0  0  0  0  0  0  0  0  0  0
  190.0680  179.0930  144.2570 C   0  0  0  0  0  1  0  0  0  0  0  0
  188.2520  177.1790  144.3300 C   0  0  1  0  0  3  0  0  0  0  0  0
  188.9530  177.1110  142.9640 C   0  0  2  0  0  3  0  0  0  0  0  0
  189.7150  177.6060  144.1910 C   0  0  1  0  0  0  0  0  0  0  0  0
  184.8950  179.0030  144.4080 C   0  0  1  0  0  3  0  0  0  0  0  0
  185.4290  179.3000  145.7940 C   0  0  0  0  0  2  0  0  0  0  0  0
  185.8610  177.8440  144.2860 C   0  0  2  0  0  3  0  0  0  0  0  0
  183.5370  178.4980  144.5030 N   0  0  0  0  0  1  0  0  0  0  0  0
  186.3990  178.1430  145.6710 C   0  0  1  0  0  3  0  0  0  0  0  0
  187.2790  178.3500  144.4550 C   0  0  1  0  0  3  0  0  0  0  0  0
  191.2150  175.6130  143.8800 C   0  0  0  0  0  3  0  0  0  0  0  0
  192.5530  174.7580  145.7100 C   0  0  0  0  0  3  0  0  0  0  0  0
  191.1390  176.6960  146.0470 C   0  0  0  0  0  3  0  0  0  0  0  0
  190.7250  176.6320  144.7100 C   0  0  0  0  0  0  0  0  0  0  0  0
  192.1310  174.6810  144.3780 C   0  0  0  0  0  3  0  0  0  0  0  0
  192.0550  175.7630  146.5440 C   0  0  0  0  0  3  0  0  0  0  0  0
  1  3  2  0  0  0  0
  2  3  1  0  0  0  0
  3 21  1  0  0  0  0
  4 10  1  6  0  0  0
  4 11  1  0  0  0  0
  5 14  1  0  0  0  0
  5  4  1  0  0  0  0
  6  7  1  0  0  0  0
  7  2  1  1  0  0  0
  8  6  2  0  0  0  0
 10  8  1  0  0  0  0
 11  7  1  0  0  0  0
 11  9  2  0  0  0  0
 12  9  1  0  0  0  0
 13  8  1  0  0  0  0
 14 17  1  6  0  0  0
 14 12  1  0  0  0  0
 15 16  2  0  0  0  0
 16 17  1  0  0  0  0
 18 16  1  0  0  0  0
 18 19  1  0  0  0  0
 20 19  1  0  0  0  0
 23 31  1  6  0  0  0
 24 21  1  6  0  0  0
 24 25  1  0  0  0  0
 24 23  1  0  0  0  0
 25 22  1  1  0  0  0
 25 23  1  0  0  0  0
 25 35  1  0  0  0  0
 26 29  1  1  0  0  0
 26 27  1  0  0  0  0
 28 26  1  0  0  0  0
 28 31  1  0  0  0  0
 28 30  1  0  0  0  0
 30 27  1  0  0  0  0
 31 30  1  0  0  0  0
 32 36  2  0  0  0  0
 32 35  1  0  0  0  0
 33 37  2  0  0  0  0
 34 37  1  0  0  0  0
 35 34  2  0  0  0  0
 36 33  1  0  0  0  0
M  END
>  <MODEL>
2

>  <REMARK>
 VINA RESULT:      -8.3      3.188     10.073
  Name = 
  8 active torsions:
  status: ('A' for Active; 'I' for Inactive)
    1  A    between atoms: O_1  and  C_16
    2  A    between atoms: O_1  and  C_24
    3  A    between atoms: C_8  and  O_25
    4  A    between atoms: C_13  and  O_25
    5  A    between atoms: N_14  and  C_17
    6  A    between atoms: C_23  and  C_33
    7  A    between atoms: C_26  and  C_32
    8  A    between atoms: N_30  and  C_36
                            x       y       z     vdW  Elec       q    Type
                         _______ _______ _______ _____ _____    ______ ____

>  <TORSDO>
F 8

$$$$
=
 OpenBabel11042410213D

 37 42  0  0  1  0  0  0  0  0999 V2000
  187.0440  179.0240  137.2040 O   0  0  0  0  0  0  0  0  0  0  0  0
  187.3910  177.5180  138.9560 N   0  0  0  0  0  2  0  0  0  0  0  0
  186.5490  178.2040  138.0230 C   0  0  0  0  0  0  0  0  0  0  0  0
  190.6380  177.0150  140.8290 C   0  0  2  0  0  3  0  0  0  0  0  0
  191.3350  177.5690  142.0870 C   0  0  0  0  0  2  0  0  0  0  0  0
  189.5920  176.9550  138.1560 C   0  0  0  0  0  3  0  0  0  0  0  0
  188.8090  177.8200  139.1080 C   0  0  2  0  0  3  0  0  0  0  0  0
  190.8780  176.6540  138.3810 C   0  0  0  0  0  0  0  0  0  0  0  0
  188.4980  178.0270  141.5650 C   0  0  0  0  0  3  0  0  0  0  0  0
  191.5630  177.1500  139.6210 C   0  0  0  0  0  2  0  0  0  0  0  0
  189.2630  177.6130  140.5430 C   0  0  0  0  0  0  0  0  0  0  0  0
  188.9840  177.8840  142.9720 C   0  0  0  0  0  2  0  0  0  0  0  0
  191.7360  175.6040  137.2710 Cl  0  0  0  0  0  0  0  0  0  0  0  0
  190.4290  178.3710  143.0320 C   0  0  1  0  0  3  0  0  0  0  0  0
  191.3680  175.9840  144.2850 O   0  0  0  0  0  0  0  0  0  0  0  0
  191.4090  177.0520  144.9570 C   0  0  0  0  0  0  0  0  0  0  0  0
  190.9380  178.2770  144.3920 N   0  0  0  0  0  2  0  0  0  0  0  0
  191.9050  177.0490  146.2640 O   0  0  0  0  0  0  0  0  0  0  0  0
  191.2190  176.4210  147.3390 C   0  0  0  0  0  2  0  0  0  0  0  0
  189.7640  176.8490  147.3530 C   0  0  0  0  0  1  0  0  0  0  0  0
  185.1740  177.9780  138.0180 O   0  0  0  0  0  0  0  0  0  0  0  0
  183.6540  180.0490  139.0550 C   0  0  0  0  0  1  0  0  0  0  0  0
  182.9590  177.5040  139.0050 C   0  0  1  0  0  3  0  0  0  0  0  0
  184.4820  177.5720  139.1980 C   0  0  2  0  0  3  0  0  0  0  0  0
  183.5910  178.6850  139.7440 C   0  0  1  0  0  0  0  0  0  0  0  0
  181.0660  177.1250  135.7080 C   0  0  1  0  0  3  0  0  0  0  0  0
  180.5830  178.4830  136.1750 C   0  0  0  0  0  2  0  0  0  0  0  0
  181.5090  176.7990  137.1190 C   0  0  2  0  0  3  0  0  0  0  0  0
  179.9270  176.2960  135.3510 N   0  0  0  0  0  1  0  0  0  0  0  0
  181.0310  178.1600  137.5850 C   0  0  1  0  0  3  0  0  0  0  0  0
  182.5110  177.8360  137.5830 C   0  0  1  0  0  3  0  0  0  0  0  0
  182.1940  178.8940  141.8240 C   0  0  0  0  0  3  0  0  0  0  0  0
  183.1940  178.7260  144.0240 C   0  0  0  0  0  3  0  0  0  0  0  0
  184.5740  178.4950  142.0460 C   0  0  0  0  0  3  0  0  0  0  0  0
  183.4460  178.6700  141.2330 C   0  0  0  0  0  0  0  0  0  0  0  0
  182.0680  178.9160  143.2160 C   0  0  0  0  0  3  0  0  0  0  0  0
  184.4470  178.5180  143.4390 C   0  0  0  0  0  3  0  0  0  0  0  0
  1  3  2  0  0  0  0
  3  2  1  0  0  0  0
  4 10  1  6  0  0  0
  4  5  1  0  0  0  0
  5 14  1  0  0  0  0
  6  8  2  0  0  0  0
  6  7  1  0  0  0  0
  7  2  1  1  0  0  0
  7 11  1  0  0  0  0
  8 10  1  0  0  0  0
  9 12  1  0  0  0  0
 11  4  1  0  0  0  0
 11  9  2  0  0  0  0
 12 14  1  0  0  0  0
 13  8  1  0  0  0  0
 14 17  1  1  0  0  0
 15 16  2  0  0  0  0
 16 18  1  0  0  0  0
 17 16  1  0  0  0  0
 18 19  1  0  0  0  0
 19 20  1  0  0  0  0
 21  3  1  0  0  0  0
 23 31  1  6  0  0  0
 23 24  1  0  0  0  0
 23 25  1  0  0  0  0
 24 21  1  6  0  0  0
 24 25  1  0  0  0  0
 25 22  1  6  0  0  0
 25 35  1  0  0  0  0
 26 29  1  1  0  0  0
 26 27  1  0  0  0  0
 26 28  1  0  0  0  0
 27 30  1  0  0  0  0
 28 31  1  0  0  0  0
 28 30  1  0  0  0  0
 31 30  1  0  0  0  0
 32 36  1  0  0  0  0
 34 37  2  0  0  0  0
 35 32  2  0  0  0  0
 35 34  1  0  0  0  0
 36 33  2  0  0  0  0
 37 33  1  0  0  0  0
M  END
>  <MODEL>
3

>  <REMARK>
 VINA RESULT:      -8.2      4.049      8.551
  Name = 
  8 active torsions:
  status: ('A' for Active; 'I' for Inactive)
    1  A    between atoms: O_1  and  C_16
    2  A    between atoms: O_1  and  C_24
    3  A    between atoms: C_8  and  O_25
    4  A    between atoms: C_13  and  O_25
    5  A    between atoms: N_14  and  C_17
    6  A    between atoms: C_23  and  C_33
    7  A    between atoms: C_26  and  C_32
    8  A    between atoms: N_30  and  C_36
                            x       y       z     vdW  Elec       q    Type
                         _______ _______ _______ _____ _____    ______ ____

>  <TORSDO>
F 8

$$$$
=
 OpenBabel11042410213D

 37 42  0  0  1  0  0  0  0  0999 V2000
  191.1640  178.3360  142.0220 O   0  0  0  0  0  0  0  0  0  0  0  0
  189.2310  177.0850  142.4140 N   0  0  0  0  0  2  0  0  0  0  0  0
  190.3540  177.4640  141.6100 C   0  0  0  0  0  0  0  0  0  0  0  0
  186.8730  177.5080  145.3400 C   0  0  2  0  0  3  0  0  0  0  0  0
  185.5570  178.2460  145.6570 C   0  0  0  0  0  2  0  0  0  0  0  0
  189.6650  177.1340  144.7830 C   0  0  0  0  0  3  0  0  0  0  0  0
  188.8870  177.7630  143.6570 C   0  0  2  0  0  3  0  0  0  0  0  0
  189.2350  177.1980  146.0500 C   0  0  0  0  0  0  0  0  0  0  0  0
  186.5190  177.9070  142.9190 C   0  0  0  0  0  3  0  0  0  0  0  0
  187.9360  177.8760  146.3740 C   0  0  0  0  0  2  0  0  0  0  0  0
  187.3910  177.7050  143.9180 C   0  0  0  0  0  0  0  0  0  0  0  0
  185.0500  177.9180  143.1980 C   0  0  0  0  0  2  0  0  0  0  0  0
  190.1470  176.4090  147.3210 Cl  0  0  0  0  0  0  0  0  0  0  0  0
  184.8020  178.7820  144.4320 C   0  0  1  0  0  3  0  0  0  0  0  0
  182.7190  179.0010  142.4920 O   0  0  0  0  0  0  0  0  0  0  0  0
  182.3820  178.9390  143.7070 C   0  0  0  0  0  0  0  0  0  0  0  0
  183.3780  178.8460  144.7270 N   0  0  0  0  0  2  0  0  0  0  0  0
  181.0330  178.9740  144.0720 O   0  0  0  0  0  0  0  0  0  0  0  0
  180.0240  178.3070  143.3250 C   0  0  0  0  0  2  0  0  0  0  0  0
  179.0100  179.3080  142.8050 C   0  0  0  0  0  1  0  0  0  0  0  0
  190.5550  176.8780  140.3610 O   0  0  0  0  0  0  0  0  0  0  0  0
  189.8320  178.5610  138.2830 C   0  0  0  0  0  1  0  0  0  0  0  0
  189.8740  175.9240  138.1860 C   0  0  1  0  0  3  0  0  0  0  0  0
  189.4690  176.3370  139.6100 C   0  0  2  0  0  3  0  0  0  0  0  0
  189.1030  177.2240  138.4230 C   0  0  1  0  0  0  0  0  0  0  0  0
  193.4830  175.0000  137.3370 C   0  0  1  0  0  3  0  0  0  0  0  0
  193.1260  175.9060  136.1770 C   0  0  0  0  0  2  0  0  0  0  0  0
  192.0110  174.7940  137.6270 C   0  0  2  0  0  3  0  0  0  0  0  0
  194.0590  173.7640  136.8350 N   0  0  0  0  0  1  0  0  0  0  0  0
  191.6540  175.7040  136.4690 C   0  0  1  0  0  3  0  0  0  0  0  0
  191.3580  176.1340  137.8910 C   0  0  1  0  0  3  0  0  0  0  0  0
  187.1710  176.2450  137.1460 C   0  0  0  0  0  3  0  0  0  0  0  0
  184.9450  177.1810  137.3350 C   0  0  0  0  0  3  0  0  0  0  0  0
  186.7720  178.1410  138.6030 C   0  0  0  0  0  3  0  0  0  0  0  0
  187.6500  177.1890  138.0660 C   0  0  0  0  0  0  0  0  0  0  0  0
  185.8200  176.2380  136.7860 C   0  0  0  0  0  3  0  0  0  0  0  0
  185.4220  178.1330  138.2410 C   0  0  0  0  0  3  0  0  0  0  0  0
  3  1  2  0  0  0  0
  3  2  1  0  0  0  0
  4  5  1  1  0  0  0
  4 10  1  0  0  0  0
  6  8  2  0  0  0  0
  7  2  1  6  0  0  0
  7 11  1  0  0  0  0
  7  6  1  0  0  0  0
  8 10  1  0  0  0  0
  8 13  1  0  0  0  0
  9 12  1  0  0  0  0
  9 11  2  0  0  0  0
 11  4  1  0  0  0  0
 12 14  1  0  0  0  0
 14 17  1  1  0  0  0
 14  5  1  0  0  0  0
 15 16  2  0  0  0  0
 16 18  1  0  0  0  0
 16 17  1  0  0  0  0
 19 18  1  0  0  0  0
 20 19  1  0  0  0  0
 21  3  1  0  0  0  0
 23 31  1  1  0  0  0
 23 25  1  0  0  0  0
 23 24  1  0  0  0  0
 24 21  1  1  0  0  0
 25 22  1  6  0  0  0
 25 24  1  0  0  0  0
 26 29  1  6  0  0  0
 26 28  1  0  0  0  0
 27 30  1  0  0  0  0
 27 26  1  0  0  0  0
 28 31  1  0  0  0  0
 30 28  1  0  0  0  0
 30 31  1  0  0  0  0
 32 35  1  0  0  0  0
 33 37  2  0  0  0  0
 35 25  1  0  0  0  0
 35 34  2  0  0  0  0
 36 32  2  0  0  0  0
 36 33  1  0  0  0  0
 37 34  1  0  0  0  0
M  END
>  <MODEL>
4

>  <REMARK>
 VINA RESULT:      -8.2      1.818      4.509
  Name = 
  8 active torsions:
  status: ('A' for Active; 'I' for Inactive)
    1  A    between atoms: O_1  and  C_16
    2  A    between atoms: O_1  and  C_24
    3  A    between atoms: C_8  and  O_25
    4  A    between atoms: C_13  and  O_25
    5  A    between atoms: N_14  and  C_17
    6  A    between atoms: C_23  and  C_33
    7  A    between atoms: C_26  and  C_32
    8  A    between atoms: N_30  and  C_36
                            x       y       z     vdW  Elec       q    Type
                         _______ _______ _______ _____ _____    ______ ____

>  <TORSDO>
F 8

$$$$
=
 OpenBabel11042410213D

 37 42  0  0  1  0  0  0  0  0999 V2000
  184.5370  179.8670  139.3110 O   0  0  0  0  0  0  0  0  0  0  0  0
  186.2730  178.4320  139.9280 N   0  0  0  0  0  2  0  0  0  0  0  0
  185.1660  179.2860  140.2360 C   0  0  0  0  0  0  0  0  0  0  0  0
  188.3190  176.4590  137.4340 C   0  0  2  0  0  3  0  0  0  0  0  0
  189.8010  176.2860  137.0460 C   0  0  0  0  0  2  0  0  0  0  0  0
  185.7480  177.7110  137.6910 C   0  0  0  0  0  3  0  0  0  0  0  0
  186.8130  178.2940  138.5820 C   0  0  2  0  0  3  0  0  0  0  0  0
  186.0610  177.0430  136.5730 C   0  0  0  0  0  0  0  0  0  0  0  0
  188.9970  177.5880  139.5340 C   0  0  0  0  0  3  0  0  0  0  0  0
  187.4990  176.8280  136.1990 C   0  0  0  0  0  2  0  0  0  0  0  0
  188.0670  177.4360  138.5790 C   0  0  0  0  0  0  0  0  0  0  0  0
  190.2610  176.7900  139.4840 C   0  0  0  0  0  2  0  0  0  0  0  0
  184.7910  176.3390  135.5920 Cl  0  0  0  0  0  0  0  0  0  0  0  0
  190.8080  176.8460  138.0600 C   0  0  1  0  0  3  0  0  0  0  0  0
  193.2220  177.4920  139.4400 O   0  0  0  0  0  0  0  0  0  0  0  0
  193.2280  176.4710  138.6990 C   0  0  0  0  0  0  0  0  0  0  0  0
  192.0570  176.1040  137.9680 N   0  0  0  0  0  2  0  0  0  0  0  0
  194.3820  175.6930  138.5730 O   0  0  0  0  0  0  0  0  0  0  0  0
  194.4830  174.6210  137.6440 C   0  0  0  0  0  2  0  0  0  0  0  0
  194.9900  173.3720  138.3380 C   0  0  0  0  0  1  0  0  0  0  0  0
  184.7820  179.4910  141.5600 O   0  0  0  0  0  0  0  0  0  0  0  0
  184.7660  180.6450  144.0780 C   0  0  0  0  0  1  0  0  0  0  0  0
  183.8500  178.2450  143.4790 C   0  0  1  0  0  3  0  0  0  0  0  0
  185.0590  178.5260  142.5730 C   0  0  2  0  0  3  0  0  0  0  0  0
  184.9910  179.1360  143.9710 C   0  0  1  0  0  0  0  0  0  0  0  0
  180.2960  178.8080  142.1910 C   0  0  1  0  0  3  0  0  0  0  0  0
  180.2050  179.3910  143.5860 C   0  0  0  0  0  2  0  0  0  0  0  0
  181.5400  178.0430  142.5950 C   0  0  2  0  0  3  0  0  0  0  0  0
  179.2010  177.8780  141.9760 N   0  0  0  0  0  1  0  0  0  0  0  0
  181.4510  178.6310  143.9890 C   0  0  1  0  0  3  0  0  0  0  0  0
  182.5960  179.0170  143.0750 C   0  0  1  0  0  3  0  0  0  0  0  0
  185.8070  178.7840  146.3230 C   0  0  0  0  0  3  0  0  0  0  0  0
  187.7360  177.3920  146.7810 C   0  0  0  0  0  3  0  0  0  0  0  0
  186.9700  177.6850  144.5020 C   0  0  0  0  0  3  0  0  0  0  0  0
  185.9280  178.5060  144.9530 C   0  0  0  0  0  0  0  0  0  0  0  0
  186.7070  178.2230  147.2350 C   0  0  0  0  0  3  0  0  0  0  0  0
  187.8690  177.1250  145.4150 C   0  0  0  0  0  3  0  0  0  0  0  0
  1  3  2  0  0  0  0
  2  3  1  0  0  0  0
  3 21  1  0  0  0  0
  4 10  1  6  0  0  0
  4 11  1  0  0  0  0
  5  4  1  0  0  0  0
  5 14  1  0  0  0  0
  6  7  1  0  0  0  0
  7  2  1  1  0  0  0
  8  6  2  0  0  0  0
 10  8  1  0  0  0  0
 11  7  1  0  0  0  0
 11  9  2  0  0  0  0
 12  9  1  0  0  0  0
 13  8  1  0  0  0  0
 14 17  1  1  0  0  0
 14 12  1  0  0  0  0
 16 15  2  0  0  0  0
 17 16  1  0  0  0  0
 18 16  1  0  0  0  0
 19 20  1  0  0  0  0
 19 18  1  0  0  0  0
 23 31  1  6  0  0  0
 23 25  1  0  0  0  0
 24 21  1  6  0  0  0
 24 23  1  0  0  0  0
 24 25  1  0  0  0  0
 25 22  1  1  0  0  0
 25 35  1  0  0  0  0
 26 29  1  1  0  0  0
 26 28  1  0  0  0  0
 26 27  1  0  0  0  0
 27 30  1  0  0  0  0
 28 31  1  0  0  0  0
 28 30  1  0  0  0  0
 31 30  1  0  0  0  0
 32 36  1  0  0  0  0
 33 36  2  0  0  0  0
 34 35  1  0  0  0  0
 34 37  2  0  0  0  0
 35 32  2  0  0  0  0
 37 33  1  0  0  0  0
M  END
>  <MODEL>
5

>  <REMARK>
 VINA RESULT:      -8.1      3.135     10.319
  Name = 
  8 active torsions:
  status: ('A' for Active; 'I' for Inactive)
    1  A    between atoms: O_1  and  C_16
    2  A    between atoms: O_1  and  C_24
    3  A    between atoms: C_8  and  O_25
    4  A    between atoms: C_13  and  O_25
    5  A    between atoms: N_14  and  C_17
    6  A    between atoms: C_23  and  C_33
    7  A    between atoms: C_26  and  C_32
    8  A    between atoms: N_30  and  C_36
                            x       y       z     vdW  Elec       q    Type
                         _______ _______ _______ _____ _____    ______ ____

>  <TORSDO>
F 8

$$$$
=
 OpenBabel11042410213D

 37 42  0  0  1  0  0  0  0  0999 V2000
  185.3890  179.2810  144.1280 O   0  0  0  0  0  0  0  0  0  0  0  0
  184.3070  178.2160  142.3530 N   0  0  0  0  0  2  0  0  0  0  0  0
  185.4210  178.3940  143.2330 C   0  0  0  0  0  0  0  0  0  0  0  0
  181.0560  179.3160  140.7640 C   0  0  2  0  0  3  0  0  0  0  0  0
  180.5940  180.2150  139.6000 C   0  0  0  0  0  2  0  0  0  0  0  0
  182.1360  178.5980  143.3250 C   0  0  0  0  0  3  0  0  0  0  0  0
  183.1570  179.1120  142.3440 C   0  0  2  0  0  3  0  0  0  0  0  0
  180.8370  178.9030  143.2050 C   0  0  0  0  0  0  0  0  0  0  0  0
  183.3720  179.3580  139.8800 C   0  0  0  0  0  3  0  0  0  0  0  0
  180.3610  179.7430  142.0560 C   0  0  0  0  0  2  0  0  0  0  0  0
  182.5690  179.2360  140.9480 C   0  0  0  0  0  0  0  0  0  0  0  0
  182.7850  179.5510  138.5190 C   0  0  0  0  0  2  0  0  0  0  0  0
  179.6790  178.2430  144.3420 Cl  0  0  0  0  0  0  0  0  0  0  0  0
  181.6980  180.6180  138.6120 C   0  0  1  0  0  3  0  0  0  0  0  0
  180.8080  183.1520  137.6420 O   0  0  0  0  0  0  0  0  0  0  0  0
  180.7020  182.1600  136.8690 C   0  0  0  0  0  0  0  0  0  0  0  0
  181.1140  180.8620  137.3010 N   0  0  0  0  0  2  0  0  0  0  0  0
  180.1710  182.3140  135.5860 O   0  0  0  0  0  0  0  0  0  0  0  0
  179.4450  183.4720  135.1940 C   0  0  0  0  0  2  0  0  0  0  0  0
  180.3950  184.6280  134.9500 C   0  0  0  0  0  1  0  0  0  0  0  0
  186.5560  177.5950  143.1020 O   0  0  0  0  0  0  0  0  0  0  0  0
  188.2450  175.4090  143.3090 C   0  0  0  0  0  1  0  0  0  0  0  0
  188.9860  177.8800  142.7540 C   0  0  1  0  0  3  0  0  0  0  0  0
  187.7930  177.9520  143.7190 C   0  0  2  0  0  3  0  0  0  0  0  0
  188.7570  176.7700  143.7820 C   0  0  1  0  0  0  0  0  0  0  0  0
  188.5220  178.2510  138.9790 C   0  0  1  0  0  3  0  0  0  0  0  0
  189.4460  177.0530  139.0500 C   0  0  0  0  0  2  0  0  0  0  0  0
  188.9140  178.6340  140.3910 C   0  0  2  0  0  3  0  0  0  0  0  0
  189.0550  179.2260  138.0440 N   0  0  0  0  0  1  0  0  0  0  0  0
  189.8350  177.4320  140.4640 C   0  0  1  0  0  3  0  0  0  0  0  0
  188.5930  177.4900  141.3300 C   0  0  1  0  0  3  0  0  0  0  0  0
  191.0060  176.4000  144.8430 C   0  0  0  0  0  3  0  0  0  0  0  0
  191.3410  176.7510  147.2170 C   0  0  0  0  0  3  0  0  0  0  0  0
  189.1630  177.1440  146.2310 C   0  0  0  0  0  3  0  0  0  0  0  0
  189.6650  176.7920  144.9710 C   0  0  0  0  0  0  0  0  0  0  0  0
  191.8430  176.3860  145.9640 C   0  0  0  0  0  3  0  0  0  0  0  0
  190.0010  177.1280  147.3510 C   0  0  0  0  0  3  0  0  0  0  0  0
  2  3  1  0  0  0  0
  3  1  2  0  0  0  0
  4  5  1  6  0  0  0
  4 11  1  0  0  0  0
  4 10  1  0  0  0  0
  7  2  1  6  0  0  0
  7  6  1  0  0  0  0
  8  6  2  0  0  0  0
  8 13  1  0  0  0  0
  9 11  2  0  0  0  0
 10  8  1  0  0  0  0
 11  7  1  0  0  0  0
 12 14  1  0  0  0  0
 12  9  1  0  0  0  0
 14 17  1  6  0  0  0
 14  5  1  0  0  0  0
 16 17  1  0  0  0  0
 16 15  2  0  0  0  0
 18 16  1  0  0  0  0
 19 18  1  0  0  0  0
 20 19  1  0  0  0  0
 21  3  1  0  0  0  0
 23 31  1  6  0  0  0
 23 24  1  0  0  0  0
 23 25  1  0  0  0  0
 24 21  1  6  0  0  0
 24 25  1  0  0  0  0
 25 22  1  6  0  0  0
 25 35  1  0  0  0  0
 26 29  1  6  0  0  0
 26 27  1  0  0  0  0
 26 28  1  0  0  0  0
 27 30  1  0  0  0  0
 28 30  1  0  0  0  0
 28 31  1  0  0  0  0
 30 31  1  0  0  0  0
 32 35  2  0  0  0  0
 32 36  1  0  0  0  0
 33 37  1  0  0  0  0
 34 37  2  0  0  0  0
 35 34  1  0  0  0  0
 36 33  2  0  0  0  0
M  END
>  <MODEL>
6

>  <REMARK>
 VINA RESULT:      -8.1      4.518      8.318
  Name = 
  8 active torsions:
  status: ('A' for Active; 'I' for Inactive)
    1  A    between atoms: O_1  and  C_16
    2  A    between atoms: O_1  and  C_24
    3  A    between atoms: C_8  and  O_25
    4  A    between atoms: C_13  and  O_25
    5  A    between atoms: N_14  and  C_17
    6  A    between atoms: C_23  and  C_33
    7  A    between atoms: C_26  and  C_32
    8  A    between atoms: N_30  and  C_36
                            x       y       z     vdW  Elec       q    Type
                         _______ _______ _______ _____ _____    ______ ____

>  <TORSDO>
F 8

$$$$
=
 OpenBabel11042410213D

 37 42  0  0  1  0  0  0  0  0999 V2000
  185.6220  179.7720  142.1390 O   0  0  0  0  0  0  0  0  0  0  0  0
  184.0300  178.2120  142.8390 N   0  0  0  0  0  2  0  0  0  0  0  0
  185.3800  178.6250  142.6010 C   0  0  0  0  0  0  0  0  0  0  0  0
  180.8620  178.5690  140.8040 C   0  0  2  0  0  3  0  0  0  0  0  0
  180.4570  178.9600  139.3700 C   0  0  0  0  0  2  0  0  0  0  0  0
  181.8100  178.8790  143.4960 C   0  0  0  0  0  3  0  0  0  0  0  0
  182.8790  179.0140  142.4440 C   0  0  2  0  0  3  0  0  0  0  0  0
  180.5190  179.0870  143.2120 C   0  0  0  0  0  0  0  0  0  0  0  0
  183.2210  178.3320  140.0780 C   0  0  0  0  0  3  0  0  0  0  0  0
  180.1000  179.4290  141.8110 C   0  0  0  0  0  2  0  0  0  0  0  0
  182.3640  178.5970  141.0760 C   0  0  0  0  0  0  0  0  0  0  0  0
  182.7040  177.9930  138.7170 C   0  0  0  0  0  2  0  0  0  0  0  0
  179.3050  178.8700  144.4570 Cl  0  0  0  0  0  0  0  0  0  0  0  0
  181.6100  178.9930  138.3550 C   0  0  1  0  0  3  0  0  0  0  0  0
  180.8680  180.9660  136.4300 O   0  0  0  0  0  0  0  0  0  0  0  0
  180.7550  179.7540  136.0980 C   0  0  0  0  0  0  0  0  0  0  0  0
  181.0940  178.7180  137.0220 N   0  0  0  0  0  2  0  0  0  0  0  0
  180.2870  179.4070  134.8270 O   0  0  0  0  0  0  0  0  0  0  0  0
  178.9970  178.8460  134.6160 C   0  0  0  0  0  2  0  0  0  0  0  0
  178.9310  177.4500  135.2030 C   0  0  0  0  0  1  0  0  0  0  0  0
  186.4390  177.7580  142.8680 O   0  0  0  0  0  0  0  0  0  0  0  0
  188.0630  175.6130  143.5300 C   0  0  0  0  0  1  0  0  0  0  0  0
  188.8960  178.0210  142.8430 C   0  0  1  0  0  3  0  0  0  0  0  0
  187.5770  178.1810  143.6170 C   0  0  2  0  0  3  0  0  0  0  0  0
  188.5130  177.0180  143.9330 C   0  0  1  0  0  0  0  0  0  0  0  0
  188.6670  178.1040  139.0300 C   0  0  1  0  0  3  0  0  0  0  0  0
  189.8110  177.1330  139.2390 C   0  0  0  0  0  2  0  0  0  0  0  0
  188.8570  178.6290  140.4380 C   0  0  2  0  0  3  0  0  0  0  0  0
  189.0590  179.1240  138.0730 N   0  0  0  0  0  1  0  0  0  0  0  0
  189.9980  177.6540  140.6500 C   0  0  1  0  0  3  0  0  0  0  0  0
  188.7060  177.4890  141.4240 C   0  0  1  0  0  3  0  0  0  0  0  0
  190.6190  176.9050  145.3010 C   0  0  0  0  0  3  0  0  0  0  0  0
  190.5890  177.3530  147.6820 C   0  0  0  0  0  3  0  0  0  0  0  0
  188.5400  177.4970  146.3970 C   0  0  0  0  0  3  0  0  0  0  0  0
  189.2430  177.1630  145.2320 C   0  0  0  0  0  0  0  0  0  0  0  0
  191.2920  177.0050  146.5230 C   0  0  0  0  0  3  0  0  0  0  0  0
  189.2140  177.5960  147.6190 C   0  0  0  0  0  3  0  0  0  0  0  0
  1  3  2  0  0  0  0
  3  2  1  0  0  0  0
  3 21  1  0  0  0  0
  4  5  1  6  0  0  0
  4 11  1  0  0  0  0
  4 10  1  0  0  0  0
  7  2  1  1  0  0  0
  7  6  1  0  0  0  0
  8  6  2  0  0  0  0
  8 13  1  0  0  0  0
  9 11  2  0  0  0  0
 10  8  1  0  0  0  0
 11  7  1  0  0  0  0
 12  9  1  0  0  0  0
 14 17  1  6  0  0  0
 14 12  1  0  0  0  0
 14  5  1  0  0  0  0
 16 15  2  0  0  0  0
 16 17  1  0  0  0  0
 18 16  1  0  0  0  0
 19 18  1  0  0  0  0
 19 20  1  0  0  0  0
 23 31  1  6  0  0  0
 23 24  1  0  0  0  0
 23 25  1  0  0  0  0
 24 21  1  6  0  0  0
 24 25  1  0  0  0  0
 25 22  1  6  0  0  0
 25 35  1  0  0  0  0
 26 29  1  6  0  0  0
 26 27  1  0  0  0  0
 26 28  1  0  0  0  0
 27 30  1  0  0  0  0
 28 30  1  0  0  0  0
 28 31  1  0  0  0  0
 30 31  1  0  0  0  0
 32 36  1  0  0  0  0
 34 37  2  0  0  0  0
 35 32  2  0  0  0  0
 35 34  1  0  0  0  0
 36 33  2  0  0  0  0
 37 33  1  0  0  0  0
M  END
>  <MODEL>
7

>  <REMARK>
 VINA RESULT:      -7.8      4.434      8.445
  Name = 
  8 active torsions:
  status: ('A' for Active; 'I' for Inactive)
    1  A    between atoms: O_1  and  C_16
    2  A    between atoms: O_1  and  C_24
    3  A    between atoms: C_8  and  O_25
    4  A    between atoms: C_13  and  O_25
    5  A    between atoms: N_14  and  C_17
    6  A    between atoms: C_23  and  C_33
    7  A    between atoms: C_26  and  C_32
    8  A    between atoms: N_30  and  C_36
                            x       y       z     vdW  Elec       q    Type
                         _______ _______ _______ _____ _____    ______ ____

>  <TORSDO>
F 8

$$$$
=
 OpenBabel11042410213D

 37 42  0  0  1  0  0  0  0  0999 V2000
  190.9060  178.1270  141.4610 O   0  0  0  0  0  0  0  0  0  0  0  0
  189.1230  176.7580  142.0950 N   0  0  0  0  0  2  0  0  0  0  0  0
  190.1940  177.1180  141.2150 C   0  0  0  0  0  0  0  0  0  0  0  0
  186.5530  177.6240  144.7300 C   0  0  2  0  0  3  0  0  0  0  0  0
  185.2590  178.4540  144.8430 C   0  0  0  0  0  2  0  0  0  0  0  0
  189.3550  177.0550  144.4750 C   0  0  0  0  0  3  0  0  0  0  0  0
  188.7140  177.5890  143.2200 C   0  0  2  0  0  3  0  0  0  0  0  0
  188.8230  177.2840  145.6820 C   0  0  0  0  0  0  0  0  0  0  0  0
  186.4300  177.7610  142.2570 C   0  0  0  0  0  3  0  0  0  0  0  0
  187.5430  178.0560  145.8100 C   0  0  0  0  0  2  0  0  0  0  0  0
  187.2010  177.6320  143.3480 C   0  0  0  0  0  0  0  0  0  0  0  0
  184.9450  177.8740  142.3980 C   0  0  0  0  0  2  0  0  0  0  0  0
  189.5770  176.6020  147.1100 Cl  0  0  0  0  0  0  0  0  0  0  0  0
  184.6430  178.8830  143.5030 C   0  0  1  0  0  3  0  0  0  0  0  0
  182.7390  178.8800  141.3760 O   0  0  0  0  0  0  0  0  0  0  0  0
  182.3020  179.0220  142.5520 C   0  0  0  0  0  0  0  0  0  0  0  0
  183.2050  179.0480  143.6580 N   0  0  0  0  0  2  0  0  0  0  0  0
  180.9320  179.1650  142.7870 O   0  0  0  0  0  0  0  0  0  0  0  0
  180.2630  178.4840  143.8410 C   0  0  0  0  0  2  0  0  0  0  0  0
  179.1260  179.3350  144.3750 C   0  0  0  0  0  1  0  0  0  0  0  0
  190.4500  176.3620  140.0730 O   0  0  0  0  0  0  0  0  0  0  0  0
  190.5980  174.5700  137.9650 C   0  0  0  0  0  1  0  0  0  0  0  0
  190.9860  177.1750  137.8020 C   0  0  1  0  0  3  0  0  0  0  0  0
  191.5020  176.7070  139.1720 C   0  0  2  0  0  3  0  0  0  0  0  0
  191.5530  175.7640  137.9720 C   0  0  1  0  0  0  0  0  0  0  0  0
  187.5170  178.6390  137.1530 C   0  0  1  0  0  3  0  0  0  0  0  0
  187.5420  177.4850  136.1720 C   0  0  0  0  0  2  0  0  0  0  0  0
  189.0270  178.5930  137.2440 C   0  0  2  0  0  3  0  0  0  0  0  0
  187.1060  179.8530  136.4700 N   0  0  0  0  0  1  0  0  0  0  0  0
  189.0530  177.4340  136.2660 C   0  0  1  0  0  3  0  0  0  0  0  0
  189.4620  177.2180  137.7080 C   0  0  1  0  0  3  0  0  0  0  0  0
  193.3740  176.2830  136.3180 C   0  0  0  0  0  3  0  0  0  0  0  0
  195.4800  175.0860  136.3600 C   0  0  0  0  0  3  0  0  0  0  0  0
  193.7620  174.5710  137.9890 C   0  0  0  0  0  3  0  0  0  0  0  0
  192.9310  175.5500  137.4290 C   0  0  0  0  0  0  0  0  0  0  0  0
  194.6480  176.0550  135.7890 C   0  0  0  0  0  3  0  0  0  0  0  0
  195.0360  174.3430  137.4580 C   0  0  0  0  0  3  0  0  0  0  0  0
  3  1  2  0  0  0  0
  3  2  1  0  0  0  0
  4  5  1  6  0  0  0
  4 10  1  0  0  0  0
  6  8  2  0  0  0  0
  7  2  1  6  0  0  0
  7 11  1  0  0  0  0
  7  6  1  0  0  0  0
  8 10  1  0  0  0  0
  8 13  1  0  0  0  0
  9 12  1  0  0  0  0
  9 11  2  0  0  0  0
 11  4  1  0  0  0  0
 12 14  1  0  0  0  0
 14 17  1  1  0  0  0
 14  5  1  0  0  0  0
 15 16  2  0  0  0  0
 16 18  1  0  0  0  0
 16 17  1  0  0  0  0
 18 19  1  0  0  0  0
 19 20  1  0  0  0  0
 21  3  1  0  0  0  0
 23 31  1  1  0  0  0
 23 25  1  0  0  0  0
 23 24  1  0  0  0  0
 24 21  1  1  0  0  0
 25 22  1  6  0  0  0
 25 24  1  0  0  0  0
 26 29  1  6  0  0  0
 26 28  1  0  0  0  0
 27 30  1  0  0  0  0
 27 26  1  0  0  0  0
 28 31  1  0  0  0  0
 30 28  1  0  0  0  0
 30 31  1  0  0  0  0
 32 35  1  0  0  0  0
 33 37  2  0  0  0  0
 35 25  1  0  0  0  0
 35 34  2  0  0  0  0
 36 32  2  0  0  0  0
 36 33  1  0  0  0  0
 37 34  1  0  0  0  0
M  END
>  <MODEL>
8

>  <REMARK>
 VINA RESULT:      -7.7      1.252      1.664
  Name = 
  8 active torsions:
  status: ('A' for Active; 'I' for Inactive)
    1  A    between atoms: O_1  and  C_16
    2  A    between atoms: O_1  and  C_24
    3  A    between atoms: C_8  and  O_25
    4  A    between atoms: C_13  and  O_25
    5  A    between atoms: N_14  and  C_17
    6  A    between atoms: C_23  and  C_33
    7  A    between atoms: C_26  and  C_32
    8  A    between atoms: N_30  and  C_36
                            x       y       z     vdW  Elec       q    Type
                         _______ _______ _______ _____ _____    ______ ____

>  <TORSDO>
F 8

$$$$
=
 OpenBabel11042410213D

 37 42  0  0  1  0  0  0  0  0999 V2000
  188.6330  179.2690  140.9950 O   0  0  0  0  0  0  0  0  0  0  0  0
  189.6820  177.2280  140.5620 N   0  0  0  0  0  2  0  0  0  0  0  0
  189.1960  178.2390  141.4520 C   0  0  0  0  0  0  0  0  0  0  0  0
  190.5860  175.8810  137.1460 C   0  0  2  0  0  3  0  0  0  0  0  0
  191.8130  175.8470  136.2130 C   0  0  0  0  0  2  0  0  0  0  0  0
  188.3420  176.9540  138.5790 C   0  0  0  0  0  3  0  0  0  0  0  0
  189.6820  177.3860  139.1130 C   0  0  2  0  0  3  0  0  0  0  0  0
  188.1950  176.5380  137.3140 C   0  0  0  0  0  0  0  0  0  0  0  0
  192.0340  176.5870  139.0300 C   0  0  0  0  0  3  0  0  0  0  0  0
  189.3840  176.4600  136.4020 C   0  0  0  0  0  2  0  0  0  0  0  0
  190.8130  176.5950  138.4750 C   0  0  0  0  0  0  0  0  0  0  0  0
  193.1580  175.8660  138.3580 C   0  0  0  0  0  2  0  0  0  0  0  0
  186.6260  175.9990  136.7500 Cl  0  0  0  0  0  0  0  0  0  0  0  0
  193.1440  176.2290  136.8760 C   0  0  1  0  0  3  0  0  0  0  0  0
  195.3970  177.5450  135.7170 O   0  0  0  0  0  0  0  0  0  0  0  0
  195.3510  176.2860  135.6370 C   0  0  0  0  0  0  0  0  0  0  0  0
  194.2410  175.5700  136.1820 N   0  0  0  0  0  2  0  0  0  0  0  0
  196.3760  175.5770  135.0050 O   0  0  0  0  0  0  0  0  0  0  0  0
  197.7260  175.6310  135.4470 C   0  0  0  0  0  2  0  0  0  0  0  0
  198.0590  174.3970  136.2630 C   0  0  0  0  0  1  0  0  0  0  0  0
  189.3500  178.0970  142.8300 O   0  0  0  0  0  0  0  0  0  0  0  0
  187.5320  176.1590  143.6130 C   0  0  0  0  0  1  0  0  0  0  0  0
  188.5330  178.0470  145.1610 C   0  0  1  0  0  3  0  0  0  0  0  0
  188.3920  178.6260  143.7450 C   0  0  2  0  0  3  0  0  0  0  0  0
  187.4220  177.5530  144.2330 C   0  0  1  0  0  0  0  0  0  0  0  0
  191.7240  176.5220  146.6090 C   0  0  1  0  0  3  0  0  0  0  0  0
  190.7430  175.3790  146.7780 C   0  0  0  0  0  2  0  0  0  0  0  0
  190.5680  177.4900  146.4680 C   0  0  2  0  0  3  0  0  0  0  0  0
  192.4130  176.7650  147.8650 N   0  0  0  0  0  1  0  0  0  0  0  0
  189.5870  176.3470  146.6310 C   0  0  1  0  0  3  0  0  0  0  0  0
  189.6970  177.0670  145.3040 C   0  0  1  0  0  3  0  0  0  0  0  0
  185.6620  178.3100  145.8610 C   0  0  0  0  0  3  0  0  0  0  0  0
  183.4520  178.9530  145.1030 C   0  0  0  0  0  3  0  0  0  0  0  0
  185.1260  178.2530  143.4980 C   0  0  0  0  0  3  0  0  0  0  0  0
  186.0500  178.0690  144.5350 C   0  0  0  0  0  0  0  0  0  0  0  0
  184.3670  178.7570  146.1430 C   0  0  0  0  0  3  0  0  0  0  0  0
  183.8310  178.6980  143.7820 C   0  0  0  0  0  3  0  0  0  0  0  0
  1  3  2  0  0  0  0
  2  3  1  0  0  0  0
  3 21  1  0  0  0  0
  4  5  1  6  0  0  0
  4 11  1  0  0  0  0
  5 14  1  0  0  0  0
  6  7  1  0  0  0  0
  7  2  1  1  0  0  0
  8  6  2  0  0  0  0
 10  4  1  0  0  0  0
 10  8  1  0  0  0  0
 11  9  2  0  0  0  0
 11  7  1  0  0  0  0
 12  9  1  0  0  0  0
 13  8  1  0  0  0  0
 14 17  1  6  0  0  0
 14 12  1  0  0  0  0
 16 15  2  0  0  0  0
 16 17  1  0  0  0  0
 18 19  1  0  0  0  0
 18 16  1  0  0  0  0
 19 20  1  0  0  0  0
 23 31  1  6  0  0  0
 24 21  1  6  0  0  0
 24 25  1  0  0  0  0
 24 23  1  0  0  0  0
 25 22  1  6  0  0  0
 25 35  1  0  0  0  0
 25 23  1  0  0  0  0
 26 27  1  0  0  0  0
 26 29  1  1  0  0  0
 28 26  1  0  0  0  0
 28 30  1  0  0  0  0
 30 27  1  0  0  0  0
 31 28  1  0  0  0  0
 31 30  1  0  0  0  0
 32 36  1  0  0  0  0
 33 36  2  0  0  0  0
 34 37  2  0  0  0  0
 34 35  1  0  0  0  0
 35 32  2  0  0  0  0
 37 33  1  0  0  0  0
M  END
>  <MODEL>
9

>  <REMARK>
 VINA RESULT:      -7.7      3.232     10.944
  Name = 
  8 active torsions:
  status: ('A' for Active; 'I' for Inactive)
    1  A    between atoms: O_1  and  C_16
    2  A    between atoms: O_1  and  C_24
    3  A    between atoms: C_8  and  O_25
    4  A    between atoms: C_13  and  O_25
    5  A    between atoms: N_14  and  C_17
    6  A    between atoms: C_23  and  C_33
    7  A    between atoms: C_26  and  C_32
    8  A    between atoms: N_30  and  C_36
                            x       y       z     vdW  Elec       q    Type
                         _______ _______ _______ _____ _____    ______ ____

>  <TORSDO>
F 8

$$$$
