=
 OpenBabel11032421223D

 58 69  0  0  1  0  0  0  0  0999 V2000
  184.0570  176.6350  136.6070 C   0  0  0  0  0  3  0  0  0  0  0  0
  187.4360  177.2640  142.3140 C   0  0  0  0  0  2  0  0  0  0  0  0
  186.0750  178.3930  140.7280 C   0  0  0  0  0  2  0  0  0  0  0  0
  188.7440  177.7310  139.8110 O   0  0  0  0  0  0  0  0  0  0  0  0
  179.2970  181.0590  136.3250 O   0  0  0  0  0  0  0  0  0  0  0  0
  183.1970  178.6710  137.6240 C   0  0  0  0  0  0  0  0  0  0  0  0
  185.2410  177.6560  138.4620 C   0  0  0  0  0  0  0  0  0  0  0  0
  187.7320  177.8770  138.8350 C   0  0  1  0  0  3  0  0  0  0  0  0
  188.1490  177.0640  137.6200 C   0  0  2  0  0  3  0  0  0  0  0  0
  188.5940  178.7870  140.7340 C   0  0  2  0  0  3  0  0  0  0  0  0
  184.2720  178.6730  138.5170 C   0  0  0  0  0  3  0  0  0  0  0  0
  188.1720  175.0740  136.1360 C   0  0  0  0  0  2  0  0  0  0  0  0
  187.4850  175.9970  137.1000 C   0  0  2  0  0  3  0  0  0  0  0  0
  180.8800  181.6270  138.1010 C   0  0  2  0  0  3  0  0  0  0  0  0
  181.0140  178.6160  135.8270 C   0  0  0  0  0  3  0  0  0  0  0  0
  185.1480  176.6630  137.4840 C   0  0  0  0  0  0  0  0  0  0  0  0
  190.5650  176.4660  137.5550 C   0  0  0  0  0  2  0  0  0  0  0  0
  180.3200  180.7780  137.0030 C   0  0  0  0  0  0  0  0  0  0  0  0
  189.4450  178.6480  141.9370 N   0  0  0  0  0  0  0  0  0  0  0  0
  189.3440  174.3630  136.8010 C   0  0  0  0  0  2  0  0  0  0  0  0
  181.1580  179.6300  136.7780 C   0  0  0  0  0  0  0  0  0  0  0  0
  190.6190  175.1980  136.6980 C   0  0  2  0  0  3  0  0  0  0  0  0
  182.1510  180.8660  138.5470 C   0  0  0  0  0  2  0  0  0  0  0  0
  187.3460  178.5780  141.5380 C   0  0  2  0  0  0  0  0  0  0  0  0
  182.2140  179.6680  137.6530 C   0  0  0  0  0  0  0  0  0  0  0  0
  186.1430  175.6930  137.3620 O   0  0  0  0  0  0  0  0  0  0  0  0
  181.9890  177.6060  135.7790 C   0  0  0  0  0  3  0  0  0  0  0  0
  183.0770  177.6280  136.6700 C   0  0  0  0  0  0  0  0  0  0  0  0
  188.2360  178.4450  142.7620 C   0  0  1  0  0  3  0  0  0  0  0  0
  189.4970  177.4360  137.0670 C   0  0  0  0  0  2  0  0  0  0  0  0
  186.3520  177.5540  139.4590 C   0  0  1  0  0  3  0  0  0  0  0  0
  191.8480  174.3480  137.0330 C   0  0  1  0  0  3  0  0  0  0  0  0
  191.6830  173.0440  136.5590 O   0  0  0  0  0  1  0  0  0  0  0  0
  196.4750  177.0880  134.6440 N   0  0  0  0  0  0  0  0  0  0  0  0
  197.2080  176.1320  135.2980 C   0  0  0  0  0  3  0  0  0  0  0  0
  194.3530  174.4060  136.8200 N   0  0  0  0  0  0  0  0  0  0  0  0
  195.1830  175.2140  136.1480 C   0  0  0  0  0  0  0  0  0  0  0  0
  196.5690  175.1510  136.0800 C   0  0  0  0  0  3  0  0  0  0  0  0
  194.4750  176.1670  135.4900 C   0  0  0  0  0  0  0  0  0  0  0  0
  195.1110  177.1310  134.7180 C   0  0  0  0  0  3  0  0  0  0  0  0
  193.1630  176.0130  135.7070 N   0  0  0  0  0  2  0  0  0  0  0  0
  193.1330  174.9300  136.5270 C   0  0  0  0  0  0  0  0  0  0  0  0
  190.2680  177.4340  141.9370 C   0  0  0  0  0  2  0  0  0  0  0  0
  190.5970  178.0950  144.3250 C   0  0  0  0  0  3  0  0  0  0  0  0
  191.8350  175.6510  144.8830 C   0  0  0  0  0  3  0  0  0  0  0  0
  191.0670  177.8300  145.6140 C   0  0  0  0  0  3  0  0  0  0  0  0
  190.7470  177.1390  143.3130 C   0  0  0  0  0  0  0  0  0  0  0  0
  191.3690  175.9170  143.5940 C   0  0  0  0  0  3  0  0  0  0  0  0
  191.6860  176.6080  145.8940 C   0  0  0  0  0  3  0  0  0  0  0  0
  179.8940  181.7580  139.2730 C   0  0  1  0  0  3  0  0  0  0  0  0
  178.9310  182.7760  139.0710 O   0  0  0  0  0  0  0  0  0  0  0  0
  179.5340  183.8520  138.3930 C   0  0  0  0  0  1  0  0  0  0  0  0
  179.2680  180.4740  139.5900 N   0  0  0  0  0  2  0  0  0  0  0  0
  180.6200  179.8080  141.3410 C   0  0  0  0  0  2  0  0  0  0  0  0
  179.2840  180.3340  140.9880 N   0  0  0  0  0  0  0  0  0  0  0  0
  178.9440  178.5760  142.7310 C   0  0  0  0  0  1  0  0  0  0  0  0
  179.4310  177.8680  140.2480 C   0  0  0  0  0  1  0  0  0  0  0  0
  179.4780  178.9130  141.3560 C   0  0  0  0  0  0  0  0  0  0  0  0
  1 28  2  0  0  0  0
  1 16  1  0  0  0  0
  5 18  2  0  0  0  0
  6 25  1  0  0  0  0
  6 11  2  0  0  0  0
  7 11  1  0  0  0  0
  7 31  1  0  0  0  0
  8 31  1  0  0  0  0
  8  4  1  1  0  0  0
  9 30  1  1  0  0  0
  9  8  1  0  0  0  0
 10  4  1  6  0  0  0
 10 24  1  0  0  0  0
 10 19  1  0  0  0  0
 12 20  1  0  0  0  0
 13 12  1  6  0  0  0
 13 26  1  0  0  0  0
 13  9  1  0  0  0  0
 14 23  1  0  0  0  0
 14 50  1  1  0  0  0
 15 21  1  0  0  0  0
 16  7  2  0  0  0  0
 18 14  1  0  0  0  0
 19 29  1  0  0  0  0
 21 18  1  0  0  0  0
 21 25  2  0  0  0  0
 22 20  1  0  0  0  0
 22 32  1  1  0  0  0
 22 17  1  0  0  0  0
 24  3  1  6  0  0  0
 24  2  1  0  0  0  0
 24 29  1  0  0  0  0
 25 23  1  0  0  0  0
 26 16  1  0  0  0  0
 27 15  2  0  0  0  0
 27 28  1  0  0  0  0
 28  6  1  0  0  0  0
 29  2  1  6  0  0  0
 30 17  1  0  0  0  0
 31  3  1  1  0  0  0
 32 33  1  6  0  0  0
 34 40  2  0  0  0  0
 34 35  1  0  0  0  0
 35 38  2  0  0  0  0
 37 36  1  0  0  0  0
 38 37  1  0  0  0  0
 39 41  1  0  0  0  0
 39 37  2  0  0  0  0
 40 39  1  0  0  0  0
 41 42  1  0  0  0  0
 42 36  2  0  0  0  0
 42 32  1  0  0  0  0
 43 19  1  0  0  0  0
 43 47  1  0  0  0  0
 44 46  1  0  0  0  0
 45 49  1  0  0  0  0
 46 49  2  0  0  0  0
 47 48  1  0  0  0  0
 47 44  2  0  0  0  0
 48 45  2  0  0  0  0
 50 51  1  6  0  0  0
 50 53  1  0  0  0  0
 52 51  1  0  0  0  0
 53 55  1  0  0  0  0
 54 58  1  0  0  0  0
 55 54  1  0  0  0  0
 55 58  1  0  0  0  0
 57 58  1  0  0  0  0
 58 56  1  0  0  0  0
M  END
>  <MODEL>
1

>  <REMARK>
 VINA RESULT:      -7.4      0.000      0.000
  Name = 
  8 active torsions:
  status: ('A' for Active; 'I' for Inactive)
    1  A    between atoms: C_5  and  N_34
    2  A    between atoms: C_5  and  C_36
    3  A    between atoms: O_8  and  C_37
    4  A    between atoms: C_21  and  C_40
    5  A    between atoms: C_21  and  C_58
    6  A    between atoms: N_26  and  N_54
    7  A    between atoms: C_27  and  C_37
    8  A    between atoms: C_37  and  N_54
                            x       y       z     vdW  Elec       q    Type
                         _______ _______ _______ _____ _____    ______ ____

>  <TORSDO>
F 8

$$$$
=
 OpenBabel11032421223D

 58 69  0  0  1  0  0  0  0  0999 V2000
  191.5020  177.9210  143.3040 C   0  0  0  0  0  3  0  0  0  0  0  0
  187.9090  179.2450  137.8530 C   0  0  0  0  0  2  0  0  0  0  0  0
  187.8590  178.2910  140.0270 C   0  0  0  0  0  2  0  0  0  0  0  0
  189.3590  176.7860  138.0550 O   0  0  0  0  0  0  0  0  0  0  0  0
  187.6060  177.4560  148.4930 O   0  0  0  0  0  0  0  0  0  0  0  0
  189.1840  177.7190  144.0160 C   0  0  0  0  0  0  0  0  0  0  0  0
  189.7310  177.8060  141.6490 C   0  0  0  0  0  0  0  0  0  0  0  0
  189.7150  176.6250  139.4130 C   0  0  1  0  0  3  0  0  0  0  0  0
  191.1680  176.1810  139.4550 C   0  0  2  0  0  3  0  0  0  0  0  0
  187.9510  176.7680  137.9830 C   0  0  2  0  0  3  0  0  0  0  0  0
  188.7790  177.7080  142.6780 C   0  0  0  0  0  3  0  0  0  0  0  0
  193.6200  176.5000  139.6860 C   0  0  0  0  0  2  0  0  0  0  0  0
  192.2010  176.8630  140.0190 C   0  0  2  0  0  3  0  0  0  0  0  0
  186.2910  177.3690  146.4320 C   0  0  2  0  0  3  0  0  0  0  0  0
  190.0330  177.7840  146.7120 C   0  0  0  0  0  3  0  0  0  0  0  0
  191.0900  177.8760  141.9670 C   0  0  0  0  0  0  0  0  0  0  0  0
  192.0360  175.2790  137.3030 C   0  0  0  0  0  2  0  0  0  0  0  0
  187.5450  177.5150  147.2360 C   0  0  0  0  0  0  0  0  0  0  0  0
  187.4190  177.1430  136.6540 N   0  0  0  0  0  0  0  0  0  0  0  0
  193.9130  176.7410  138.2100 C   0  0  0  0  0  2  0  0  0  0  0  0
  188.6840  177.6590  146.3700 C   0  0  0  0  0  0  0  0  0  0  0  0
  193.5480  175.5150  137.3750 C   0  0  2  0  0  3  0  0  0  0  0  0
  186.7780  177.4570  144.9670 C   0  0  0  0  0  2  0  0  0  0  0  0
  187.4010  178.0160  138.6050 C   0  0  2  0  0  0  0  0  0  0  0  0
  188.2610  177.6240  145.0640 C   0  0  0  0  0  0  0  0  0  0  0  0
  192.0540  177.8920  140.9580 O   0  0  0  0  0  0  0  0  0  0  0  0
  190.9760  177.8800  145.6760 C   0  0  0  0  0  3  0  0  0  0  0  0
  190.5610  177.8480  144.3330 C   0  0  0  0  0  0  0  0  0  0  0  0
  186.8570  178.3810  137.2340 C   0  0  1  0  0  3  0  0  0  0  0  0
  191.4510  174.9330  138.6650 C   0  0  0  0  0  2  0  0  0  0  0  0
  189.3450  177.9020  140.2060 C   0  0  1  0  0  3  0  0  0  0  0  0
  194.1660  175.6140  135.9760 C   0  0  1  0  0  3  0  0  0  0  0  0
  194.6420  176.9060  135.7440 O   0  0  0  0  0  1  0  0  0  0  0  0
  197.8710  171.1600  134.9490 N   0  0  0  0  0  0  0  0  0  0  0  0
  198.8450  172.0890  135.2020 C   0  0  0  0  0  3  0  0  0  0  0  0
  196.5720  174.8960  135.8340 N   0  0  0  0  0  0  0  0  0  0  0  0
  197.1470  173.7180  135.5600 C   0  0  0  0  0  0  0  0  0  0  0  0
  198.5020  173.4170  135.5220 C   0  0  0  0  0  3  0  0  0  0  0  0
  196.1970  172.7820  135.3090 C   0  0  0  0  0  0  0  0  0  0  0  0
  196.5420  171.4730  134.9950 C   0  0  0  0  0  3  0  0  0  0  0  0
  194.9730  173.3130  135.4110 N   0  0  0  0  0  2  0  0  0  0  0  0
  195.2470  174.6060  135.7290 C   0  0  0  0  0  0  0  0  0  0  0  0
  188.4620  177.4700  135.6760 C   0  0  0  0  0  2  0  0  0  0  0  0
  188.5480  175.0030  135.2820 C   0  0  0  0  0  3  0  0  0  0  0  0
  191.2530  175.1570  134.5940 C   0  0  0  0  0  3  0  0  0  0  0  0
  189.2470  173.8430  134.9380 C   0  0  0  0  0  3  0  0  0  0  0  0
  189.2020  176.2410  135.2850 C   0  0  0  0  0  0  0  0  0  0  0  0
  190.5570  176.3150  134.9420 C   0  0  0  0  0  3  0  0  0  0  0  0
  190.6000  173.9190  134.5940 C   0  0  0  0  0  3  0  0  0  0  0  0
  185.2910  178.4960  146.7350 C   0  0  1  0  0  3  0  0  0  0  0  0
  185.8940  179.7770  146.7590 O   0  0  0  0  0  0  0  0  0  0  0  0
  186.0450  180.1890  148.0970 C   0  0  0  0  0  1  0  0  0  0  0  0
  184.1460  178.4530  145.8250 N   0  0  0  0  0  2  0  0  0  0  0  0
  184.1350  180.0500  144.1560 C   0  0  0  0  0  2  0  0  0  0  0  0
  184.6290  178.7080  144.5310 N   0  0  0  0  0  0  0  0  0  0  0  0
  183.8720  178.5730  142.1530 C   0  0  0  0  0  1  0  0  0  0  0  0
  182.0930  178.5680  144.0870 C   0  0  0  0  0  1  0  0  0  0  0  0
  183.5000  178.8750  143.5880 C   0  0  0  0  0  0  0  0  0  0  0  0
  1 28  1  0  0  0  0
  6 28  2  0  0  0  0
  6 25  1  0  0  0  0
  7 16  1  0  0  0  0
  7 11  2  0  0  0  0
  8  4  1  6  0  0  0
  8  9  1  0  0  0  0
  8 31  1  0  0  0  0
  9 30  1  6  0  0  0
  9 13  1  0  0  0  0
 10  4  1  6  0  0  0
 10 24  1  0  0  0  0
 11  6  1  0  0  0  0
 13 12  1  1  0  0  0
 13 26  1  0  0  0  0
 14 50  1  1  0  0  0
 14 18  1  0  0  0  0
 16  1  2  0  0  0  0
 17 22  1  0  0  0  0
 17 30  1  0  0  0  0
 18  5  2  0  0  0  0
 19 29  1  0  0  0  0
 19 10  1  0  0  0  0
 20 12  1  0  0  0  0
 21 15  1  0  0  0  0
 21 18  1  0  0  0  0
 22 32  1  6  0  0  0
 22 20  1  0  0  0  0
 23 25  1  0  0  0  0
 23 14  1  0  0  0  0
 24  2  1  6  0  0  0
 24  3  1  0  0  0  0
 25 21  2  0  0  0  0
 26 16  1  0  0  0  0
 27 15  2  0  0  0  0
 28 27  1  0  0  0  0
 29  2  1  6  0  0  0
 29 24  1  0  0  0  0
 31  3  1  1  0  0  0
 31  7  1  0  0  0  0
 32 33  1  1  0  0  0
 34 40  2  0  0  0  0
 34 35  1  0  0  0  0
 35 38  2  0  0  0  0
 37 36  1  0  0  0  0
 38 37  1  0  0  0  0
 39 41  1  0  0  0  0
 39 37  2  0  0  0  0
 40 39  1  0  0  0  0
 41 42  1  0  0  0  0
 42 36  2  0  0  0  0
 42 32  1  0  0  0  0
 43 19  1  0  0  0  0
 44 47  1  0  0  0  0
 45 48  1  0  0  0  0
 46 44  2  0  0  0  0
 47 43  1  0  0  0  0
 48 47  2  0  0  0  0
 49 45  2  0  0  0  0
 49 46  1  0  0  0  0
 50 53  1  6  0  0  0
 50 51  1  0  0  0  0
 51 52  1  0  0  0  0
 54 55  1  0  0  0  0
 55 53  1  0  0  0  0
 56 58  1  0  0  0  0
 58 57  1  0  0  0  0
 58 54  1  0  0  0  0
 58 55  1  0  0  0  0
M  END
>  <MODEL>
2

>  <REMARK>
 VINA RESULT:      -7.1      3.983      7.609
  Name = 
  8 active torsions:
  status: ('A' for Active; 'I' for Inactive)
    1  A    between atoms: C_5  and  N_34
    2  A    between atoms: C_5  and  C_36
    3  A    between atoms: O_8  and  C_37
    4  A    between atoms: C_21  and  C_40
    5  A    between atoms: C_21  and  C_58
    6  A    between atoms: N_26  and  N_54
    7  A    between atoms: C_27  and  C_37
    8  A    between atoms: C_37  and  N_54
                            x       y       z     vdW  Elec       q    Type
                         _______ _______ _______ _____ _____    ______ ____

>  <TORSDO>
F 8

$$$$
=
 OpenBabel11032421223D

 58 69  0  0  1  0  0  0  0  0999 V2000
  186.6290  178.9950  142.2710 C   0  0  0  0  0  3  0  0  0  0  0  0
  187.2150  179.2690  135.6400 C   0  0  0  0  0  2  0  0  0  0  0  0
  185.8500  178.5360  137.4410 C   0  0  0  0  0  2  0  0  0  0  0  0
  188.3220  177.0630  137.0910 O   0  0  0  0  0  0  0  0  0  0  0  0
  180.3610  178.5180  143.9460 O   0  0  0  0  0  0  0  0  0  0  0  0
  184.3910  178.5490  141.4240 C   0  0  0  0  0  0  0  0  0  0  0  0
  186.3020  178.4760  139.9240 C   0  0  0  0  0  0  0  0  0  0  0  0
  187.7500  177.0880  138.3830 C   0  0  1  0  0  3  0  0  0  0  0  0
  188.8710  176.8540  139.3830 C   0  0  2  0  0  3  0  0  0  0  0  0
  187.2760  176.8460  136.1710 C   0  0  2  0  0  3  0  0  0  0  0  0
  184.9210  178.3500  140.1460 C   0  0  0  0  0  3  0  0  0  0  0  0
  190.6130  177.5270  141.0190 C   0  0  0  0  0  2  0  0  0  0  0  0
  189.2870  177.7230  140.3430 C   0  0  2  0  0  3  0  0  0  0  0  0
  180.6420  178.0470  141.5610 C   0  0  2  0  0  3  0  0  0  0  0  0
  183.3500  178.9970  144.0150 C   0  0  0  0  0  3  0  0  0  0  0  0
  187.1530  178.7620  140.9940 C   0  0  0  0  0  0  0  0  0  0  0  0
  190.9390  175.8700  138.4060 C   0  0  0  0  0  2  0  0  0  0  0  0
  181.1020  178.4430  142.9300 C   0  0  0  0  0  0  0  0  0  0  0  0
  187.6830  177.0120  134.7580 N   0  0  0  0  0  0  0  0  0  0  0  0
  191.7590  177.6580  140.0230 C   0  0  0  0  0  2  0  0  0  0  0  0
  182.5250  178.6550  142.9400 C   0  0  0  0  0  0  0  0  0  0  0  0
  192.0560  176.3170  139.3540 C   0  0  2  0  0  3  0  0  0  0  0  0
  181.9380  178.0560  140.7170 C   0  0  0  0  0  2  0  0  0  0  0  0
  186.4010  178.0620  136.1080 C   0  0  2  0  0  0  0  0  0  0  0  0
  183.0200  178.4330  141.6790 C   0  0  0  0  0  0  0  0  0  0  0  0
  188.5350  178.8100  140.8080 O   0  0  0  0  0  0  0  0  0  0  0  0
  184.7290  179.1180  143.7820 C   0  0  0  0  0  3  0  0  0  0  0  0
  185.2550  178.8960  142.4960 C   0  0  0  0  0  0  0  0  0  0  0  0
  186.8270  178.2120  134.6570 C   0  0  1  0  0  3  0  0  0  0  0  0
  189.6430  175.5840  139.1520 C   0  0  0  0  0  2  0  0  0  0  0  0
  186.9060  178.3740  138.5580 C   0  0  1  0  0  3  0  0  0  0  0  0
  193.4110  176.3600  138.6420 C   0  0  1  0  0  3  0  0  0  0  0  0
  194.3560  177.0210  139.4300 O   0  0  0  0  0  1  0  0  0  0  0  0
  196.0650  171.2890  137.2770 N   0  0  0  0  0  0  0  0  0  0  0  0
  194.8410  170.9420  136.7680 C   0  0  0  0  0  3  0  0  0  0  0  0
  193.1450  174.0800  137.6150 N   0  0  0  0  0  0  0  0  0  0  0  0
  194.0030  173.0680  137.4320 C   0  0  0  0  0  0  0  0  0  0  0  0
  193.7580  171.8390  136.8320 C   0  0  0  0  0  3  0  0  0  0  0  0
  195.2230  173.3930  137.9270 C   0  0  0  0  0  0  0  0  0  0  0  0
  196.2880  172.5040  137.8600 C   0  0  0  0  0  3  0  0  0  0  0  0
  195.2050  174.6270  138.4480 N   0  0  0  0  0  2  0  0  0  0  0  0
  193.9180  175.0080  138.2400 C   0  0  0  0  0  0  0  0  0  0  0  0
  189.0940  177.3800  134.5940 C   0  0  0  0  0  2  0  0  0  0  0  0
  191.3410  176.2850  134.6170 C   0  0  0  0  0  3  0  0  0  0  0  0
  190.1610  173.7500  134.5940 C   0  0  0  0  0  3  0  0  0  0  0  0
  192.1450  175.1420  134.6090 C   0  0  0  0  0  3  0  0  0  0  0  0
  189.9460  176.1620  134.6100 C   0  0  0  0  0  0  0  0  0  0  0  0
  189.3580  174.8920  134.5970 C   0  0  0  0  0  3  0  0  0  0  0  0
  191.5560  173.8740  134.5970 C   0  0  0  0  0  3  0  0  0  0  0  0
  179.6250  179.0510  140.9940 C   0  0  1  0  0  3  0  0  0  0  0  0
  180.1400  180.3670  140.9070 O   0  0  0  0  0  0  0  0  0  0  0  0
  179.0860  181.2860  141.0730 C   0  0  0  0  0  1  0  0  0  0  0  0
  179.0810  178.5960  139.7150 N   0  0  0  0  0  2  0  0  0  0  0  0
  179.0650  179.0930  137.4590 C   0  0  0  0  0  2  0  0  0  0  0  0
  179.8670  179.1650  138.6990 N   0  0  0  0  0  0  0  0  0  0  0  0
  181.4120  178.4610  136.8660 C   0  0  0  0  0  1  0  0  0  0  0  0
  179.7600  176.7100  137.9180 C   0  0  0  0  0  1  0  0  0  0  0  0
  180.1570  178.1580  137.6540 C   0  0  0  0  0  0  0  0  0  0  0  0
  1 28  1  0  0  0  0
  6 25  2  0  0  0  0
  6 28  1  0  0  0  0
  7 11  2  0  0  0  0
  7 16  1  0  0  0  0
  8  4  1  6  0  0  0
  8 31  1  0  0  0  0
  8  9  1  0  0  0  0
  9 30  1  6  0  0  0
  9 13  1  0  0  0  0
 10  4  1  1  0  0  0
 11  6  1  0  0  0  0
 13 26  1  0  0  0  0
 13 12  1  1  0  0  0
 14 50  1  6  0  0  0
 14 18  1  0  0  0  0
 16  1  2  0  0  0  0
 17 30  1  0  0  0  0
 17 22  1  0  0  0  0
 18 21  1  0  0  0  0
 18  5  2  0  0  0  0
 19 10  1  0  0  0  0
 20 12  1  0  0  0  0
 21 15  2  0  0  0  0
 22 32  1  6  0  0  0
 22 20  1  0  0  0  0
 23 14  1  0  0  0  0
 23 25  1  0  0  0  0
 24  2  1  1  0  0  0
 24 10  1  0  0  0  0
 24  3  1  0  0  0  0
 25 21  1  0  0  0  0
 26 16  1  0  0  0  0
 27 15  1  0  0  0  0
 28 27  2  0  0  0  0
 29 19  1  0  0  0  0
 29  2  1  1  0  0  0
 29 24  1  0  0  0  0
 31  3  1  6  0  0  0
 31  7  1  0  0  0  0
 32 33  1  1  0  0  0
 34 40  1  0  0  0  0
 35 38  1  0  0  0  0
 35 34  2  0  0  0  0
 36 42  2  0  0  0  0
 37 36  1  0  0  0  0
 37 39  1  0  0  0  0
 38 37  2  0  0  0  0
 39 41  1  0  0  0  0
 40 39  2  0  0  0  0
 42 41  1  0  0  0  0
 42 32  1  0  0  0  0
 43 47  1  0  0  0  0
 43 19  1  0  0  0  0
 45 49  2  0  0  0  0
 45 48  1  0  0  0  0
 46 44  2  0  0  0  0
 47 44  1  0  0  0  0
 48 47  2  0  0  0  0
 49 46  1  0  0  0  0
 50 53  1  6  0  0  0
 51 50  1  0  0  0  0
 51 52  1  0  0  0  0
 54 58  1  0  0  0  0
 54 55  1  0  0  0  0
 55 53  1  0  0  0  0
 56 58  1  0  0  0  0
 58 57  1  0  0  0  0
 58 55  1  0  0  0  0
M  END
>  <MODEL>
3

>  <REMARK>
 VINA RESULT:      -6.6      2.728      5.707
  Name = 
  8 active torsions:
  status: ('A' for Active; 'I' for Inactive)
    1  A    between atoms: C_5  and  N_34
    2  A    between atoms: C_5  and  C_36
    3  A    between atoms: O_8  and  C_37
    4  A    between atoms: C_21  and  C_40
    5  A    between atoms: C_21  and  C_58
    6  A    between atoms: N_26  and  N_54
    7  A    between atoms: C_27  and  C_37
    8  A    between atoms: C_37  and  N_54
                            x       y       z     vdW  Elec       q    Type
                         _______ _______ _______ _____ _____    ______ ____

>  <TORSDO>
F 8

$$$$
=
 OpenBabel11032421223D

 58 69  0  0  1  0  0  0  0  0999 V2000
  189.0940  176.8590  138.1470 C   0  0  0  0  0  3  0  0  0  0  0  0
  184.6370  172.0270  137.0610 C   0  0  0  0  0  2  0  0  0  0  0  0
  186.7330  172.9220  136.3930 C   0  0  0  0  0  2  0  0  0  0  0  0
  184.4250  174.5170  135.6660 O   0  0  0  0  0  0  0  0  0  0  0  0
  195.0060  174.9150  136.2550 O   0  0  0  0  0  0  0  0  0  0  0  0
  190.3010  175.1630  136.8870 C   0  0  0  0  0  0  0  0  0  0  0  0
  187.8760  175.0800  137.0340 C   0  0  0  0  0  0  0  0  0  0  0  0
  185.6620  175.1840  135.8170 C   0  0  1  0  0  3  0  0  0  0  0  0
  185.3610  176.6350  136.1540 C   0  0  2  0  0  3  0  0  0  0  0  0
  184.6710  173.3280  134.9490 C   0  0  2  0  0  3  0  0  0  0  0  0
  189.0880  174.5460  136.5650 C   0  0  0  0  0  3  0  0  0  0  0  0
  185.0460  178.5830  137.6610 C   0  0  0  0  0  2  0  0  0  0  0  0
  185.7010  177.2810  137.3020 C   0  0  2  0  0  3  0  0  0  0  0  0
  193.2920  173.4190  135.3570 C   0  0  2  0  0  3  0  0  0  0  0  0
  192.7380  176.4130  137.5890 C   0  0  0  0  0  3  0  0  0  0  0  0
  187.8820  176.2530  137.7920 C   0  0  0  0  0  0  0  0  0  0  0  0
  183.0390  177.3610  135.6220 C   0  0  0  0  0  2  0  0  0  0  0  0
  193.7980  174.5690  136.1710 C   0  0  0  0  0  0  0  0  0  0  0  0
  183.5090  172.4130  134.9000 N   0  0  0  0  0  0  0  0  0  0  0  0
  183.5510  178.3980  137.8900 C   0  0  0  0  0  2  0  0  0  0  0  0
  192.7030  175.2710  136.7860 C   0  0  0  0  0  0  0  0  0  0  0  0
  182.7780  178.5270  136.5790 C   0  0  2  0  0  3  0  0  0  0  0  0
  191.7590  173.4740  135.5510 C   0  0  0  0  0  2  0  0  0  0  0  0
  185.4430  172.3740  135.8100 C   0  0  2  0  0  0  0  0  0  0  0  0
  191.5260  174.6570  136.4370 C   0  0  0  0  0  0  0  0  0  0  0  0
  186.6840  176.8410  138.1980 O   0  0  0  0  0  0  0  0  0  0  0  0
  191.5200  176.9390  138.0500 C   0  0  0  0  0  3  0  0  0  0  0  0
  190.3040  176.3220  137.7050 C   0  0  0  0  0  0  0  0  0  0  0  0
  184.2420  171.4450  135.7420 C   0  0  1  0  0  3  0  0  0  0  0  0
  184.4860  177.3300  135.1470 C   0  0  0  0  0  2  0  0  0  0  0  0
  186.5610  174.4020  136.8050 C   0  0  1  0  0  3  0  0  0  0  0  0
  181.2810  178.7010  136.8520 C   0  0  1  0  0  3  0  0  0  0  0  0
  180.5450  178.5080  135.6810 O   0  0  0  0  0  1  0  0  0  0  0  0
  179.2150  175.8270  141.5530 N   0  0  0  0  0  0  0  0  0  0  0  0
  179.4480  174.7050  140.8010 C   0  0  0  0  0  3  0  0  0  0  0  0
  180.7250  176.4580  137.8450 N   0  0  0  0  0  0  0  0  0  0  0  0
  180.2320  176.0960  139.0360 C   0  0  0  0  0  0  0  0  0  0  0  0
  179.9740  174.8120  139.4990 C   0  0  0  0  0  3  0  0  0  0  0  0
  179.9970  177.1940  139.7980 C   0  0  0  0  0  0  0  0  0  0  0  0
  179.4800  177.0810  141.0820 C   0  0  0  0  0  3  0  0  0  0  0  0
  180.3300  178.3080  139.1340 N   0  0  0  0  0  2  0  0  0  0  0  0
  180.7660  177.8140  137.9450 C   0  0  0  0  0  0  0  0  0  0  0  0
  182.3330  172.9200  135.6170 C   0  0  0  0  0  2  0  0  0  0  0  0
  180.2620  171.9200  136.5990 C   0  0  0  0  0  3  0  0  0  0  0  0
  180.2140  169.9490  134.6160 C   0  0  0  0  0  3  0  0  0  0  0  0
  179.2550  170.9510  136.6030 C   0  0  0  0  0  3  0  0  0  0  0  0
  181.2480  171.9020  135.6050 C   0  0  0  0  0  0  0  0  0  0  0  0
  181.2230  170.9140  134.6140 C   0  0  0  0  0  3  0  0  0  0  0  0
  179.2310  169.9650  135.6120 C   0  0  0  0  0  3  0  0  0  0  0  0
  193.8500  172.0790  135.8640 C   0  0  1  0  0  3  0  0  0  0  0  0
  192.9040  171.0270  135.7970 O   0  0  0  0  0  0  0  0  0  0  0  0
  193.1300  170.2790  134.6270 C   0  0  0  0  0  1  0  0  0  0  0  0
  195.0980  171.7290  135.1850 N   0  0  0  0  0  2  0  0  0  0  0  0
  197.3490  172.1680  135.4650 C   0  0  0  0  0  2  0  0  0  0  0  0
  196.1160  171.7300  136.1540 N   0  0  0  0  0  0  0  0  0  0  0  0
  197.9720  170.2690  136.9690 C   0  0  0  0  0  1  0  0  0  0  0  0
  196.9210  169.8360  134.6010 C   0  0  0  0  0  1  0  0  0  0  0  0
  197.1740  170.7630  135.7830 C   0  0  0  0  0  0  0  0  0  0  0  0
  6 28  1  0  0  0  0
  7 16  2  0  0  0  0
  8  4  1  1  0  0  0
  8  9  1  0  0  0  0
  8 31  1  0  0  0  0
  9 30  1  1  0  0  0
  9 13  1  0  0  0  0
 10  4  1  1  0  0  0
 10 24  1  0  0  0  0
 11  6  2  0  0  0  0
 11  7  1  0  0  0  0
 12 20  1  0  0  0  0
 13 12  1  6  0  0  0
 13 26  1  0  0  0  0
 14 23  1  0  0  0  0
 14 50  1  1  0  0  0
 14 18  1  0  0  0  0
 15 27  2  0  0  0  0
 16  1  1  0  0  0  0
 16 26  1  0  0  0  0
 17 22  1  0  0  0  0
 18  5  2  0  0  0  0
 18 21  1  0  0  0  0
 19 10  1  0  0  0  0
 19 43  1  0  0  0  0
 19 29  1  0  0  0  0
 21 15  1  0  0  0  0
 22 32  1  1  0  0  0
 22 20  1  0  0  0  0
 23 25  1  0  0  0  0
 24  3  1  6  0  0  0
 24  2  1  0  0  0  0
 25 21  2  0  0  0  0
 25  6  1  0  0  0  0
 28 27  1  0  0  0  0
 28  1  2  0  0  0  0
 29 24  1  0  0  0  0
 29  2  1  1  0  0  0
 30 17  1  0  0  0  0
 31  3  1  6  0  0  0
 31  7  1  0  0  0  0
 32 33  1  6  0  0  0
 32 42  1  0  0  0  0
 35 34  2  0  0  0  0
 36 42  2  0  0  0  0
 36 37  1  0  0  0  0
 37 38  2  0  0  0  0
 37 39  1  0  0  0  0
 38 35  1  0  0  0  0
 39 40  2  0  0  0  0
 40 34  1  0  0  0  0
 41 39  1  0  0  0  0
 42 41  1  0  0  0  0
 44 46  1  0  0  0  0
 45 49  1  0  0  0  0
 47 43  1  0  0  0  0
 47 44  2  0  0  0  0
 48 45  2  0  0  0  0
 48 47  1  0  0  0  0
 49 46  2  0  0  0  0
 50 53  1  6  0  0  0
 51 50  1  0  0  0  0
 52 51  1  0  0  0  0
 53 55  1  0  0  0  0
 54 58  1  0  0  0  0
 54 55  1  0  0  0  0
 57 58  1  0  0  0  0
 58 55  1  0  0  0  0
 58 56  1  0  0  0  0
M  END
>  <MODEL>
4

>  <REMARK>
 VINA RESULT:      -6.2      3.707     13.110
  Name = 
  8 active torsions:
  status: ('A' for Active; 'I' for Inactive)
    1  A    between atoms: C_5  and  N_34
    2  A    between atoms: C_5  and  C_36
    3  A    between atoms: O_8  and  C_37
    4  A    between atoms: C_21  and  C_40
    5  A    between atoms: C_21  and  C_58
    6  A    between atoms: N_26  and  N_54
    7  A    between atoms: C_27  and  C_37
    8  A    between atoms: C_37  and  N_54
                            x       y       z     vdW  Elec       q    Type
                         _______ _______ _______ _____ _____    ______ ____

>  <TORSDO>
F 8

$$$$
=
 OpenBabel11032421223D

 58 69  0  0  1  0  0  0  0  0999 V2000
  189.2650  176.6880  138.2680 C   0  0  0  0  0  3  0  0  0  0  0  0
  184.8050  171.8660  137.1490 C   0  0  0  0  0  2  0  0  0  0  0  0
  186.9370  172.7190  136.5410 C   0  0  0  0  0  2  0  0  0  0  0  0
  184.6790  174.3130  135.6680 O   0  0  0  0  0  0  0  0  0  0  0  0
  195.2300  174.6280  136.6900 O   0  0  0  0  0  0  0  0  0  0  0  0
  190.5050  174.9410  137.1140 C   0  0  0  0  0  0  0  0  0  0  0  0
  188.0760  174.8860  137.1610 C   0  0  0  0  0  0  0  0  0  0  0  0
  185.9160  174.9720  135.8490 C   0  0  1  0  0  3  0  0  0  0  0  0
  185.6160  176.4360  136.1270 C   0  0  2  0  0  3  0  0  0  0  0  0
  184.9410  173.0990  135.0000 C   0  0  2  0  0  3  0  0  0  0  0  0
  189.3010  174.3260  136.7610 C   0  0  0  0  0  3  0  0  0  0  0  0
  185.2600  178.4340  137.5570 C   0  0  0  0  0  2  0  0  0  0  0  0
  185.9160  177.1150  137.2670 C   0  0  2  0  0  3  0  0  0  0  0  0
  193.5390  173.1200  135.7670 C   0  0  2  0  0  3  0  0  0  0  0  0
  192.9240  176.1900  137.8780 C   0  0  0  0  0  3  0  0  0  0  0  0
  188.0630  176.0820  137.8820 C   0  0  0  0  0  0  0  0  0  0  0  0
  183.3280  177.1660  135.4750 C   0  0  0  0  0  2  0  0  0  0  0  0
  194.0230  174.2910  136.5650 C   0  0  0  0  0  0  0  0  0  0  0  0
  183.7730  172.1940  134.9300 N   0  0  0  0  0  0  0  0  0  0  0  0
  183.7550  178.2710  137.7290 C   0  0  0  0  0  2  0  0  0  0  0  0
  192.9110  175.0220  137.1110 C   0  0  0  0  0  0  0  0  0  0  0  0
  183.0390  178.3650  136.3830 C   0  0  2  0  0  3  0  0  0  0  0  0
  191.9990  173.1960  135.8950 C   0  0  0  0  0  2  0  0  0  0  0  0
  185.6660  172.1650  135.9220 C   0  0  2  0  0  0  0  0  0  0  0  0
  191.7430  174.4090  136.7320 C   0  0  0  0  0  0  0  0  0  0  0  0
  186.8550  176.6950  138.2180 O   0  0  0  0  0  0  0  0  0  0  0  0
  191.6940  176.7410  138.2710 C   0  0  0  0  0  3  0  0  0  0  0  0
  190.4870  176.1260  137.8940 C   0  0  0  0  0  0  0  0  0  0  0  0
  184.4590  171.2460  135.8330 C   0  0  1  0  0  3  0  0  0  0  0  0
  184.7920  177.1060  135.0630 C   0  0  0  0  0  2  0  0  0  0  0  0
  186.7640  174.2130  136.8990 C   0  0  1  0  0  3  0  0  0  0  0  0
  181.5340  178.5630  136.5870 C   0  0  1  0  0  3  0  0  0  0  0  0
  181.1140  177.9300  137.7600 O   0  0  0  0  0  1  0  0  0  0  0  0
  179.9000  184.1660  137.3350 N   0  0  0  0  0  0  0  0  0  0  0  0
  179.7630  184.1670  135.9720 C   0  0  0  0  0  3  0  0  0  0  0  0
  180.7910  180.6850  135.4600 N   0  0  0  0  0  0  0  0  0  0  0  0
  180.4630  181.8920  135.9370 C   0  0  0  0  0  0  0  0  0  0  0  0
  180.0450  183.0080  135.2230 C   0  0  0  0  0  3  0  0  0  0  0  0
  180.5900  181.9110  137.2870 C   0  0  0  0  0  0  0  0  0  0  0  0
  180.3090  183.0570  138.0210 C   0  0  0  0  0  3  0  0  0  0  0  0
  181.0010  180.7200  137.7390 N   0  0  0  0  0  2  0  0  0  0  0  0
  181.1150  180.0020  136.5900 C   0  0  0  0  0  0  0  0  0  0  0  0
  182.5730  172.7340  135.5800 C   0  0  0  0  0  2  0  0  0  0  0  0
  180.1130  172.4770  135.2170 C   0  0  0  0  0  3  0  0  0  0  0  0
  180.4270  169.7520  134.6780 C   0  0  0  0  0  3  0  0  0  0  0  0
  178.9950  171.6920  134.9240 C   0  0  0  0  0  3  0  0  0  0  0  0
  181.3890  171.9010  135.2440 C   0  0  0  0  0  0  0  0  0  0  0  0
  181.5430  170.5360  134.9750 C   0  0  0  0  0  3  0  0  0  0  0  0
  179.1520  170.3290  134.6550 C   0  0  0  0  0  3  0  0  0  0  0  0
  194.0600  171.7920  136.3390 C   0  0  1  0  0  3  0  0  0  0  0  0
  193.1050  170.7490  136.2720 O   0  0  0  0  0  0  0  0  0  0  0  0
  192.9660  170.3390  134.9320 C   0  0  0  0  0  1  0  0  0  0  0  0
  195.3290  171.4050  135.7210 N   0  0  0  0  0  2  0  0  0  0  0  0
  196.3100  171.5600  137.8070 C   0  0  0  0  0  2  0  0  0  0  0  0
  196.0450  170.6550  136.6690 N   0  0  0  0  0  0  0  0  0  0  0  0
  198.4020  170.2520  137.3940 C   0  0  0  0  0  1  0  0  0  0  0  0
  197.8270  172.3800  135.9640 C   0  0  0  0  0  1  0  0  0  0  0  0
  197.3840  171.2480  136.8840 C   0  0  0  0  0  0  0  0  0  0  0  0
  6 28  1  0  0  0  0
  7 16  1  0  0  0  0
  8  4  1  1  0  0  0
  8  9  1  0  0  0  0
  8 31  1  0  0  0  0
  9 30  1  1  0  0  0
  9 13  1  0  0  0  0
 10  4  1  1  0  0  0
 10 24  1  0  0  0  0
 11  6  1  0  0  0  0
 11  7  2  0  0  0  0
 12 20  1  0  0  0  0
 13 12  1  6  0  0  0
 13 26  1  0  0  0  0
 14 23  1  0  0  0  0
 14 50  1  1  0  0  0
 14 18  1  0  0  0  0
 15 27  1  0  0  0  0
 16 26  1  0  0  0  0
 16  1  2  0  0  0  0
 17 22  1  0  0  0  0
 18  5  2  0  0  0  0
 18 21  1  0  0  0  0
 19 10  1  0  0  0  0
 19 43  1  0  0  0  0
 19 29  1  0  0  0  0
 21 15  2  0  0  0  0
 22 32  1  1  0  0  0
 22 20  1  0  0  0  0
 23 25  1  0  0  0  0
 24  3  1  6  0  0  0
 24  2  1  0  0  0  0
 25 21  1  0  0  0  0
 25  6  2  0  0  0  0
 28  1  1  0  0  0  0
 28 27  2  0  0  0  0
 29 24  1  0  0  0  0
 29  2  1  1  0  0  0
 30 17  1  0  0  0  0
 31  3  1  6  0  0  0
 31  7  1  0  0  0  0
 32 42  1  0  0  0  0
 32 33  1  1  0  0  0
 34 40  1  0  0  0  0
 35 34  2  0  0  0  0
 36 37  1  0  0  0  0
 36 42  2  0  0  0  0
 37 39  1  0  0  0  0
 38 37  2  0  0  0  0
 38 35  1  0  0  0  0
 39 41  1  0  0  0  0
 39 40  2  0  0  0  0
 42 41  1  0  0  0  0
 44 47  1  0  0  0  0
 45 48  1  0  0  0  0
 46 44  2  0  0  0  0
 47 43  1  0  0  0  0
 48 47  2  0  0  0  0
 49 45  2  0  0  0  0
 49 46  1  0  0  0  0
 50 53  1  6  0  0  0
 51 50  1  0  0  0  0
 52 51  1  0  0  0  0
 53 55  1  0  0  0  0
 55 58  1  0  0  0  0
 55 54  1  0  0  0  0
 57 58  1  0  0  0  0
 58 56  1  0  0  0  0
 58 54  1  0  0  0  0
M  END
>  <MODEL>
5

>  <REMARK>
 VINA RESULT:      -5.7      3.692     13.213
  Name = 
  8 active torsions:
  status: ('A' for Active; 'I' for Inactive)
    1  A    between atoms: C_5  and  N_34
    2  A    between atoms: C_5  and  C_36
    3  A    between atoms: O_8  and  C_37
    4  A    between atoms: C_21  and  C_40
    5  A    between atoms: C_21  and  C_58
    6  A    between atoms: N_26  and  N_54
    7  A    between atoms: C_27  and  C_37
    8  A    between atoms: C_37  and  N_54
                            x       y       z     vdW  Elec       q    Type
                         _______ _______ _______ _____ _____    ______ ____

>  <TORSDO>
F 8

$$$$
=
 OpenBabel11032421223D

 58 69  0  0  1  0  0  0  0  0999 V2000
  189.8260  177.2120  137.6340 C   0  0  0  0  0  3  0  0  0  0  0  0
  192.0580  179.1000  143.6200 C   0  0  0  0  0  2  0  0  0  0  0  0
  192.2120  177.4450  141.9230 C   0  0  0  0  0  2  0  0  0  0  0  0
  189.7230  177.4570  143.4100 O   0  0  0  0  0  0  0  0  0  0  0  0
  194.2300  173.4350  134.6930 O   0  0  0  0  0  0  0  0  0  0  0  0
  191.8640  175.9280  137.9770 C   0  0  0  0  0  0  0  0  0  0  0  0
  190.8290  177.0980  139.8400 C   0  0  0  0  0  0  0  0  0  0  0  0
  189.7010  176.9350  142.0970 C   0  0  1  0  0  3  0  0  0  0  0  0
  188.2790  177.0700  141.5760 C   0  0  2  0  0  3  0  0  0  0  0  0
  190.8800  176.9580  144.0430 C   0  0  2  0  0  3  0  0  0  0  0  0
  191.8510  176.2790  139.3300 C   0  0  0  0  0  3  0  0  0  0  0  0
  186.4300  178.1450  140.3160 C   0  0  0  0  0  2  0  0  0  0  0  0
  187.8810  177.8120  140.5070 C   0  0  2  0  0  3  0  0  0  0  0  0
  194.7590  173.6630  137.0710 C   0  0  2  0  0  3  0  0  0  0  0  0
  191.8820  175.2710  135.2270 C   0  0  0  0  0  3  0  0  0  0  0  0
  189.8030  177.5310  138.9970 C   0  0  0  0  0  0  0  0  0  0  0  0
  186.5610  177.4330  143.3410 C   0  0  0  0  0  2  0  0  0  0  0  0
  193.9830  173.9390  135.8200 C   0  0  0  0  0  0  0  0  0  0  0  0
  191.1600  177.5880  145.3520 N   0  0  0  0  0  0  0  0  0  0  0  0
  185.9130  179.0150  141.4540 C   0  0  0  0  0  2  0  0  0  0  0  0
  192.8680  174.8040  136.1010 C   0  0  0  0  0  0  0  0  0  0  0  0
  185.4210  178.1560  142.6180 C   0  0  2  0  0  3  0  0  0  0  0  0
  194.0100  174.4710  138.1570 C   0  0  0  0  0  2  0  0  0  0  0  0
  192.0970  177.5840  143.4310 C   0  0  2  0  0  0  0  0  0  0  0  0
  192.8680  175.1150  137.4380 C   0  0  0  0  0  0  0  0  0  0  0  0
  188.7380  178.2770  139.5020 O   0  0  0  0  0  0  0  0  0  0  0  0
  190.8650  176.0870  135.7470 C   0  0  0  0  0  3  0  0  0  0  0  0
  190.8500  176.4180  137.1140 C   0  0  0  0  0  0  0  0  0  0  0  0
  192.3710  178.2170  144.7850 C   0  0  1  0  0  3  0  0  0  0  0  0
  187.2430  176.4090  142.4430 C   0  0  0  0  0  2  0  0  0  0  0  0
  190.8250  177.5860  141.2550 C   0  0  1  0  0  3  0  0  0  0  0  0
  184.5850  178.9950  143.5890 C   0  0  1  0  0  3  0  0  0  0  0  0
  185.1850  180.2380  143.8020 O   0  0  0  0  0  1  0  0  0  0  0  0
  179.1670  179.2510  141.3070 N   0  0  0  0  0  0  0  0  0  0  0  0
  178.9320  180.1510  142.3140 C   0  0  0  0  0  3  0  0  0  0  0  0
  182.2910  180.0080  143.7770 N   0  0  0  0  0  0  0  0  0  0  0  0
  181.1770  179.8610  143.0480 C   0  0  0  0  0  0  0  0  0  0  0  0
  179.9500  180.4870  143.2260 C   0  0  0  0  0  3  0  0  0  0  0  0
  181.3910  178.9750  142.0430 C   0  0  0  0  0  0  0  0  0  0  0  0
  180.3820  178.6480  141.1450 C   0  0  0  0  0  3  0  0  0  0  0  0
  182.6480  178.5150  142.0790 N   0  0  0  0  0  2  0  0  0  0  0  0
  183.1610  179.1690  143.1540 C   0  0  0  0  0  0  0  0  0  0  0  0
  190.1830  178.6160  145.7290 C   0  0  0  0  0  2  0  0  0  0  0  0
  187.8260  177.9050  146.1610 C   0  0  0  0  0  3  0  0  0  0  0  0
  188.4910  177.1060  148.7570 C   0  0  0  0  0  3  0  0  0  0  0  0
  186.8410  177.3800  147.0020 C   0  0  0  0  0  3  0  0  0  0  0  0
  189.1430  178.0340  146.6180 C   0  0  0  0  0  0  0  0  0  0  0  0
  189.4730  177.6340  147.9180 C   0  0  0  0  0  3  0  0  0  0  0  0
  187.1730  176.9800  148.3000 C   0  0  0  0  0  3  0  0  0  0  0  0
  196.2140  174.1440  136.9510 C   0  0  1  0  0  3  0  0  0  0  0  0
  196.4960  175.2580  137.7780 O   0  0  0  0  0  0  0  0  0  0  0  0
  197.3800  174.8590  138.7990 C   0  0  0  0  0  1  0  0  0  0  0  0
  197.1580  173.0490  137.1730 N   0  0  0  0  0  2  0  0  0  0  0  0
  196.7110  170.8210  137.5860 C   0  0  0  0  0  2  0  0  0  0  0  0
  196.6140  171.8980  136.5790 N   0  0  0  0  0  0  0  0  0  0  0  0
  197.3620  169.8380  135.3790 C   0  0  0  0  0  1  0  0  0  0  0  0
  199.0850  171.2030  136.8190 C   0  0  0  0  0  1  0  0  0  0  0  0
  197.6450  170.8410  136.4760 C   0  0  0  0  0  0  0  0  0  0  0  0
  1 16  1  0  0  0  0
  5 18  2  0  0  0  0
  6 11  2  0  0  0  0
  7 31  1  0  0  0  0
  8  4  1  1  0  0  0
  9  8  1  0  0  0  0
  9 30  1  1  0  0  0
 10  4  1  6  0  0  0
 10 19  1  0  0  0  0
 11  7  1  0  0  0  0
 12 20  1  0  0  0  0
 13 12  1  6  0  0  0
 13  9  1  0  0  0  0
 14 50  1  6  0  0  0
 14 23  1  0  0  0  0
 15 27  2  0  0  0  0
 15 21  1  0  0  0  0
 16 26  1  0  0  0  0
 16  7  2  0  0  0  0
 18 21  1  0  0  0  0
 18 14  1  0  0  0  0
 19 43  1  0  0  0  0
 20 22  1  0  0  0  0
 21 25  2  0  0  0  0
 22 17  1  0  0  0  0
 22 32  1  1  0  0  0
 24  3  1  6  0  0  0
 24  2  1  0  0  0  0
 24 10  1  0  0  0  0
 24 29  1  0  0  0  0
 25  6  1  0  0  0  0
 25 23  1  0  0  0  0
 26 13  1  0  0  0  0
 27 28  1  0  0  0  0
 28  1  2  0  0  0  0
 28  6  1  0  0  0  0
 29  2  1  6  0  0  0
 29 19  1  0  0  0  0
 30 17  1  0  0  0  0
 31  3  1  1  0  0  0
 31  8  1  0  0  0  0
 32 33  1  6  0  0  0
 34 35  1  0  0  0  0
 35 38  2  0  0  0  0
 37 38  1  0  0  0  0
 37 36  1  0  0  0  0
 39 41  1  0  0  0  0
 39 37  2  0  0  0  0
 40 34  2  0  0  0  0
 40 39  1  0  0  0  0
 41 42  1  0  0  0  0
 42 32  1  0  0  0  0
 42 36  2  0  0  0  0
 43 47  1  0  0  0  0
 44 47  2  0  0  0  0
 44 46  1  0  0  0  0
 46 49  2  0  0  0  0
 47 48  1  0  0  0  0
 48 45  2  0  0  0  0
 49 45  1  0  0  0  0
 50 53  1  1  0  0  0
 50 51  1  0  0  0  0
 51 52  1  0  0  0  0
 55 53  1  0  0  0  0
 55 54  1  0  0  0  0
 56 58  1  0  0  0  0
 58 55  1  0  0  0  0
 58 57  1  0  0  0  0
 58 54  1  0  0  0  0
M  END
>  <MODEL>
6

>  <REMARK>
 VINA RESULT:      -5.6      3.336     12.185
  Name = 
  8 active torsions:
  status: ('A' for Active; 'I' for Inactive)
    1  A    between atoms: C_5  and  N_34
    2  A    between atoms: C_5  and  C_36
    3  A    between atoms: O_8  and  C_37
    4  A    between atoms: C_21  and  C_40
    5  A    between atoms: C_21  and  C_58
    6  A    between atoms: N_26  and  N_54
    7  A    between atoms: C_27  and  C_37
    8  A    between atoms: C_37  and  N_54
                            x       y       z     vdW  Elec       q    Type
                         _______ _______ _______ _____ _____    ______ ____

>  <TORSDO>
F 8

$$$$
=
 OpenBabel11032421223D

 58 69  0  0  1  0  0  0  0  0999 V2000
  191.0800  176.6040  138.8100 C   0  0  0  0  0  3  0  0  0  0  0  0
  186.2240  172.3120  137.2660 C   0  0  0  0  0  2  0  0  0  0  0  0
  188.2840  173.2530  136.5510 C   0  0  0  0  0  2  0  0  0  0  0  0
  186.0160  175.0580  136.4850 O   0  0  0  0  0  0  0  0  0  0  0  0
  196.6000  174.9100  135.8140 O   0  0  0  0  0  0  0  0  0  0  0  0
  192.0230  175.1890  137.0690 C   0  0  0  0  0  0  0  0  0  0  0  0
  189.6300  175.1670  137.4980 C   0  0  0  0  0  0  0  0  0  0  0  0
  187.3030  175.6260  136.6210 C   0  0  1  0  0  3  0  0  0  0  0  0
  187.1380  176.9750  137.3020 C   0  0  2  0  0  3  0  0  0  0  0  0
  186.1010  174.0520  135.5010 C   0  0  2  0  0  3  0  0  0  0  0  0
  190.7440  174.7070  136.7760 C   0  0  0  0  0  3  0  0  0  0  0  0
  187.1240  178.5460  139.2240 C   0  0  0  0  0  2  0  0  0  0  0  0
  187.6480  177.3340  138.5110 C   0  0  2  0  0  3  0  0  0  0  0  0
  194.7000  173.7200  134.8330 C   0  0  2  0  0  3  0  0  0  0  0  0
  194.6000  176.1560  137.7160 C   0  0  0  0  0  3  0  0  0  0  0  0
  189.7990  176.1390  138.4870 C   0  0  0  0  0  0  0  0  0  0  0  0
  184.8230  177.8900  137.2360 C   0  0  0  0  0  2  0  0  0  0  0  0
  195.3700  174.6380  135.8080 C   0  0  0  0  0  0  0  0  0  0  0  0
  184.8840  173.2160  135.4000 N   0  0  0  0  0  0  0  0  0  0  0  0
  185.6560  178.3710  139.5930 C   0  0  0  0  0  2  0  0  0  0  0  0
  194.4000  175.2250  136.6930 C   0  0  0  0  0  0  0  0  0  0  0  0
  184.7490  178.8210  138.4500 C   0  0  2  0  0  3  0  0  0  0  0  0
  193.2060  173.7880  135.2250 C   0  0  0  0  0  2  0  0  0  0  0  0
  186.9020  172.9000  136.0290 C   0  0  2  0  0  0  0  0  0  0  0  0
  193.1530  174.7510  136.3700 C   0  0  0  0  0  0  0  0  0  0  0  0
  188.6960  176.6670  139.1590 O   0  0  0  0  0  0  0  0  0  0  0  0
  193.4800  176.6110  138.4300 C   0  0  0  0  0  3  0  0  0  0  0  0
  192.1950  176.1340  138.1140 C   0  0  0  0  0  0  0  0  0  0  0  0
  185.6440  172.0560  135.9120 C   0  0  1  0  0  3  0  0  0  0  0  0
  186.2010  177.9110  136.5890 C   0  0  0  0  0  2  0  0  0  0  0  0
  188.2560  174.6090  137.2940 C   0  0  1  0  0  3  0  0  0  0  0  0
  183.3070  178.9860  138.9410 C   0  0  1  0  0  3  0  0  0  0  0  0
  182.8750  180.3010  138.7500 O   0  0  0  0  0  1  0  0  0  0  0  0
  179.3830  175.7470  135.9850 N   0  0  0  0  0  0  0  0  0  0  0  0
  179.6030  174.8230  136.9730 C   0  0  0  0  0  3  0  0  0  0  0  0
  182.0640  176.8020  138.8360 N   0  0  0  0  0  0  0  0  0  0  0  0
  181.1610  176.3190  137.9730 C   0  0  0  0  0  0  0  0  0  0  0  0
  180.5130  175.0900  138.0130 C   0  0  0  0  0  3  0  0  0  0  0  0
  180.9270  177.2210  136.9870 C   0  0  0  0  0  0  0  0  0  0  0  0
  180.0260  176.9520  135.9650 C   0  0  0  0  0  3  0  0  0  0  0  0
  181.6650  178.3220  137.1720 N   0  0  0  0  0  2  0  0  0  0  0  0
  182.3470  178.0230  138.3090 C   0  0  0  0  0  0  0  0  0  0  0  0
  183.8330  173.5930  136.3520 C   0  0  0  0  0  2  0  0  0  0  0  0
  182.0920  171.9570  137.0880 C   0  0  0  0  0  3  0  0  0  0  0  0
  180.8150  172.1230  134.6070 C   0  0  0  0  0  3  0  0  0  0  0  0
  180.9480  171.1940  136.8410 C   0  0  0  0  0  3  0  0  0  0  0  0
  182.6010  172.8010  136.0940 C   0  0  0  0  0  0  0  0  0  0  0  0
  181.9610  172.8820  134.8520 C   0  0  0  0  0  3  0  0  0  0  0  0
  180.3090  171.2760  135.6000 C   0  0  0  0  0  3  0  0  0  0  0  0
  195.2240  172.2800  134.9610 C   0  0  1  0  0  3  0  0  0  0  0  0
  196.5550  172.2190  135.4410 O   0  0  0  0  0  0  0  0  0  0  0  0
  197.3070  171.3720  134.6050 C   0  0  0  0  0  1  0  0  0  0  0  0
  194.3200  171.4520  135.7600 N   0  0  0  0  0  2  0  0  0  0  0  0
  194.2230  169.6580  137.2110 C   0  0  0  0  0  2  0  0  0  0  0  0
  195.0470  170.3260  136.1810 N   0  0  0  0  0  0  0  0  0  0  0  0
  196.5900  169.6320  138.0200 C   0  0  0  0  0  1  0  0  0  0  0  0
  195.0730  171.7550  138.3270 C   0  0  0  0  0  1  0  0  0  0  0  0
  195.3750  170.4390  137.6200 C   0  0  0  0  0  0  0  0  0  0  0  0
  6 28  1  0  0  0  0
  7 16  2  0  0  0  0
  8  4  1  1  0  0  0
  8 31  1  0  0  0  0
  8  9  1  0  0  0  0
  9 30  1  1  0  0  0
  9 13  1  0  0  0  0
 10 24  1  0  0  0  0
 10  4  1  1  0  0  0
 11  6  2  0  0  0  0
 11  7  1  0  0  0  0
 12 20  1  0  0  0  0
 13 26  1  0  0  0  0
 13 12  1  6  0  0  0
 14 50  1  1  0  0  0
 14 23  1  0  0  0  0
 14 18  1  0  0  0  0
 15 27  2  0  0  0  0
 16  1  1  0  0  0  0
 16 26  1  0  0  0  0
 17 22  1  0  0  0  0
 18  5  2  0  0  0  0
 18 21  1  0  0  0  0
 19 10  1  0  0  0  0
 19 29  1  0  0  0  0
 19 43  1  0  0  0  0
 21 15  1  0  0  0  0
 22 32  1  1  0  0  0
 22 20  1  0  0  0  0
 23 25  1  0  0  0  0
 24  3  1  6  0  0  0
 24  2  1  0  0  0  0
 25 21  2  0  0  0  0
 25  6  1  0  0  0  0
 28 27  1  0  0  0  0
 28  1  2  0  0  0  0
 29 24  1  0  0  0  0
 29  2  1  1  0  0  0
 30 17  1  0  0  0  0
 31  3  1  6  0  0  0
 31  7  1  0  0  0  0
 32 33  1  6  0  0  0
 34 35  1  0  0  0  0
 35 38  2  0  0  0  0
 37 38  1  0  0  0  0
 37 36  1  0  0  0  0
 39 41  1  0  0  0  0
 39 37  2  0  0  0  0
 40 34  2  0  0  0  0
 40 39  1  0  0  0  0
 41 42  1  0  0  0  0
 42 36  2  0  0  0  0
 42 32  1  0  0  0  0
 45 48  2  0  0  0  0
 45 49  1  0  0  0  0
 46 44  1  0  0  0  0
 47 43  1  0  0  0  0
 47 44  2  0  0  0  0
 48 47  1  0  0  0  0
 49 46  2  0  0  0  0
 50 51  1  1  0  0  0
 50 53  1  0  0  0  0
 52 51  1  0  0  0  0
 53 55  1  0  0  0  0
 54 58  1  0  0  0  0
 55 54  1  0  0  0  0
 55 58  1  0  0  0  0
 58 56  1  0  0  0  0
 58 57  1  0  0  0  0
M  END
>  <MODEL>
7

>  <REMARK>
 VINA RESULT:      -5.4      3.542     12.758
  Name = 
  8 active torsions:
  status: ('A' for Active; 'I' for Inactive)
    1  A    between atoms: C_5  and  N_34
    2  A    between atoms: C_5  and  C_36
    3  A    between atoms: O_8  and  C_37
    4  A    between atoms: C_21  and  C_40
    5  A    between atoms: C_21  and  C_58
    6  A    between atoms: N_26  and  N_54
    7  A    between atoms: C_27  and  C_37
    8  A    between atoms: C_37  and  N_54
                            x       y       z     vdW  Elec       q    Type
                         _______ _______ _______ _____ _____    ______ ____

>  <TORSDO>
F 8

$$$$
=
 OpenBabel11032421223D

 58 69  0  0  1  0  0  0  0  0999 V2000
  190.2850  176.8020  138.4750 C   0  0  0  0  0  3  0  0  0  0  0  0
  186.1540  171.8940  136.6770 C   0  0  0  0  0  2  0  0  0  0  0  0
  188.1250  173.0850  136.0950 C   0  0  0  0  0  2  0  0  0  0  0  0
  185.6560  174.5780  135.8170 O   0  0  0  0  0  0  0  0  0  0  0  0
  196.1910  175.7980  135.9410 O   0  0  0  0  0  0  0  0  0  0  0  0
  191.5330  175.4980  136.8440 C   0  0  0  0  0  0  0  0  0  0  0  0
  189.1370  175.1710  137.0940 C   0  0  0  0  0  0  0  0  0  0  0  0
  186.8450  175.3110  136.0340 C   0  0  1  0  0  3  0  0  0  0  0  0
  186.4550  176.6360  136.6680 C   0  0  2  0  0  3  0  0  0  0  0  0
  185.9450  173.5780  134.8670 C   0  0  2  0  0  3  0  0  0  0  0  0
  190.3530  174.8490  136.4680 C   0  0  0  0  0  3  0  0  0  0  0  0
  186.0910  178.2200  138.5450 C   0  0  0  0  0  2  0  0  0  0  0  0
  186.8210  177.0760  137.9030 C   0  0  2  0  0  3  0  0  0  0  0  0
  194.5420  174.3570  134.8500 C   0  0  2  0  0  3  0  0  0  0  0  0
  193.9070  176.8010  137.6580 C   0  0  0  0  0  3  0  0  0  0  0  0
  189.1030  176.1710  138.0690 C   0  0  0  0  0  0  0  0  0  0  0  0
  184.0540  177.2410  136.4080 C   0  0  0  0  0  2  0  0  0  0  0  0
  195.0100  175.3680  135.8500 C   0  0  0  0  0  0  0  0  0  0  0  0
  184.8570  172.5890  134.6950 N   0  0  0  0  0  0  0  0  0  0  0  0
  184.6340  177.8610  138.8080 C   0  0  0  0  0  2  0  0  0  0  0  0
  193.9070  175.8370  136.6460 C   0  0  0  0  0  0  0  0  0  0  0  0
  183.7680  178.1720  137.5890 C   0  0  2  0  0  3  0  0  0  0  0  0
  193.0250  174.2360  135.1280 C   0  0  0  0  0  2  0  0  0  0  0  0
  186.8450  172.5470  135.4810 C   0  0  2  0  0  0  0  0  0  0  0  0
  192.7610  175.2000  136.2420 C   0  0  0  0  0  0  0  0  0  0  0  0
  187.8930  176.5600  138.6430 O   0  0  0  0  0  0  0  0  0  0  0  0
  192.6860  177.1160  138.2750 C   0  0  0  0  0  3  0  0  0  0  0  0
  191.5010  176.4720  137.8750 C   0  0  0  0  0  0  0  0  0  0  0  0
  185.7180  171.5450  135.2900 C   0  0  1  0  0  3  0  0  0  0  0  0
  185.4640  177.4320  135.8650 C   0  0  0  0  0  2  0  0  0  0  0  0
  187.8660  174.4360  136.8010 C   0  0  1  0  0  3  0  0  0  0  0  0
  182.2830  178.1560  137.9670 C   0  0  1  0  0  3  0  0  0  0  0  0
  182.1310  177.9220  139.3360 O   0  0  0  0  0  1  0  0  0  0  0  0
  179.1360  182.6440  135.8270 N   0  0  0  0  0  0  0  0  0  0  0  0
  179.7750  183.3760  136.7940 C   0  0  0  0  0  3  0  0  0  0  0  0
  181.7420  180.6040  138.1670 N   0  0  0  0  0  0  0  0  0  0  0  0
  180.9200  181.4050  137.4780 C   0  0  0  0  0  0  0  0  0  0  0  0
  180.7020  182.7650  137.6590 C   0  0  0  0  0  3  0  0  0  0  0  0
  180.2790  180.6990  136.5130 C   0  0  0  0  0  0  0  0  0  0  0  0
  179.3670  181.3080  135.6610 C   0  0  0  0  0  3  0  0  0  0  0  0
  180.6600  179.4160  136.5370 N   0  0  0  0  0  2  0  0  0  0  0  0
  181.5510  179.4000  137.5640 C   0  0  0  0  0  0  0  0  0  0  0  0
  183.6960  172.8400  135.5560 C   0  0  0  0  0  2  0  0  0  0  0  0
  181.3030  172.4120  134.9740 C   0  0  0  0  0  3  0  0  0  0  0  0
  181.7790  169.6610  134.8240 C   0  0  0  0  0  3  0  0  0  0  0  0
  180.2550  171.5390  134.6680 C   0  0  0  0  0  3  0  0  0  0  0  0
  182.5890  171.9110  135.2070 C   0  0  0  0  0  0  0  0  0  0  0  0
  182.8250  170.5330  135.1340 C   0  0  0  0  0  3  0  0  0  0  0  0
  180.4930  170.1630  134.5940 C   0  0  0  0  0  3  0  0  0  0  0  0
  195.2350  172.9990  135.0520 C   0  0  1  0  0  3  0  0  0  0  0  0
  196.5100  173.1160  135.6570 O   0  0  0  0  0  0  0  0  0  0  0  0
  197.5010  173.0250  134.6620 C   0  0  0  0  0  1  0  0  0  0  0  0
  194.3750  172.0630  135.7760 N   0  0  0  0  0  2  0  0  0  0  0  0
  195.7740  170.2680  136.1710 C   0  0  0  0  0  2  0  0  0  0  0  0
  195.1570  171.4650  136.7790 N   0  0  0  0  0  0  0  0  0  0  0  0
  195.0130  169.6280  138.4670 C   0  0  0  0  0  1  0  0  0  0  0  0
  193.3370  169.6700  136.4440 C   0  0  0  0  0  1  0  0  0  0  0  0
  194.6530  170.1060  137.0770 C   0  0  0  0  0  0  0  0  0  0  0  0
  6 28  1  0  0  0  0
  7 16  2  0  0  0  0
  8  4  1  1  0  0  0
  8  9  1  0  0  0  0
  8 31  1  0  0  0  0
  9 30  1  1  0  0  0
  9 13  1  0  0  0  0
 10 24  1  0  0  0  0
 10  4  1  1  0  0  0
 11  6  2  0  0  0  0
 11  7  1  0  0  0  0
 12 20  1  0  0  0  0
 13 12  1  6  0  0  0
 13 26  1  0  0  0  0
 14 50  1  1  0  0  0
 14 23  1  0  0  0  0
 14 18  1  0  0  0  0
 15 27  2  0  0  0  0
 16  1  1  0  0  0  0
 16 26  1  0  0  0  0
 17 22  1  0  0  0  0
 18  5  2  0  0  0  0
 18 21  1  0  0  0  0
 19 10  1  0  0  0  0
 19 29  1  0  0  0  0
 19 43  1  0  0  0  0
 21 15  1  0  0  0  0
 22 32  1  1  0  0  0
 22 20  1  0  0  0  0
 23 25  1  0  0  0  0
 24  3  1  6  0  0  0
 24  2  1  0  0  0  0
 25 21  2  0  0  0  0
 25  6  1  0  0  0  0
 28 27  1  0  0  0  0
 28  1  2  0  0  0  0
 29 24  1  0  0  0  0
 29  2  1  1  0  0  0
 30 17  1  0  0  0  0
 31  3  1  6  0  0  0
 31  7  1  0  0  0  0
 32 33  1  1  0  0  0
 34 35  1  0  0  0  0
 35 38  2  0  0  0  0
 37 38  1  0  0  0  0
 37 36  1  0  0  0  0
 39 41  1  0  0  0  0
 39 37  2  0  0  0  0
 40 34  2  0  0  0  0
 40 39  1  0  0  0  0
 41 42  1  0  0  0  0
 42 32  1  0  0  0  0
 42 36  2  0  0  0  0
 44 47  1  0  0  0  0
 45 48  1  0  0  0  0
 46 44  2  0  0  0  0
 47 43  1  0  0  0  0
 48 47  2  0  0  0  0
 49 46  1  0  0  0  0
 49 45  2  0  0  0  0
 50 51  1  1  0  0  0
 50 53  1  0  0  0  0
 52 51  1  0  0  0  0
 53 55  1  0  0  0  0
 54 55  1  0  0  0  0
 54 58  1  0  0  0  0
 55 58  1  0  0  0  0
 57 58  1  0  0  0  0
 58 56  1  0  0  0  0
M  END
>  <MODEL>
8

>  <REMARK>
 VINA RESULT:      -5.3      3.505     12.947
  Name = 
  8 active torsions:
  status: ('A' for Active; 'I' for Inactive)
    1  A    between atoms: C_5  and  N_34
    2  A    between atoms: C_5  and  C_36
    3  A    between atoms: O_8  and  C_37
    4  A    between atoms: C_21  and  C_40
    5  A    between atoms: C_21  and  C_58
    6  A    between atoms: N_26  and  N_54
    7  A    between atoms: C_27  and  C_37
    8  A    between atoms: C_37  and  N_54
                            x       y       z     vdW  Elec       q    Type
                         _______ _______ _______ _____ _____    ______ ____

>  <TORSDO>
F 8

$$$$
=
 OpenBabel11032421223D

 58 69  0  0  1  0  0  0  0  0999 V2000
  187.9160  178.5800  140.9290 C   0  0  0  0  0  3  0  0  0  0  0  0
  181.5810  179.9190  142.4970 C   0  0  0  0  0  2  0  0  0  0  0  0
  183.5160  178.6860  143.1130 C   0  0  0  0  0  2  0  0  0  0  0  0
  182.1940  177.7780  140.6980 O   0  0  0  0  0  0  0  0  0  0  0  0
  191.1790  176.6780  146.2250 O   0  0  0  0  0  0  0  0  0  0  0  0
  187.6710  177.8430  143.2350 C   0  0  0  0  0  0  0  0  0  0  0  0
  185.7050  178.3530  141.9000 C   0  0  0  0  0  0  0  0  0  0  0  0
  183.5750  177.5060  140.8330 C   0  0  1  0  0  3  0  0  0  0  0  0
  184.1470  177.3470  139.4340 C   0  0  2  0  0  3  0  0  0  0  0  0
  181.5870  177.5010  141.9400 C   0  0  2  0  0  3  0  0  0  0  0  0
  186.2820  177.9360  143.1110 C   0  0  0  0  0  3  0  0  0  0  0  0
  185.3190  178.0960  137.3770 C   0  0  0  0  0  2  0  0  0  0  0  0
  185.1010  178.1310  138.8620 C   0  0  2  0  0  3  0  0  0  0  0  0
  188.7690  176.6200  146.6450 C   0  0  2  0  0  3  0  0  0  0  0  0
  190.4860  177.7040  143.4610 C   0  0  0  0  0  3  0  0  0  0  0  0
  186.5230  178.6390  140.8040 C   0  0  0  0  0  0  0  0  0  0  0  0
  182.4500  176.9280  137.6620 C   0  0  0  0  0  2  0  0  0  0  0  0
  190.0000  176.8940  145.8370 C   0  0  0  0  0  0  0  0  0  0  0  0
  180.1770  177.9440  142.0240 N   0  0  0  0  0  0  0  0  0  0  0  0
  184.0840  178.5860  136.6310 C   0  0  0  0  0  2  0  0  0  0  0  0
  189.6460  177.3700  144.5270 C   0  0  0  0  0  0  0  0  0  0  0  0
  183.1090  177.4380  136.3770 C   0  0  2  0  0  3  0  0  0  0  0  0
  187.6100  176.9990  145.6930 C   0  0  0  0  0  2  0  0  0  0  0  0
  182.0150  178.5240  142.9480 C   0  0  2  0  0  0  0  0  0  0  0  0
  188.2780  177.4320  144.4270 C   0  0  0  0  0  0  0  0  0  0  0  0
  185.9640  178.9760  139.5720 O   0  0  0  0  0  0  0  0  0  0  0  0
  189.8990  178.1170  142.2550 C   0  0  0  0  0  3  0  0  0  0  0  0
  188.4990  178.1890  142.1350 C   0  0  0  0  0  0  0  0  0  0  0  0
  180.5610  178.9610  143.0250 C   0  0  1  0  0  3  0  0  0  0  0  0
  183.4620  176.2950  138.6060 C   0  0  0  0  0  2  0  0  0  0  0  0
  184.2310  178.5680  141.7480 C   0  0  1  0  0  3  0  0  0  0  0  0
  182.0620  177.8420  135.3340 C   0  0  1  0  0  3  0  0  0  0  0  0
  181.0760  176.8590  135.2260 O   0  0  0  0  0  1  0  0  0  0  0  0
  179.6560  183.2020  135.6460 N   0  0  0  0  0  0  0  0  0  0  0  0
  179.7410  183.0140  137.0010 C   0  0  0  0  0  3  0  0  0  0  0  0
  181.2260  179.6650  136.8510 N   0  0  0  0  0  0  0  0  0  0  0  0
  180.6930  180.8690  136.6060 C   0  0  0  0  0  0  0  0  0  0  0  0
  180.2730  181.8210  137.5260 C   0  0  0  0  0  3  0  0  0  0  0  0
  180.6030  181.0760  135.2680 C   0  0  0  0  0  0  0  0  0  0  0  0
  180.0780  182.2560  134.7560 C   0  0  0  0  0  3  0  0  0  0  0  0
  181.0740  180.0190  134.5950 N   0  0  0  0  0  2  0  0  0  0  0  0
  181.4410  179.1800  135.5990 C   0  0  0  0  0  0  0  0  0  0  0  0
  179.6930  178.5950  140.8010 C   0  0  0  0  0  2  0  0  0  0  0  0
  179.4050  176.2160  140.0870 C   0  0  0  0  0  3  0  0  0  0  0  0
  178.9370  177.0120  137.4480 C   0  0  0  0  0  3  0  0  0  0  0  0
  179.1660  175.2550  139.1010 C   0  0  0  0  0  3  0  0  0  0  0  0
  179.4140  177.5750  139.7540 C   0  0  0  0  0  0  0  0  0  0  0  0
  179.1810  177.9720  138.4320 C   0  0  0  0  0  3  0  0  0  0  0  0
  178.9320  175.6520  137.7820 C   0  0  0  0  0  3  0  0  0  0  0  0
  188.7240  177.4830  147.9160 C   0  0  1  0  0  3  0  0  0  0  0  0
  189.6480  178.5560  147.8870 O   0  0  0  0  0  0  0  0  0  0  0  0
  190.3570  178.5850  149.1030 C   0  0  0  0  0  1  0  0  0  0  0  0
  187.3650  177.9460  148.2000 N   0  0  0  0  0  2  0  0  0  0  0  0
  186.1110  179.8790  148.0360 C   0  0  0  0  0  2  0  0  0  0  0  0
  187.1040  179.0300  147.3450 N   0  0  0  0  0  0  0  0  0  0  0  0
  185.4310  179.7450  145.6320 C   0  0  0  0  0  1  0  0  0  0  0  0
  184.8220  177.8290  147.3240 C   0  0  0  0  0  1  0  0  0  0  0  0
  185.6800  179.0300  146.9420 C   0  0  0  0  0  0  0  0  0  0  0  0
  1 28  1  0  0  0  0
  6 25  1  0  0  0  0
  7 11  2  0  0  0  0
  8  4  1  6  0  0  0
  8 31  1  0  0  0  0
  9 30  1  6  0  0  0
  9  8  1  0  0  0  0
 10  4  1  6  0  0  0
 10 19  1  0  0  0  0
 10 24  1  0  0  0  0
 11  6  1  0  0  0  0
 13 12  1  1  0  0  0
 13  9  1  0  0  0  0
 13 26  1  0  0  0  0
 14 50  1  1  0  0  0
 15 21  1  0  0  0  0
 16  1  2  0  0  0  0
 16  7  1  0  0  0  0
 17 30  1  0  0  0  0
 18  5  2  0  0  0  0
 18 14  1  0  0  0  0
 19 29  1  0  0  0  0
 20 12  1  0  0  0  0
 21 18  1  0  0  0  0
 22 32  1  6  0  0  0
 22 20  1  0  0  0  0
 22 17  1  0  0  0  0
 23 14  1  0  0  0  0
 24  2  1  6  0  0  0
 24 29  1  0  0  0  0
 24  3  1  0  0  0  0
 25 21  2  0  0  0  0
 25 23  1  0  0  0  0
 26 16  1  0  0  0  0
 27 15  2  0  0  0  0
 28 27  1  0  0  0  0
 28  6  2  0  0  0  0
 29  2  1  6  0  0  0
 31  7  1  0  0  0  0
 31  3  1  1  0  0  0
 32 33  1  1  0  0  0
 32 42  1  0  0  0  0
 34 35  1  0  0  0  0
 35 38  2  0  0  0  0
 37 36  1  0  0  0  0
 37 38  1  0  0  0  0
 39 37  2  0  0  0  0
 40 39  1  0  0  0  0
 40 34  2  0  0  0  0
 41 39  1  0  0  0  0
 41 42  1  0  0  0  0
 42 36  2  0  0  0  0
 43 19  1  0  0  0  0
 45 49  2  0  0  0  0
 45 48  1  0  0  0  0
 46 44  2  0  0  0  0
 47 44  1  0  0  0  0
 47 43  1  0  0  0  0
 48 47  2  0  0  0  0
 49 46  1  0  0  0  0
 50 51  1  6  0  0  0
 50 53  1  0  0  0  0
 51 52  1  0  0  0  0
 55 54  1  0  0  0  0
 55 53  1  0  0  0  0
 56 58  1  0  0  0  0
 58 57  1  0  0  0  0
 58 55  1  0  0  0  0
 58 54  1  0  0  0  0
M  END
>  <MODEL>
9

>  <REMARK>
 VINA RESULT:      -5.3      5.141     10.885
  Name = 
  8 active torsions:
  status: ('A' for Active; 'I' for Inactive)
    1  A    between atoms: C_5  and  N_34
    2  A    between atoms: C_5  and  C_36
    3  A    between atoms: O_8  and  C_37
    4  A    between atoms: C_21  and  C_40
    5  A    between atoms: C_21  and  C_58
    6  A    between atoms: N_26  and  N_54
    7  A    between atoms: C_27  and  C_37
    8  A    between atoms: C_37  and  N_54
                            x       y       z     vdW  Elec       q    Type
                         _______ _______ _______ _____ _____    ______ ____

>  <TORSDO>
F 8

$$$$
