=
 OpenBabel11042410203D

 48 54  0  0  1  0  0  0  0  0999 V2000
  187.1650  178.3190  139.3330 C   0  0  0  0  0  3  0  0  0  0  0  0
  186.0980  178.5900  141.5160 C   0  0  0  0  0  0  0  0  0  0  0  0
  187.3780  177.9010  144.9370 C   0  0  0  0  0  0  0  0  0  0  0  0
  186.1670  178.4800  142.9180 C   0  0  0  0  0  0  0  0  0  0  0  0
  187.2110  178.2210  140.7300 C   0  0  0  0  0  0  0  0  0  0  0  0
  186.2400  178.1980  147.0690 C   0  0  0  0  0  3  0  0  0  0  0  0
  188.2630  177.9580  138.5590 C   0  0  0  0  0  3  0  0  0  0  0  0
  187.3730  177.6470  149.0920 F   0  0  0  0  0  0  0  0  0  0  0  0
  187.3400  178.0010  143.5360 C   0  0  0  0  0  0  0  0  0  0  0  0
  186.2380  178.2840  145.6740 C   0  0  0  0  0  0  0  0  0  0  0  0
  188.3930  177.7420  141.3500 C   0  0  0  0  0  0  0  0  0  0  0  0
  189.5110  177.3720  140.5660 C   0  0  0  0  0  0  0  0  0  0  0  0
  189.4380  177.4940  139.1570 C   0  0  0  0  0  0  0  0  0  0  0  0
  187.3730  177.7300  147.7400 C   0  0  0  0  0  0  0  0  0  0  0  0
  185.1370  178.7370  145.0240 N   0  0  0  0  0  0  0  0  0  0  0  0
  185.1030  178.8310  143.6940 N   0  0  0  0  0  0  0  0  0  0  0  0
  188.5120  177.4330  145.6230 C   0  0  0  0  0  3  0  0  0  0  0  0
  188.4370  177.6390  142.7470 C   0  0  0  0  0  3  0  0  0  0  0  0
  188.5080  177.3490  147.0180 C   0  0  0  0  0  3  0  0  0  0  0  0
  191.4420  175.8380  143.0890 N   0  0  0  0  0  2  0  0  0  0  0  0
  190.7480  176.8390  141.2550 C   0  0  1  0  0  3  0  0  0  0  0  0
  191.5040  177.9160  141.9830 C   0  0  0  0  0  2  0  0  0  0  0  0
  191.8730  177.2190  143.2520 C   0  0  0  0  0  2  0  0  0  0  0  0
  190.4310  175.8300  142.1750 O   0  0  0  0  0  0  0  0  0  0  0  0
  183.9140  179.4740  140.4020 N   0  0  0  0  0  0  0  0  0  0  0  0
  184.8840  179.0810  140.8960 C   0  0  0  0  0  0  0  0  0  0  0  0
  190.5850  177.1170  138.2650 C   0  0  0  0  0  2  0  0  0  0  0  0
  191.3660  173.6820  136.8570 C   0  0  0  0  0  0  0  0  0  0  0  0
  188.9600  173.9640  136.9250 C   0  0  0  0  0  0  0  0  0  0  0  0
  192.4500  172.9260  136.5620 F   0  0  0  0  0  0  0  0  0  0  0  0
  189.1270  175.2440  137.4660 C   0  0  0  0  0  3  0  0  0  0  0  0
  191.5310  174.9620  137.3950 C   0  0  0  0  0  3  0  0  0  0  0  0
  190.4120  175.7440  137.7030 C   0  0  0  0  0  0  0  0  0  0  0  0
  190.0810  173.1830  136.6230 C   0  0  0  0  0  3  0  0  0  0  0  0
  187.5900  173.4240  136.6860 C   0  0  0  0  0  2  0  0  0  0  0  0
  185.3150  174.3510  137.3190 C   0  0  0  0  0  0  0  0  0  0  0  0
  184.9600  173.2380  137.7940 O   0  0  0  0  0  0  0  0  0  0  0  0
  182.7230  176.8880  137.9980 C   0  0  0  0  0  0  0  0  0  0  0  0
  183.6440  177.6540  137.4150 C   0  0  0  0  0  3  0  0  0  0  0  0
  184.7960  176.8160  136.9690 C   0  0  0  0  0  2  0  0  0  0  0  0
  186.6070  174.4980  136.7220 N   0  0  0  0  0  2  0  0  0  0  0  0
  184.4220  175.4690  137.3730 N   0  0  0  0  0  0  0  0  0  0  0  0
  183.1110  175.4480  138.0050 C   0  0  2  0  0  3  0  0  0  0  0  0
  182.0800  174.7980  135.8130 O   0  0  0  0  0  0  0  0  0  0  0  0
  181.3890  173.8140  137.7630 O   0  0  0  0  0  1  0  0  0  0  0  0
  182.1500  174.6380  137.1920 C   0  0  0  0  0  0  0  0  0  0  0  0
  181.2650  176.9710  139.9960 C   0  0  0  0  0  1  0  0  0  0  0  0
  181.4390  177.4140  138.5560 C   0  0  0  0  0  2  0  0  0  0  0  0
  1  5  1  0  0  0  0
  2  4  1  0  0  0  0
  3 17  2  0  0  0  0
  3 10  1  0  0  0  0
  4  9  2  0  0  0  0
  4 16  1  0  0  0  0
  5 11  1  0  0  0  0
  5  2  2  0  0  0  0
  6 14  1  0  0  0  0
  7 13  1  0  0  0  0
  7  1  2  0  0  0  0
  9  3  1  0  0  0  0
 10  6  2  0  0  0  0
 11 18  2  0  0  0  0
 12 11  1  0  0  0  0
 13 12  2  0  0  0  0
 14  8  1  0  0  0  0
 15 10  1  0  0  0  0
 16 15  2  0  0  0  0
 17 19  1  0  0  0  0
 18  9  1  0  0  0  0
 19 14  2  0  0  0  0
 20 23  1  0  0  0  0
 21 12  1  1  0  0  0
 21 22  1  0  0  0  0
 21 24  1  0  0  0  0
 22 23  1  0  0  0  0
 24 20  1  0  0  0  0
 25 26  3  0  0  0  0
 26  2  1  0  0  0  0
 27 13  1  0  0  0  0
 28 32  1  0  0  0  0
 29 31  2  0  0  0  0
 30 28  1  0  0  0  0
 31 33  1  0  0  0  0
 32 33  2  0  0  0  0
 33 27  1  0  0  0  0
 34 28  2  0  0  0  0
 34 29  1  0  0  0  0
 35 41  1  0  0  0  0
 35 29  1  0  0  0  0
 36 42  1  0  0  0  0
 36 37  2  0  0  0  0
 38 43  1  0  0  0  0
 38 48  1  0  0  0  0
 39 38  2  0  0  0  0
 40 42  1  0  0  0  0
 40 39  1  0  0  0  0
 41 36  1  0  0  0  0
 42 43  1  0  0  0  0
 43 46  1  6  0  0  0
 44 46  2  0  0  0  0
 46 45  1  0  0  0  0
 48 47  1  0  0  0  0
M  END
>  <MODEL>
1

>  <REMARK>
 VINA RESULT:      -9.7      0.000      0.000
  Name = 
  8 active torsions:
  status: ('A' for Active; 'I' for Inactive)
    1  A    between atoms: C_4  and  C_27
    2  A    between atoms: C_5  and  C_43
    3  A    between atoms: C_9  and  C_11
    4  A    between atoms: C_9  and  N_42
    5  A    between atoms: C_26  and  C_37
    6  A    between atoms: C_28  and  C_48
    7  A    between atoms: C_30  and  C_37
    8  A    between atoms: C_36  and  C_47
                            x       y       z     vdW  Elec       q    Type
                         _______ _______ _______ _____ _____    ______ ____

>  <TORSDO>
F 8

$$$$
=
 OpenBabel11042410203D

 48 54  0  0  1  0  0  0  0  0999 V2000
  186.4570  178.5500  140.9040 C   0  0  0  0  0  3  0  0  0  0  0  0
  188.6430  177.7790  141.6810 C   0  0  0  0  0  0  0  0  0  0  0  0
  189.8590  177.0080  145.1080 C   0  0  0  0  0  0  0  0  0  0  0  0
  189.4830  177.3950  142.7440 C   0  0  0  0  0  0  0  0  0  0  0  0
  187.3100  178.1610  141.9450 C   0  0  0  0  0  0  0  0  0  0  0  0
  192.0660  176.2440  145.7970 C   0  0  0  0  0  3  0  0  0  0  0  0
  185.1420  178.9230  141.1640 C   0  0  0  0  0  3  0  0  0  0  0  0
  192.5030  175.8450  148.1050 F   0  0  0  0  0  0  0  0  0  0  0  0
  188.9970  177.3940  144.0680 C   0  0  0  0  0  0  0  0  0  0  0  0
  191.1810  176.6340  144.7870 C   0  0  0  0  0  0  0  0  0  0  0  0
  186.8190  178.1580  143.2760 C   0  0  0  0  0  0  0  0  0  0  0  0
  185.4830  178.5400  143.5450 C   0  0  0  0  0  0  0  0  0  0  0  0
  184.6420  178.9160  142.4690 C   0  0  0  0  0  0  0  0  0  0  0  0
  191.6440  176.2230  147.1280 C   0  0  0  0  0  0  0  0  0  0  0  0
  191.5920  176.6550  143.4950 N   0  0  0  0  0  0  0  0  0  0  0  0
  190.7720  177.0220  142.5090 N   0  0  0  0  0  0  0  0  0  0  0  0
  189.4460  176.9820  146.4500 C   0  0  0  0  0  3  0  0  0  0  0  0
  187.6740  177.7740  144.3170 C   0  0  0  0  0  3  0  0  0  0  0  0
  190.3350  176.5910  147.4550 C   0  0  0  0  0  3  0  0  0  0  0  0
  185.3870  179.4340  146.9560 N   0  0  0  0  0  2  0  0  0  0  0  0
  184.9980  178.5520  144.9770 C   0  0  1  0  0  3  0  0  0  0  0  0
  185.5470  177.4030  145.7760 C   0  0  0  0  0  2  0  0  0  0  0  0
  185.8790  178.0700  147.0710 C   0  0  0  0  0  2  0  0  0  0  0  0
  185.3440  179.7430  145.6290 O   0  0  0  0  0  0  0  0  0  0  0  0
  189.5710  177.7750  139.2450 N   0  0  0  0  0  0  0  0  0  0  0  0
  189.1580  177.7760  140.3260 C   0  0  0  0  0  0  0  0  0  0  0  0
  183.2170  179.3340  142.6830 C   0  0  0  0  0  2  0  0  0  0  0  0
  180.2010  177.6620  141.1020 C   0  0  0  0  0  0  0  0  0  0  0  0
  181.8870  177.9980  139.3940 C   0  0  0  0  0  0  0  0  0  0  0  0
  178.9780  177.2130  141.4700 F   0  0  0  0  0  0  0  0  0  0  0  0
  182.7280  178.5880  140.3430 C   0  0  0  0  0  3  0  0  0  0  0  0
  181.0440  178.2510  142.0490 C   0  0  0  0  0  3  0  0  0  0  0  0
  182.3080  178.7180  141.6710 C   0  0  0  0  0  0  0  0  0  0  0  0
  180.6220  177.5370  139.7750 C   0  0  0  0  0  3  0  0  0  0  0  0
  182.3280  177.8740  137.9740 C   0  0  0  0  0  2  0  0  0  0  0  0
  184.3330  176.4010  137.4790 C   0  0  0  0  0  0  0  0  0  0  0  0
  185.0870  177.4070  137.3810 O   0  0  0  0  0  0  0  0  0  0  0  0
  186.3360  173.3090  137.2610 C   0  0  0  0  0  0  0  0  0  0  0  0
  185.1330  172.7850  137.4920 C   0  0  0  0  0  3  0  0  0  0  0  0
  184.1080  173.8680  137.5480 C   0  0  0  0  0  2  0  0  0  0  0  0
  182.9370  176.5720  137.7430 N   0  0  0  0  0  2  0  0  0  0  0  0
  184.8740  175.0840  137.3230 N   0  0  0  0  0  0  0  0  0  0  0  0
  186.2840  174.7910  137.1090 C   0  0  2  0  0  3  0  0  0  0  0  0
  187.8430  175.9630  135.5310 O   0  0  0  0  0  1  0  0  0  0  0  0
  186.0020  174.8510  134.7400 O   0  0  0  0  0  0  0  0  0  0  0  0
  186.7000  175.1960  135.7290 C   0  0  0  0  0  0  0  0  0  0  0  0
  187.5300  171.6130  135.9110 C   0  0  0  0  0  1  0  0  0  0  0  0
  187.5850  172.4960  137.1430 C   0  0  0  0  0  2  0  0  0  0  0  0
  1  7  2  0  0  0  0
  1  5  1  0  0  0  0
  2  5  2  0  0  0  0
  2  4  1  0  0  0  0
  3 17  1  0  0  0  0
  4  9  1  0  0  0  0
  5 11  1  0  0  0  0
  6 14  2  0  0  0  0
  7 13  1  0  0  0  0
  9 18  1  0  0  0  0
  9  3  2  0  0  0  0
 10  3  1  0  0  0  0
 10  6  1  0  0  0  0
 11 12  1  0  0  0  0
 11 18  2  0  0  0  0
 13 27  1  0  0  0  0
 13 12  2  0  0  0  0
 14 19  1  0  0  0  0
 14  8  1  0  0  0  0
 15 10  2  0  0  0  0
 16  4  2  0  0  0  0
 16 15  1  0  0  0  0
 17 19  2  0  0  0  0
 20 23  1  0  0  0  0
 21 12  1  6  0  0  0
 21 24  1  0  0  0  0
 21 22  1  0  0  0  0
 22 23  1  0  0  0  0
 24 20  1  0  0  0  0
 25 26  3  0  0  0  0
 26  2  1  0  0  0  0
 28 30  1  0  0  0  0
 28 32  1  0  0  0  0
 29 34  1  0  0  0  0
 29 31  2  0  0  0  0
 31 33  1  0  0  0  0
 33 32  2  0  0  0  0
 33 27  1  0  0  0  0
 34 28  2  0  0  0  0
 35 29  1  0  0  0  0
 36 41  1  0  0  0  0
 37 36  2  0  0  0  0
 38 39  2  0  0  0  0
 39 40  1  0  0  0  0
 41 35  1  0  0  0  0
 42 36  1  0  0  0  0
 42 40  1  0  0  0  0
 43 46  1  6  0  0  0
 43 38  1  0  0  0  0
 43 42  1  0  0  0  0
 44 46  1  0  0  0  0
 45 46  2  0  0  0  0
 47 48  1  0  0  0  0
 48 38  1  0  0  0  0
M  END
>  <MODEL>
2

>  <REMARK>
 VINA RESULT:      -9.7      3.029      6.465
  Name = 
  8 active torsions:
  status: ('A' for Active; 'I' for Inactive)
    1  A    between atoms: C_4  and  C_27
    2  A    between atoms: C_5  and  C_43
    3  A    between atoms: C_9  and  C_11
    4  A    between atoms: C_9  and  N_42
    5  A    between atoms: C_26  and  C_37
    6  A    between atoms: C_28  and  C_48
    7  A    between atoms: C_30  and  C_37
    8  A    between atoms: C_36  and  C_47
                            x       y       z     vdW  Elec       q    Type
                         _______ _______ _______ _____ _____    ______ ____

>  <TORSDO>
F 8

$$$$
=
 OpenBabel11042410203D

 48 54  0  0  1  0  0  0  0  0999 V2000
  185.3130  178.6220  141.6230 C   0  0  0  0  0  3  0  0  0  0  0  0
  186.0300  178.2200  143.9250 C   0  0  0  0  0  0  0  0  0  0  0  0
  189.3660  177.3280  145.2990 C   0  0  0  0  0  0  0  0  0  0  0  0
  187.0550  177.8950  144.8330 C   0  0  0  0  0  0  0  0  0  0  0  0
  186.3170  178.3040  142.5450 C   0  0  0  0  0  0  0  0  0  0  0  0
  189.9960  176.9390  147.6180 C   0  0  0  0  0  3  0  0  0  0  0  0
  185.5960  178.7080  140.2630 C   0  0  0  0  0  3  0  0  0  0  0  0
  192.2510  176.3770  148.1450 F   0  0  0  0  0  0  0  0  0  0  0  0
  188.3650  177.6510  144.3680 C   0  0  0  0  0  0  0  0  0  0  0  0
  189.0250  177.2580  146.6650 C   0  0  0  0  0  0  0  0  0  0  0  0
  187.6340  178.0610  142.0770 C   0  0  0  0  0  0  0  0  0  0  0  0
  187.9270  178.1450  140.6950 C   0  0  0  0  0  0  0  0  0  0  0  0
  186.8910  178.4820  139.7880 C   0  0  0  0  0  0  0  0  0  0  0  0
  191.3110  176.6870  147.2200 C   0  0  0  0  0  0  0  0  0  0  0  0
  187.7480  177.5030  147.0530 N   0  0  0  0  0  0  0  0  0  0  0  0
  186.7980  177.8100  146.1680 N   0  0  0  0  0  0  0  0  0  0  0  0
  190.6920  177.0720  144.9100 C   0  0  0  0  0  3  0  0  0  0  0  0
  188.6380  177.7380  142.9990 C   0  0  0  0  0  3  0  0  0  0  0  0
  191.6600  176.7540  145.8670 C   0  0  0  0  0  3  0  0  0  0  0  0
  190.5990  177.7670  138.4240 N   0  0  0  0  0  2  0  0  0  0  0  0
  189.3340  177.8560  140.2230 C   0  0  1  0  0  3  0  0  0  0  0  0
  189.5820  176.3850  140.0360 C   0  0  0  0  0  2  0  0  0  0  0  0
  190.3610  176.3720  138.7600 C   0  0  0  0  0  2  0  0  0  0  0  0
  189.6160  178.5050  139.0130 O   0  0  0  0  0  0  0  0  0  0  0  0
  183.6200  178.6610  144.8130 N   0  0  0  0  0  0  0  0  0  0  0  0
  184.6890  178.4650  144.4180 C   0  0  0  0  0  0  0  0  0  0  0  0
  187.1310  178.5850  138.3100 C   0  0  0  0  0  2  0  0  0  0  0  0
  186.6820  175.2750  136.5120 C   0  0  0  0  0  0  0  0  0  0  0  0
  184.5610  176.4460  136.5220 C   0  0  0  0  0  0  0  0  0  0  0  0
  187.4240  174.1960  136.1670 F   0  0  0  0  0  0  0  0  0  0  0  0
  185.1500  177.5030  137.2250 C   0  0  0  0  0  3  0  0  0  0  0  0
  187.2690  176.3330  137.2140 C   0  0  0  0  0  3  0  0  0  0  0  0
  186.5040  177.4470  137.5740 C   0  0  0  0  0  0  0  0  0  0  0  0
  185.3280  175.3310  136.1680 C   0  0  0  0  0  3  0  0  0  0  0  0
  183.1140  176.4980  136.1640 C   0  0  0  0  0  2  0  0  0  0  0  0
  181.9360  176.8850  138.3770 C   0  0  0  0  0  0  0  0  0  0  0  0
  182.1070  175.6820  138.7140 O   0  0  0  0  0  0  0  0  0  0  0  0
  180.4630  178.7740  141.1850 C   0  0  0  0  0  0  0  0  0  0  0  0
  180.6280  179.7620  140.3070 C   0  0  0  0  0  3  0  0  0  0  0  0
  181.1590  179.2190  139.0220 C   0  0  0  0  0  2  0  0  0  0  0  0
  182.3880  177.3450  137.1000 N   0  0  0  0  0  2  0  0  0  0  0  0
  181.2820  177.7920  139.2730 N   0  0  0  0  0  0  0  0  0  0  0  0
  180.8330  177.4470  140.6140 C   0  0  2  0  0  3  0  0  0  0  0  0
  179.3060  175.7370  141.6310 O   0  0  0  0  0  1  0  0  0  0  0  0
  178.9370  176.5130  139.5070 O   0  0  0  0  0  0  0  0  0  0  0  0
  179.6380  176.5470  140.5510 C   0  0  0  0  0  0  0  0  0  0  0  0
  179.6780  180.4460  142.8310 C   0  0  0  0  0  1  0  0  0  0  0  0
  179.9430  178.9750  142.5720 C   0  0  0  0  0  2  0  0  0  0  0  0
  1  5  1  0  0  0  0
  2 26  1  0  0  0  0
  2  4  1  0  0  0  0
  3 10  1  0  0  0  0
  4 16  1  0  0  0  0
  5  2  2  0  0  0  0
  7  1  2  0  0  0  0
  9  4  2  0  0  0  0
  9  3  1  0  0  0  0
 10 15  1  0  0  0  0
 10  6  2  0  0  0  0
 11  5  1  0  0  0  0
 11 18  2  0  0  0  0
 12 11  1  0  0  0  0
 13  7  1  0  0  0  0
 13 12  2  0  0  0  0
 14  6  1  0  0  0  0
 14  8  1  0  0  0  0
 16 15  2  0  0  0  0
 17  3  2  0  0  0  0
 17 19  1  0  0  0  0
 18  9  1  0  0  0  0
 19 14  2  0  0  0  0
 20 23  1  0  0  0  0
 20 24  1  0  0  0  0
 21 12  1  6  0  0  0
 22 21  1  0  0  0  0
 23 22  1  0  0  0  0
 24 21  1  0  0  0  0
 26 25  3  0  0  0  0
 27 13  1  0  0  0  0
 28 32  1  0  0  0  0
 29 31  2  0  0  0  0
 30 28  1  0  0  0  0
 31 33  1  0  0  0  0
 32 33  2  0  0  0  0
 33 27  1  0  0  0  0
 34 28  2  0  0  0  0
 34 29  1  0  0  0  0
 35 29  1  0  0  0  0
 35 41  1  0  0  0  0
 36 37  2  0  0  0  0
 36 42  1  0  0  0  0
 38 48  1  0  0  0  0
 39 38  2  0  0  0  0
 40 42  1  0  0  0  0
 40 39  1  0  0  0  0
 41 36  1  0  0  0  0
 42 43  1  0  0  0  0
 43 46  1  6  0  0  0
 43 38  1  0  0  0  0
 45 46  2  0  0  0  0
 46 44  1  0  0  0  0
 48 47  1  0  0  0  0
M  END
>  <MODEL>
3

>  <REMARK>
 VINA RESULT:      -9.5      2.470      3.993
  Name = 
  8 active torsions:
  status: ('A' for Active; 'I' for Inactive)
    1  A    between atoms: C_4  and  C_27
    2  A    between atoms: C_5  and  C_43
    3  A    between atoms: C_9  and  C_11
    4  A    between atoms: C_9  and  N_42
    5  A    between atoms: C_26  and  C_37
    6  A    between atoms: C_28  and  C_48
    7  A    between atoms: C_30  and  C_37
    8  A    between atoms: C_36  and  C_47
                            x       y       z     vdW  Elec       q    Type
                         _______ _______ _______ _____ _____    ______ ____

>  <TORSDO>
F 8

$$$$
=
 OpenBabel11042410203D

 48 54  0  0  1  0  0  0  0  0999 V2000
  191.5490  177.0380  142.2860 C   0  0  0  0  0  3  0  0  0  0  0  0
  189.9250  177.2890  144.0970 C   0  0  0  0  0  0  0  0  0  0  0  0
  186.3360  178.2500  144.0100 C   0  0  0  0  0  0  0  0  0  0  0  0
  188.6160  177.5950  144.5120 C   0  0  0  0  0  0  0  0  0  0  0  0
  190.2520  177.3350  142.7230 C   0  0  0  0  0  0  0  0  0  0  0  0
  184.7830  178.4800  145.8720 C   0  0  0  0  0  3  0  0  0  0  0  0
  191.8710  177.0800  140.9330 C   0  0  0  0  0  3  0  0  0  0  0  0
  182.5280  179.1210  145.4480 F   0  0  0  0  0  0  0  0  0  0  0  0
  187.6330  177.9480  143.5640 C   0  0  0  0  0  0  0  0  0  0  0  0
  186.0630  178.1870  145.3920 C   0  0  0  0  0  0  0  0  0  0  0  0
  189.2650  177.6880  141.7690 C   0  0  0  0  0  0  0  0  0  0  0  0
  189.5880  177.7340  140.3910 C   0  0  0  0  0  0  0  0  0  0  0  0
  190.9050  177.4170  139.9800 C   0  0  0  0  0  0  0  0  0  0  0  0
  183.7680  178.8380  144.9810 C   0  0  0  0  0  0  0  0  0  0  0  0
  187.0490  177.8410  146.2580 N   0  0  0  0  0  0  0  0  0  0  0  0
  188.2810  177.5560  145.8330 N   0  0  0  0  0  0  0  0  0  0  0  0
  185.3060  178.6090  143.1240 C   0  0  0  0  0  3  0  0  0  0  0  0
  187.9680  177.9900  142.2070 C   0  0  0  0  0  3  0  0  0  0  0  0
  184.0280  178.9020  143.6090 C   0  0  0  0  0  3  0  0  0  0  0  0
  187.4290  177.4520  137.6160 N   0  0  0  0  0  2  0  0  0  0  0  0
  188.5200  178.1400  139.4000 C   0  0  1  0  0  3  0  0  0  0  0  0
  189.0640  179.0030  138.2960 C   0  0  0  0  0  2  0  0  0  0  0  0
  188.3660  178.4380  137.1010 C   0  0  0  0  0  2  0  0  0  0  0  0
  187.9060  177.0220  138.8190 O   0  0  0  0  0  0  0  0  0  0  0  0
  191.7210  176.6420  145.8710 N   0  0  0  0  0  0  0  0  0  0  0  0
  190.9240  176.9300  145.0830 C   0  0  0  0  0  0  0  0  0  0  0  0
  191.3170  177.4490  138.5370 C   0  0  0  0  0  2  0  0  0  0  0  0
  192.9140  174.2750  137.2080 C   0  0  0  0  0  0  0  0  0  0  0  0
  190.5060  174.0090  137.1630 C   0  0  0  0  0  0  0  0  0  0  0  0
  194.1530  173.7810  136.9720 F   0  0  0  0  0  0  0  0  0  0  0  0
  190.3560  175.2950  137.6950 C   0  0  0  0  0  3  0  0  0  0  0  0
  192.7630  175.5600  137.7380 C   0  0  0  0  0  3  0  0  0  0  0  0
  191.4840  176.0710  137.9850 C   0  0  0  0  0  0  0  0  0  0  0  0
  191.7870  173.5000  136.9220 C   0  0  0  0  0  3  0  0  0  0  0  0
  189.3050  173.1750  136.8680 C   0  0  0  0  0  2  0  0  0  0  0  0
  186.9440  174.0700  136.6290 C   0  0  0  0  0  0  0  0  0  0  0  0
  186.5630  173.4200  137.6400 O   0  0  0  0  0  0  0  0  0  0  0  0
  184.2170  176.2560  135.4430 C   0  0  0  0  0  0  0  0  0  0  0  0
  185.1830  176.6190  134.6010 C   0  0  0  0  0  3  0  0  0  0  0  0
  186.4050  175.7960  134.8410 C   0  0  0  0  0  2  0  0  0  0  0  0
  188.2960  173.9640  136.1750 N   0  0  0  0  0  2  0  0  0  0  0  0
  186.0200  174.9140  135.9320 N   0  0  0  0  0  0  0  0  0  0  0  0
  184.6410  175.1400  136.3380 C   0  0  2  0  0  3  0  0  0  0  0  0
  183.9190  173.2270  134.8860 O   0  0  0  0  0  0  0  0  0  0  0  0
  183.0050  173.5210  136.9660 O   0  0  0  0  0  1  0  0  0  0  0  0
  183.8130  173.9180  136.0870 C   0  0  0  0  0  0  0  0  0  0  0  0
  182.6570  177.6620  136.7520 C   0  0  0  0  0  1  0  0  0  0  0  0
  182.8590  176.8820  135.4680 C   0  0  0  0  0  2  0  0  0  0  0  0
  1  5  1  0  0  0  0
  2  4  1  0  0  0  0
  2 26  1  0  0  0  0
  3 10  1  0  0  0  0
  4 16  1  0  0  0  0
  5  2  2  0  0  0  0
  7  1  2  0  0  0  0
  9  3  1  0  0  0  0
  9  4  2  0  0  0  0
 10  6  2  0  0  0  0
 10 15  1  0  0  0  0
 11 18  2  0  0  0  0
 11  5  1  0  0  0  0
 12 11  1  0  0  0  0
 13 12  2  0  0  0  0
 13  7  1  0  0  0  0
 14  8  1  0  0  0  0
 14  6  1  0  0  0  0
 16 15  2  0  0  0  0
 17 19  1  0  0  0  0
 17  3  2  0  0  0  0
 18  9  1  0  0  0  0
 19 14  2  0  0  0  0
 20 24  1  0  0  0  0
 21 12  1  1  0  0  0
 22 21  1  0  0  0  0
 23 20  1  0  0  0  0
 23 22  1  0  0  0  0
 24 21  1  0  0  0  0
 26 25  3  0  0  0  0
 27 13  1  0  0  0  0
 28 32  1  0  0  0  0
 29 31  2  0  0  0  0
 30 28  1  0  0  0  0
 31 33  1  0  0  0  0
 32 33  2  0  0  0  0
 33 27  1  0  0  0  0
 34 29  1  0  0  0  0
 34 28  2  0  0  0  0
 35 29  1  0  0  0  0
 36 37  2  0  0  0  0
 38 48  1  0  0  0  0
 38 43  1  0  0  0  0
 39 40  1  0  0  0  0
 39 38  2  0  0  0  0
 40 42  1  0  0  0  0
 41 36  1  0  0  0  0
 41 35  1  0  0  0  0
 42 43  1  0  0  0  0
 42 36  1  0  0  0  0
 43 46  1  6  0  0  0
 44 46  2  0  0  0  0
 46 45  1  0  0  0  0
 48 47  1  0  0  0  0
M  END
>  <MODEL>
4

>  <REMARK>
 VINA RESULT:      -9.5      2.099      3.699
  Name = 
  8 active torsions:
  status: ('A' for Active; 'I' for Inactive)
    1  A    between atoms: C_4  and  C_27
    2  A    between atoms: C_5  and  C_43
    3  A    between atoms: C_9  and  C_11
    4  A    between atoms: C_9  and  N_42
    5  A    between atoms: C_26  and  C_37
    6  A    between atoms: C_28  and  C_48
    7  A    between atoms: C_30  and  C_37
    8  A    between atoms: C_36  and  C_47
                            x       y       z     vdW  Elec       q    Type
                         _______ _______ _______ _____ _____    ______ ____

>  <TORSDO>
F 8

$$$$
=
 OpenBabel11042410203D

 48 54  0  0  1  0  0  0  0  0999 V2000
  184.8190  178.8700  138.4590 C   0  0  0  0  0  3  0  0  0  0  0  0
  185.7570  176.9300  137.3050 C   0  0  0  0  0  0  0  0  0  0  0  0
  184.3260  173.5550  136.6920 C   0  0  0  0  0  0  0  0  0  0  0  0
  185.6180  175.5990  136.8680 C   0  0  0  0  0  0  0  0  0  0  0  0
  184.7030  177.5480  138.0120 C   0  0  0  0  0  0  0  0  0  0  0  0
  185.3360  171.6690  135.5300 C   0  0  0  0  0  3  0  0  0  0  0  0
  183.7790  179.4800  139.1530 C   0  0  0  0  0  3  0  0  0  0  0  0
  184.1200  169.6300  135.3210 F   0  0  0  0  0  0  0  0  0  0  0  0
  184.4340  174.8820  137.1390 C   0  0  0  0  0  0  0  0  0  0  0  0
  185.4090  172.9870  135.9890 C   0  0  0  0  0  0  0  0  0  0  0  0
  183.5100  176.8300  138.2830 C   0  0  0  0  0  0  0  0  0  0  0  0
  182.4510  177.4450  138.9910 C   0  0  0  0  0  0  0  0  0  0  0  0
  182.5940  178.7880  139.4180 C   0  0  0  0  0  0  0  0  0  0  0  0
  184.1890  170.9070  135.7670 C   0  0  0  0  0  0  0  0  0  0  0  0
  186.5230  173.7250  135.7590 N   0  0  0  0  0  0  0  0  0  0  0  0
  186.6240  174.9850  136.1840 N   0  0  0  0  0  0  0  0  0  0  0  0
  183.1770  172.7790  136.9240 C   0  0  0  0  0  3  0  0  0  0  0  0
  183.3960  175.5050  137.8400 C   0  0  0  0  0  3  0  0  0  0  0  0
  183.1100  171.4620  136.4620 C   0  0  0  0  0  3  0  0  0  0  0  0
  180.4520  174.5910  139.5370 N   0  0  0  0  0  2  0  0  0  0  0  0
  181.2020  176.6450  139.2860 C   0  0  1  0  0  3  0  0  0  0  0  0
  180.3640  176.4200  138.0590 C   0  0  0  0  0  2  0  0  0  0  0  0
  179.9570  174.9930  138.2300 C   0  0  0  0  0  2  0  0  0  0  0  0
  181.5100  175.3940  139.8400 O   0  0  0  0  0  0  0  0  0  0  0  0
  187.9580  178.2290  136.7940 N   0  0  0  0  0  0  0  0  0  0  0  0
  186.9810  177.6520  137.0210 C   0  0  0  0  0  0  0  0  0  0  0  0
  181.5120  179.5010  140.1760 C   0  0  0  0  0  2  0  0  0  0  0  0
  180.4290  178.7320  143.7290 C   0  0  0  0  0  0  0  0  0  0  0  0
  182.8510  178.7680  143.6470 C   0  0  0  0  0  0  0  0  0  0  0  0
  179.2820  178.5760  144.4320 F   0  0  0  0  0  0  0  0  0  0  0  0
  182.7980  179.0550  142.2790 C   0  0  0  0  0  3  0  0  0  0  0  0
  180.3780  179.0200  142.3620 C   0  0  0  0  0  3  0  0  0  0  0  0
  181.5620  179.1790  141.6330 C   0  0  0  0  0  0  0  0  0  0  0  0
  181.6650  178.6050  144.3710 C   0  0  0  0  0  3  0  0  0  0  0  0
  184.1680  178.6200  144.3310 C   0  0  0  0  0  2  0  0  0  0  0  0
  186.4430  177.8780  143.4900 C   0  0  0  0  0  0  0  0  0  0  0  0
  186.6150  177.1510  144.5060 O   0  0  0  0  0  0  0  0  0  0  0  0
  189.2040  177.3620  141.0970 C   0  0  0  0  0  0  0  0  0  0  0  0
  188.4470  178.2030  140.3940 C   0  0  0  0  0  3  0  0  0  0  0  0
  187.2690  178.6290  141.2050 C   0  0  0  0  0  2  0  0  0  0  0  0
  185.2520  178.6620  143.3620 N   0  0  0  0  0  2  0  0  0  0  0  0
  187.4420  177.9230  142.4650 N   0  0  0  0  0  0  0  0  0  0  0  0
  188.6600  177.1270  142.4650 C   0  0  2  0  0  3  0  0  0  0  0  0
  190.1750  176.7540  144.4290 O   0  0  0  0  0  1  0  0  0  0  0  0
  189.8980  178.8530  143.5530 O   0  0  0  0  0  0  0  0  0  0  0  0
  189.6130  177.6280  143.5060 C   0  0  0  0  0  0  0  0  0  0  0  0
  190.4970  176.8060  139.0610 C   0  0  0  0  0  1  0  0  0  0  0  0
  190.4640  176.7490  140.5770 C   0  0  0  0  0  2  0  0  0  0  0  0
  1  7  1  0  0  0  0
  2  5  1  0  0  0  0
  3 17  1  0  0  0  0
  3  9  1  0  0  0  0
  4  9  1  0  0  0  0
  4  2  2  0  0  0  0
  5 11  1  0  0  0  0
  5  1  2  0  0  0  0
  6 14  2  0  0  0  0
  6 10  1  0  0  0  0
  7 13  2  0  0  0  0
  8 14  1  0  0  0  0
  9 18  2  0  0  0  0
 10  3  2  0  0  0  0
 11 12  2  0  0  0  0
 12 13  1  0  0  0  0
 13 27  1  0  0  0  0
 14 19  1  0  0  0  0
 15 10  1  0  0  0  0
 15 16  2  0  0  0  0
 16  4  1  0  0  0  0
 18 11  1  0  0  0  0
 19 17  2  0  0  0  0
 20 24  1  0  0  0  0
 21 12  1  6  0  0  0
 21 24  1  0  0  0  0
 22 23  1  0  0  0  0
 22 21  1  0  0  0  0
 23 20  1  0  0  0  0
 25 26  3  0  0  0  0
 26  2  1  0  0  0  0
 27 33  1  0  0  0  0
 28 34  1  0  0  0  0
 28 30  1  0  0  0  0
 29 35  1  0  0  0  0
 29 34  2  0  0  0  0
 31 29  1  0  0  0  0
 32 28  2  0  0  0  0
 33 31  2  0  0  0  0
 33 32  1  0  0  0  0
 36 37  2  0  0  0  0
 38 43  1  0  0  0  0
 39 38  2  0  0  0  0
 39 40  1  0  0  0  0
 40 42  1  0  0  0  0
 41 36  1  0  0  0  0
 41 35  1  0  0  0  0
 42 43  1  0  0  0  0
 42 36  1  0  0  0  0
 43 46  1  1  0  0  0
 46 45  2  0  0  0  0
 46 44  1  0  0  0  0
 47 48  1  0  0  0  0
 48 38  1  0  0  0  0
M  END
>  <MODEL>
5

>  <REMARK>
 VINA RESULT:      -8.8      3.018      9.773
  Name = 
  8 active torsions:
  status: ('A' for Active; 'I' for Inactive)
    1  A    between atoms: C_4  and  C_27
    2  A    between atoms: C_5  and  C_43
    3  A    between atoms: C_9  and  C_11
    4  A    between atoms: C_9  and  N_42
    5  A    between atoms: C_26  and  C_37
    6  A    between atoms: C_28  and  C_48
    7  A    between atoms: C_30  and  C_37
    8  A    between atoms: C_36  and  C_47
                            x       y       z     vdW  Elec       q    Type
                         _______ _______ _______ _____ _____    ______ ____

>  <TORSDO>
F 8

$$$$
=
 OpenBabel11042410203D

 48 54  0  0  1  0  0  0  0  0999 V2000
  185.0200  178.6410  141.1440 C   0  0  0  0  0  3  0  0  0  0  0  0
  185.6620  178.2430  143.4690 C   0  0  0  0  0  0  0  0  0  0  0  0
  188.9590  177.3820  144.9550 C   0  0  0  0  0  0  0  0  0  0  0  0
  186.6590  177.9270  144.4110 C   0  0  0  0  0  0  0  0  0  0  0  0
  185.9960  178.3310  142.1000 C   0  0  0  0  0  0  0  0  0  0  0  0
  189.5130  176.9970  147.2940 C   0  0  0  0  0  3  0  0  0  0  0  0
  185.3490  178.7310  139.7950 C   0  0  0  0  0  3  0  0  0  0  0  0
  191.7540  176.4560  147.8970 F   0  0  0  0  0  0  0  0  0  0  0  0
  187.9860  177.6970  143.9910 C   0  0  0  0  0  0  0  0  0  0  0  0
  188.5710  177.3080  146.3090 C   0  0  0  0  0  0  0  0  0  0  0  0
  187.3300  178.1020  141.6760 C   0  0  0  0  0  0  0  0  0  0  0  0
  187.6690  178.1900  140.3050 C   0  0  0  0  0  0  0  0  0  0  0  0
  186.6610  178.5170  139.3640 C   0  0  0  0  0  0  0  0  0  0  0  0
  190.8430  176.7580  146.9410 C   0  0  0  0  0  0  0  0  0  0  0  0
  187.2790  177.5390  146.6530 N   0  0  0  0  0  0  0  0  0  0  0  0
  186.3570  177.8380  145.7370 N   0  0  0  0  0  0  0  0  0  0  0  0
  190.2990  177.1390  144.6110 C   0  0  0  0  0  3  0  0  0  0  0  0
  188.3050  177.7870  142.6320 C   0  0  0  0  0  3  0  0  0  0  0  0
  191.2370  176.8290  145.6010 C   0  0  0  0  0  3  0  0  0  0  0  0
  190.5910  176.3110  139.6940 N   0  0  0  0  0  2  0  0  0  0  0  0
  189.0940  177.9140  139.8820 C   0  0  1  0  0  3  0  0  0  0  0  0
  190.0830  178.2230  140.9710 C   0  0  0  0  0  2  0  0  0  0  0  0
  191.0200  177.0640  140.8630 C   0  0  0  0  0  2  0  0  0  0  0  0
  189.2680  176.5770  139.4980 O   0  0  0  0  0  0  0  0  0  0  0  0
  183.2190  178.6620  144.2740 N   0  0  0  0  0  0  0  0  0  0  0  0
  184.3040  178.4750  143.9160 C   0  0  0  0  0  0  0  0  0  0  0  0
  186.9500  178.6240  137.8950 C   0  0  0  0  0  2  0  0  0  0  0  0
  186.2570  174.9880  137.0650 C   0  0  0  0  0  0  0  0  0  0  0  0
  188.0750  175.7700  135.6670 C   0  0  0  0  0  0  0  0  0  0  0  0
  185.4200  173.9970  137.4550 F   0  0  0  0  0  0  0  0  0  0  0  0
  187.9850  177.0340  136.2600 C   0  0  0  0  0  3  0  0  0  0  0  0
  186.1690  176.2520  137.6580 C   0  0  0  0  0  3  0  0  0  0  0  0
  187.0310  177.2780  137.2550 C   0  0  0  0  0  0  0  0  0  0  0  0
  187.2080  174.7480  136.0690 C   0  0  0  0  0  3  0  0  0  0  0  0
  189.0810  175.5150  134.5960 C   0  0  0  0  0  2  0  0  0  0  0  0
  191.3390  175.4310  135.7490 C   0  0  0  0  0  0  0  0  0  0  0  0
  191.3970  176.6900  135.7950 O   0  0  0  0  0  0  0  0  0  0  0  0
  194.1890  173.9780  137.5880 C   0  0  0  0  0  0  0  0  0  0  0  0
  193.5400  172.8630  137.2560 C   0  0  0  0  0  3  0  0  0  0  0  0
  192.3520  173.1960  136.4170 C   0  0  0  0  0  2  0  0  0  0  0  0
  190.2210  174.7850  135.1320 N   0  0  0  0  0  2  0  0  0  0  0  0
  192.3970  174.6460  136.3100 N   0  0  0  0  0  0  0  0  0  0  0  0
  193.5500  175.1950  137.0080 C   0  0  2  0  0  3  0  0  0  0  0  0
  194.6600  177.2450  136.0850 O   0  0  0  0  0  1  0  0  0  0  0  0
  195.0820  175.1830  135.1780 O   0  0  0  0  0  0  0  0  0  0  0  0
  194.4760  175.8680  136.0430 C   0  0  0  0  0  0  0  0  0  0  0  0
  196.3880  172.9120  137.9790 C   0  0  0  0  0  1  0  0  0  0  0  0
  195.4290  173.9990  138.4250 C   0  0  0  0  0  2  0  0  0  0  0  0
  1  5  1  0  0  0  0
  2 26  1  0  0  0  0
  2  4  1  0  0  0  0
  3 10  1  0  0  0  0
  4 16  1  0  0  0  0
  5  2  2  0  0  0  0
  7  1  2  0  0  0  0
  9  4  2  0  0  0  0
  9  3  1  0  0  0  0
 10 15  1  0  0  0  0
 10  6  2  0  0  0  0
 11  5  1  0  0  0  0
 11 18  2  0  0  0  0
 12 11  1  0  0  0  0
 13  7  1  0  0  0  0
 13 12  2  0  0  0  0
 14  6  1  0  0  0  0
 14  8  1  0  0  0  0
 16 15  2  0  0  0  0
 17  3  2  0  0  0  0
 17 19  1  0  0  0  0
 18  9  1  0  0  0  0
 19 14  2  0  0  0  0
 20 23  1  0  0  0  0
 21 12  1  1  0  0  0
 21 22  1  0  0  0  0
 23 22  1  0  0  0  0
 24 20  1  0  0  0  0
 24 21  1  0  0  0  0
 26 25  3  0  0  0  0
 27 13  1  0  0  0  0
 28 30  1  0  0  0  0
 28 32  1  0  0  0  0
 29 34  1  0  0  0  0
 29 31  2  0  0  0  0
 31 33  1  0  0  0  0
 33 32  2  0  0  0  0
 33 27  1  0  0  0  0
 34 28  2  0  0  0  0
 35 41  1  0  0  0  0
 35 29  1  0  0  0  0
 36 37  2  0  0  0  0
 36 42  1  0  0  0  0
 38 48  1  0  0  0  0
 39 38  2  0  0  0  0
 40 39  1  0  0  0  0
 41 36  1  0  0  0  0
 42 40  1  0  0  0  0
 42 43  1  0  0  0  0
 43 46  1  6  0  0  0
 43 38  1  0  0  0  0
 45 46  2  0  0  0  0
 46 44  1  0  0  0  0
 47 48  1  0  0  0  0
M  END
>  <MODEL>
6

>  <REMARK>
 VINA RESULT:      -8.6      3.213      6.387
  Name = 
  8 active torsions:
  status: ('A' for Active; 'I' for Inactive)
    1  A    between atoms: C_4  and  C_27
    2  A    between atoms: C_5  and  C_43
    3  A    between atoms: C_9  and  C_11
    4  A    between atoms: C_9  and  N_42
    5  A    between atoms: C_26  and  C_37
    6  A    between atoms: C_28  and  C_48
    7  A    between atoms: C_30  and  C_37
    8  A    between atoms: C_36  and  C_47
                            x       y       z     vdW  Elec       q    Type
                         _______ _______ _______ _____ _____    ______ ____

>  <TORSDO>
F 8

$$$$
=
 OpenBabel11042410203D

 48 54  0  0  1  0  0  0  0  0999 V2000
  190.4900  177.6480  138.5320 C   0  0  0  0  0  3  0  0  0  0  0  0
  191.2510  177.3910  140.8410 C   0  0  0  0  0  0  0  0  0  0  0  0
  189.3430  177.3900  144.0310 C   0  0  0  0  0  0  0  0  0  0  0  0
  190.9480  177.3280  142.2150 C   0  0  0  0  0  0  0  0  0  0  0  0
  190.2120  177.5790  139.9030 C   0  0  0  0  0  0  0  0  0  0  0  0
  190.1850  177.1290  146.3010 C   0  0  0  0  0  3  0  0  0  0  0  0
  189.4660  177.8300  137.6070 C   0  0  0  0  0  3  0  0  0  0  0  0
  188.6610  177.1810  148.1320 F   0  0  0  0  0  0  0  0  0  0  0  0
  189.6130  177.4550  142.6540 C   0  0  0  0  0  0  0  0  0  0  0  0
  190.4170  177.1990  144.9240 C   0  0  0  0  0  0  0  0  0  0  0  0
  188.8700  177.7040  140.3440 C   0  0  0  0  0  0  0  0  0  0  0  0
  187.8260  177.8920  139.4070 C   0  0  0  0  0  0  0  0  0  0  0  0
  188.1380  177.9450  138.0260 C   0  0  0  0  0  0  0  0  0  0  0  0
  188.8840  177.2480  146.7980 C   0  0  0  0  0  0  0  0  0  0  0  0
  191.6800  177.0840  144.4420 N   0  0  0  0  0  0  0  0  0  0  0  0
  191.9360  177.1470  143.1350 N   0  0  0  0  0  0  0  0  0  0  0  0
  188.0390  177.5070  144.5430 C   0  0  0  0  0  3  0  0  0  0  0  0
  188.5930  177.6400  141.7160 C   0  0  0  0  0  3  0  0  0  0  0  0
  187.8120  177.4370  145.9200 C   0  0  0  0  0  3  0  0  0  0  0  0
  184.7640  179.5000  140.1030 N   0  0  0  0  0  2  0  0  0  0  0  0
  186.4080  178.0480  139.9090 C   0  0  1  0  0  3  0  0  0  0  0  0
  186.3530  178.3270  141.3850 C   0  0  0  0  0  2  0  0  0  0  0  0
  185.2930  179.3780  141.4530 C   0  0  0  0  0  2  0  0  0  0  0  0
  185.7370  179.0830  139.2430 O   0  0  0  0  0  0  0  0  0  0  0  0
  193.7260  177.1590  140.0570 N   0  0  0  0  0  0  0  0  0  0  0  0
  192.6270  177.2610  140.4060 C   0  0  0  0  0  0  0  0  0  0  0  0
  187.0810  178.1450  136.9790 C   0  0  0  0  0  2  0  0  0  0  0  0
  186.6040  174.6630  135.5510 C   0  0  0  0  0  0  0  0  0  0  0  0
  184.4950  175.4190  136.4730 C   0  0  0  0  0  0  0  0  0  0  0  0
  187.3350  173.7130  134.9210 F   0  0  0  0  0  0  0  0  0  0  0  0
  185.0950  176.6240  136.8540 C   0  0  0  0  0  3  0  0  0  0  0  0
  187.2020  175.8680  135.9310 C   0  0  0  0  0  3  0  0  0  0  0  0
  186.4500  176.8500  136.5850 C   0  0  0  0  0  0  0  0  0  0  0  0
  185.2510  174.4380  135.8240 C   0  0  0  0  0  3  0  0  0  0  0  0
  183.0540  175.1720  136.7730 C   0  0  0  0  0  2  0  0  0  0  0  0
  181.9780  176.3770  138.7290 C   0  0  0  0  0  0  0  0  0  0  0  0
  182.0190  175.3330  139.4340 O   0  0  0  0  0  0  0  0  0  0  0  0
  180.7930  179.2190  140.7620 C   0  0  0  0  0  0  0  0  0  0  0  0
  181.0490  179.8490  139.6170 C   0  0  0  0  0  3  0  0  0  0  0  0
  181.4860  178.8680  138.5810 C   0  0  0  0  0  2  0  0  0  0  0  0
  182.4510  176.3500  137.3790 N   0  0  0  0  0  2  0  0  0  0  0  0
  181.4520  177.5910  139.2780 N   0  0  0  0  0  0  0  0  0  0  0  0
  180.9970  177.7460  140.6510 C   0  0  2  0  0  3  0  0  0  0  0  0
  178.9310  176.6250  139.7770 O   0  0  0  0  0  0  0  0  0  0  0  0
  179.3140  176.7670  142.0310 O   0  0  0  0  0  1  0  0  0  0  0  0
  179.7060  177.0160  140.8610 C   0  0  0  0  0  0  0  0  0  0  0  0
  179.1020  180.7530  141.7170 C   0  0  0  0  0  1  0  0  0  0  0  0
  180.3300  179.9110  142.0050 C   0  0  0  0  0  2  0  0  0  0  0  0
  1  5  1  0  0  0  0
  2  4  1  0  0  0  0
  3 17  2  0  0  0  0
  3 10  1  0  0  0  0
  4  9  2  0  0  0  0
  4 16  1  0  0  0  0
  5 11  1  0  0  0  0
  5  2  2  0  0  0  0
  6 14  1  0  0  0  0
  7 13  1  0  0  0  0
  7  1  2  0  0  0  0
  9  3  1  0  0  0  0
 10  6  2  0  0  0  0
 11 18  2  0  0  0  0
 12 11  1  0  0  0  0
 13 12  2  0  0  0  0
 14  8  1  0  0  0  0
 15 10  1  0  0  0  0
 16 15  2  0  0  0  0
 17 19  1  0  0  0  0
 18  9  1  0  0  0  0
 19 14  2  0  0  0  0
 20 23  1  0  0  0  0
 21 12  1  6  0  0  0
 21 22  1  0  0  0  0
 22 23  1  0  0  0  0
 24 21  1  0  0  0  0
 24 20  1  0  0  0  0
 25 26  3  0  0  0  0
 26  2  1  0  0  0  0
 27 13  1  0  0  0  0
 28 34  2  0  0  0  0
 28 32  1  0  0  0  0
 29 35  1  0  0  0  0
 29 31  2  0  0  0  0
 30 28  1  0  0  0  0
 32 33  2  0  0  0  0
 33 31  1  0  0  0  0
 33 27  1  0  0  0  0
 34 29  1  0  0  0  0
 35 41  1  0  0  0  0
 36 42  1  0  0  0  0
 36 37  2  0  0  0  0
 38 48  1  0  0  0  0
 39 38  2  0  0  0  0
 40 42  1  0  0  0  0
 40 39  1  0  0  0  0
 41 36  1  0  0  0  0
 42 43  1  0  0  0  0
 43 38  1  0  0  0  0
 43 46  1  6  0  0  0
 44 46  2  0  0  0  0
 46 45  1  0  0  0  0
 47 48  1  0  0  0  0
M  END
>  <MODEL>
7

>  <REMARK>
 VINA RESULT:      -8.6      2.417      4.742
  Name = 
  8 active torsions:
  status: ('A' for Active; 'I' for Inactive)
    1  A    between atoms: C_4  and  C_27
    2  A    between atoms: C_5  and  C_43
    3  A    between atoms: C_9  and  C_11
    4  A    between atoms: C_9  and  N_42
    5  A    between atoms: C_26  and  C_37
    6  A    between atoms: C_28  and  C_48
    7  A    between atoms: C_30  and  C_37
    8  A    between atoms: C_36  and  C_47
                            x       y       z     vdW  Elec       q    Type
                         _______ _______ _______ _____ _____    ______ ____

>  <TORSDO>
F 8

$$$$
=
 OpenBabel11042410203D

 48 54  0  0  1  0  0  0  0  0999 V2000
  189.5330  177.7920  139.3610 C   0  0  0  0  0  3  0  0  0  0  0  0
  189.4240  177.6680  141.8010 C   0  0  0  0  0  0  0  0  0  0  0  0
  186.5500  178.0980  144.1180 C   0  0  0  0  0  0  0  0  0  0  0  0
  188.6640  177.7470  142.9830 C   0  0  0  0  0  0  0  0  0  0  0  0
  188.7970  177.8630  140.5510 C   0  0  0  0  0  0  0  0  0  0  0  0
  186.5300  177.9610  146.5490 C   0  0  0  0  0  3  0  0  0  0  0  0
  188.9150  177.9800  138.1290 C   0  0  0  0  0  3  0  0  0  0  0  0
  184.4860  178.2960  147.7280 F   0  0  0  0  0  0  0  0  0  0  0  0
  187.2820  178.0230  142.9210 C   0  0  0  0  0  0  0  0  0  0  0  0
  187.2270  177.8940  145.3390 C   0  0  0  0  0  0  0  0  0  0  0  0
  187.4070  178.1380  140.4870 C   0  0  0  0  0  0  0  0  0  0  0  0
  186.7740  178.3330  139.2370 C   0  0  0  0  0  0  0  0  0  0  0  0
  187.5440  178.2420  138.0510 C   0  0  0  0  0  0  0  0  0  0  0  0
  185.1600  178.2310  146.5540 C   0  0  0  0  0  0  0  0  0  0  0  0
  188.5580  177.6320  145.3350 N   0  0  0  0  0  0  0  0  0  0  0  0
  189.2510  177.5620  144.1980 N   0  0  0  0  0  0  0  0  0  0  0  0
  185.1720  178.3680  144.1350 C   0  0  0  0  0  3  0  0  0  0  0  0
  186.6710  178.2140  141.6770 C   0  0  0  0  0  3  0  0  0  0  0  0
  184.4800  178.4340  145.3480 C   0  0  0  0  0  3  0  0  0  0  0  0
  183.6840  179.6300  140.3390 N   0  0  0  0  0  2  0  0  0  0  0  0
  185.2960  178.6500  139.2030 C   0  0  1  0  0  3  0  0  0  0  0  0
  184.4540  177.5020  139.6870 C   0  0  0  0  0  2  0  0  0  0  0  0
  183.4360  178.2080  140.5230 C   0  0  0  0  0  2  0  0  0  0  0  0
  184.9920  179.7740  139.9830 O   0  0  0  0  0  0  0  0  0  0  0  0
  191.9770  177.1610  141.9430 N   0  0  0  0  0  0  0  0  0  0  0  0
  190.8430  177.3860  141.8800 C   0  0  0  0  0  0  0  0  0  0  0  0
  186.9380  178.4410  136.6920 C   0  0  0  0  0  2  0  0  0  0  0  0
  187.3930  175.0820  134.9890 C   0  0  0  0  0  0  0  0  0  0  0  0
  185.0220  175.5440  135.1720 C   0  0  0  0  0  0  0  0  0  0  0  0
  188.4030  174.2700  134.5940 F   0  0  0  0  0  0  0  0  0  0  0  0
  185.3090  176.7590  135.8050 C   0  0  0  0  0  3  0  0  0  0  0  0
  187.6790  176.2970  135.6200 C   0  0  0  0  0  3  0  0  0  0  0  0
  186.6370  177.1360  136.0310 C   0  0  0  0  0  0  0  0  0  0  0  0
  186.0660  174.7060  134.7660 C   0  0  0  0  0  3  0  0  0  0  0  0
  183.6060  175.1340  134.9440 C   0  0  0  0  0  2  0  0  0  0  0  0
  182.1960  175.3100  137.0460 C   0  0  0  0  0  0  0  0  0  0  0  0
  182.4580  174.1160  137.3580 O   0  0  0  0  0  0  0  0  0  0  0  0
  180.2880  176.9250  139.7600 C   0  0  0  0  0  0  0  0  0  0  0  0
  180.4320  177.9610  138.9350 C   0  0  0  0  0  3  0  0  0  0  0  0
  181.1310  177.5270  137.6900 C   0  0  0  0  0  2  0  0  0  0  0  0
  182.7150  175.8660  135.8340 N   0  0  0  0  0  2  0  0  0  0  0  0
  181.3750  176.1090  137.9050 N   0  0  0  0  0  0  0  0  0  0  0  0
  180.8420  175.6660  139.1840 C   0  0  2  0  0  3  0  0  0  0  0  0
  178.9380  174.7170  137.8560 O   0  0  0  0  0  0  0  0  0  0  0  0
  179.5730  173.7530  139.8360 O   0  0  0  0  0  1  0  0  0  0  0  0
  179.7560  174.6560  138.9780 C   0  0  0  0  0  0  0  0  0  0  0  0
  179.8330  178.3920  141.7010 C   0  0  0  0  0  1  0  0  0  0  0  0
  179.6250  177.0150  141.0980 C   0  0  0  0  0  2  0  0  0  0  0  0
  1  5  1  0  0  0  0
  2 26  1  0  0  0  0
  2  4  1  0  0  0  0
  3 17  2  0  0  0  0
  3 10  1  0  0  0  0
  4 16  1  0  0  0  0
  5  2  2  0  0  0  0
  6 14  1  0  0  0  0
  7  1  2  0  0  0  0
  9  4  2  0  0  0  0
  9  3  1  0  0  0  0
 10  6  2  0  0  0  0
 11  5  1  0  0  0  0
 11 18  2  0  0  0  0
 12 11  1  0  0  0  0
 13  7  1  0  0  0  0
 13 12  2  0  0  0  0
 14  8  1  0  0  0  0
 15 10  1  0  0  0  0
 16 15  2  0  0  0  0
 17 19  1  0  0  0  0
 18  9  1  0  0  0  0
 19 14  2  0  0  0  0
 20 23  1  0  0  0  0
 21 12  1  1  0  0  0
 21 22  1  0  0  0  0
 21 24  1  0  0  0  0
 22 23  1  0  0  0  0
 24 20  1  0  0  0  0
 26 25  3  0  0  0  0
 27 13  1  0  0  0  0
 28 32  1  0  0  0  0
 29 31  2  0  0  0  0
 30 28  1  0  0  0  0
 31 33  1  0  0  0  0
 32 33  2  0  0  0  0
 33 27  1  0  0  0  0
 34 28  2  0  0  0  0
 34 29  1  0  0  0  0
 35 29  1  0  0  0  0
 35 41  1  0  0  0  0
 36 37  2  0  0  0  0
 36 42  1  0  0  0  0
 38 48  1  0  0  0  0
 39 38  2  0  0  0  0
 40 42  1  0  0  0  0
 40 39  1  0  0  0  0
 41 36  1  0  0  0  0
 42 43  1  0  0  0  0
 43 46  1  6  0  0  0
 43 38  1  0  0  0  0
 44 46  2  0  0  0  0
 46 45  1  0  0  0  0
 48 47  1  0  0  0  0
M  END
>  <MODEL>
8

>  <REMARK>
 VINA RESULT:      -8.6      2.379      4.265
  Name = 
  8 active torsions:
  status: ('A' for Active; 'I' for Inactive)
    1  A    between atoms: C_4  and  C_27
    2  A    between atoms: C_5  and  C_43
    3  A    between atoms: C_9  and  C_11
    4  A    between atoms: C_9  and  N_42
    5  A    between atoms: C_26  and  C_37
    6  A    between atoms: C_28  and  C_48
    7  A    between atoms: C_30  and  C_37
    8  A    between atoms: C_36  and  C_47
                            x       y       z     vdW  Elec       q    Type
                         _______ _______ _______ _____ _____    ______ ____

>  <TORSDO>
F 8

$$$$
=
 OpenBabel11042410203D

 48 54  0  0  1  0  0  0  0  0999 V2000
  185.2250  178.6280  139.9960 C   0  0  0  0  0  3  0  0  0  0  0  0
  184.6930  178.6450  142.3820 C   0  0  0  0  0  0  0  0  0  0  0  0
  186.8740  178.1370  145.3490 C   0  0  0  0  0  0  0  0  0  0  0  0
  185.1220  178.5190  143.7170 C   0  0  0  0  0  0  0  0  0  0  0  0
  185.6280  178.5100  141.3320 C   0  0  0  0  0  0  0  0  0  0  0  0
  186.2580  178.1660  147.7050 C   0  0  0  0  0  3  0  0  0  0  0  0
  186.1460  178.4990  138.9610 C   0  0  0  0  0  3  0  0  0  0  0  0
  187.9320  177.7970  149.3610 F   0  0  0  0  0  0  0  0  0  0  0  0
  186.4770  178.2580  144.0070 C   0  0  0  0  0  0  0  0  0  0  0  0
  185.8990  178.2810  146.3590 C   0  0  0  0  0  0  0  0  0  0  0  0
  186.9920  178.2500  141.6220 C   0  0  0  0  0  0  0  0  0  0  0  0
  187.9320  178.1160  140.5730 C   0  0  0  0  0  0  0  0  0  0  0  0
  187.4950  178.2530  139.2320 C   0  0  0  0  0  0  0  0  0  0  0  0
  187.5860  177.9080  148.0560 C   0  0  0  0  0  0  0  0  0  0  0  0
  184.6100  178.5310  146.0190 N   0  0  0  0  0  0  0  0  0  0  0  0
  184.2350  178.6460  144.7440 N   0  0  0  0  0  0  0  0  0  0  0  0
  188.2060  177.8770  145.7140 C   0  0  0  0  0  3  0  0  0  0  0  0
  187.3940  178.1280  142.9580 C   0  0  0  0  0  3  0  0  0  0  0  0
  188.5590  177.7640  147.0620 C   0  0  0  0  0  3  0  0  0  0  0  0
  190.6700  176.3370  141.9060 N   0  0  0  0  0  2  0  0  0  0  0  0
  189.3730  177.8130  140.9130 C   0  0  1  0  0  3  0  0  0  0  0  0
  189.8270  178.5200  142.1590 C   0  0  0  0  0  2  0  0  0  0  0  0
  190.6220  177.4530  142.8380 C   0  0  0  0  0  2  0  0  0  0  0  0
  189.5830  176.4380  141.0890 O   0  0  0  0  0  0  0  0  0  0  0  0
  182.1820  179.1240  141.8750 N   0  0  0  0  0  0  0  0  0  0  0  0
  183.2970  178.9110  142.1010 C   0  0  0  0  0  0  0  0  0  0  0  0
  188.4360  178.1190  138.0710 C   0  0  0  0  0  2  0  0  0  0  0  0
  189.1200  174.5460  136.9980 C   0  0  0  0  0  0  0  0  0  0  0  0
  187.1040  175.3150  135.8950 C   0  0  0  0  0  0  0  0  0  0  0  0
  190.0350  173.5730  137.2230 F   0  0  0  0  0  0  0  0  0  0  0  0
  187.2300  176.5530  136.5330 C   0  0  0  0  0  3  0  0  0  0  0  0
  189.2450  175.7850  137.6340 C   0  0  0  0  0  3  0  0  0  0  0  0
  188.2990  176.7900  137.4050 C   0  0  0  0  0  0  0  0  0  0  0  0
  188.0490  174.3110  136.1300 C   0  0  0  0  0  3  0  0  0  0  0  0
  185.9560  175.0570  134.9780 C   0  0  0  0  0  2  0  0  0  0  0  0
  183.8040  175.5180  136.2390 C   0  0  0  0  0  0  0  0  0  0  0  0
  183.9490  176.7620  136.0920 O   0  0  0  0  0  0  0  0  0  0  0  0
  180.5380  174.8120  137.8040 C   0  0  0  0  0  0  0  0  0  0  0  0
  180.9650  173.5670  137.5950 C   0  0  0  0  0  3  0  0  0  0  0  0
  182.3410  173.5900  137.0190 C   0  0  0  0  0  2  0  0  0  0  0  0
  184.7920  174.6160  135.7320 N   0  0  0  0  0  2  0  0  0  0  0  0
  182.6520  175.0070  136.9190 N   0  0  0  0  0  0  0  0  0  0  0  0
  181.5610  175.8280  137.4240 C   0  0  2  0  0  3  0  0  0  0  0  0
  182.4140  175.9530  139.7790 O   0  0  0  0  0  1  0  0  0  0  0  0
  181.9890  177.8650  138.5910 O   0  0  0  0  0  0  0  0  0  0  0  0
  182.0030  176.6070  138.6240 C   0  0  0  0  0  0  0  0  0  0  0  0
  179.0290  174.5010  139.7410 C   0  0  0  0  0  1  0  0  0  0  0  0
  179.1970  175.1440  138.3770 C   0  0  0  0  0  2  0  0  0  0  0  0
  1  5  1  0  0  0  0
  2  4  1  0  0  0  0
  3 17  2  0  0  0  0
  3 10  1  0  0  0  0
  4  9  2  0  0  0  0
  4 16  1  0  0  0  0
  5 11  1  0  0  0  0
  5  2  2  0  0  0  0
  6 14  1  0  0  0  0
  7 13  1  0  0  0  0
  7  1  2  0  0  0  0
  9  3  1  0  0  0  0
 10  6  2  0  0  0  0
 11 18  2  0  0  0  0
 12 11  1  0  0  0  0
 13 12  2  0  0  0  0
 14  8  1  0  0  0  0
 15 10  1  0  0  0  0
 16 15  2  0  0  0  0
 17 19  1  0  0  0  0
 18  9  1  0  0  0  0
 19 14  2  0  0  0  0
 20 23  1  0  0  0  0
 21 12  1  1  0  0  0
 21 24  1  0  0  0  0
 21 22  1  0  0  0  0
 22 23  1  0  0  0  0
 24 20  1  0  0  0  0
 25 26  3  0  0  0  0
 26  2  1  0  0  0  0
 27 13  1  0  0  0  0
 28 30  1  0  0  0  0
 28 32  1  0  0  0  0
 29 34  1  0  0  0  0
 29 31  2  0  0  0  0
 31 33  1  0  0  0  0
 33 32  2  0  0  0  0
 33 27  1  0  0  0  0
 34 28  2  0  0  0  0
 35 41  1  0  0  0  0
 35 29  1  0  0  0  0
 36 42  1  0  0  0  0
 37 36  2  0  0  0  0
 38 48  1  0  0  0  0
 39 38  2  0  0  0  0
 40 39  1  0  0  0  0
 41 36  1  0  0  0  0
 42 40  1  0  0  0  0
 42 43  1  0  0  0  0
 43 38  1  0  0  0  0
 43 46  1  1  0  0  0
 45 46  2  0  0  0  0
 46 44  1  0  0  0  0
 48 47  1  0  0  0  0
M  END
>  <MODEL>
9

>  <REMARK>
 VINA RESULT:      -8.5      1.693      2.308
  Name = 
  8 active torsions:
  status: ('A' for Active; 'I' for Inactive)
    1  A    between atoms: C_4  and  C_27
    2  A    between atoms: C_5  and  C_43
    3  A    between atoms: C_9  and  C_11
    4  A    between atoms: C_9  and  N_42
    5  A    between atoms: C_26  and  C_37
    6  A    between atoms: C_28  and  C_48
    7  A    between atoms: C_30  and  C_37
    8  A    between atoms: C_36  and  C_47
                            x       y       z     vdW  Elec       q    Type
                         _______ _______ _______ _____ _____    ______ ____

>  <TORSDO>
F 8

$$$$
