=
 OpenBabel11042411413D

 40 41  0  0  1  0  0  0  0  0999 V2000
  189.3250  177.9780  140.6240 C   0  0  1  0  0  3  0  0  0  0  0  0
  190.5930  175.9110  143.2810 C   0  0  0  0  0  3  0  0  0  0  0  0
  189.9590  176.0680  142.1050 N   0  0  0  0  0  0  0  0  0  0  0  0
  190.9840  177.1470  143.7490 C   0  0  2  0  0  3  0  0  0  0  0  0
  190.6000  178.1110  142.8440 C   0  0  0  0  0  3  0  0  0  0  0  0
  189.9720  177.3910  141.8440 C   0  0  0  0  0  0  0  0  0  0  0  0
  191.7470  177.3950  145.0060 C   0  0  0  0  0  2  0  0  0  0  0  0
  191.8670  176.6090  147.2620 O   0  0  0  0  0  1  0  0  0  0  0  0
  190.9840  176.8800  146.2150 C   0  0  0  0  0  2  0  0  0  0  0  0
  189.3050  177.6740  138.1760 C   0  0  0  0  0  0  0  0  0  0  0  0
  187.0770  177.8930  137.3800 O   0  0  0  0  0  1  0  0  0  0  0  0
  189.2430  177.5560  136.6570 C   0  0  0  0  0  2  0  0  0  0  0  0
  188.3450  178.4650  137.2920 C   0  0  2  0  0  3  0  0  0  0  0  0
  189.8110  177.3330  139.3620 C   0  0  0  0  0  0  0  0  0  0  0  0
  190.8470  176.3540  139.4570 N   0  0  0  0  0  2  0  0  0  0  0  0
  191.6100  175.9660  138.3420 N   0  0  0  0  0  2  0  0  0  0  0  0
  193.1920  177.0830  139.8550 C   0  0  0  0  0  1  0  0  0  0  0  0
  192.9410  176.5620  138.4470 C   0  0  1  0  0  3  0  0  0  0  0  0
  193.9660  176.2050  135.7990 O   0  0  0  0  0  0  0  0  0  0  0  0
  193.9690  175.6040  138.0590 N   0  0  0  0  0  2  0  0  0  0  0  0
  194.4590  175.5000  136.7200 C   0  0  0  0  0  0  0  0  0  0  0  0
  195.5820  174.5720  136.4180 C   0  0  0  0  0  2  0  0  0  0  0  0
  195.9640  173.8130  137.6730 C   0  0  0  0  0  2  0  0  0  0  0  0
  197.3230  174.1570  138.0540 N   0  0  0  0  0  2  0  0  0  0  0  0
  196.6820  175.1780  140.0560 O   0  0  0  0  0  0  0  0  0  0  0  0
  197.6110  174.8420  139.2730 C   0  0  0  0  0  0  0  0  0  0  0  0
  199.0190  175.1610  139.6230 C   0  0  0  0  0  1  0  0  0  0  0  0
  187.8680  177.9270  140.7020 N   0  0  0  0  0  2  0  0  0  0  0  0
  187.4070  179.2470  140.8240 N   0  0  0  0  0  2  0  0  0  0  0  0
  186.0830  179.1950  141.4270 C   0  0  1  0  0  3  0  0  0  0  0  0
  185.0560  178.7090  140.4100 C   0  0  0  0  0  2  0  0  0  0  0  0
  184.7860  179.7530  139.4400 N   0  0  0  0  0  1  0  0  0  0  0  0
  186.1060  178.3120  142.6740 C   0  0  0  0  0  2  0  0  0  0  0  0
  184.7110  177.8370  143.0650 C   0  0  0  0  0  2  0  0  0  0  0  0
  182.9720  179.4560  143.9620 C   0  0  0  0  0  1  0  0  0  0  0  0
  184.2050  178.6160  144.2720 C   0  0  2  0  0  3  0  0  0  0  0  0
  185.2300  179.3060  144.9650 O   0  0  0  0  0  0  0  0  0  0  0  0
  187.2530  177.9280  146.2770 O   0  0  0  0  0  0  0  0  0  0  0  0
  185.8160  179.6810  147.4370 O   0  0  0  0  0  1  0  0  0  0  0  0
  185.6670  178.5320  146.4500 S   0  0  1  0  0  0  0  0  0  0  0  0
  1 14  1  6  0  0  0
  1 28  1  0  0  0  0
  1  6  1  0  0  0  0
  2  4  1  0  0  0  0
  3  2  2  0  0  0  0
  4  7  1  6  0  0  0
  5  4  1  0  0  0  0
  6  3  1  0  0  0  0
  6  5  2  0  0  0  0
  7  9  1  0  0  0  0
  9  8  1  0  0  0  0
 10 14  2  0  0  0  0
 12 13  1  0  0  0  0
 12 10  1  0  0  0  0
 13 11  1  1  0  0  0
 13 10  1  0  0  0  0
 14 15  1  0  0  0  0
 16 18  1  0  0  0  0
 16 15  1  0  0  0  0
 18 17  1  1  0  0  0
 19 21  2  0  0  0  0
 20 18  1  0  0  0  0
 21 20  1  0  0  0  0
 22 21  1  0  0  0  0
 22 23  1  0  0  0  0
 23 24  1  0  0  0  0
 24 26  1  0  0  0  0
 26 27  1  0  0  0  0
 26 25  2  0  0  0  0
 28 29  1  0  0  0  0
 29 30  1  0  0  0  0
 30 31  1  6  0  0  0
 30 33  1  0  0  0  0
 32 31  1  0  0  0  0
 33 34  1  0  0  0  0
 34 36  1  0  0  0  0
 36 35  1  6  0  0  0
 36 37  1  0  0  0  0
 37 40  1  0  0  0  0
 40 38  2  6  0  0  0
 40 39  1  0  0  0  0
M  END
>  <MODEL>
1

>  <REMARK>
 VINA RESULT:      -6.6      0.000      0.000
  Name = 
  20 active torsions:
  status: ('A' for Active; 'I' for Inactive)
    1  A    between atoms: N_2  and  C_22
    2  A    between atoms: C_4  and  C_27
    3  A    between atoms: C_4  and  C_33
    4  A    between atoms: C_5  and  C_14
    5  A    between atoms: C_5  and  C_28
    6  A    between atoms: C_6  and  N_18
    7  A    between atoms: C_6  and  C_37
    8  A    between atoms: C_6  and  C_40
    9  A    between atoms: C_11  and  N_12
   10  A    between atoms: C_11  and  N_34
   11  A    between atoms: C_14  and  O_20
   12  A    between atoms: C_16  and  C_21
   13  A    between atoms: C_16  and  C_28
   14  A    between atoms: C_16  and  N_30
   15  A    between atoms: N_18  and  N_30
   16  A    between atoms: S_19  and  O_20
   17  A    between atoms: C_22  and  C_26
   18  A    between atoms: C_25  and  C_26
   19  A    between atoms: N_31  and  N_34
   20  A    between atoms: N_31  and  C_37
                            x       y       z     vdW  Elec       q    Type
                         _______ _______ _______ _____ _____    ______ ____

>  <TORSDO>
F 20

$$$$
=
 OpenBabel11042411413D

 40 41  0  0  1  0  0  0  0  0999 V2000
  184.7290  178.9840  139.4930 C   0  0  1  0  0  3  0  0  0  0  0  0
  182.5570  177.6500  136.9540 C   0  0  0  0  0  3  0  0  0  0  0  0
  183.0610  178.6800  137.6570 N   0  0  0  0  0  2  0  0  0  0  0  0
  183.1470  176.4810  137.3850 C   0  0  0  0  0  0  0  0  0  0  0  0
  184.0550  176.7770  138.3770 C   0  0  0  0  0  3  0  0  0  0  0  0
  183.9660  178.1510  138.5050 C   0  0  0  0  0  0  0  0  0  0  0  0
  182.8830  175.1220  136.8310 C   0  0  0  0  0  2  0  0  0  0  0  0
  183.4530  172.8070  137.0300 O   0  0  0  0  0  1  0  0  0  0  0  0
  183.6270  174.0600  137.6220 C   0  0  0  0  0  2  0  0  0  0  0  0
  182.8090  178.8180  141.0330 C   0  0  0  0  0  0  0  0  0  0  0  0
  180.9690  180.0100  140.1190 O   0  0  0  0  0  1  0  0  0  0  0  0
  181.5720  178.6960  141.9180 C   0  0  0  0  0  2  0  0  0  0  0  0
  181.3790  178.7360  140.5040 C   0  0  2  0  0  3  0  0  0  0  0  0
  184.1270  178.9230  140.8650 C   0  0  0  0  0  0  0  0  0  0  0  0
  185.0050  178.9620  141.9920 N   0  0  0  0  0  2  0  0  0  0  0  0
  184.9030  178.0380  143.0470 N   0  0  0  0  0  2  0  0  0  0  0  0
  183.7520  178.7800  145.0870 C   0  0  0  0  0  1  0  0  0  0  0  0
  185.0640  178.7470  144.3150 C   0  0  1  0  0  3  0  0  0  0  0  0
  185.7380  179.4730  147.0000 O   0  0  0  0  0  0  0  0  0  0  0  0
  186.1210  178.1410  145.1160 N   0  0  0  0  0  2  0  0  0  0  0  0
  186.3830  178.5320  146.4660 C   0  0  0  0  0  0  0  0  0  0  0  0
  187.4080  177.7980  147.2570 C   0  0  0  0  0  2  0  0  0  0  0  0
  188.6710  177.6450  146.4330 C   0  0  0  0  0  2  0  0  0  0  0  0
  189.6360  176.8450  147.1680 N   0  0  0  0  0  2  0  0  0  0  0  0
  191.3860  177.2920  145.6860 O   0  0  0  0  0  0  0  0  0  0  0  0
  190.9890  176.7160  146.7350 C   0  0  0  0  0  0  0  0  0  0  0  0
  191.9410  175.8960  147.5270 C   0  0  0  0  0  1  0  0  0  0  0  0
  186.1420  178.6230  139.5330 N   0  0  0  0  0  2  0  0  0  0  0  0
  186.6420  178.7390  138.2270 N   0  0  0  0  0  2  0  0  0  0  0  0
  187.6650  177.7170  138.0580 C   0  0  1  0  0  3  0  0  0  0  0  0
  187.6440  177.1760  136.6320 C   0  0  0  0  0  2  0  0  0  0  0  0
  188.5070  177.9780  135.7850 N   0  0  0  0  0  1  0  0  0  0  0  0
  189.0380  178.2760  138.4310 C   0  0  0  0  0  2  0  0  0  0  0  0
  190.0120  177.1770  138.8410 C   0  0  0  0  0  2  0  0  0  0  0  0
  191.9810  177.5130  140.4090 C   0  0  0  0  0  1  0  0  0  0  0  0
  190.4680  177.3850  140.2790 C   0  0  2  0  0  3  0  0  0  0  0  0
  189.8720  176.4820  141.1930 O   0  0  0  0  0  0  0  0  0  0  0  0
  188.1010  176.0710  143.2930 O   0  0  0  0  0  1  0  0  0  0  0  0
  189.4630  178.2090  143.0510 O   0  0  0  0  0  0  0  0  0  0  0  0
  188.6720  177.2370  142.1860 S   0  0  1  0  0  0  0  0  0  0  0  0
  1 28  1  1  0  0  0
  1 14  1  0  0  0  0
  2  4  2  0  0  0  0
  2  3  1  0  0  0  0
  3  6  1  0  0  0  0
  4  5  1  0  0  0  0
  5  6  2  0  0  0  0
  6  1  1  0  0  0  0
  7  4  1  0  0  0  0
  7  9  1  0  0  0  0
  8  9  1  0  0  0  0
 10 12  1  0  0  0  0
 13 11  1  1  0  0  0
 13 10  1  0  0  0  0
 13 12  1  0  0  0  0
 14 10  2  0  0  0  0
 14 15  1  0  0  0  0
 15 16  1  0  0  0  0
 16 18  1  0  0  0  0
 18 17  1  1  0  0  0
 18 20  1  0  0  0  0
 20 21  1  0  0  0  0
 21 19  2  0  0  0  0
 21 22  1  0  0  0  0
 23 24  1  0  0  0  0
 23 22  1  0  0  0  0
 25 26  2  0  0  0  0
 26 24  1  0  0  0  0
 26 27  1  0  0  0  0
 29 28  1  0  0  0  0
 30 31  1  6  0  0  0
 30 29  1  0  0  0  0
 30 33  1  0  0  0  0
 32 31  1  0  0  0  0
 33 34  1  0  0  0  0
 34 36  1  0  0  0  0
 36 35  1  6  0  0  0
 36 37  1  0  0  0  0
 37 40  1  0  0  0  0
 40 39  2  1  0  0  0
 40 38  1  0  0  0  0
M  END
>  <MODEL>
2

>  <REMARK>
 VINA RESULT:      -6.4      3.992      8.959
  Name = 
  20 active torsions:
  status: ('A' for Active; 'I' for Inactive)
    1  A    between atoms: N_2  and  C_22
    2  A    between atoms: C_4  and  C_27
    3  A    between atoms: C_4  and  C_33
    4  A    between atoms: C_5  and  C_14
    5  A    between atoms: C_5  and  C_28
    6  A    between atoms: C_6  and  N_18
    7  A    between atoms: C_6  and  C_37
    8  A    between atoms: C_6  and  C_40
    9  A    between atoms: C_11  and  N_12
   10  A    between atoms: C_11  and  N_34
   11  A    between atoms: C_14  and  O_20
   12  A    between atoms: C_16  and  C_21
   13  A    between atoms: C_16  and  C_28
   14  A    between atoms: C_16  and  N_30
   15  A    between atoms: N_18  and  N_30
   16  A    between atoms: S_19  and  O_20
   17  A    between atoms: C_22  and  C_26
   18  A    between atoms: C_25  and  C_26
   19  A    between atoms: N_31  and  N_34
   20  A    between atoms: N_31  and  C_37
                            x       y       z     vdW  Elec       q    Type
                         _______ _______ _______ _____ _____    ______ ____

>  <TORSDO>
F 20

$$$$
=
 OpenBabel11042411413D

 40 41  0  0  1  0  0  0  0  0999 V2000
  183.7660  177.8860  139.8000 C   0  0  1  0  0  3  0  0  0  0  0  0
  180.2000  178.3040  139.5740 C   0  0  0  0  0  3  0  0  0  0  0  0
  181.2880  177.6020  139.9410 N   0  0  0  0  0  2  0  0  0  0  0  0
  180.6040  179.4790  138.9790 C   0  0  0  0  0  0  0  0  0  0  0  0
  181.9800  179.5310  138.9780 C   0  0  0  0  0  3  0  0  0  0  0  0
  182.3540  178.3470  139.5870 C   0  0  0  0  0  0  0  0  0  0  0  0
  179.6980  180.5470  138.4670 C   0  0  0  0  0  2  0  0  0  0  0  0
  180.5980  181.9370  136.7410 O   0  0  0  0  0  1  0  0  0  0  0  0
  180.4800  181.8050  138.1260 C   0  0  0  0  0  2  0  0  0  0  0  0
  184.2570  176.8780  137.6030 C   0  0  0  0  0  0  0  0  0  0  0  0
  183.9700  174.5240  137.7420 O   0  0  0  0  0  1  0  0  0  0  0  0
  184.4880  176.2090  136.2520 C   0  0  0  0  0  2  0  0  0  0  0  0
  183.4820  175.6620  137.1030 C   0  0  2  0  0  3  0  0  0  0  0  0
  184.5340  177.8100  138.5150 C   0  0  0  0  0  0  0  0  0  0  0  0
  185.5620  178.7750  138.2820 N   0  0  0  0  0  2  0  0  0  0  0  0
  186.5850  178.5610  137.3420 N   0  0  0  0  0  2  0  0  0  0  0  0
  188.9830  179.0800  137.4740 C   0  0  0  0  0  1  0  0  0  0  0  0
  187.8290  178.2740  138.0530 C   0  0  1  0  0  3  0  0  0  0  0  0
  189.2350  176.9160  140.1420 O   0  0  0  0  0  0  0  0  0  0  0  0
  187.6820  178.5330  139.4800 N   0  0  0  0  0  2  0  0  0  0  0  0
  188.4410  177.8370  140.4710 C   0  0  0  0  0  0  0  0  0  0  0  0
  188.3140  178.2270  141.9020 C   0  0  0  0  0  2  0  0  0  0  0  0
  188.9870  177.1840  142.7730 C   0  0  0  0  0  2  0  0  0  0  0  0
  189.8870  177.8390  143.7070 N   0  0  0  0  0  2  0  0  0  0  0  0
  191.7180  177.7590  142.2580 O   0  0  0  0  0  0  0  0  0  0  0  0
  191.2500  178.1010  143.3770 C   0  0  0  0  0  0  0  0  0  0  0  0
  192.1270  178.7850  144.3630 C   0  0  0  0  0  1  0  0  0  0  0  0
  184.4690  178.7160  140.7740 N   0  0  0  0  0  2  0  0  0  0  0  0
  184.3970  178.0630  142.0130 N   0  0  0  0  0  2  0  0  0  0  0  0
  183.9620  179.0420  142.9990 C   0  0  1  0  0  3  0  0  0  0  0  0
  182.4570  179.2630  142.8980 C   0  0  0  0  0  2  0  0  0  0  0  0
  181.7920  178.6880  144.0530 N   0  0  0  0  0  1  0  0  0  0  0  0
  184.3750  178.5990  144.4020 C   0  0  0  0  0  2  0  0  0  0  0  0
  185.8070  178.0740  144.4380 C   0  0  0  0  0  2  0  0  0  0  0  0
  185.3180  178.4900  146.8950 C   0  0  0  0  0  1  0  0  0  0  0  0
  186.2490  177.8440  145.8770 C   0  0  2  0  0  3  0  0  0  0  0  0
  187.6260  178.1020  146.0890 O   0  0  0  0  0  0  0  0  0  0  0  0
  189.9090  176.9160  147.1350 O   0  0  0  0  0  0  0  0  0  0  0  0
  188.2970  178.2750  148.5630 O   0  0  0  0  0  1  0  0  0  0  0  0
  188.2630  177.2390  147.4470 S   0  0  1  0  0  0  0  0  0  0  0  0
  1 14  1  6  0  0  0
  1 28  1  0  0  0  0
  2  3  1  0  0  0  0
  4  2  2  0  0  0  0
  5  4  1  0  0  0  0
  5  6  2  0  0  0  0
  6  1  1  0  0  0  0
  6  3  1  0  0  0  0
  7  4  1  0  0  0  0
  8  9  1  0  0  0  0
  9  7  1  0  0  0  0
 10 14  2  0  0  0  0
 12 13  1  0  0  0  0
 12 10  1  0  0  0  0
 13 10  1  0  0  0  0
 13 11  1  1  0  0  0
 15 14  1  0  0  0  0
 16 18  1  0  0  0  0
 16 15  1  0  0  0  0
 18 17  1  6  0  0  0
 18 20  1  0  0  0  0
 19 21  2  0  0  0  0
 20 21  1  0  0  0  0
 21 22  1  0  0  0  0
 22 23  1  0  0  0  0
 23 24  1  0  0  0  0
 25 26  2  0  0  0  0
 26 24  1  0  0  0  0
 26 27  1  0  0  0  0
 28 29  1  0  0  0  0
 29 30  1  0  0  0  0
 30 31  1  1  0  0  0
 30 33  1  0  0  0  0
 31 32  1  0  0  0  0
 33 34  1  0  0  0  0
 34 36  1  0  0  0  0
 36 37  1  0  0  0  0
 36 35  1  1  0  0  0
 37 40  1  0  0  0  0
 40 38  2  6  0  0  0
 40 39  1  0  0  0  0
M  END
>  <MODEL>
3

>  <REMARK>
 VINA RESULT:      -6.4      4.303      7.441
  Name = 
  20 active torsions:
  status: ('A' for Active; 'I' for Inactive)
    1  A    between atoms: N_2  and  C_22
    2  A    between atoms: C_4  and  C_27
    3  A    between atoms: C_4  and  C_33
    4  A    between atoms: C_5  and  C_14
    5  A    between atoms: C_5  and  C_28
    6  A    between atoms: C_6  and  N_18
    7  A    between atoms: C_6  and  C_37
    8  A    between atoms: C_6  and  C_40
    9  A    between atoms: C_11  and  N_12
   10  A    between atoms: C_11  and  N_34
   11  A    between atoms: C_14  and  O_20
   12  A    between atoms: C_16  and  C_21
   13  A    between atoms: C_16  and  C_28
   14  A    between atoms: C_16  and  N_30
   15  A    between atoms: N_18  and  N_30
   16  A    between atoms: S_19  and  O_20
   17  A    between atoms: C_22  and  C_26
   18  A    between atoms: C_25  and  C_26
   19  A    between atoms: N_31  and  N_34
   20  A    between atoms: N_31  and  C_37
                            x       y       z     vdW  Elec       q    Type
                         _______ _______ _______ _____ _____    ______ ____

>  <TORSDO>
F 20

$$$$
=
 OpenBabel11042411413D

 40 41  0  0  1  0  0  0  0  0999 V2000
  190.5390  176.7420  138.3790 C   0  0  1  0  0  3  0  0  0  0  0  0
  192.9970  175.7670  135.9390 C   0  0  0  0  0  3  0  0  0  0  0  0
  191.8560  176.3910  136.2850 N   0  0  0  0  0  0  0  0  0  0  0  0
  193.5530  175.1950  137.0630 C   0  0  2  0  0  3  0  0  0  0  0  0
  192.7530  175.4720  138.1500 C   0  0  0  0  0  3  0  0  0  0  0  0
  191.7180  176.2170  137.6140 C   0  0  0  0  0  0  0  0  0  0  0  0
  194.8400  174.4430  137.1060 C   0  0  0  0  0  2  0  0  0  0  0  0
  195.3020  172.7840  138.7660 O   0  0  0  0  0  1  0  0  0  0  0  0
  195.2570  174.1610  138.5400 C   0  0  0  0  0  2  0  0  0  0  0  0
  188.9770  175.1950  137.2610 C   0  0  0  0  0  0  0  0  0  0  0  0
  190.2140  173.6590  135.9350 O   0  0  0  0  0  1  0  0  0  0  0  0
  188.0620  174.1730  136.5940 C   0  0  0  0  0  2  0  0  0  0  0  0
  189.3500  173.7330  137.0250 C   0  0  2  0  0  3  0  0  0  0  0  0
  189.2410  176.4260  137.7000 C   0  0  0  0  0  0  0  0  0  0  0  0
  188.2800  177.4730  137.5510 N   0  0  0  0  0  2  0  0  0  0  0  0
  187.3490  177.4860  136.4980 N   0  0  0  0  0  2  0  0  0  0  0  0
  185.1660  176.4320  136.9040 C   0  0  0  0  0  1  0  0  0  0  0  0
  186.0110  177.6900  137.0500 C   0  0  1  0  0  3  0  0  0  0  0  0
  183.9400  179.0330  138.4980 O   0  0  0  0  0  0  0  0  0  0  0  0
  186.0850  178.1030  138.4470 N   0  0  0  0  0  2  0  0  0  0  0  0
  184.9980  178.7440  139.1190 C   0  0  0  0  0  0  0  0  0  0  0  0
  185.1060  179.0440  140.5720 C   0  0  0  0  0  2  0  0  0  0  0  0
  184.3140  178.0210  141.3620 C   0  0  0  0  0  2  0  0  0  0  0  0
  183.9450  178.5810  142.6500 N   0  0  0  0  0  2  0  0  0  0  0  0
  185.8230  177.7270  143.7470 O   0  0  0  0  0  0  0  0  0  0  0  0
  184.7570  178.3970  143.8090 C   0  0  0  0  0  0  0  0  0  0  0  0
  184.3430  179.0010  145.1010 C   0  0  0  0  0  1  0  0  0  0  0  0
  190.5290  176.2680  139.7590 N   0  0  0  0  0  2  0  0  0  0  0  0
  191.0140  177.3090  140.5650 N   0  0  0  0  0  2  0  0  0  0  0  0
  190.1150  177.4360  141.7030 C   0  0  1  0  0  3  0  0  0  0  0  0
  188.6810  177.6390  141.2260 C   0  0  0  0  0  2  0  0  0  0  0  0
  188.1830  178.9240  141.6810 N   0  0  0  0  0  1  0  0  0  0  0  0
  190.2400  176.2160  142.6140 C   0  0  0  0  0  2  0  0  0  0  0  0
  189.4330  176.3740  143.8980 C   0  0  0  0  0  2  0  0  0  0  0  0
  191.2290  176.9290  145.6060 C   0  0  0  0  0  1  0  0  0  0  0  0
  190.0540  177.4450  144.7850 C   0  0  2  0  0  3  0  0  0  0  0  0
  189.1000  178.1870  145.5230 O   0  0  0  0  0  0  0  0  0  0  0  0
  189.1480  178.2950  148.2980 O   0  0  0  0  0  1  0  0  0  0  0  0
  187.0890  177.5610  146.9930 O   0  0  0  0  0  0  0  0  0  0  0  0
  188.6010  177.3770  146.9690 S   0  0  1  0  0  0  0  0  0  0  0  0
  1 14  1  6  0  0  0
  1 28  1  0  0  0  0
  2  3  2  0  0  0  0
  2  4  1  0  0  0  0
  3  6  1  0  0  0  0
  4  7  1  1  0  0  0
  4  5  1  0  0  0  0
  6  5  2  0  0  0  0
  6  1  1  0  0  0  0
  7  9  1  0  0  0  0
  9  8  1  0  0  0  0
 10 14  2  0  0  0  0
 12 13  1  0  0  0  0
 12 10  1  0  0  0  0
 13 11  1  6  0  0  0
 13 10  1  0  0  0  0
 15 14  1  0  0  0  0
 16 18  1  0  0  0  0
 16 15  1  0  0  0  0
 18 17  1  1  0  0  0
 18 20  1  0  0  0  0
 19 21  2  0  0  0  0
 20 21  1  0  0  0  0
 21 22  1  0  0  0  0
 22 23  1  0  0  0  0
 23 24  1  0  0  0  0
 24 26  1  0  0  0  0
 25 26  2  0  0  0  0
 26 27  1  0  0  0  0
 28 29  1  0  0  0  0
 29 30  1  0  0  0  0
 30 31  1  6  0  0  0
 30 33  1  0  0  0  0
 31 32  1  0  0  0  0
 33 34  1  0  0  0  0
 34 36  1  0  0  0  0
 36 37  1  0  0  0  0
 36 35  1  1  0  0  0
 37 40  1  0  0  0  0
 40 39  2  6  0  0  0
 40 38  1  0  0  0  0
M  END
>  <MODEL>
4

>  <REMARK>
 VINA RESULT:      -6.2      2.251      7.775
  Name = 
  20 active torsions:
  status: ('A' for Active; 'I' for Inactive)
    1  A    between atoms: N_2  and  C_22
    2  A    between atoms: C_4  and  C_27
    3  A    between atoms: C_4  and  C_33
    4  A    between atoms: C_5  and  C_14
    5  A    between atoms: C_5  and  C_28
    6  A    between atoms: C_6  and  N_18
    7  A    between atoms: C_6  and  C_37
    8  A    between atoms: C_6  and  C_40
    9  A    between atoms: C_11  and  N_12
   10  A    between atoms: C_11  and  N_34
   11  A    between atoms: C_14  and  O_20
   12  A    between atoms: C_16  and  C_21
   13  A    between atoms: C_16  and  C_28
   14  A    between atoms: C_16  and  N_30
   15  A    between atoms: N_18  and  N_30
   16  A    between atoms: S_19  and  O_20
   17  A    between atoms: C_22  and  C_26
   18  A    between atoms: C_25  and  C_26
   19  A    between atoms: N_31  and  N_34
   20  A    between atoms: N_31  and  C_37
                            x       y       z     vdW  Elec       q    Type
                         _______ _______ _______ _____ _____    ______ ____

>  <TORSDO>
F 20

$$$$
=
 OpenBabel11042411413D

 40 41  0  0  1  0  0  0  0  0999 V2000
  189.1320  177.8560  139.5290 C   0  0  1  0  0  3  0  0  0  0  0  0
  187.2020  178.6660  136.6030 C   0  0  0  0  0  3  0  0  0  0  0  0
  188.0320  179.0090  137.6050 N   0  0  0  0  0  2  0  0  0  0  0  0
  186.9190  177.3200  136.6970 C   0  0  0  0  0  0  0  0  0  0  0  0
  187.5930  176.7940  137.7760 C   0  0  0  0  0  3  0  0  0  0  0  0
  188.2700  177.8800  138.3020 C   0  0  0  0  0  0  0  0  0  0  0  0
  186.0620  176.5480  135.7510 C   0  0  0  0  0  2  0  0  0  0  0  0
  185.8040  174.3950  134.7410 O   0  0  0  0  0  1  0  0  0  0  0  0
  186.3750  175.0630  135.8270 C   0  0  0  0  0  2  0  0  0  0  0  0
  188.8560  177.5020  141.9550 C   0  0  0  0  0  0  0  0  0  0  0  0
  190.1400  175.6160  142.6200 O   0  0  0  0  0  1  0  0  0  0  0  0
  188.7710  177.2740  143.4610 C   0  0  0  0  0  2  0  0  0  0  0  0
  190.0110  176.9900  142.8130 C   0  0  2  0  0  3  0  0  0  0  0  0
  188.3200  177.8640  140.7890 C   0  0  0  0  0  0  0  0  0  0  0  0
  186.9580  178.2880  140.7140 N   0  0  0  0  0  2  0  0  0  0  0  0
  186.5210  179.4940  141.2910 N   0  0  0  0  0  2  0  0  0  0  0  0
  184.7590  177.8780  141.8630 C   0  0  0  0  0  1  0  0  0  0  0  0
  185.4150  179.2100  142.2030 C   0  0  1  0  0  3  0  0  0  0  0  0
  183.7350  179.5020  144.5010 O   0  0  0  0  0  0  0  0  0  0  0  0
  185.8690  179.2230  143.5890 N   0  0  0  0  0  2  0  0  0  0  0  0
  184.9690  179.3410  144.6930 C   0  0  0  0  0  0  0  0  0  0  0  0
  185.4940  179.2430  146.0820 C   0  0  0  0  0  2  0  0  0  0  0  0
  185.7260  177.7870  146.4350 C   0  0  0  0  0  2  0  0  0  0  0  0
  187.1350  177.4690  146.2830 N   0  0  0  0  0  2  0  0  0  0  0  0
  187.6210  177.7790  148.5480 O   0  0  0  0  0  0  0  0  0  0  0  0
  188.0310  177.4810  147.3940 C   0  0  0  0  0  0  0  0  0  0  0  0
  189.4620  177.1360  147.1890 C   0  0  0  0  0  1  0  0  0  0  0  0
  190.0610  176.7290  139.5210 N   0  0  0  0  0  2  0  0  0  0  0  0
  191.1220  177.0670  138.6670 N   0  0  0  0  0  2  0  0  0  0  0  0
  191.7290  175.8240  138.2120 C   0  0  1  0  0  3  0  0  0  0  0  0
  190.9010  175.2100  137.0880 C   0  0  0  0  0  2  0  0  0  0  0  0
  190.3870  173.9170  137.5000 N   0  0  0  0  0  1  0  0  0  0  0  0
  193.1750  176.0690  137.7800 C   0  0  0  0  0  2  0  0  0  0  0  0
  193.9400  174.7660  137.5730 C   0  0  0  0  0  2  0  0  0  0  0  0
  195.1900  173.5260  135.7440 C   0  0  0  0  0  1  0  0  0  0  0  0
  194.8560  174.8780  136.3620 C   0  0  2  0  0  3  0  0  0  0  0  0
  195.9740  175.7190  136.5790 O   0  0  0  0  0  0  0  0  0  0  0  0
  198.5830  175.3860  135.6880 O   0  0  0  0  0  0  0  0  0  0  0  0
  197.9650  175.3450  138.1580 O   0  0  0  0  0  1  0  0  0  0  0  0
  197.4390  174.8310  136.8250 S   0  0  1  0  0  0  0  0  0  0  0  0
  1 28  1  6  0  0  0
  1 14  1  0  0  0  0
  2  4  2  0  0  0  0
  2  3  1  0  0  0  0
  3  6  1  0  0  0  0
  4  5  1  0  0  0  0
  5  6  2  0  0  0  0
  6  1  1  0  0  0  0
  7  9  1  0  0  0  0
  7  4  1  0  0  0  0
  8  9  1  0  0  0  0
 10 13  1  0  0  0  0
 10 12  1  0  0  0  0
 13 11  1  6  0  0  0
 13 12  1  0  0  0  0
 14 10  2  0  0  0  0
 15 14  1  0  0  0  0
 15 16  1  0  0  0  0
 16 18  1  0  0  0  0
 18 17  1  6  0  0  0
 18 20  1  0  0  0  0
 19 21  2  0  0  0  0
 20 21  1  0  0  0  0
 21 22  1  0  0  0  0
 22 23  1  0  0  0  0
 24 23  1  0  0  0  0
 24 26  1  0  0  0  0
 26 25  2  0  0  0  0
 27 26  1  0  0  0  0
 29 28  1  0  0  0  0
 30 31  1  6  0  0  0
 30 29  1  0  0  0  0
 31 32  1  0  0  0  0
 33 30  1  0  0  0  0
 34 33  1  0  0  0  0
 36 35  1  1  0  0  0
 36 37  1  0  0  0  0
 36 34  1  0  0  0  0
 37 40  1  0  0  0  0
 40 38  2  6  0  0  0
 40 39  1  0  0  0  0
M  END
>  <MODEL>
5

>  <REMARK>
 VINA RESULT:      -6.1      3.474     10.456
  Name = 
  20 active torsions:
  status: ('A' for Active; 'I' for Inactive)
    1  A    between atoms: N_2  and  C_22
    2  A    between atoms: C_4  and  C_27
    3  A    between atoms: C_4  and  C_33
    4  A    between atoms: C_5  and  C_14
    5  A    between atoms: C_5  and  C_28
    6  A    between atoms: C_6  and  N_18
    7  A    between atoms: C_6  and  C_37
    8  A    between atoms: C_6  and  C_40
    9  A    between atoms: C_11  and  N_12
   10  A    between atoms: C_11  and  N_34
   11  A    between atoms: C_14  and  O_20
   12  A    between atoms: C_16  and  C_21
   13  A    between atoms: C_16  and  C_28
   14  A    between atoms: C_16  and  N_30
   15  A    between atoms: N_18  and  N_30
   16  A    between atoms: S_19  and  O_20
   17  A    between atoms: C_22  and  C_26
   18  A    between atoms: C_25  and  C_26
   19  A    between atoms: N_31  and  N_34
   20  A    between atoms: N_31  and  C_37
                            x       y       z     vdW  Elec       q    Type
                         _______ _______ _______ _____ _____    ______ ____

>  <TORSDO>
F 20

$$$$
=
 OpenBabel11042411413D

 40 41  0  0  1  0  0  0  0  0999 V2000
  182.0180  178.7430  140.5480 C   0  0  1  0  0  3  0  0  0  0  0  0
  179.9960  181.4830  139.3850 C   0  0  0  0  0  3  0  0  0  0  0  0
  180.2870  180.5260  140.2860 N   0  0  0  0  0  2  0  0  0  0  0  0
  180.9240  181.4370  138.3670 C   0  0  0  0  0  0  0  0  0  0  0  0
  181.8310  180.4350  138.6310 C   0  0  0  0  0  3  0  0  0  0  0  0
  181.3940  179.9050  139.8320 C   0  0  0  0  0  0  0  0  0  0  0  0
  180.9690  182.3570  137.1940 C   0  0  0  0  0  2  0  0  0  0  0  0
  182.0670  184.4810  137.2690 O   0  0  0  0  0  1  0  0  0  0  0  0
  180.9010  183.8080  137.6410 C   0  0  0  0  0  2  0  0  0  0  0  0
  180.6790  176.8120  139.7990 C   0  0  0  0  0  0  0  0  0  0  0  0
  179.2040  176.1600  141.5430 O   0  0  0  0  0  1  0  0  0  0  0  0
  179.7820  175.6570  139.3660 C   0  0  0  0  0  2  0  0  0  0  0  0
  179.2270  176.6430  140.2370 C   0  0  2  0  0  3  0  0  0  0  0  0
  181.8450  177.4590  139.7970 C   0  0  0  0  0  0  0  0  0  0  0  0
  182.9580  176.9500  139.0580 N   0  0  0  0  0  2  0  0  0  0  0  0
  183.0960  177.1670  137.6760 N   0  0  0  0  0  2  0  0  0  0  0  0
  183.5890  175.3240  136.1260 C   0  0  0  0  0  1  0  0  0  0  0  0
  184.1470  176.2910  137.1610 C   0  0  1  0  0  3  0  0  0  0  0  0
  186.9100  175.5470  137.2060 O   0  0  0  0  0  0  0  0  0  0  0  0
  185.2440  177.0720  136.6010 N   0  0  0  0  0  2  0  0  0  0  0  0
  186.6010  176.6240  136.6300 C   0  0  0  0  0  0  0  0  0  0  0  0
  187.6540  177.4240  135.9480 C   0  0  0  0  0  2  0  0  0  0  0  0
  188.0080  178.6270  136.7990 C   0  0  0  0  0  2  0  0  0  0  0  0
  188.9140  178.2210  137.8610 N   0  0  0  0  0  2  0  0  0  0  0  0
  187.3380  178.5400  139.5560 O   0  0  0  0  0  0  0  0  0  0  0  0
  188.5050  178.1970  139.2270 C   0  0  0  0  0  0  0  0  0  0  0  0
  189.4650  177.7620  140.2750 C   0  0  0  0  0  1  0  0  0  0  0  0
  183.4270  178.9810  140.8470 N   0  0  0  0  0  2  0  0  0  0  0  0
  183.7150  178.3310  142.0570 N   0  0  0  0  0  2  0  0  0  0  0  0
  184.8880  178.9760  142.6310 C   0  0  1  0  0  3  0  0  0  0  0  0
  184.5380  179.6170  143.9690 C   0  0  0  0  0  2  0  0  0  0  0  0
  183.1990  179.2300  144.3710 N   0  0  0  0  0  1  0  0  0  0  0  0
  186.0300  177.9700  142.7670 C   0  0  0  0  0  2  0  0  0  0  0  0
  186.5460  177.8790  144.1990 C   0  0  0  0  0  2  0  0  0  0  0  0
  188.4880  176.3640  143.5810 C   0  0  0  0  0  1  0  0  0  0  0  0
  188.0560  177.6850  144.2060 C   0  0  2  0  0  3  0  0  0  0  0  0
  188.6530  177.9670  145.4590 O   0  0  0  0  0  0  0  0  0  0  0  0
  191.3940  177.8020  145.0410 O   0  0  0  0  0  0  0  0  0  0  0  0
  190.3060  177.1590  147.2520 O   0  0  0  0  0  1  0  0  0  0  0  0
  190.0640  177.0090  145.7560 S   0  0  1  0  0  0  0  0  0  0  0  0
  1 14  1  6  0  0  0
  1 28  1  0  0  0  0
  2  3  1  0  0  0  0
  4  5  1  0  0  0  0
  4  2  2  0  0  0  0
  5  6  2  0  0  0  0
  6  3  1  0  0  0  0
  6  1  1  0  0  0  0
  7  9  1  0  0  0  0
  7  4  1  0  0  0  0
  8  9  1  0  0  0  0
 10 13  1  0  0  0  0
 12 10  1  0  0  0  0
 12 13  1  0  0  0  0
 13 11  1  1  0  0  0
 14 10  2  0  0  0  0
 15 14  1  0  0  0  0
 16 15  1  0  0  0  0
 18 17  1  6  0  0  0
 18 16  1  0  0  0  0
 20 21  1  0  0  0  0
 20 18  1  0  0  0  0
 21 19  2  0  0  0  0
 22 21  1  0  0  0  0
 22 23  1  0  0  0  0
 23 24  1  0  0  0  0
 24 26  1  0  0  0  0
 26 25  2  0  0  0  0
 26 27  1  0  0  0  0
 28 29  1  0  0  0  0
 29 30  1  0  0  0  0
 30 33  1  1  0  0  0
 30 31  1  0  0  0  0
 31 32  1  0  0  0  0
 33 34  1  0  0  0  0
 34 36  1  0  0  0  0
 36 35  1  1  0  0  0
 36 37  1  0  0  0  0
 37 40  1  0  0  0  0
 40 38  2  6  0  0  0
 40 39  1  0  0  0  0
M  END
>  <MODEL>
6

>  <REMARK>
 VINA RESULT:      -6.1      4.499      8.725
  Name = 
  20 active torsions:
  status: ('A' for Active; 'I' for Inactive)
    1  A    between atoms: N_2  and  C_22
    2  A    between atoms: C_4  and  C_27
    3  A    between atoms: C_4  and  C_33
    4  A    between atoms: C_5  and  C_14
    5  A    between atoms: C_5  and  C_28
    6  A    between atoms: C_6  and  N_18
    7  A    between atoms: C_6  and  C_37
    8  A    between atoms: C_6  and  C_40
    9  A    between atoms: C_11  and  N_12
   10  A    between atoms: C_11  and  N_34
   11  A    between atoms: C_14  and  O_20
   12  A    between atoms: C_16  and  C_21
   13  A    between atoms: C_16  and  C_28
   14  A    between atoms: C_16  and  N_30
   15  A    between atoms: N_18  and  N_30
   16  A    between atoms: S_19  and  O_20
   17  A    between atoms: C_22  and  C_26
   18  A    between atoms: C_25  and  C_26
   19  A    between atoms: N_31  and  N_34
   20  A    between atoms: N_31  and  C_37
                            x       y       z     vdW  Elec       q    Type
                         _______ _______ _______ _____ _____    ______ ____

>  <TORSDO>
F 20

$$$$
=
 OpenBabel11042411413D

 40 41  0  0  1  0  0  0  0  0999 V2000
  184.4170  179.1220  139.0760 C   0  0  1  0  0  3  0  0  0  0  0  0
  185.8440  179.1040  142.3780 C   0  0  0  0  0  3  0  0  0  0  0  0
  185.9270  179.3340  141.0550 N   0  0  0  0  0  0  0  0  0  0  0  0
  184.5800  178.6420  142.6750 C   0  0  2  0  0  3  0  0  0  0  0  0
  183.8390  178.5870  141.5160 C   0  0  0  0  0  3  0  0  0  0  0  0
  184.7180  179.0290  140.5430 C   0  0  0  0  0  0  0  0  0  0  0  0
  184.0790  178.3060  144.0390 C   0  0  0  0  0  2  0  0  0  0  0  0
  184.5380  178.9890  146.2850 O   0  0  0  0  0  1  0  0  0  0  0  0
  185.1390  178.5870  145.0910 C   0  0  0  0  0  2  0  0  0  0  0  0
  183.9530  176.8700  138.1820 C   0  0  0  0  0  0  0  0  0  0  0  0
  182.5470  175.7020  139.7010 O   0  0  0  0  0  1  0  0  0  0  0  0
  183.5830  175.4900  137.6490 C   0  0  0  0  0  2  0  0  0  0  0  0
  182.5990  176.2000  138.4000 C   0  0  2  0  0  3  0  0  0  0  0  0
  184.8120  177.8770  138.3390 C   0  0  0  0  0  0  0  0  0  0  0  0
  186.1290  177.8040  137.7910 N   0  0  0  0  0  2  0  0  0  0  0  0
  187.1710  178.6320  138.2420 N   0  0  0  0  0  2  0  0  0  0  0  0
  189.3620  177.8180  137.4800 C   0  0  0  0  0  1  0  0  0  0  0  0
  188.3210  177.8000  138.5910 C   0  0  1  0  0  3  0  0  0  0  0  0
  189.8120  176.1410  140.3840 O   0  0  0  0  0  0  0  0  0  0  0  0
  188.9070  178.2310  139.8550 N   0  0  0  0  0  2  0  0  0  0  0  0
  189.6690  177.3550  140.6890 C   0  0  0  0  0  0  0  0  0  0  0  0
  190.3230  177.8900  141.9130 C   0  0  0  0  0  2  0  0  0  0  0  0
  191.5860  177.1010  142.1990 C   0  0  0  0  0  2  0  0  0  0  0  0
  191.4740  176.4600  143.4980 N   0  0  0  0  0  2  0  0  0  0  0  0
  191.6570  178.4620  144.6890 O   0  0  0  0  0  0  0  0  0  0  0  0
  191.5130  177.2090  144.7110 C   0  0  0  0  0  0  0  0  0  0  0  0
  191.3830  176.5080  146.0140 C   0  0  0  0  0  1  0  0  0  0  0  0
  183.0150  179.4460  138.8270 N   0  0  0  0  0  2  0  0  0  0  0  0
  182.9050  180.8450  138.8070 N   0  0  0  0  0  2  0  0  0  0  0  0
  181.4980  181.1760  138.9850 C   0  0  1  0  0  3  0  0  0  0  0  0
  180.9470  181.8390  137.7280 C   0  0  0  0  0  2  0  0  0  0  0  0
  180.1970  183.0290  138.0830 N   0  0  0  0  0  1  0  0  0  0  0  0
  180.7050  179.9240  139.3590 C   0  0  0  0  0  2  0  0  0  0  0  0
  179.7020  180.1950  140.4750 C   0  0  0  0  0  2  0  0  0  0  0  0
  180.5520  179.6210  142.7980 C   0  0  0  0  0  1  0  0  0  0  0  0
  179.8150  179.1300  141.5580 C   0  0  2  0  0  3  0  0  0  0  0  0
  180.2550  177.8760  141.0690 O   0  0  0  0  0  0  0  0  0  0  0  0
  179.0790  176.5410  138.9370 O   0  0  0  0  0  0  0  0  0  0  0  0
  179.2810  175.5060  141.2540 O   0  0  0  0  0  1  0  0  0  0  0  0
  178.9440  176.8440  140.6100 S   0  0  1  0  0  0  0  0  0  0  0  0
  1 14  1  6  0  0  0
  1  6  1  0  0  0  0
  2  4  1  0  0  0  0
  3  2  2  0  0  0  0
  4  7  1  1  0  0  0
  5  4  1  0  0  0  0
  6  3  1  0  0  0  0
  6  5  2  0  0  0  0
  7  9  1  0  0  0  0
  9  8  1  0  0  0  0
 10 14  2  0  0  0  0
 10 13  1  0  0  0  0
 12 10  1  0  0  0  0
 12 13  1  0  0  0  0
 13 11  1  1  0  0  0
 15 16  1  0  0  0  0
 15 14  1  0  0  0  0
 16 18  1  0  0  0  0
 18 17  1  6  0  0  0
 18 20  1  0  0  0  0
 19 21  2  0  0  0  0
 20 21  1  0  0  0  0
 21 22  1  0  0  0  0
 22 23  1  0  0  0  0
 23 24  1  0  0  0  0
 24 26  1  0  0  0  0
 25 26  2  0  0  0  0
 26 27  1  0  0  0  0
 28  1  1  0  0  0  0
 29 28  1  0  0  0  0
 29 30  1  0  0  0  0
 30 31  1  6  0  0  0
 30 33  1  0  0  0  0
 31 32  1  0  0  0  0
 33 34  1  0  0  0  0
 34 36  1  0  0  0  0
 36 35  1  1  0  0  0
 37 36  1  0  0  0  0
 40 38  2  6  0  0  0
 40 37  1  0  0  0  0
 40 39  1  0  0  0  0
M  END
>  <MODEL>
7

>  <REMARK>
 VINA RESULT:      -6.1      4.003      6.676
  Name = 
  20 active torsions:
  status: ('A' for Active; 'I' for Inactive)
    1  A    between atoms: N_2  and  C_22
    2  A    between atoms: C_4  and  C_27
    3  A    between atoms: C_4  and  C_33
    4  A    between atoms: C_5  and  C_14
    5  A    between atoms: C_5  and  C_28
    6  A    between atoms: C_6  and  N_18
    7  A    between atoms: C_6  and  C_37
    8  A    between atoms: C_6  and  C_40
    9  A    between atoms: C_11  and  N_12
   10  A    between atoms: C_11  and  N_34
   11  A    between atoms: C_14  and  O_20
   12  A    between atoms: C_16  and  C_21
   13  A    between atoms: C_16  and  C_28
   14  A    between atoms: C_16  and  N_30
   15  A    between atoms: N_18  and  N_30
   16  A    between atoms: S_19  and  O_20
   17  A    between atoms: C_22  and  C_26
   18  A    between atoms: C_25  and  C_26
   19  A    between atoms: N_31  and  N_34
   20  A    between atoms: N_31  and  C_37
                            x       y       z     vdW  Elec       q    Type
                         _______ _______ _______ _____ _____    ______ ____

>  <TORSDO>
F 20

$$$$
=
 OpenBabel11042411413D

 40 41  0  0  1  0  0  0  0  0999 V2000
  188.9160  177.7280  139.5530 C   0  0  1  0  0  3  0  0  0  0  0  0
  190.5540  174.9680  137.9260 C   0  0  0  0  0  3  0  0  0  0  0  0
  189.4660  175.5440  138.4710 N   0  0  0  0  0  2  0  0  0  0  0  0
  191.6110  175.8490  137.9970 C   0  0  0  0  0  0  0  0  0  0  0  0
  191.1830  177.0160  138.5900 C   0  0  0  0  0  3  0  0  0  0  0  0
  189.8480  176.7760  138.8610 C   0  0  0  0  0  0  0  0  0  0  0  0
  192.9830  175.6000  137.4690 C   0  0  0  0  0  2  0  0  0  0  0  0
  193.1160  174.8030  135.2170 O   0  0  0  0  0  1  0  0  0  0  0  0
  193.0710  175.9610  135.9950 C   0  0  0  0  0  2  0  0  0  0  0  0
  187.7230  177.8430  137.3970 C   0  0  0  0  0  0  0  0  0  0  0  0
  189.2640  178.4180  135.6820 O   0  0  0  0  0  1  0  0  0  0  0  0
  187.0490  177.8680  136.0300 C   0  0  0  0  0  2  0  0  0  0  0  0
  188.3980  177.4080  136.0990 C   0  0  2  0  0  3  0  0  0  0  0  0
  187.7180  178.0530  138.7140 C   0  0  0  0  0  0  0  0  0  0  0  0
  186.5580  178.5780  139.3630 N   0  0  0  0  0  2  0  0  0  0  0  0
  185.4680  179.0930  138.6400 N   0  0  0  0  0  2  0  0  0  0  0  0
  183.9410  177.1670  138.6170 C   0  0  0  0  0  1  0  0  0  0  0  0
  184.2310  178.5460  139.1930 C   0  0  1  0  0  3  0  0  0  0  0  0
  182.0080  178.8870  140.9640 O   0  0  0  0  0  0  0  0  0  0  0  0
  184.2920  178.4960  140.6490 N   0  0  0  0  0  2  0  0  0  0  0  0
  183.1340  178.6430  141.4740 C   0  0  0  0  0  0  0  0  0  0  0  0
  183.2560  178.4780  142.9480 C   0  0  0  0  0  2  0  0  0  0  0  0
  184.2300  179.5020  143.4950 C   0  0  0  0  0  2  0  0  0  0  0  0
  184.2830  179.3970  144.9430 N   0  0  0  0  0  2  0  0  0  0  0  0
  186.1500  177.9910  144.9380 O   0  0  0  0  0  0  0  0  0  0  0  0
  185.2830  178.6210  145.6020 C   0  0  0  0  0  0  0  0  0  0  0  0
  185.3030  178.5540  147.0860 C   0  0  0  0  0  1  0  0  0  0  0  0
  188.5090  177.2340  140.8650 N   0  0  0  0  0  2  0  0  0  0  0  0
  189.4340  177.7190  141.8020 N   0  0  0  0  0  2  0  0  0  0  0  0
  189.7990  176.6090  142.6710 C   0  0  1  0  0  3  0  0  0  0  0  0
  191.3070  176.5850  142.8940 C   0  0  0  0  0  2  0  0  0  0  0  0
  191.9520  177.5600  142.0350 N   0  0  0  0  0  1  0  0  0  0  0  0
  189.0340  176.6980  143.9910 C   0  0  0  0  0  2  0  0  0  0  0  0
  189.5920  177.7840  144.9050 C   0  0  0  0  0  2  0  0  0  0  0  0
  188.8820  177.7880  147.3430 C   0  0  0  0  0  1  0  0  0  0  0  0
  189.8390  177.2250  146.3000 C   0  0  2  0  0  3  0  0  0  0  0  0
  191.2040  177.2450  146.6790 O   0  0  0  0  0  0  0  0  0  0  0  0
  192.5430  174.8760  146.1260 O   0  0  0  0  0  0  0  0  0  0  0  0
  192.8360  176.1320  148.3210 O   0  0  0  0  0  1  0  0  0  0  0  0
  191.7290  175.7390  147.3510 S   0  0  1  0  0  0  0  0  0  0  0  0
  1 14  1  6  0  0  0
  1 28  1  0  0  0  0
  2  4  2  0  0  0  0
  2  3  1  0  0  0  0
  3  6  1  0  0  0  0
  4  5  1  0  0  0  0
  5  6  2  0  0  0  0
  6  1  1  0  0  0  0
  7  4  1  0  0  0  0
  8  9  1  0  0  0  0
  9  7  1  0  0  0  0
 10 14  2  0  0  0  0
 12 13  1  0  0  0  0
 12 10  1  0  0  0  0
 13 11  1  6  0  0  0
 13 10  1  0  0  0  0
 14 15  1  0  0  0  0
 16 18  1  0  0  0  0
 16 15  1  0  0  0  0
 18 17  1  6  0  0  0
 18 20  1  0  0  0  0
 19 21  2  0  0  0  0
 20 21  1  0  0  0  0
 21 22  1  0  0  0  0
 22 23  1  0  0  0  0
 23 24  1  0  0  0  0
 24 26  1  0  0  0  0
 25 26  2  0  0  0  0
 26 27  1  0  0  0  0
 28 29  1  0  0  0  0
 29 30  1  0  0  0  0
 30 31  1  1  0  0  0
 30 33  1  0  0  0  0
 32 31  1  0  0  0  0
 33 34  1  0  0  0  0
 34 36  1  0  0  0  0
 36 37  1  0  0  0  0
 36 35  1  1  0  0  0
 37 40  1  0  0  0  0
 40 38  2  6  0  0  0
 40 39  1  0  0  0  0
M  END
>  <MODEL>
8

>  <REMARK>
 VINA RESULT:      -6.1      2.911      8.456
  Name = 
  20 active torsions:
  status: ('A' for Active; 'I' for Inactive)
    1  A    between atoms: N_2  and  C_22
    2  A    between atoms: C_4  and  C_27
    3  A    between atoms: C_4  and  C_33
    4  A    between atoms: C_5  and  C_14
    5  A    between atoms: C_5  and  C_28
    6  A    between atoms: C_6  and  N_18
    7  A    between atoms: C_6  and  C_37
    8  A    between atoms: C_6  and  C_40
    9  A    between atoms: C_11  and  N_12
   10  A    between atoms: C_11  and  N_34
   11  A    between atoms: C_14  and  O_20
   12  A    between atoms: C_16  and  C_21
   13  A    between atoms: C_16  and  C_28
   14  A    between atoms: C_16  and  N_30
   15  A    between atoms: N_18  and  N_30
   16  A    between atoms: S_19  and  O_20
   17  A    between atoms: C_22  and  C_26
   18  A    between atoms: C_25  and  C_26
   19  A    between atoms: N_31  and  N_34
   20  A    between atoms: N_31  and  C_37
                            x       y       z     vdW  Elec       q    Type
                         _______ _______ _______ _____ _____    ______ ____

>  <TORSDO>
F 20

$$$$
=
 OpenBabel11042411413D

 40 41  0  0  1  0  0  0  0  0999 V2000
  184.5860  178.4850  138.6590 C   0  0  1  0  0  3  0  0  0  0  0  0
  183.2920  176.4070  136.0220 C   0  0  0  0  0  3  0  0  0  0  0  0
  183.6460  177.6070  136.5170 N   0  0  0  0  0  0  0  0  0  0  0  0
  183.5370  175.4400  136.9740 C   0  0  2  0  0  3  0  0  0  0  0  0
  184.0690  176.0390  138.0950 C   0  0  0  0  0  3  0  0  0  0  0  0
  184.1180  177.3800  137.7590 C   0  0  0  0  0  0  0  0  0  0  0  0
  183.3120  173.9760  136.7990 C   0  0  0  0  0  2  0  0  0  0  0  0
  184.6030  171.9630  136.8200 O   0  0  0  0  0  1  0  0  0  0  0  0
  184.4060  173.1740  137.4850 C   0  0  0  0  0  2  0  0  0  0  0  0
  182.3510  179.3480  139.2480 C   0  0  0  0  0  0  0  0  0  0  0  0
  181.7210  181.0190  137.6810 O   0  0  0  0  0  1  0  0  0  0  0  0
  180.9470  179.8730  139.5290 C   0  0  0  0  0  2  0  0  0  0  0  0
  181.3580  179.7650  138.1660 C   0  0  2  0  0  3  0  0  0  0  0  0
  183.5360  178.8870  139.6500 C   0  0  0  0  0  0  0  0  0  0  0  0
  183.8280  178.7460  141.0420 N   0  0  0  0  0  2  0  0  0  0  0  0
  182.9240  178.1450  141.9360 N   0  0  0  0  0  2  0  0  0  0  0  0
  181.3420  179.3220  143.4020 C   0  0  0  0  0  1  0  0  0  0  0  0
  182.8000  178.9880  143.1240 C   0  0  1  0  0  3  0  0  0  0  0  0
  184.9390  180.0690  144.6880 O   0  0  0  0  0  0  0  0  0  0  0  0
  183.4130  178.3440  144.2800 N   0  0  0  0  0  2  0  0  0  0  0  0
  184.4600  178.9580  145.0370 C   0  0  0  0  0  0  0  0  0  0  0  0
  184.9660  178.2890  146.2660 C   0  0  0  0  0  2  0  0  0  0  0  0
  186.0630  179.1310  146.8860 C   0  0  0  0  0  2  0  0  0  0  0  0
  187.0620  178.2630  147.4860 N   0  0  0  0  0  2  0  0  0  0  0  0
  188.1830  177.8830  145.4710 O   0  0  0  0  0  0  0  0  0  0  0  0
  188.1040  177.6730  146.7120 C   0  0  0  0  0  0  0  0  0  0  0  0
  189.1090  176.8010  147.3740 C   0  0  0  0  0  1  0  0  0  0  0  0
  185.8330  178.1450  139.3380 N   0  0  0  0  0  2  0  0  0  0  0  0
  186.8870  178.6280  138.5480 N   0  0  0  0  0  2  0  0  0  0  0  0
  188.0200  177.7340  138.7360 C   0  0  1  0  0  3  0  0  0  0  0  0
  189.1420  178.0890  137.7670 C   0  0  0  0  0  2  0  0  0  0  0  0
  188.9400  179.4270  137.2420 N   0  0  0  0  0  1  0  0  0  0  0  0
  188.4930  177.7800  140.1890 C   0  0  0  0  0  2  0  0  0  0  0  0
  189.9880  177.5090  140.3140 C   0  0  0  0  0  2  0  0  0  0  0  0
  189.0530  176.5640  142.4770 C   0  0  0  0  0  1  0  0  0  0  0  0
  190.2800  176.7300  141.5890 C   0  0  2  0  0  3  0  0  0  0  0  0
  191.4420  177.1740  142.2660 O   0  0  0  0  0  0  0  0  0  0  0  0
  191.6910  176.6820  144.9880 O   0  0  0  0  0  1  0  0  0  0  0  0
  192.0270  178.9960  143.9800 O   0  0  0  0  0  0  0  0  0  0  0  0
  191.0970  177.7980  143.8430 S   0  0  1  0  0  0  0  0  0  0  0  0
  1 28  1  1  0  0  0
  1 14  1  0  0  0  0
  2  3  2  0  0  0  0
  2  4  1  0  0  0  0
  3  6  1  0  0  0  0
  4  7  1  6  0  0  0
  4  5  1  0  0  0  0
  6  5  2  0  0  0  0
  6  1  1  0  0  0  0
  7  9  1  0  0  0  0
  8  9  1  0  0  0  0
 10 12  1  0  0  0  0
 10 14  2  0  0  0  0
 13 11  1  1  0  0  0
 13 10  1  0  0  0  0
 13 12  1  0  0  0  0
 14 15  1  0  0  0  0
 15 16  1  0  0  0  0
 16 18  1  0  0  0  0
 18 17  1  1  0  0  0
 18 20  1  0  0  0  0
 19 21  2  0  0  0  0
 20 21  1  0  0  0  0
 21 22  1  0  0  0  0
 22 23  1  0  0  0  0
 23 24  1  0  0  0  0
 25 26  2  0  0  0  0
 26 27  1  0  0  0  0
 26 24  1  0  0  0  0
 29 30  1  0  0  0  0
 29 28  1  0  0  0  0
 30 31  1  6  0  0  0
 30 33  1  0  0  0  0
 32 31  1  0  0  0  0
 33 34  1  0  0  0  0
 34 36  1  0  0  0  0
 36 37  1  0  0  0  0
 36 35  1  1  0  0  0
 37 40  1  0  0  0  0
 40 39  2  1  0  0  0
 40 38  1  0  0  0  0
M  END
>  <MODEL>
9

>  <REMARK>
 VINA RESULT:      -6.0      4.410      9.437
  Name = 
  20 active torsions:
  status: ('A' for Active; 'I' for Inactive)
    1  A    between atoms: N_2  and  C_22
    2  A    between atoms: C_4  and  C_27
    3  A    between atoms: C_4  and  C_33
    4  A    between atoms: C_5  and  C_14
    5  A    between atoms: C_5  and  C_28
    6  A    between atoms: C_6  and  N_18
    7  A    between atoms: C_6  and  C_37
    8  A    between atoms: C_6  and  C_40
    9  A    between atoms: C_11  and  N_12
   10  A    between atoms: C_11  and  N_34
   11  A    between atoms: C_14  and  O_20
   12  A    between atoms: C_16  and  C_21
   13  A    between atoms: C_16  and  C_28
   14  A    between atoms: C_16  and  N_30
   15  A    between atoms: N_18  and  N_30
   16  A    between atoms: S_19  and  O_20
   17  A    between atoms: C_22  and  C_26
   18  A    between atoms: C_25  and  C_26
   19  A    between atoms: N_31  and  N_34
   20  A    between atoms: N_31  and  C_37
                            x       y       z     vdW  Elec       q    Type
                         _______ _______ _______ _____ _____    ______ ____

>  <TORSDO>
F 20

$$$$
