=
 OpenBabel11042410543D

 26 30  0  0  1  0  0  0  0  0999 V2000
  185.0190  178.4850  144.8490 C   0  0  0  0  0  3  0  0  0  0  0  0
  185.9090  178.7640  138.9990 C   0  0  0  0  0  2  0  0  0  0  0  0
  184.7860  177.7870  141.0950 C   0  0  1  0  0  3  0  0  0  0  0  0
  183.4750  177.9790  140.3120 C   0  0  2  0  0  3  0  0  0  0  0  0
  185.9620  178.6040  140.5320 C   0  0  1  0  0  3  0  0  0  0  0  0
  184.5090  178.2080  142.5010 C   0  0  0  0  0  0  0  0  0  0  0  0
  187.5330  177.0760  144.5900 C   0  0  0  0  0  2  0  0  0  0  0  0
  185.3980  178.0220  143.5750 C   0  0  0  0  0  0  0  0  0  0  0  0
  187.6170  178.2470  142.4500 C   0  0  1  0  0  3  0  0  0  0  0  0
  188.9680  177.4780  144.3000 C   0  0  0  0  0  2  0  0  0  0  0  0
  182.9170  179.3020  143.9530 C   0  0  0  0  0  3  0  0  0  0  0  0
  182.3260  179.0760  141.2310 S   0  0  0  0  0  0  0  0  0  0  0  0
  188.0970  178.1870  138.5830 C   0  0  1  0  0  3  0  0  0  0  0  0
  183.7820  179.1140  145.0380 C   0  0  0  0  0  3  0  0  0  0  0  0
  188.4850  179.2910  137.7190 N   0  0  0  0  0  1  0  0  0  0  0  0
  186.7350  177.3750  143.3280 C   0  0  1  0  0  3  0  0  0  0  0  0
  189.0270  177.8400  142.8310 C   0  0  0  0  0  2  0  0  0  0  0  0
  188.4250  178.5120  140.0500 C   0  0  0  0  0  2  0  0  0  0  0  0
  187.3140  177.9920  140.9650 C   0  0  2  0  0  3  0  0  0  0  0  0
  186.7430  177.8250  138.3610 O   0  0  0  0  0  0  0  0  0  0  0  0
  183.3030  178.8490  142.6910 C   0  0  0  0  0  0  0  0  0  0  0  0
  181.6840  176.6070  139.6050 N   0  0  0  0  0  0  0  0  0  0  0  0
  182.8540  176.6840  140.0950 N   0  0  0  0  0  0  0  0  0  0  0  0
  180.3120  174.8350  140.2660 O   0  0  0  0  0  0  0  0  0  0  0  0
  181.0580  175.3420  139.3870 C   0  0  0  0  0  0  0  0  0  0  0  0
  181.2800  174.6480  138.1660 N   0  0  0  0  0  1  0  0  0  0  0  0
  1 14  1  0  0  0  0
  3  6  1  1  0  0  0
  4 23  1  1  0  0  0
  4  3  1  0  0  0  0
  4 12  1  0  0  0  0
  5  2  1  6  0  0  0
  5 19  1  0  0  0  0
  5  3  1  0  0  0  0
  6 21  2  0  0  0  0
  6  8  1  0  0  0  0
  8  1  2  0  0  0  0
  9 17  1  6  0  0  0
  9 16  1  0  0  0  0
 10  7  1  0  0  0  0
 11 14  2  0  0  0  0
 12 21  1  0  0  0  0
 13 15  1  6  0  0  0
 13 18  1  0  0  0  0
 16  8  1  0  0  0  0
 16  7  1  1  0  0  0
 17 10  1  0  0  0  0
 19 18  1  6  0  0  0
 19  9  1  0  0  0  0
 20 13  1  0  0  0  0
 20  2  1  0  0  0  0
 21 11  1  0  0  0  0
 22 23  2  0  0  0  0
 25 22  1  0  0  0  0
 25 24  2  0  0  0  0
 26 25  1  0  0  0  0
M  END
>  <MODEL>
1

>  <REMARK>
 VINA RESULT:      -7.6      0.000      0.000
  Name = 
  2 active torsions:
  status: ('A' for Active; 'I' for Inactive)
    1  A    between atoms: C_5  and  N_12
    2  A    between atoms: N_11  and  C_13
                            x       y       z     vdW  Elec       q    Type
                         _______ _______ _______ _____ _____    ______ ____

>  <TORSDO>
F 2

$$$$
=
 OpenBabel11042410543D

 26 30  0  0  1  0  0  0  0  0999 V2000
  185.0970  177.8820  138.7420 C   0  0  0  0  0  3  0  0  0  0  0  0
  179.9080  179.0390  141.3550 C   0  0  0  0  0  2  0  0  0  0  0  0
  181.8150  179.5860  139.7180 C   0  0  1  0  0  3  0  0  0  0  0  0
  180.6850  179.8200  138.7000 C   0  0  2  0  0  3  0  0  0  0  0  0
  181.3720  178.7730  140.9480 C   0  0  1  0  0  3  0  0  0  0  0  0
  182.8970  178.8540  138.9960 C   0  0  0  0  0  0  0  0  0  0  0  0
  185.9680  178.8920  141.3100 C   0  0  0  0  0  2  0  0  0  0  0  0
  184.1760  178.6030  139.5250 C   0  0  0  0  0  0  0  0  0  0  0  0
  183.6810  178.3380  141.9590 C   0  0  1  0  0  3  0  0  0  0  0  0
  185.9710  178.3610  142.7320 C   0  0  0  0  0  2  0  0  0  0  0  0
  183.4620  177.6780  136.9620 C   0  0  0  0  0  3  0  0  0  0  0  0
  180.8820  178.7130  137.2490 S   0  0  0  0  0  0  0  0  0  0  0  0
  180.2950  179.3520  143.6010 C   0  0  1  0  0  3  0  0  0  0  0  0
  184.7450  177.4290  137.4640 C   0  0  0  0  0  3  0  0  0  0  0  0
  179.2780  178.4730  144.1540 N   0  0  0  0  0  1  0  0  0  0  0  0
  184.5080  179.0720  140.9170 C   0  0  1  0  0  3  0  0  0  0  0  0
  184.5350  178.4000  143.2110 C   0  0  0  0  0  2  0  0  0  0  0  0
  181.6270  178.5990  143.4410 C   0  0  0  0  0  2  0  0  0  0  0  0
  182.3190  179.0250  142.1440 C   0  0  2  0  0  3  0  0  0  0  0  0
  179.8350  179.9700  142.4100 O   0  0  0  0  0  0  0  0  0  0  0  0
  182.5500  178.3840  137.7460 C   0  0  0  0  0  0  0  0  0  0  0  0
  180.6940  181.4970  137.0320 N   0  0  0  0  0  0  0  0  0  0  0  0
  180.7100  181.2080  138.2700 N   0  0  0  0  0  0  0  0  0  0  0  0
  180.7420  183.8000  137.4270 O   0  0  0  0  0  0  0  0  0  0  0  0
  180.7200  182.8550  136.5930 C   0  0  0  0  0  0  0  0  0  0  0  0
  180.7220  183.1450  135.2010 N   0  0  0  0  0  1  0  0  0  0  0  0
  1  8  1  0  0  0  0
  2 20  1  0  0  0  0
  3  6  1  6  0  0  0
  3  5  1  0  0  0  0
  4 23  1  6  0  0  0
  4  3  1  0  0  0  0
  5  2  1  1  0  0  0
  5 19  1  0  0  0  0
  6  8  2  0  0  0  0
  7 10  1  0  0  0  0
  8 16  1  0  0  0  0
  9 19  1  0  0  0  0
  9 17  1  1  0  0  0
 10 17  1  0  0  0  0
 11 14  1  0  0  0  0
 11 21  2  0  0  0  0
 12 21  1  0  0  0  0
 12  4  1  0  0  0  0
 13 15  1  6  0  0  0
 14  1  2  0  0  0  0
 16  7  1  1  0  0  0
 16  9  1  0  0  0  0
 18 13  1  0  0  0  0
 19 18  1  1  0  0  0
 20 13  1  0  0  0  0
 21  6  1  0  0  0  0
 22 23  2  0  0  0  0
 25 22  1  0  0  0  0
 25 24  2  0  0  0  0
 26 25  1  0  0  0  0
M  END
>  <MODEL>
2

>  <REMARK>
 VINA RESULT:      -6.5      3.921      6.382
  Name = 
  2 active torsions:
  status: ('A' for Active; 'I' for Inactive)
    1  A    between atoms: C_5  and  N_12
    2  A    between atoms: N_11  and  C_13
                            x       y       z     vdW  Elec       q    Type
                         _______ _______ _______ _____ _____    ______ ____

>  <TORSDO>
F 2

$$$$
=
 OpenBabel11042410543D

 26 30  0  0  1  0  0  0  0  0999 V2000
  180.6250  179.7730  143.3790 C   0  0  0  0  0  3  0  0  0  0  0  0
  183.4450  178.3990  138.3550 C   0  0  0  0  0  2  0  0  0  0  0  0
  181.7040  177.9520  140.1940 C   0  0  1  0  0  3  0  0  0  0  0  0
  180.7340  177.7160  139.0230 C   0  0  2  0  0  3  0  0  0  0  0  0
  182.9780  178.7170  139.7890 C   0  0  1  0  0  3  0  0  0  0  0  0
  180.9540  178.7350  141.2200 C   0  0  0  0  0  0  0  0  0  0  0  0
  183.1170  178.7150  144.3990 C   0  0  0  0  0  2  0  0  0  0  0  0
  181.4280  179.0060  142.5160 C   0  0  0  0  0  0  0  0  0  0  0  0
  183.8900  179.1860  142.1330 C   0  0  1  0  0  3  0  0  0  0  0  0
  184.5520  179.2050  144.4570 C   0  0  0  0  0  2  0  0  0  0  0  0
  178.9310  179.9830  141.6550 C   0  0  0  0  0  3  0  0  0  0  0  0
  179.3090  178.8690  139.1190 S   0  0  0  0  0  0  0  0  0  0  0  0
  185.6600  178.0330  138.8590 C   0  0  1  0  0  3  0  0  0  0  0  0
  179.3790  180.2530  142.9530 C   0  0  0  0  0  3  0  0  0  0  0  0
  186.2870  178.8670  137.8460 N   0  0  0  0  0  1  0  0  0  0  0  0
  182.7880  178.5060  142.9270 C   0  0  1  0  0  3  0  0  0  0  0  0
  185.0980  179.1130  143.0480 C   0  0  0  0  0  2  0  0  0  0  0  0
  185.4600  178.8260  140.1610 C   0  0  0  0  0  2  0  0  0  0  0  0
  184.1190  178.4580  140.8000 C   0  0  2  0  0  3  0  0  0  0  0  0
  184.4750  177.4370  138.3570 O   0  0  0  0  0  0  0  0  0  0  0  0
  179.7360  179.2300  140.8010 C   0  0  0  0  0  0  0  0  0  0  0  0
  180.2870  175.6860  140.1510 N   0  0  0  0  0  0  0  0  0  0  0  0
  180.2620  176.3420  139.0630 N   0  0  0  0  0  0  0  0  0  0  0  0
  179.7600  173.6370  139.1610 O   0  0  0  0  0  0  0  0  0  0  0  0
  179.8290  174.3350  140.2070 C   0  0  0  0  0  0  0  0  0  0  0  0
  179.4480  173.7720  141.4560 N   0  0  0  0  0  1  0  0  0  0  0  0
  2 20  1  0  0  0  0
  3  6  1  1  0  0  0
  4 23  1  1  0  0  0
  4 12  1  0  0  0  0
  4  3  1  0  0  0  0
  5  2  1  6  0  0  0
  5  3  1  0  0  0  0
  5 19  1  0  0  0  0
  6  8  1  0  0  0  0
  7 10  1  0  0  0  0
  8 16  1  0  0  0  0
  8  1  2  0  0  0  0
  9 16  1  0  0  0  0
  9 17  1  1  0  0  0
 11 14  2  0  0  0  0
 12 21  1  0  0  0  0
 13 15  1  6  0  0  0
 13 18  1  0  0  0  0
 14  1  1  0  0  0  0
 16  7  1  1  0  0  0
 17 10  1  0  0  0  0
 19 18  1  6  0  0  0
 19  9  1  0  0  0  0
 20 13  1  0  0  0  0
 21  6  2  0  0  0  0
 21 11  1  0  0  0  0
 22 25  1  0  0  0  0
 23 22  2  0  0  0  0
 24 25  2  0  0  0  0
 25 26  1  0  0  0  0
M  END
>  <MODEL>
3

>  <REMARK>
 VINA RESULT:      -6.3      2.316      3.560
  Name = 
  2 active torsions:
  status: ('A' for Active; 'I' for Inactive)
    1  A    between atoms: C_5  and  N_12
    2  A    between atoms: N_11  and  C_13
                            x       y       z     vdW  Elec       q    Type
                         _______ _______ _______ _____ _____    ______ ____

>  <TORSDO>
F 2

$$$$
=
 OpenBabel11042410543D

 26 30  0  0  1  0  0  0  0  0999 V2000
  192.3210  173.7950  136.6950 C   0  0  0  0  0  3  0  0  0  0  0  0
  189.2110  178.6110  138.1890 C   0  0  0  0  0  2  0  0  0  0  0  0
  190.4700  176.4390  138.7480 C   0  0  1  0  0  3  0  0  0  0  0  0
  191.1850  177.2920  139.8100 C   0  0  2  0  0  3  0  0  0  0  0  0
  189.7700  177.2740  137.6600 C   0  0  1  0  0  3  0  0  0  0  0  0
  191.5120  175.5720  138.1220 C   0  0  0  0  0  0  0  0  0  0  0  0
  189.6350  172.9750  135.9960 C   0  0  0  0  0  2  0  0  0  0  0  0
  191.2400  174.5230  137.2270 C   0  0  0  0  0  0  0  0  0  0  0  0
  189.2210  175.3800  136.0310 C   0  0  1  0  0  3  0  0  0  0  0  0
  188.6550  173.3260  134.8920 C   0  0  0  0  0  2  0  0  0  0  0  0
  193.8880  175.1690  137.9370 C   0  0  0  0  0  3  0  0  0  0  0  0
  192.9990  177.2860  139.5320 S   0  0  0  0  0  0  0  0  0  0  0  0
  187.1200  178.4290  137.2450 C   0  0  1  0  0  3  0  0  0  0  0  0
  193.6370  174.1120  137.0550 C   0  0  0  0  0  3  0  0  0  0  0  0
  187.0130  179.7390  136.6230 N   0  0  0  0  0  1  0  0  0  0  0  0
  189.8150  174.2350  136.8330 C   0  0  1  0  0  3  0  0  0  0  0  0
  188.1430  174.7180  135.1930 C   0  0  0  0  0  2  0  0  0  0  0  0
  187.6950  177.4070  136.2510 C   0  0  0  0  0  2  0  0  0  0  0  0
  188.6550  176.4550  136.9700 C   0  0  2  0  0  3  0  0  0  0  0  0
  187.8330  178.5090  138.4690 O   0  0  0  0  0  0  0  0  0  0  0  0
  192.8120  175.8930  138.4530 C   0  0  0  0  0  0  0  0  0  0  0  0
  189.7020  176.8210  141.5910 N   0  0  0  0  0  0  0  0  0  0  0  0
  190.8850  176.7630  141.1290 N   0  0  0  0  0  0  0  0  0  0  0  0
  188.2570  175.8160  143.1280 O   0  0  0  0  0  0  0  0  0  0  0  0
  189.3910  176.3080  142.8870 C   0  0  0  0  0  0  0  0  0  0  0  0
  190.3730  176.3530  143.9150 N   0  0  0  0  0  1  0  0  0  0  0  0
  1 14  2  0  0  0  0
  1  8  1  0  0  0  0
  2 20  1  0  0  0  0
  3  6  1  6  0  0  0
  3  4  1  0  0  0  0
  4 23  1  1  0  0  0
  5  2  1  1  0  0  0
  5  3  1  0  0  0  0
  6 21  1  0  0  0  0
  8  6  2  0  0  0  0
  9 17  1  6  0  0  0
  9 16  1  0  0  0  0
  9 19  1  0  0  0  0
 10 17  1  0  0  0  0
 10  7  1  0  0  0  0
 11 21  2  0  0  0  0
 12  4  1  0  0  0  0
 13 15  1  6  0  0  0
 13 20  1  0  0  0  0
 14 11  1  0  0  0  0
 16  7  1  6  0  0  0
 16  8  1  0  0  0  0
 18 13  1  0  0  0  0
 19 18  1  6  0  0  0
 19  5  1  0  0  0  0
 21 12  1  0  0  0  0
 22 25  1  0  0  0  0
 23 22  2  0  0  0  0
 25 24  2  0  0  0  0
 25 26  1  0  0  0  0
M  END
>  <MODEL>
4

>  <REMARK>
 VINA RESULT:      -6.2      5.244      8.484
  Name = 
  2 active torsions:
  status: ('A' for Active; 'I' for Inactive)
    1  A    between atoms: C_5  and  N_12
    2  A    between atoms: N_11  and  C_13
                            x       y       z     vdW  Elec       q    Type
                         _______ _______ _______ _____ _____    ______ ____

>  <TORSDO>
F 2

$$$$
=
 OpenBabel11042410543D

 26 30  0  0  1  0  0  0  0  0999 V2000
  187.7490  178.2760  141.1340 C   0  0  0  0  0  3  0  0  0  0  0  0
  191.2460  176.4790  136.7020 C   0  0  0  0  0  2  0  0  0  0  0  0
  189.2060  176.2300  138.2490 C   0  0  1  0  0  3  0  0  0  0  0  0
  188.4240  175.9890  136.9460 C   0  0  2  0  0  3  0  0  0  0  0  0
  190.5750  176.8990  138.0260 C   0  0  1  0  0  3  0  0  0  0  0  0
  188.3530  177.1070  139.1040 C   0  0  0  0  0  0  0  0  0  0  0  0
  189.9700  177.1320  142.5920 C   0  0  0  0  0  2  0  0  0  0  0  0
  188.6290  177.4190  140.4470 C   0  0  0  0  0  0  0  0  0  0  0  0
  191.1270  177.4380  140.4650 C   0  0  1  0  0  3  0  0  0  0  0  0
  191.4070  177.5420  142.8630 C   0  0  0  0  0  2  0  0  0  0  0  0
  186.3710  178.4900  139.1480 C   0  0  0  0  0  3  0  0  0  0  0  0
  187.0800  177.2240  136.7580 S   0  0  0  0  0  0  0  0  0  0  0  0
  193.3220  176.0140  137.5770 C   0  0  1  0  0  3  0  0  0  0  0  0
  186.6220  178.8020  140.4890 C   0  0  0  0  0  3  0  0  0  0  0  0
  194.1560  176.7570  136.6460 N   0  0  0  0  0  1  0  0  0  0  0  0
  189.8700  176.8650  141.0960 C   0  0  1  0  0  3  0  0  0  0  0  0
  192.1650  177.3440  141.5670 C   0  0  0  0  0  2  0  0  0  0  0  0
  192.9670  176.8850  138.7940 C   0  0  0  0  0  2  0  0  0  0  0  0
  191.5190  176.6280  139.2200 C   0  0  2  0  0  3  0  0  0  0  0  0
  192.1960  175.4610  136.9140 O   0  0  0  0  0  0  0  0  0  0  0  0
  187.2530  177.6480  138.4700 C   0  0  0  0  0  0  0  0  0  0  0  0
  186.6200  174.4750  137.1630 N   0  0  0  0  0  0  0  0  0  0  0  0
  187.8630  174.6480  136.9670 N   0  0  0  0  0  0  0  0  0  0  0  0
  185.1170  172.8850  137.9830 O   0  0  0  0  0  0  0  0  0  0  0  0
  186.0540  173.1640  137.1890 C   0  0  0  0  0  0  0  0  0  0  0  0
  186.5530  172.1650  136.3080 N   0  0  0  0  0  1  0  0  0  0  0  0
  2 20  1  0  0  0  0
  3  6  1  1  0  0  0
  4 23  1  1  0  0  0
  4  3  1  0  0  0  0
  5  2  1  6  0  0  0
  5  3  1  0  0  0  0
  5 19  1  0  0  0  0
  6  8  1  0  0  0  0
  7 10  1  0  0  0  0
  8 16  1  0  0  0  0
  8  1  2  0  0  0  0
  9 16  1  0  0  0  0
  9 17  1  1  0  0  0
 11 14  2  0  0  0  0
 12  4  1  0  0  0  0
 12 21  1  0  0  0  0
 13 15  1  6  0  0  0
 13 18  1  0  0  0  0
 14  1  1  0  0  0  0
 16  7  1  1  0  0  0
 17 10  1  0  0  0  0
 19 18  1  6  0  0  0
 19  9  1  0  0  0  0
 20 13  1  0  0  0  0
 21  6  2  0  0  0  0
 21 11  1  0  0  0  0
 22 25  1  0  0  0  0
 23 22  2  0  0  0  0
 25 24  2  0  0  0  0
 26 25  1  0  0  0  0
M  END
>  <MODEL>
5

>  <REMARK>
 VINA RESULT:      -6.2      3.994      5.376
  Name = 
  2 active torsions:
  status: ('A' for Active; 'I' for Inactive)
    1  A    between atoms: C_5  and  N_12
    2  A    between atoms: N_11  and  C_13
                            x       y       z     vdW  Elec       q    Type
                         _______ _______ _______ _____ _____    ______ ____

>  <TORSDO>
F 2

$$$$
=
 OpenBabel11042410543D

 26 30  0  0  1  0  0  0  0  0999 V2000
  187.0910  177.2130  137.6110 C   0  0  0  0  0  3  0  0  0  0  0  0
  183.6570  178.6850  142.2080 C   0  0  0  0  0  2  0  0  0  0  0  0
  184.6190  179.0780  139.8560 C   0  0  1  0  0  3  0  0  0  0  0  0
  183.1520  179.2960  139.4450 C   0  0  2  0  0  3  0  0  0  0  0  0
  184.7760  178.3470  141.2020 C   0  0  1  0  0  3  0  0  0  0  0  0
  185.2510  178.2710  138.7700 C   0  0  0  0  0  0  0  0  0  0  0  0
  189.0370  178.3270  139.4390 C   0  0  0  0  0  2  0  0  0  0  0  0
  186.6290  178.0050  138.6780 C   0  0  0  0  0  0  0  0  0  0  0  0
  187.2900  177.8880  141.0850 C   0  0  1  0  0  3  0  0  0  0  0  0
  189.6810  177.8720  140.7360 C   0  0  0  0  0  2  0  0  0  0  0  0
  184.8250  176.9710  136.7790 C   0  0  0  0  0  3  0  0  0  0  0  0
  182.6620  178.1080  138.1350 S   0  0  0  0  0  0  0  0  0  0  0  0
  185.0230  179.1040  144.0120 C   0  0  1  0  0  3  0  0  0  0  0  0
  186.1940  176.7050  136.6620 C   0  0  0  0  0  3  0  0  0  0  0  0
  184.3600  178.2910  145.0200 N   0  0  0  0  0  1  0  0  0  0  0  0
  187.5590  178.5360  139.7370 C   0  0  1  0  0  3  0  0  0  0  0  0
  188.6190  177.9860  141.8090 C   0  0  0  0  0  2  0  0  0  0  0  0
  186.1320  178.2980  143.3150 C   0  0  0  0  0  2  0  0  0  0  0  0
  186.1640  178.6300  141.8210 C   0  0  2  0  0  3  0  0  0  0  0  0
  184.0760  179.6730  143.1220 O   0  0  0  0  0  0  0  0  0  0  0  0
  184.3720  177.7480  137.8450 C   0  0  0  0  0  0  0  0  0  0  0  0
  181.8520  181.0650  138.5650 N   0  0  0  0  0  0  0  0  0  0  0  0
  182.9880  180.6580  138.9640 N   0  0  0  0  0  0  0  0  0  0  0  0
  182.5580  183.2750  138.2840 O   0  0  0  0  0  0  0  0  0  0  0  0
  181.6750  182.3990  138.0870 C   0  0  0  0  0  0  0  0  0  0  0  0
  180.4880  182.7410  137.3810 N   0  0  0  0  0  1  0  0  0  0  0  0
  1  8  1  0  0  0  0
  2 20  1  0  0  0  0
  3  6  1  6  0  0  0
  3  5  1  0  0  0  0
  4 23  1  6  0  0  0
  4  3  1  0  0  0  0
  5 19  1  0  0  0  0
  5  2  1  1  0  0  0
  7 10  1  0  0  0  0
  8  6  2  0  0  0  0
  8 16  1  0  0  0  0
  9 17  1  1  0  0  0
  9 19  1  0  0  0  0
 10 17  1  0  0  0  0
 11 21  2  0  0  0  0
 12  4  1  0  0  0  0
 13 15  1  1  0  0  0
 14 11  1  0  0  0  0
 14  1  2  0  0  0  0
 16  7  1  6  0  0  0
 16  9  1  0  0  0  0
 18 13  1  0  0  0  0
 19 18  1  1  0  0  0
 20 13  1  0  0  0  0
 21 12  1  0  0  0  0
 21  6  1  0  0  0  0
 22 23  2  0  0  0  0
 25 24  2  0  0  0  0
 25 22  1  0  0  0  0
 26 25  1  0  0  0  0
M  END
>  <MODEL>
6

>  <REMARK>
 VINA RESULT:      -6.0      3.240      5.413
  Name = 
  2 active torsions:
  status: ('A' for Active; 'I' for Inactive)
    1  A    between atoms: C_5  and  N_12
    2  A    between atoms: N_11  and  C_13
                            x       y       z     vdW  Elec       q    Type
                         _______ _______ _______ _____ _____    ______ ____

>  <TORSDO>
F 2

$$$$
=
 OpenBabel11042410543D

 26 30  0  0  1  0  0  0  0  0999 V2000
  183.9720  177.0190  138.3840 C   0  0  0  0  0  3  0  0  0  0  0  0
  182.5220  178.6140  143.9020 C   0  0  0  0  0  2  0  0  0  0  0  0
  182.3490  178.8170  141.3450 C   0  0  1  0  0  3  0  0  0  0  0  0
  180.8290  178.7810  141.5850 C   0  0  2  0  0  3  0  0  0  0  0  0
  183.1700  178.2990  142.5390 C   0  0  1  0  0  3  0  0  0  0  0  0
  182.6130  177.9660  140.1460 C   0  0  0  0  0  0  0  0  0  0  0  0
  186.2650  178.6170  139.1340 C   0  0  0  0  0  2  0  0  0  0  0  0
  183.8550  177.8770  139.4940 C   0  0  0  0  0  0  0  0  0  0  0  0
  185.4530  178.1690  141.3920 C   0  0  1  0  0  3  0  0  0  0  0  0
  187.4530  178.4280  140.0600 C   0  0  0  0  0  2  0  0  0  0  0  0
  181.6460  176.3680  138.6130 C   0  0  0  0  0  3  0  0  0  0  0  0
  180.0640  177.3750  140.6870 S   0  0  0  0  0  0  0  0  0  0  0  0
  184.4080  179.4460  144.9220 C   0  0  1  0  0  3  0  0  0  0  0  0
  182.8700  176.2750  137.9420 C   0  0  0  0  0  3  0  0  0  0  0  0
  184.3730  178.6930  146.1650 N   0  0  0  0  0  1  0  0  0  0  0  0
  185.0270  178.6630  140.0200 C   0  0  1  0  0  3  0  0  0  0  0  0
  186.9220  178.5400  141.4730 C   0  0  0  0  0  2  0  0  0  0  0  0
  185.2590  178.7120  143.8720 C   0  0  0  0  0  2  0  0  0  0  0  0
  184.6160  178.8440  142.4890 C   0  0  2  0  0  3  0  0  0  0  0  0
  183.0960  179.7610  144.4850 O   0  0  0  0  0  0  0  0  0  0  0  0
  181.5390  177.2120  139.7190 C   0  0  0  0  0  0  0  0  0  0  0  0
  180.4040  180.4210  139.9350 N   0  0  0  0  0  0  0  0  0  0  0  0
  180.2440  180.0320  141.1340 N   0  0  0  0  0  0  0  0  0  0  0  0
  180.1330  182.1090  138.3420 O   0  0  0  0  0  0  0  0  0  0  0  0
  179.8380  181.6490  139.4770 C   0  0  0  0  0  0  0  0  0  0  0  0
  178.9310  182.3590  140.3100 N   0  0  0  0  0  1  0  0  0  0  0  0
  1  8  1  0  0  0  0
  2 20  1  0  0  0  0
  3  6  1  6  0  0  0
  3  4  1  0  0  0  0
  3  5  1  0  0  0  0
  4 23  1  6  0  0  0
  5  2  1  1  0  0  0
  7 10  1  0  0  0  0
  8 16  1  0  0  0  0
  8  6  2  0  0  0  0
  9 17  1  1  0  0  0
  9 19  1  0  0  0  0
 10 17  1  0  0  0  0
 11 21  2  0  0  0  0
 12  4  1  0  0  0  0
 13 15  1  1  0  0  0
 14  1  2  0  0  0  0
 14 11  1  0  0  0  0
 16  7  1  6  0  0  0
 16  9  1  0  0  0  0
 18 13  1  0  0  0  0
 19  5  1  0  0  0  0
 19 18  1  1  0  0  0
 20 13  1  0  0  0  0
 21  6  1  0  0  0  0
 21 12  1  0  0  0  0
 22 23  2  0  0  0  0
 24 25  2  0  0  0  0
 25 22  1  0  0  0  0
 25 26  1  0  0  0  0
M  END
>  <MODEL>
7

>  <REMARK>
 VINA RESULT:      -5.9      3.417      5.468
  Name = 
  2 active torsions:
  status: ('A' for Active; 'I' for Inactive)
    1  A    between atoms: C_5  and  N_12
    2  A    between atoms: N_11  and  C_13
                            x       y       z     vdW  Elec       q    Type
                         _______ _______ _______ _____ _____    ______ ____

>  <TORSDO>
F 2

$$$$
=
 OpenBabel11042410543D

 26 30  0  0  1  0  0  0  0  0999 V2000
  187.6890  178.1340  139.9810 C   0  0  0  0  0  3  0  0  0  0  0  0
  191.6320  175.9360  136.1450 C   0  0  0  0  0  2  0  0  0  0  0  0
  189.4580  175.8080  137.5130 C   0  0  1  0  0  3  0  0  0  0  0  0
  188.8100  175.3890  136.1820 C   0  0  2  0  0  3  0  0  0  0  0  0
  190.8290  176.4880  137.3400 C   0  0  1  0  0  3  0  0  0  0  0  0
  188.5090  176.7530  138.1730 C   0  0  0  0  0  0  0  0  0  0  0  0
  189.7810  177.2410  141.7680 C   0  0  0  0  0  2  0  0  0  0  0  0
  188.6480  177.2300  139.4880 C   0  0  0  0  0  0  0  0  0  0  0  0
  191.1320  177.3300  139.7370 C   0  0  1  0  0  3  0  0  0  0  0  0
  191.1760  177.7250  142.1200 C   0  0  0  0  0  2  0  0  0  0  0  0
  186.5050  178.0680  137.8640 C   0  0  0  0  0  3  0  0  0  0  0  0
  187.4660  176.5510  135.7210 S   0  0  0  0  0  0  0  0  0  0  0  0
  193.6230  175.6440  137.2600 C   0  0  1  0  0  3  0  0  0  0  0  0
  186.6180  178.5440  139.1750 C   0  0  0  0  0  3  0  0  0  0  0  0
  194.5290  176.2970  136.3280 N   0  0  0  0  0  1  0  0  0  0  0  0
  189.8310  176.7960  140.3130 C   0  0  1  0  0  3  0  0  0  0  0  0
  192.0600  177.3990  140.9350 C   0  0  0  0  0  2  0  0  0  0  0  0
  193.1350  176.6410  138.3240 C   0  0  0  0  0  2  0  0  0  0  0  0
  191.6580  176.3910  138.6410 C   0  0  2  0  0  3  0  0  0  0  0  0
  192.5780  174.9810  136.5660 O   0  0  0  0  0  0  0  0  0  0  0  0
  187.4650  177.1800  137.3780 C   0  0  0  0  0  0  0  0  0  0  0  0
  187.1020  173.7770  135.9100 N   0  0  0  0  0  0  0  0  0  0  0  0
  188.2780  174.0440  136.3120 N   0  0  0  0  0  0  0  0  0  0  0  0
  187.1710  171.4690  135.5480 O   0  0  0  0  0  0  0  0  0  0  0  0
  186.5630  172.4600  136.0330 C   0  0  0  0  0  0  0  0  0  0  0  0
  185.3260  172.2670  136.7090 N   0  0  0  0  0  1  0  0  0  0  0  0
  2 20  1  0  0  0  0
  3  6  1  6  0  0  0
  4 23  1  1  0  0  0
  4  3  1  0  0  0  0
  5  2  1  6  0  0  0
  5  3  1  0  0  0  0
  5 19  1  0  0  0  0
  6  8  2  0  0  0  0
  7 10  1  0  0  0  0
  8  1  1  0  0  0  0
  8 16  1  0  0  0  0
  9 16  1  0  0  0  0
  9 17  1  1  0  0  0
 11 14  1  0  0  0  0
 12  4  1  0  0  0  0
 12 21  1  0  0  0  0
 13 15  1  6  0  0  0
 13 18  1  0  0  0  0
 14  1  2  0  0  0  0
 16  7  1  1  0  0  0
 17 10  1  0  0  0  0
 19 18  1  6  0  0  0
 19  9  1  0  0  0  0
 20 13  1  0  0  0  0
 21 11  2  0  0  0  0
 21  6  1  0  0  0  0
 22 25  1  0  0  0  0
 22 23  2  0  0  0  0
 24 25  2  0  0  0  0
 25 26  1  0  0  0  0
M  END
>  <MODEL>
8

>  <REMARK>
 VINA RESULT:      -5.8      4.775      6.196
  Name = 
  2 active torsions:
  status: ('A' for Active; 'I' for Inactive)
    1  A    between atoms: C_5  and  N_12
    2  A    between atoms: N_11  and  C_13
                            x       y       z     vdW  Elec       q    Type
                         _______ _______ _______ _____ _____    ______ ____

>  <TORSDO>
F 2

$$$$
=
 OpenBabel11042410543D

 26 30  0  0  1  0  0  0  0  0999 V2000
  179.4880  182.1440  139.3290 C   0  0  0  0  0  3  0  0  0  0  0  0
  181.8460  176.8470  138.1150 C   0  0  0  0  0  2  0  0  0  0  0  0
  181.8360  179.1250  139.3080 C   0  0  1  0  0  3  0  0  0  0  0  0
  182.1150  178.3030  140.5790 C   0  0  2  0  0  3  0  0  0  0  0  0
  181.2840  178.2830  138.1430 C   0  0  1  0  0  3  0  0  0  0  0  0
  180.8400  180.1720  139.6860 C   0  0  0  0  0  0  0  0  0  0  0  0
  180.6780  182.6330  136.7370 C   0  0  0  0  0  2  0  0  0  0  0  0
  180.4530  181.2360  138.8540 C   0  0  0  0  0  0  0  0  0  0  0  0
  180.6100  180.1980  136.5870 C   0  0  1  0  0  3  0  0  0  0  0  0
  180.3520  182.2330  135.3100 C   0  0  0  0  0  2  0  0  0  0  0  0
  179.3200  180.9130  141.4130 C   0  0  0  0  0  3  0  0  0  0  0  0
  180.8040  178.5810  141.8330 S   0  0  0  0  0  0  0  0  0  0  0  0
  182.3920  176.8060  135.8810 C   0  0  1  0  0  3  0  0  0  0  0  0
  178.9310  181.9870  140.6050 C   0  0  0  0  0  3  0  0  0  0  0  0
  181.7800  175.5430  135.4980 N   0  0  0  0  0  1  0  0  0  0  0  0
  181.0450  181.3520  137.4740 C   0  0  1  0  0  3  0  0  0  0  0  0
  180.6970  180.7640  135.1830 C   0  0  0  0  0  2  0  0  0  0  0  0
  181.4120  177.9690  135.6550 C   0  0  0  0  0  2  0  0  0  0  0  0
  181.5340  178.9880  136.7900 C   0  0  2  0  0  3  0  0  0  0  0  0
  182.9110  176.7350  137.1990 O   0  0  0  0  0  0  0  0  0  0  0  0
  180.2700  180.0110  140.9320 C   0  0  0  0  0  0  0  0  0  0  0  0
  184.4550  178.6050  140.4060 N   0  0  0  0  0  0  0  0  0  0  0  0
  183.4070  178.6860  141.1220 N   0  0  0  0  0  0  0  0  0  0  0  0
  185.8230  179.6610  141.9770 O   0  0  0  0  0  0  0  0  0  0  0  0
  185.7320  178.9750  140.9250 C   0  0  0  0  0  0  0  0  0  0  0  0
  186.9130  178.5650  140.2470 N   0  0  0  0  0  1  0  0  0  0  0  0
  1 14  1  0  0  0  0
  3  6  1  1  0  0  0
  3  4  1  0  0  0  0
  4 23  1  1  0  0  0
  4 12  1  0  0  0  0
  5  2  1  6  0  0  0
  5  3  1  0  0  0  0
  6 21  2  0  0  0  0
  8  1  2  0  0  0  0
  8  6  1  0  0  0  0
  9 17  1  6  0  0  0
  9 19  1  0  0  0  0
  9 16  1  0  0  0  0
 10  7  1  0  0  0  0
 13 15  1  1  0  0  0
 13 20  1  0  0  0  0
 14 11  2  0  0  0  0
 16  7  1  6  0  0  0
 16  8  1  0  0  0  0
 17 10  1  0  0  0  0
 18 13  1  0  0  0  0
 19 18  1  6  0  0  0
 19  5  1  0  0  0  0
 20  2  1  0  0  0  0
 21 11  1  0  0  0  0
 21 12  1  0  0  0  0
 22 25  1  0  0  0  0
 22 23  2  0  0  0  0
 25 24  2  0  0  0  0
 26 25  1  0  0  0  0
M  END
>  <MODEL>
9

>  <REMARK>
 VINA RESULT:      -5.8      4.246      7.182
  Name = 
  2 active torsions:
  status: ('A' for Active; 'I' for Inactive)
    1  A    between atoms: C_5  and  N_12
    2  A    between atoms: N_11  and  C_13
                            x       y       z     vdW  Elec       q    Type
                         _______ _______ _______ _____ _____    ______ ____

>  <TORSDO>
F 2

$$$$
