=
 OpenBabel11042412053D

 30 34  0  0  1  0  0  0  0  0999 V2000
  186.7970  178.5600  140.9750 C   0  0  0  0  0  0  0  0  0  0  0  0
  184.4420  178.8850  141.9040 C   0  0  0  0  0  0  0  0  0  0  0  0
  185.1950  178.6230  140.4050 S   0  0  0  0  0  0  0  0  0  0  0  0
  188.9080  177.8590  143.3600 N   0  0  0  0  0  2  0  0  0  0  0  0
  184.6700  178.2410  146.5090 C   0  0  0  0  0  1  0  0  0  0  0  0
  183.0390  178.5110  142.2360 C   0  0  0  0  0  2  0  0  0  0  0  0
  183.1240  179.1360  144.7060 C   0  0  0  0  0  3  0  0  0  0  0  0
  187.5320  178.2400  143.4670 C   0  0  0  0  0  0  0  0  0  0  0  0
  185.4610  178.8950  142.8290 C   0  0  0  0  0  0  0  0  0  0  0  0
  185.4850  178.5350  144.2240 C   0  0  0  0  0  0  0  0  0  0  0  0
  186.7210  178.7080  142.3470 C   0  0  0  0  0  0  0  0  0  0  0  0
  182.5360  179.1550  143.4990 C   0  0  0  0  0  3  0  0  0  0  0  0
  186.8240  178.1350  144.5580 N   0  0  0  0  0  0  0  0  0  0  0  0
  184.4520  178.5850  145.0760 C   0  0  0  0  0  0  0  0  0  0  0  0
  187.6020  178.5990  136.7100 N   0  0  0  0  0  2  0  0  0  0  0  0
  189.3560  177.8290  135.4500 O   0  0  0  0  0  0  0  0  0  0  0  0
  188.8050  178.0050  136.5670 C   0  0  0  0  0  0  0  0  0  0  0  0
  188.1140  178.1430  138.8400 C   0  0  0  0  0  0  0  0  0  0  0  0
  187.2160  178.6780  137.9810 N   0  0  0  0  0  0  0  0  0  0  0  0
  187.9530  178.1140  140.2600 N   0  0  0  0  0  2  0  0  0  0  0  0
  189.4680  177.5380  138.0410 S   0  0  0  0  0  0  0  0  0  0  0  0
  191.7020  176.1910  145.1740 N   0  0  0  0  0  2  0  0  0  0  0  0
  191.5350  176.6090  146.5620 C   0  0  1  0  0  3  0  0  0  0  0  0
  190.0600  176.8420  146.8620 C   0  0  0  0  0  2  0  0  0  0  0  0
  190.8410  176.6680  144.1330 C   0  0  0  0  0  0  0  0  0  0  0  0
  191.1090  176.2860  142.7860 N   0  0  0  0  0  1  0  0  0  0  0  0
  189.5020  177.8410  145.8520 C   0  0  0  0  0  2  0  0  0  0  0  0
  189.7580  177.4090  144.4260 C   0  0  0  0  0  0  0  0  0  0  0  0
  192.9970  176.1850  148.4210 O   0  0  0  0  0  1  0  0  0  0  0  0
  192.1340  175.5770  147.5060 C   0  0  0  0  0  2  0  0  0  0  0  0
  1 11  2  0  0  0  0
  2  6  1  0  0  0  0
  2  9  2  0  0  0  0
  3  1  1  0  0  0  0
  3  2  1  0  0  0  0
  4  8  1  0  0  0  0
  4 28  1  0  0  0  0
  6 12  1  0  0  0  0
  7 14  1  0  0  0  0
  8 13  2  0  0  0  0
  9 10  1  0  0  0  0
 10 13  1  0  0  0  0
 10 14  2  0  0  0  0
 11  9  1  0  0  0  0
 11  8  1  0  0  0  0
 12  7  2  0  0  0  0
 14  5  1  0  0  0  0
 15 19  1  0  0  0  0
 16 17  2  0  0  0  0
 17 15  1  0  0  0  0
 17 21  1  0  0  0  0
 18 20  1  0  0  0  0
 19 18  2  0  0  0  0
 20  1  1  0  0  0  0
 21 18  1  0  0  0  0
 22 23  1  0  0  0  0
 23 24  1  0  0  0  0
 23 30  1  1  0  0  0
 25 28  2  0  0  0  0
 25 22  1  0  0  0  0
 26 25  1  0  0  0  0
 27 24  1  0  0  0  0
 28 27  1  0  0  0  0
 30 29  1  0  0  0  0
M  END
>  <MODEL>
1

>  <REMARK>
 VINA RESULT:     -10.3      0.000      0.000
  Name = 
  3 active torsions:
  status: ('A' for Active; 'I' for Inactive)
    1  A    between atoms: C_1  and  N_25
    2  A    between atoms: N_7  and  C_30
    3  A    between atoms: CA_8  and  C_22
                            x       y       z     vdW  Elec       q    Type
                         _______ _______ _______ _____ _____    ______ ____

>  <TORSDO>
F 3

$$$$
=
 OpenBabel11042412053D

 30 34  0  0  1  0  0  0  0  0999 V2000
  188.6160  177.7560  142.0310 C   0  0  0  0  0  0  0  0  0  0  0  0
  189.0220  177.6790  144.5490 C   0  0  0  0  0  0  0  0  0  0  0  0
  189.9200  177.8570  143.1200 S   0  0  0  0  0  0  0  0  0  0  0  0
  185.4600  178.2410  141.3690 N   0  0  0  0  0  2  0  0  0  0  0  0
  184.9070  178.3100  146.6340 C   0  0  0  0  0  1  0  0  0  0  0  0
  189.4260  178.1990  145.8860 C   0  0  0  0  0  2  0  0  0  0  0  0
  187.2860  177.5750  147.1240 C   0  0  0  0  0  3  0  0  0  0  0  0
  186.0820  178.0060  142.6380 C   0  0  0  0  0  0  0  0  0  0  0  0
  187.7110  177.5660  144.1470 C   0  0  0  0  0  0  0  0  0  0  0  0
  186.4790  177.9260  144.8030 C   0  0  0  0  0  0  0  0  0  0  0  0
  187.4790  177.6200  142.8060 C   0  0  0  0  0  0  0  0  0  0  0  0
  188.6240  177.6140  147.0170 C   0  0  0  0  0  3  0  0  0  0  0  0
  185.4940  178.1870  143.7880 N   0  0  0  0  0  0  0  0  0  0  0  0
  186.2690  177.9870  146.1240 C   0  0  0  0  0  0  0  0  0  0  0  0
  190.8110  175.9040  138.7760 N   0  0  0  0  0  2  0  0  0  0  0  0
  190.9840  176.3870  136.5420 O   0  0  0  0  0  0  0  0  0  0  0  0
  190.5110  176.6320  137.6820 C   0  0  0  0  0  0  0  0  0  0  0  0
  189.4110  177.4210  139.6380 C   0  0  0  0  0  0  0  0  0  0  0  0
  190.1950  176.3430  139.8710 N   0  0  0  0  0  0  0  0  0  0  0  0
  188.6250  178.0770  140.6370 N   0  0  0  0  0  2  0  0  0  0  0  0
  189.4400  177.8850  138.0190 S   0  0  0  0  0  0  0  0  0  0  0  0
  182.4130  179.6830  139.7820 N   0  0  0  0  0  2  0  0  0  0  0  0
  181.3130  179.2240  140.6240 C   0  0  1  0  0  3  0  0  0  0  0  0
  181.7890  179.0640  142.0620 C   0  0  0  0  0  2  0  0  0  0  0  0
  183.7690  179.2930  140.0330 C   0  0  0  0  0  0  0  0  0  0  0  0
  184.7860  179.7080  139.1240 N   0  0  0  0  0  1  0  0  0  0  0  0
  183.0010  178.1350  142.0800 C   0  0  0  0  0  2  0  0  0  0  0  0
  184.0890  178.6030  141.1420 C   0  0  0  0  0  0  0  0  0  0  0  0
  179.9320  180.8310  141.7580 O   0  0  0  0  0  1  0  0  0  0  0  0
  180.1370  180.1860  140.5360 C   0  0  0  0  0  2  0  0  0  0  0  0
  1 11  2  0  0  0  0
  1  3  1  0  0  0  0
  2  6  1  0  0  0  0
  3  2  1  0  0  0  0
  4  8  1  0  0  0  0
  6 12  1  0  0  0  0
  8 11  1  0  0  0  0
  8 13  2  0  0  0  0
  9  2  2  0  0  0  0
  9 10  1  0  0  0  0
 10 14  2  0  0  0  0
 11  9  1  0  0  0  0
 12  7  2  0  0  0  0
 13 10  1  0  0  0  0
 14  5  1  0  0  0  0
 14  7  1  0  0  0  0
 15 19  1  0  0  0  0
 16 17  2  0  0  0  0
 17 21  1  0  0  0  0
 17 15  1  0  0  0  0
 18 19  2  0  0  0  0
 18 20  1  0  0  0  0
 20  1  1  0  0  0  0
 21 18  1  0  0  0  0
 22 25  1  0  0  0  0
 22 23  1  0  0  0  0
 23 30  1  1  0  0  0
 23 24  1  0  0  0  0
 24 27  1  0  0  0  0
 25 28  2  0  0  0  0
 26 25  1  0  0  0  0
 28  4  1  0  0  0  0
 28 27  1  0  0  0  0
 30 29  1  0  0  0  0
M  END
>  <MODEL>
2

>  <REMARK>
 VINA RESULT:     -10.3      3.226      6.710
  Name = 
  3 active torsions:
  status: ('A' for Active; 'I' for Inactive)
    1  A    between atoms: C_1  and  N_25
    2  A    between atoms: N_7  and  C_30
    3  A    between atoms: CA_8  and  C_22
                            x       y       z     vdW  Elec       q    Type
                         _______ _______ _______ _____ _____    ______ ____

>  <TORSDO>
F 3

$$$$
=
 OpenBabel11042412053D

 30 34  0  0  1  0  0  0  0  0999 V2000
  189.6340  177.3910  142.0760 C   0  0  0  0  0  0  0  0  0  0  0  0
  190.8070  177.1060  144.3240 C   0  0  0  0  0  0  0  0  0  0  0  0
  191.2140  177.4210  142.7060 S   0  0  0  0  0  0  0  0  0  0  0  0
  186.4350  177.8780  142.4780 N   0  0  0  0  0  2  0  0  0  0  0  0
  187.5590  177.4860  147.6380 C   0  0  0  0  0  1  0  0  0  0  0  0
  191.6150  177.5160  145.5070 C   0  0  0  0  0  2  0  0  0  0  0  0
  189.9640  176.7530  147.2930 C   0  0  0  0  0  3  0  0  0  0  0  0
  187.4210  177.5450  143.4630 C   0  0  0  0  0  0  0  0  0  0  0  0
  189.4350  177.0060  144.3430 C   0  0  0  0  0  0  0  0  0  0  0  0
  188.4740  177.2880  145.3800 C   0  0  0  0  0  0  0  0  0  0  0  0
  188.7960  177.1700  143.1520 C   0  0  0  0  0  0  0  0  0  0  0  0
  191.2020  176.8230  146.7770 C   0  0  0  0  0  3  0  0  0  0  0  0
  187.2240  177.6170  144.7510 N   0  0  0  0  0  0  0  0  0  0  0  0
  188.6890  177.2310  146.7010 C   0  0  0  0  0  0  0  0  0  0  0  0
  190.7210  175.8950  138.1480 N   0  0  0  0  0  2  0  0  0  0  0  0
  190.1920  176.5740  136.0230 O   0  0  0  0  0  0  0  0  0  0  0  0
  190.0930  176.7040  137.2700 C   0  0  0  0  0  0  0  0  0  0  0  0
  189.6500  177.2870  139.5340 C   0  0  0  0  0  0  0  0  0  0  0  0
  190.4720  176.2200  139.4150 N   0  0  0  0  0  0  0  0  0  0  0  0
  189.2100  177.8310  140.7820 N   0  0  0  0  0  2  0  0  0  0  0  0
  189.1750  177.8900  138.0350 S   0  0  0  0  0  0  0  0  0  0  0  0
  182.8630  178.7580  141.8870 N   0  0  0  0  0  2  0  0  0  0  0  0
  182.2820  178.8320  143.2240 C   0  0  1  0  0  3  0  0  0  0  0  0
  183.3370  179.2810  144.2270 C   0  0  0  0  0  2  0  0  0  0  0  0
  184.2320  178.3880  141.6790 C   0  0  0  0  0  0  0  0  0  0  0  0
  184.7160  178.2530  140.3460 N   0  0  0  0  0  1  0  0  0  0  0  0
  184.5370  178.3430  144.1350 C   0  0  0  0  0  2  0  0  0  0  0  0
  185.0660  178.2350  142.7230 C   0  0  0  0  0  0  0  0  0  0  0  0
  180.5280  179.8720  141.9520 O   0  0  0  0  0  1  0  0  0  0  0  0
  181.0800  179.7660  143.2310 C   0  0  0  0  0  2  0  0  0  0  0  0
  1  3  1  0  0  0  0
  1 11  2  0  0  0  0
  2  9  2  0  0  0  0
  2  6  1  0  0  0  0
  3  2  1  0  0  0  0
  4 28  1  0  0  0  0
  4  8  1  0  0  0  0
  6 12  1  0  0  0  0
  8 13  2  0  0  0  0
  9 10  1  0  0  0  0
 10 14  2  0  0  0  0
 11  8  1  0  0  0  0
 11  9  1  0  0  0  0
 12  7  2  0  0  0  0
 13 10  1  0  0  0  0
 14  7  1  0  0  0  0
 14  5  1  0  0  0  0
 15 19  1  0  0  0  0
 16 17  2  0  0  0  0
 17 21  1  0  0  0  0
 17 15  1  0  0  0  0
 18 20  1  0  0  0  0
 19 18  2  0  0  0  0
 20  1  1  0  0  0  0
 21 18  1  0  0  0  0
 22 23  1  0  0  0  0
 23 30  1  6  0  0  0
 23 24  1  0  0  0  0
 25 22  1  0  0  0  0
 25 28  2  0  0  0  0
 26 25  1  0  0  0  0
 27 24  1  0  0  0  0
 28 27  1  0  0  0  0
 29 30  1  0  0  0  0
M  END
>  <MODEL>
3

>  <REMARK>
 VINA RESULT:     -10.1      3.112      6.458
  Name = 
  3 active torsions:
  status: ('A' for Active; 'I' for Inactive)
    1  A    between atoms: C_1  and  N_25
    2  A    between atoms: N_7  and  C_30
    3  A    between atoms: CA_8  and  C_22
                            x       y       z     vdW  Elec       q    Type
                         _______ _______ _______ _____ _____    ______ ____

>  <TORSDO>
F 3

$$$$
=
 OpenBabel11042412053D

 30 34  0  0  1  0  0  0  0  0999 V2000
  185.2730  179.1860  141.6510 C   0  0  0  0  0  0  0  0  0  0  0  0
  186.2630  178.3170  143.8360 C   0  0  0  0  0  0  0  0  0  0  0  0
  184.7850  178.9220  143.2590 S   0  0  0  0  0  0  0  0  0  0  0  0
  187.1510  178.3740  139.1110 N   0  0  0  0  0  2  0  0  0  0  0  0
  190.1970  176.0650  142.7750 C   0  0  0  0  0  1  0  0  0  0  0  0
  186.4180  177.3960  144.9970 C   0  0  0  0  0  2  0  0  0  0  0  0
  188.9260  177.0100  144.7580 C   0  0  0  0  0  3  0  0  0  0  0  0
  187.4100  178.1980  140.5090 C   0  0  0  0  0  0  0  0  0  0  0  0
  187.1060  178.3120  142.7490 C   0  0  0  0  0  0  0  0  0  0  0  0
  188.2300  177.4720  142.4200 C   0  0  0  0  0  0  0  0  0  0  0  0
  186.5850  178.7600  141.5730 C   0  0  0  0  0  0  0  0  0  0  0  0
  187.8360  177.2940  145.4890 C   0  0  0  0  0  3  0  0  0  0  0  0
  188.3650  177.4490  140.9890 N   0  0  0  0  0  0  0  0  0  0  0  0
  189.0320  176.8400  143.2870 C   0  0  0  0  0  0  0  0  0  0  0  0
  182.5150  176.5850  139.5340 N   0  0  0  0  0  2  0  0  0  0  0  0
  181.2050  176.8870  137.6780 O   0  0  0  0  0  0  0  0  0  0  0  0
  182.0320  177.3270  138.5170 C   0  0  0  0  0  0  0  0  0  0  0  0
  183.5730  178.5270  139.8770 C   0  0  0  0  0  0  0  0  0  0  0  0
  183.3760  177.2560  140.2960 N   0  0  0  0  0  0  0  0  0  0  0  0
  184.4330  179.4670  140.5260 N   0  0  0  0  0  2  0  0  0  0  0  0
  182.6580  178.8900  138.5100 S   0  0  0  0  0  0  0  0  0  0  0  0
  188.1040  176.5350  136.0150 N   0  0  0  0  0  2  0  0  0  0  0  0
  189.4860  176.9340  135.7660 C   0  0  1  0  0  3  0  0  0  0  0  0
  190.1870  177.2340  137.0850 C   0  0  0  0  0  2  0  0  0  0  0  0
  187.3470  177.0740  137.1060 C   0  0  0  0  0  0  0  0  0  0  0  0
  185.9770  176.7060  137.2440 N   0  0  0  0  0  1  0  0  0  0  0  0
  189.3780  178.2780  137.8480 C   0  0  0  0  0  2  0  0  0  0  0  0
  187.9350  177.8620  138.0230 C   0  0  0  0  0  0  0  0  0  0  0  0
  191.5450  175.7470  135.4110 O   0  0  0  0  0  1  0  0  0  0  0  0
  190.2200  175.8550  134.9830 C   0  0  0  0  0  2  0  0  0  0  0  0
  1  3  1  0  0  0  0
  2  6  1  0  0  0  0
  3  2  1  0  0  0  0
  4  8  1  0  0  0  0
  5 14  1  0  0  0  0
  6 12  1  0  0  0  0
  7 12  2  0  0  0  0
  8 13  2  0  0  0  0
  8 11  1  0  0  0  0
  9  2  2  0  0  0  0
 10  9  1  0  0  0  0
 10 14  2  0  0  0  0
 11  1  2  0  0  0  0
 11  9  1  0  0  0  0
 13 10  1  0  0  0  0
 14  7  1  0  0  0  0
 15 19  1  0  0  0  0
 16 17  2  0  0  0  0
 17 15  1  0  0  0  0
 18 19  2  0  0  0  0
 18 20  1  0  0  0  0
 20  1  1  0  0  0  0
 21 17  1  0  0  0  0
 21 18  1  0  0  0  0
 22 25  1  0  0  0  0
 23 30  1  1  0  0  0
 23 22  1  0  0  0  0
 23 24  1  0  0  0  0
 24 27  1  0  0  0  0
 25 26  1  0  0  0  0
 25 28  2  0  0  0  0
 27 28  1  0  0  0  0
 28  4  1  0  0  0  0
 30 29  1  0  0  0  0
M  END
>  <MODEL>
4

>  <REMARK>
 VINA RESULT:      -9.2      3.639      6.810
  Name = 
  3 active torsions:
  status: ('A' for Active; 'I' for Inactive)
    1  A    between atoms: C_1  and  N_25
    2  A    between atoms: N_7  and  C_30
    3  A    between atoms: CA_8  and  C_22
                            x       y       z     vdW  Elec       q    Type
                         _______ _______ _______ _____ _____    ______ ____

>  <TORSDO>
F 3

$$$$
=
 OpenBabel11042412053D

 30 34  0  0  1  0  0  0  0  0999 V2000
  186.1080  178.2760  143.9210 C   0  0  0  0  0  0  0  0  0  0  0  0
  187.3240  177.7090  146.0910 C   0  0  0  0  0  0  0  0  0  0  0  0
  185.7310  177.9150  145.5400 S   0  0  0  0  0  0  0  0  0  0  0  0
  188.0850  177.9390  141.3490 N   0  0  0  0  0  2  0  0  0  0  0  0
  191.6810  176.5150  144.9660 C   0  0  0  0  0  1  0  0  0  0  0  0
  187.7270  176.8690  147.2540 C   0  0  0  0  0  2  0  0  0  0  0  0
  190.2470  177.1280  146.9680 C   0  0  0  0  0  3  0  0  0  0  0  0
  188.4050  177.8490  142.7430 C   0  0  0  0  0  0  0  0  0  0  0  0
  188.1210  177.9060  144.9870 C   0  0  0  0  0  0  0  0  0  0  0  0
  189.4160  177.3750  144.6410 C   0  0  0  0  0  0  0  0  0  0  0  0
  187.4840  178.1950  143.8200 C   0  0  0  0  0  0  0  0  0  0  0  0
  189.1330  177.1340  147.7180 C   0  0  0  0  0  3  0  0  0  0  0  0
  189.5270  177.3710  143.2080 N   0  0  0  0  0  0  0  0  0  0  0  0
  190.3670  176.9740  145.4960 C   0  0  0  0  0  0  0  0  0  0  0  0
  181.8580  179.1590  143.8450 N   0  0  0  0  0  2  0  0  0  0  0  0
  180.3000  179.1670  142.1630 O   0  0  0  0  0  0  0  0  0  0  0  0
  181.4830  179.0030  142.5580 C   0  0  0  0  0  0  0  0  0  0  0  0
  183.8030  178.5990  142.8920 C   0  0  0  0  0  0  0  0  0  0  0  0
  183.1560  178.9350  144.0310 N   0  0  0  0  0  0  0  0  0  0  0  0
  185.2050  178.3240  142.8110 N   0  0  0  0  0  2  0  0  0  0  0  0
  182.7690  178.5710  141.5630 S   0  0  0  0  0  0  0  0  0  0  0  0
  189.3470  177.5030  137.8710 N   0  0  0  0  0  2  0  0  0  0  0  0
  190.7480  177.1280  138.0380 C   0  0  1  0  0  3  0  0  0  0  0  0
  190.9310  176.3600  139.3410 C   0  0  0  0  0  2  0  0  0  0  0  0
  188.5100  177.8130  138.9930 C   0  0  0  0  0  0  0  0  0  0  0  0
  187.1750  178.2530  138.7570 N   0  0  0  0  0  1  0  0  0  0  0  0
  190.3830  177.2010  140.4900 C   0  0  0  0  0  2  0  0  0  0  0  0
  188.9550  177.6310  140.2490 C   0  0  0  0  0  0  0  0  0  0  0  0
  192.5940  176.0450  136.9460 O   0  0  0  0  0  1  0  0  0  0  0  0
  191.2270  176.3130  136.8450 C   0  0  0  0  0  2  0  0  0  0  0  0
  1  3  1  0  0  0  0
  2  6  1  0  0  0  0
  3  2  1  0  0  0  0
  4  8  1  0  0  0  0
  5 14  1  0  0  0  0
  6 12  1  0  0  0  0
  7 12  2  0  0  0  0
  8 13  2  0  0  0  0
  8 11  1  0  0  0  0
  9  2  2  0  0  0  0
 10  9  1  0  0  0  0
 10 14  2  0  0  0  0
 11  1  2  0  0  0  0
 11  9  1  0  0  0  0
 13 10  1  0  0  0  0
 14  7  1  0  0  0  0
 15 19  1  0  0  0  0
 16 17  2  0  0  0  0
 17 15  1  0  0  0  0
 18 19  2  0  0  0  0
 20 18  1  0  0  0  0
 20  1  1  0  0  0  0
 21 17  1  0  0  0  0
 21 18  1  0  0  0  0
 22 23  1  0  0  0  0
 22 25  1  0  0  0  0
 23 30  1  6  0  0  0
 23 24  1  0  0  0  0
 24 27  1  0  0  0  0
 25 28  2  0  0  0  0
 26 25  1  0  0  0  0
 28 27  1  0  0  0  0
 28  4  1  0  0  0  0
 30 29  1  0  0  0  0
M  END
>  <MODEL>
5

>  <REMARK>
 VINA RESULT:      -9.1      3.140      6.830
  Name = 
  3 active torsions:
  status: ('A' for Active; 'I' for Inactive)
    1  A    between atoms: C_1  and  N_25
    2  A    between atoms: N_7  and  C_30
    3  A    between atoms: CA_8  and  C_22
                            x       y       z     vdW  Elec       q    Type
                         _______ _______ _______ _____ _____    ______ ____

>  <TORSDO>
F 3

$$$$
=
 OpenBabel11042412053D

 30 34  0  0  1  0  0  0  0  0999 V2000
  187.9760  178.3560  139.5430 C   0  0  0  0  0  0  0  0  0  0  0  0
  187.6230  178.0790  142.0550 C   0  0  0  0  0  0  0  0  0  0  0  0
  186.7360  178.5610  140.6900 S   0  0  0  0  0  0  0  0  0  0  0  0
  190.6740  176.8080  138.5640 N   0  0  0  0  0  2  0  0  0  0  0  0
  191.1260  175.4710  143.6670 C   0  0  0  0  0  1  0  0  0  0  0  0
  187.0370  177.5050  143.2990 C   0  0  0  0  0  2  0  0  0  0  0  0
  189.2400  176.9710  144.4650 C   0  0  0  0  0  3  0  0  0  0  0  0
  190.1930  177.0100  139.8980 C   0  0  0  0  0  0  0  0  0  0  0  0
  188.8700  177.7440  141.5820 C   0  0  0  0  0  0  0  0  0  0  0  0
  189.8500  176.8030  142.0640 C   0  0  0  0  0  0  0  0  0  0  0  0
  189.0670  177.8740  140.2410 C   0  0  0  0  0  0  0  0  0  0  0  0
  188.0000  177.4860  144.4550 C   0  0  0  0  0  3  0  0  0  0  0  0
  190.6520  176.3850  140.9460 N   0  0  0  0  0  0  0  0  0  0  0  0
  190.0120  176.4010  143.3310 C   0  0  0  0  0  0  0  0  0  0  0  0
  186.8230  175.1300  136.8770 N   0  0  0  0  0  2  0  0  0  0  0  0
  186.6760  174.9740  134.5950 O   0  0  0  0  0  0  0  0  0  0  0  0
  186.9250  175.6400  135.6330 C   0  0  0  0  0  0  0  0  0  0  0  0
  187.4840  177.2210  137.3210 C   0  0  0  0  0  0  0  0  0  0  0  0
  187.1330  176.0140  137.8220 N   0  0  0  0  0  0  0  0  0  0  0  0
  187.8450  178.3510  138.1180 N   0  0  0  0  0  2  0  0  0  0  0  0
  187.4150  177.2500  135.6380 S   0  0  0  0  0  0  0  0  0  0  0  0
  192.6330  173.9190  137.2630 N   0  0  0  0  0  2  0  0  0  0  0  0
  194.0160  174.3880  137.2610 C   0  0  1  0  0  3  0  0  0  0  0  0
  194.2240  175.3970  138.3830 C   0  0  0  0  0  2  0  0  0  0  0  0
  191.5480  174.7690  137.6540 C   0  0  0  0  0  0  0  0  0  0  0  0
  190.2140  174.2760  137.5530 N   0  0  0  0  0  1  0  0  0  0  0  0
  193.1990  176.5180  138.2370 C   0  0  0  0  0  2  0  0  0  0  0  0
  191.7850  175.9880  138.1690 C   0  0  0  0  0  0  0  0  0  0  0  0
  195.1980  172.8980  138.7300 O   0  0  0  0  0  1  0  0  0  0  0  0
  194.9770  173.2150  137.3870 C   0  0  0  0  0  2  0  0  0  0  0  0
  1 11  2  0  0  0  0
  1  3  1  0  0  0  0
  2  6  1  0  0  0  0
  3  2  1  0  0  0  0
  4  8  1  0  0  0  0
  6 12  1  0  0  0  0
  8 11  1  0  0  0  0
  8 13  2  0  0  0  0
  9  2  2  0  0  0  0
  9 10  1  0  0  0  0
 10 14  2  0  0  0  0
 11  9  1  0  0  0  0
 12  7  2  0  0  0  0
 13 10  1  0  0  0  0
 14  5  1  0  0  0  0
 14  7  1  0  0  0  0
 15 19  1  0  0  0  0
 16 17  2  0  0  0  0
 17 21  1  0  0  0  0
 17 15  1  0  0  0  0
 18 19  2  0  0  0  0
 18 20  1  0  0  0  0
 20  1  1  0  0  0  0
 21 18  1  0  0  0  0
 22 25  1  0  0  0  0
 23 22  1  0  0  0  0
 23 30  1  1  0  0  0
 23 24  1  0  0  0  0
 25 28  2  0  0  0  0
 26 25  1  0  0  0  0
 27 24  1  0  0  0  0
 28 27  1  0  0  0  0
 28  4  1  0  0  0  0
 30 29  1  0  0  0  0
M  END
>  <MODEL>
6

>  <REMARK>
 VINA RESULT:      -9.0      3.832      6.006
  Name = 
  3 active torsions:
  status: ('A' for Active; 'I' for Inactive)
    1  A    between atoms: C_1  and  N_25
    2  A    between atoms: N_7  and  C_30
    3  A    between atoms: CA_8  and  C_22
                            x       y       z     vdW  Elec       q    Type
                         _______ _______ _______ _____ _____    ______ ____

>  <TORSDO>
F 3

$$$$
=
 OpenBabel11042412053D

 30 34  0  0  1  0  0  0  0  0999 V2000
  189.2260  177.8260  142.5320 C   0  0  0  0  0  0  0  0  0  0  0  0
  189.9310  177.5190  140.0990 C   0  0  0  0  0  0  0  0  0  0  0  0
  190.5170  177.1550  141.6510 S   0  0  0  0  0  0  0  0  0  0  0  0
  186.0640  178.5950  142.7460 N   0  0  0  0  0  0  0  0  0  0  0  0
  186.1650  178.2540  137.4630 C   0  0  0  0  0  1  0  0  0  0  0  0
  190.2690  176.7670  138.8570 C   0  0  0  0  0  2  0  0  0  0  0  0
  188.6860  178.0160  137.2970 C   0  0  0  0  0  3  0  0  0  0  0  0
  186.8770  178.4690  141.5730 C   0  0  0  0  0  0  0  0  0  0  0  0
  188.7200  178.1410  140.3020 C   0  0  0  0  0  0  0  0  0  0  0  0
  187.5320  178.1990  139.4880 C   0  0  0  0  0  0  0  0  0  0  0  0
  188.3260  178.2980  141.5950 C   0  0  0  0  0  0  0  0  0  0  0  0
  189.8880  177.5000  137.5990 C   0  0  0  0  0  3  0  0  0  0  0  0
  186.4080  178.4120  140.3570 N   0  0  0  0  0  0  0  0  0  0  0  0
  187.4760  178.1000  138.1530 C   0  0  0  0  0  0  0  0  0  0  0  0
  191.9490  177.1270  145.8400 N   0  0  0  0  0  2  0  0  0  0  0  0
  191.6150  176.7370  148.0750 O   0  0  0  0  0  0  0  0  0  0  0  0
  191.1620  176.9710  146.9250 C   0  0  0  0  0  0  0  0  0  0  0  0
  189.9170  177.3970  144.9420 C   0  0  0  0  0  0  0  0  0  0  0  0
  191.2530  177.3670  144.7310 N   0  0  0  0  0  0  0  0  0  0  0  0
  188.9450  177.6530  143.9250 N   0  0  0  0  0  2  0  0  0  0  0  0
  189.5270  177.1280  146.5590 S   0  0  0  0  0  0  0  0  0  0  0  0
  182.6010  179.0230  144.0520 N   0  0  0  0  0  0  0  0  0  0  0  0
  181.7940  179.2860  142.8640 C   0  0  1  0  0  3  0  0  0  0  0  0
  182.3970  178.5770  141.6570 C   0  0  0  0  0  2  0  0  0  0  0  0
  184.0220  178.8500  143.9770 C   0  0  0  0  0  0  0  0  0  0  0  0
  184.7610  178.6800  145.1830 N   0  0  0  0  0  1  0  0  0  0  0  0
  183.8560  179.0030  141.5120 C   0  0  0  0  0  2  0  0  0  0  0  0
  184.6400  178.7830  142.7850 C   0  0  0  0  0  0  0  0  0  0  0  0
  180.2090  178.2510  144.3430 O   0  0  0  0  0  1  0  0  0  0  0  0
  180.3530  178.8570  143.0930 C   0  0  0  0  0  2  0  0  0  0  0  0
  1 20  1  0  0  0  0
  2  9  2  0  0  0  0
  2  3  1  0  0  0  0
  3  1  1  0  0  0  0
  4 28  2  0  0  0  0
  5 14  1  0  0  0  0
  6  2  1  0  0  0  0
  7 12  2  0  0  0  0
  7 14  1  0  0  0  0
  8 11  1  0  0  0  0
  8  4  1  0  0  0  0
  9 11  1  0  0  0  0
 10  9  1  0  0  0  0
 10 13  1  0  0  0  0
 11  1  2  0  0  0  0
 12  6  1  0  0  0  0
 13  8  2  0  0  0  0
 14 10  2  0  0  0  0
 15 17  1  0  0  0  0
 17 16  2  0  0  0  0
 18 21  1  0  0  0  0
 19 18  2  0  0  0  0
 19 15  1  0  0  0  0
 20 18  1  0  0  0  0
 21 17  1  0  0  0  0
 23 30  1  1  0  0  0
 23 22  1  0  0  0  0
 24 23  1  0  0  0  0
 25 22  2  0  0  0  0
 25 26  1  0  0  0  0
 27 24  1  0  0  0  0
 27 28  1  0  0  0  0
 28 25  1  0  0  0  0
 30 29  1  0  0  0  0
M  END
>  <MODEL>
7

>  <REMARK>
 VINA RESULT:      -9.0      3.236      8.070
  Name = 
  3 active torsions:
  status: ('A' for Active; 'I' for Inactive)
    1  A    between atoms: C_1  and  N_25
    2  A    between atoms: N_7  and  C_30
    3  A    between atoms: CA_8  and  C_22
                            x       y       z     vdW  Elec       q    Type
                         _______ _______ _______ _____ _____    ______ ____

>  <TORSDO>
F 3

$$$$
=
 OpenBabel11042412053D

 30 34  0  0  1  0  0  0  0  0999 V2000
  184.4060  179.1530  141.7300 C   0  0  0  0  0  0  0  0  0  0  0  0
  184.4340  178.7990  144.2570 C   0  0  0  0  0  0  0  0  0  0  0  0
  183.2970  179.0010  143.0110 S   0  0  0  0  0  0  0  0  0  0  0  0
  187.3040  178.4360  140.4170 N   0  0  0  0  0  2  0  0  0  0  0  0
  188.6930  177.3060  145.3990 C   0  0  0  0  0  1  0  0  0  0  0  0
  184.1800  178.0860  145.5410 C   0  0  0  0  0  2  0  0  0  0  0  0
  186.5620  178.2090  146.4420 C   0  0  0  0  0  3  0  0  0  0  0  0
  186.9390  178.4980  141.8010 C   0  0  0  0  0  0  0  0  0  0  0  0
  185.6630  178.8310  143.6400 C   0  0  0  0  0  0  0  0  0  0  0  0
  186.9180  178.2120  143.9840 C   0  0  0  0  0  0  0  0  0  0  0  0
  185.6610  179.0050  142.2890 C   0  0  0  0  0  0  0  0  0  0  0  0
  185.2340  178.3490  146.5830 C   0  0  0  0  0  3  0  0  0  0  0  0
  187.6730  178.0340  142.7740 N   0  0  0  0  0  0  0  0  0  0  0  0
  187.3300  177.8780  145.2150 C   0  0  0  0  0  0  0  0  0  0  0  0
  182.5200  176.0180  139.3920 N   0  0  0  0  0  2  0  0  0  0  0  0
  182.1050  175.7850  137.1500 O   0  0  0  0  0  0  0  0  0  0  0  0
  182.5580  176.4520  138.1150 C   0  0  0  0  0  0  0  0  0  0  0  0
  183.5170  178.0060  139.6410 C   0  0  0  0  0  0  0  0  0  0  0  0
  183.0560  176.8880  140.2460 N   0  0  0  0  0  0  0  0  0  0  0  0
  184.1210  179.1050  140.3280 N   0  0  0  0  0  2  0  0  0  0  0  0
  183.2700  177.9710  137.9750 S   0  0  0  0  0  0  0  0  0  0  0  0
  190.0090  177.6160  137.9890 N   0  0  0  0  0  2  0  0  0  0  0  0
  191.1070  177.1300  138.8200 C   0  0  1  0  0  3  0  0  0  0  0  0
  190.5550  176.4530  140.0680 C   0  0  0  0  0  2  0  0  0  0  0  0
  188.7820  178.0880  138.5610 C   0  0  0  0  0  0  0  0  0  0  0  0
  187.7830  178.6280  137.7000 N   0  0  0  0  0  1  0  0  0  0  0  0
  189.6290  177.4270  140.7900 C   0  0  0  0  0  2  0  0  0  0  0  0
  188.5500  177.9650  139.8790 C   0  0  0  0  0  0  0  0  0  0  0  0
  193.2930  176.6940  137.9240 O   0  0  0  0  0  1  0  0  0  0  0  0
  191.9970  176.1850  138.0260 C   0  0  0  0  0  2  0  0  0  0  0  0
  1 11  2  0  0  0  0
  1  3  1  0  0  0  0
  2  6  1  0  0  0  0
  3  2  1  0  0  0  0
  4  8  1  0  0  0  0
  6 12  1  0  0  0  0
  7 12  2  0  0  0  0
  8 11  1  0  0  0  0
  8 13  2  0  0  0  0
  9 10  1  0  0  0  0
  9  2  2  0  0  0  0
 10 14  2  0  0  0  0
 11  9  1  0  0  0  0
 13 10  1  0  0  0  0
 14  5  1  0  0  0  0
 14  7  1  0  0  0  0
 15 19  1  0  0  0  0
 16 17  2  0  0  0  0
 17 15  1  0  0  0  0
 18 19  2  0  0  0  0
 18 20  1  0  0  0  0
 20  1  1  0  0  0  0
 21 17  1  0  0  0  0
 21 18  1  0  0  0  0
 22 25  1  0  0  0  0
 22 23  1  0  0  0  0
 23 30  1  6  0  0  0
 23 24  1  0  0  0  0
 24 27  1  0  0  0  0
 25 28  2  0  0  0  0
 26 25  1  0  0  0  0
 28  4  1  0  0  0  0
 28 27  1  0  0  0  0
 29 30  1  0  0  0  0
M  END
>  <MODEL>
8

>  <REMARK>
 VINA RESULT:      -9.0      3.111      5.339
  Name = 
  3 active torsions:
  status: ('A' for Active; 'I' for Inactive)
    1  A    between atoms: C_1  and  N_25
    2  A    between atoms: N_7  and  C_30
    3  A    between atoms: CA_8  and  C_22
                            x       y       z     vdW  Elec       q    Type
                         _______ _______ _______ _____ _____    ______ ____

>  <TORSDO>
F 3

$$$$
=
 OpenBabel11042412053D

 30 34  0  0  1  0  0  0  0  0999 V2000
  187.7340  177.6520  144.6400 C   0  0  0  0  0  0  0  0  0  0  0  0
  185.3190  178.3720  145.0460 C   0  0  0  0  0  0  0  0  0  0  0  0
  186.7790  178.2660  145.9080 S   0  0  0  0  0  0  0  0  0  0  0  0
  188.3660  177.4250  141.4490 N   0  0  0  0  0  2  0  0  0  0  0  0
  183.3210  178.9290  140.8780 C   0  0  0  0  0  1  0  0  0  0  0  0
  184.2060  179.3120  145.3580 C   0  0  0  0  0  2  0  0  0  0  0  0
  182.7480  178.7480  143.3440 C   0  0  0  0  0  3  0  0  0  0  0  0
  187.1120  177.6670  142.0980 C   0  0  0  0  0  0  0  0  0  0  0  0
  185.6140  177.9440  143.7720 C   0  0  0  0  0  0  0  0  0  0  0  0
  185.0350  178.2810  142.4970 C   0  0  0  0  0  0  0  0  0  0  0  0
  186.9030  177.5700  143.5390 C   0  0  0  0  0  0  0  0  0  0  0  0
  182.9210  178.9620  144.6590 C   0  0  0  0  0  3  0  0  0  0  0  0
  186.0370  178.0800  141.4860 N   0  0  0  0  0  0  0  0  0  0  0  0
  183.7780  178.6880  142.2760 C   0  0  0  0  0  0  0  0  0  0  0  0
  190.4910  176.1600  147.6430 N   0  0  0  0  0  2  0  0  0  0  0  0
  192.7790  176.0450  147.7360 O   0  0  0  0  0  0  0  0  0  0  0  0
  191.7220  176.3530  147.1270 C   0  0  0  0  0  0  0  0  0  0  0  0
  189.9890  177.0690  145.6620 C   0  0  0  0  0  0  0  0  0  0  0  0
  189.5210  176.5590  146.8230 N   0  0  0  0  0  0  0  0  0  0  0  0
  189.1610  177.5530  144.6010 N   0  0  0  0  0  2  0  0  0  0  0  0
  191.6720  177.0410  145.5920 S   0  0  0  0  0  0  0  0  0  0  0  0
  190.0570  177.0030  138.1560 N   0  0  0  0  0  2  0  0  0  0  0  0
  189.0900  177.5040  137.1840 C   0  0  1  0  0  3  0  0  0  0  0  0
  188.2420  178.6030  137.8130 C   0  0  0  0  0  2  0  0  0  0  0  0
  189.7590  176.9460  139.5570 C   0  0  0  0  0  0  0  0  0  0  0  0
  190.7140  176.3680  140.4430 N   0  0  0  0  0  1  0  0  0  0  0  0
  187.6020  178.0650  139.0890 C   0  0  0  0  0  2  0  0  0  0  0  0
  188.6260  177.4880  140.0380 C   0  0  0  0  0  0  0  0  0  0  0  0
  189.2360  177.4380  134.7870 O   0  0  0  0  0  1  0  0  0  0  0  0
  189.8000  178.0020  135.9340 C   0  0  0  0  0  2  0  0  0  0  0  0
  1  3  1  0  0  0  0
  2  6  1  0  0  0  0
  2  3  1  0  0  0  0
  4  8  1  0  0  0  0
  5 14  1  0  0  0  0
  7 12  2  0  0  0  0
  8 11  1  0  0  0  0
  9  2  2  0  0  0  0
 10  9  1  0  0  0  0
 11  9  1  0  0  0  0
 11  1  2  0  0  0  0
 12  6  1  0  0  0  0
 13  8  2  0  0  0  0
 13 10  1  0  0  0  0
 14 10  2  0  0  0  0
 14  7  1  0  0  0  0
 17 15  1  0  0  0  0
 17 16  2  0  0  0  0
 18 19  2  0  0  0  0
 19 15  1  0  0  0  0
 20  1  1  0  0  0  0
 20 18  1  0  0  0  0
 21 18  1  0  0  0  0
 21 17  1  0  0  0  0
 22 25  1  0  0  0  0
 23 30  1  6  0  0  0
 23 24  1  0  0  0  0
 23 22  1  0  0  0  0
 24 27  1  0  0  0  0
 25 28  2  0  0  0  0
 25 26  1  0  0  0  0
 27 28  1  0  0  0  0
 28  4  1  0  0  0  0
 29 30  1  0  0  0  0
M  END
>  <MODEL>
9

>  <REMARK>
 VINA RESULT:      -8.7      2.313      6.990
  Name = 
  3 active torsions:
  status: ('A' for Active; 'I' for Inactive)
    1  A    between atoms: C_1  and  N_25
    2  A    between atoms: N_7  and  C_30
    3  A    between atoms: CA_8  and  C_22
                            x       y       z     vdW  Elec       q    Type
                         _______ _______ _______ _____ _____    ______ ____

>  <TORSDO>
F 3

$$$$
