=
 OpenBabel11042412133D

 37 39  0  0  1  0  0  0  0  0999 V2000
  182.5260  179.4780  139.5820 C   0  0  0  0  0  1  0  0  0  0  0  0
  183.2550  178.8600  140.7850 C   0  0  1  0  0  0  0  0  0  0  0  0
  182.6220  179.3370  142.1160 C   0  0  1  0  0  3  0  0  0  0  0  0
  180.8010  179.1820  142.1550 S   0  0  0  0  0  1  0  0  0  0  0  0
  183.2110  178.6310  143.3350 C   0  0  0  0  0  2  0  0  0  0  0  0
  184.2690  179.5020  143.9870 C   0  0  0  0  0  2  0  0  0  0  0  0
  190.9510  177.6900  145.4470 N   0  0  0  0  0  0  0  0  0  0  0  0
  189.2140  176.9180  144.3310 C   0  0  0  0  0  0  0  0  0  0  0  0
  185.3310  178.6500  144.5880 C   0  0  0  0  0  0  0  0  0  0  0  0
  188.2080  176.5900  143.5390 C   0  0  0  0  0  2  0  0  0  0  0  0
  191.4800  176.8190  143.1350 C   0  0  0  0  0  1  0  0  0  0  0  0
  185.9630  177.7430  143.8210 C   0  0  0  0  0  3  0  0  0  0  0  0
  187.5480  177.3670  145.6790 C   0  0  2  0  0  3  0  0  0  0  0  0
  186.9730  176.7890  144.4080 C   0  0  2  0  0  3  0  0  0  0  0  0
  190.5720  177.1030  144.2790 C   0  0  0  0  0  0  0  0  0  0  0  0
  186.7800  178.2610  146.5450 C   0  0  0  0  0  3  0  0  0  0  0  0
  189.8690  177.8540  146.1740 O   0  0  0  0  0  0  0  0  0  0  0  0
  188.8460  177.3790  145.5130 C   0  0  0  0  0  0  0  0  0  0  0  0
  185.7000  178.8500  146.0160 C   0  0  0  0  0  3  0  0  0  0  0  0
  183.0980  177.3310  140.7110 C   0  0  0  0  0  2  0  0  0  0  0  0
  183.2840  175.9530  138.6420 C   0  0  0  0  0  1  0  0  0  0  0  0
  182.3680  176.8470  139.4610 C   0  0  1  0  0  3  0  0  0  0  0  0
  181.1310  176.0700  139.8790 C   0  0  0  0  0  2  0  0  0  0  0  0
  179.9870  174.0360  139.3470 O   0  0  0  0  0  1  0  0  0  0  0  0
  180.6990  175.1000  138.7910 C   0  0  0  0  0  2  0  0  0  0  0  0
  184.6960  179.1600  140.7780 N   0  0  0  0  0  2  0  0  0  0  0  0
  185.2150  179.1060  139.4720 N   0  0  0  0  0  2  0  0  0  0  0  0
  186.2980  178.1370  139.4880 C   0  0  0  0  0  2  0  0  0  0  0  0
  188.6410  178.2810  140.3170 C   0  0  0  0  0  3  0  0  0  0  0  0
  187.3430  178.5600  140.4730 C   0  0  0  0  0  3  0  0  0  0  0  0
  189.1850  177.5030  139.1500 C   0  0  2  0  0  3  0  0  0  0  0  0
  191.5170  177.2120  139.6360 O   0  0  0  0  0  1  0  0  0  0  0  0
  190.2920  176.5450  139.5790 C   0  0  0  0  0  2  0  0  0  0  0  0
  189.6420  178.3810  138.1190 O   0  0  0  0  0  0  0  0  0  0  0  0
  189.3200  178.0150  135.8530 O   0  0  0  0  0  0  0  0  0  0  0  0
  187.8630  179.4970  136.8810 N   0  0  0  0  0  1  0  0  0  0  0  0
  188.9660  178.6000  136.9110 C   0  0  0  0  0  0  0  0  0  0  0  0
  2  1  1  6  0  0  0
  2  3  1  0  0  0  0
  3  4  1  6  0  0  0
  3  5  1  0  0  0  0
  5  6  1  0  0  0  0
  6  9  1  0  0  0  0
  7 17  1  0  0  0  0
  8 18  2  0  0  0  0
  9 19  1  0  0  0  0
 10  8  1  0  0  0  0
 11 15  1  0  0  0  0
 12 14  1  0  0  0  0
 12  9  2  0  0  0  0
 13 16  1  6  0  0  0
 14 10  1  6  0  0  0
 14 13  1  0  0  0  0
 15  8  1  0  0  0  0
 15  7  2  0  0  0  0
 18 13  1  0  0  0  0
 18 17  1  0  0  0  0
 19 16  2  0  0  0  0
 20  2  1  0  0  0  0
 22 21  1  1  0  0  0
 22 23  1  0  0  0  0
 22 20  1  0  0  0  0
 25 24  1  0  0  0  0
 25 23  1  0  0  0  0
 26  2  1  0  0  0  0
 27 28  1  0  0  0  0
 27 26  1  0  0  0  0
 28 30  1  0  0  0  0
 29 30  2  0  0  0  0
 31 33  1  1  0  0  0
 31 29  1  0  0  0  0
 33 32  1  0  0  0  0
 34 31  1  0  0  0  0
 35 37  2  0  0  0  0
 36 37  1  0  0  0  0
 37 34  1  0  0  0  0
M  END
>  <MODEL>
1

>  <REMARK>
 VINA RESULT:      -7.1      0.000      0.000
  Name = 
  16 active torsions:
  status: ('A' for Active; 'I' for Inactive)
    1  A    between atoms: C_2  and  N_6
    2  A    between atoms: C_2  and  C_20
    3  A    between atoms: C_3  and  C_4
    4  A    between atoms: C_4  and  O_10
    5  A    between atoms: C_4  and  C_27
    6  A    between atoms: N_6  and  N_14
    7  A    between atoms: C_8  and  C_15
    8  A    between atoms: C_8  and  C_17
    9  A    between atoms: O_10  and  C_33
   10  A    between atoms: C_11  and  C_29
   11  A    between atoms: C_11  and  C_36
   12  A    between atoms: C_13  and  C_15
   13  A    between atoms: C_13  and  C_16
   14  A    between atoms: N_14  and  C_17
   15  A    between atoms: C_17  and  C_19
   16  A    between atoms: C_19  and  C_29
                            x       y       z     vdW  Elec       q    Type
                         _______ _______ _______ _____ _____    ______ ____

>  <TORSDO>
F 16

$$$$
=
 OpenBabel11042412133D

 37 39  0  0  1  0  0  0  0  0999 V2000
  183.2840  179.4030  138.3660 C   0  0  0  0  0  1  0  0  0  0  0  0
  184.0600  178.6050  139.4250 C   0  0  1  0  0  0  0  0  0  0  0  0
  183.8230  179.1930  140.8390 C   0  0  1  0  0  3  0  0  0  0  0  0
  182.3360  178.5260  141.6660 S   0  0  0  0  0  1  0  0  0  0  0  0
  185.0290  179.0170  141.7580 C   0  0  0  0  0  2  0  0  0  0  0  0
  184.7500  179.6390  143.1150 C   0  0  0  0  0  2  0  0  0  0  0  0
  189.4870  177.9070  148.0770 N   0  0  0  0  0  0  0  0  0  0  0  0
  188.7270  177.1480  146.1520 C   0  0  0  0  0  0  0  0  0  0  0  0
  185.3170  178.7840  144.1930 C   0  0  0  0  0  0  0  0  0  0  0  0
  188.3650  176.8330  144.9210 C   0  0  0  0  0  2  0  0  0  0  0  0
  191.2730  177.1490  146.4570 C   0  0  0  0  0  1  0  0  0  0  0  0
  186.3100  177.9250  143.9010 C   0  0  0  0  0  3  0  0  0  0  0  0
  186.5730  177.5020  146.3220 C   0  0  2  0  0  3  0  0  0  0  0  0
  186.8470  176.9680  144.9360 C   0  0  2  0  0  3  0  0  0  0  0  0
  189.8650  177.3640  146.8870 C   0  0  0  0  0  0  0  0  0  0  0  0
  185.4120  178.3420  146.6170 C   0  0  0  0  0  3  0  0  0  0  0  0
  188.1780  178.0160  148.0620 O   0  0  0  0  0  0  0  0  0  0  0  0
  187.7330  177.5490  146.9250 C   0  0  0  0  0  0  0  0  0  0  0  0
  184.8000  178.9300  145.5820 C   0  0  0  0  0  3  0  0  0  0  0  0
  183.5330  177.1590  139.4220 C   0  0  0  0  0  2  0  0  0  0  0  0
  183.4500  175.9960  137.2190 C   0  0  0  0  0  1  0  0  0  0  0  0
  182.6590  176.8250  138.2170 C   0  0  1  0  0  3  0  0  0  0  0  0
  181.4440  176.0430  138.6870 C   0  0  0  0  0  2  0  0  0  0  0  0
  179.5660  176.6500  140.0420 O   0  0  0  0  0  1  0  0  0  0  0  0
  180.2380  176.9520  138.8560 C   0  0  0  0  0  2  0  0  0  0  0  0
  185.5020  178.5530  139.1370 N   0  0  0  0  0  2  0  0  0  0  0  0
  185.7470  178.7130  137.7610 N   0  0  0  0  0  2  0  0  0  0  0  0
  187.1320  178.3350  137.5330 C   0  0  0  0  0  2  0  0  0  0  0  0
  188.3010  176.1740  137.9380 C   0  0  0  0  0  3  0  0  0  0  0  0
  187.2470  176.8450  137.4600 C   0  0  0  0  0  3  0  0  0  0  0  0
  189.4840  176.8430  138.5800 C   0  0  2  0  0  3  0  0  0  0  0  0
  190.9840  175.0170  138.1640 O   0  0  0  0  0  1  0  0  0  0  0  0
  190.7980  176.3850  137.9570 C   0  0  0  0  0  2  0  0  0  0  0  0
  189.4870  176.6270  139.9930 O   0  0  0  0  0  0  0  0  0  0  0  0
  188.4310  178.4870  140.8860 O   0  0  0  0  0  0  0  0  0  0  0  0
  190.3100  177.7240  142.0080 N   0  0  0  0  0  1  0  0  0  0  0  0
  189.3650  177.6440  140.9490 C   0  0  0  0  0  0  0  0  0  0  0  0
  2  1  1  6  0  0  0
  2  3  1  0  0  0  0
  3  4  1  1  0  0  0
  3  5  1  0  0  0  0
  5  6  1  0  0  0  0
  6  9  1  0  0  0  0
  8 15  1  0  0  0  0
  8 18  2  0  0  0  0
  9 19  1  0  0  0  0
 10 14  1  0  0  0  0
 10  8  1  0  0  0  0
 11 15  1  0  0  0  0
 12  9  2  0  0  0  0
 13 16  1  6  0  0  0
 13 18  1  0  0  0  0
 14 12  1  6  0  0  0
 14 13  1  0  0  0  0
 15  7  2  0  0  0  0
 17  7  1  0  0  0  0
 18 17  1  0  0  0  0
 19 16  2  0  0  0  0
 20  2  1  0  0  0  0
 22 21  1  6  0  0  0
 22 23  1  0  0  0  0
 22 20  1  0  0  0  0
 23 25  1  0  0  0  0
 25 24  1  0  0  0  0
 26  2  1  0  0  0  0
 27 26  1  0  0  0  0
 28 27  1  0  0  0  0
 30 28  1  0  0  0  0
 30 29  2  0  0  0  0
 31 29  1  6  0  0  0
 31 34  1  0  0  0  0
 33 32  1  0  0  0  0
 33 31  1  0  0  0  0
 34 37  1  0  0  0  0
 35 37  2  0  0  0  0
 37 36  1  0  0  0  0
M  END
>  <MODEL>
2

>  <REMARK>
 VINA RESULT:      -6.8      1.812      2.408
  Name = 
  16 active torsions:
  status: ('A' for Active; 'I' for Inactive)
    1  A    between atoms: C_2  and  N_6
    2  A    between atoms: C_2  and  C_20
    3  A    between atoms: C_3  and  C_4
    4  A    between atoms: C_4  and  O_10
    5  A    between atoms: C_4  and  C_27
    6  A    between atoms: N_6  and  N_14
    7  A    between atoms: C_8  and  C_15
    8  A    between atoms: C_8  and  C_17
    9  A    between atoms: O_10  and  C_33
   10  A    between atoms: C_11  and  C_29
   11  A    between atoms: C_11  and  C_36
   12  A    between atoms: C_13  and  C_15
   13  A    between atoms: C_13  and  C_16
   14  A    between atoms: N_14  and  C_17
   15  A    between atoms: C_17  and  C_19
   16  A    between atoms: C_19  and  C_29
                            x       y       z     vdW  Elec       q    Type
                         _______ _______ _______ _____ _____    ______ ____

>  <TORSDO>
F 16

$$$$
=
 OpenBabel11042412133D

 37 39  0  0  1  0  0  0  0  0999 V2000
  183.1360  180.1890  138.7770 C   0  0  0  0  0  1  0  0  0  0  0  0
  183.2040  178.8700  139.5610 C   0  0  1  0  0  0  0  0  0  0  0  0
  182.8290  179.0940  141.0480 C   0  0  1  0  0  3  0  0  0  0  0  0
  181.0620  178.7970  141.4080 S   0  0  0  0  0  1  0  0  0  0  0  0
  183.6820  178.2620  142.0020 C   0  0  0  0  0  2  0  0  0  0  0  0
  184.2920  179.1500  143.0720 C   0  0  0  0  0  2  0  0  0  0  0  0
  190.9480  177.9500  145.1490 N   0  0  0  0  0  0  0  0  0  0  0  0
  189.3770  176.9940  143.9350 C   0  0  0  0  0  0  0  0  0  0  0  0
  185.3620  178.4120  143.7960 C   0  0  0  0  0  0  0  0  0  0  0  0
  188.4700  176.5530  143.0810 C   0  0  0  0  0  2  0  0  0  0  0  0
  191.7360  177.0310  142.9300 C   0  0  0  0  0  1  0  0  0  0  0  0
  186.1250  177.5290  143.1260 C   0  0  0  0  0  3  0  0  0  0  0  0
  187.5730  177.3600  145.1210 C   0  0  2  0  0  3  0  0  0  0  0  0
  187.1540  176.6850  143.8370 C   0  0  2  0  0  3  0  0  0  0  0  0
  190.7150  177.2870  143.9830 C   0  0  0  0  0  0  0  0  0  0  0  0
  186.6680  178.2230  145.8800 C   0  0  0  0  0  3  0  0  0  0  0  0
  189.8000  178.0540  145.7780 O   0  0  0  0  0  0  0  0  0  0  0  0
  188.8760  177.4710  145.0600 C   0  0  0  0  0  0  0  0  0  0  0  0
  185.5940  178.7000  145.2380 C   0  0  0  0  0  3  0  0  0  0  0  0
  182.1760  177.8960  138.9590 C   0  0  0  0  0  2  0  0  0  0  0  0
  181.6810  175.5300  139.5680 C   0  0  0  0  0  1  0  0  0  0  0  0
  182.6700  176.4540  138.8760 C   0  0  1  0  0  3  0  0  0  0  0  0
  182.8070  176.0600  137.4150 C   0  0  0  0  0  2  0  0  0  0  0  0
  183.4600  177.4780  135.6000 O   0  0  0  0  0  1  0  0  0  0  0  0
  182.4260  177.2120  136.4990 C   0  0  0  0  0  2  0  0  0  0  0  0
  184.5280  178.2340  139.4680 N   0  0  0  0  0  2  0  0  0  0  0  0
  185.3320  178.8830  138.5140 N   0  0  0  0  0  2  0  0  0  0  0  0
  186.0990  177.8500  137.8360 C   0  0  0  0  0  2  0  0  0  0  0  0
  188.4550  178.2140  137.1170 C   0  0  0  0  0  3  0  0  0  0  0  0
  187.1510  178.4800  136.9790 C   0  0  0  0  0  3  0  0  0  0  0  0
  189.0000  177.2730  138.1550 C   0  0  2  0  0  3  0  0  0  0  0  0
  188.6100  178.4720  140.1970 O   0  0  0  0  0  1  0  0  0  0  0  0
  189.6110  178.0250  139.3330 C   0  0  0  0  0  2  0  0  0  0  0  0
  189.9480  176.3720  137.5780 O   0  0  0  0  0  0  0  0  0  0  0  0
  190.5770  174.1420  137.6280 O   0  0  0  0  0  0  0  0  0  0  0  0
  188.4610  174.6030  136.8040 N   0  0  0  0  0  1  0  0  0  0  0  0
  189.7070  175.0100  137.3520 C   0  0  0  0  0  0  0  0  0  0  0  0
  2  1  1  6  0  0  0
  2  3  1  0  0  0  0
  3  4  1  6  0  0  0
  3  5  1  0  0  0  0
  5  6  1  0  0  0  0
  6  9  1  0  0  0  0
  7 17  1  0  0  0  0
  8 15  1  0  0  0  0
  8 18  2  0  0  0  0
  9 19  1  0  0  0  0
 10  8  1  0  0  0  0
 11 15  1  0  0  0  0
 12  9  2  0  0  0  0
 12 14  1  0  0  0  0
 13 16  1  6  0  0  0
 14 10  1  6  0  0  0
 14 13  1  0  0  0  0
 15  7  2  0  0  0  0
 18 13  1  0  0  0  0
 18 17  1  0  0  0  0
 19 16  2  0  0  0  0
 20  2  1  0  0  0  0
 22 20  1  0  0  0  0
 22 21  1  6  0  0  0
 23 22  1  0  0  0  0
 24 25  1  0  0  0  0
 25 23  1  0  0  0  0
 26  2  1  0  0  0  0
 27 26  1  0  0  0  0
 28 27  1  0  0  0  0
 30 29  2  0  0  0  0
 30 28  1  0  0  0  0
 31 29  1  6  0  0  0
 31 33  1  0  0  0  0
 33 32  1  0  0  0  0
 34 31  1  0  0  0  0
 36 37  1  0  0  0  0
 37 34  1  0  0  0  0
 37 35  2  0  0  0  0
M  END
>  <MODEL>
3

>  <REMARK>
 VINA RESULT:      -6.7      1.824      2.240
  Name = 
  16 active torsions:
  status: ('A' for Active; 'I' for Inactive)
    1  A    between atoms: C_2  and  N_6
    2  A    between atoms: C_2  and  C_20
    3  A    between atoms: C_3  and  C_4
    4  A    between atoms: C_4  and  O_10
    5  A    between atoms: C_4  and  C_27
    6  A    between atoms: N_6  and  N_14
    7  A    between atoms: C_8  and  C_15
    8  A    between atoms: C_8  and  C_17
    9  A    between atoms: O_10  and  C_33
   10  A    between atoms: C_11  and  C_29
   11  A    between atoms: C_11  and  C_36
   12  A    between atoms: C_13  and  C_15
   13  A    between atoms: C_13  and  C_16
   14  A    between atoms: N_14  and  C_17
   15  A    between atoms: C_17  and  C_19
   16  A    between atoms: C_19  and  C_29
                            x       y       z     vdW  Elec       q    Type
                         _______ _______ _______ _____ _____    ______ ____

>  <TORSDO>
F 16

$$$$
=
 OpenBabel11042412133D

 37 39  0  0  1  0  0  0  0  0999 V2000
  183.5510  179.5730  138.7000 C   0  0  0  0  0  1  0  0  0  0  0  0
  184.0600  178.6600  139.8270 C   0  0  1  0  0  0  0  0  0  0  0  0
  183.8240  179.3120  141.2120 C   0  0  1  0  0  3  0  0  0  0  0  0
  182.4000  178.6070  142.1170 S   0  0  0  0  0  1  0  0  0  0  0  0
  185.0600  179.2610  142.1050 C   0  0  0  0  0  2  0  0  0  0  0  0
  184.7050  179.6860  143.5190 C   0  0  0  0  0  2  0  0  0  0  0  0
  189.9420  177.7410  147.8620 N   0  0  0  0  0  0  0  0  0  0  0  0
  188.9540  177.0490  146.0170 C   0  0  0  0  0  0  0  0  0  0  0  0
  185.3750  178.7920  144.5030 C   0  0  0  0  0  0  0  0  0  0  0  0
  188.4490  176.7750  144.8270 C   0  0  0  0  0  2  0  0  0  0  0  0
  191.5180  177.0030  146.0300 C   0  0  0  0  0  1  0  0  0  0  0  0
  186.3130  177.9260  144.0770 C   0  0  0  0  0  3  0  0  0  0  0  0
  186.8400  177.4310  146.4400 C   0  0  2  0  0  3  0  0  0  0  0  0
  186.9460  176.9320  145.0180 C   0  0  2  0  0  3  0  0  0  0  0  0
  190.1720  177.2270  146.6230 C   0  0  0  0  0  0  0  0  0  0  0  0
  185.7360  178.2790  146.8880 C   0  0  0  0  0  3  0  0  0  0  0  0
  188.6420  177.8710  147.9990 O   0  0  0  0  0  0  0  0  0  0  0  0
  188.0620  177.4430  146.9080 C   0  0  0  0  0  0  0  0  0  0  0  0
  185.0220  178.9060  145.9440 C   0  0  0  0  0  3  0  0  0  0  0  0
  183.2610  177.3460  139.7820 C   0  0  0  0  0  2  0  0  0  0  0  0
  182.9830  176.2000  137.5860 C   0  0  0  0  0  1  0  0  0  0  0  0
  182.3750  177.2070  138.5480 C   0  0  1  0  0  3  0  0  0  0  0  0
  180.9950  176.7380  138.9790 C   0  0  0  0  0  2  0  0  0  0  0  0
  180.3100  174.4460  138.8730 O   0  0  0  0  0  1  0  0  0  0  0  0
  180.5070  175.5940  138.1040 C   0  0  0  0  0  2  0  0  0  0  0  0
  185.4840  178.3210  139.6680 N   0  0  0  0  0  2  0  0  0  0  0  0
  185.9420  178.6610  138.3820 N   0  0  0  0  0  2  0  0  0  0  0  0
  187.0970  177.8230  138.1110 C   0  0  0  0  0  2  0  0  0  0  0  0
  189.3950  178.2620  138.9630 C   0  0  0  0  0  3  0  0  0  0  0  0
  188.3500  178.6350  138.2170 C   0  0  0  0  0  3  0  0  0  0  0  0
  189.4170  177.0030  139.7840 C   0  0  2  0  0  3  0  0  0  0  0  0
  188.5580  178.5570  141.3980 O   0  0  0  0  0  1  0  0  0  0  0  0
  189.1030  177.2810  141.2510 C   0  0  0  0  0  2  0  0  0  0  0  0
  190.6700  176.3280  139.6500 O   0  0  0  0  0  0  0  0  0  0  0  0
  190.7210  174.6670  138.0350 O   0  0  0  0  0  0  0  0  0  0  0  0
  192.1240  176.4810  137.7000 N   0  0  0  0  0  1  0  0  0  0  0  0
  191.1460  175.7760  138.4540 C   0  0  0  0  0  0  0  0  0  0  0  0
  2  1  1  6  0  0  0
  2  3  1  0  0  0  0
  3  5  1  0  0  0  0
  3  4  1  1  0  0  0
  5  6  1  0  0  0  0
  6  9  1  0  0  0  0
  7 17  1  0  0  0  0
  8 15  1  0  0  0  0
  8 18  2  0  0  0  0
  9 19  1  0  0  0  0
 10 14  1  0  0  0  0
 10  8  1  0  0  0  0
 11 15  1  0  0  0  0
 12  9  2  0  0  0  0
 13 16  1  6  0  0  0
 13 18  1  0  0  0  0
 14 12  1  6  0  0  0
 14 13  1  0  0  0  0
 15  7  2  0  0  0  0
 18 17  1  0  0  0  0
 19 16  2  0  0  0  0
 20  2  1  0  0  0  0
 22 21  1  6  0  0  0
 22 23  1  0  0  0  0
 22 20  1  0  0  0  0
 25 24  1  0  0  0  0
 25 23  1  0  0  0  0
 26  2  1  0  0  0  0
 27 26  1  0  0  0  0
 28 30  1  0  0  0  0
 28 27  1  0  0  0  0
 30 29  2  0  0  0  0
 31 29  1  6  0  0  0
 31 33  1  0  0  0  0
 33 32  1  0  0  0  0
 34 31  1  0  0  0  0
 35 37  2  0  0  0  0
 36 37  1  0  0  0  0
 37 34  1  0  0  0  0
M  END
>  <MODEL>
4

>  <REMARK>
 VINA RESULT:      -6.7      1.696      2.078
  Name = 
  16 active torsions:
  status: ('A' for Active; 'I' for Inactive)
    1  A    between atoms: C_2  and  N_6
    2  A    between atoms: C_2  and  C_20
    3  A    between atoms: C_3  and  C_4
    4  A    between atoms: C_4  and  O_10
    5  A    between atoms: C_4  and  C_27
    6  A    between atoms: N_6  and  N_14
    7  A    between atoms: C_8  and  C_15
    8  A    between atoms: C_8  and  C_17
    9  A    between atoms: O_10  and  C_33
   10  A    between atoms: C_11  and  C_29
   11  A    between atoms: C_11  and  C_36
   12  A    between atoms: C_13  and  C_15
   13  A    between atoms: C_13  and  C_16
   14  A    between atoms: N_14  and  C_17
   15  A    between atoms: C_17  and  C_19
   16  A    between atoms: C_19  and  C_29
                            x       y       z     vdW  Elec       q    Type
                         _______ _______ _______ _____ _____    ______ ____

>  <TORSDO>
F 16

$$$$
=
 OpenBabel11042412133D

 37 39  0  0  1  0  0  0  0  0999 V2000
  180.0990  177.8660  141.3680 C   0  0  0  0  0  1  0  0  0  0  0  0
  181.2660  178.8530  141.5230 C   0  0  1  0  0  0  0  0  0  0  0  0
  181.4510  179.2560  143.0070 C   0  0  1  0  0  3  0  0  0  0  0  0
  179.9280  179.0880  144.0050 S   0  0  0  0  0  1  0  0  0  0  0  0
  182.5830  178.4910  143.6880 C   0  0  0  0  0  2  0  0  0  0  0  0
  183.6460  179.4550  144.1840 C   0  0  0  0  0  2  0  0  0  0  0  0
  190.6070  178.3060  144.7190 N   0  0  0  0  0  0  0  0  0  0  0  0
  188.8260  177.3870  143.8030 C   0  0  0  0  0  0  0  0  0  0  0  0
  184.8560  178.7020  144.6130 C   0  0  0  0  0  0  0  0  0  0  0  0
  187.7630  176.9770  143.1320 C   0  0  0  0  0  2  0  0  0  0  0  0
  190.9160  177.5530  142.3270 C   0  0  0  0  0  1  0  0  0  0  0  0
  185.4700  177.8840  143.7390 C   0  0  0  0  0  3  0  0  0  0  0  0
  187.3120  177.6280  145.3660 C   0  0  2  0  0  3  0  0  0  0  0  0
  186.6370  177.0260  144.1570 C   0  0  2  0  0  3  0  0  0  0  0  0
  190.1400  177.7130  143.5860 C   0  0  0  0  0  0  0  0  0  0  0  0
  186.5770  178.4170  146.3560 C   0  0  0  0  0  3  0  0  0  0  0  0
  189.6170  178.3400  145.5820 O   0  0  0  0  0  0  0  0  0  0  0  0
  188.5700  177.7780  145.0380 C   0  0  0  0  0  0  0  0  0  0  0  0
  185.3850  178.9040  145.9900 C   0  0  0  0  0  3  0  0  0  0  0  0
  182.5560  178.1540  141.0600 C   0  0  0  0  0  2  0  0  0  0  0  0
  184.7830  179.1440  140.5380 C   0  0  0  0  0  1  0  0  0  0  0  0
  183.3590  178.9580  140.0410 C   0  0  1  0  0  3  0  0  0  0  0  0
  183.3690  178.2110  138.7180 C   0  0  0  0  0  2  0  0  0  0  0  0
  184.8490  176.9670  137.3060 O   0  0  0  0  0  1  0  0  0  0  0  0
  184.7870  178.0400  138.1960 C   0  0  0  0  0  2  0  0  0  0  0  0
  181.0900  180.0570  140.6940 N   0  0  0  0  0  2  0  0  0  0  0  0
  179.7260  180.3180  140.4690 N   0  0  0  0  0  2  0  0  0  0  0  0
  179.6550  181.2720  139.3750 C   0  0  0  0  0  2  0  0  0  0  0  0
  181.2350  181.6400  137.4860 C   0  0  0  0  0  3  0  0  0  0  0  0
  181.0190  181.4840  138.7960 C   0  0  0  0  0  3  0  0  0  0  0  0
  180.1380  181.6030  136.4570 C   0  0  2  0  0  3  0  0  0  0  0  0
  181.1020  179.4520  136.0060 O   0  0  0  0  0  1  0  0  0  0  0  0
  180.3580  180.4880  135.4400 C   0  0  0  0  0  2  0  0  0  0  0  0
  180.0060  182.8690  135.8070 O   0  0  0  0  0  0  0  0  0  0  0  0
  179.4130  184.4760  137.3690 O   0  0  0  0  0  0  0  0  0  0  0  0
  181.2470  184.9540  136.0340 N   0  0  0  0  0  1  0  0  0  0  0  0
  180.1820  184.1060  136.4420 C   0  0  0  0  0  0  0  0  0  0  0  0
  2  1  1  6  0  0  0
  2  3  1  0  0  0  0
  3  5  1  0  0  0  0
  3  4  1  1  0  0  0
  5  6  1  0  0  0  0
  6  9  1  0  0  0  0
  7 17  1  0  0  0  0
  8 18  2  0  0  0  0
  9 19  1  0  0  0  0
 10  8  1  0  0  0  0
 11 15  1  0  0  0  0
 12 14  1  0  0  0  0
 12  9  2  0  0  0  0
 13 16  1  6  0  0  0
 14 10  1  6  0  0  0
 14 13  1  0  0  0  0
 15  8  1  0  0  0  0
 15  7  2  0  0  0  0
 18 13  1  0  0  0  0
 18 17  1  0  0  0  0
 19 16  2  0  0  0  0
 20  2  1  0  0  0  0
 22 21  1  1  0  0  0
 22 20  1  0  0  0  0
 23 22  1  0  0  0  0
 24 25  1  0  0  0  0
 25 23  1  0  0  0  0
 26  2  1  0  0  0  0
 27 26  1  0  0  0  0
 28 27  1  0  0  0  0
 29 30  2  0  0  0  0
 30 28  1  0  0  0  0
 31 33  1  6  0  0  0
 31 29  1  0  0  0  0
 33 32  1  0  0  0  0
 34 37  1  0  0  0  0
 34 31  1  0  0  0  0
 36 37  1  0  0  0  0
 37 35  2  0  0  0  0
M  END
>  <MODEL>
5

>  <REMARK>
 VINA RESULT:      -6.6      3.726      5.596
  Name = 
  16 active torsions:
  status: ('A' for Active; 'I' for Inactive)
    1  A    between atoms: C_2  and  N_6
    2  A    between atoms: C_2  and  C_20
    3  A    between atoms: C_3  and  C_4
    4  A    between atoms: C_4  and  O_10
    5  A    between atoms: C_4  and  C_27
    6  A    between atoms: N_6  and  N_14
    7  A    between atoms: C_8  and  C_15
    8  A    between atoms: C_8  and  C_17
    9  A    between atoms: O_10  and  C_33
   10  A    between atoms: C_11  and  C_29
   11  A    between atoms: C_11  and  C_36
   12  A    between atoms: C_13  and  C_15
   13  A    between atoms: C_13  and  C_16
   14  A    between atoms: N_14  and  C_17
   15  A    between atoms: C_17  and  C_19
   16  A    between atoms: C_19  and  C_29
                            x       y       z     vdW  Elec       q    Type
                         _______ _______ _______ _____ _____    ______ ____

>  <TORSDO>
F 16

$$$$
=
 OpenBabel11042412133D

 37 39  0  0  1  0  0  0  0  0999 V2000
  183.3620  180.2150  138.7280 C   0  0  0  0  0  1  0  0  0  0  0  0
  183.2310  178.8950  139.5040 C   0  0  1  0  0  0  0  0  0  0  0  0
  183.2460  179.1520  141.0320 C   0  0  1  0  0  3  0  0  0  0  0  0
  181.8500  178.3710  141.9170 S   0  0  0  0  0  1  0  0  0  0  0  0
  184.5560  178.7250  141.6870 C   0  0  0  0  0  2  0  0  0  0  0  0
  184.8550  179.6050  142.8880 C   0  0  0  0  0  2  0  0  0  0  0  0
  189.3980  177.9580  148.0560 N   0  0  0  0  0  0  0  0  0  0  0  0
  188.6860  177.1490  146.1330 C   0  0  0  0  0  0  0  0  0  0  0  0
  185.3710  178.7770  144.0110 C   0  0  0  0  0  0  0  0  0  0  0  0
  188.3580  176.7990  144.9020 C   0  0  0  0  0  2  0  0  0  0  0  0
  191.2210  177.1170  146.5210 C   0  0  0  0  0  1  0  0  0  0  0  0
  186.3580  177.8920  143.7800 C   0  0  0  0  0  3  0  0  0  0  0  0
  186.5350  177.5450  146.2200 C   0  0  2  0  0  3  0  0  0  0  0  0
  186.8440  176.9610  144.8620 C   0  0  2  0  0  3  0  0  0  0  0  0
  189.8040  177.3700  146.8970 C   0  0  0  0  0  0  0  0  0  0  0  0
  185.3800  178.4140  146.4500 C   0  0  0  0  0  3  0  0  0  0  0  0
  188.0920  178.0890  147.9940 O   0  0  0  0  0  0  0  0  0  0  0  0
  187.6760  177.5920  146.8590 C   0  0  0  0  0  0  0  0  0  0  0  0
  184.8130  178.9780  145.3760 C   0  0  0  0  0  3  0  0  0  0  0  0
  181.8770  178.2570  139.1470 C   0  0  0  0  0  2  0  0  0  0  0  0
  180.5670  178.3470  137.0290 C   0  0  0  0  0  1  0  0  0  0  0  0
  181.0000  179.1320  138.2550 C   0  0  1  0  0  3  0  0  0  0  0  0
  179.7780  179.5750  139.0420 C   0  0  0  0  0  2  0  0  0  0  0  0
  179.9180  181.1720  140.8190 O   0  0  0  0  0  1  0  0  0  0  0  0
  179.8770  181.0410  139.4310 C   0  0  0  0  0  2  0  0  0  0  0  0
  184.2840  177.9320  139.1460 N   0  0  0  0  0  2  0  0  0  0  0  0
  185.2740  178.5390  138.3530 N   0  0  0  0  0  2  0  0  0  0  0  0
  185.9330  177.4760  137.6140 C   0  0  0  0  0  2  0  0  0  0  0  0
  188.0490  178.1030  136.4590 C   0  0  0  0  0  3  0  0  0  0  0  0
  186.7120  178.0570  136.4750 C   0  0  0  0  0  3  0  0  0  0  0  0
  188.9060  177.5940  137.5850 C   0  0  2  0  0  3  0  0  0  0  0  0
  188.4140  178.6800  139.6660 O   0  0  0  0  0  1  0  0  0  0  0  0
  189.2690  178.7050  138.5640 C   0  0  0  0  0  2  0  0  0  0  0  0
  190.0810  176.9540  137.0810 O   0  0  0  0  0  0  0  0  0  0  0  0
  190.5820  175.1330  138.4250 O   0  0  0  0  0  0  0  0  0  0  0  0
  192.3080  176.6250  138.0160 N   0  0  0  0  0  1  0  0  0  0  0  0
  190.9630  176.1930  137.8610 C   0  0  0  0  0  0  0  0  0  0  0  0
  2  1  1  6  0  0  0
  2  3  1  0  0  0  0
  3  5  1  0  0  0  0
  3  4  1  1  0  0  0
  5  6  1  0  0  0  0
  6  9  1  0  0  0  0
  8 18  2  0  0  0  0
  8 15  1  0  0  0  0
  9 19  1  0  0  0  0
 10  8  1  0  0  0  0
 11 15  1  0  0  0  0
 12  9  2  0  0  0  0
 13 16  1  6  0  0  0
 13 18  1  0  0  0  0
 14 12  1  6  0  0  0
 14 10  1  0  0  0  0
 14 13  1  0  0  0  0
 15  7  2  0  0  0  0
 17  7  1  0  0  0  0
 18 17  1  0  0  0  0
 19 16  2  0  0  0  0
 20  2  1  0  0  0  0
 22 21  1  6  0  0  0
 22 23  1  0  0  0  0
 22 20  1  0  0  0  0
 23 25  1  0  0  0  0
 25 24  1  0  0  0  0
 26  2  1  0  0  0  0
 27 26  1  0  0  0  0
 28 27  1  0  0  0  0
 29 30  2  0  0  0  0
 30 28  1  0  0  0  0
 31 29  1  6  0  0  0
 31 33  1  0  0  0  0
 33 32  1  0  0  0  0
 34 31  1  0  0  0  0
 34 37  1  0  0  0  0
 37 36  1  0  0  0  0
 37 35  2  0  0  0  0
M  END
>  <MODEL>
6

>  <REMARK>
 VINA RESULT:      -6.4      2.276      2.933
  Name = 
  16 active torsions:
  status: ('A' for Active; 'I' for Inactive)
    1  A    between atoms: C_2  and  N_6
    2  A    between atoms: C_2  and  C_20
    3  A    between atoms: C_3  and  C_4
    4  A    between atoms: C_4  and  O_10
    5  A    between atoms: C_4  and  C_27
    6  A    between atoms: N_6  and  N_14
    7  A    between atoms: C_8  and  C_15
    8  A    between atoms: C_8  and  C_17
    9  A    between atoms: O_10  and  C_33
   10  A    between atoms: C_11  and  C_29
   11  A    between atoms: C_11  and  C_36
   12  A    between atoms: C_13  and  C_15
   13  A    between atoms: C_13  and  C_16
   14  A    between atoms: N_14  and  C_17
   15  A    between atoms: C_17  and  C_19
   16  A    between atoms: C_19  and  C_29
                            x       y       z     vdW  Elec       q    Type
                         _______ _______ _______ _____ _____    ______ ____

>  <TORSDO>
F 16

$$$$
=
 OpenBabel11042412133D

 37 39  0  0  1  0  0  0  0  0999 V2000
  188.0960  176.3090  143.2100 C   0  0  0  0  0  1  0  0  0  0  0  0
  188.4020  177.8110  143.1160 C   0  0  1  0  0  0  0  0  0  0  0  0
  189.1380  178.1410  141.7930 C   0  0  1  0  0  3  0  0  0  0  0  0
  190.1430  176.7540  141.1520 S   0  0  0  0  0  1  0  0  0  0  0  0
  188.1910  178.6210  140.6970 C   0  0  0  0  0  2  0  0  0  0  0  0
  188.7220  178.2230  139.3310 C   0  0  0  0  0  2  0  0  0  0  0  0
  183.0480  174.3590  137.6170 N   0  0  0  0  0  0  0  0  0  0  0  0
  185.1150  174.6920  136.9290 C   0  0  0  0  0  0  0  0  0  0  0  0
  187.5990  177.8000  138.4520 C   0  0  0  0  0  0  0  0  0  0  0  0
  186.4060  174.7970  136.6670 C   0  0  0  0  0  2  0  0  0  0  0  0
  184.3380  172.2540  137.0810 C   0  0  0  0  0  1  0  0  0  0  0  0
  187.7400  176.7070  137.6800 C   0  0  0  0  0  3  0  0  0  0  0  0
  185.3360  176.8620  137.1280 C   0  0  2  0  0  3  0  0  0  0  0  0
  186.6700  176.2970  136.6990 C   0  0  2  0  0  3  0  0  0  0  0  0
  184.1700  173.7290  137.1750 C   0  0  0  0  0  0  0  0  0  0  0  0
  185.2240  178.1180  137.8680 C   0  0  0  0  0  3  0  0  0  0  0  0
  183.3030  175.6480  137.6400 O   0  0  0  0  0  0  0  0  0  0  0  0
  184.5240  175.8390  137.2140 C   0  0  0  0  0  0  0  0  0  0  0  0
  186.3270  178.5730  138.4770 C   0  0  0  0  0  3  0  0  0  0  0  0
  187.0690  178.5780  143.1170 C   0  0  0  0  0  2  0  0  0  0  0  0
  185.9440  178.2240  145.3130 C   0  0  0  0  0  1  0  0  0  0  0  0
  185.9400  177.8490  143.8400 C   0  0  1  0  0  3  0  0  0  0  0  0
  184.6130  178.2430  143.2130 C   0  0  0  0  0  2  0  0  0  0  0  0
  182.5130  178.6140  144.3000 O   0  0  0  0  0  1  0  0  0  0  0  0
  183.8030  179.1240  144.1510 C   0  0  0  0  0  2  0  0  0  0  0  0
  189.1920  178.2910  144.2620 N   0  0  0  0  0  2  0  0  0  0  0  0
  190.3310  178.9930  143.8300 N   0  0  0  0  0  2  0  0  0  0  0  0
  191.4370  178.5570  144.6670 C   0  0  0  0  0  2  0  0  0  0  0  0
  191.6590  176.2110  145.4690 C   0  0  0  0  0  3  0  0  0  0  0  0
  191.6800  177.0940  144.4650 C   0  0  0  0  0  3  0  0  0  0  0  0
  191.4070  176.5930  146.9010 C   0  0  2  0  0  3  0  0  0  0  0  0
  192.8260  176.7490  148.8290 O   0  0  0  0  0  1  0  0  0  0  0  0
  192.3550  175.8710  147.8530 C   0  0  0  0  0  2  0  0  0  0  0  0
  190.0440  176.3530  147.2600 O   0  0  0  0  0  0  0  0  0  0  0  0
  187.9670  177.1140  147.9530 O   0  0  0  0  0  0  0  0  0  0  0  0
  189.7820  178.4770  148.4270 N   0  0  0  0  0  1  0  0  0  0  0  0
  189.2120  177.2970  147.8770 C   0  0  0  0  0  0  0  0  0  0  0  0
  2 20  1  0  0  0  0
  2  1  1  1  0  0  0
  2 26  1  0  0  0  0
  3  4  1  6  0  0  0
  3  2  1  0  0  0  0
  5  3  1  0  0  0  0
  6  5  1  0  0  0  0
  7 17  1  0  0  0  0
  8 15  1  0  0  0  0
  8 18  2  0  0  0  0
  9 19  1  0  0  0  0
  9  6  1  0  0  0  0
 10  8  1  0  0  0  0
 11 15  1  0  0  0  0
 12  9  2  0  0  0  0
 13 18  1  0  0  0  0
 13 16  1  1  0  0  0
 14 10  1  1  0  0  0
 14 13  1  0  0  0  0
 14 12  1  0  0  0  0
 15  7  2  0  0  0  0
 16 19  2  0  0  0  0
 18 17  1  0  0  0  0
 20 22  1  0  0  0  0
 22 21  1  1  0  0  0
 23 22  1  0  0  0  0
 23 25  1  0  0  0  0
 25 24  1  0  0  0  0
 27 26  1  0  0  0  0
 27 28  1  0  0  0  0
 30 28  1  0  0  0  0
 30 29  2  0  0  0  0
 31 29  1  6  0  0  0
 31 34  1  0  0  0  0
 31 33  1  0  0  0  0
 33 32  1  0  0  0  0
 34 37  1  0  0  0  0
 37 35  2  0  0  0  0
 37 36  1  0  0  0  0
M  END
>  <MODEL>
7

>  <REMARK>
 VINA RESULT:      -6.3      3.707      8.259
  Name = 
  16 active torsions:
  status: ('A' for Active; 'I' for Inactive)
    1  A    between atoms: C_2  and  N_6
    2  A    between atoms: C_2  and  C_20
    3  A    between atoms: C_3  and  C_4
    4  A    between atoms: C_4  and  O_10
    5  A    between atoms: C_4  and  C_27
    6  A    between atoms: N_6  and  N_14
    7  A    between atoms: C_8  and  C_15
    8  A    between atoms: C_8  and  C_17
    9  A    between atoms: O_10  and  C_33
   10  A    between atoms: C_11  and  C_29
   11  A    between atoms: C_11  and  C_36
   12  A    between atoms: C_13  and  C_15
   13  A    between atoms: C_13  and  C_16
   14  A    between atoms: N_14  and  C_17
   15  A    between atoms: C_17  and  C_19
   16  A    between atoms: C_19  and  C_29
                            x       y       z     vdW  Elec       q    Type
                         _______ _______ _______ _____ _____    ______ ____

>  <TORSDO>
F 16

$$$$
=
 OpenBabel11042412133D

 37 39  0  0  1  0  0  0  0  0999 V2000
  183.6600  180.3310  138.9150 C   0  0  0  0  0  1  0  0  0  0  0  0
  183.5870  178.9650  139.6150 C   0  0  1  0  0  0  0  0  0  0  0  0
  183.1840  179.1310  141.1020 C   0  0  1  0  0  3  0  0  0  0  0  0
  181.4610  178.6300  141.4510 S   0  0  0  0  0  1  0  0  0  0  0  0
  184.1220  178.3910  142.0520 C   0  0  0  0  0  2  0  0  0  0  0  0
  184.8090  179.3730  142.9840 C   0  0  0  0  0  2  0  0  0  0  0  0
  189.4250  178.2160  148.2200 N   0  0  0  0  0  0  0  0  0  0  0  0
  188.6740  177.2220  146.4020 C   0  0  0  0  0  0  0  0  0  0  0  0
  185.3370  178.6590  144.1780 C   0  0  0  0  0  0  0  0  0  0  0  0
  188.3220  176.7520  145.2180 C   0  0  0  0  0  2  0  0  0  0  0  0
  191.2140  177.2040  146.7510 C   0  0  0  0  0  1  0  0  0  0  0  0
  186.3120  177.7440  144.0220 C   0  0  0  0  0  3  0  0  0  0  0  0
  186.5270  177.6470  146.4820 C   0  0  2  0  0  3  0  0  0  0  0  0
  186.8080  176.9240  145.1860 C   0  0  2  0  0  3  0  0  0  0  0  0
  189.8060  177.5080  147.1210 C   0  0  0  0  0  0  0  0  0  0  0  0
  185.3840  178.5460  146.6410 C   0  0  0  0  0  3  0  0  0  0  0  0
  188.1190  178.3530  148.1660 O   0  0  0  0  0  0  0  0  0  0  0  0
  187.6790  177.7470  147.0950 C   0  0  0  0  0  0  0  0  0  0  0  0
  184.8040  179.0030  145.5240 C   0  0  0  0  0  3  0  0  0  0  0  0
  182.5000  178.1250  138.9230 C   0  0  0  0  0  2  0  0  0  0  0  0
  182.8160  177.3710  136.5690 C   0  0  0  0  0  1  0  0  0  0  0  0
  182.2850  178.4850  137.4560 C   0  0  1  0  0  3  0  0  0  0  0  0
  180.7990  178.6790  137.2050 C   0  0  0  0  0  2  0  0  0  0  0  0
  180.9190  180.2320  135.3880 O   0  0  0  0  0  1  0  0  0  0  0  0
  180.5060  180.0870  136.7130 C   0  0  0  0  0  2  0  0  0  0  0  0
  184.8540  178.2210  139.5180 N   0  0  0  0  0  2  0  0  0  0  0  0
  185.8340  178.9810  138.8550 N   0  0  0  0  0  2  0  0  0  0  0  0
  187.1090  178.3260  139.0970 C   0  0  0  0  0  2  0  0  0  0  0  0
  188.5330  177.9080  141.0970 C   0  0  0  0  0  3  0  0  0  0  0  0
  187.3340  178.1800  140.5690 C   0  0  0  0  0  3  0  0  0  0  0  0
  189.7730  177.7070  140.2700 C   0  0  2  0  0  3  0  0  0  0  0  0
  189.8940  176.6520  138.1180 O   0  0  0  0  0  1  0  0  0  0  0  0
  189.7170  176.4030  139.4800 C   0  0  0  0  0  2  0  0  0  0  0  0
  190.9440  177.7580  141.0870 O   0  0  0  0  0  0  0  0  0  0  0  0
  190.7360  178.5820  143.2430 O   0  0  0  0  0  0  0  0  0  0  0  0
  191.1810  176.3160  143.0370 N   0  0  0  0  0  1  0  0  0  0  0  0
  190.9440  177.6020  142.4790 C   0  0  0  0  0  0  0  0  0  0  0  0
  2  1  1  6  0  0  0
  2  3  1  0  0  0  0
  3  4  1  6  0  0  0
  3  5  1  0  0  0  0
  5  6  1  0  0  0  0
  6  9  1  0  0  0  0
  8 18  2  0  0  0  0
  8 15  1  0  0  0  0
  9 19  1  0  0  0  0
 10  8  1  0  0  0  0
 11 15  1  0  0  0  0
 12  9  2  0  0  0  0
 13 16  1  6  0  0  0
 13 18  1  0  0  0  0
 14 12  1  6  0  0  0
 14 10  1  0  0  0  0
 14 13  1  0  0  0  0
 15  7  2  0  0  0  0
 17  7  1  0  0  0  0
 18 17  1  0  0  0  0
 19 16  2  0  0  0  0
 20  2  1  0  0  0  0
 22 21  1  6  0  0  0
 22 20  1  0  0  0  0
 23 22  1  0  0  0  0
 24 25  1  0  0  0  0
 25 23  1  0  0  0  0
 26  2  1  0  0  0  0
 27 28  1  0  0  0  0
 27 26  1  0  0  0  0
 28 30  1  0  0  0  0
 30 29  2  0  0  0  0
 31 33  1  1  0  0  0
 31 34  1  0  0  0  0
 31 29  1  0  0  0  0
 32 33  1  0  0  0  0
 34 37  1  0  0  0  0
 37 36  1  0  0  0  0
 37 35  2  0  0  0  0
M  END
>  <MODEL>
8

>  <REMARK>
 VINA RESULT:      -6.3      2.105      3.111
  Name = 
  16 active torsions:
  status: ('A' for Active; 'I' for Inactive)
    1  A    between atoms: C_2  and  N_6
    2  A    between atoms: C_2  and  C_20
    3  A    between atoms: C_3  and  C_4
    4  A    between atoms: C_4  and  O_10
    5  A    between atoms: C_4  and  C_27
    6  A    between atoms: N_6  and  N_14
    7  A    between atoms: C_8  and  C_15
    8  A    between atoms: C_8  and  C_17
    9  A    between atoms: O_10  and  C_33
   10  A    between atoms: C_11  and  C_29
   11  A    between atoms: C_11  and  C_36
   12  A    between atoms: C_13  and  C_15
   13  A    between atoms: C_13  and  C_16
   14  A    between atoms: N_14  and  C_17
   15  A    between atoms: C_17  and  C_19
   16  A    between atoms: C_19  and  C_29
                            x       y       z     vdW  Elec       q    Type
                         _______ _______ _______ _____ _____    ______ ____

>  <TORSDO>
F 16

$$$$
=
 OpenBabel11042412133D

 37 39  0  0  1  0  0  0  0  0999 V2000
  180.1500  177.6010  141.2510 C   0  0  0  0  0  1  0  0  0  0  0  0
  181.3380  178.4950  140.8650 C   0  0  1  0  0  0  0  0  0  0  0  0
  182.0080  179.0940  142.1280 C   0  0  1  0  0  3  0  0  0  0  0  0
  181.0900  178.7530  143.6720 S   0  0  0  0  0  1  0  0  0  0  0  0
  183.4560  178.6410  142.2960 C   0  0  0  0  0  2  0  0  0  0  0  0
  184.1710  179.5280  143.3000 C   0  0  0  0  0  2  0  0  0  0  0  0
  189.7190  177.9680  147.4030 N   0  0  0  0  0  0  0  0  0  0  0  0
  188.6840  177.1860  145.6210 C   0  0  0  0  0  0  0  0  0  0  0  0
  184.9380  178.6930  144.2620 C   0  0  0  0  0  0  0  0  0  0  0  0
  188.1370  176.8620  144.4630 C   0  0  0  0  0  2  0  0  0  0  0  0
  191.2440  177.2880  145.5060 C   0  0  0  0  0  1  0  0  0  0  0  0
  185.9030  177.8750  143.8030 C   0  0  0  0  0  3  0  0  0  0  0  0
  186.5750  177.4540  146.1440 C   0  0  2  0  0  3  0  0  0  0  0  0
  186.6390  176.9360  144.7270 C   0  0  2  0  0  3  0  0  0  0  0  0
  189.9170  177.4450  146.1620 C   0  0  0  0  0  0  0  0  0  0  0  0
  185.4460  178.2460  146.6340 C   0  0  0  0  0  3  0  0  0  0  0  0
  188.4220  178.0260  147.6030 O   0  0  0  0  0  0  0  0  0  0  0  0
  187.8150  177.5450  146.5500 C   0  0  0  0  0  0  0  0  0  0  0  0
  184.6510  178.8130  145.7180 C   0  0  0  0  0  3  0  0  0  0  0  0
  182.3830  177.6260  140.1450 C   0  0  0  0  0  2  0  0  0  0  0  0
  182.7360  177.4630  137.6830 C   0  0  0  0  0  1  0  0  0  0  0  0
  181.8760  177.0020  138.8480 C   0  0  1  0  0  3  0  0  0  0  0  0
  181.9400  175.4890  138.9680 C   0  0  0  0  0  2  0  0  0  0  0  0
  180.0560  174.0530  139.3140 O   0  0  0  0  0  1  0  0  0  0  0  0
  180.7060  174.8380  138.3620 C   0  0  0  0  0  2  0  0  0  0  0  0
  180.9470  179.5760  139.9450 N   0  0  0  0  0  2  0  0  0  0  0  0
  179.8770  180.3220  140.4710 N   0  0  0  0  0  2  0  0  0  0  0  0
  179.8070  181.5550  139.7050 C   0  0  0  0  0  2  0  0  0  0  0  0
  180.8010  182.0420  137.4750 C   0  0  0  0  0  3  0  0  0  0  0  0
  180.9440  181.6150  138.7340 C   0  0  0  0  0  3  0  0  0  0  0  0
  179.4860  182.4890  136.8980 C   0  0  2  0  0  3  0  0  0  0  0  0
  180.6240  181.8060  134.8990 O   0  0  0  0  0  1  0  0  0  0  0  0
  179.3720  182.1400  135.4180 C   0  0  0  0  0  2  0  0  0  0  0  0
  179.2860  183.8890  137.1090 O   0  0  0  0  0  0  0  0  0  0  0  0
  180.4920  185.5340  138.2110 O   0  0  0  0  0  0  0  0  0  0  0  0
  181.1870  185.0000  136.0650 N   0  0  0  0  0  1  0  0  0  0  0  0
  180.3190  184.8330  137.1780 C   0  0  0  0  0  0  0  0  0  0  0  0
  2  1  1  1  0  0  0
  2  3  1  0  0  0  0
  3  5  1  0  0  0  0
  3  4  1  1  0  0  0
  5  6  1  0  0  0  0
  6  9  1  0  0  0  0
  7 17  1  0  0  0  0
  8 15  1  0  0  0  0
  8 18  2  0  0  0  0
  9 19  1  0  0  0  0
 10 14  1  0  0  0  0
 10  8  1  0  0  0  0
 11 15  1  0  0  0  0
 12  9  2  0  0  0  0
 13 18  1  0  0  0  0
 13 16  1  6  0  0  0
 14 12  1  6  0  0  0
 14 13  1  0  0  0  0
 15  7  2  0  0  0  0
 18 17  1  0  0  0  0
 19 16  2  0  0  0  0
 20  2  1  0  0  0  0
 22 21  1  6  0  0  0
 22 23  1  0  0  0  0
 22 20  1  0  0  0  0
 25 23  1  0  0  0  0
 25 24  1  0  0  0  0
 26 27  1  0  0  0  0
 26  2  1  0  0  0  0
 28 27  1  0  0  0  0
 29 30  2  0  0  0  0
 30 28  1  0  0  0  0
 31 33  1  6  0  0  0
 31 34  1  0  0  0  0
 31 29  1  0  0  0  0
 32 33  1  0  0  0  0
 34 37  1  0  0  0  0
 36 37  1  0  0  0  0
 37 35  2  0  0  0  0
M  END
>  <MODEL>
9

>  <REMARK>
 VINA RESULT:      -6.2      3.996      5.732
  Name = 
  16 active torsions:
  status: ('A' for Active; 'I' for Inactive)
    1  A    between atoms: C_2  and  N_6
    2  A    between atoms: C_2  and  C_20
    3  A    between atoms: C_3  and  C_4
    4  A    between atoms: C_4  and  O_10
    5  A    between atoms: C_4  and  C_27
    6  A    between atoms: N_6  and  N_14
    7  A    between atoms: C_8  and  C_15
    8  A    between atoms: C_8  and  C_17
    9  A    between atoms: O_10  and  C_33
   10  A    between atoms: C_11  and  C_29
   11  A    between atoms: C_11  and  C_36
   12  A    between atoms: C_13  and  C_15
   13  A    between atoms: C_13  and  C_16
   14  A    between atoms: N_14  and  C_17
   15  A    between atoms: C_17  and  C_19
   16  A    between atoms: C_19  and  C_29
                            x       y       z     vdW  Elec       q    Type
                         _______ _______ _______ _____ _____    ______ ____

>  <TORSDO>
F 16

$$$$
