=
 OpenBabel11042411413D

 40 45  0  0  1  0  0  0  0  0999 V2000
  189.3500  177.8250  140.3620 C   0  0  1  0  0  3  0  0  0  0  0  0
  185.1550  179.6320  142.0060 O   0  0  0  0  0  0  0  0  0  0  0  0
  185.1390  179.2220  139.7110 N   0  0  0  0  0  2  0  0  0  0  0  0
  190.1050  177.4360  138.7510 S   0  0  0  0  0  0  0  0  0  0  0  0
  188.5610  177.8440  137.8700 C   0  0  2  0  0  3  0  0  0  0  0  0
  187.6080  178.3430  138.8440 N   0  0  0  0  0  0  0  0  0  0  0  0
  187.1360  178.7930  141.1340 N   0  0  0  0  0  2  0  0  0  0  0  0
  185.7800  179.2310  140.9890 C   0  0  0  0  0  0  0  0  0  0  0  0
  187.9850  178.3320  140.0760 C   0  0  0  0  0  0  0  0  0  0  0  0
  187.7000  175.1870  135.6900 C   0  0  0  0  0  0  0  0  0  0  0  0
  187.6640  174.3920  134.5950 N   0  0  0  0  0  0  0  0  0  0  0  0
  188.0240  176.6310  137.1690 C   0  0  0  0  0  0  0  0  0  0  0  0
  186.8840  174.9270  136.7370 C   0  0  0  0  0  0  0  0  0  0  0  0
  186.4830  173.2890  135.0650 S   0  0  0  0  0  0  0  0  0  0  0  0
  187.0510  175.8280  137.7100 N   0  0  0  0  0  0  0  0  0  0  0  0
  186.0550  173.8350  136.6030 C   0  0  0  0  0  0  0  0  0  0  0  0
  188.4440  176.2750  135.9140 N   0  0  0  0  0  2  0  0  0  0  0  0
  185.0520  173.2830  137.5490 C   0  0  0  0  0  1  0  0  0  0  0  0
  183.7230  179.5230  139.5330 C   0  0  0  0  0  2  0  0  0  0  0  0
  182.9110  178.2540  139.2580 C   0  0  1  0  0  3  0  0  0  0  0  0
  183.7450  177.2140  138.5290 C   0  0  1  0  0  3  0  0  0  0  0  0
  182.8830  176.3880  137.6920 C   0  0  0  0  0  2  0  0  0  0  0  0
  183.6800  177.4620  137.0840 N   0  0  0  0  0  2  0  0  0  0  0  0
  182.3290  177.6640  140.5340 C   0  0  0  0  0  2  0  0  0  0  0  0
  181.9380  178.7540  141.5130 C   0  0  0  0  0  2  0  0  0  0  0  0
  180.5670  178.6300  143.5590 C   0  0  0  0  0  2  0  0  0  0  0  0
  180.5420  178.5070  142.0490 C   0  0  0  0  0  3  0  0  0  0  0  0
  180.0400  179.7740  142.7160 C   0  0  0  0  0  2  0  0  0  0  0  0
  189.2640  176.6160  141.1630 N   0  0  0  0  0  2  0  0  0  0  0  0
  190.0900  176.8240  142.3410 C   0  0  0  0  0  2  0  0  0  0  0  0
  187.6090  177.5740  145.7680 C   0  0  0  0  0  0  0  0  0  0  0  0
  189.2300  177.0920  143.5240 C   0  0  0  0  0  0  0  0  0  0  0  0
  187.8950  176.6750  143.5280 C   0  0  0  0  0  3  0  0  0  0  0  0
  187.0900  176.9170  144.6460 C   0  0  0  0  0  3  0  0  0  0  0  0
  189.7630  177.7390  144.6440 C   0  0  0  0  0  3  0  0  0  0  0  0
  188.9550  177.9810  145.7590 C   0  0  0  0  0  3  0  0  0  0  0  0
  186.7600  177.7920  146.8650 O   0  0  0  0  0  0  0  0  0  0  0  0
  185.7850  178.7940  146.9710 C   0  0  0  0  0  0  0  0  0  0  0  0
  184.6210  178.6360  146.5130 O   0  0  0  0  0  0  0  0  0  0  0  0
  186.0980  179.9540  147.5970 F   0  0  0  0  0  0  0  0  0  0  0  0
  1 29  1  1  0  0  0
  3  8  1  0  0  0  0
  4  1  1  0  0  0  0
  5 12  1  1  0  0  0
  5  4  1  0  0  0  0
  5  6  1  0  0  0  0
  6  9  2  0  0  0  0
  8  7  1  0  0  0  0
  8  2  2  0  0  0  0
  9  1  1  0  0  0  0
  9  7  1  0  0  0  0
 10 17  1  0  0  0  0
 10 13  1  0  0  0  0
 11 14  1  0  0  0  0
 11 10  2  0  0  0  0
 12 15  2  0  0  0  0
 13 15  1  0  0  0  0
 14 16  1  0  0  0  0
 16 13  2  0  0  0  0
 16 18  1  0  0  0  0
 17 12  1  0  0  0  0
 19  3  1  0  0  0  0
 20 19  1  1  0  0  0
 20 24  1  0  0  0  0
 21 20  1  1  0  0  0
 22 21  1  0  0  0  0
 23 22  1  0  0  0  0
 23 21  1  0  0  0  0
 24 25  1  0  0  0  0
 25 27  1  0  0  0  0
 27 28  1  0  0  0  0
 27 26  1  0  0  0  0
 28 26  1  0  0  0  0
 29 30  1  0  0  0  0
 30 32  1  0  0  0  0
 31 37  1  0  0  0  0
 32 33  2  0  0  0  0
 32 35  1  0  0  0  0
 33 34  1  0  0  0  0
 34 31  2  0  0  0  0
 35 36  2  0  0  0  0
 36 31  1  0  0  0  0
 37 38  1  0  0  0  0
 38 40  1  0  0  0  0
 39 38  2  0  0  0  0
M  END
>  <MODEL>
1

>  <REMARK>
 VINA RESULT:      -8.1      0.000      0.000
  Name = 
  12 active torsions:
  status: ('A' for Active; 'I' for Inactive)
    1  A    between atoms: C_1  and  O_27
    2  A    between atoms: C_2  and  N_30
    3  A    between atoms: C_3  and  C_18
    4  A    between atoms: C_5  and  C_25
    5  A    between atoms: N_6  and  C_20
    6  A    between atoms: C_8  and  C_21
    7  A    between atoms: C_8  and  C_33
    8  A    between atoms: C_10  and  O_27
    9  A    between atoms: C_11  and  C_22
   10  A    between atoms: C_18  and  C_20
   11  A    between atoms: C_18  and  C_33
   12  A    between atoms: C_25  and  N_30
                            x       y       z     vdW  Elec       q    Type
                         _______ _______ _______ _____ _____    ______ ____

>  <TORSDO>
F 12

$$$$
=
 OpenBabel11042411413D

 40 45  0  0  1  0  0  0  0  0999 V2000
  189.1960  177.7790  140.5740 C   0  0  1  0  0  3  0  0  0  0  0  0
  184.9630  179.4190  142.2940 O   0  0  0  0  0  0  0  0  0  0  0  0
  184.9950  179.2270  139.9700 N   0  0  0  0  0  2  0  0  0  0  0  0
  189.9850  177.5450  138.9500 S   0  0  0  0  0  0  0  0  0  0  0  0
  188.4580  178.0330  138.0790 C   0  0  2  0  0  3  0  0  0  0  0  0
  187.4840  178.4360  139.0760 N   0  0  0  0  0  0  0  0  0  0  0  0
  186.9640  178.6680  141.3880 N   0  0  0  0  0  2  0  0  0  0  0  0
  185.6090  179.1160  141.2560 C   0  0  0  0  0  0  0  0  0  0  0  0
  187.8360  178.3100  140.3090 C   0  0  0  0  0  0  0  0  0  0  0  0
  186.9120  175.8340  135.7710 C   0  0  0  0  0  0  0  0  0  0  0  0
  186.1700  175.3870  134.7300 N   0  0  0  0  0  0  0  0  0  0  0  0
  187.9390  176.8900  137.2560 C   0  0  0  0  0  0  0  0  0  0  0  0
  187.5110  174.9470  136.5990 C   0  0  0  0  0  0  0  0  0  0  0  0
  186.3360  173.7250  134.9370 S   0  0  0  0  0  0  0  0  0  0  0  0
  188.1800  175.5760  137.5700 N   0  0  0  0  0  0  0  0  0  0  0  0
  187.3150  173.6160  136.3060 C   0  0  0  0  0  0  0  0  0  0  0  0
  187.1490  177.0920  136.1550 N   0  0  0  0  0  2  0  0  0  0  0  0
  187.8220  172.4060  137.0030 C   0  0  0  0  0  1  0  0  0  0  0  0
  183.5820  179.5420  139.7930 C   0  0  0  0  0  2  0  0  0  0  0  0
  182.9160  178.5830  138.8000 C   0  0  1  0  0  3  0  0  0  0  0  0
  181.7440  179.2460  138.0980 C   0  0  1  0  0  3  0  0  0  0  0  0
  180.9320  179.9710  139.0690 C   0  0  0  0  0  2  0  0  0  0  0  0
  181.8700  180.7040  138.2090 N   0  0  0  0  0  2  0  0  0  0  0  0
  183.9060  178.0430  137.7800 C   0  0  0  0  0  2  0  0  0  0  0  0
  183.3840  176.7790  137.1240 C   0  0  0  0  0  2  0  0  0  0  0  0
  182.2490  174.6340  137.5600 C   0  0  0  0  0  2  0  0  0  0  0  0
  183.1230  175.7120  138.1670 C   0  0  0  0  0  3  0  0  0  0  0  0
  183.7400  174.4060  137.7000 C   0  0  0  0  0  2  0  0  0  0  0  0
  189.0970  176.5010  141.2550 N   0  0  0  0  0  2  0  0  0  0  0  0
  189.9590  176.5710  142.4250 C   0  0  0  0  0  2  0  0  0  0  0  0
  187.6310  177.4920  145.9170 C   0  0  0  0  0  0  0  0  0  0  0  0
  189.1530  176.8980  143.6300 C   0  0  0  0  0  0  0  0  0  0  0  0
  187.7830  176.6150  143.6560 C   0  0  0  0  0  3  0  0  0  0  0  0
  187.0280  176.9120  144.7950 C   0  0  0  0  0  3  0  0  0  0  0  0
  189.7680  177.4670  144.7500 C   0  0  0  0  0  3  0  0  0  0  0  0
  189.0100  177.7650  145.8870 C   0  0  0  0  0  3  0  0  0  0  0  0
  186.8300  177.7710  147.0360 O   0  0  0  0  0  0  0  0  0  0  0  0
  185.7380  178.6500  147.0750 C   0  0  0  0  0  0  0  0  0  0  0  0
  185.8660  179.8480  147.4480 O   0  0  0  0  0  0  0  0  0  0  0  0
  184.5190  178.2030  146.6890 F   0  0  0  0  0  0  0  0  0  0  0  0
  1 29  1  6  0  0  0
  3  8  1  0  0  0  0
  4  1  1  0  0  0  0
  5 12  1  1  0  0  0
  5  4  1  0  0  0  0
  5  6  1  0  0  0  0
  6  9  2  0  0  0  0
  8  7  1  0  0  0  0
  8  2  2  0  0  0  0
  9  1  1  0  0  0  0
  9  7  1  0  0  0  0
 10 17  1  0  0  0  0
 10 13  1  0  0  0  0
 11 14  1  0  0  0  0
 11 10  2  0  0  0  0
 12 15  2  0  0  0  0
 13 15  1  0  0  0  0
 14 16  1  0  0  0  0
 16 13  2  0  0  0  0
 16 18  1  0  0  0  0
 17 12  1  0  0  0  0
 19  3  1  0  0  0  0
 20 24  1  6  0  0  0
 20 19  1  0  0  0  0
 21 23  1  0  0  0  0
 21 20  1  1  0  0  0
 21 22  1  0  0  0  0
 23 22  1  0  0  0  0
 25 24  1  0  0  0  0
 25 27  1  0  0  0  0
 26 28  1  0  0  0  0
 26 27  1  0  0  0  0
 28 27  1  0  0  0  0
 29 30  1  0  0  0  0
 30 32  1  0  0  0  0
 31 37  1  0  0  0  0
 32 33  2  0  0  0  0
 32 35  1  0  0  0  0
 33 34  1  0  0  0  0
 34 31  2  0  0  0  0
 35 36  2  0  0  0  0
 36 31  1  0  0  0  0
 37 38  1  0  0  0  0
 38 39  2  0  0  0  0
 40 38  1  0  0  0  0
M  END
>  <MODEL>
2

>  <REMARK>
 VINA RESULT:      -7.9      1.568      2.553
  Name = 
  12 active torsions:
  status: ('A' for Active; 'I' for Inactive)
    1  A    between atoms: C_1  and  O_27
    2  A    between atoms: C_2  and  N_30
    3  A    between atoms: C_3  and  C_18
    4  A    between atoms: C_5  and  C_25
    5  A    between atoms: N_6  and  C_20
    6  A    between atoms: C_8  and  C_21
    7  A    between atoms: C_8  and  C_33
    8  A    between atoms: C_10  and  O_27
    9  A    between atoms: C_11  and  C_22
   10  A    between atoms: C_18  and  C_20
   11  A    between atoms: C_18  and  C_33
   12  A    between atoms: C_25  and  N_30
                            x       y       z     vdW  Elec       q    Type
                         _______ _______ _______ _____ _____    ______ ____

>  <TORSDO>
F 12

$$$$
=
 OpenBabel11042411413D

 40 45  0  0  1  0  0  0  0  0999 V2000
  189.3620  177.8370  140.5210 C   0  0  1  0  0  3  0  0  0  0  0  0
  185.1340  179.4580  142.2720 O   0  0  0  0  0  0  0  0  0  0  0  0
  185.1400  179.2380  139.9510 N   0  0  0  0  0  2  0  0  0  0  0  0
  190.1330  177.5910  138.8900 S   0  0  0  0  0  0  0  0  0  0  0  0
  188.5910  178.0530  138.0320 C   0  0  2  0  0  3  0  0  0  0  0  0
  187.6250  178.4600  139.0350 N   0  0  0  0  0  0  0  0  0  0  0  0
  187.1310  178.7150  141.3500 N   0  0  0  0  0  2  0  0  0  0  0  0
  185.7710  179.1490  141.2300 C   0  0  0  0  0  0  0  0  0  0  0  0
  187.9930  178.3520  140.2660 C   0  0  0  0  0  0  0  0  0  0  0  0
  187.0340  175.8120  135.7730 C   0  0  0  0  0  0  0  0  0  0  0  0
  186.2790  175.3460  134.7490 N   0  0  0  0  0  0  0  0  0  0  0  0
  188.0730  176.8960  137.2290 C   0  0  0  0  0  0  0  0  0  0  0  0
  187.6590  174.9410  136.5970 C   0  0  0  0  0  0  0  0  0  0  0  0
  186.4710  173.6880  134.9690 S   0  0  0  0  0  0  0  0  0  0  0  0
  188.3370  175.5890  137.5510 N   0  0  0  0  0  0  0  0  0  0  0  0
  187.4760  173.6050  136.3210 C   0  0  0  0  0  0  0  0  0  0  0  0
  187.2610  177.0770  136.1400 N   0  0  0  0  0  2  0  0  0  0  0  0
  188.0110  172.4090  137.0210 C   0  0  0  0  0  1  0  0  0  0  0  0
  183.7220  179.5380  139.7870 C   0  0  0  0  0  2  0  0  0  0  0  0
  183.1890  179.0080  138.4510 C   0  0  1  0  0  3  0  0  0  0  0  0
  183.9310  177.7560  138.0210 C   0  0  1  0  0  3  0  0  0  0  0  0
  182.9960  176.6410  137.9130 C   0  0  0  0  0  2  0  0  0  0  0  0
  183.4490  177.3330  136.7000 N   0  0  0  0  0  2  0  0  0  0  0  0
  181.6920  178.7440  138.5030 C   0  0  0  0  0  2  0  0  0  0  0  0
  180.9240  179.7840  137.7080 C   0  0  0  0  0  2  0  0  0  0  0  0
  181.2550  182.2080  138.0170 C   0  0  0  0  0  2  0  0  0  0  0  0
  180.5840  180.9730  138.5830 C   0  0  0  0  0  3  0  0  0  0  0  0
  179.7800  181.9690  137.7690 C   0  0  0  0  0  2  0  0  0  0  0  0
  189.2830  176.5660  141.2180 N   0  0  0  0  0  2  0  0  0  0  0  0
  190.1110  176.6800  142.4090 C   0  0  0  0  0  2  0  0  0  0  0  0
  187.6410  177.4950  145.8290 C   0  0  0  0  0  0  0  0  0  0  0  0
  189.2580  176.9540  143.5950 C   0  0  0  0  0  0  0  0  0  0  0  0
  189.7900  177.6240  144.7010 C   0  0  0  0  0  3  0  0  0  0  0  0
  188.9830  177.8920  145.8120 C   0  0  0  0  0  3  0  0  0  0  0  0
  187.9140  176.5630  143.5960 C   0  0  0  0  0  3  0  0  0  0  0  0
  187.1110  176.8300  144.7090 C   0  0  0  0  0  3  0  0  0  0  0  0
  186.8730  177.7880  146.9670 O   0  0  0  0  0  0  0  0  0  0  0  0
  185.7450  178.6200  147.0140 C   0  0  0  0  0  0  0  0  0  0  0  0
  185.8210  179.8180  147.4010 O   0  0  0  0  0  0  0  0  0  0  0  0
  184.5460  178.1270  146.6180 F   0  0  0  0  0  0  0  0  0  0  0  0
  1 29  1  6  0  0  0
  3  8  1  0  0  0  0
  4  1  1  0  0  0  0
  5 12  1  1  0  0  0
  5  4  1  0  0  0  0
  5  6  1  0  0  0  0
  6  9  2  0  0  0  0
  8  7  1  0  0  0  0
  8  2  2  0  0  0  0
  9  1  1  0  0  0  0
  9  7  1  0  0  0  0
 10 17  1  0  0  0  0
 10 13  1  0  0  0  0
 11 14  1  0  0  0  0
 11 10  2  0  0  0  0
 12 15  2  0  0  0  0
 13 15  1  0  0  0  0
 14 16  1  0  0  0  0
 16 13  2  0  0  0  0
 16 18  1  0  0  0  0
 17 12  1  0  0  0  0
 19  3  1  0  0  0  0
 20 24  1  1  0  0  0
 20 19  1  0  0  0  0
 21 20  1  1  0  0  0
 22 21  1  0  0  0  0
 23 22  1  0  0  0  0
 23 21  1  0  0  0  0
 25 24  1  0  0  0  0
 25 27  1  0  0  0  0
 26 27  1  0  0  0  0
 28 26  1  0  0  0  0
 28 27  1  0  0  0  0
 29 30  1  0  0  0  0
 30 32  1  0  0  0  0
 31 37  1  0  0  0  0
 32 35  2  0  0  0  0
 32 33  1  0  0  0  0
 33 34  2  0  0  0  0
 34 31  1  0  0  0  0
 35 36  1  0  0  0  0
 36 31  2  0  0  0  0
 37 38  1  0  0  0  0
 38 39  2  0  0  0  0
 40 38  1  0  0  0  0
M  END
>  <MODEL>
3

>  <REMARK>
 VINA RESULT:      -7.8      1.594      2.066
  Name = 
  12 active torsions:
  status: ('A' for Active; 'I' for Inactive)
    1  A    between atoms: C_1  and  O_27
    2  A    between atoms: C_2  and  N_30
    3  A    between atoms: C_3  and  C_18
    4  A    between atoms: C_5  and  C_25
    5  A    between atoms: N_6  and  C_20
    6  A    between atoms: C_8  and  C_21
    7  A    between atoms: C_8  and  C_33
    8  A    between atoms: C_10  and  O_27
    9  A    between atoms: C_11  and  C_22
   10  A    between atoms: C_18  and  C_20
   11  A    between atoms: C_18  and  C_33
   12  A    between atoms: C_25  and  N_30
                            x       y       z     vdW  Elec       q    Type
                         _______ _______ _______ _____ _____    ______ ____

>  <TORSDO>
F 12

$$$$
=
 OpenBabel11042411413D

 40 45  0  0  1  0  0  0  0  0999 V2000
  189.3700  177.7970  139.8500 C   0  0  1  0  0  3  0  0  0  0  0  0
  185.3990  179.6330  141.9540 O   0  0  0  0  0  0  0  0  0  0  0  0
  185.1230  179.2260  139.6740 N   0  0  0  0  0  2  0  0  0  0  0  0
  189.9370  177.4050  138.1640 S   0  0  0  0  0  0  0  0  0  0  0  0
  188.3070  177.8250  137.4610 C   0  0  2  0  0  3  0  0  0  0  0  0
  187.4730  178.3290  138.5360 N   0  0  0  0  0  0  0  0  0  0  0  0
  187.2640  178.7810  140.8640 N   0  0  0  0  0  2  0  0  0  0  0  0
  185.9030  179.2280  140.8720 C   0  0  0  0  0  0  0  0  0  0  0  0
  187.9860  178.3150  139.7190 C   0  0  0  0  0  0  0  0  0  0  0  0
  186.4160  175.4330  135.6570 C   0  0  0  0  0  0  0  0  0  0  0  0
  185.4870  174.8960  134.8310 N   0  0  0  0  0  0  0  0  0  0  0  0
  187.6860  176.6170  136.8250 C   0  0  0  0  0  0  0  0  0  0  0  0
  187.2380  174.6220  136.3610 C   0  0  0  0  0  0  0  0  0  0  0  0
  185.7950  173.2580  135.0610 S   0  0  0  0  0  0  0  0  0  0  0  0
  188.0700  175.3340  137.1290 N   0  0  0  0  0  0  0  0  0  0  0  0
  187.0620  173.2700  136.1740 C   0  0  0  0  0  0  0  0  0  0  0  0
  186.6570  176.7200  135.9260 N   0  0  0  0  0  2  0  0  0  0  0  0
  187.7850  172.1250  136.7860 C   0  0  0  0  0  1  0  0  0  0  0  0
  183.6980  179.5370  139.6570 C   0  0  0  0  0  2  0  0  0  0  0  0
  182.8790  178.3770  139.0810 C   0  0  1  0  0  3  0  0  0  0  0  0
  183.7800  177.2600  138.5850 C   0  0  1  0  0  3  0  0  0  0  0  0
  183.0690  175.9880  138.6480 C   0  0  0  0  0  2  0  0  0  0  0  0
  183.2110  176.6820  137.3620 N   0  0  0  0  0  2  0  0  0  0  0  0
  181.8740  177.8380  140.0890 C   0  0  0  0  0  2  0  0  0  0  0  0
  182.0840  178.4560  141.4570 C   0  0  0  0  0  2  0  0  0  0  0  0
  179.8300  178.0260  142.3610 C   0  0  0  0  0  2  0  0  0  0  0  0
  180.8060  179.1080  141.9440 C   0  0  0  0  0  3  0  0  0  0  0  0
  180.6150  178.7810  143.4140 C   0  0  0  0  0  2  0  0  0  0  0  0
  189.3650  176.5880  140.6540 N   0  0  0  0  0  2  0  0  0  0  0  0
  190.3480  176.7740  141.7110 C   0  0  0  0  0  2  0  0  0  0  0  0
  188.3750  177.6550  145.4250 C   0  0  0  0  0  0  0  0  0  0  0  0
  189.6620  177.0860  142.9920 C   0  0  0  0  0  0  0  0  0  0  0  0
  188.3990  176.5470  143.2610 C   0  0  0  0  0  3  0  0  0  0  0  0
  187.7610  176.8320  144.4720 C   0  0  0  0  0  3  0  0  0  0  0  0
  190.2900  177.9000  143.9410 C   0  0  0  0  0  3  0  0  0  0  0  0
  189.6480  178.1850  145.1510 C   0  0  0  0  0  3  0  0  0  0  0  0
  187.6920  177.9100  146.6250 O   0  0  0  0  0  0  0  0  0  0  0  0
  188.0800  177.4870  147.9040 C   0  0  0  0  0  0  0  0  0  0  0  0
  188.1980  178.2980  148.8620 O   0  0  0  0  0  0  0  0  0  0  0  0
  188.3190  176.1710  148.1180 F   0  0  0  0  0  0  0  0  0  0  0  0
  1 29  1  1  0  0  0
  3  8  1  0  0  0  0
  4  1  1  0  0  0  0
  5 12  1  1  0  0  0
  5  4  1  0  0  0  0
  5  6  1  0  0  0  0
  6  9  2  0  0  0  0
  7  8  1  0  0  0  0
  8  2  2  0  0  0  0
  9  1  1  0  0  0  0
  9  7  1  0  0  0  0
 10 17  1  0  0  0  0
 10 13  1  0  0  0  0
 11 14  1  0  0  0  0
 11 10  2  0  0  0  0
 12 15  2  0  0  0  0
 13 15  1  0  0  0  0
 14 16  1  0  0  0  0
 16 13  2  0  0  0  0
 16 18  1  0  0  0  0
 17 12  1  0  0  0  0
 19  3  1  0  0  0  0
 20 19  1  1  0  0  0
 20 24  1  0  0  0  0
 21 22  1  0  0  0  0
 21 20  1  1  0  0  0
 23 21  1  0  0  0  0
 23 22  1  0  0  0  0
 24 25  1  0  0  0  0
 25 27  1  0  0  0  0
 26 28  1  0  0  0  0
 27 26  1  0  0  0  0
 27 28  1  0  0  0  0
 29 30  1  0  0  0  0
 30 32  1  0  0  0  0
 31 37  1  0  0  0  0
 32 33  2  0  0  0  0
 32 35  1  0  0  0  0
 33 34  1  0  0  0  0
 34 31  2  0  0  0  0
 35 36  2  0  0  0  0
 36 31  1  0  0  0  0
 37 38  1  0  0  0  0
 38 40  1  0  0  0  0
 38 39  2  0  0  0  0
M  END
>  <MODEL>
4

>  <REMARK>
 VINA RESULT:      -7.7      1.292      1.444
  Name = 
  12 active torsions:
  status: ('A' for Active; 'I' for Inactive)
    1  A    between atoms: C_1  and  O_27
    2  A    between atoms: C_2  and  N_30
    3  A    between atoms: C_3  and  C_18
    4  A    between atoms: C_5  and  C_25
    5  A    between atoms: N_6  and  C_20
    6  A    between atoms: C_8  and  C_21
    7  A    between atoms: C_8  and  C_33
    8  A    between atoms: C_10  and  O_27
    9  A    between atoms: C_11  and  C_22
   10  A    between atoms: C_18  and  C_20
   11  A    between atoms: C_18  and  C_33
   12  A    between atoms: C_25  and  N_30
                            x       y       z     vdW  Elec       q    Type
                         _______ _______ _______ _____ _____    ______ ____

>  <TORSDO>
F 12

$$$$
=
 OpenBabel11042411413D

 40 45  0  0  1  0  0  0  0  0999 V2000
  189.3130  177.8100  140.4890 C   0  0  1  0  0  3  0  0  0  0  0  0
  185.1150  179.5850  142.1590 O   0  0  0  0  0  0  0  0  0  0  0  0
  185.0480  179.0590  139.8880 N   0  0  0  0  0  2  0  0  0  0  0  0
  190.0350  177.3610  138.8790 S   0  0  0  0  0  0  0  0  0  0  0  0
  188.4570  177.6820  138.0220 C   0  0  2  0  0  3  0  0  0  0  0  0
  187.5170  178.2040  138.9960 N   0  0  0  0  0  0  0  0  0  0  0  0
  187.0950  178.7560  141.2740 N   0  0  0  0  0  2  0  0  0  0  0  0
  185.7230  179.1500  141.1450 C   0  0  0  0  0  0  0  0  0  0  0  0
  187.9270  178.2650  140.2170 C   0  0  0  0  0  0  0  0  0  0  0  0
  187.8980  174.5300  136.5060 C   0  0  0  0  0  0  0  0  0  0  0  0
  188.1340  173.3160  135.9540 N   0  0  0  0  0  0  0  0  0  0  0  0
  187.9350  176.4210  137.3980 C   0  0  0  0  0  0  0  0  0  0  0  0
  186.6340  175.0090  136.5590 C   0  0  0  0  0  0  0  0  0  0  0  0
  186.5670  172.8740  135.5250 S   0  0  0  0  0  0  0  0  0  0  0  0
  186.6060  176.2230  137.1200 N   0  0  0  0  0  0  0  0  0  0  0  0
  185.6540  174.1970  136.0330 C   0  0  0  0  0  0  0  0  0  0  0  0
  188.7690  175.4010  137.0230 N   0  0  0  0  0  2  0  0  0  0  0  0
  184.1890  174.4210  135.9330 C   0  0  0  0  0  1  0  0  0  0  0  0
  183.6200  179.3130  139.7360 C   0  0  0  0  0  2  0  0  0  0  0  0
  182.9200  178.1560  139.0170 C   0  0  1  0  0  3  0  0  0  0  0  0
  182.8290  176.9290  139.9080 C   0  0  1  0  0  3  0  0  0  0  0  0
  181.5880  176.2120  139.6350 C   0  0  0  0  0  2  0  0  0  0  0  0
  182.8540  175.7200  139.0760 N   0  0  0  0  0  2  0  0  0  0  0  0
  181.5370  178.5510  138.5190 C   0  0  0  0  0  2  0  0  0  0  0  0
  181.5710  178.9290  137.0510 C   0  0  0  0  0  2  0  0  0  0  0  0
  181.2430  176.8000  135.8510 C   0  0  0  0  0  2  0  0  0  0  0  0
  182.2620  177.8500  136.2430 C   0  0  0  0  0  3  0  0  0  0  0  0
  181.6830  177.8390  134.8400 C   0  0  0  0  0  2  0  0  0  0  0  0
  189.2820  176.6410  141.3510 N   0  0  0  0  0  2  0  0  0  0  0  0
  190.5660  176.5790  142.0320 C   0  0  0  0  0  2  0  0  0  0  0  0
  190.0250  177.2910  146.2350 C   0  0  0  0  0  0  0  0  0  0  0  0
  190.3810  176.8330  143.4850 C   0  0  0  0  0  0  0  0  0  0  0  0
  189.1330  177.2320  143.9740 C   0  0  0  0  0  3  0  0  0  0  0  0
  188.9580  177.4590  145.3430 C   0  0  0  0  0  3  0  0  0  0  0  0
  191.4510  176.6500  144.3680 C   0  0  0  0  0  3  0  0  0  0  0  0
  191.2740  176.8810  145.7360 C   0  0  0  0  0  3  0  0  0  0  0  0
  189.7980  177.5310  147.5990 O   0  0  0  0  0  0  0  0  0  0  0  0
  188.5540  177.5230  148.2460 C   0  0  0  0  0  0  0  0  0  0  0  0
  188.0020  178.5880  148.6350 O   0  0  0  0  0  0  0  0  0  0  0  0
  187.9230  176.3400  148.4450 F   0  0  0  0  0  0  0  0  0  0  0  0
  1 29  1  1  0  0  0
  3  8  1  0  0  0  0
  4  1  1  0  0  0  0
  5 12  1  1  0  0  0
  5  4  1  0  0  0  0
  5  6  1  0  0  0  0
  6  9  2  0  0  0  0
  8  7  1  0  0  0  0
  8  2  2  0  0  0  0
  9  1  1  0  0  0  0
  9  7  1  0  0  0  0
 10 13  1  0  0  0  0
 10 17  1  0  0  0  0
 11 10  2  0  0  0  0
 13 15  1  0  0  0  0
 14 11  1  0  0  0  0
 14 16  1  0  0  0  0
 15 12  2  0  0  0  0
 16 13  2  0  0  0  0
 17 12  1  0  0  0  0
 18 16  1  0  0  0  0
 19  3  1  0  0  0  0
 20 24  1  1  0  0  0
 20 19  1  0  0  0  0
 21 20  1  6  0  0  0
 22 21  1  0  0  0  0
 23 22  1  0  0  0  0
 23 21  1  0  0  0  0
 25 24  1  0  0  0  0
 26 27  1  0  0  0  0
 27 25  1  0  0  0  0
 28 26  1  0  0  0  0
 28 27  1  0  0  0  0
 29 30  1  0  0  0  0
 30 32  1  0  0  0  0
 31 37  1  0  0  0  0
 32 33  2  0  0  0  0
 32 35  1  0  0  0  0
 33 34  1  0  0  0  0
 34 31  2  0  0  0  0
 35 36  2  0  0  0  0
 36 31  1  0  0  0  0
 37 38  1  0  0  0  0
 38 40  1  0  0  0  0
 38 39  2  0  0  0  0
M  END
>  <MODEL>
5

>  <REMARK>
 VINA RESULT:      -7.5      1.928      2.751
  Name = 
  12 active torsions:
  status: ('A' for Active; 'I' for Inactive)
    1  A    between atoms: C_1  and  O_27
    2  A    between atoms: C_2  and  N_30
    3  A    between atoms: C_3  and  C_18
    4  A    between atoms: C_5  and  C_25
    5  A    between atoms: N_6  and  C_20
    6  A    between atoms: C_8  and  C_21
    7  A    between atoms: C_8  and  C_33
    8  A    between atoms: C_10  and  O_27
    9  A    between atoms: C_11  and  C_22
   10  A    between atoms: C_18  and  C_20
   11  A    between atoms: C_18  and  C_33
   12  A    between atoms: C_25  and  N_30
                            x       y       z     vdW  Elec       q    Type
                         _______ _______ _______ _____ _____    ______ ____

>  <TORSDO>
F 12

$$$$
=
 OpenBabel11042411413D

 40 45  0  0  1  0  0  0  0  0999 V2000
  190.5730  176.7800  138.3950 C   0  0  1  0  0  3  0  0  0  0  0  0
  190.6190  175.6420  143.1140 O   0  0  0  0  0  0  0  0  0  0  0  0
  188.8340  177.0210  142.5220 N   0  0  0  0  0  2  0  0  0  0  0  0
  189.6420  177.8870  137.2900 S   0  0  0  0  0  0  0  0  0  0  0  0
  188.5120  178.3700  138.6390 C   0  0  2  0  0  3  0  0  0  0  0  0
  188.9770  177.7370  139.8600 N   0  0  0  0  0  0  0  0  0  0  0  0
  190.5410  176.2580  140.8770 N   0  0  0  0  0  2  0  0  0  0  0  0
  190.0180  176.2810  142.2110 C   0  0  0  0  0  0  0  0  0  0  0  0
  189.9890  176.9470  139.7490 C   0  0  0  0  0  0  0  0  0  0  0  0
  185.5030  176.9100  137.4710 C   0  0  0  0  0  0  0  0  0  0  0  0
  184.6510  176.0990  136.8000 N   0  0  0  0  0  0  0  0  0  0  0  0
  187.1080  177.9490  138.3200 C   0  0  0  0  0  0  0  0  0  0  0  0
  185.0140  177.9100  138.2400 C   0  0  0  0  0  0  0  0  0  0  0  0
  183.1770  176.7610  137.2720 S   0  0  0  0  0  0  0  0  0  0  0  0
  186.0050  178.6080  138.8040 N   0  0  0  0  0  0  0  0  0  0  0  0
  183.6430  178.0260  138.2840 C   0  0  0  0  0  0  0  0  0  0  0  0
  186.8400  176.8990  137.4820 N   0  0  0  0  0  2  0  0  0  0  0  0
  182.7960  179.0010  139.0190 C   0  0  0  0  0  1  0  0  0  0  0  0
  188.1850  176.9640  143.8270 C   0  0  0  0  0  2  0  0  0  0  0  0
  187.0000  177.9330  143.9050 C   0  0  1  0  0  3  0  0  0  0  0  0
  186.1680  177.8870  142.6360 C   0  0  1  0  0  3  0  0  0  0  0  0
  184.9330  178.6400  142.8280 C   0  0  0  0  0  2  0  0  0  0  0  0
  186.0470  179.2410  142.0830 N   0  0  0  0  0  2  0  0  0  0  0  0
  186.1260  177.6620  145.1200 C   0  0  0  0  0  2  0  0  0  0  0  0
  186.3950  178.6690  146.2230 C   0  0  0  0  0  2  0  0  0  0  0  0
  188.0660  177.2460  147.3480 C   0  0  0  0  0  2  0  0  0  0  0  0
  186.7380  177.9560  147.5160 C   0  0  0  0  0  3  0  0  0  0  0  0
  188.0030  178.5650  148.0920 C   0  0  0  0  0  2  0  0  0  0  0  0
  190.4070  175.4050  137.9580 N   0  0  0  0  0  2  0  0  0  0  0  0
  190.9970  175.3030  136.6330 C   0  0  0  0  0  2  0  0  0  0  0  0
  195.2230  174.5920  136.9380 C   0  0  0  0  0  0  0  0  0  0  0  0
  192.4590  175.0630  136.7450 C   0  0  0  0  0  0  0  0  0  0  0  0
  192.9340  173.9410  137.4340 C   0  0  0  0  0  3  0  0  0  0  0  0
  194.3100  173.7100  137.5280 C   0  0  0  0  0  3  0  0  0  0  0  0
  193.3620  175.9450  136.1410 C   0  0  0  0  0  3  0  0  0  0  0  0
  194.7370  175.7120  136.2390 C   0  0  0  0  0  3  0  0  0  0  0  0
  196.5940  174.3150  137.0610 O   0  0  0  0  0  0  0  0  0  0  0  0
  197.4040  174.6160  138.1650 C   0  0  0  0  0  0  0  0  0  0  0  0
  198.5110  175.2060  138.0330 O   0  0  0  0  0  0  0  0  0  0  0  0
  196.9790  174.2760  139.4050 F   0  0  0  0  0  0  0  0  0  0  0  0
  1 29  1  6  0  0  0
  1  9  1  0  0  0  0
  3 19  1  0  0  0  0
  4  1  1  0  0  0  0
  4  5  1  0  0  0  0
  5 12  1  6  0  0  0
  5  6  1  0  0  0  0
  7  8  1  0  0  0  0
  8  3  1  0  0  0  0
  8  2  2  0  0  0  0
  9  6  2  0  0  0  0
  9  7  1  0  0  0  0
 10 17  1  0  0  0  0
 10 13  1  0  0  0  0
 11 14  1  0  0  0  0
 11 10  2  0  0  0  0
 12 15  2  0  0  0  0
 13 16  2  0  0  0  0
 13 15  1  0  0  0  0
 14 16  1  0  0  0  0
 16 18  1  0  0  0  0
 17 12  1  0  0  0  0
 20 19  1  6  0  0  0
 20 24  1  0  0  0  0
 21 22  1  0  0  0  0
 21 20  1  1  0  0  0
 23 21  1  0  0  0  0
 23 22  1  0  0  0  0
 24 25  1  0  0  0  0
 25 27  1  0  0  0  0
 26 27  1  0  0  0  0
 26 28  1  0  0  0  0
 27 28  1  0  0  0  0
 30 32  1  0  0  0  0
 30 29  1  0  0  0  0
 31 37  1  0  0  0  0
 31 34  1  0  0  0  0
 32 33  1  0  0  0  0
 33 34  2  0  0  0  0
 35 36  1  0  0  0  0
 35 32  2  0  0  0  0
 36 31  2  0  0  0  0
 37 38  1  0  0  0  0
 38 40  1  0  0  0  0
 39 38  2  0  0  0  0
M  END
>  <MODEL>
6

>  <REMARK>
 VINA RESULT:      -7.5      5.161      7.693
  Name = 
  12 active torsions:
  status: ('A' for Active; 'I' for Inactive)
    1  A    between atoms: C_1  and  O_27
    2  A    between atoms: C_2  and  N_30
    3  A    between atoms: C_3  and  C_18
    4  A    between atoms: C_5  and  C_25
    5  A    between atoms: N_6  and  C_20
    6  A    between atoms: C_8  and  C_21
    7  A    between atoms: C_8  and  C_33
    8  A    between atoms: C_10  and  O_27
    9  A    between atoms: C_11  and  C_22
   10  A    between atoms: C_18  and  C_20
   11  A    between atoms: C_18  and  C_33
   12  A    between atoms: C_25  and  N_30
                            x       y       z     vdW  Elec       q    Type
                         _______ _______ _______ _____ _____    ______ ____

>  <TORSDO>
F 12

$$$$
=
 OpenBabel11042411413D

 40 45  0  0  1  0  0  0  0  0999 V2000
  190.5570  177.0590  138.9750 C   0  0  1  0  0  3  0  0  0  0  0  0
  189.9410  175.5460  143.5460 O   0  0  0  0  0  0  0  0  0  0  0  0
  188.1960  176.8920  142.7840 N   0  0  0  0  0  2  0  0  0  0  0  0
  189.7470  178.2120  137.8210 S   0  0  0  0  0  0  0  0  0  0  0  0
  188.3990  178.5350  139.0080 C   0  0  2  0  0  3  0  0  0  0  0  0
  188.7050  177.8260  140.2370 N   0  0  0  0  0  0  0  0  0  0  0  0
  190.1730  176.3370  141.3760 N   0  0  0  0  0  2  0  0  0  0  0  0
  189.4510  176.2300  142.6090 C   0  0  0  0  0  0  0  0  0  0  0  0
  189.7640  177.0910  140.2290 C   0  0  0  0  0  0  0  0  0  0  0  0
  185.0260  177.9400  138.1050 C   0  0  0  0  0  0  0  0  0  0  0  0
  183.6760  178.0400  138.0640 N   0  0  0  0  0  0  0  0  0  0  0  0
  187.0850  178.0830  138.4430 C   0  0  0  0  0  0  0  0  0  0  0  0
  185.6520  176.9940  137.3690 C   0  0  0  0  0  0  0  0  0  0  0  0
  183.3180  176.7980  136.9860 S   0  0  0  0  0  0  0  0  0  0  0  0
  186.9760  177.0420  137.5550 N   0  0  0  0  0  0  0  0  0  0  0  0
  184.8420  176.1800  136.6100 C   0  0  0  0  0  0  0  0  0  0  0  0
  185.9000  178.6590  138.8170 N   0  0  0  0  0  2  0  0  0  0  0  0
  185.2030  175.0580  135.7050 C   0  0  0  0  0  1  0  0  0  0  0  0
  187.3590  176.7020  143.9630 C   0  0  0  0  0  2  0  0  0  0  0  0
  187.4400  177.9060  144.9070 C   0  0  1  0  0  3  0  0  0  0  0  0
  186.0790  178.5560  145.0880 C   0  0  1  0  0  3  0  0  0  0  0  0
  185.3390  177.8650  146.1380 C   0  0  0  0  0  2  0  0  0  0  0  0
  185.9960  179.1460  146.4290 N   0  0  0  0  0  2  0  0  0  0  0  0
  188.0290  177.5290  146.2580 C   0  0  0  0  0  2  0  0  0  0  0  0
  189.5310  177.7400  146.2780 C   0  0  0  0  0  2  0  0  0  0  0  0
  191.6140  176.4200  146.2950 C   0  0  0  0  0  2  0  0  0  0  0  0
  190.2250  176.5390  146.8880 C   0  0  0  0  0  3  0  0  0  0  0  0
  191.4310  177.0150  147.6770 C   0  0  0  0  0  2  0  0  0  0  0  0
  190.5340  175.7180  138.4170 N   0  0  0  0  0  2  0  0  0  0  0  0
  190.9610  175.8250  137.0310 C   0  0  0  0  0  2  0  0  0  0  0  0
  195.2140  175.2720  136.7690 C   0  0  0  0  0  0  0  0  0  0  0  0
  192.4310  175.6260  136.9360 C   0  0  0  0  0  0  0  0  0  0  0  0
  193.1560  176.2370  135.9070 C   0  0  0  0  0  3  0  0  0  0  0  0
  194.5410  176.0580  135.8270 C   0  0  0  0  0  3  0  0  0  0  0  0
  193.0950  174.8470  137.8910 C   0  0  0  0  0  3  0  0  0  0  0  0
  194.4790  174.6690  137.8060 C   0  0  0  0  0  3  0  0  0  0  0  0
  196.6050  175.1250  136.6450 O   0  0  0  0  0  0  0  0  0  0  0  0
  197.4660  174.5550  137.5940 C   0  0  0  0  0  0  0  0  0  0  0  0
  198.1760  175.2670  138.3550 O   0  0  0  0  0  0  0  0  0  0  0  0
  197.5240  173.2060  137.7040 F   0  0  0  0  0  0  0  0  0  0  0  0
  1 29  1  6  0  0  0
  1  9  1  0  0  0  0
  3 19  1  0  0  0  0
  4  1  1  0  0  0  0
  4  5  1  0  0  0  0
  5 12  1  6  0  0  0
  5  6  1  0  0  0  0
  7  8  1  0  0  0  0
  8  3  1  0  0  0  0
  8  2  2  0  0  0  0
  9  6  2  0  0  0  0
  9  7  1  0  0  0  0
 10 17  1  0  0  0  0
 11 10  2  0  0  0  0
 12 17  1  0  0  0  0
 13 15  1  0  0  0  0
 13 10  1  0  0  0  0
 14 11  1  0  0  0  0
 15 12  2  0  0  0  0
 16 14  1  0  0  0  0
 16 13  2  0  0  0  0
 18 16  1  0  0  0  0
 20 19  1  6  0  0  0
 20 24  1  0  0  0  0
 21 20  1  1  0  0  0
 21 22  1  0  0  0  0
 21 23  1  0  0  0  0
 22 23  1  0  0  0  0
 24 25  1  0  0  0  0
 25 27  1  0  0  0  0
 26 27  1  0  0  0  0
 26 28  1  0  0  0  0
 27 28  1  0  0  0  0
 30 29  1  0  0  0  0
 31 36  1  0  0  0  0
 32 30  1  0  0  0  0
 32 35  1  0  0  0  0
 33 32  2  0  0  0  0
 34 33  1  0  0  0  0
 34 31  2  0  0  0  0
 36 35  2  0  0  0  0
 37 31  1  0  0  0  0
 37 38  1  0  0  0  0
 38 40  1  0  0  0  0
 38 39  2  0  0  0  0
M  END
>  <MODEL>
7

>  <REMARK>
 VINA RESULT:      -7.4      5.301      8.299
  Name = 
  12 active torsions:
  status: ('A' for Active; 'I' for Inactive)
    1  A    between atoms: C_1  and  O_27
    2  A    between atoms: C_2  and  N_30
    3  A    between atoms: C_3  and  C_18
    4  A    between atoms: C_5  and  C_25
    5  A    between atoms: N_6  and  C_20
    6  A    between atoms: C_8  and  C_21
    7  A    between atoms: C_8  and  C_33
    8  A    between atoms: C_10  and  O_27
    9  A    between atoms: C_11  and  C_22
   10  A    between atoms: C_18  and  C_20
   11  A    between atoms: C_18  and  C_33
   12  A    between atoms: C_25  and  N_30
                            x       y       z     vdW  Elec       q    Type
                         _______ _______ _______ _____ _____    ______ ____

>  <TORSDO>
F 12

$$$$
=
 OpenBabel11042411413D

 40 45  0  0  1  0  0  0  0  0999 V2000
  188.8540  178.3050  140.3600 C   0  0  1  0  0  3  0  0  0  0  0  0
  184.8620  179.3200  142.9300 O   0  0  0  0  0  0  0  0  0  0  0  0
  184.4270  178.9530  140.6680 N   0  0  0  0  0  2  0  0  0  0  0  0
  189.3030  178.0830  138.6090 S   0  0  0  0  0  0  0  0  0  0  0  0
  187.5600  178.2290  138.0890 C   0  0  2  0  0  3  0  0  0  0  0  0
  186.7660  178.5360  139.2640 N   0  0  0  0  0  0  0  0  0  0  0  0
  186.7240  178.8570  141.6230 N   0  0  0  0  0  2  0  0  0  0  0  0
  185.3140  179.0530  141.7850 C   0  0  0  0  0  0  0  0  0  0  0  0
  187.3940  178.5700  140.3900 C   0  0  0  0  0  0  0  0  0  0  0  0
  185.9270  175.5980  136.3670 C   0  0  0  0  0  0  0  0  0  0  0  0
  185.0120  174.9280  135.6280 N   0  0  0  0  0  0  0  0  0  0  0  0
  187.0970  176.9530  137.4500 C   0  0  0  0  0  0  0  0  0  0  0  0
  186.9760  174.9330  136.9040 C   0  0  0  0  0  0  0  0  0  0  0  0
  185.6530  173.3730  135.7000 S   0  0  0  0  0  0  0  0  0  0  0  0
  187.7540  175.7580  137.6110 N   0  0  0  0  0  0  0  0  0  0  0  0
  187.0340  173.5820  136.6440 C   0  0  0  0  0  0  0  0  0  0  0  0
  185.9550  176.8940  136.6950 N   0  0  0  0  0  2  0  0  0  0  0  0
  188.0370  172.5750  137.0770 C   0  0  0  0  0  1  0  0  0  0  0  0
  182.9760  179.0050  140.8040 C   0  0  0  0  0  2  0  0  0  0  0  0
  182.2850  178.1150  139.7650 C   0  0  1  0  0  3  0  0  0  0  0  0
  182.4870  178.6530  138.3590 C   0  0  1  0  0  3  0  0  0  0  0  0
  181.2200  179.1500  137.8340 C   0  0  0  0  0  2  0  0  0  0  0  0
  182.2200  180.0960  138.3460 N   0  0  0  0  0  2  0  0  0  0  0  0
  182.7560  176.6710  139.8510 C   0  0  0  0  0  2  0  0  0  0  0  0
  182.8070  176.0290  138.4780 C   0  0  0  0  0  2  0  0  0  0  0  0
  181.1080  175.3500  136.8240 C   0  0  0  0  0  2  0  0  0  0  0  0
  181.5820  175.1670  138.2520 C   0  0  0  0  0  3  0  0  0  0  0  0
  181.9040  174.1180  137.2040 C   0  0  0  0  0  2  0  0  0  0  0  0
  189.1430  177.0870  141.0940 N   0  0  0  0  0  2  0  0  0  0  0  0
  190.4560  177.2540  141.6980 C   0  0  0  0  0  2  0  0  0  0  0  0
  190.1250  177.1010  145.9790 C   0  0  0  0  0  0  0  0  0  0  0  0
  190.3430  177.2100  143.1790 C   0  0  0  0  0  0  0  0  0  0  0  0
  189.0840  177.2590  143.7880 C   0  0  0  0  0  3  0  0  0  0  0  0
  188.9790  177.2050  145.1820 C   0  0  0  0  0  3  0  0  0  0  0  0
  191.4950  177.0940  143.9660 C   0  0  0  0  0  3  0  0  0  0  0  0
  191.3860  177.0430  145.3590 C   0  0  0  0  0  3  0  0  0  0  0  0
  189.9660  177.0500  147.3730 O   0  0  0  0  0  0  0  0  0  0  0  0
  188.9700  177.6990  148.1170 C   0  0  0  0  0  0  0  0  0  0  0  0
  187.9130  177.1080  148.4660 O   0  0  0  0  0  0  0  0  0  0  0  0
  189.1580  178.9910  148.4820 F   0  0  0  0  0  0  0  0  0  0  0  0
  1  9  1  0  0  0  0
  1 29  1  1  0  0  0
  3 19  1  0  0  0  0
  3  8  1  0  0  0  0
  4  1  1  0  0  0  0
  5 12  1  1  0  0  0
  5  4  1  0  0  0  0
  5  6  1  0  0  0  0
  6  9  2  0  0  0  0
  7  8  1  0  0  0  0
  8  2  2  0  0  0  0
  9  7  1  0  0  0  0
 10 17  1  0  0  0  0
 10 13  1  0  0  0  0
 11 14  1  0  0  0  0
 11 10  2  0  0  0  0
 12 15  2  0  0  0  0
 13 15  1  0  0  0  0
 14 16  1  0  0  0  0
 16 13  2  0  0  0  0
 16 18  1  0  0  0  0
 17 12  1  0  0  0  0
 20 24  1  6  0  0  0
 20 19  1  0  0  0  0
 21 20  1  1  0  0  0
 22 23  1  0  0  0  0
 22 21  1  0  0  0  0
 23 21  1  0  0  0  0
 25 24  1  0  0  0  0
 26 28  1  0  0  0  0
 26 27  1  0  0  0  0
 27 25  1  0  0  0  0
 28 27  1  0  0  0  0
 29 30  1  0  0  0  0
 30 32  1  0  0  0  0
 31 37  1  0  0  0  0
 32 33  2  0  0  0  0
 32 35  1  0  0  0  0
 33 34  1  0  0  0  0
 34 31  2  0  0  0  0
 35 36  2  0  0  0  0
 36 31  1  0  0  0  0
 37 38  1  0  0  0  0
 38 39  2  0  0  0  0
 38 40  1  0  0  0  0
M  END
>  <MODEL>
8

>  <REMARK>
 VINA RESULT:      -7.4      1.815      2.801
  Name = 
  12 active torsions:
  status: ('A' for Active; 'I' for Inactive)
    1  A    between atoms: C_1  and  O_27
    2  A    between atoms: C_2  and  N_30
    3  A    between atoms: C_3  and  C_18
    4  A    between atoms: C_5  and  C_25
    5  A    between atoms: N_6  and  C_20
    6  A    between atoms: C_8  and  C_21
    7  A    between atoms: C_8  and  C_33
    8  A    between atoms: C_10  and  O_27
    9  A    between atoms: C_11  and  C_22
   10  A    between atoms: C_18  and  C_20
   11  A    between atoms: C_18  and  C_33
   12  A    between atoms: C_25  and  N_30
                            x       y       z     vdW  Elec       q    Type
                         _______ _______ _______ _____ _____    ______ ____

>  <TORSDO>
F 12

$$$$
=
 OpenBabel11042411413D

 40 45  0  0  1  0  0  0  0  0999 V2000
  189.0930  178.2590  140.1300 C   0  0  1  0  0  3  0  0  0  0  0  0
  185.5170  178.9470  143.3400 O   0  0  0  0  0  0  0  0  0  0  0  0
  184.7460  178.6610  141.1570 N   0  0  0  0  0  2  0  0  0  0  0  0
  189.2700  178.1390  138.3210 S   0  0  0  0  0  0  0  0  0  0  0  0
  187.4620  178.2170  138.0870 C   0  0  2  0  0  3  0  0  0  0  0  0
  186.8510  178.4290  139.3860 N   0  0  0  0  0  0  0  0  0  0  0  0
  187.1680  178.6410  141.7360 N   0  0  0  0  0  2  0  0  0  0  0  0
  185.7940  178.7560  142.1260 C   0  0  0  0  0  0  0  0  0  0  0  0
  187.6460  178.4460  140.4010 C   0  0  0  0  0  0  0  0  0  0  0  0
  185.6970  175.5880  136.4990 C   0  0  0  0  0  0  0  0  0  0  0  0
  184.7100  174.9060  135.8710 N   0  0  0  0  0  0  0  0  0  0  0  0
  186.9610  176.9490  137.4610 C   0  0  0  0  0  0  0  0  0  0  0  0
  186.8410  174.9510  136.8400 C   0  0  0  0  0  0  0  0  0  0  0  0
  185.4170  173.3820  135.7700 S   0  0  0  0  0  0  0  0  0  0  0  0
  187.6830  175.7820  137.4640 N   0  0  0  0  0  0  0  0  0  0  0  0
  186.9150  173.6170  136.5080 C   0  0  0  0  0  0  0  0  0  0  0  0
  185.7210  176.8680  136.8830 N   0  0  0  0  0  2  0  0  0  0  0  0
  188.0120  172.6410  136.7380 C   0  0  0  0  0  1  0  0  0  0  0  0
  183.3340  178.6300  141.5200 C   0  0  0  0  0  2  0  0  0  0  0  0
  182.4570  178.2620  140.3190 C   0  0  1  0  0  3  0  0  0  0  0  0
  182.5520  176.7800  140.0020 C   0  0  1  0  0  3  0  0  0  0  0  0
  181.4010  176.3710  139.2040 C   0  0  0  0  0  2  0  0  0  0  0  0
  182.6970  176.6000  138.5520 N   0  0  0  0  0  2  0  0  0  0  0  0
  181.0050  178.6640  140.5330 C   0  0  0  0  0  2  0  0  0  0  0  0
  180.5790  179.7290  139.5400 C   0  0  0  0  0  2  0  0  0  0  0  0
  181.2190  180.5870  137.3190 C   0  0  0  0  0  2  0  0  0  0  0  0
  181.7480  180.1310  138.6630 C   0  0  0  0  0  3  0  0  0  0  0  0
  181.6420  181.6120  138.3500 C   0  0  0  0  0  2  0  0  0  0  0  0
  189.5490  177.0250  140.7450 N   0  0  0  0  0  2  0  0  0  0  0  0
  190.9590  177.1990  141.0590 C   0  0  0  0  0  2  0  0  0  0  0  0
  191.5120  177.0980  145.3190 C   0  0  0  0  0  0  0  0  0  0  0  0
  191.1590  177.1650  142.5310 C   0  0  0  0  0  0  0  0  0  0  0  0
  191.0590  178.3430  143.2800 C   0  0  0  0  0  3  0  0  0  0  0  0
  191.2360  178.3060  144.6670 C   0  0  0  0  0  3  0  0  0  0  0  0
  191.4220  175.9500  143.1730 C   0  0  0  0  0  3  0  0  0  0  0  0
  191.6010  175.9170  144.5600 C   0  0  0  0  0  3  0  0  0  0  0  0
  191.6800  177.1150  146.7120 O   0  0  0  0  0  0  0  0  0  0  0  0
  192.0580  176.0290  147.5150 C   0  0  0  0  0  0  0  0  0  0  0  0
  193.1730  175.9970  148.1030 O   0  0  0  0  0  0  0  0  0  0  0  0
  191.1960  174.9950  147.6720 F   0  0  0  0  0  0  0  0  0  0  0  0
  1  9  1  0  0  0  0
  1 29  1  1  0  0  0
  3 19  1  0  0  0  0
  3  8  1  0  0  0  0
  4  1  1  0  0  0  0
  5 12  1  1  0  0  0
  5  4  1  0  0  0  0
  5  6  1  0  0  0  0
  6  9  2  0  0  0  0
  7  8  1  0  0  0  0
  8  2  2  0  0  0  0
  9  7  1  0  0  0  0
 10 13  1  0  0  0  0
 10 17  1  0  0  0  0
 11 10  2  0  0  0  0
 12 15  2  0  0  0  0
 13 15  1  0  0  0  0
 14 11  1  0  0  0  0
 14 16  1  0  0  0  0
 16 18  1  0  0  0  0
 16 13  2  0  0  0  0
 17 12  1  0  0  0  0
 20 24  1  1  0  0  0
 20 19  1  0  0  0  0
 21 20  1  6  0  0  0
 22 21  1  0  0  0  0
 23 22  1  0  0  0  0
 23 21  1  0  0  0  0
 25 24  1  0  0  0  0
 26 28  1  0  0  0  0
 26 27  1  0  0  0  0
 27 25  1  0  0  0  0
 28 27  1  0  0  0  0
 29 30  1  0  0  0  0
 30 32  1  0  0  0  0
 31 37  1  0  0  0  0
 32 35  2  0  0  0  0
 32 33  1  0  0  0  0
 33 34  2  0  0  0  0
 34 31  1  0  0  0  0
 35 36  1  0  0  0  0
 36 31  2  0  0  0  0
 37 38  1  0  0  0  0
 38 40  1  0  0  0  0
 38 39  2  0  0  0  0
M  END
>  <MODEL>
9

>  <REMARK>
 VINA RESULT:      -7.4      2.472      3.325
  Name = 
  12 active torsions:
  status: ('A' for Active; 'I' for Inactive)
    1  A    between atoms: C_1  and  O_27
    2  A    between atoms: C_2  and  N_30
    3  A    between atoms: C_3  and  C_18
    4  A    between atoms: C_5  and  C_25
    5  A    between atoms: N_6  and  C_20
    6  A    between atoms: C_8  and  C_21
    7  A    between atoms: C_8  and  C_33
    8  A    between atoms: C_10  and  O_27
    9  A    between atoms: C_11  and  C_22
   10  A    between atoms: C_18  and  C_20
   11  A    between atoms: C_18  and  C_33
   12  A    between atoms: C_25  and  N_30
                            x       y       z     vdW  Elec       q    Type
                         _______ _______ _______ _____ _____    ______ ____

>  <TORSDO>
F 12

$$$$
