=
 OpenBabel11042411003D

 29 28  0  0  1  0  0  0  0  0999 V2000
  189.2270  177.9120  148.4160 C   0  0  0  0  0  3  0  0  0  0  0  0
  187.2310  178.1960  147.0380 C   0  0  0  0  0  3  0  0  0  0  0  0
  190.9500  176.5810  147.5040 O   0  0  0  0  0  0  0  0  0  0  0  0
  189.2110  177.1370  145.9520 C   0  0  1  0  0  3  0  0  0  0  0  0
  187.9970  178.4050  148.2780 C   0  0  0  0  0  3  0  0  0  0  0  0
  189.8530  177.1670  147.3140 C   0  0  0  0  0  0  0  0  0  0  0  0
  187.7620  177.5810  145.9750 C   0  0  0  0  0  0  0  0  0  0  0  0
  186.9080  177.3630  144.7680 C   0  0  0  0  0  2  0  0  0  0  0  0
  185.4450  178.4680  142.4620 N   0  0  0  0  0  2  0  0  0  0  0  0
  183.7900  179.1170  143.9760 O   0  0  0  0  0  0  0  0  0  0  0  0
  185.6430  178.0720  144.9020 N   0  0  0  0  0  2  0  0  0  0  0  0
  184.9090  178.5720  143.7840 C   0  0  0  0  0  0  0  0  0  0  0  0
  184.7550  178.9920  141.2910 C   0  0  0  0  0  2  0  0  0  0  0  0
  183.7790  177.9640  140.7430 C   0  0  0  0  0  2  0  0  0  0  0  0
  182.4680  178.3770  140.9850 O   0  0  0  0  0  1  0  0  0  0  0  0
  190.1680  178.1890  144.8170 S   0  0  0  0  0  0  0  0  0  0  0  0
  190.9640  176.7490  144.0450 C   0  0  0  0  0  2  0  0  0  0  0  0
  190.1090  176.2370  142.8990 C   0  0  0  0  0  2  0  0  0  0  0  0
  189.9920  177.2930  141.8090 C   0  0  1  0  0  3  0  0  0  0  0  0
  192.0700  177.5920  140.7050 O   0  0  0  0  0  0  0  0  0  0  0  0
  190.9510  177.0160  140.6890 C   0  0  0  0  0  0  0  0  0  0  0  0
  191.2570  176.2460  138.3480 C   0  0  0  0  0  1  0  0  0  0  0  0
  190.6590  176.1430  139.6320 O   0  0  0  0  0  0  0  0  0  0  0  0
  188.5560  177.4060  141.3100 C   0  0  0  0  0  2  0  0  0  0  0  0
  188.4170  178.5370  140.3030 C   0  0  0  0  0  1  0  0  0  0  0  0
  187.6300  178.0330  138.9640 C   0  0  0  0  0  1  0  0  0  0  0  0
  188.0940  178.5900  138.9120 O   0  0  0  0  0  0  0  0  0  0  0  0
  188.3270  178.4970  137.6780 C   0  0  0  0  0  2  0  0  0  0  0  0
  187.6680  179.2910  136.7480 O   0  0  0  0  0  1  0  0  0  0  0  0
  2  5  1  0  0  0  0
  4 16  1  6  0  0  0
  4  7  1  0  0  0  0
  4  6  1  0  0  0  0
  5  1  2  0  0  0  0
  6  3  2  0  0  0  0
  6  1  1  0  0  0  0
  7  2  2  0  0  0  0
  8 11  1  0  0  0  0
  8  7  1  0  0  0  0
  9 12  1  0  0  0  0
 12 10  2  0  0  0  0
 12 11  1  0  0  0  0
 13  9  1  0  0  0  0
 14 15  1  0  0  0  0
 14 13  1  0  0  0  0
 17 16  1  0  0  0  0
 18 17  1  0  0  0  0
 19 24  1  6  0  0  0
 19 18  1  0  0  0  0
 21 20  2  0  0  0  0
 21 19  1  0  0  0  0
 22 23  1  0  0  0  0
 23 21  1  0  0  0  0
 25 24  1  0  0  0  0
 27 26  1  0  0  0  0
 28 27  1  0  0  0  0
 29 28  1  0  0  0  0
M  END
>  <MODEL>
1

>  <REMARK>
 VINA RESULT:      -7.2      0.000      0.000
  Name = 
  14 active torsions:
  status: ('A' for Active; 'I' for Inactive)
    1  A    between atoms: C_2  and  C_13
    2  A    between atoms: C_2  and  C_17
    3  A    between atoms: C_6  and  C_11
    4  A    between atoms: C_7  and  N_24
    5  A    between atoms: C_7  and  C_26
    6  A    between atoms: N_9  and  C_11
    7  A    between atoms: C_10  and  C_19
    8  A    between atoms: C_10  and  C_25
    9  A    between atoms: C_10  and  C_29
   10  A    between atoms: C_15  and  S_28
   11  A    between atoms: C_17  and  C_25
   12  A    between atoms: C_18  and  S_28
   13  A    between atoms: C_18  and  C_29
   14  A    between atoms: C_19  and  O_23
                            x       y       z     vdW  Elec       q    Type
                         _______ _______ _______ _____ _____    ______ ____

>  <TORSDO>
F 14

$$$$
=
 OpenBabel11042411003D

 29 29  0  0  1  0  0  0  0  0999 V2000
  190.8360  177.1580  140.0010 C   0  0  0  0  0  3  0  0  0  0  0  0
  188.4920  177.8090  139.7880 C   0  0  0  0  0  3  0  0  0  0  0  0
  191.7550  177.2460  142.1730 O   0  0  0  0  0  0  0  0  0  0  0  0
  189.3750  177.5110  142.1010 C   0  0  1  0  0  3  0  0  0  0  0  0
  189.7800  177.3800  139.2190 C   0  0  0  0  0  3  0  0  0  0  0  0
  190.7220  177.3140  141.4580 C   0  0  0  0  0  0  0  0  0  0  0  0
  188.3020  177.9110  141.1090 C   0  0  0  0  0  0  0  0  0  0  0  0
  186.9810  178.3970  141.6110 C   0  0  0  0  0  2  0  0  0  0  0  0
  184.0400  178.5620  141.5860 N   0  0  0  0  0  2  0  0  0  0  0  0
  184.2460  179.8040  139.6200 O   0  0  0  0  0  0  0  0  0  0  0  0
  186.2360  179.0490  140.5430 N   0  0  0  0  0  2  0  0  0  0  0  0
  184.8140  179.1690  140.5480 C   0  0  0  0  0  0  0  0  0  0  0  0
  182.5840  178.6230  141.6200 C   0  0  0  0  0  2  0  0  0  0  0  0
  182.1040  179.1170  142.9750 C   0  0  0  0  0  2  0  0  0  0  0  0
  182.9560  178.6570  143.9790 O   0  0  0  0  0  1  0  0  0  0  0  0
  188.8930  175.9800  142.9600 S   0  0  0  0  0  0  0  0  0  0  0  0
  188.1500  176.9050  144.3360 C   0  0  0  0  0  2  0  0  0  0  0  0
  189.1990  177.7830  144.9960 C   0  0  0  0  0  2  0  0  0  0  0  0
  189.7300  177.1220  146.2590 C   0  0  1  0  0  3  0  0  0  0  0  0
  191.8050  177.0930  145.1100 O   0  0  0  0  0  0  0  0  0  0  0  0
  191.2270  177.0270  146.2260 C   0  0  0  0  0  0  0  0  0  0  0  0
  192.4410  175.6120  147.8660 C   0  0  0  0  0  1  0  0  0  0  0  0
  192.0080  176.8740  147.3800 O   0  0  0  0  0  0  0  0  0  0  0  0
  189.2360  177.8480  147.5060 C   0  0  0  0  0  2  0  0  0  0  0  0
  187.8290  177.4060  147.8720 C   0  0  0  0  0  2  0  0  0  0  0  0
  186.7770  178.6500  147.7610 C   0  0  0  0  0  2  0  0  0  0  0  0
  186.5180  179.1700  147.3230 O   0  0  0  0  0  0  0  0  0  0  0  0
  185.7540  178.4410  146.6370 C   0  0  0  0  0  2  0  0  0  0  0  0
  184.3950  178.3500  146.9080 O   0  0  0  0  0  1  0  0  0  0  0  0
  1  6  1  0  0  0  0
  2  7  2  0  0  0  0
  4 16  1  6  0  0  0
  5  2  1  0  0  0  0
  5  1  2  0  0  0  0
  6  4  1  0  0  0  0
  6  3  2  0  0  0  0
  7  8  1  0  0  0  0
  7  4  1  0  0  0  0
  9 13  1  0  0  0  0
 10 12  2  0  0  0  0
 11 12  1  0  0  0  0
 11  8  1  0  0  0  0
 12  9  1  0  0  0  0
 13 14  1  0  0  0  0
 14 15  1  0  0  0  0
 16 17  1  0  0  0  0
 17 18  1  0  0  0  0
 19 18  1  6  0  0  0
 19 24  1  0  0  0  0
 20 21  2  0  0  0  0
 21 19  1  0  0  0  0
 21 23  1  0  0  0  0
 23 22  1  0  0  0  0
 24 25  1  0  0  0  0
 26 25  1  0  0  0  0
 27 26  1  0  0  0  0
 28 29  1  0  0  0  0
 28 27  1  0  0  0  0
M  END
>  <MODEL>
2

>  <REMARK>
 VINA RESULT:      -7.0      2.078      6.183
  Name = 
  14 active torsions:
  status: ('A' for Active; 'I' for Inactive)
    1  A    between atoms: C_2  and  C_13
    2  A    between atoms: C_2  and  C_17
    3  A    between atoms: C_6  and  C_11
    4  A    between atoms: C_7  and  N_24
    5  A    between atoms: C_7  and  C_26
    6  A    between atoms: N_9  and  C_11
    7  A    between atoms: C_10  and  C_19
    8  A    between atoms: C_10  and  C_25
    9  A    between atoms: C_10  and  C_29
   10  A    between atoms: C_15  and  S_28
   11  A    between atoms: C_17  and  C_25
   12  A    between atoms: C_18  and  S_28
   13  A    between atoms: C_18  and  C_29
   14  A    between atoms: C_19  and  O_23
                            x       y       z     vdW  Elec       q    Type
                         _______ _______ _______ _____ _____    ______ ____

>  <TORSDO>
F 14

$$$$
=
 OpenBabel11042411003D

 29 28  0  0  1  0  0  0  0  0999 V2000
  191.7500  176.0820  146.6970 C   0  0  0  0  0  3  0  0  0  0  0  0
  189.6610  177.3220  146.9470 C   0  0  0  0  0  3  0  0  0  0  0  0
  192.2610  175.3160  144.5230 O   0  0  0  0  0  0  0  0  0  0  0  0
  190.4200  176.8460  144.6190 C   0  0  1  0  0  3  0  0  0  0  0  0
  190.8810  176.7040  147.4920 C   0  0  0  0  0  3  0  0  0  0  0  0
  191.5160  176.0270  145.2470 C   0  0  0  0  0  0  0  0  0  0  0  0
  189.4170  177.3600  145.6320 C   0  0  0  0  0  0  0  0  0  0  0  0
  188.1350  177.9630  145.1550 C   0  0  0  0  0  2  0  0  0  0  0  0
  185.3810  178.9480  144.7930 N   0  0  0  0  0  2  0  0  0  0  0  0
  185.0870  178.6080  147.0850 O   0  0  0  0  0  0  0  0  0  0  0  0
  187.2020  178.1220  146.2620 N   0  0  0  0  0  2  0  0  0  0  0  0
  185.8530  178.5580  146.0860 C   0  0  0  0  0  0  0  0  0  0  0  0
  184.0280  179.4340  144.5640 C   0  0  0  0  0  2  0  0  0  0  0  0
  183.3430  178.6120  143.4840 C   0  0  0  0  0  2  0  0  0  0  0  0
  184.2830  178.1680  142.5550 O   0  0  0  0  0  1  0  0  0  0  0  0
  191.1600  178.2390  143.7100 S   0  0  0  0  0  0  0  0  0  0  0  0
  191.1580  177.3090  142.1490 C   0  0  0  0  0  2  0  0  0  0  0  0
  189.7530  176.8260  141.8350 C   0  0  0  0  0  2  0  0  0  0  0  0
  189.4090  177.0980  140.3780 C   0  0  1  0  0  3  0  0  0  0  0  0
  188.0500  178.8020  141.3130 O   0  0  0  0  0  0  0  0  0  0  0  0
  188.4180  178.2190  140.2600 C   0  0  0  0  0  0  0  0  0  0  0  0
  187.3140  177.7650  138.0840 C   0  0  0  0  0  1  0  0  0  0  0  0
  187.8920  178.6470  139.0340 O   0  0  0  0  0  0  0  0  0  0  0  0
  190.6680  177.3660  139.5600 C   0  0  0  0  0  2  0  0  0  0  0  0
  190.9170  176.2470  138.5610 C   0  0  0  0  0  1  0  0  0  0  0  0
  192.2950  176.5070  137.7250 C   0  0  0  0  0  1  0  0  0  0  0  0
  192.2970  175.9930  138.2390 O   0  0  0  0  0  0  0  0  0  0  0  0
  193.2350  175.2940  137.7720 C   0  0  0  0  0  2  0  0  0  0  0  0
  194.5360  175.4090  138.2440 O   0  0  0  0  0  1  0  0  0  0  0  0
  1  5  2  0  0  0  0
  2  5  1  0  0  0  0
  3  6  2  0  0  0  0
  4 16  1  1  0  0  0
  4  6  1  0  0  0  0
  4  7  1  0  0  0  0
  6  1  1  0  0  0  0
  7  2  2  0  0  0  0
  8  7  1  0  0  0  0
  8 11  1  0  0  0  0
  9 12  1  0  0  0  0
 12 11  1  0  0  0  0
 12 10  2  0  0  0  0
 13  9  1  0  0  0  0
 14 13  1  0  0  0  0
 15 14  1  0  0  0  0
 17 16  1  0  0  0  0
 18 17  1  0  0  0  0
 19 24  1  6  0  0  0
 19 18  1  0  0  0  0
 21 19  1  0  0  0  0
 21 20  2  0  0  0  0
 22 23  1  0  0  0  0
 23 21  1  0  0  0  0
 25 24  1  0  0  0  0
 26 27  1  0  0  0  0
 28 27  1  0  0  0  0
 28 29  1  0  0  0  0
M  END
>  <MODEL>
3

>  <REMARK>
 VINA RESULT:      -6.7      1.790      3.488
  Name = 
  14 active torsions:
  status: ('A' for Active; 'I' for Inactive)
    1  A    between atoms: C_2  and  C_13
    2  A    between atoms: C_2  and  C_17
    3  A    between atoms: C_6  and  C_11
    4  A    between atoms: C_7  and  N_24
    5  A    between atoms: C_7  and  C_26
    6  A    between atoms: N_9  and  C_11
    7  A    between atoms: C_10  and  C_19
    8  A    between atoms: C_10  and  C_25
    9  A    between atoms: C_10  and  C_29
   10  A    between atoms: C_15  and  S_28
   11  A    between atoms: C_17  and  C_25
   12  A    between atoms: C_18  and  S_28
   13  A    between atoms: C_18  and  C_29
   14  A    between atoms: C_19  and  O_23
                            x       y       z     vdW  Elec       q    Type
                         _______ _______ _______ _____ _____    ______ ____

>  <TORSDO>
F 14

$$$$
=
 OpenBabel11042411003D

 29 28  0  0  1  0  0  0  0  0999 V2000
  191.6240  177.1890  141.5820 C   0  0  0  0  0  3  0  0  0  0  0  0
  189.7320  177.7030  140.1260 C   0  0  0  0  0  3  0  0  0  0  0  0
  191.3650  177.7240  143.8660 O   0  0  0  0  0  0  0  0  0  0  0  0
  189.3480  177.8850  142.5840 C   0  0  1  0  0  3  0  0  0  0  0  0
  191.1030  177.2190  140.3560 C   0  0  0  0  0  3  0  0  0  0  0  0
  190.8210  177.6160  142.7360 C   0  0  0  0  0  0  0  0  0  0  0  0
  188.9270  178.0500  141.1380 C   0  0  0  0  0  0  0  0  0  0  0  0
  187.5630  178.5760  140.8240 C   0  0  0  0  0  2  0  0  0  0  0  0
  184.9650  179.3260  139.6550 N   0  0  0  0  0  2  0  0  0  0  0  0
  185.7000  178.3200  137.6800 O   0  0  0  0  0  0  0  0  0  0  0  0
  187.1760  178.2170  139.4670 N   0  0  0  0  0  2  0  0  0  0  0  0
  185.9360  178.6140  138.8820 C   0  0  0  0  0  0  0  0  0  0  0  0
  183.6700  179.7230  139.1190 C   0  0  0  0  0  2  0  0  0  0  0  0
  182.6250  178.6580  139.4080 C   0  0  0  0  0  2  0  0  0  0  0  0
  181.7800  178.5090  138.3090 O   0  0  0  0  0  1  0  0  0  0  0  0
  188.4100  176.5310  143.3580 S   0  0  0  0  0  0  0  0  0  0  0  0
  187.2850  177.6930  144.1870 C   0  0  0  0  0  2  0  0  0  0  0  0
  186.8690  177.1370  145.5370 C   0  0  0  0  0  2  0  0  0  0  0  0
  187.0240  178.1940  146.6210 C   0  0  1  0  0  3  0  0  0  0  0  0
  185.7560  179.9910  147.5110 O   0  0  0  0  0  0  0  0  0  0  0  0
  185.7300  178.9190  146.8510 C   0  0  0  0  0  0  0  0  0  0  0  0
  183.8570  179.0170  145.2240 C   0  0  0  0  0  1  0  0  0  0  0  0
  184.5000  178.4600  146.3620 O   0  0  0  0  0  0  0  0  0  0  0  0
  187.5680  177.5830  147.9070 C   0  0  0  0  0  2  0  0  0  0  0  0
  189.0460  177.8950  148.0760 C   0  0  0  0  0  1  0  0  0  0  0  0
  189.9290  177.2010  146.8900 C   0  0  0  0  0  1  0  0  0  0  0  0
  189.9900  176.9870  147.5820 O   0  0  0  0  0  0  0  0  0  0  0  0
  191.0400  176.3030  147.4500 C   0  0  0  0  0  2  0  0  0  0  0  0
  192.2900  176.8170  147.7670 O   0  0  0  0  0  1  0  0  0  0  0  0
  1  6  1  0  0  0  0
  2  5  1  0  0  0  0
  2  7  2  0  0  0  0
  4  6  1  0  0  0  0
  4 16  1  6  0  0  0
  5  1  2  0  0  0  0
  6  3  2  0  0  0  0
  7  4  1  0  0  0  0
  8  7  1  0  0  0  0
 10 12  2  0  0  0  0
 11  8  1  0  0  0  0
 12 11  1  0  0  0  0
 12  9  1  0  0  0  0
 13 14  1  0  0  0  0
 13  9  1  0  0  0  0
 15 14  1  0  0  0  0
 16 17  1  0  0  0  0
 17 18  1  0  0  0  0
 19 18  1  6  0  0  0
 19 21  1  0  0  0  0
 19 24  1  0  0  0  0
 21 20  2  0  0  0  0
 22 23  1  0  0  0  0
 23 21  1  0  0  0  0
 24 25  1  0  0  0  0
 26 27  1  0  0  0  0
 28 27  1  0  0  0  0
 28 29  1  0  0  0  0
M  END
>  <MODEL>
4

>  <REMARK>
 VINA RESULT:      -6.7      2.257      6.810
  Name = 
  14 active torsions:
  status: ('A' for Active; 'I' for Inactive)
    1  A    between atoms: C_2  and  C_13
    2  A    between atoms: C_2  and  C_17
    3  A    between atoms: C_6  and  C_11
    4  A    between atoms: C_7  and  N_24
    5  A    between atoms: C_7  and  C_26
    6  A    between atoms: N_9  and  C_11
    7  A    between atoms: C_10  and  C_19
    8  A    between atoms: C_10  and  C_25
    9  A    between atoms: C_10  and  C_29
   10  A    between atoms: C_15  and  S_28
   11  A    between atoms: C_17  and  C_25
   12  A    between atoms: C_18  and  S_28
   13  A    between atoms: C_18  and  C_29
   14  A    between atoms: C_19  and  O_23
                            x       y       z     vdW  Elec       q    Type
                         _______ _______ _______ _____ _____    ______ ____

>  <TORSDO>
F 14

$$$$
=
 OpenBabel11042411003D

 29 29  0  0  1  0  0  0  0  0999 V2000
  190.5270  176.6410  146.8060 C   0  0  0  0  0  3  0  0  0  0  0  0
  191.6710  176.8150  144.6550 C   0  0  0  0  0  3  0  0  0  0  0  0
  188.5520  177.9100  147.0490 O   0  0  0  0  0  0  0  0  0  0  0  0
  189.3930  177.8190  144.8070 C   0  0  1  0  0  3  0  0  0  0  0  0
  191.5650  176.3170  146.0360 C   0  0  0  0  0  3  0  0  0  0  0  0
  189.4500  177.4880  146.2750 C   0  0  0  0  0  0  0  0  0  0  0  0
  190.6980  177.5400  144.0900 C   0  0  0  0  0  0  0  0  0  0  0  0
  190.8970  178.0510  142.6990 C   0  0  0  0  0  2  0  0  0  0  0  0
  189.4130  177.8620  140.1610 N   0  0  0  0  0  2  0  0  0  0  0  0
  190.6300  175.9140  139.7350 O   0  0  0  0  0  0  0  0  0  0  0  0
  191.0660  176.9450  141.7670 N   0  0  0  0  0  2  0  0  0  0  0  0
  190.3820  176.8710  140.5160 C   0  0  0  0  0  0  0  0  0  0  0  0
  188.6600  177.8140  138.9150 C   0  0  0  0  0  2  0  0  0  0  0  0
  189.1430  178.8930  137.9600 C   0  0  0  0  0  2  0  0  0  0  0  0
  188.1050  179.2770  137.1110 O   0  0  0  0  0  1  0  0  0  0  0  0
  188.0420  176.8760  144.0340 S   0  0  0  0  0  0  0  0  0  0  0  0
  187.2510  178.3890  143.4100 C   0  0  0  0  0  2  0  0  0  0  0  0
  186.4870  178.0840  142.1330 C   0  0  0  0  0  2  0  0  0  0  0  0
  185.2310  178.9400  142.0470 C   0  0  1  0  0  3  0  0  0  0  0  0
  185.5590  178.9880  139.6980 O   0  0  0  0  0  0  0  0  0  0  0  0
  184.7210  179.0030  140.6370 C   0  0  0  0  0  0  0  0  0  0  0  0
  182.8570  179.7280  139.1660 C   0  0  0  0  0  1  0  0  0  0  0  0
  183.3580  179.0710  140.3210 O   0  0  0  0  0  0  0  0  0  0  0  0
  184.1630  178.4420  143.0140 C   0  0  0  0  0  2  0  0  0  0  0  0
  183.8620  179.4860  144.0780 C   0  0  0  0  0  2  0  0  0  0  0  0
  184.0180  178.8560  145.5760 C   0  0  0  0  0  2  0  0  0  0  0  0
  184.3970  178.3460  145.9300 O   0  0  0  0  0  0  0  0  0  0  0  0
  185.4410  179.0240  146.1260 C   0  0  0  0  0  2  0  0  0  0  0  0
  185.6750  179.6720  147.3320 O   0  0  0  0  0  1  0  0  0  0  0  0
  2  5  1  0  0  0  0
  4 16  1  6  0  0  0
  4  6  1  0  0  0  0
  5  1  2  0  0  0  0
  6  1  1  0  0  0  0
  6  3  2  0  0  0  0
  7  2  2  0  0  0  0
  7  4  1  0  0  0  0
  8  7  1  0  0  0  0
  9 12  1  0  0  0  0
 10 12  2  0  0  0  0
 11  8  1  0  0  0  0
 12 11  1  0  0  0  0
 13  9  1  0  0  0  0
 14 13  1  0  0  0  0
 15 14  1  0  0  0  0
 17 16  1  0  0  0  0
 18 17  1  0  0  0  0
 19 18  1  6  0  0  0
 19 24  1  0  0  0  0
 20 21  2  0  0  0  0
 21 19  1  0  0  0  0
 22 23  1  0  0  0  0
 23 21  1  0  0  0  0
 24 25  1  0  0  0  0
 25 26  1  0  0  0  0
 26 27  1  0  0  0  0
 27 28  1  0  0  0  0
 28 29  1  0  0  0  0
M  END
>  <MODEL>
5

>  <REMARK>
 VINA RESULT:      -6.6      2.202      6.053
  Name = 
  14 active torsions:
  status: ('A' for Active; 'I' for Inactive)
    1  A    between atoms: C_2  and  C_13
    2  A    between atoms: C_2  and  C_17
    3  A    between atoms: C_6  and  C_11
    4  A    between atoms: C_7  and  N_24
    5  A    between atoms: C_7  and  C_26
    6  A    between atoms: N_9  and  C_11
    7  A    between atoms: C_10  and  C_19
    8  A    between atoms: C_10  and  C_25
    9  A    between atoms: C_10  and  C_29
   10  A    between atoms: C_15  and  S_28
   11  A    between atoms: C_17  and  C_25
   12  A    between atoms: C_18  and  S_28
   13  A    between atoms: C_18  and  C_29
   14  A    between atoms: C_19  and  O_23
                            x       y       z     vdW  Elec       q    Type
                         _______ _______ _______ _____ _____    ______ ____

>  <TORSDO>
F 14

$$$$
=
 OpenBabel11042411003D

 29 28  0  0  1  0  0  0  0  0999 V2000
  191.6530  176.4620  146.0850 C   0  0  0  0  0  3  0  0  0  0  0  0
  189.4120  177.2960  146.5800 C   0  0  0  0  0  3  0  0  0  0  0  0
  192.0090  175.6460  143.8990 O   0  0  0  0  0  0  0  0  0  0  0  0
  189.9290  176.8010  144.1910 C   0  0  1  0  0  3  0  0  0  0  0  0
  190.7920  176.9650  146.9690 C   0  0  0  0  0  3  0  0  0  0  0  0
  191.2420  176.2540  144.6890 C   0  0  0  0  0  0  0  0  0  0  0  0
  188.9900  177.1890  145.3150 C   0  0  0  0  0  0  0  0  0  0  0  0
  187.5610  177.4990  145.0030 C   0  0  0  0  0  2  0  0  0  0  0  0
  184.8150  178.5610  144.8980 N   0  0  0  0  0  2  0  0  0  0  0  0
  185.0550  179.0720  147.1640 O   0  0  0  0  0  0  0  0  0  0  0  0
  186.9130  178.1250  146.1480 N   0  0  0  0  0  2  0  0  0  0  0  0
  185.5680  178.6020  146.1140 C   0  0  0  0  0  0  0  0  0  0  0  0
  183.4530  179.0670  144.7990 C   0  0  0  0  0  2  0  0  0  0  0  0
  182.9610  178.9930  143.3630 C   0  0  0  0  0  2  0  0  0  0  0  0
  181.5940  179.2660  143.3130 O   0  0  0  0  0  1  0  0  0  0  0  0
  190.2480  178.2360  143.1190 S   0  0  0  0  0  0  0  0  0  0  0  0
  189.4830  177.4210  141.6860 C   0  0  0  0  0  2  0  0  0  0  0  0
  188.3020  178.2400  141.1940 C   0  0  0  0  0  2  0  0  0  0  0  0
  188.0680  178.0000  139.7100 C   0  0  1  0  0  3  0  0  0  0  0  0
  185.9170  178.8790  140.1890 O   0  0  0  0  0  0  0  0  0  0  0  0
  186.7140  178.4970  139.2930 C   0  0  0  0  0  0  0  0  0  0  0  0
  185.7370  177.4580  137.2610 C   0  0  0  0  0  1  0  0  0  0  0  0
  186.3030  178.5600  137.9550 O   0  0  0  0  0  0  0  0  0  0  0  0
  189.1810  178.6200  138.8730 C   0  0  0  0  0  2  0  0  0  0  0  0
  189.6430  177.6630  137.7860 C   0  0  0  0  0  1  0  0  0  0  0  0
  190.9660  176.8320  138.2640 C   0  0  0  0  0  1  0  0  0  0  0  0
  190.4660  176.4840  137.8660 O   0  0  0  0  0  0  0  0  0  0  0  0
  191.2260  175.6060  137.3780 C   0  0  0  0  0  2  0  0  0  0  0  0
  191.3100  174.3300  137.9210 O   0  0  0  0  0  1  0  0  0  0  0  0
  1  5  2  0  0  0  0
  2  5  1  0  0  0  0
  3  6  2  0  0  0  0
  4 16  1  1  0  0  0
  4  6  1  0  0  0  0
  4  7  1  0  0  0  0
  6  1  1  0  0  0  0
  7  2  2  0  0  0  0
  8  7  1  0  0  0  0
  8 11  1  0  0  0  0
  9 12  1  0  0  0  0
 12 11  1  0  0  0  0
 12 10  2  0  0  0  0
 13  9  1  0  0  0  0
 14 13  1  0  0  0  0
 15 14  1  0  0  0  0
 17 16  1  0  0  0  0
 18 17  1  0  0  0  0
 19 24  1  6  0  0  0
 19 18  1  0  0  0  0
 21 19  1  0  0  0  0
 21 20  2  0  0  0  0
 22 23  1  0  0  0  0
 23 21  1  0  0  0  0
 25 24  1  0  0  0  0
 27 26  1  0  0  0  0
 28 27  1  0  0  0  0
 28 29  1  0  0  0  0
M  END
>  <MODEL>
6

>  <REMARK>
 VINA RESULT:      -6.6      1.927      3.561
  Name = 
  14 active torsions:
  status: ('A' for Active; 'I' for Inactive)
    1  A    between atoms: C_2  and  C_13
    2  A    between atoms: C_2  and  C_17
    3  A    between atoms: C_6  and  C_11
    4  A    between atoms: C_7  and  N_24
    5  A    between atoms: C_7  and  C_26
    6  A    between atoms: N_9  and  C_11
    7  A    between atoms: C_10  and  C_19
    8  A    between atoms: C_10  and  C_25
    9  A    between atoms: C_10  and  C_29
   10  A    between atoms: C_15  and  S_28
   11  A    between atoms: C_17  and  C_25
   12  A    between atoms: C_18  and  S_28
   13  A    between atoms: C_18  and  C_29
   14  A    between atoms: C_19  and  O_23
                            x       y       z     vdW  Elec       q    Type
                         _______ _______ _______ _____ _____    ______ ____

>  <TORSDO>
F 14

$$$$
=
 OpenBabel11042411003D

 29 29  0  0  1  0  0  0  0  0999 V2000
  191.1780  176.8530  147.2380 C   0  0  0  0  0  3  0  0  0  0  0  0
  188.8570  177.5930  147.0720 C   0  0  0  0  0  3  0  0  0  0  0  0
  192.0920  175.8300  145.3160 O   0  0  0  0  0  0  0  0  0  0  0  0
  189.9670  176.8770  144.9560 C   0  0  1  0  0  3  0  0  0  0  0  0
  190.1090  177.3930  147.8200 C   0  0  0  0  0  3  0  0  0  0  0  0
  191.1320  176.4710  145.8190 C   0  0  0  0  0  0  0  0  0  0  0  0
  188.7650  177.3240  145.7640 C   0  0  0  0  0  0  0  0  0  0  0  0
  187.4480  177.5080  145.0810 C   0  0  0  0  0  2  0  0  0  0  0  0
  185.0230  179.0340  144.3970 N   0  0  0  0  0  2  0  0  0  0  0  0
  184.3260  178.6800  146.5980 O   0  0  0  0  0  0  0  0  0  0  0  0
  186.4070  177.8110  146.0530 N   0  0  0  0  0  2  0  0  0  0  0  0
  185.2100  178.5130  145.7160 C   0  0  0  0  0  0  0  0  0  0  0  0
  183.8380  179.7880  144.0110 C   0  0  0  0  0  2  0  0  0  0  0  0
  182.8120  178.8720  143.3630 C   0  0  0  0  0  2  0  0  0  0  0  0
  181.7700  178.6180  144.2540 O   0  0  0  0  0  1  0  0  0  0  0  0
  190.4910  178.2050  143.8290 S   0  0  0  0  0  0  0  0  0  0  0  0
  190.5590  177.0690  142.4120 C   0  0  0  0  0  2  0  0  0  0  0  0
  189.2140  177.0400  141.7070 C   0  0  0  0  0  2  0  0  0  0  0  0
  189.0070  178.3140  140.9010 C   0  0  1  0  0  3  0  0  0  0  0  0
  189.3080  176.8720  139.0420 O   0  0  0  0  0  0  0  0  0  0  0  0
  188.9620  178.0180  139.4310 C   0  0  0  0  0  0  0  0  0  0  0  0
  187.7390  178.6230  137.3570 C   0  0  0  0  0  1  0  0  0  0  0  0
  188.5480  178.9550  138.4760 O   0  0  0  0  0  0  0  0  0  0  0  0
  187.7610  179.0590  141.3680 C   0  0  0  0  0  2  0  0  0  0  0  0
  186.5090  178.2330  141.1220 C   0  0  0  0  0  2  0  0  0  0  0  0
  185.2550  179.1870  140.6920 C   0  0  0  0  0  2  0  0  0  0  0  0
  184.9520  179.6130  140.1870 O   0  0  0  0  0  0  0  0  0  0  0  0
  184.5760  178.6990  139.4050 C   0  0  0  0  0  2  0  0  0  0  0  0
  183.2730  178.2200  139.4150 O   0  0  0  0  0  1  0  0  0  0  0  0
  1  5  2  0  0  0  0
  2  5  1  0  0  0  0
  3  6  2  0  0  0  0
  4 16  1  6  0  0  0
  4  7  1  0  0  0  0
  4  6  1  0  0  0  0
  6  1  1  0  0  0  0
  7  2  2  0  0  0  0
  8  7  1  0  0  0  0
  8 11  1  0  0  0  0
  9 12  1  0  0  0  0
 12 11  1  0  0  0  0
 12 10  2  0  0  0  0
 13  9  1  0  0  0  0
 14 13  1  0  0  0  0
 14 15  1  0  0  0  0
 17 16  1  0  0  0  0
 18 17  1  0  0  0  0
 19 24  1  1  0  0  0
 19 18  1  0  0  0  0
 20 21  2  0  0  0  0
 21 19  1  0  0  0  0
 22 23  1  0  0  0  0
 23 21  1  0  0  0  0
 25 24  1  0  0  0  0
 26 25  1  0  0  0  0
 27 26  1  0  0  0  0
 28 29  1  0  0  0  0
 28 27  1  0  0  0  0
M  END
>  <MODEL>
7

>  <REMARK>
 VINA RESULT:      -6.5      1.607      2.692
  Name = 
  14 active torsions:
  status: ('A' for Active; 'I' for Inactive)
    1  A    between atoms: C_2  and  C_13
    2  A    between atoms: C_2  and  C_17
    3  A    between atoms: C_6  and  C_11
    4  A    between atoms: C_7  and  N_24
    5  A    between atoms: C_7  and  C_26
    6  A    between atoms: N_9  and  C_11
    7  A    between atoms: C_10  and  C_19
    8  A    between atoms: C_10  and  C_25
    9  A    between atoms: C_10  and  C_29
   10  A    between atoms: C_15  and  S_28
   11  A    between atoms: C_17  and  C_25
   12  A    between atoms: C_18  and  S_28
   13  A    between atoms: C_18  and  C_29
   14  A    between atoms: C_19  and  O_23
                            x       y       z     vdW  Elec       q    Type
                         _______ _______ _______ _____ _____    ______ ____

>  <TORSDO>
F 14

$$$$
=
 OpenBabel11042411003D

 29 28  0  0  1  0  0  0  0  0999 V2000
  192.0450  177.4720  141.9760 C   0  0  0  0  0  3  0  0  0  0  0  0
  190.5520  177.4990  140.0440 C   0  0  0  0  0  3  0  0  0  0  0  0
  191.1240  178.2050  144.0230 O   0  0  0  0  0  0  0  0  0  0  0  0
  189.5130  177.8830  142.2780 C   0  0  1  0  0  3  0  0  0  0  0  0
  191.8660  177.2800  140.6700 C   0  0  0  0  0  3  0  0  0  0  0  0
  190.9170  177.8840  142.8230 C   0  0  0  0  0  0  0  0  0  0  0  0
  189.4700  177.8140  140.7650 C   0  0  0  0  0  0  0  0  0  0  0  0
  188.1790  178.0670  140.0550 C   0  0  0  0  0  2  0  0  0  0  0  0
  187.9860  176.2650  137.7320 N   0  0  0  0  0  2  0  0  0  0  0  0
  188.4580  178.1250  136.4020 O   0  0  0  0  0  0  0  0  0  0  0  0
  188.4260  178.5100  138.6890 N   0  0  0  0  0  2  0  0  0  0  0  0
  188.2910  177.6510  137.5570 C   0  0  0  0  0  0  0  0  0  0  0  0
  187.8750  175.3370  136.6140 C   0  0  0  0  0  2  0  0  0  0  0  0
  189.1720  174.5670  136.4300 C   0  0  0  0  0  2  0  0  0  0  0  0
  189.9340  174.6320  137.5970 O   0  0  0  0  0  1  0  0  0  0  0  0
  188.5940  176.4840  142.9940 S   0  0  0  0  0  0  0  0  0  0  0  0
  187.3330  177.5850  143.6990 C   0  0  0  0  0  2  0  0  0  0  0  0
  186.9570  177.1160  145.0950 C   0  0  0  0  0  2  0  0  0  0  0  0
  186.7260  178.3070  146.0130 C   0  0  1  0  0  3  0  0  0  0  0  0
  184.5720  178.4950  146.9890 O   0  0  0  0  0  0  0  0  0  0  0  0
  185.2890  178.7370  145.9830 C   0  0  0  0  0  0  0  0  0  0  0  0
  183.4550  179.0410  144.3370 C   0  0  0  0  0  1  0  0  0  0  0  0
  184.7130  179.3980  144.8900 O   0  0  0  0  0  0  0  0  0  0  0  0
  187.1960  178.0020  147.4310 C   0  0  0  0  0  2  0  0  0  0  0  0
  188.3350  176.9950  147.4230 C   0  0  0  0  0  1  0  0  0  0  0  0
  189.7720  177.7390  147.2080 C   0  0  0  0  0  1  0  0  0  0  0  0
  189.7700  177.0440  147.4220 O   0  0  0  0  0  0  0  0  0  0  0  0
  190.9140  176.7360  146.9940 C   0  0  0  0  0  2  0  0  0  0  0  0
  192.0250  176.7200  147.8270 O   0  0  0  0  0  1  0  0  0  0  0  0
  1  6  1  0  0  0  0
  2  5  1  0  0  0  0
  2  7  2  0  0  0  0
  4  6  1  0  0  0  0
  4 16  1  1  0  0  0
  5  1  2  0  0  0  0
  6  3  2  0  0  0  0
  7  4  1  0  0  0  0
  8  7  1  0  0  0  0
 10 12  2  0  0  0  0
 11  8  1  0  0  0  0
 12  9  1  0  0  0  0
 12 11  1  0  0  0  0
 13  9  1  0  0  0  0
 14 13  1  0  0  0  0
 14 15  1  0  0  0  0
 16 17  1  0  0  0  0
 17 18  1  0  0  0  0
 19 18  1  6  0  0  0
 19 24  1  0  0  0  0
 21 19  1  0  0  0  0
 21 20  2  0  0  0  0
 22 23  1  0  0  0  0
 23 21  1  0  0  0  0
 25 24  1  0  0  0  0
 26 27  1  0  0  0  0
 28 27  1  0  0  0  0
 28 29  1  0  0  0  0
M  END
>  <MODEL>
8

>  <REMARK>
 VINA RESULT:      -6.5      2.512      7.380
  Name = 
  14 active torsions:
  status: ('A' for Active; 'I' for Inactive)
    1  A    between atoms: C_2  and  C_13
    2  A    between atoms: C_2  and  C_17
    3  A    between atoms: C_6  and  C_11
    4  A    between atoms: C_7  and  N_24
    5  A    between atoms: C_7  and  C_26
    6  A    between atoms: N_9  and  C_11
    7  A    between atoms: C_10  and  C_19
    8  A    between atoms: C_10  and  C_25
    9  A    between atoms: C_10  and  C_29
   10  A    between atoms: C_15  and  S_28
   11  A    between atoms: C_17  and  C_25
   12  A    between atoms: C_18  and  S_28
   13  A    between atoms: C_18  and  C_29
   14  A    between atoms: C_19  and  O_23
                            x       y       z     vdW  Elec       q    Type
                         _______ _______ _______ _____ _____    ______ ____

>  <TORSDO>
F 14

$$$$
=
 OpenBabel11042411003D

 29 28  0  0  1  0  0  0  0  0999 V2000
  190.7810  177.0950  146.1910 C   0  0  0  0  0  3  0  0  0  0  0  0
  188.3610  177.4220  146.2120 C   0  0  0  0  0  3  0  0  0  0  0  0
  191.7040  176.2250  144.2000 O   0  0  0  0  0  0  0  0  0  0  0  0
  189.4080  176.8860  144.0130 C   0  0  1  0  0  3  0  0  0  0  0  0
  189.6830  177.4480  146.8580 C   0  0  0  0  0  3  0  0  0  0  0  0
  190.6910  176.6960  144.7790 C   0  0  0  0  0  0  0  0  0  0  0  0
  188.2150  177.1270  144.9150 C   0  0  0  0  0  0  0  0  0  0  0  0
  186.8360  177.0750  144.3390 C   0  0  0  0  0  2  0  0  0  0  0  0
  184.7400  178.0250  142.5000 N   0  0  0  0  0  2  0  0  0  0  0  0
  184.5410  179.8950  143.8840 O   0  0  0  0  0  0  0  0  0  0  0  0
  186.1650  178.3570  144.5020 N   0  0  0  0  0  2  0  0  0  0  0  0
  185.1180  178.8020  143.6390 C   0  0  0  0  0  0  0  0  0  0  0  0
  183.7050  178.4490  141.5660 C   0  0  0  0  0  2  0  0  0  0  0  0
  184.2630  178.5320  140.1550 C   0  0  0  0  0  2  0  0  0  0  0  0
  184.9180  179.7500  139.9720 O   0  0  0  0  0  1  0  0  0  0  0  0
  189.6050  178.2730  142.8520 S   0  0  0  0  0  0  0  0  0  0  0  0
  189.2230  177.2200  141.4210 C   0  0  0  0  0  2  0  0  0  0  0  0
  188.3610  177.9840  140.4310 C   0  0  0  0  0  2  0  0  0  0  0  0
  188.7120  177.5890  139.0040 C   0  0  1  0  0  3  0  0  0  0  0  0
  189.0160  179.5150  137.6530 O   0  0  0  0  0  0  0  0  0  0  0  0
  188.2190  178.6160  138.0270 C   0  0  0  0  0  0  0  0  0  0  0  0
  186.3060  177.4660  136.9400 C   0  0  0  0  0  1  0  0  0  0  0  0
  186.9170  178.6140  137.5100 O   0  0  0  0  0  0  0  0  0  0  0  0
  190.2100  177.3420  138.8570 C   0  0  0  0  0  2  0  0  0  0  0  0
  190.4770  176.0910  138.0350 C   0  0  0  0  0  1  0  0  0  0  0  0
  191.8790  176.2250  137.2080 C   0  0  0  0  0  1  0  0  0  0  0  0
  191.9020  175.9500  137.8810 O   0  0  0  0  0  0  0  0  0  0  0  0
  192.9580  175.2770  137.7480 C   0  0  0  0  0  2  0  0  0  0  0  0
  194.1880  175.7570  138.1780 O   0  0  0  0  0  1  0  0  0  0  0  0
  1  5  2  0  0  0  0
  2  5  1  0  0  0  0
  3  6  2  0  0  0  0
  4 16  1  6  0  0  0
  4  6  1  0  0  0  0
  4  7  1  0  0  0  0
  6  1  1  0  0  0  0
  7  2  2  0  0  0  0
  8 11  1  0  0  0  0
  8  7  1  0  0  0  0
  9 12  1  0  0  0  0
 12 10  2  0  0  0  0
 12 11  1  0  0  0  0
 13  9  1  0  0  0  0
 14 13  1  0  0  0  0
 15 14  1  0  0  0  0
 17 16  1  0  0  0  0
 18 17  1  0  0  0  0
 19 24  1  1  0  0  0
 19 18  1  0  0  0  0
 20 21  2  0  0  0  0
 21 19  1  0  0  0  0
 22 23  1  0  0  0  0
 23 21  1  0  0  0  0
 25 24  1  0  0  0  0
 26 27  1  0  0  0  0
 28 27  1  0  0  0  0
 28 29  1  0  0  0  0
M  END
>  <MODEL>
9

>  <REMARK>
 VINA RESULT:      -6.4      1.628      3.439
  Name = 
  14 active torsions:
  status: ('A' for Active; 'I' for Inactive)
    1  A    between atoms: C_2  and  C_13
    2  A    between atoms: C_2  and  C_17
    3  A    between atoms: C_6  and  C_11
    4  A    between atoms: C_7  and  N_24
    5  A    between atoms: C_7  and  C_26
    6  A    between atoms: N_9  and  C_11
    7  A    between atoms: C_10  and  C_19
    8  A    between atoms: C_10  and  C_25
    9  A    between atoms: C_10  and  C_29
   10  A    between atoms: C_15  and  S_28
   11  A    between atoms: C_17  and  C_25
   12  A    between atoms: C_18  and  S_28
   13  A    between atoms: C_18  and  C_29
   14  A    between atoms: C_19  and  O_23
                            x       y       z     vdW  Elec       q    Type
                         _______ _______ _______ _____ _____    ______ ____

>  <TORSDO>
F 14

$$$$
