=
 OpenBabel11042413303D

 41 47  0  0  1  0  0  0  0  0999 V2000
  183.2520  177.7190  139.2820 C   0  0  0  0  0  2  0  0  0  0  0  0
  184.5470  178.4870  139.0460 C   0  0  0  0  0  2  0  0  0  0  0  0
  184.4560  179.2540  141.5090 C   0  0  2  0  0  3  0  0  0  0  0  0
  182.3860  178.4480  140.3090 C   0  0  2  0  0  3  0  0  0  0  0  0
  186.5710  178.7100  140.4060 N   0  0  0  0  0  0  0  0  0  0  0  0
  183.1320  178.5010  141.6420 C   0  0  0  0  0  2  0  0  0  0  0  0
  185.2690  178.7200  140.3460 C   0  0  0  0  0  0  0  0  0  0  0  0
  189.2250  177.3240  140.8420 N   0  0  0  0  0  0  0  0  0  0  0  0
  190.5830  176.7250  139.1770 O   0  0  0  0  0  0  0  0  0  0  0  0
  189.5220  177.2750  138.6530 C   0  0  0  0  0  0  0  0  0  0  0  0
  187.1780  178.5360  138.0670 N   0  0  0  0  0  0  0  0  0  0  0  0
  188.0180  178.1720  137.0460 C   0  0  0  0  0  3  0  0  0  0  0  0
  188.6790  177.6310  139.6540 C   0  0  0  0  0  0  0  0  0  0  0  0
  187.4640  178.2650  139.3750 C   0  0  0  0  0  0  0  0  0  0  0  0
  189.2340  177.5170  137.3150 C   0  0  0  0  0  3  0  0  0  0  0  0
  190.4080  176.7540  140.4890 C   0  0  0  0  0  3  0  0  0  0  0  0
  179.3450  174.8000  140.0960 C   0  0  0  0  0  2  0  0  0  0  0  0
  181.2350  175.6640  138.9780 C   0  0  0  0  0  3  0  0  0  0  0  0
  181.0580  177.7690  140.4810 C   0  0  0  0  0  0  0  0  0  0  0  0
  179.5230  176.2000  140.3980 N   0  0  0  0  0  0  0  0  0  0  0  0
  180.4900  174.5590  139.1340 C   0  0  0  0  0  3  0  0  0  0  0  0
  180.5890  176.6710  139.7940 C   0  0  0  0  0  0  0  0  0  0  0  0
  180.2040  177.8550  141.5880 C   0  0  0  0  0  3  0  0  0  0  0  0
  179.2900  176.8540  141.5220 N   0  0  0  0  0  0  0  0  0  0  0  0
  185.5250  178.4120  145.5910 C   0  0  0  0  0  0  0  0  0  0  0  0
  184.2150  179.0600  145.2420 C   0  0  0  0  0  2  0  0  0  0  0  0
  185.7400  177.8690  143.2110 C   0  0  0  0  0  2  0  0  0  0  0  0
  186.2610  177.8610  144.6190 C   0  0  0  0  0  3  0  0  0  0  0  0
  184.3660  179.9350  143.9910 C   0  0  0  0  0  2  0  0  0  0  0  0
  185.1820  179.2590  142.8610 C   0  0  2  0  0  3  0  0  0  0  0  0
  186.0520  178.4780  146.9850 C   0  0  0  0  0  2  0  0  0  0  0  0
  187.1330  177.4330  147.1780 C   0  0  0  0  0  2  0  0  0  0  0  0
  188.4390  178.0710  147.1420 N   0  0  0  0  0  2  0  0  0  0  0  0
  189.3740  178.3300  144.4130 F   0  0  0  0  0  0  0  0  0  0  0  0
  189.6360  177.4560  146.6500 C   0  0  0  0  0  0  0  0  0  0  0  0
  191.2570  176.9710  144.8990 C   0  0  0  0  0  0  0  0  0  0  0  0
  190.0740  177.5960  145.3150 C   0  0  0  0  0  0  0  0  0  0  0  0
  190.3980  176.6940  147.5420 C   0  0  0  0  0  3  0  0  0  0  0  0
  191.6840  177.0990  143.6190 F   0  0  0  0  0  0  0  0  0  0  0  0
  191.5780  176.0740  147.1230 C   0  0  0  0  0  3  0  0  0  0  0  0
  192.0070  176.2140  145.8030 C   0  0  0  0  0  3  0  0  0  0  0  0
  1  4  1  0  0  0  0
  2  1  1  0  0  0  0
  2  7  1  0  0  0  0
  3  6  1  1  0  0  0
  3 30  1  0  0  0  0
  4 19  1  1  0  0  0
  4  6  1  0  0  0  0
  7  5  2  0  0  0  0
  7  3  1  0  0  0  0
  9 16  1  0  0  0  0
 10  9  1  0  0  0  0
 10 13  2  0  0  0  0
 11 14  2  0  0  0  0
 12 15  2  0  0  0  0
 12 11  1  0  0  0  0
 13  8  1  0  0  0  0
 14 13  1  0  0  0  0
 14  5  1  0  0  0  0
 15 10  1  0  0  0  0
 16  8  2  0  0  0  0
 17 20  1  0  0  0  0
 18 21  2  0  0  0  0
 18 22  1  0  0  0  0
 19 23  1  0  0  0  0
 20 24  1  0  0  0  0
 21 17  1  0  0  0  0
 22 20  1  0  0  0  0
 22 19  2  0  0  0  0
 24 23  2  0  0  0  0
 25 31  1  0  0  0  0
 26 25  1  0  0  0  0
 27 28  1  0  0  0  0
 28 25  2  0  0  0  0
 29 26  1  0  0  0  0
 30 27  1  1  0  0  0
 30 29  1  0  0  0  0
 31 32  1  0  0  0  0
 33 32  1  0  0  0  0
 34 37  1  0  0  0  0
 35 33  1  0  0  0  0
 35 38  1  0  0  0  0
 36 37  1  0  0  0  0
 36 41  2  0  0  0  0
 37 35  2  0  0  0  0
 39 36  1  0  0  0  0
 40 38  2  0  0  0  0
 41 40  1  0  0  0  0
M  END
>  <MODEL>
1

>  <REMARK>
 VINA RESULT:     -11.1      0.000      0.000
  Name = 
  7 active torsions:
  status: ('A' for Active; 'I' for Inactive)
    1  A    between atoms: C_5  and  C_6
    2  A    between atoms: C_5  and  C_12
    3  A    between atoms: C_12  and  N_14
    4  A    between atoms: N_14  and  C_16
    5  A    between atoms: C_15  and  C_31
    6  A    between atoms: C_26  and  C_37
    7  A    between atoms: C_30  and  N_36
                            x       y       z     vdW  Elec       q    Type
                         _______ _______ _______ _____ _____    ______ ____

>  <TORSDO>
F 7

$$$$
=
 OpenBabel11042413303D

 41 47  0  0  1  0  0  0  0  0999 V2000
  185.7610  178.4950  143.4660 C   0  0  0  0  0  2  0  0  0  0  0  0
  185.4720  179.3070  142.2100 C   0  0  0  0  0  2  0  0  0  0  0  0
  187.6600  178.3850  141.1980 C   0  0  2  0  0  3  0  0  0  0  0  0
  187.2690  178.3910  143.6920 C   0  0  2  0  0  3  0  0  0  0  0  0
  185.6600  178.7420  139.8350 N   0  0  0  0  0  0  0  0  0  0  0  0
  187.8990  177.6460  142.5160 C   0  0  0  0  0  2  0  0  0  0  0  0
  186.1930  178.7230  141.0240 C   0  0  0  0  0  0  0  0  0  0  0  0
  183.3090  176.8400  139.9350 N   0  0  0  0  0  0  0  0  0  0  0  0
  181.2350  177.4250  139.3610 O   0  0  0  0  0  0  0  0  0  0  0  0
  182.0000  178.4730  139.2260 C   0  0  0  0  0  0  0  0  0  0  0  0
  183.9970  180.3190  139.0490 N   0  0  0  0  0  0  0  0  0  0  0  0
  182.7220  180.6730  138.6910 C   0  0  0  0  0  3  0  0  0  0  0  0
  183.2630  178.1360  139.5870 C   0  0  0  0  0  0  0  0  0  0  0  0
  184.3010  179.0720  139.5190 C   0  0  0  0  0  0  0  0  0  0  0  0
  181.6690  179.7450  138.7730 C   0  0  0  0  0  3  0  0  0  0  0  0
  182.0170  176.4440  139.7860 C   0  0  0  0  0  3  0  0  0  0  0  0
  190.0850  176.8600  147.2040 C   0  0  0  0  0  2  0  0  0  0  0  0
  190.1440  177.3200  144.8900 C   0  0  0  0  0  3  0  0  0  0  0  0
  187.5790  177.6870  144.9820 C   0  0  0  0  0  0  0  0  0  0  0  0
  188.7520  176.8690  146.6490 N   0  0  0  0  0  0  0  0  0  0  0  0
  190.9190  177.1280  145.9680 C   0  0  0  0  0  3  0  0  0  0  0  0
  188.7870  177.1500  145.3670 C   0  0  0  0  0  0  0  0  0  0  0  0
  186.8540  177.7600  146.1780 C   0  0  0  0  0  3  0  0  0  0  0  0
  187.6190  177.2770  147.1900 N   0  0  0  0  0  0  0  0  0  0  0  0
  190.3080  177.1210  138.0500 C   0  0  0  0  0  0  0  0  0  0  0  0
  189.5790  178.4340  137.9810 C   0  0  0  0  0  2  0  0  0  0  0  0
  189.6730  177.0430  140.4160 C   0  0  0  0  0  2  0  0  0  0  0  0
  190.3360  176.4490  139.2070 C   0  0  0  0  0  3  0  0  0  0  0  0
  188.2200  178.3300  138.6850 C   0  0  0  0  0  2  0  0  0  0  0  0
  188.2850  177.5890  140.0440 C   0  0  2  0  0  3  0  0  0  0  0  0
  190.8980  176.5200  136.8190 C   0  0  0  0  0  2  0  0  0  0  0  0
  190.3000  175.1480  136.5770 C   0  0  0  0  0  2  0  0  0  0  0  0
  189.2650  175.2410  135.5600 N   0  0  0  0  0  2  0  0  0  0  0  0
  187.1900  174.3480  137.3710 F   0  0  0  0  0  0  0  0  0  0  0  0
  188.0120  175.9160  135.7280 C   0  0  0  0  0  0  0  0  0  0  0  0
  185.8110  176.1720  136.7380 C   0  0  0  0  0  0  0  0  0  0  0  0
  187.0130  175.4630  136.6170 C   0  0  0  0  0  0  0  0  0  0  0  0
  187.7830  177.0760  134.9780 C   0  0  0  0  0  3  0  0  0  0  0  0
  184.8470  175.7420  137.5880 F   0  0  0  0  0  0  0  0  0  0  0  0
  186.5840  177.7790  135.1030 C   0  0  0  0  0  3  0  0  0  0  0  0
  185.5980  177.3280  135.9820 C   0  0  0  0  0  3  0  0  0  0  0  0
  1  4  1  0  0  0  0
  2  1  1  0  0  0  0
  3  6  1  1  0  0  0
  4 19  1  1  0  0  0
  5  7  2  0  0  0  0
  6  4  1  0  0  0  0
  7  3  1  0  0  0  0
  7  2  1  0  0  0  0
  9 16  1  0  0  0  0
 10  9  1  0  0  0  0
 10 13  2  0  0  0  0
 11 14  2  0  0  0  0
 12 15  2  0  0  0  0
 12 11  1  0  0  0  0
 13  8  1  0  0  0  0
 14 13  1  0  0  0  0
 14  5  1  0  0  0  0
 15 10  1  0  0  0  0
 16  8  2  0  0  0  0
 18 22  1  0  0  0  0
 18 21  2  0  0  0  0
 19 22  2  0  0  0  0
 19 23  1  0  0  0  0
 20 24  1  0  0  0  0
 20 17  1  0  0  0  0
 21 17  1  0  0  0  0
 22 20  1  0  0  0  0
 23 24  2  0  0  0  0
 25 28  2  0  0  0  0
 26 25  1  0  0  0  0
 26 29  1  0  0  0  0
 28 27  1  0  0  0  0
 30 29  1  6  0  0  0
 30 27  1  0  0  0  0
 30  3  1  0  0  0  0
 31 25  1  0  0  0  0
 32 31  1  0  0  0  0
 33 35  1  0  0  0  0
 33 32  1  0  0  0  0
 35 37  1  0  0  0  0
 36 39  1  0  0  0  0
 37 36  2  0  0  0  0
 37 34  1  0  0  0  0
 38 40  1  0  0  0  0
 38 35  2  0  0  0  0
 40 41  2  0  0  0  0
 41 36  1  0  0  0  0
M  END
>  <MODEL>
2

>  <REMARK>
 VINA RESULT:     -10.3      3.030      8.645
  Name = 
  7 active torsions:
  status: ('A' for Active; 'I' for Inactive)
    1  A    between atoms: C_5  and  C_6
    2  A    between atoms: C_5  and  C_12
    3  A    between atoms: C_12  and  N_14
    4  A    between atoms: N_14  and  C_16
    5  A    between atoms: C_15  and  C_31
    6  A    between atoms: C_26  and  C_37
    7  A    between atoms: C_30  and  N_36
                            x       y       z     vdW  Elec       q    Type
                         _______ _______ _______ _____ _____    ______ ____

>  <TORSDO>
F 7

$$$$
=
 OpenBabel11042413303D

 41 47  0  0  1  0  0  0  0  0999 V2000
  184.8130  178.3450  143.8940 C   0  0  0  0  0  2  0  0  0  0  0  0
  184.4430  178.9270  142.5360 C   0  0  0  0  0  2  0  0  0  0  0  0
  186.8600  178.4620  141.7580 C   0  0  2  0  0  3  0  0  0  0  0  0
  186.2810  178.6330  144.2100 C   0  0  2  0  0  3  0  0  0  0  0  0
  184.9470  178.1800  140.2590 N   0  0  0  0  0  0  0  0  0  0  0  0
  187.1600  177.9450  143.1660 C   0  0  0  0  0  2  0  0  0  0  0  0
  185.3730  178.4150  141.4680 C   0  0  0  0  0  0  0  0  0  0  0  0
  183.3940  180.4780  139.0500 N   0  0  0  0  0  0  0  0  0  0  0  0
  181.2420  180.3370  138.4800 O   0  0  0  0  0  0  0  0  0  0  0  0
  181.6110  179.1770  138.9490 C   0  0  0  0  0  0  0  0  0  0  0  0
  182.8380  177.0060  140.0470 N   0  0  0  0  0  0  0  0  0  0  0  0
  181.5140  176.9250  139.7020 C   0  0  0  0  0  3  0  0  0  0  0  0
  182.9230  179.2430  139.2850 C   0  0  0  0  0  0  0  0  0  0  0  0
  183.5770  178.1360  139.8360 C   0  0  0  0  0  0  0  0  0  0  0  0
  180.8520  178.0270  139.1310 C   0  0  0  0  0  3  0  0  0  0  0  0
  182.3090  181.1200  138.5400 C   0  0  0  0  0  3  0  0  0  0  0  0
  189.2610  177.3980  147.7030 C   0  0  0  0  0  2  0  0  0  0  0  0
  189.0990  177.3640  145.3480 C   0  0  0  0  0  3  0  0  0  0  0  0
  186.6440  178.1630  145.5890 C   0  0  0  0  0  0  0  0  0  0  0  0
  187.8850  177.5170  147.2820 N   0  0  0  0  0  0  0  0  0  0  0  0
  189.9660  177.2670  146.3680 C   0  0  0  0  0  3  0  0  0  0  0  0
  187.8010  177.5220  145.9720 C   0  0  0  0  0  0  0  0  0  0  0  0
  186.0910  178.5970  146.8000 C   0  0  0  0  0  3  0  0  0  0  0  0
  186.8980  178.2090  147.8200 N   0  0  0  0  0  0  0  0  0  0  0  0
  190.0940  177.4630  139.1010 C   0  0  0  0  0  0  0  0  0  0  0  0
  189.2420  178.6800  138.8750 C   0  0  0  0  0  2  0  0  0  0  0  0
  189.1090  177.3510  141.3420 C   0  0  0  0  0  2  0  0  0  0  0  0
  190.0160  176.8180  140.2710 C   0  0  0  0  0  3  0  0  0  0  0  0
  187.8090  178.4300  139.3640 C   0  0  0  0  0  2  0  0  0  0  0  0
  187.7430  177.7250  140.7420 C   0  0  2  0  0  3  0  0  0  0  0  0
  190.9340  176.9140  137.9970 C   0  0  0  0  0  2  0  0  0  0  0  0
  190.5260  175.4840  137.7000 C   0  0  0  0  0  2  0  0  0  0  0  0
  189.7140  175.4500  136.4950 N   0  0  0  0  0  2  0  0  0  0  0  0
  189.1950  177.7150  134.7670 F   0  0  0  0  0  0  0  0  0  0  0  0
  188.4280  176.0670  136.3570 C   0  0  0  0  0  0  0  0  0  0  0  0
  186.9130  177.7250  135.4160 C   0  0  0  0  0  0  0  0  0  0  0  0
  188.1970  177.1710  135.5080 C   0  0  0  0  0  0  0  0  0  0  0  0
  187.3630  175.5390  137.0960 C   0  0  0  0  0  3  0  0  0  0  0  0
  186.6840  178.7860  134.6050 F   0  0  0  0  0  0  0  0  0  0  0  0
  186.0850  176.0930  136.9990 C   0  0  0  0  0  3  0  0  0  0  0  0
  185.8610  177.1860  136.1600 C   0  0  0  0  0  3  0  0  0  0  0  0
  1  4  1  0  0  0  0
  2  1  1  0  0  0  0
  3  6  1  1  0  0  0
  4 19  1  1  0  0  0
  5  7  2  0  0  0  0
  6  4  1  0  0  0  0
  7  3  1  0  0  0  0
  7  2  1  0  0  0  0
  8 13  1  0  0  0  0
  9 16  1  0  0  0  0
  9 10  1  0  0  0  0
 10 15  1  0  0  0  0
 10 13  2  0  0  0  0
 12 11  1  0  0  0  0
 13 14  1  0  0  0  0
 14 11  2  0  0  0  0
 14  5  1  0  0  0  0
 15 12  2  0  0  0  0
 16  8  2  0  0  0  0
 18 22  1  0  0  0  0
 18 21  2  0  0  0  0
 19 22  2  0  0  0  0
 19 23  1  0  0  0  0
 20 17  1  0  0  0  0
 20 24  1  0  0  0  0
 21 17  1  0  0  0  0
 22 20  1  0  0  0  0
 23 24  2  0  0  0  0
 25 28  2  0  0  0  0
 26 25  1  0  0  0  0
 26 29  1  0  0  0  0
 28 27  1  0  0  0  0
 30 29  1  6  0  0  0
 30 27  1  0  0  0  0
 30  3  1  0  0  0  0
 31 25  1  0  0  0  0
 32 31  1  0  0  0  0
 33 32  1  0  0  0  0
 34 37  1  0  0  0  0
 35 33  1  0  0  0  0
 35 38  1  0  0  0  0
 36 37  1  0  0  0  0
 36 41  2  0  0  0  0
 37 35  2  0  0  0  0
 39 36  1  0  0  0  0
 40 38  2  0  0  0  0
 41 40  1  0  0  0  0
M  END
>  <MODEL>
3

>  <REMARK>
 VINA RESULT:     -10.0      3.216      8.431
  Name = 
  7 active torsions:
  status: ('A' for Active; 'I' for Inactive)
    1  A    between atoms: C_5  and  C_6
    2  A    between atoms: C_5  and  C_12
    3  A    between atoms: C_12  and  N_14
    4  A    between atoms: N_14  and  C_16
    5  A    between atoms: C_15  and  C_31
    6  A    between atoms: C_26  and  C_37
    7  A    between atoms: C_30  and  N_36
                            x       y       z     vdW  Elec       q    Type
                         _______ _______ _______ _____ _____    ______ ____

>  <TORSDO>
F 7

$$$$
=
 OpenBabel11042413303D

 41 47  0  0  1  0  0  0  0  0999 V2000
  183.7590  178.3820  139.7710 C   0  0  0  0  0  2  0  0  0  0  0  0
  185.1650  178.9370  139.5770 C   0  0  0  0  0  2  0  0  0  0  0  0
  185.2860  179.3220  142.1270 C   0  0  2  0  0  3  0  0  0  0  0  0
  183.0700  179.0850  140.9400 C   0  0  2  0  0  3  0  0  0  0  0  0
  187.2340  178.5900  140.8400 N   0  0  0  0  0  0  0  0  0  0  0  0
  183.8510  178.8020  142.2230 C   0  0  0  0  0  2  0  0  0  0  0  0
  185.9550  178.8380  140.8550 C   0  0  0  0  0  0  0  0  0  0  0  0
  190.0540  177.4960  140.9280 N   0  0  0  0  0  0  0  0  0  0  0  0
  191.1960  176.9090  139.1040 O   0  0  0  0  0  0  0  0  0  0  0  0
  190.0170  177.3170  138.7250 C   0  0  0  0  0  0  0  0  0  0  0  0
  187.4920  178.3050  138.4480 N   0  0  0  0  0  0  0  0  0  0  0  0
  188.2000  177.9500  137.3290 C   0  0  0  0  0  3  0  0  0  0  0  0
  189.3040  177.6630  139.8260 C   0  0  0  0  0  0  0  0  0  0  0  0
  188.0010  178.1580  139.7080 C   0  0  0  0  0  0  0  0  0  0  0  0
  189.5040  177.4340  137.4380 C   0  0  0  0  0  3  0  0  0  0  0  0
  191.2220  177.0160  140.4240 C   0  0  0  0  0  3  0  0  0  0  0  0
  178.9310  178.5250  143.2110 C   0  0  0  0  0  2  0  0  0  0  0  0
  181.2470  178.6440  143.6470 C   0  0  0  0  0  3  0  0  0  0  0  0
  181.6460  178.6320  141.0860 C   0  0  0  0  0  0  0  0  0  0  0  0
  179.6930  178.2530  142.0150 N   0  0  0  0  0  0  0  0  0  0  0  0
  180.0380  178.7300  144.2230 C   0  0  0  0  0  3  0  0  0  0  0  0
  180.9800  178.3440  142.2560 C   0  0  0  0  0  0  0  0  0  0  0  0
  180.6170  178.7710  140.1460 C   0  0  0  0  0  3  0  0  0  0  0  0
  179.4250  178.5620  140.7590 N   0  0  0  0  0  0  0  0  0  0  0  0
  186.3350  177.6300  145.9420 C   0  0  0  0  0  0  0  0  0  0  0  0
  185.1120  178.4870  145.7740 C   0  0  0  0  0  2  0  0  0  0  0  0
  186.4210  177.5040  143.4960 C   0  0  0  0  0  2  0  0  0  0  0  0
  186.9700  177.1770  144.8530 C   0  0  0  0  0  3  0  0  0  0  0  0
  185.3450  179.5490  144.6920 C   0  0  0  0  0  2  0  0  0  0  0  0
  186.0390  178.9920  143.4230 C   0  0  2  0  0  3  0  0  0  0  0  0
  186.9010  177.3770  147.2990 C   0  0  0  0  0  2  0  0  0  0  0  0
  187.9570  178.4160  147.6200 C   0  0  0  0  0  2  0  0  0  0  0  0
  189.2580  177.7750  147.7080 N   0  0  0  0  0  2  0  0  0  0  0  0
  191.0510  175.5010  147.6600 F   0  0  0  0  0  0  0  0  0  0  0  0
  190.0800  177.4340  146.5850 C   0  0  0  0  0  0  0  0  0  0  0  0
  191.7210  176.0390  145.4490 C   0  0  0  0  0  0  0  0  0  0  0  0
  190.9470  176.3200  146.5830 C   0  0  0  0  0  0  0  0  0  0  0  0
  190.0060  178.2430  145.4460 C   0  0  0  0  0  3  0  0  0  0  0  0
  192.5570  174.9720  145.4400 F   0  0  0  0  0  0  0  0  0  0  0  0
  190.7780  177.9580  144.3180 C   0  0  0  0  0  3  0  0  0  0  0  0
  191.6350  176.8570  144.3200 C   0  0  0  0  0  3  0  0  0  0  0  0
  1  4  1  0  0  0  0
  2  1  1  0  0  0  0
  2  7  1  0  0  0  0
  3  6  1  1  0  0  0
  3 30  1  0  0  0  0
  4 19  1  1  0  0  0
  4  6  1  0  0  0  0
  5  7  2  0  0  0  0
  7  3  1  0  0  0  0
  9 16  1  0  0  0  0
 10  9  1  0  0  0  0
 10 13  2  0  0  0  0
 11 14  2  0  0  0  0
 12 15  2  0  0  0  0
 12 11  1  0  0  0  0
 13  8  1  0  0  0  0
 14 13  1  0  0  0  0
 14  5  1  0  0  0  0
 15 10  1  0  0  0  0
 16  8  2  0  0  0  0
 17 21  1  0  0  0  0
 18 21  2  0  0  0  0
 19 22  2  0  0  0  0
 20 22  1  0  0  0  0
 20 17  1  0  0  0  0
 22 18  1  0  0  0  0
 23 24  2  0  0  0  0
 23 19  1  0  0  0  0
 24 20  1  0  0  0  0
 25 31  1  0  0  0  0
 26 25  1  0  0  0  0
 27 28  1  0  0  0  0
 28 25  2  0  0  0  0
 29 26  1  0  0  0  0
 30 27  1  1  0  0  0
 30 29  1  0  0  0  0
 31 32  1  0  0  0  0
 32 33  1  0  0  0  0
 35 33  1  0  0  0  0
 36 37  2  0  0  0  0
 37 35  1  0  0  0  0
 37 34  1  0  0  0  0
 38 35  2  0  0  0  0
 39 36  1  0  0  0  0
 40 41  2  0  0  0  0
 40 38  1  0  0  0  0
 41 36  1  0  0  0  0
M  END
>  <MODEL>
4

>  <REMARK>
 VINA RESULT:     -10.0      1.671      2.216
  Name = 
  7 active torsions:
  status: ('A' for Active; 'I' for Inactive)
    1  A    between atoms: C_5  and  C_6
    2  A    between atoms: C_5  and  C_12
    3  A    between atoms: C_12  and  N_14
    4  A    between atoms: N_14  and  C_16
    5  A    between atoms: C_15  and  C_31
    6  A    between atoms: C_26  and  C_37
    7  A    between atoms: C_30  and  N_36
                            x       y       z     vdW  Elec       q    Type
                         _______ _______ _______ _____ _____    ______ ____

>  <TORSDO>
F 7

$$$$
=
 OpenBabel11042413303D

 41 47  0  0  1  0  0  0  0  0999 V2000
  184.0850  177.3040  138.4350 C   0  0  0  0  0  2  0  0  0  0  0  0
  185.3300  178.1820  138.4200 C   0  0  0  0  0  2  0  0  0  0  0  0
  184.6660  179.0400  140.7620 C   0  0  2  0  0  3  0  0  0  0  0  0
  182.9660  177.9870  139.2200 C   0  0  2  0  0  3  0  0  0  0  0  0
  187.0020  178.6570  140.1440 N   0  0  0  0  0  0  0  0  0  0  0  0
  183.4120  178.1680  140.6700 C   0  0  0  0  0  2  0  0  0  0  0  0
  185.7450  178.5390  139.8220 C   0  0  0  0  0  0  0  0  0  0  0  0
  189.5010  177.2890  141.1630 N   0  0  0  0  0  0  0  0  0  0  0  0
  191.2290  176.7620  139.8540 O   0  0  0  0  0  0  0  0  0  0  0  0
  190.3140  177.3170  139.1080 C   0  0  0  0  0  0  0  0  0  0  0  0
  188.1540  178.5680  138.0150 N   0  0  0  0  0  0  0  0  0  0  0  0
  189.2200  178.2490  137.2140 C   0  0  0  0  0  3  0  0  0  0  0  0
  189.2490  177.6280  139.8880 C   0  0  0  0  0  0  0  0  0  0  0  0
  188.1240  178.2570  139.3450 C   0  0  0  0  0  0  0  0  0  0  0  0
  190.3490  177.6000  137.7470 C   0  0  0  0  0  3  0  0  0  0  0  0
  190.7450  176.7450  141.0860 C   0  0  0  0  0  3  0  0  0  0  0  0
  178.9310  176.4430  137.2360 C   0  0  0  0  0  2  0  0  0  0  0  0
  180.3220  178.3490  137.2890 C   0  0  0  0  0  3  0  0  0  0  0  0
  181.6940  177.1920  139.1600 C   0  0  0  0  0  0  0  0  0  0  0  0
  179.7810  176.4250  138.4030 N   0  0  0  0  0  0  0  0  0  0  0  0
  179.3370  177.7560  136.5980 C   0  0  0  0  0  3  0  0  0  0  0  0
  180.5700  177.4730  138.4160 C   0  0  0  0  0  0  0  0  0  0  0  0
  181.5210  175.8500  139.5250 C   0  0  0  0  0  3  0  0  0  0  0  0
  180.3470  175.4000  139.0140 N   0  0  0  0  0  0  0  0  0  0  0  0
  184.9780  178.4340  145.0110 C   0  0  0  0  0  0  0  0  0  0  0  0
  183.6930  178.8880  144.3760 C   0  0  0  0  0  2  0  0  0  0  0  0
  185.7450  177.8790  142.7500 C   0  0  0  0  0  2  0  0  0  0  0  0
  185.9640  177.9700  144.2320 C   0  0  0  0  0  3  0  0  0  0  0  0
  183.9810  179.7500  143.1410 C   0  0  0  0  0  2  0  0  0  0  0  0
  185.0930  179.1710  142.2300 C   0  0  2  0  0  3  0  0  0  0  0  0
  185.1960  178.6000  146.4770 C   0  0  0  0  0  2  0  0  0  0  0  0
  186.2250  177.5980  146.9630 C   0  0  0  0  0  2  0  0  0  0  0  0
  187.5010  178.2660  147.1550 N   0  0  0  0  0  2  0  0  0  0  0  0
  189.7220  177.7560  148.9420 F   0  0  0  0  0  0  0  0  0  0  0  0
  188.7670  177.7520  146.7240 C   0  0  0  0  0  0  0  0  0  0  0  0
  191.0480  177.0010  147.1260 C   0  0  0  0  0  0  0  0  0  0  0  0
  189.8370  177.5100  147.6130 C   0  0  0  0  0  0  0  0  0  0  0  0
  188.9350  177.4740  145.3620 C   0  0  0  0  0  3  0  0  0  0  0  0
  192.0800  176.7670  147.9730 F   0  0  0  0  0  0  0  0  0  0  0  0
  190.1440  176.9660  144.8820 C   0  0  0  0  0  3  0  0  0  0  0  0
  191.2000  176.7290  145.7640 C   0  0  0  0  0  3  0  0  0  0  0  0
  1  4  1  0  0  0  0
  2  1  1  0  0  0  0
  2  7  1  0  0  0  0
  3  6  1  1  0  0  0
  3 30  1  0  0  0  0
  4 19  1  1  0  0  0
  4  6  1  0  0  0  0
  7  5  2  0  0  0  0
  7  3  1  0  0  0  0
  9 16  1  0  0  0  0
 10  9  1  0  0  0  0
 10 13  2  0  0  0  0
 11 14  2  0  0  0  0
 12 15  2  0  0  0  0
 12 11  1  0  0  0  0
 13  8  1  0  0  0  0
 14 13  1  0  0  0  0
 14  5  1  0  0  0  0
 15 10  1  0  0  0  0
 16  8  2  0  0  0  0
 17 20  1  0  0  0  0
 18 22  1  0  0  0  0
 19 23  1  0  0  0  0
 20 22  1  0  0  0  0
 20 24  1  0  0  0  0
 21 17  1  0  0  0  0
 21 18  2  0  0  0  0
 22 19  2  0  0  0  0
 24 23  2  0  0  0  0
 25 31  1  0  0  0  0
 26 25  1  0  0  0  0
 27 28  1  0  0  0  0
 28 25  2  0  0  0  0
 29 26  1  0  0  0  0
 30 27  1  1  0  0  0
 30 29  1  0  0  0  0
 31 32  1  0  0  0  0
 32 33  1  0  0  0  0
 35 33  1  0  0  0  0
 35 37  1  0  0  0  0
 36 37  2  0  0  0  0
 36 39  1  0  0  0  0
 37 34  1  0  0  0  0
 38 35  2  0  0  0  0
 40 38  1  0  0  0  0
 40 41  2  0  0  0  0
 41 36  1  0  0  0  0
M  END
>  <MODEL>
5

>  <REMARK>
 VINA RESULT:     -10.0      1.610      1.954
  Name = 
  7 active torsions:
  status: ('A' for Active; 'I' for Inactive)
    1  A    between atoms: C_5  and  C_6
    2  A    between atoms: C_5  and  C_12
    3  A    between atoms: C_12  and  N_14
    4  A    between atoms: N_14  and  C_16
    5  A    between atoms: C_15  and  C_31
    6  A    between atoms: C_26  and  C_37
    7  A    between atoms: C_30  and  N_36
                            x       y       z     vdW  Elec       q    Type
                         _______ _______ _______ _____ _____    ______ ____

>  <TORSDO>
F 7

$$$$
=
 OpenBabel11042413303D

 41 47  0  0  1  0  0  0  0  0999 V2000
  186.0120  177.9490  145.0210 C   0  0  0  0  0  2  0  0  0  0  0  0
  185.3280  178.6750  143.8700 C   0  0  0  0  0  2  0  0  0  0  0  0
  187.4280  178.2300  142.4360 C   0  0  2  0  0  3  0  0  0  0  0  0
  187.5240  178.1660  144.9580 C   0  0  2  0  0  3  0  0  0  0  0  0
  185.1760  178.1500  141.4830 N   0  0  0  0  0  0  0  0  0  0  0  0
  188.0610  177.5650  143.6590 C   0  0  0  0  0  2  0  0  0  0  0  0
  185.9160  178.2500  142.5510 C   0  0  0  0  0  0  0  0  0  0  0  0
  183.4520  177.1170  139.2210 N   0  0  0  0  0  0  0  0  0  0  0  0
  181.2270  177.2720  139.2080 O   0  0  0  0  0  0  0  0  0  0  0  0
  181.6590  177.7890  140.3250 C   0  0  0  0  0  0  0  0  0  0  0  0
  183.0470  178.7970  142.4420 N   0  0  0  0  0  0  0  0  0  0  0  0
  181.6800  178.8960  142.4280 C   0  0  0  0  0  3  0  0  0  0  0  0
  183.0110  177.6870  140.3540 C   0  0  0  0  0  0  0  0  0  0  0  0
  183.7430  178.1840  141.4380 C   0  0  0  0  0  0  0  0  0  0  0  0
  180.9340  178.3840  141.3510 C   0  0  0  0  0  3  0  0  0  0  0  0
  182.2990  176.8700  138.5430 C   0  0  0  0  0  3  0  0  0  0  0  0
  191.2730  176.7020  147.4890 C   0  0  0  0  0  2  0  0  0  0  0  0
  190.5740  176.9570  145.2490 C   0  0  0  0  0  3  0  0  0  0  0  0
  188.2130  177.5500  146.1410 C   0  0  0  0  0  0  0  0  0  0  0  0
  189.8340  176.7790  147.4070 N   0  0  0  0  0  0  0  0  0  0  0  0
  191.6550  176.7900  146.0250 C   0  0  0  0  0  3  0  0  0  0  0  0
  189.4500  176.9450  146.1630 C   0  0  0  0  0  0  0  0  0  0  0  0
  187.9390  177.7870  147.4940 C   0  0  0  0  0  3  0  0  0  0  0  0
  188.9730  177.3280  148.2440 N   0  0  0  0  0  0  0  0  0  0  0  0
  189.8170  177.4010  138.9540 C   0  0  0  0  0  0  0  0  0  0  0  0
  189.0280  178.6750  139.0790 C   0  0  0  0  0  2  0  0  0  0  0  0
  189.4130  177.0720  141.3490 C   0  0  0  0  0  2  0  0  0  0  0  0
  189.9830  176.6270  140.0330 C   0  0  0  0  0  3  0  0  0  0  0  0
  187.7480  178.4360  139.8890 C   0  0  0  0  0  2  0  0  0  0  0  0
  187.9730  177.5770  141.1580 C   0  0  2  0  0  3  0  0  0  0  0  0
  190.3120  176.9480  137.6220 C   0  0  0  0  0  2  0  0  0  0  0  0
  190.1940  175.4400  137.5130 C   0  0  0  0  0  2  0  0  0  0  0  0
  189.2370  175.1020  136.4720 N   0  0  0  0  0  2  0  0  0  0  0  0
  188.0270  172.6270  137.3660 F   0  0  0  0  0  0  0  0  0  0  0  0
  187.8290  174.9350  136.6800 C   0  0  0  0  0  0  0  0  0  0  0  0
  185.8740  173.6230  137.3040 C   0  0  0  0  0  0  0  0  0  0  0  0
  187.2600  173.7190  137.1160 C   0  0  0  0  0  0  0  0  0  0  0  0
  186.9940  176.0330  136.4420 C   0  0  0  0  0  3  0  0  0  0  0  0
  185.3200  172.4590  137.7210 F   0  0  0  0  0  0  0  0  0  0  0  0
  185.6140  175.9330  136.6320 C   0  0  0  0  0  3  0  0  0  0  0  0
  185.0550  174.7290  137.0620 C   0  0  0  0  0  3  0  0  0  0  0  0
  2  1  1  0  0  0  0
  3  7  1  0  0  0  0
  3  6  1  1  0  0  0
  4  1  1  0  0  0  0
  4 19  1  1  0  0  0
  5  7  2  0  0  0  0
  6  4  1  0  0  0  0
  7  2  1  0  0  0  0
  8 13  1  0  0  0  0
  9 10  1  0  0  0  0
 10 13  2  0  0  0  0
 10 15  1  0  0  0  0
 12 11  1  0  0  0  0
 13 14  1  0  0  0  0
 14  5  1  0  0  0  0
 14 11  2  0  0  0  0
 15 12  2  0  0  0  0
 16  9  1  0  0  0  0
 16  8  2  0  0  0  0
 18 21  2  0  0  0  0
 18 22  1  0  0  0  0
 19 22  2  0  0  0  0
 19 23  1  0  0  0  0
 20 17  1  0  0  0  0
 20 24  1  0  0  0  0
 21 17  1  0  0  0  0
 22 20  1  0  0  0  0
 23 24  2  0  0  0  0
 25 26  1  0  0  0  0
 25 28  2  0  0  0  0
 26 29  1  0  0  0  0
 28 27  1  0  0  0  0
 30 29  1  6  0  0  0
 30 27  1  0  0  0  0
 30  3  1  0  0  0  0
 31 25  1  0  0  0  0
 32 31  1  0  0  0  0
 33 35  1  0  0  0  0
 33 32  1  0  0  0  0
 35 37  1  0  0  0  0
 36 39  1  0  0  0  0
 37 36  2  0  0  0  0
 37 34  1  0  0  0  0
 38 40  1  0  0  0  0
 38 35  2  0  0  0  0
 40 41  2  0  0  0  0
 41 36  1  0  0  0  0
M  END
>  <MODEL>
6

>  <REMARK>
 VINA RESULT:      -9.8      3.274      8.844
  Name = 
  7 active torsions:
  status: ('A' for Active; 'I' for Inactive)
    1  A    between atoms: C_5  and  C_6
    2  A    between atoms: C_5  and  C_12
    3  A    between atoms: C_12  and  N_14
    4  A    between atoms: N_14  and  C_16
    5  A    between atoms: C_15  and  C_31
    6  A    between atoms: C_26  and  C_37
    7  A    between atoms: C_30  and  N_36
                            x       y       z     vdW  Elec       q    Type
                         _______ _______ _______ _____ _____    ______ ____

>  <TORSDO>
F 7

$$$$
=
 OpenBabel11042413303D

 41 47  0  0  1  0  0  0  0  0999 V2000
  183.6020  176.4450  137.7190 C   0  0  0  0  0  2  0  0  0  0  0  0
  184.6560  177.5430  137.6340 C   0  0  0  0  0  2  0  0  0  0  0  0
  183.6400  178.5830  139.7670 C   0  0  2  0  0  3  0  0  0  0  0  0
  182.3100  176.9990  138.3190 C   0  0  2  0  0  3  0  0  0  0  0  0
  186.0510  178.5880  139.3530 N   0  0  0  0  0  0  0  0  0  0  0  0
  182.5860  177.4750  139.7450 C   0  0  0  0  0  2  0  0  0  0  0  0
  184.8720  178.1760  138.9830 C   0  0  0  0  0  0  0  0  0  0  0  0
  188.5570  177.5290  140.6770 N   0  0  0  0  0  0  0  0  0  0  0  0
  190.4690  177.1850  139.5810 O   0  0  0  0  0  0  0  0  0  0  0  0
  189.5880  177.6210  138.7240 C   0  0  0  0  0  0  0  0  0  0  0  0
  187.4380  178.6030  137.3670 N   0  0  0  0  0  0  0  0  0  0  0  0
  188.6170  178.3960  136.6980 C   0  0  0  0  0  3  0  0  0  0  0  0
  188.4140  177.8200  139.3730 C   0  0  0  0  0  0  0  0  0  0  0  0
  187.2930  178.3080  138.6930 C   0  0  0  0  0  0  0  0  0  0  0  0
  189.7440  177.8880  137.3690 C   0  0  0  0  0  3  0  0  0  0  0  0
  189.8550  177.1290  140.7520 C   0  0  0  0  0  3  0  0  0  0  0  0
  179.9450  173.2270  136.6490 C   0  0  0  0  0  2  0  0  0  0  0  0
  181.2380  175.0510  135.8900 C   0  0  0  0  0  3  0  0  0  0  0  0
  181.2210  175.9650  138.3160 C   0  0  0  0  0  0  0  0  0  0  0  0
  179.9950  174.2710  137.6450 N   0  0  0  0  0  0  0  0  0  0  0  0
  180.7560  173.8510  135.5310 C   0  0  0  0  0  3  0  0  0  0  0  0
  180.7340  175.2730  137.2300 C   0  0  0  0  0  0  0  0  0  0  0  0
  180.7530  175.2300  139.4130 C   0  0  0  0  0  3  0  0  0  0  0  0
  180.0270  174.1750  138.9620 N   0  0  0  0  0  0  0  0  0  0  0  0
  183.8180  178.6070  144.0660 C   0  0  0  0  0  0  0  0  0  0  0  0
  182.5050  178.5730  143.3370 C   0  0  0  0  0  2  0  0  0  0  0  0
  184.8720  178.0470  141.9260 C   0  0  0  0  0  2  0  0  0  0  0  0
  184.9490  178.3740  143.3880 C   0  0  0  0  0  3  0  0  0  0  0  0
  182.6110  179.3300  142.0060 C   0  0  0  0  0  2  0  0  0  0  0  0
  183.9050  179.0100  141.2170 C   0  0  2  0  0  3  0  0  0  0  0  0
  183.8740  179.0040  145.5040 C   0  0  0  0  0  2  0  0  0  0  0  0
  185.3070  179.2970  145.9030 C   0  0  0  0  0  2  0  0  0  0  0  0
  185.8230  178.1970  146.7010 N   0  0  0  0  0  2  0  0  0  0  0  0
  187.6140  177.2230  144.6440 F   0  0  0  0  0  0  0  0  0  0  0  0
  187.2140  177.9280  146.9200 C   0  0  0  0  0  0  0  0  0  0  0  0
  189.4210  177.2140  146.1800 C   0  0  0  0  0  0  0  0  0  0  0  0
  188.0690  177.4530  145.9020 C   0  0  0  0  0  0  0  0  0  0  0  0
  187.7350  178.1550  148.1980 C   0  0  0  0  0  3  0  0  0  0  0  0
  190.2480  176.7570  145.2090 F   0  0  0  0  0  0  0  0  0  0  0  0
  189.0840  177.9170  148.4710 C   0  0  0  0  0  3  0  0  0  0  0  0
  189.9260  177.4460  147.4620 C   0  0  0  0  0  3  0  0  0  0  0  0
  1  4  1  0  0  0  0
  2  1  1  0  0  0  0
  2  7  1  0  0  0  0
  3  6  1  1  0  0  0
  3 30  1  0  0  0  0
  4 19  1  1  0  0  0
  4  6  1  0  0  0  0
  7  5  2  0  0  0  0
  7  3  1  0  0  0  0
  8 16  2  0  0  0  0
  9 16  1  0  0  0  0
 10 13  2  0  0  0  0
 10  9  1  0  0  0  0
 11 14  2  0  0  0  0
 12 11  1  0  0  0  0
 12 15  2  0  0  0  0
 13  8  1  0  0  0  0
 14  5  1  0  0  0  0
 14 13  1  0  0  0  0
 15 10  1  0  0  0  0
 17 20  1  0  0  0  0
 18 22  1  0  0  0  0
 19 23  1  0  0  0  0
 20 24  1  0  0  0  0
 21 18  2  0  0  0  0
 21 17  1  0  0  0  0
 22 20  1  0  0  0  0
 22 19  2  0  0  0  0
 24 23  2  0  0  0  0
 25 31  1  0  0  0  0
 26 25  1  0  0  0  0
 27 28  1  0  0  0  0
 28 25  2  0  0  0  0
 29 26  1  0  0  0  0
 30 27  1  1  0  0  0
 30 29  1  0  0  0  0
 31 32  1  0  0  0  0
 32 33  1  0  0  0  0
 33 35  1  0  0  0  0
 34 37  1  0  0  0  0
 35 38  1  0  0  0  0
 36 41  2  0  0  0  0
 37 36  1  0  0  0  0
 37 35  2  0  0  0  0
 38 40  2  0  0  0  0
 39 36  1  0  0  0  0
 41 40  1  0  0  0  0
M  END
>  <MODEL>
7

>  <REMARK>
 VINA RESULT:      -9.8      1.609      2.363
  Name = 
  7 active torsions:
  status: ('A' for Active; 'I' for Inactive)
    1  A    between atoms: C_5  and  C_6
    2  A    between atoms: C_5  and  C_12
    3  A    between atoms: C_12  and  N_14
    4  A    between atoms: N_14  and  C_16
    5  A    between atoms: C_15  and  C_31
    6  A    between atoms: C_26  and  C_37
    7  A    between atoms: C_30  and  N_36
                            x       y       z     vdW  Elec       q    Type
                         _______ _______ _______ _____ _____    ______ ____

>  <TORSDO>
F 7

$$$$
=
 OpenBabel11042413303D

 41 47  0  0  1  0  0  0  0  0999 V2000
  186.0190  178.3990  143.3590 C   0  0  0  0  0  2  0  0  0  0  0  0
  185.6790  179.2170  142.1190 C   0  0  0  0  0  2  0  0  0  0  0  0
  187.8080  178.2740  141.0030 C   0  0  2  0  0  3  0  0  0  0  0  0
  187.5350  178.2780  143.5130 C   0  0  2  0  0  3  0  0  0  0  0  0
  185.7500  178.6550  139.7360 N   0  0  0  0  0  0  0  0  0  0  0  0
  188.1010  177.5300  142.3060 C   0  0  0  0  0  2  0  0  0  0  0  0
  186.3370  178.6280  140.8990 C   0  0  0  0  0  0  0  0  0  0  0  0
  183.3990  176.7530  139.8420 N   0  0  0  0  0  0  0  0  0  0  0  0
  181.3060  177.3640  139.3710 O   0  0  0  0  0  0  0  0  0  0  0  0
  182.0690  178.4160  139.2530 C   0  0  0  0  0  0  0  0  0  0  0  0
  184.0620  180.2660  139.0820 N   0  0  0  0  0  0  0  0  0  0  0  0
  182.7760  180.6370  138.7870 C   0  0  0  0  0  3  0  0  0  0  0  0
  183.3440  178.0630  139.5520 C   0  0  0  0  0  0  0  0  0  0  0  0
  184.3800  178.9990  139.4860 C   0  0  0  0  0  0  0  0  0  0  0  0
  181.7240  179.7070  138.8680 C   0  0  0  0  0  3  0  0  0  0  0  0
  182.1010  176.3650  139.7240 C   0  0  0  0  0  3  0  0  0  0  0  0
  190.4790  176.8100  146.9450 C   0  0  0  0  0  2  0  0  0  0  0  0
  190.4740  177.3060  144.6370 C   0  0  0  0  0  3  0  0  0  0  0  0
  187.8990  177.5680  144.7850 C   0  0  0  0  0  0  0  0  0  0  0  0
  189.1370  176.7740  146.4160 N   0  0  0  0  0  0  0  0  0  0  0  0
  191.2770  177.1290  145.6980 C   0  0  0  0  0  3  0  0  0  0  0  0
  189.1350  177.0740  145.1380 C   0  0  0  0  0  0  0  0  0  0  0  0
  187.1960  177.5950  145.9960 C   0  0  0  0  0  3  0  0  0  0  0  0
  187.9990  177.1280  146.9850 N   0  0  0  0  0  0  0  0  0  0  0  0
  190.2300  177.0450  137.6650 C   0  0  0  0  0  0  0  0  0  0  0  0
  189.4310  178.3180  137.6270 C   0  0  0  0  0  2  0  0  0  0  0  0
  189.8110  177.0090  140.0790 C   0  0  0  0  0  2  0  0  0  0  0  0
  190.3950  176.4120  138.8320 C   0  0  0  0  0  3  0  0  0  0  0  0
  188.1460  178.1690  138.4520 C   0  0  0  0  0  2  0  0  0  0  0  0
  188.3690  177.4750  139.8190 C   0  0  2  0  0  3  0  0  0  0  0  0
  190.7400  176.4360  136.4020 C   0  0  0  0  0  2  0  0  0  0  0  0
  191.1630  175.0020  136.6550 C   0  0  0  0  0  2  0  0  0  0  0  0
  192.5150  174.8000  136.1620 N   0  0  0  0  0  2  0  0  0  0  0  0
  193.7820  176.1100  138.4130 F   0  0  0  0  0  0  0  0  0  0  0  0
  193.5840  174.2210  136.9210 C   0  0  0  0  0  0  0  0  0  0  0  0
  195.2260  174.2530  138.7190 C   0  0  0  0  0  0  0  0  0  0  0  0
  194.1880  174.8780  138.0160 C   0  0  0  0  0  0  0  0  0  0  0  0
  194.0350  172.9470  136.5560 C   0  0  0  0  0  3  0  0  0  0  0  0
  195.8110  174.8780  139.7700 F   0  0  0  0  0  0  0  0  0  0  0  0
  195.0690  172.3290  137.2610 C   0  0  0  0  0  3  0  0  0  0  0  0
  195.6640  172.9810  138.3420 C   0  0  0  0  0  3  0  0  0  0  0  0
  1  4  1  0  0  0  0
  2  1  1  0  0  0  0
  3  6  1  1  0  0  0
  4 19  1  1  0  0  0
  5  7  2  0  0  0  0
  6  4  1  0  0  0  0
  7  3  1  0  0  0  0
  7  2  1  0  0  0  0
  9 16  1  0  0  0  0
 10  9  1  0  0  0  0
 10 13  2  0  0  0  0
 11 14  2  0  0  0  0
 12 15  2  0  0  0  0
 12 11  1  0  0  0  0
 13  8  1  0  0  0  0
 14 13  1  0  0  0  0
 14  5  1  0  0  0  0
 15 10  1  0  0  0  0
 16  8  2  0  0  0  0
 18 22  1  0  0  0  0
 18 21  2  0  0  0  0
 19 22  2  0  0  0  0
 19 23  1  0  0  0  0
 20 17  1  0  0  0  0
 20 24  1  0  0  0  0
 21 17  1  0  0  0  0
 22 20  1  0  0  0  0
 23 24  2  0  0  0  0
 25 28  2  0  0  0  0
 26 25  1  0  0  0  0
 26 29  1  0  0  0  0
 28 27  1  0  0  0  0
 30 29  1  6  0  0  0
 30 27  1  0  0  0  0
 30  3  1  0  0  0  0
 31 32  1  0  0  0  0
 31 25  1  0  0  0  0
 33 32  1  0  0  0  0
 33 35  1  0  0  0  0
 35 37  1  0  0  0  0
 36 39  1  0  0  0  0
 37 34  1  0  0  0  0
 37 36  2  0  0  0  0
 38 35  2  0  0  0  0
 38 40  1  0  0  0  0
 40 41  2  0  0  0  0
 41 36  1  0  0  0  0
M  END
>  <MODEL>
8

>  <REMARK>
 VINA RESULT:      -9.7      3.523      8.405
  Name = 
  7 active torsions:
  status: ('A' for Active; 'I' for Inactive)
    1  A    between atoms: C_5  and  C_6
    2  A    between atoms: C_5  and  C_12
    3  A    between atoms: C_12  and  N_14
    4  A    between atoms: N_14  and  C_16
    5  A    between atoms: C_15  and  C_31
    6  A    between atoms: C_26  and  C_37
    7  A    between atoms: C_30  and  N_36
                            x       y       z     vdW  Elec       q    Type
                         _______ _______ _______ _____ _____    ______ ____

>  <TORSDO>
F 7

$$$$
=
 OpenBabel11042413303D

 41 47  0  0  1  0  0  0  0  0999 V2000
  185.3490  178.2890  144.9510 C   0  0  0  0  0  2  0  0  0  0  0  0
  186.5580  177.4670  145.3820 C   0  0  0  0  0  2  0  0  0  0  0  0
  187.3470  177.4720  142.9240 C   0  0  2  0  0  3  0  0  0  0  0  0
  184.9350  177.9130  143.5280 C   0  0  2  0  0  3  0  0  0  0  0  0
  188.9270  177.6310  144.7850 N   0  0  0  0  0  0  0  0  0  0  0  0
  186.0780  178.2490  142.5710 C   0  0  0  0  0  2  0  0  0  0  0  0
  187.6840  177.6220  144.3940 C   0  0  0  0  0  0  0  0  0  0  0  0
  191.4280  176.3460  145.9030 N   0  0  0  0  0  0  0  0  0  0  0  0
  192.0370  176.5090  148.0430 O   0  0  0  0  0  0  0  0  0  0  0  0
  190.9330  177.1870  147.8860 C   0  0  0  0  0  0  0  0  0  0  0  0
  188.6330  178.3950  147.0650 N   0  0  0  0  0  0  0  0  0  0  0  0
  189.0070  178.4880  148.3810 C   0  0  0  0  0  3  0  0  0  0  0  0
  190.5590  177.1100  146.5850 C   0  0  0  0  0  0  0  0  0  0  0  0
  189.3910  177.7360  146.1380 C   0  0  0  0  0  0  0  0  0  0  0  0
  190.1900  177.8780  148.8360 C   0  0  0  0  0  3  0  0  0  0  0  0
  192.3350  176.0030  146.8560 C   0  0  0  0  0  3  0  0  0  0  0  0
  181.0470  178.6430  140.8910 C   0  0  0  0  0  2  0  0  0  0  0  0
  183.2360  177.7780  140.7100 C   0  0  0  0  0  3  0  0  0  0  0  0
  183.6820  178.6300  143.1180 C   0  0  0  0  0  0  0  0  0  0  0  0
  181.8820  179.1300  141.9640 N   0  0  0  0  0  0  0  0  0  0  0  0
  182.0350  177.8000  140.1110 C   0  0  0  0  0  3  0  0  0  0  0  0
  183.0910  178.6280  141.8740 C   0  0  0  0  0  0  0  0  0  0  0  0
  182.6760  179.1190  143.9600 C   0  0  0  0  0  3  0  0  0  0  0  0
  181.5690  179.3860  143.2210 N   0  0  0  0  0  0  0  0  0  0  0  0
  190.0290  177.5150  139.5590 C   0  0  0  0  0  0  0  0  0  0  0  0
  189.9900  176.3560  140.5160 C   0  0  0  0  0  2  0  0  0  0  0  0
  187.9240  178.2530  140.5740 C   0  0  0  0  0  2  0  0  0  0  0  0
  189.0530  178.4300  139.6010 C   0  0  0  0  0  3  0  0  0  0  0  0
  189.6360  176.8390  141.9280 C   0  0  0  0  0  2  0  0  0  0  0  0
  188.4730  177.8610  141.9560 C   0  0  2  0  0  3  0  0  0  0  0  0
  191.1970  177.7050  138.6510 C   0  0  0  0  0  2  0  0  0  0  0  0
  191.3930  176.4680  137.7970 C   0  0  0  0  0  2  0  0  0  0  0  0
  190.6340  176.6030  136.5640 N   0  0  0  0  0  2  0  0  0  0  0  0
  188.8510  174.4630  137.3550 F   0  0  0  0  0  0  0  0  0  0  0  0
  189.2060  176.6890  136.4890 C   0  0  0  0  0  0  0  0  0  0  0  0
  186.9650  175.7840  136.7860 C   0  0  0  0  0  0  0  0  0  0  0  0
  188.3550  175.6330  136.8800 C   0  0  0  0  0  0  0  0  0  0  0  0
  188.6430  177.8790  136.0120 C   0  0  0  0  0  3  0  0  0  0  0  0
  186.1410  174.7740  137.1580 F   0  0  0  0  0  0  0  0  0  0  0  0
  187.2570  178.0250  135.9210 C   0  0  0  0  0  3  0  0  0  0  0  0
  186.4190  176.9780  136.3080 C   0  0  0  0  0  3  0  0  0  0  0  0
  1  2  1  0  0  0  0
  3  6  1  6  0  0  0
  3  7  1  0  0  0  0
  4 19  1  6  0  0  0
  4  1  1  0  0  0  0
  5 14  1  0  0  0  0
  6  4  1  0  0  0  0
  7  5  2  0  0  0  0
  7  2  1  0  0  0  0
  8 13  1  0  0  0  0
  8 16  2  0  0  0  0
 10  9  1  0  0  0  0
 10 15  1  0  0  0  0
 11 12  1  0  0  0  0
 12 15  2  0  0  0  0
 13 10  2  0  0  0  0
 14 13  1  0  0  0  0
 14 11  2  0  0  0  0
 16  9  1  0  0  0  0
 17 20  1  0  0  0  0
 18 22  1  0  0  0  0
 19 23  1  0  0  0  0
 20 24  1  0  0  0  0
 21 18  2  0  0  0  0
 21 17  1  0  0  0  0
 22 20  1  0  0  0  0
 22 19  2  0  0  0  0
 24 23  2  0  0  0  0
 25 28  2  0  0  0  0
 25 26  1  0  0  0  0
 26 29  1  0  0  0  0
 28 27  1  0  0  0  0
 29 30  1  0  0  0  0
 30 27  1  6  0  0  0
 30  3  1  0  0  0  0
 31 25  1  0  0  0  0
 32 31  1  0  0  0  0
 33 32  1  0  0  0  0
 35 33  1  0  0  0  0
 35 37  1  0  0  0  0
 36 37  2  0  0  0  0
 36 39  1  0  0  0  0
 37 34  1  0  0  0  0
 38 35  2  0  0  0  0
 40 38  1  0  0  0  0
 40 41  2  0  0  0  0
 41 36  1  0  0  0  0
M  END
>  <MODEL>
9

>  <REMARK>
 VINA RESULT:      -9.3      3.027      7.558
  Name = 
  7 active torsions:
  status: ('A' for Active; 'I' for Inactive)
    1  A    between atoms: C_5  and  C_6
    2  A    between atoms: C_5  and  C_12
    3  A    between atoms: C_12  and  N_14
    4  A    between atoms: N_14  and  C_16
    5  A    between atoms: C_15  and  C_31
    6  A    between atoms: C_26  and  C_37
    7  A    between atoms: C_30  and  N_36
                            x       y       z     vdW  Elec       q    Type
                         _______ _______ _______ _____ _____    ______ ____

>  <TORSDO>
F 7

$$$$
