=
 OpenBabel11032419333D

 31 33  0  0  1  0  0  0  0  0999 V2000
  188.8820  177.2970  139.0180 C   0  0  0  0  0  2  0  0  0  0  0  0
  188.0340  177.5470  140.2370 C   0  0  0  0  0  3  0  0  0  0  0  0
  190.2580  176.4300  142.8330 N   0  0  0  0  0  0  0  0  0  0  0  0
  190.7250  176.7470  140.5410 N   0  0  0  0  0  0  0  0  0  0  0  0
  189.8350  176.7830  141.6580 C   0  0  0  0  0  0  0  0  0  0  0  0
  192.6650  176.7140  138.3350 C   0  0  0  0  0  0  0  0  0  0  0  0
  187.5680  177.5060  142.6630 C   0  0  1  0  0  3  0  0  0  0  0  0
  191.2590  176.9740  138.2360 N   0  0  0  0  0  2  0  0  0  0  0  0
  189.4000  176.4060  144.0180 C   0  0  2  0  0  3  0  0  0  0  0  0
  190.3330  177.0160  139.3280 C   0  0  0  0  0  0  0  0  0  0  0  0
  193.2140  176.5070  139.4490 O   0  0  0  0  0  0  0  0  0  0  0  0
  193.4900  176.6920  137.0990 C   0  0  0  0  0  1  0  0  0  0  0  0
  188.4670  177.2980  141.4740 C   0  0  0  0  0  0  0  0  0  0  0  0
  188.3630  177.5440  143.9770 C   0  0  2  0  0  3  0  0  0  0  0  0
  191.7810  176.6370  147.3920 C   0  0  0  0  0  1  0  0  0  0  0  0
  190.2450  176.4890  145.2160 C   0  0  0  0  0  0  0  0  0  0  0  0
  190.9380  176.5570  146.1990 C   0  0  0  0  0  0  0  0  0  0  0  0
  186.8340  178.7200  142.5150 O   0  0  0  0  0  0  0  0  0  0  0  0
  184.8110  179.1320  143.8290 C   0  0  0  0  0  3  0  0  0  0  0  0
  184.6610  178.4940  141.4990 C   0  0  0  0  0  3  0  0  0  0  0  0
  182.6430  178.9150  142.7730 C   0  0  0  0  0  0  0  0  0  0  0  0
  185.4420  178.7870  142.6220 C   0  0  0  0  0  0  0  0  0  0  0  0
  183.2670  178.5530  141.5740 C   0  0  0  0  0  3  0  0  0  0  0  0
  183.4180  179.1920  143.9040 C   0  0  0  0  0  3  0  0  0  0  0  0
  180.4130  178.3550  144.1930 O   0  0  0  0  0  1  0  0  0  0  0  0
  180.1580  177.9850  141.5130 C   0  0  0  0  0  1  0  0  0  0  0  0
  180.3110  180.5470  142.7730 O   0  0  0  0  0  0  0  0  0  0  0  0
  180.8590  178.9500  142.8780 P   0  0  2  0  0  0  0  0  0  0  0  0
  187.3930  177.4310  145.1470 C   0  0  0  0  0  2  0  0  0  0  0  0
  187.6640  177.8340  147.5710 C   0  0  0  0  0  1  0  0  0  0  0  0
  187.7250  178.4710  146.1980 C   0  0  0  0  0  2  0  0  0  0  0  0
  1 10  1  0  0  0  0
  1  2  1  0  0  0  0
  2 13  2  0  0  0  0
  3  9  1  0  0  0  0
  4  5  1  0  0  0  0
  5  3  2  0  0  0  0
  6 11  2  0  0  0  0
  7 18  1  6  0  0  0
  7 14  1  0  0  0  0
  8  6  1  0  0  0  0
  8 10  1  0  0  0  0
  9 16  1  1  0  0  0
 10  4  2  0  0  0  0
 12  6  1  0  0  0  0
 13  5  1  0  0  0  0
 13  7  1  0  0  0  0
 14  9  1  0  0  0  0
 14 29  1  1  0  0  0
 16 17  3  0  0  0  0
 17 15  1  0  0  0  0
 18 22  1  0  0  0  0
 19 24  1  0  0  0  0
 20 23  2  0  0  0  0
 20 22  1  0  0  0  0
 21 28  1  0  0  0  0
 21 24  2  0  0  0  0
 22 19  2  0  0  0  0
 23 21  1  0  0  0  0
 27 28  2  0  0  0  0
 28 26  1  6  0  0  0
 28 25  1  0  0  0  0
 29 31  1  0  0  0  0
 31 30  1  0  0  0  0
M  END
>  <MODEL>
1

>  <REMARK>
 VINA RESULT:      -8.2      0.000      0.000
  Name = 
  6 active torsions:
  status: ('A' for Active; 'I' for Inactive)
    1  A    between atoms: O_1  and  C_19
    2  A    between atoms: O_1  and  C_21
    3  A    between atoms: C_12  and  C_25
    4  A    between atoms: C_16  and  P_17
    5  A    between atoms: C_18  and  C_30
    6  A    between atoms: C_18  and  C_31
                            x       y       z     vdW  Elec       q    Type
                         _______ _______ _______ _____ _____    ______ ____

>  <TORSDO>
F 6

$$$$
=
 OpenBabel11032419333D

 31 33  0  0  1  0  0  0  0  0999 V2000
  188.6180  177.4770  139.6160 C   0  0  0  0  0  2  0  0  0  0  0  0
  187.5180  177.7380  140.6120 C   0  0  0  0  0  3  0  0  0  0  0  0
  189.2420  177.0620  143.6950 N   0  0  0  0  0  0  0  0  0  0  0  0
  190.1450  177.2390  141.5220 N   0  0  0  0  0  0  0  0  0  0  0  0
  189.0430  177.2750  142.4310 C   0  0  0  0  0  0  0  0  0  0  0  0
  192.4950  177.2240  139.7580 C   0  0  0  0  0  0  0  0  0  0  0  0
  186.5660  177.8450  142.8890 C   0  0  1  0  0  3  0  0  0  0  0  0
  191.1230  177.3330  139.3580 N   0  0  0  0  0  2  0  0  0  0  0  0
  188.1620  177.0470  144.6830 C   0  0  2  0  0  3  0  0  0  0  0  0
  189.9910  177.3690  140.2350 C   0  0  0  0  0  0  0  0  0  0  0  0
  192.8170  177.1640  140.9750 O   0  0  0  0  0  0  0  0  0  0  0  0
  193.5570  177.1860  138.7200 C   0  0  0  0  0  1  0  0  0  0  0  0
  187.7060  177.6340  141.9290 C   0  0  0  0  0  0  0  0  0  0  0  0
  187.0660  178.0680  144.3250 C   0  0  2  0  0  3  0  0  0  0  0  0
  189.7640  177.7890  148.4230 C   0  0  0  0  0  1  0  0  0  0  0  0
  188.7320  177.3110  146.0100 C   0  0  0  0  0  0  0  0  0  0  0  0
  189.1990  177.5270  147.1000 C   0  0  0  0  0  0  0  0  0  0  0  0
  185.7810  178.9640  142.4790 O   0  0  0  0  0  0  0  0  0  0  0  0
  183.9600  178.6130  140.8830 C   0  0  0  0  0  3  0  0  0  0  0  0
  183.4900  179.0490  143.2170 C   0  0  0  0  0  3  0  0  0  0  0  0
  181.6690  178.6850  141.6610 C   0  0  0  0  0  0  0  0  0  0  0  0
  184.4180  178.8710  142.1860 C   0  0  0  0  0  0  0  0  0  0  0  0
  182.1200  178.9600  142.9560 C   0  0  0  0  0  3  0  0  0  0  0  0
  182.5910  178.5240  140.6220 C   0  0  0  0  0  3  0  0  0  0  0  0
  179.2500  177.6460  142.2720 O   0  0  0  0  0  1  0  0  0  0  0  0
  179.6560  178.0520  139.6160 C   0  0  0  0  0  1  0  0  0  0  0  0
  179.2310  180.1480  141.5140 O   0  0  0  0  0  0  0  0  0  0  0  0
  179.9150  178.6140  141.3210 P   0  0  2  0  0  0  0  0  0  0  0  0
  185.8890  177.9530  145.2840 C   0  0  0  0  0  2  0  0  0  0  0  0
  185.8660  179.0130  147.5180 C   0  0  0  0  0  1  0  0  0  0  0  0
  185.6990  179.2570  146.0330 C   0  0  0  0  0  2  0  0  0  0  0  0
  1 10  1  0  0  0  0
  1  2  1  0  0  0  0
  2 13  2  0  0  0  0
  3  9  1  0  0  0  0
  4  5  1  0  0  0  0
  5  3  2  0  0  0  0
  6 11  2  0  0  0  0
  7 18  1  6  0  0  0
  7 14  1  0  0  0  0
  8  6  1  0  0  0  0
  8 10  1  0  0  0  0
  9 16  1  1  0  0  0
 10  4  2  0  0  0  0
 12  6  1  0  0  0  0
 13  5  1  0  0  0  0
 13  7  1  0  0  0  0
 14  9  1  0  0  0  0
 14 29  1  1  0  0  0
 16 17  3  0  0  0  0
 17 15  1  0  0  0  0
 19 22  1  0  0  0  0
 21 23  2  0  0  0  0
 22 18  1  0  0  0  0
 22 20  2  0  0  0  0
 23 20  1  0  0  0  0
 24 19  2  0  0  0  0
 24 21  1  0  0  0  0
 28 26  1  6  0  0  0
 28 27  2  0  0  0  0
 28 21  1  0  0  0  0
 28 25  1  0  0  0  0
 29 31  1  0  0  0  0
 31 30  1  0  0  0  0
M  END
>  <MODEL>
2

>  <REMARK>
 VINA RESULT:      -7.6      1.431      1.795
  Name = 
  6 active torsions:
  status: ('A' for Active; 'I' for Inactive)
    1  A    between atoms: O_1  and  C_19
    2  A    between atoms: O_1  and  C_21
    3  A    between atoms: C_12  and  C_25
    4  A    between atoms: C_16  and  P_17
    5  A    between atoms: C_18  and  C_30
    6  A    between atoms: C_18  and  C_31
                            x       y       z     vdW  Elec       q    Type
                         _______ _______ _______ _____ _____    ______ ____

>  <TORSDO>
F 6

$$$$
=
 OpenBabel11032419333D

 31 33  0  0  1  0  0  0  0  0999 V2000
  186.8570  178.2420  137.8300 C   0  0  0  0  0  2  0  0  0  0  0  0
  188.1300  177.7210  138.4420 C   0  0  0  0  0  3  0  0  0  0  0  0
  187.5630  178.4910  141.9090 N   0  0  0  0  0  0  0  0  0  0  0  0
  186.0390  178.6260  140.1110 N   0  0  0  0  0  0  0  0  0  0  0  0
  187.3330  178.3300  140.6420 C   0  0  0  0  0  0  0  0  0  0  0  0
  183.3210  179.1850  139.1460 C   0  0  0  0  0  0  0  0  0  0  0  0
  189.6760  177.2910  140.3220 C   0  0  1  0  0  3  0  0  0  0  0  0
  184.4650  178.8560  138.3460 N   0  0  0  0  0  2  0  0  0  0  0  0
  188.8690  178.2440  142.5220 C   0  0  2  0  0  3  0  0  0  0  0  0
  185.7770  178.5560  138.8370 C   0  0  0  0  0  0  0  0  0  0  0  0
  183.3930  179.2220  140.4030 O   0  0  0  0  0  0  0  0  0  0  0  0
  182.0280  179.4850  138.4790 C   0  0  0  0  0  1  0  0  0  0  0  0
  188.3660  177.7690  139.7550 C   0  0  0  0  0  0  0  0  0  0  0  0
  189.5900  177.0670  141.8390 C   0  0  2  0  0  3  0  0  0  0  0  0
  188.3340  177.5610  146.5660 C   0  0  0  0  0  1  0  0  0  0  0  0
  188.6790  178.0000  143.9570 C   0  0  0  0  0  0  0  0  0  0  0  0
  188.5230  177.8010  145.1360 C   0  0  0  0  0  0  0  0  0  0  0  0
  190.0720  176.0780  139.6820 O   0  0  0  0  0  0  0  0  0  0  0  0
  190.9390  175.2120  137.5650 C   0  0  0  0  0  3  0  0  0  0  0  0
  192.2260  176.7900  138.8740 C   0  0  0  0  0  3  0  0  0  0  0  0
  193.1000  175.9620  136.7710 C   0  0  0  0  0  0  0  0  0  0  0  0
  191.0690  176.0230  138.7050 C   0  0  0  0  0  0  0  0  0  0  0  0
  193.2400  176.7570  137.9130 C   0  0  0  0  0  3  0  0  0  0  0  0
  191.9530  175.1800  136.6050 C   0  0  0  0  0  3  0  0  0  0  0  0
  194.3270  177.0830  134.6400 O   0  0  0  0  0  0  0  0  0  0  0  0
  194.2590  174.3660  134.5940 C   0  0  0  0  0  1  0  0  0  0  0  0
  195.9150  175.9010  136.3480 O   0  0  0  0  0  1  0  0  0  0  0  0
  194.4160  175.8900  135.5640 P   0  0  2  0  0  0  0  0  0  0  0  0
  190.9990  176.9030  142.3970 C   0  0  0  0  0  2  0  0  0  0  0  0
  191.7150  176.0490  144.6030 C   0  0  0  0  0  1  0  0  0  0  0  0
  191.0650  175.6780  143.2870 C   0  0  0  0  0  2  0  0  0  0  0  0
  1  2  1  0  0  0  0
  1 10  1  0  0  0  0
  2 13  2  0  0  0  0
  3  9  1  0  0  0  0
  4  5  1  0  0  0  0
  5  3  2  0  0  0  0
  6 11  2  0  0  0  0
  7 18  1  6  0  0  0
  7 14  1  0  0  0  0
  8 10  1  0  0  0  0
  8  6  1  0  0  0  0
  9 16  1  1  0  0  0
 10  4  2  0  0  0  0
 12  6  1  0  0  0  0
 13  7  1  0  0  0  0
 13  5  1  0  0  0  0
 14 29  1  1  0  0  0
 14  9  1  0  0  0  0
 16 17  3  0  0  0  0
 17 15  1  0  0  0  0
 19 22  1  0  0  0  0
 21 23  2  0  0  0  0
 22 20  2  0  0  0  0
 22 18  1  0  0  0  0
 23 20  1  0  0  0  0
 24 21  1  0  0  0  0
 24 19  2  0  0  0  0
 25 28  2  0  0  0  0
 28 26  1  6  0  0  0
 28 27  1  0  0  0  0
 28 21  1  0  0  0  0
 29 31  1  0  0  0  0
 31 30  1  0  0  0  0
M  END
>  <MODEL>
3

>  <REMARK>
 VINA RESULT:      -7.4      3.977      8.710
  Name = 
  6 active torsions:
  status: ('A' for Active; 'I' for Inactive)
    1  A    between atoms: O_1  and  C_19
    2  A    between atoms: O_1  and  C_21
    3  A    between atoms: C_12  and  C_25
    4  A    between atoms: C_16  and  P_17
    5  A    between atoms: C_18  and  C_30
    6  A    between atoms: C_18  and  C_31
                            x       y       z     vdW  Elec       q    Type
                         _______ _______ _______ _____ _____    ______ ____

>  <TORSDO>
F 6

$$$$
=
 OpenBabel11032419333D

 31 33  0  0  1  0  0  0  0  0999 V2000
  187.8850  177.6370  146.2820 C   0  0  0  0  0  2  0  0  0  0  0  0
  186.9860  177.8860  145.0990 C   0  0  0  0  0  3  0  0  0  0  0  0
  189.4020  177.9580  142.4360 N   0  0  0  0  0  0  0  0  0  0  0  0
  189.7250  177.3310  144.6880 N   0  0  0  0  0  0  0  0  0  0  0  0
  188.8940  177.7830  143.6170 C   0  0  0  0  0  0  0  0  0  0  0  0
  191.5070  176.3170  146.7930 C   0  0  0  0  0  0  0  0  0  0  0  0
  186.5300  178.2780  142.7030 C   0  0  1  0  0  3  0  0  0  0  0  0
  190.1500  176.7500  146.9530 N   0  0  0  0  0  2  0  0  0  0  0  0
  188.6260  178.4510  141.2970 C   0  0  2  0  0  3  0  0  0  0  0  0
  189.2850  177.2130  145.9090 C   0  0  0  0  0  0  0  0  0  0  0  0
  192.0570  176.3010  145.6600 O   0  0  0  0  0  0  0  0  0  0  0  0
  192.2760  175.8770  147.9850 C   0  0  0  0  0  1  0  0  0  0  0  0
  187.4520  177.9680  143.8510 C   0  0  0  0  0  0  0  0  0  0  0  0
  187.1740  177.9410  141.3490 C   0  0  2  0  0  3  0  0  0  0  0  0
  190.5160  177.3070  137.8010 C   0  0  0  0  0  1  0  0  0  0  0  0
  189.2960  178.0440  140.0560 C   0  0  0  0  0  0  0  0  0  0  0  0
  189.8470  177.7110  139.0370 C   0  0  0  0  0  0  0  0  0  0  0  0
  185.3100  177.5510  142.8450 O   0  0  0  0  0  0  0  0  0  0  0  0
  183.3610  178.8450  143.5610 C   0  0  0  0  0  3  0  0  0  0  0  0
  183.4780  177.9230  141.3260 C   0  0  0  0  0  3  0  0  0  0  0  0
  181.5450  179.2170  142.0040 C   0  0  0  0  0  0  0  0  0  0  0  0
  184.0560  178.1100  142.5860 C   0  0  0  0  0  0  0  0  0  0  0  0
  182.2260  178.4710  141.0360 C   0  0  0  0  0  3  0  0  0  0  0  0
  182.1090  179.3920  143.2710 C   0  0  0  0  0  3  0  0  0  0  0  0
  178.9310  178.7540  141.5000 O   0  0  0  0  0  0  0  0  0  0  0  0
  179.9930  180.8250  140.0970 C   0  0  0  0  0  1  0  0  0  0  0  0
  179.4340  180.9040  142.9000 O   0  0  0  0  0  1  0  0  0  0  0  0
  179.9250  179.8820  141.6440 P   0  0  2  0  0  0  0  0  0  0  0  0
  186.3440  178.5650  140.2350 C   0  0  0  0  0  2  0  0  0  0  0  0
  186.0660  178.3760  137.7860 C   0  0  0  0  0  1  0  0  0  0  0  0
  186.2210  177.5970  139.0750 C   0  0  0  0  0  2  0  0  0  0  0  0
  2  1  1  0  0  0  0
  3  5  2  0  0  0  0
  4 10  2  0  0  0  0
  5 13  1  0  0  0  0
  5  4  1  0  0  0  0
  6  8  1  0  0  0  0
  6 12  1  0  0  0  0
  7 18  1  1  0  0  0
  7 13  1  0  0  0  0
  9 16  1  6  0  0  0
  9 14  1  0  0  0  0
  9  3  1  0  0  0  0
 10  1  1  0  0  0  0
 10  8  1  0  0  0  0
 11  6  2  0  0  0  0
 13  2  2  0  0  0  0
 14 29  1  6  0  0  0
 14  7  1  0  0  0  0
 15 17  1  0  0  0  0
 17 16  3  0  0  0  0
 20 22  1  0  0  0  0
 21 24  2  0  0  0  0
 22 18  1  0  0  0  0
 22 19  2  0  0  0  0
 23 20  2  0  0  0  0
 23 21  1  0  0  0  0
 24 19  1  0  0  0  0
 25 28  2  0  0  0  0
 28 26  1  6  0  0  0
 28 21  1  0  0  0  0
 28 27  1  0  0  0  0
 30 31  1  0  0  0  0
 31 29  1  0  0  0  0
M  END
>  <MODEL>
4

>  <REMARK>
 VINA RESULT:      -7.1      2.085      5.350
  Name = 
  6 active torsions:
  status: ('A' for Active; 'I' for Inactive)
    1  A    between atoms: O_1  and  C_19
    2  A    between atoms: O_1  and  C_21
    3  A    between atoms: C_12  and  C_25
    4  A    between atoms: C_16  and  P_17
    5  A    between atoms: C_18  and  C_30
    6  A    between atoms: C_18  and  C_31
                            x       y       z     vdW  Elec       q    Type
                         _______ _______ _______ _____ _____    ______ ____

>  <TORSDO>
F 6

$$$$
=
 OpenBabel11032419333D

 31 33  0  0  1  0  0  0  0  0999 V2000
  185.3760  178.8100  144.2440 C   0  0  0  0  0  2  0  0  0  0  0  0
  185.1700  178.8220  142.7520 C   0  0  0  0  0  3  0  0  0  0  0  0
  188.4870  178.0250  141.6160 N   0  0  0  0  0  0  0  0  0  0  0  0
  187.6410  177.9670  143.8190 N   0  0  0  0  0  0  0  0  0  0  0  0
  187.4810  178.1960  142.4180 C   0  0  0  0  0  0  0  0  0  0  0  0
  188.0620  177.3840  146.6680 C   0  0  0  0  0  0  0  0  0  0  0  0
  185.9190  178.6270  140.4060 C   0  0  1  0  0  3  0  0  0  0  0  0
  186.8870  177.9480  146.0730 N   0  0  0  0  0  2  0  0  0  0  0  0
  188.4140  178.2730  140.1760 C   0  0  2  0  0  3  0  0  0  0  0  0
  186.6870  178.1970  144.6760 C   0  0  0  0  0  0  0  0  0  0  0  0
  189.0470  177.0370  145.9640 O   0  0  0  0  0  0  0  0  0  0  0  0
  188.1170  177.2020  148.1410 C   0  0  0  0  0  1  0  0  0  0  0  0
  186.1510  178.5470  141.8910 C   0  0  0  0  0  0  0  0  0  0  0  0
  187.0250  177.9080  139.6190 C   0  0  2  0  0  3  0  0  0  0  0  0
  191.4120  176.1300  138.3000 C   0  0  0  0  0  1  0  0  0  0  0  0
  189.4790  177.5130  139.5100 C   0  0  0  0  0  0  0  0  0  0  0  0
  190.3530  176.8880  138.9630 C   0  0  0  0  0  0  0  0  0  0  0  0
  184.6530  178.0580  140.0780 O   0  0  0  0  0  0  0  0  0  0  0  0
  182.2350  178.4280  140.1250 C   0  0  0  0  0  3  0  0  0  0  0  0
  183.7080  180.0210  139.0510 C   0  0  0  0  0  3  0  0  0  0  0  0
  181.3180  180.4210  139.1000 C   0  0  0  0  0  0  0  0  0  0  0  0
  183.5310  178.8280  139.7590 C   0  0  0  0  0  0  0  0  0  0  0  0
  182.6060  180.8130  138.7190 C   0  0  0  0  0  3  0  0  0  0  0  0
  181.1330  179.2210  139.7920 C   0  0  0  0  0  3  0  0  0  0  0  0
  178.9330  180.5800  137.8400 O   0  0  0  0  0  0  0  0  0  0  0  0
  180.4630  182.8170  137.6300 C   0  0  0  0  0  1  0  0  0  0  0  0
  179.1370  181.9980  140.0270 O   0  0  0  0  0  1  0  0  0  0  0  0
  179.9060  181.4160  138.6380 P   0  0  2  0  0  0  0  0  0  0  0  0
  186.9170  178.2920  138.1480 C   0  0  0  0  0  2  0  0  0  0  0  0
  185.1910  177.0530  136.8850 C   0  0  0  0  0  1  0  0  0  0  0  0
  186.6450  177.0600  137.3090 C   0  0  0  0  0  2  0  0  0  0  0  0
  1 10  1  0  0  0  0
  2  1  1  0  0  0  0
  3  5  2  0  0  0  0
  4 10  2  0  0  0  0
  5  4  1  0  0  0  0
  6 12  1  0  0  0  0
  7 18  1  1  0  0  0
  7 13  1  0  0  0  0
  8  6  1  0  0  0  0
  9 16  1  6  0  0  0
  9  3  1  0  0  0  0
 10  8  1  0  0  0  0
 11  6  2  0  0  0  0
 13  5  1  0  0  0  0
 13  2  2  0  0  0  0
 14 29  1  6  0  0  0
 14  9  1  0  0  0  0
 14  7  1  0  0  0  0
 15 17  1  0  0  0  0
 17 16  3  0  0  0  0
 20 22  1  0  0  0  0
 21 24  2  0  0  0  0
 22 18  1  0  0  0  0
 22 19  2  0  0  0  0
 23 20  2  0  0  0  0
 23 21  1  0  0  0  0
 24 19  1  0  0  0  0
 25 28  2  0  0  0  0
 28 26  1  6  0  0  0
 28 21  1  0  0  0  0
 28 27  1  0  0  0  0
 30 31  1  0  0  0  0
 31 29  1  0  0  0  0
M  END
>  <MODEL>
5

>  <REMARK>
 VINA RESULT:      -6.9      2.928      6.299
  Name = 
  6 active torsions:
  status: ('A' for Active; 'I' for Inactive)
    1  A    between atoms: O_1  and  C_19
    2  A    between atoms: O_1  and  C_21
    3  A    between atoms: C_12  and  C_25
    4  A    between atoms: C_16  and  P_17
    5  A    between atoms: C_18  and  C_30
    6  A    between atoms: C_18  and  C_31
                            x       y       z     vdW  Elec       q    Type
                         _______ _______ _______ _____ _____    ______ ____

>  <TORSDO>
F 6

$$$$
=
 OpenBabel11032419333D

 31 33  0  0  1  0  0  0  0  0999 V2000
  188.5440  177.6860  138.7320 C   0  0  0  0  0  2  0  0  0  0  0  0
  187.3700  177.9920  139.6260 C   0  0  0  0  0  3  0  0  0  0  0  0
  188.7360  177.1170  142.8360 N   0  0  0  0  0  0  0  0  0  0  0  0
  189.8580  177.2950  140.7670 N   0  0  0  0  0  0  0  0  0  0  0  0
  188.6760  177.3780  141.5660 C   0  0  0  0  0  0  0  0  0  0  0  0
  192.3650  177.1730  139.2390 C   0  0  0  0  0  0  0  0  0  0  0  0
  186.2070  178.0980  141.8030 C   0  0  1  0  0  3  0  0  0  0  0  0
  191.0480  177.3840  138.7120 N   0  0  0  0  0  2  0  0  0  0  0  0
  187.5650  177.1470  143.7140 C   0  0  2  0  0  3  0  0  0  0  0  0
  189.8400  177.4710  139.4760 C   0  0  0  0  0  0  0  0  0  0  0  0
  192.5610  177.0580  140.4780 O   0  0  0  0  0  0  0  0  0  0  0  0
  193.5180  177.0940  138.3070 C   0  0  0  0  0  1  0  0  0  0  0  0
  187.4200  177.8390  140.9510 C   0  0  0  0  0  0  0  0  0  0  0  0
  186.5770  178.2470  143.2870 C   0  0  2  0  0  3  0  0  0  0  0  0
  188.8400  177.6750  147.6130 C   0  0  0  0  0  1  0  0  0  0  0  0
  188.0170  177.3350  145.0980 C   0  0  0  0  0  0  0  0  0  0  0  0
  188.3880  177.4880  146.2350 C   0  0  0  0  0  0  0  0  0  0  0  0
  185.5390  179.2770  141.3570 O   0  0  0  0  0  0  0  0  0  0  0  0
  183.1460  178.7680  141.4170 C   0  0  0  0  0  3  0  0  0  0  0  0
  184.1570  179.7250  139.4360 C   0  0  0  0  0  3  0  0  0  0  0  0
  181.7810  179.2480  139.4750 C   0  0  0  0  0  0  0  0  0  0  0  0
  184.2820  179.2560  140.7480 C   0  0  0  0  0  0  0  0  0  0  0  0
  182.9130  179.7180  138.8000 C   0  0  0  0  0  3  0  0  0  0  0  0
  181.9030  178.7620  140.7800 C   0  0  0  0  0  3  0  0  0  0  0  0
  179.3530  178.0890  139.2200 O   0  0  0  0  0  1  0  0  0  0  0  0
  180.4580  178.9080  136.8750 C   0  0  0  0  0  1  0  0  0  0  0  0
  179.3990  180.6770  138.8550 O   0  0  0  0  0  0  0  0  0  0  0  0
  180.1990  179.2020  138.6450 P   0  0  2  0  0  0  0  0  0  0  0  0
  185.3050  178.1830  144.1240 C   0  0  0  0  0  2  0  0  0  0  0  0
  185.0280  178.7990  146.5020 C   0  0  0  0  0  1  0  0  0  0  0  0
  185.2730  179.3350  145.1080 C   0  0  0  0  0  2  0  0  0  0  0  0
  1 10  1  0  0  0  0
  1  2  1  0  0  0  0
  2 13  2  0  0  0  0
  3  9  1  0  0  0  0
  4  5  1  0  0  0  0
  5  3  2  0  0  0  0
  6 11  2  0  0  0  0
  7 18  1  6  0  0  0
  7 14  1  0  0  0  0
  8  6  1  0  0  0  0
  8 10  1  0  0  0  0
  9 16  1  1  0  0  0
 10  4  2  0  0  0  0
 12  6  1  0  0  0  0
 13  5  1  0  0  0  0
 13  7  1  0  0  0  0
 14  9  1  0  0  0  0
 14 29  1  1  0  0  0
 16 17  3  0  0  0  0
 17 15  1  0  0  0  0
 20 22  1  0  0  0  0
 21 24  2  0  0  0  0
 22 18  1  0  0  0  0
 22 19  2  0  0  0  0
 23 20  2  0  0  0  0
 23 21  1  0  0  0  0
 24 19  1  0  0  0  0
 28 26  1  6  0  0  0
 28 27  2  0  0  0  0
 28 25  1  0  0  0  0
 28 21  1  0  0  0  0
 29 31  1  0  0  0  0
 31 30  1  0  0  0  0
M  END
>  <MODEL>
6

>  <REMARK>
 VINA RESULT:      -6.7      2.089      2.604
  Name = 
  6 active torsions:
  status: ('A' for Active; 'I' for Inactive)
    1  A    between atoms: O_1  and  C_19
    2  A    between atoms: O_1  and  C_21
    3  A    between atoms: C_12  and  C_25
    4  A    between atoms: C_16  and  P_17
    5  A    between atoms: C_18  and  C_30
    6  A    between atoms: C_18  and  C_31
                            x       y       z     vdW  Elec       q    Type
                         _______ _______ _______ _____ _____    ______ ____

>  <TORSDO>
F 6

$$$$
=
 OpenBabel11032419333D

 31 33  0  0  1  0  0  0  0  0999 V2000
  185.6300  178.5820  143.7240 C   0  0  0  0  0  2  0  0  0  0  0  0
  185.3300  178.6360  142.2490 C   0  0  0  0  0  3  0  0  0  0  0  0
  188.5930  177.9840  140.8840 N   0  0  0  0  0  0  0  0  0  0  0  0
  187.8880  177.8250  143.1310 N   0  0  0  0  0  0  0  0  0  0  0  0
  187.6340  178.0960  141.7510 C   0  0  0  0  0  0  0  0  0  0  0  0
  188.5040  177.1630  145.9270 C   0  0  0  0  0  0  0  0  0  0  0  0
  185.9370  178.5430  139.8560 C   0  0  1  0  0  3  0  0  0  0  0  0
  187.2770  177.7090  145.4250 N   0  0  0  0  0  2  0  0  0  0  0  0
  188.4220  178.2760  139.4600 C   0  0  2  0  0  3  0  0  0  0  0  0
  186.9830  177.9970  144.0520 C   0  0  0  0  0  0  0  0  0  0  0  0
  189.4530  176.8720  145.1520 O   0  0  0  0  0  0  0  0  0  0  0  0
  188.6560  176.9340  147.3870 C   0  0  0  0  0  1  0  0  0  0  0  0
  186.2640  178.4210  141.3200 C   0  0  0  0  0  0  0  0  0  0  0  0
  187.0130  177.8860  138.9770 C   0  0  2  0  0  3  0  0  0  0  0  0
  191.3610  176.2970  137.3270 C   0  0  0  0  0  1  0  0  0  0  0  0
  189.4650  177.5730  138.7040 C   0  0  0  0  0  0  0  0  0  0  0  0
  190.3220  176.9960  138.0820 C   0  0  0  0  0  0  0  0  0  0  0  0
  184.6700  177.9440  139.5860 O   0  0  0  0  0  0  0  0  0  0  0  0
  183.2940  179.9360  139.2370 C   0  0  0  0  0  3  0  0  0  0  0  0
  182.9310  177.9370  137.9210 C   0  0  0  0  0  3  0  0  0  0  0  0
  181.5660  179.9030  137.5410 C   0  0  0  0  0  0  0  0  0  0  0  0
  183.6390  178.6110  138.9210 C   0  0  0  0  0  0  0  0  0  0  0  0
  181.8950  178.5790  137.2360 C   0  0  0  0  0  3  0  0  0  0  0  0
  182.2580  180.5770  138.5510 C   0  0  0  0  0  3  0  0  0  0  0  0
  180.7440  181.4830  135.5080 O   0  0  0  0  0  0  0  0  0  0  0  0
  179.3820  181.8470  137.8320 C   0  0  0  0  0  1  0  0  0  0  0  0
  179.1060  179.5500  136.1520 O   0  0  0  0  0  1  0  0  0  0  0  0
  180.2140  180.7080  136.6920 P   0  0  2  0  0  0  0  0  0  0  0  0
  186.8020  178.3140  137.5300 C   0  0  0  0  0  2  0  0  0  0  0  0
  187.1010  177.0730  135.4130 C   0  0  0  0  0  1  0  0  0  0  0  0
  186.3170  177.1380  136.7070 C   0  0  0  0  0  2  0  0  0  0  0  0
  1 10  1  0  0  0  0
  2  1  1  0  0  0  0
  3  5  2  0  0  0  0
  4 10  2  0  0  0  0
  5  4  1  0  0  0  0
  6 12  1  0  0  0  0
  7 18  1  1  0  0  0
  7 13  1  0  0  0  0
  8  6  1  0  0  0  0
  9 16  1  6  0  0  0
  9  3  1  0  0  0  0
 10  8  1  0  0  0  0
 11  6  2  0  0  0  0
 13  5  1  0  0  0  0
 13  2  2  0  0  0  0
 14 29  1  6  0  0  0
 14  9  1  0  0  0  0
 14  7  1  0  0  0  0
 15 17  1  0  0  0  0
 17 16  3  0  0  0  0
 20 22  2  0  0  0  0
 21 24  1  0  0  0  0
 22 19  1  0  0  0  0
 22 18  1  0  0  0  0
 23 21  2  0  0  0  0
 23 20  1  0  0  0  0
 24 19  2  0  0  0  0
 25 28  2  0  0  0  0
 27 28  1  0  0  0  0
 28 21  1  0  0  0  0
 28 26  1  1  0  0  0
 30 31  1  0  0  0  0
 31 29  1  0  0  0  0
M  END
>  <MODEL>
7

>  <REMARK>
 VINA RESULT:      -6.7      3.486      6.652
  Name = 
  6 active torsions:
  status: ('A' for Active; 'I' for Inactive)
    1  A    between atoms: O_1  and  C_19
    2  A    between atoms: O_1  and  C_21
    3  A    between atoms: C_12  and  C_25
    4  A    between atoms: C_16  and  P_17
    5  A    between atoms: C_18  and  C_30
    6  A    between atoms: C_18  and  C_31
                            x       y       z     vdW  Elec       q    Type
                         _______ _______ _______ _____ _____    ______ ____

>  <TORSDO>
F 6

$$$$
=
 OpenBabel11032419333D

 31 33  0  0  1  0  0  0  0  0999 V2000
  188.5870  178.2250  139.9250 C   0  0  0  0  0  2  0  0  0  0  0  0
  187.6570  178.2110  141.1090 C   0  0  0  0  0  3  0  0  0  0  0  0
  184.5320  178.9860  139.5060 N   0  0  0  0  0  0  0  0  0  0  0  0
  186.6040  178.4690  138.5010 N   0  0  0  0  0  0  0  0  0  0  0  0
  185.7810  178.6670  139.6530 C   0  0  0  0  0  0  0  0  0  0  0  0
  188.1780  178.0020  136.0640 C   0  0  0  0  0  0  0  0  0  0  0  0
  185.4580  178.4650  142.2070 C   0  0  1  0  0  3  0  0  0  0  0  0
  188.6690  178.0260  137.4110 N   0  0  0  0  0  2  0  0  0  0  0  0
  183.6340  179.2400  140.6340 C   0  0  2  0  0  3  0  0  0  0  0  0
  187.8800  178.2240  138.5910 C   0  0  0  0  0  0  0  0  0  0  0  0
  186.9530  178.1490  135.8140 O   0  0  0  0  0  0  0  0  0  0  0  0
  189.1330  177.7970  134.9450 C   0  0  0  0  0  1  0  0  0  0  0  0
  186.3450  178.4290  140.9920 C   0  0  0  0  0  0  0  0  0  0  0  0
  183.9740  178.3330  141.8310 C   0  0  2  0  0  3  0  0  0  0  0  0
  179.7310  178.6970  139.3790 C   0  0  0  0  0  1  0  0  0  0  0  0
  182.2490  179.0480  140.1880 C   0  0  0  0  0  0  0  0  0  0  0  0
  181.1110  178.8900  139.8220 C   0  0  0  0  0  0  0  0  0  0  0  0
  185.8170  177.4170  143.1060 O   0  0  0  0  0  0  0  0  0  0  0  0
  187.4640  178.1420  144.7640 C   0  0  0  0  0  3  0  0  0  0  0  0
  187.9860  176.3750  143.1950 C   0  0  0  0  0  3  0  0  0  0  0  0
  189.6290  177.0610  144.8390 C   0  0  0  0  0  0  0  0  0  0  0  0
  187.0810  177.3170  143.6930 C   0  0  0  0  0  0  0  0  0  0  0  0
  189.2570  176.2490  143.7620 C   0  0  0  0  0  3  0  0  0  0  0  0
  188.7350  178.0160  145.3310 C   0  0  0  0  0  3  0  0  0  0  0  0
  191.9430  175.6760  145.0210 O   0  0  0  0  0  0  0  0  0  0  0  0
  191.1490  176.8430  147.3430 C   0  0  0  0  0  1  0  0  0  0  0  0
  192.1900  178.2770  145.0990 O   0  0  0  0  0  1  0  0  0  0  0  0
  191.2700  176.9270  145.5360 P   0  0  2  0  0  0  0  0  0  0  0  0
  183.1220  178.6960  143.0410 C   0  0  0  0  0  2  0  0  0  0  0  0
  183.8520  178.9680  145.3860 C   0  0  0  0  0  1  0  0  0  0  0  0
  183.9180  179.5630  143.9950 C   0  0  0  0  0  2  0  0  0  0  0  0
  1  2  1  0  0  0  0
  3  5  2  0  0  0  0
  3  9  1  0  0  0  0
  4 10  2  0  0  0  0
  4  5  1  0  0  0  0
  5 13  1  0  0  0  0
  6  8  1  0  0  0  0
  7 18  1  1  0  0  0
  8 10  1  0  0  0  0
  9 16  1  6  0  0  0
  9 14  1  0  0  0  0
 10  1  1  0  0  0  0
 11  6  2  0  0  0  0
 12  6  1  0  0  0  0
 13  2  2  0  0  0  0
 13  7  1  0  0  0  0
 14  7  1  0  0  0  0
 14 29  1  1  0  0  0
 15 17  1  0  0  0  0
 17 16  3  0  0  0  0
 18 22  1  0  0  0  0
 19 24  1  0  0  0  0
 20 22  1  0  0  0  0
 20 23  2  0  0  0  0
 21 24  2  0  0  0  0
 21 28  1  0  0  0  0
 22 19  2  0  0  0  0
 23 21  1  0  0  0  0
 25 28  2  0  0  0  0
 27 28  1  0  0  0  0
 28 26  1  1  0  0  0
 29 31  1  0  0  0  0
 31 30  1  0  0  0  0
M  END
>  <MODEL>
8

>  <REMARK>
 VINA RESULT:      -6.7      3.492      7.117
  Name = 
  6 active torsions:
  status: ('A' for Active; 'I' for Inactive)
    1  A    between atoms: O_1  and  C_19
    2  A    between atoms: O_1  and  C_21
    3  A    between atoms: C_12  and  C_25
    4  A    between atoms: C_16  and  P_17
    5  A    between atoms: C_18  and  C_30
    6  A    between atoms: C_18  and  C_31
                            x       y       z     vdW  Elec       q    Type
                         _______ _______ _______ _____ _____    ______ ____

>  <TORSDO>
F 6

$$$$
=
 OpenBabel11032419333D

 31 33  0  0  1  0  0  0  0  0999 V2000
  189.1820  177.7040  139.5220 C   0  0  0  0  0  2  0  0  0  0  0  0
  188.1720  177.8560  140.6300 C   0  0  0  0  0  3  0  0  0  0  0  0
  185.3720  179.1770  138.8000 N   0  0  0  0  0  0  0  0  0  0  0  0
  187.3920  178.2990  137.9510 N   0  0  0  0  0  0  0  0  0  0  0  0
  186.5300  178.6410  139.0380 C   0  0  0  0  0  0  0  0  0  0  0  0
  189.0460  177.5590  135.6380 C   0  0  0  0  0  0  0  0  0  0  0  0
  185.9740  178.4980  141.5570 C   0  0  1  0  0  3  0  0  0  0  0  0
  189.4250  177.4940  137.0190 N   0  0  0  0  0  2  0  0  0  0  0  0
  184.4480  179.5870  139.8580 C   0  0  2  0  0  3  0  0  0  0  0  0
  188.5930  177.8300  138.1370 C   0  0  0  0  0  0  0  0  0  0  0  0
  187.8900  177.9230  135.2960 O   0  0  0  0  0  0  0  0  0  0  0  0
  190.0350  177.1880  134.5940 C   0  0  0  0  0  1  0  0  0  0  0  0
  186.9340  178.3040  140.4140 C   0  0  0  0  0  0  0  0  0  0  0  0
  184.5250  178.6340  141.0650 C   0  0  2  0  0  3  0  0  0  0  0  0
  180.6230  179.7570  138.2940 C   0  0  0  0  0  1  0  0  0  0  0  0
  183.0900  179.6460  139.3030 C   0  0  0  0  0  0  0  0  0  0  0  0
  181.9750  179.6960  138.8470 C   0  0  0  0  0  0  0  0  0  0  0  0
  186.0680  177.4020  142.4660 O   0  0  0  0  0  0  0  0  0  0  0  0
  186.0630  178.0950  144.8120 C   0  0  0  0  0  3  0  0  0  0  0  0
  187.9920  176.9890  143.8550 C   0  0  0  0  0  3  0  0  0  0  0  0
  188.0050  177.6470  146.1870 C   0  0  0  0  0  0  0  0  0  0  0  0
  186.6970  177.4970  143.7100 C   0  0  0  0  0  0  0  0  0  0  0  0
  188.6460  177.0670  145.0880 C   0  0  0  0  0  3  0  0  0  0  0  0
  186.7180  178.1720  146.0440 C   0  0  0  0  0  3  0  0  0  0  0  0
  189.0540  179.2400  148.1020 O   0  0  0  0  0  0  0  0  0  0  0  0
  190.4780  176.9750  147.6240 C   0  0  0  0  0  1  0  0  0  0  0  0
  187.9540  177.0310  148.9660 O   0  0  0  0  0  1  0  0  0  0  0  0
  188.8600  177.7830  147.7520 P   0  0  2  0  0  0  0  0  0  0  0  0
  183.6580  179.1420  142.2090 C   0  0  0  0  0  2  0  0  0  0  0  0
  181.3080  179.1620  142.9770 C   0  0  0  0  0  1  0  0  0  0  0  0
  182.3740  178.3400  142.2840 C   0  0  0  0  0  2  0  0  0  0  0  0
  1  2  1  0  0  0  0
  3  5  2  0  0  0  0
  3  9  1  0  0  0  0
  4 10  2  0  0  0  0
  4  5  1  0  0  0  0
  5 13  1  0  0  0  0
  6  8  1  0  0  0  0
  7 18  1  1  0  0  0
  8 10  1  0  0  0  0
  9 16  1  6  0  0  0
  9 14  1  0  0  0  0
 10  1  1  0  0  0  0
 11  6  2  0  0  0  0
 12  6  1  0  0  0  0
 13  2  2  0  0  0  0
 13  7  1  0  0  0  0
 14  7  1  0  0  0  0
 14 29  1  1  0  0  0
 15 17  1  0  0  0  0
 17 16  3  0  0  0  0
 18 22  1  0  0  0  0
 19 24  1  0  0  0  0
 20 23  2  0  0  0  0
 21 28  1  0  0  0  0
 22 20  1  0  0  0  0
 22 19  2  0  0  0  0
 23 21  1  0  0  0  0
 24 21  2  0  0  0  0
 28 26  1  6  0  0  0
 28 25  2  0  0  0  0
 28 27  1  0  0  0  0
 29 31  1  0  0  0  0
 31 30  1  0  0  0  0
M  END
>  <MODEL>
9

>  <REMARK>
 VINA RESULT:      -6.5      3.449      6.787
  Name = 
  6 active torsions:
  status: ('A' for Active; 'I' for Inactive)
    1  A    between atoms: O_1  and  C_19
    2  A    between atoms: O_1  and  C_21
    3  A    between atoms: C_12  and  C_25
    4  A    between atoms: C_16  and  P_17
    5  A    between atoms: C_18  and  C_30
    6  A    between atoms: C_18  and  C_31
                            x       y       z     vdW  Elec       q    Type
                         _______ _______ _______ _____ _____    ______ ____

>  <TORSDO>
F 6

$$$$
