=
 OpenBabel11032419393D

 49 55  0  0  1  0  0  0  0  0999 V2000
  180.3280  177.6780  138.6080 S   0  0  0  0  0  0  0  0  0  0  0  0
  184.9090  179.8630  139.0180 O   0  0  0  0  0  0  0  0  0  0  0  0
  182.4010  177.2570  137.0580 N   0  0  0  0  0  0  0  0  0  0  0  0
  190.5590  176.6030  137.0870 C   0  0  0  0  0  3  0  0  0  0  0  0
  186.8990  174.0800  135.5580 C   0  0  0  0  0  2  0  0  0  0  0  0
  186.4990  178.0790  139.4510 C   0  0  1  0  0  3  0  0  0  0  0  0
  182.1260  177.5730  138.4480 C   0  0  1  0  0  3  0  0  0  0  0  0
  180.1260  177.2350  136.8570 C   0  0  2  0  0  3  0  0  0  0  0  0
  183.5350  176.4730  136.6780 C   0  0  0  0  0  0  0  0  0  0  0  0
  181.3700  177.4840  136.1450 N   0  0  0  0  0  2  0  0  0  0  0  0
  185.4400  178.7780  141.5950 C   0  0  0  0  0  3  0  0  0  0  0  0
  183.8730  175.3670  137.4090 N   0  0  0  0  0  0  0  0  0  0  0  0
  184.9300  174.5810  137.0560 C   0  0  0  0  0  3  0  0  0  0  0  0
  185.7100  174.9050  135.9400 C   0  0  0  0  0  0  0  0  0  0  0  0
  184.2780  176.8170  135.5370 C   0  0  0  0  0  3  0  0  0  0  0  0
  184.0510  178.8440  139.4750 C   0  0  1  0  0  0  0  0  0  0  0  0
  179.0020  178.0500  136.2500 C   0  0  0  0  0  1  0  0  0  0  0  0
  182.7070  178.9430  138.7780 C   0  0  0  0  0  2  0  0  0  0  0  0
  186.5510  178.4800  140.9200 C   0  0  0  0  0  0  0  0  0  0  0  0
  188.5770  175.2040  137.0570 C   0  0  0  0  0  0  0  0  0  0  0  0
  185.3740  176.0310  135.1750 C   0  0  0  0  0  3  0  0  0  0  0  0
  185.2550  178.5380  138.6630 C   0  0  1  0  0  3  0  0  0  0  0  0
  187.8690  176.2240  137.7010 C   0  0  0  0  0  3  0  0  0  0  0  0
  187.7300  178.5530  138.6790 C   0  0  0  0  0  2  0  0  0  0  0  0
  189.8400  177.6160  137.7270 C   0  0  0  0  0  3  0  0  0  0  0  0
  184.0700  178.7130  140.9980 C   0  0  0  0  0  2  0  0  0  0  0  0
  189.9340  175.3900  136.7480 C   0  0  0  0  0  0  0  0  0  0  0  0
  188.4940  177.4280  138.0470 C   0  0  0  0  0  0  0  0  0  0  0  0
  187.8780  173.9190  136.7220 C   0  0  0  0  0  2  0  0  0  0  0  0
  187.8840  177.7870  142.8220 N   0  0  0  0  0  0  0  0  0  0  0  0
  187.7920  178.4420  141.7060 C   0  0  0  0  0  3  0  0  0  0  0  0
  188.2680  177.5010  147.3100 C   0  0  0  0  0  2  0  0  0  0  0  0
  189.0160  177.5090  145.0560 N   0  0  0  0  0  0  0  0  0  0  0  0
  189.0680  177.7050  143.6260 C   0  0  0  0  0  0  0  0  0  0  0  0
  189.7080  177.0020  147.2640 C   0  0  0  0  0  2  0  0  0  0  0  0
  187.8220  177.6660  145.8760 C   0  0  0  0  0  2  0  0  0  0  0  0
  190.1940  177.1870  145.8380 C   0  0  0  0  0  2  0  0  0  0  0  0
  190.2140  177.8460  143.0420 N   0  0  0  0  0  2  0  0  0  0  0  0
  190.6440  174.3640  136.1160 O   0  0  0  0  0  0  0  0  0  0  0  0
  191.1520  174.4810  134.7930 C   0  0  0  0  0  2  0  0  0  0  0  0
  192.5480  173.8860  134.7160 C   0  0  0  0  0  2  0  0  0  0  0  0
  193.2330  174.0030  136.0660 C   0  0  0  0  0  2  0  0  0  0  0  0
  195.4060  175.2010  136.2110 C   0  0  0  0  0  3  0  0  0  0  0  0
  194.0800  175.2420  136.0880 C   0  0  0  0  0  3  0  0  0  0  0  0
  196.1680  173.9150  136.3320 C   0  0  0  0  0  2  0  0  0  0  0  0
  197.0200  173.9080  137.5880 C   0  0  0  0  0  2  0  0  0  0  0  0
  196.2990  174.9680  139.7690 N   0  0  0  0  0  1  0  0  0  0  0  0
  196.1680  173.9160  138.8130 C   0  0  0  0  0  0  0  0  0  0  0  0
  195.3320  172.9980  139.0000 O   0  0  0  0  0  0  0  0  0  0  0  0
  2 16  1  0  0  0  0
  3  7  1  0  0  0  0
  4 25  1  0  0  0  0
  5 14  1  0  0  0  0
  5 29  1  0  0  0  0
  6 24  1  6  0  0  0
  6 19  1  0  0  0  0
  7  1  1  0  0  0  0
  7 18  1  6  0  0  0
  8 17  1  6  0  0  0
  8  1  1  0  0  0  0
  9  3  1  0  0  0  0
  9 12  1  0  0  0  0
 10  8  1  0  0  0  0
 10  3  1  0  0  0  0
 13 12  2  0  0  0  0
 14 13  1  0  0  0  0
 15  9  2  0  0  0  0
 16 18  1  6  0  0  0
 16 26  1  0  0  0  0
 19 11  2  0  0  0  0
 19 31  1  0  0  0  0
 20 23  2  0  0  0  0
 21 15  1  0  0  0  0
 21 14  2  0  0  0  0
 22  2  1  1  0  0  0
 22  6  1  0  0  0  0
 22 16  1  0  0  0  0
 23 28  1  0  0  0  0
 25 28  2  0  0  0  0
 26 11  1  0  0  0  0
 27 20  1  0  0  0  0
 27  4  2  0  0  0  0
 28 24  1  0  0  0  0
 29 20  1  0  0  0  0
 30 34  1  0  0  0  0
 31 30  2  0  0  0  0
 33 37  1  0  0  0  0
 33 36  1  0  0  0  0
 34 33  1  0  0  0  0
 35 32  1  0  0  0  0
 36 32  1  0  0  0  0
 37 35  1  0  0  0  0
 38 34  2  0  0  0  0
 39 27  1  0  0  0  0
 40 39  1  0  0  0  0
 41 40  1  0  0  0  0
 41 42  1  0  0  0  0
 42 44  1  0  0  0  0
 43 45  1  0  0  0  0
 44 43  2  0  0  0  0
 45 46  1  0  0  0  0
 46 48  1  0  0  0  0
 48 49  2  0  0  0  0
 48 47  1  0  0  0  0
M  END
>  <MODEL>
1

>  <REMARK>
 VINA RESULT:      -7.9      0.000      0.000
  Name = 
  10 active torsions:
  status: ('A' for Active; 'I' for Inactive)
    1  A    between atoms: C_8  and  C_24
    2  A    between atoms: C_8  and  O_32
    3  A    between atoms: C_9  and  C_14
    4  A    between atoms: C_9  and  C_31
    5  A    between atoms: N_11  and  C_16
    6  A    between atoms: C_15  and  C_17
    7  A    between atoms: C_17  and  C_24
    8  A    between atoms: C_31  and  C_44
    9  A    between atoms: O_32  and  C_45
   10  A    between atoms: C_34  and  C_46
                            x       y       z     vdW  Elec       q    Type
                         _______ _______ _______ _____ _____    ______ ____

>  <TORSDO>
F 10

$$$$
=
 OpenBabel11032419393D

 49 55  0  0  1  0  0  0  0  0999 V2000
  191.6680  174.0700  135.4010 S   0  0  0  0  0  0  0  0  0  0  0  0
  187.1690  176.3480  134.6950 O   0  0  0  0  0  0  0  0  0  0  0  0
  190.7690  176.1760  136.6770 N   0  0  0  0  0  0  0  0  0  0  0  0
  183.9860  179.5300  139.7960 C   0  0  0  0  0  3  0  0  0  0  0  0
  188.3290  178.5120  141.2790 C   0  0  0  0  0  2  0  0  0  0  0  0
  185.9540  176.1620  136.7900 C   0  0  1  0  0  3  0  0  0  0  0  0
  190.2480  174.9620  136.0770 C   0  0  1  0  0  3  0  0  0  0  0  0
  192.7960  175.3470  136.0300 C   0  0  2  0  0  3  0  0  0  0  0  0
  190.1510  176.7710  137.8220 C   0  0  0  0  0  0  0  0  0  0  0  0
  192.0520  176.5690  136.2910 N   0  0  0  0  0  2  0  0  0  0  0  0
  185.6460  174.0730  135.4710 C   0  0  0  0  0  3  0  0  0  0  0  0
  189.7150  175.9800  138.8480 N   0  0  0  0  0  0  0  0  0  0  0  0
  189.1500  176.5170  139.9670 C   0  0  0  0  0  3  0  0  0  0  0  0
  188.9850  177.9030  140.0780 C   0  0  0  0  0  0  0  0  0  0  0  0
  190.0260  178.1680  137.9070 C   0  0  0  0  0  3  0  0  0  0  0  0
  187.8630  175.2910  135.3150 C   0  0  1  0  0  0  0  0  0  0  0  0
  193.8910  175.6060  135.0150 C   0  0  0  0  0  1  0  0  0  0  0  0
  189.3270  175.3260  134.9180 C   0  0  0  0  0  2  0  0  0  0  0  0
  185.1010  175.0480  136.1980 C   0  0  0  0  0  0  0  0  0  0  0  0
  185.9470  178.2880  140.5040 C   0  0  0  0  0  0  0  0  0  0  0  0
  189.4310  178.7300  139.0390 C   0  0  0  0  0  3  0  0  0  0  0  0
  187.3090  176.4230  136.1010 C   0  0  1  0  0  3  0  0  0  0  0  0
  186.0270  177.7220  139.2280 C   0  0  0  0  0  3  0  0  0  0  0  0
  185.2070  177.4950  136.8450 C   0  0  0  0  0  2  0  0  0  0  0  0
  184.0790  178.9610  138.5240 C   0  0  0  0  0  3  0  0  0  0  0  0
  187.1140  173.9630  135.2040 C   0  0  0  0  0  2  0  0  0  0  0  0
  184.9180  179.1990  140.7960 C   0  0  0  0  0  0  0  0  0  0  0  0
  185.0930  178.0460  138.2350 C   0  0  0  0  0  0  0  0  0  0  0  0
  186.9530  177.9010  141.5470 C   0  0  0  0  0  2  0  0  0  0  0  0
  183.2210  174.7600  137.7000 N   0  0  0  0  0  0  0  0  0  0  0  0
  183.6680  174.9100  136.4910 C   0  0  0  0  0  3  0  0  0  0  0  0
  180.7680  177.2120  140.5900 C   0  0  0  0  0  2  0  0  0  0  0  0
  181.1700  175.5720  138.9190 N   0  0  0  0  0  0  0  0  0  0  0  0
  181.8360  174.6300  138.0500 C   0  0  0  0  0  0  0  0  0  0  0  0
  179.4330  176.7490  140.0180 C   0  0  0  0  0  2  0  0  0  0  0  0
  181.8450  176.5520  139.7600 C   0  0  0  0  0  2  0  0  0  0  0  0
  179.7300  175.5880  139.0870 C   0  0  0  0  0  2  0  0  0  0  0  0
  181.1830  173.6120  137.5900 N   0  0  0  0  0  2  0  0  0  0  0  0
  184.8310  179.7540  142.0760 O   0  0  0  0  0  0  0  0  0  0  0  0
  183.8830  179.3160  143.0420 C   0  0  0  0  0  2  0  0  0  0  0  0
  184.4620  179.4530  144.4400 C   0  0  0  0  0  2  0  0  0  0  0  0
  185.3640  178.2700  144.7420 C   0  0  0  0  0  2  0  0  0  0  0  0
  187.1230  178.0020  146.4770 C   0  0  0  0  0  3  0  0  0  0  0  0
  185.8940  178.3920  146.1400 C   0  0  0  0  0  3  0  0  0  0  0  0
  188.0850  177.4130  145.4880 C   0  0  0  0  0  2  0  0  0  0  0  0
  189.4250  177.1280  146.1410 C   0  0  0  0  0  2  0  0  0  0  0  0
  190.3450  178.6340  144.3290 N   0  0  0  0  0  1  0  0  0  0  0  0
  190.5510  177.5880  145.2790 C   0  0  0  0  0  0  0  0  0  0  0  0
  191.6830  177.0570  145.3910 O   0  0  0  0  0  0  0  0  0  0  0  0
  1  8  1  0  0  0  0
  1  7  1  0  0  0  0
  2 16  1  0  0  0  0
  3  9  1  0  0  0  0
  4 27  1  0  0  0  0
  5 29  1  0  0  0  0
  6 24  1  6  0  0  0
  7 18  1  6  0  0  0
  7  3  1  0  0  0  0
  8 17  1  6  0  0  0
  8 10  1  0  0  0  0
  9 15  2  0  0  0  0
  9 12  1  0  0  0  0
 10  3  1  0  0  0  0
 11 19  2  0  0  0  0
 12 13  2  0  0  0  0
 13 14  1  0  0  0  0
 14  5  1  0  0  0  0
 15 21  1  0  0  0  0
 16 18  1  6  0  0  0
 16 22  1  0  0  0  0
 19 31  1  0  0  0  0
 19  6  1  0  0  0  0
 20 27  2  0  0  0  0
 20 29  1  0  0  0  0
 21 14  2  0  0  0  0
 22  2  1  6  0  0  0
 22  6  1  0  0  0  0
 23 20  1  0  0  0  0
 24 28  1  0  0  0  0
 25  4  2  0  0  0  0
 26 16  1  0  0  0  0
 26 11  1  0  0  0  0
 27 39  1  0  0  0  0
 28 25  1  0  0  0  0
 28 23  2  0  0  0  0
 30 34  1  0  0  0  0
 31 30  2  0  0  0  0
 33 37  1  0  0  0  0
 33 36  1  0  0  0  0
 34 33  1  0  0  0  0
 35 32  1  0  0  0  0
 36 32  1  0  0  0  0
 37 35  1  0  0  0  0
 38 34  2  0  0  0  0
 39 40  1  0  0  0  0
 40 41  1  0  0  0  0
 41 42  1  0  0  0  0
 42 44  1  0  0  0  0
 44 43  2  0  0  0  0
 45 46  1  0  0  0  0
 45 43  1  0  0  0  0
 47 48  1  0  0  0  0
 48 49  2  0  0  0  0
 48 46  1  0  0  0  0
M  END
>  <MODEL>
2

>  <REMARK>
 VINA RESULT:      -7.2      3.102      9.138
  Name = 
  10 active torsions:
  status: ('A' for Active; 'I' for Inactive)
    1  A    between atoms: C_8  and  C_24
    2  A    between atoms: C_8  and  O_32
    3  A    between atoms: C_9  and  C_14
    4  A    between atoms: C_9  and  C_31
    5  A    between atoms: N_11  and  C_16
    6  A    between atoms: C_15  and  C_17
    7  A    between atoms: C_17  and  C_24
    8  A    between atoms: C_31  and  C_44
    9  A    between atoms: O_32  and  C_45
   10  A    between atoms: C_34  and  C_46
                            x       y       z     vdW  Elec       q    Type
                         _______ _______ _______ _____ _____    ______ ____

>  <TORSDO>
F 10

$$$$
=
 OpenBabel11032419393D

 49 55  0  0  1  0  0  0  0  0999 V2000
  182.3770  178.7330  140.3700 S   0  0  0  0  0  0  0  0  0  0  0  0
  187.3490  179.4410  141.2140 O   0  0  0  0  0  0  0  0  0  0  0  0
  184.2990  178.5780  138.5930 N   0  0  0  0  0  0  0  0  0  0  0  0
  192.0510  176.1770  137.5390 C   0  0  0  0  0  3  0  0  0  0  0  0
  187.9010  175.4560  135.4520 C   0  0  0  0  0  2  0  0  0  0  0  0
  188.4520  177.3410  140.6920 C   0  0  1  0  0  3  0  0  0  0  0  0
  184.0970  178.3110  140.0050 C   0  0  1  0  0  3  0  0  0  0  0  0
  182.0890  179.1530  138.6250 C   0  0  2  0  0  3  0  0  0  0  0  0
  185.2110  177.8060  137.8070 C   0  0  0  0  0  0  0  0  0  0  0  0
  183.3610  179.4030  137.9680 N   0  0  0  0  0  2  0  0  0  0  0  0
  187.5780  177.2550  143.0230 C   0  0  0  0  0  3  0  0  0  0  0  0
  185.2630  176.4490  137.9630 N   0  0  0  0  0  0  0  0  0  0  0  0
  186.1000  175.6800  137.2080 C   0  0  0  0  0  3  0  0  0  0  0  0
  186.9450  176.2750  136.2630 C   0  0  0  0  0  0  0  0  0  0  0  0
  186.0250  178.4370  136.8510 C   0  0  0  0  0  3  0  0  0  0  0  0
  186.2650  178.5440  141.2790 C   0  0  1  0  0  0  0  0  0  0  0  0
  181.2020  180.3790  138.5360 C   0  0  0  0  0  1  0  0  0  0  0  0
  184.9910  179.2330  140.8260 C   0  0  0  0  0  2  0  0  0  0  0  0
  188.5880  177.0400  142.1790 C   0  0  0  0  0  0  0  0  0  0  0  0
  189.7880  175.4110  137.1140 C   0  0  0  0  0  0  0  0  0  0  0  0
  186.9000  177.6650  136.0850 C   0  0  0  0  0  3  0  0  0  0  0  0
  187.3650  178.3610  140.2990 C   0  0  1  0  0  3  0  0  0  0  0  0
  189.3450  176.1780  138.1960 C   0  0  0  0  0  3  0  0  0  0  0  0
  189.7690  177.8160  140.0770 C   0  0  0  0  0  2  0  0  0  0  0  0
  191.5950  176.9420  138.6150 C   0  0  0  0  0  3  0  0  0  0  0  0
  186.2380  177.7620  142.5930 C   0  0  0  0  0  2  0  0  0  0  0  0
  191.1530  175.4050  136.7810 C   0  0  0  0  0  0  0  0  0  0  0  0
  190.2420  176.9390  138.9560 C   0  0  0  0  0  0  0  0  0  0  0  0
  188.8010  174.5910  136.3370 C   0  0  0  0  0  2  0  0  0  0  0  0
  190.1610  176.5990  143.9700 N   0  0  0  0  0  0  0  0  0  0  0  0
  189.7760  176.3890  142.7490 C   0  0  0  0  0  3  0  0  0  0  0  0
  191.6760  176.9940  148.2040 C   0  0  0  0  0  2  0  0  0  0  0  0
  191.5910  176.1330  145.9920 N   0  0  0  0  0  0  0  0  0  0  0  0
  191.3020  175.9860  144.5850 C   0  0  0  0  0  0  0  0  0  0  0  0
  192.5440  175.7430  148.1240 C   0  0  0  0  0  2  0  0  0  0  0  0
  190.9730  177.1170  146.8720 C   0  0  0  0  0  2  0  0  0  0  0  0
  192.5960  175.3330  146.6650 C   0  0  0  0  0  2  0  0  0  0  0  0
  192.1100  175.3100  143.8330 N   0  0  0  0  0  2  0  0  0  0  0  0
  191.5970  174.6260  135.7070 O   0  0  0  0  0  0  0  0  0  0  0  0
  192.0330  173.2810  135.8610 C   0  0  0  0  0  2  0  0  0  0  0  0
  193.1800  173.2150  136.8550 C   0  0  0  0  0  2  0  0  0  0  0  0
  194.4790  172.9310  136.1250 C   0  0  0  0  0  2  0  0  0  0  0  0
  196.3290  174.5930  136.1070 C   0  0  0  0  0  3  0  0  0  0  0  0
  195.1100  174.2280  135.7090 C   0  0  0  0  0  3  0  0  0  0  0  0
  197.1780  173.7360  136.9990 C   0  0  0  0  0  2  0  0  0  0  0  0
  197.6310  174.5140  138.2210 C   0  0  0  0  0  2  0  0  0  0  0  0
  196.6420  175.3860  140.3800 N   0  0  0  0  0  1  0  0  0  0  0  0
  196.6140  174.4420  139.3090 C   0  0  0  0  0  0  0  0  0  0  0  0
  195.7280  173.5510  139.2810 O   0  0  0  0  0  0  0  0  0  0  0  0
  2 16  1  0  0  0  0
  3  7  1  0  0  0  0
  4 25  1  0  0  0  0
  5 14  1  0  0  0  0
  5 29  1  0  0  0  0
  6 24  1  1  0  0  0
  6 19  1  0  0  0  0
  7  1  1  0  0  0  0
  7 18  1  1  0  0  0
  8 17  1  1  0  0  0
  8  1  1  0  0  0  0
  9 12  1  0  0  0  0
  9  3  1  0  0  0  0
 10  3  1  0  0  0  0
 10  8  1  0  0  0  0
 13 12  2  0  0  0  0
 14 13  1  0  0  0  0
 15  9  2  0  0  0  0
 16 18  1  6  0  0  0
 16 26  1  0  0  0  0
 19 31  1  0  0  0  0
 19 11  2  0  0  0  0
 20 23  2  0  0  0  0
 21 14  2  0  0  0  0
 21 15  1  0  0  0  0
 22  6  1  0  0  0  0
 22  2  1  1  0  0  0
 22 16  1  0  0  0  0
 23 28  1  0  0  0  0
 25 28  2  0  0  0  0
 26 11  1  0  0  0  0
 27 20  1  0  0  0  0
 27  4  2  0  0  0  0
 28 24  1  0  0  0  0
 29 20  1  0  0  0  0
 30 34  1  0  0  0  0
 31 30  2  0  0  0  0
 33 37  1  0  0  0  0
 33 36  1  0  0  0  0
 34 33  1  0  0  0  0
 35 32  1  0  0  0  0
 36 32  1  0  0  0  0
 37 35  1  0  0  0  0
 38 34  2  0  0  0  0
 39 40  1  0  0  0  0
 39 27  1  0  0  0  0
 40 41  1  0  0  0  0
 42 41  1  0  0  0  0
 43 45  1  0  0  0  0
 44 43  2  0  0  0  0
 44 42  1  0  0  0  0
 45 46  1  0  0  0  0
 46 48  1  0  0  0  0
 48 47  1  0  0  0  0
 49 48  2  0  0  0  0
M  END
>  <MODEL>
3

>  <REMARK>
 VINA RESULT:      -7.1      1.837      2.448
  Name = 
  10 active torsions:
  status: ('A' for Active; 'I' for Inactive)
    1  A    between atoms: C_8  and  C_24
    2  A    between atoms: C_8  and  O_32
    3  A    between atoms: C_9  and  C_14
    4  A    between atoms: C_9  and  C_31
    5  A    between atoms: N_11  and  C_16
    6  A    between atoms: C_15  and  C_17
    7  A    between atoms: C_17  and  C_24
    8  A    between atoms: C_31  and  C_44
    9  A    between atoms: O_32  and  C_45
   10  A    between atoms: C_34  and  C_46
                            x       y       z     vdW  Elec       q    Type
                         _______ _______ _______ _____ _____    ______ ____

>  <TORSDO>
F 10

$$$$
=
 OpenBabel11032419393D

 49 55  0  0  1  0  0  0  0  0999 V2000
  191.9290  174.1060  135.8620 S   0  0  0  0  0  0  0  0  0  0  0  0
  187.3120  176.0470  134.9400 O   0  0  0  0  0  0  0  0  0  0  0  0
  190.8770  176.2310  136.9830 N   0  0  0  0  0  0  0  0  0  0  0  0
  183.8430  179.3470  139.7710 C   0  0  0  0  0  3  0  0  0  0  0  0
  188.2110  178.7030  141.3840 C   0  0  0  0  0  2  0  0  0  0  0  0
  186.0710  175.9220  137.0250 C   0  0  1  0  0  3  0  0  0  0  0  0
  190.4430  174.9490  136.4570 C   0  0  1  0  0  3  0  0  0  0  0  0
  192.9640  175.4900  136.4230 C   0  0  2  0  0  3  0  0  0  0  0  0
  190.2020  176.8590  138.0760 C   0  0  0  0  0  0  0  0  0  0  0  0
  192.1400  176.6770  136.5910 N   0  0  0  0  0  2  0  0  0  0  0  0
  185.9170  173.7350  135.8420 C   0  0  0  0  0  3  0  0  0  0  0  0
  189.7970  176.1100  139.1460 N   0  0  0  0  0  0  0  0  0  0  0  0
  189.1780  176.6820  140.2180 C   0  0  0  0  0  3  0  0  0  0  0  0
  188.9260  178.0590  140.2360 C   0  0  0  0  0  0  0  0  0  0  0  0
  189.9890  178.2470  138.0670 C   0  0  0  0  0  3  0  0  0  0  0  0
  188.0580  175.0780  135.6390 C   0  0  1  0  0  0  0  0  0  0  0  0
  194.0590  175.7510  135.4090 C   0  0  0  0  0  1  0  0  0  0  0  0
  189.5240  175.1790  135.2620 C   0  0  0  0  0  2  0  0  0  0  0  0
  185.3000  174.7200  136.4950 C   0  0  0  0  0  0  0  0  0  0  0  0
  185.8620  178.2800  140.5890 C   0  0  0  0  0  0  0  0  0  0  0  0
  189.3400  178.8440  139.1500 C   0  0  0  0  0  3  0  0  0  0  0  0
  187.4210  176.2210  136.3400 C   0  0  1  0  0  3  0  0  0  0  0  0
  186.0010  177.6380  139.3540 C   0  0  0  0  0  3  0  0  0  0  0  0
  185.2420  177.2050  136.9810 C   0  0  0  0  0  2  0  0  0  0  0  0
  183.9950  178.7030  138.5410 C   0  0  0  0  0  3  0  0  0  0  0  0
  187.3940  173.7010  135.6050 C   0  0  0  0  0  2  0  0  0  0  0  0
  184.7740  179.1410  140.8050 C   0  0  0  0  0  0  0  0  0  0  0  0
  185.0680  177.8370  138.3290 C   0  0  0  0  0  0  0  0  0  0  0  0
  186.8700  178.0250  141.6710 C   0  0  0  0  0  2  0  0  0  0  0  0
  183.0930  173.8740  135.9570 N   0  0  0  0  0  0  0  0  0  0  0  0
  183.8720  174.5110  136.7750 C   0  0  0  0  0  3  0  0  0  0  0  0
  180.7270  170.0800  135.3330 C   0  0  0  0  0  2  0  0  0  0  0  0
  181.1120  172.3180  136.0310 N   0  0  0  0  0  0  0  0  0  0  0  0
  181.6980  173.6290  136.1800 C   0  0  0  0  0  0  0  0  0  0  0  0
  179.5620  170.5360  136.2040 C   0  0  0  0  0  2  0  0  0  0  0  0
  181.7560  171.1860  135.3750 C   0  0  0  0  0  2  0  0  0  0  0  0
  179.7670  172.0130  136.4800 C   0  0  0  0  0  2  0  0  0  0  0  0
  180.9440  174.6350  136.4910 N   0  0  0  0  0  2  0  0  0  0  0  0
  184.6280  179.7720  142.0450 O   0  0  0  0  0  0  0  0  0  0  0  0
  183.6850  179.3440  143.0200 C   0  0  0  0  0  2  0  0  0  0  0  0
  184.2450  179.5620  144.4160 C   0  0  0  0  0  2  0  0  0  0  0  0
  185.1830  178.4250  144.7780 C   0  0  0  0  0  2  0  0  0  0  0  0
  186.8750  178.1650  146.5800 C   0  0  0  0  0  3  0  0  0  0  0  0
  185.6920  178.6270  146.1750 C   0  0  0  0  0  3  0  0  0  0  0  0
  187.8030  177.4120  145.6740 C   0  0  0  0  0  2  0  0  0  0  0  0
  189.2410  177.5500  146.1370 C   0  0  0  0  0  2  0  0  0  0  0  0
  189.7040  176.5310  143.8690 N   0  0  0  0  0  1  0  0  0  0  0  0
  190.1920  177.1410  145.0640 C   0  0  0  0  0  0  0  0  0  0  0  0
  191.4240  177.3370  145.2100 O   0  0  0  0  0  0  0  0  0  0  0  0
  1  8  1  0  0  0  0
  1  7  1  0  0  0  0
  2 16  1  0  0  0  0
  3  9  1  0  0  0  0
  4 27  1  0  0  0  0
  5 29  1  0  0  0  0
  6 24  1  6  0  0  0
  7 18  1  6  0  0  0
  7  3  1  0  0  0  0
  8 17  1  6  0  0  0
  8 10  1  0  0  0  0
  9 12  1  0  0  0  0
 10  3  1  0  0  0  0
 11 19  2  0  0  0  0
 12 13  2  0  0  0  0
 13 14  1  0  0  0  0
 14  5  1  0  0  0  0
 15  9  2  0  0  0  0
 15 21  1  0  0  0  0
 16 18  1  6  0  0  0
 16 22  1  0  0  0  0
 19 31  1  0  0  0  0
 19  6  1  0  0  0  0
 20 27  2  0  0  0  0
 20 29  1  0  0  0  0
 21 14  2  0  0  0  0
 22  2  1  6  0  0  0
 22  6  1  0  0  0  0
 23 20  1  0  0  0  0
 24 28  1  0  0  0  0
 25  4  2  0  0  0  0
 26 16  1  0  0  0  0
 26 11  1  0  0  0  0
 27 39  1  0  0  0  0
 28 25  1  0  0  0  0
 28 23  2  0  0  0  0
 30 34  1  0  0  0  0
 30 31  2  0  0  0  0
 32 36  1  0  0  0  0
 32 35  1  0  0  0  0
 33 34  1  0  0  0  0
 33 37  1  0  0  0  0
 34 38  2  0  0  0  0
 35 37  1  0  0  0  0
 36 33  1  0  0  0  0
 39 40  1  0  0  0  0
 40 41  1  0  0  0  0
 41 42  1  0  0  0  0
 42 44  1  0  0  0  0
 44 43  2  0  0  0  0
 45 46  1  0  0  0  0
 45 43  1  0  0  0  0
 47 48  1  0  0  0  0
 48 49  2  0  0  0  0
 48 46  1  0  0  0  0
M  END
>  <MODEL>
4

>  <REMARK>
 VINA RESULT:      -6.8      3.481      9.835
  Name = 
  10 active torsions:
  status: ('A' for Active; 'I' for Inactive)
    1  A    between atoms: C_8  and  C_24
    2  A    between atoms: C_8  and  O_32
    3  A    between atoms: C_9  and  C_14
    4  A    between atoms: C_9  and  C_31
    5  A    between atoms: N_11  and  C_16
    6  A    between atoms: C_15  and  C_17
    7  A    between atoms: C_17  and  C_24
    8  A    between atoms: C_31  and  C_44
    9  A    between atoms: O_32  and  C_45
   10  A    between atoms: C_34  and  C_46
                            x       y       z     vdW  Elec       q    Type
                         _______ _______ _______ _____ _____    ______ ____

>  <TORSDO>
F 10

$$$$
=
 OpenBabel11032419393D

 49 55  0  0  1  0  0  0  0  0999 V2000
  191.6120  174.8270  136.5260 S   0  0  0  0  0  0  0  0  0  0  0  0
  187.4210  177.7190  136.4580 O   0  0  0  0  0  0  0  0  0  0  0  0
  190.9110  176.6020  138.3250 N   0  0  0  0  0  0  0  0  0  0  0  0
  184.4440  179.7550  142.2260 C   0  0  0  0  0  3  0  0  0  0  0  0
  188.5950  177.8770  143.3840 C   0  0  0  0  0  2  0  0  0  0  0  0
  186.1240  177.1170  138.4220 C   0  0  1  0  0  3  0  0  0  0  0  0
  190.2780  175.6630  137.4170 C   0  0  1  0  0  3  0  0  0  0  0  0
  192.8540  175.7480  137.4810 C   0  0  2  0  0  3  0  0  0  0  0  0
  190.3260  176.9340  139.5880 C   0  0  0  0  0  0  0  0  0  0  0  0
  192.2420  176.9310  138.0630 N   0  0  0  0  0  2  0  0  0  0  0  0
  185.6280  175.5110  136.5840 C   0  0  0  0  0  3  0  0  0  0  0  0
  189.7710  175.9510  140.3590 N   0  0  0  0  0  0  0  0  0  0  0  0
  189.2320  176.2290  141.5810 C   0  0  0  0  0  3  0  0  0  0  0  0
  189.2190  177.5420  142.0650 C   0  0  0  0  0  0  0  0  0  0  0  0
  190.3540  178.2600  140.0490 C   0  0  0  0  0  3  0  0  0  0  0  0
  187.9720  176.4610  136.7690 C   0  0  1  0  0  0  0  0  0  0  0  0
  194.0040  176.1420  136.5760 C   0  0  0  0  0  1  0  0  0  0  0  0
  189.4430  176.4310  136.3990 C   0  0  0  0  0  2  0  0  0  0  0  0
  185.1720  176.3110  137.5480 C   0  0  0  0  0  0  0  0  0  0  0  0
  186.2300  178.1490  142.5730 C   0  0  0  0  0  0  0  0  0  0  0  0
  189.7890  178.5620  141.2900 C   0  0  0  0  0  3  0  0  0  0  0  0
  187.5220  177.3940  137.8310 C   0  0  1  0  0  3  0  0  0  0  0  0
  186.2890  177.9430  141.1910 C   0  0  0  0  0  3  0  0  0  0  0  0
  185.5280  178.4630  138.8360 C   0  0  0  0  0  2  0  0  0  0  0  0
  184.5150  179.5430  140.8470 C   0  0  0  0  0  3  0  0  0  0  0  0
  187.0830  175.3080  136.3000 C   0  0  0  0  0  2  0  0  0  0  0  0
  185.3000  179.0610  143.1000 C   0  0  0  0  0  0  0  0  0  0  0  0
  185.4300  178.6280  140.3230 C   0  0  0  0  0  0  0  0  0  0  0  0
  187.1520  177.3810  143.4740 C   0  0  0  0  0  2  0  0  0  0  0  0
  183.1400  175.2280  138.3060 N   0  0  0  0  0  0  0  0  0  0  0  0
  183.7230  176.2660  137.7900 C   0  0  0  0  0  3  0  0  0  0  0  0
  180.0690  172.4840  136.4590 C   0  0  0  0  0  2  0  0  0  0  0  0
  180.9040  174.1160  137.9690 N   0  0  0  0  0  0  0  0  0  0  0  0
  181.7350  175.1290  138.5750 C   0  0  0  0  0  0  0  0  0  0  0  0
  179.0520  172.6930  137.5750 C   0  0  0  0  0  2  0  0  0  0  0  0
  181.2900  173.2920  136.8300 C   0  0  0  0  0  2  0  0  0  0  0  0
  179.5470  173.8580  138.4120 C   0  0  0  0  0  2  0  0  0  0  0  0
  181.2020  176.0060  139.3640 N   0  0  0  0  0  2  0  0  0  0  0  0
  185.2330  179.2560  144.4830 O   0  0  0  0  0  0  0  0  0  0  0  0
  184.3270  178.5450  145.3180 C   0  0  0  0  0  2  0  0  0  0  0  0
  184.9250  178.3670  146.7030 C   0  0  0  0  0  2  0  0  0  0  0  0
  186.3560  177.8730  146.5860 C   0  0  0  0  0  2  0  0  0  0  0  0
  188.3710  177.9900  148.0370 C   0  0  0  0  0  3  0  0  0  0  0  0
  187.1820  178.4760  147.6840 C   0  0  0  0  0  3  0  0  0  0  0  0
  188.9910  176.8010  147.3630 C   0  0  0  0  0  2  0  0  0  0  0  0
  190.1320  177.2280  146.4580 C   0  0  0  0  0  2  0  0  0  0  0  0
  192.0250  175.6320  145.9400 N   0  0  0  0  0  1  0  0  0  0  0  0
  191.4030  176.5490  146.8410 C   0  0  0  0  0  0  0  0  0  0  0  0
  191.9280  176.7870  147.9570 O   0  0  0  0  0  0  0  0  0  0  0  0
  1  7  1  0  0  0  0
  1  8  1  0  0  0  0
  2 16  1  0  0  0  0
  3  9  1  0  0  0  0
  4 27  1  0  0  0  0
  5 29  1  0  0  0  0
  6 24  1  6  0  0  0
  7 18  1  6  0  0  0
  7  3  1  0  0  0  0
  8 17  1  6  0  0  0
  8 10  1  0  0  0  0
  9 15  2  0  0  0  0
  9 12  1  0  0  0  0
 10  3  1  0  0  0  0
 11 19  2  0  0  0  0
 12 13  2  0  0  0  0
 13 14  1  0  0  0  0
 14  5  1  0  0  0  0
 15 21  1  0  0  0  0
 16 26  1  6  0  0  0
 16 22  1  0  0  0  0
 18 16  1  0  0  0  0
 19 31  1  0  0  0  0
 19  6  1  0  0  0  0
 20 27  2  0  0  0  0
 20 29  1  0  0  0  0
 21 14  2  0  0  0  0
 22  2  1  6  0  0  0
 22  6  1  0  0  0  0
 23 20  1  0  0  0  0
 24 28  1  0  0  0  0
 25  4  2  0  0  0  0
 26 11  1  0  0  0  0
 27 39  1  0  0  0  0
 28 25  1  0  0  0  0
 28 23  2  0  0  0  0
 30 34  1  0  0  0  0
 31 30  2  0  0  0  0
 32 36  1  0  0  0  0
 32 35  1  0  0  0  0
 33 37  1  0  0  0  0
 33 34  1  0  0  0  0
 34 38  2  0  0  0  0
 35 37  1  0  0  0  0
 36 33  1  0  0  0  0
 39 40  1  0  0  0  0
 40 41  1  0  0  0  0
 42 41  1  0  0  0  0
 42 44  1  0  0  0  0
 44 43  2  0  0  0  0
 45 43  1  0  0  0  0
 46 48  1  0  0  0  0
 46 45  1  0  0  0  0
 47 48  1  0  0  0  0
 48 49  2  0  0  0  0
M  END
>  <MODEL>
5

>  <REMARK>
 VINA RESULT:      -6.2      3.363      9.641
  Name = 
  10 active torsions:
  status: ('A' for Active; 'I' for Inactive)
    1  A    between atoms: C_8  and  C_24
    2  A    between atoms: C_8  and  O_32
    3  A    between atoms: C_9  and  C_14
    4  A    between atoms: C_9  and  C_31
    5  A    between atoms: N_11  and  C_16
    6  A    between atoms: C_15  and  C_17
    7  A    between atoms: C_17  and  C_24
    8  A    between atoms: C_31  and  C_44
    9  A    between atoms: O_32  and  C_45
   10  A    between atoms: C_34  and  C_46
                            x       y       z     vdW  Elec       q    Type
                         _______ _______ _______ _____ _____    ______ ____

>  <TORSDO>
F 10

$$$$
=
 OpenBabel11032419393D

 49 55  0  0  1  0  0  0  0  0999 V2000
  190.2350  177.7590  147.6410 S   0  0  0  0  0  0  0  0  0  0  0  0
  185.7580  176.7700  145.4260 O   0  0  0  0  0  0  0  0  0  0  0  0
  189.8580  176.9700  145.1680 N   0  0  0  0  0  0  0  0  0  0  0  0
  184.8310  177.7360  138.7560 C   0  0  0  0  0  3  0  0  0  0  0  0
  189.4360  178.1570  139.6010 C   0  0  0  0  0  2  0  0  0  0  0  0
  185.5200  178.3470  143.5930 C   0  0  1  0  0  3  0  0  0  0  0  0
  189.1840  177.7780  146.1690 C   0  0  1  0  0  3  0  0  0  0  0  0
  191.4710  176.7510  146.7700 C   0  0  2  0  0  3  0  0  0  0  0  0
  189.7430  177.2570  143.7720 C   0  0  0  0  0  0  0  0  0  0  0  0
  190.8520  176.1030  145.6250 N   0  0  0  0  0  2  0  0  0  0  0  0
  184.7790  179.4270  145.7120 C   0  0  0  0  0  3  0  0  0  0  0  0
  189.7990  178.5520  143.3360 N   0  0  0  0  0  0  0  0  0  0  0  0
  189.7220  178.8570  142.0090 C   0  0  0  0  0  3  0  0  0  0  0  0
  189.5630  177.8420  141.0590 C   0  0  0  0  0  0  0  0  0  0  0  0
  189.6080  176.2080  142.8470 C   0  0  0  0  0  3  0  0  0  0  0  0
  186.6860  177.7600  145.8010 C   0  0  1  0  0  0  0  0  0  0  0  0
  192.0400  175.7130  147.7160 C   0  0  0  0  0  1  0  0  0  0  0  0
  187.8550  177.1260  146.5320 C   0  0  0  0  0  2  0  0  0  0  0  0
  184.5430  179.1680  144.4250 C   0  0  0  0  0  0  0  0  0  0  0  0
  186.9560  178.5770  139.5690 C   0  0  0  0  0  0  0  0  0  0  0  0
  189.5100  176.5080  141.4870 C   0  0  0  0  0  3  0  0  0  0  0  0
  186.4610  177.4080  144.3760 C   0  0  1  0  0  3  0  0  0  0  0  0
  186.5270  178.3440  140.8790 C   0  0  0  0  0  3  0  0  0  0  0  0
  184.8100  177.5030  142.5350 C   0  0  0  0  0  2  0  0  0  0  0  0
  184.4150  177.5040  140.0690 C   0  0  0  0  0  3  0  0  0  0  0  0
  186.0110  178.9770  146.4320 C   0  0  0  0  0  2  0  0  0  0  0  0
  186.1030  178.2740  138.4950 C   0  0  0  0  0  0  0  0  0  0  0  0
  185.2560  177.8170  141.1380 C   0  0  0  0  0  0  0  0  0  0  0  0
  188.3170  179.1640  139.3320 C   0  0  0  0  0  2  0  0  0  0  0  0
  182.3410  179.1490  143.4140 N   0  0  0  0  0  0  0  0  0  0  0  0
  183.3640  179.8220  143.8410 C   0  0  0  0  0  3  0  0  0  0  0  0
  180.8780  179.0380  139.1450 C   0  0  0  0  0  2  0  0  0  0  0  0
  180.7770  179.5100  141.4700 N   0  0  0  0  0  0  0  0  0  0  0  0
  181.1590  179.7300  142.8460 C   0  0  0  0  0  0  0  0  0  0  0  0
  179.4520  179.4360  139.5090 C   0  0  0  0  0  2  0  0  0  0  0  0
  181.6470  178.9520  140.4420 C   0  0  0  0  0  2  0  0  0  0  0  0
  179.4760  179.8900  140.9560 C   0  0  0  0  0  2  0  0  0  0  0  0
  180.4390  180.5030  143.5930 N   0  0  0  0  0  2  0  0  0  0  0  0
  186.5290  178.5200  137.1860 O   0  0  0  0  0  0  0  0  0  0  0  0
  186.9340  177.4830  136.3000 C   0  0  0  0  0  2  0  0  0  0  0  0
  188.1840  177.9020  135.5450 C   0  0  0  0  0  2  0  0  0  0  0  0
  189.3340  176.9770  135.9000 C   0  0  0  0  0  2  0  0  0  0  0  0
  189.6190  174.9180  137.2630 C   0  0  0  0  0  3  0  0  0  0  0  0
  188.8150  175.8270  136.7110 C   0  0  0  0  0  3  0  0  0  0  0  0
  191.1120  174.9710  137.1280 C   0  0  0  0  0  2  0  0  0  0  0  0
  191.7410  175.6280  138.3440 C   0  0  0  0  0  2  0  0  0  0  0  0
  193.4930  176.2880  136.6430 N   0  0  0  0  0  1  0  0  0  0  0  0
  192.9750  176.3780  137.9700 C   0  0  0  0  0  0  0  0  0  0  0  0
  193.5550  177.0930  138.8240 O   0  0  0  0  0  0  0  0  0  0  0  0
  2 16  1  0  0  0  0
  3 10  1  0  0  0  0
  3  7  1  0  0  0  0
  4 25  1  0  0  0  0
  5 14  1  0  0  0  0
  6 24  1  6  0  0  0
  6 22  1  0  0  0  0
  6 19  1  0  0  0  0
  7 18  1  1  0  0  0
  7  1  1  0  0  0  0
  8  1  1  0  0  0  0
  8 17  1  1  0  0  0
  9  3  1  0  0  0  0
 10  8  1  0  0  0  0
 11 26  1  0  0  0  0
 12  9  1  0  0  0  0
 13 12  2  0  0  0  0
 14 21  2  0  0  0  0
 14 13  1  0  0  0  0
 15  9  2  0  0  0  0
 16 26  1  1  0  0  0
 16 18  1  0  0  0  0
 19 11  2  0  0  0  0
 20 23  2  0  0  0  0
 21 15  1  0  0  0  0
 22  2  1  1  0  0  0
 22 16  1  0  0  0  0
 23 28  1  0  0  0  0
 25 28  2  0  0  0  0
 27  4  2  0  0  0  0
 27 20  1  0  0  0  0
 28 24  1  0  0  0  0
 29 20  1  0  0  0  0
 29  5  1  0  0  0  0
 30 31  2  0  0  0  0
 31 19  1  0  0  0  0
 32 35  1  0  0  0  0
 32 36  1  0  0  0  0
 33 34  1  0  0  0  0
 34 30  1  0  0  0  0
 34 38  2  0  0  0  0
 35 37  1  0  0  0  0
 36 33  1  0  0  0  0
 37 33  1  0  0  0  0
 39 27  1  0  0  0  0
 40 39  1  0  0  0  0
 41 42  1  0  0  0  0
 41 40  1  0  0  0  0
 42 44  1  0  0  0  0
 44 43  2  0  0  0  0
 45 43  1  0  0  0  0
 45 46  1  0  0  0  0
 47 48  1  0  0  0  0
 48 46  1  0  0  0  0
 48 49  2  0  0  0  0
M  END
>  <MODEL>
6

>  <REMARK>
 VINA RESULT:      -6.0      3.413      8.134
  Name = 
  10 active torsions:
  status: ('A' for Active; 'I' for Inactive)
    1  A    between atoms: C_8  and  C_24
    2  A    between atoms: C_8  and  O_32
    3  A    between atoms: C_9  and  C_14
    4  A    between atoms: C_9  and  C_31
    5  A    between atoms: N_11  and  C_16
    6  A    between atoms: C_15  and  C_17
    7  A    between atoms: C_17  and  C_24
    8  A    between atoms: C_31  and  C_44
    9  A    between atoms: O_32  and  C_45
   10  A    between atoms: C_34  and  C_46
                            x       y       z     vdW  Elec       q    Type
                         _______ _______ _______ _____ _____    ______ ____

>  <TORSDO>
F 10

$$$$
=
 OpenBabel11032419393D

 49 55  0  0  1  0  0  0  0  0999 V2000
  191.3310  175.4110  136.9170 S   0  0  0  0  0  0  0  0  0  0  0  0
  187.3640  178.5590  137.4400 O   0  0  0  0  0  0  0  0  0  0  0  0
  190.7760  176.8860  139.0130 N   0  0  0  0  0  0  0  0  0  0  0  0
  184.5860  179.7540  143.5330 C   0  0  0  0  0  3  0  0  0  0  0  0
  188.5960  177.4110  144.2620 C   0  0  0  0  0  2  0  0  0  0  0  0
  186.0400  177.7150  139.2940 C   0  0  1  0  0  3  0  0  0  0  0  0
  190.0690  176.1690  137.9670 C   0  0  1  0  0  3  0  0  0  0  0  0
  192.6450  176.0580  137.9940 C   0  0  2  0  0  3  0  0  0  0  0  0
  190.2260  177.0310  140.3250 C   0  0  0  0  0  0  0  0  0  0  0  0
  192.1250  177.1610  138.7850 N   0  0  0  0  0  2  0  0  0  0  0  0
  185.4150  176.4970  137.2130 C   0  0  0  0  0  3  0  0  0  0  0  0
  189.6050  175.9690  140.9240 N   0  0  0  0  0  0  0  0  0  0  0  0
  189.0970  176.0650  142.1860 C   0  0  0  0  0  3  0  0  0  0  0  0
  189.1840  177.2710  142.8920 C   0  0  0  0  0  0  0  0  0  0  0  0
  190.3540  178.2500  141.0110 C   0  0  0  0  0  3  0  0  0  0  0  0
  187.8230  177.2300  137.5150 C   0  0  1  0  0  0  0  0  0  0  0  0
  193.8130  176.5230  137.1490 C   0  0  0  0  0  1  0  0  0  0  0  0
  189.2850  177.1620  137.1160 C   0  0  0  0  0  2  0  0  0  0  0  0
  185.0260  177.1450  138.3110 C   0  0  0  0  0  0  0  0  0  0  0  0
  186.2510  177.9900  143.5590 C   0  0  0  0  0  0  0  0  0  0  0  0
  189.8220  178.3680  142.2970 C   0  0  0  0  0  3  0  0  0  0  0  0
  187.4500  177.9920  138.7330 C   0  0  1  0  0  3  0  0  0  0  0  0
  186.2850  178.0260  142.1610 C   0  0  0  0  0  3  0  0  0  0  0  0
  185.5480  179.0060  139.9490 C   0  0  0  0  0  2  0  0  0  0  0  0
  184.6320  179.7840  142.1380 C   0  0  0  0  0  3  0  0  0  0  0  0
  186.8490  176.2440  136.8690 C   0  0  0  0  0  2  0  0  0  0  0  0
  185.3940  178.8580  144.2550 C   0  0  0  0  0  0  0  0  0  0  0  0
  185.4730  178.9130  141.4430 C   0  0  0  0  0  0  0  0  0  0  0  0
  187.1200  177.0110  144.2920 C   0  0  0  0  0  2  0  0  0  0  0  0
  182.9210  178.2650  138.7500 N   0  0  0  0  0  0  0  0  0  0  0  0
  183.5790  177.1610  138.5710 C   0  0  0  0  0  3  0  0  0  0  0  0
  180.7380  178.9230  142.6460 C   0  0  0  0  0  2  0  0  0  0  0  0
  180.9730  178.6700  140.2960 N   0  0  0  0  0  0  0  0  0  0  0  0
  181.5100  178.3460  138.9950 C   0  0  0  0  0  0  0  0  0  0  0  0
  179.4320  179.3260  141.9700 C   0  0  0  0  0  2  0  0  0  0  0  0
  181.7330  178.6600  141.5390 C   0  0  0  0  0  2  0  0  0  0  0  0
  179.5720  178.9860  140.4990 C   0  0  0  0  0  2  0  0  0  0  0  0
  180.7050  178.0830  138.0170 N   0  0  0  0  0  2  0  0  0  0  0  0
  185.3520  178.8110  145.6520 O   0  0  0  0  0  0  0  0  0  0  0  0
  185.4750  177.5980  146.3860 C   0  0  0  0  0  2  0  0  0  0  0  0
  186.1570  177.8630  147.7180 C   0  0  0  0  0  2  0  0  0  0  0  0
  187.4410  178.6390  147.4930 C   0  0  0  0  0  2  0  0  0  0  0  0
  189.4410  177.5280  148.4670 C   0  0  0  0  0  3  0  0  0  0  0  0
  188.4000  178.3490  148.6100 C   0  0  0  0  0  3  0  0  0  0  0  0
  189.7470  176.8280  147.1760 C   0  0  0  0  0  2  0  0  0  0  0  0
  191.2370  176.5750  147.0400 C   0  0  0  0  0  2  0  0  0  0  0  0
  191.8590  175.6040  144.7880 N   0  0  0  0  0  1  0  0  0  0  0  0
  191.6830  176.7460  145.6270 C   0  0  0  0  0  0  0  0  0  0  0  0
  191.8990  177.8970  145.1730 O   0  0  0  0  0  0  0  0  0  0  0  0
  1  7  1  0  0  0  0
  1  8  1  0  0  0  0
  2 16  1  0  0  0  0
  3  9  1  0  0  0  0
  4 27  1  0  0  0  0
  5 29  1  0  0  0  0
  6 24  1  6  0  0  0
  7 18  1  6  0  0  0
  7  3  1  0  0  0  0
  8 17  1  6  0  0  0
  8 10  1  0  0  0  0
  9 12  2  0  0  0  0
  9 15  1  0  0  0  0
 10  3  1  0  0  0  0
 11 19  2  0  0  0  0
 12 13  1  0  0  0  0
 13 14  2  0  0  0  0
 14  5  1  0  0  0  0
 15 21  2  0  0  0  0
 16 26  1  6  0  0  0
 16 22  1  0  0  0  0
 18 16  1  0  0  0  0
 19 31  1  0  0  0  0
 19  6  1  0  0  0  0
 20 27  2  0  0  0  0
 20 29  1  0  0  0  0
 21 14  1  0  0  0  0
 22  2  1  6  0  0  0
 22  6  1  0  0  0  0
 23 20  1  0  0  0  0
 24 28  1  0  0  0  0
 25  4  2  0  0  0  0
 26 11  1  0  0  0  0
 27 39  1  0  0  0  0
 28 25  1  0  0  0  0
 28 23  2  0  0  0  0
 30 34  1  0  0  0  0
 31 30  2  0  0  0  0
 33 37  1  0  0  0  0
 33 36  1  0  0  0  0
 34 33  1  0  0  0  0
 35 32  1  0  0  0  0
 36 32  1  0  0  0  0
 37 35  1  0  0  0  0
 38 34  2  0  0  0  0
 39 40  1  0  0  0  0
 40 41  1  0  0  0  0
 42 41  1  0  0  0  0
 42 44  1  0  0  0  0
 43 44  2  0  0  0  0
 45 43  1  0  0  0  0
 46 45  1  0  0  0  0
 47 48  1  0  0  0  0
 48 46  1  0  0  0  0
 49 48  2  0  0  0  0
M  END
>  <MODEL>
7

>  <REMARK>
 VINA RESULT:      -5.9      3.174      9.217
  Name = 
  10 active torsions:
  status: ('A' for Active; 'I' for Inactive)
    1  A    between atoms: C_8  and  C_24
    2  A    between atoms: C_8  and  O_32
    3  A    between atoms: C_9  and  C_14
    4  A    between atoms: C_9  and  C_31
    5  A    between atoms: N_11  and  C_16
    6  A    between atoms: C_15  and  C_17
    7  A    between atoms: C_17  and  C_24
    8  A    between atoms: C_31  and  C_44
    9  A    between atoms: O_32  and  C_45
   10  A    between atoms: C_34  and  C_46
                            x       y       z     vdW  Elec       q    Type
                         _______ _______ _______ _____ _____    ______ ____

>  <TORSDO>
F 10

$$$$
=
 OpenBabel11032419393D

 49 55  0  0  1  0  0  0  0  0999 V2000
  180.6860  178.6550  139.8800 S   0  0  0  0  0  0  0  0  0  0  0  0
  185.0710  180.0410  142.0660 O   0  0  0  0  0  0  0  0  0  0  0  0
  183.0330  178.7900  138.7190 N   0  0  0  0  0  0  0  0  0  0  0  0
  191.0210  177.5070  139.9580 C   0  0  0  0  0  3  0  0  0  0  0  0
  187.7690  176.2360  136.8110 C   0  0  0  0  0  2  0  0  0  0  0  0
  186.5540  178.1220  141.9370 C   0  0  1  0  0  3  0  0  0  0  0  0
  182.4800  178.4810  140.0260 C   0  0  1  0  0  3  0  0  0  0  0  0
  180.8470  179.0490  138.1130 C   0  0  2  0  0  3  0  0  0  0  0  0
  184.2280  178.1610  138.2440 C   0  0  0  0  0  0  0  0  0  0  0  0
  182.2070  179.4810  137.8330 N   0  0  0  0  0  2  0  0  0  0  0  0
  185.0770  177.8890  143.9290 C   0  0  0  0  0  3  0  0  0  0  0  0
  184.4200  176.8230  138.4490 N   0  0  0  0  0  0  0  0  0  0  0  0
  185.5320  176.1870  137.9820 C   0  0  0  0  0  3  0  0  0  0  0  0
  186.5190  176.9040  137.2960 C   0  0  0  0  0  0  0  0  0  0  0  0
  185.1840  178.9110  137.5390 C   0  0  0  0  0  3  0  0  0  0  0  0
  184.1460  179.0010  141.8500 C   0  0  1  0  0  0  0  0  0  0  0  0
  179.8630  180.1400  137.7420 C   0  0  0  0  0  1  0  0  0  0  0  0
  182.9710  179.5100  141.0370 C   0  0  0  0  0  2  0  0  0  0  0  0
  186.3040  177.8280  143.4100 C   0  0  0  0  0  0  0  0  0  0  0  0
  189.0980  176.4370  138.9370 C   0  0  0  0  0  0  0  0  0  0  0  0
  186.3370  178.2760  137.0720 C   0  0  0  0  0  3  0  0  0  0  0  0
  185.4920  178.9850  141.2250 C   0  0  1  0  0  3  0  0  0  0  0  0
  188.2660  177.1230  139.8270 C   0  0  0  0  0  3  0  0  0  0  0  0
  187.9120  178.7830  141.7030 C   0  0  0  0  0  2  0  0  0  0  0  0
  190.1790  178.1900  140.8390 C   0  0  0  0  0  3  0  0  0  0  0  0
  183.8570  178.2090  143.1250 C   0  0  0  0  0  2  0  0  0  0  0  0
  190.4880  176.6260  139.0010 C   0  0  0  0  0  0  0  0  0  0  0  0
  188.7980  177.9940  140.7860 C   0  0  0  0  0  0  0  0  0  0  0  0
  188.4920  175.4960  137.9370 C   0  0  0  0  0  2  0  0  0  0  0  0
  187.3960  177.6590  145.5670 N   0  0  0  0  0  0  0  0  0  0  0  0
  187.3600  177.3430  144.3100 C   0  0  0  0  0  3  0  0  0  0  0  0
  191.6230  176.2870  144.7710 C   0  0  0  0  0  2  0  0  0  0  0  0
  189.7440  176.9050  146.0870 N   0  0  0  0  0  0  0  0  0  0  0  0
  188.3930  177.2090  146.4960 C   0  0  0  0  0  0  0  0  0  0  0  0
  192.0660  176.4600  146.2190 C   0  0  0  0  0  2  0  0  0  0  0  0
  190.1780  176.7260  144.7070 C   0  0  0  0  0  2  0  0  0  0  0  0
  190.8120  176.6820  147.0430 C   0  0  0  0  0  2  0  0  0  0  0  0
  188.0460  177.0430  147.7310 N   0  0  0  0  0  2  0  0  0  0  0  0
  191.3200  175.9280  138.1190 O   0  0  0  0  0  0  0  0  0  0  0  0
  191.6300  176.4040  136.8140 C   0  0  0  0  0  2  0  0  0  0  0  0
  192.9920  175.8890  136.3820 C   0  0  0  0  0  2  0  0  0  0  0  0
  193.5140  174.8940  137.4030 C   0  0  0  0  0  2  0  0  0  0  0  0
  194.8570  172.8190  137.1330 C   0  0  0  0  0  3  0  0  0  0  0  0
  193.8730  173.6130  136.7090 C   0  0  0  0  0  3  0  0  0  0  0  0
  195.6850  173.1350  138.3430 C   0  0  0  0  0  2  0  0  0  0  0  0
  197.1660  173.0100  138.0320 C   0  0  0  0  0  2  0  0  0  0  0  0
  197.9160  174.3680  136.0330 N   0  0  0  0  0  1  0  0  0  0  0  0
  197.6970  174.2720  137.4410 C   0  0  0  0  0  0  0  0  0  0  0  0
  197.9490  175.2530  138.1830 O   0  0  0  0  0  0  0  0  0  0  0  0
  1  7  1  0  0  0  0
  3  7  1  0  0  0  0
  4 25  1  0  0  0  0
  5 14  1  0  0  0  0
  5 29  1  0  0  0  0
  6 24  1  1  0  0  0
  6 19  1  0  0  0  0
  7 18  1  1  0  0  0
  8 17  1  1  0  0  0
  8  1  1  0  0  0  0
  9 12  1  0  0  0  0
  9  3  1  0  0  0  0
 10  8  1  0  0  0  0
 10  3  1  0  0  0  0
 13 12  2  0  0  0  0
 14 13  1  0  0  0  0
 15  9  2  0  0  0  0
 16 18  1  6  0  0  0
 16  2  1  0  0  0  0
 16 26  1  0  0  0  0
 19 11  2  0  0  0  0
 19 31  1  0  0  0  0
 20 27  1  0  0  0  0
 20 23  2  0  0  0  0
 21 14  2  0  0  0  0
 21 15  1  0  0  0  0
 22 16  1  0  0  0  0
 22  6  1  0  0  0  0
 22  2  1  1  0  0  0
 23 28  1  0  0  0  0
 26 11  1  0  0  0  0
 27  4  2  0  0  0  0
 28 25  2  0  0  0  0
 28 24  1  0  0  0  0
 29 20  1  0  0  0  0
 30 34  1  0  0  0  0
 31 30  2  0  0  0  0
 32 35  1  0  0  0  0
 33 34  1  0  0  0  0
 33 37  1  0  0  0  0
 34 38  2  0  0  0  0
 35 37  1  0  0  0  0
 36 32  1  0  0  0  0
 36 33  1  0  0  0  0
 39 27  1  0  0  0  0
 40 39  1  0  0  0  0
 41 40  1  0  0  0  0
 41 42  1  0  0  0  0
 43 45  1  0  0  0  0
 44 43  2  0  0  0  0
 44 42  1  0  0  0  0
 46 45  1  0  0  0  0
 47 48  1  0  0  0  0
 48 46  1  0  0  0  0
 48 49  2  0  0  0  0
M  END
>  <MODEL>
8

>  <REMARK>
 VINA RESULT:      -5.5      2.041      2.679
  Name = 
  10 active torsions:
  status: ('A' for Active; 'I' for Inactive)
    1  A    between atoms: C_8  and  C_24
    2  A    between atoms: C_8  and  O_32
    3  A    between atoms: C_9  and  C_14
    4  A    between atoms: C_9  and  C_31
    5  A    between atoms: N_11  and  C_16
    6  A    between atoms: C_15  and  C_17
    7  A    between atoms: C_17  and  C_24
    8  A    between atoms: C_31  and  C_44
    9  A    between atoms: O_32  and  C_45
   10  A    between atoms: C_34  and  C_46
                            x       y       z     vdW  Elec       q    Type
                         _______ _______ _______ _____ _____    ______ ____

>  <TORSDO>
F 10

$$$$
=
 OpenBabel11032419393D

 49 55  0  0  1  0  0  0  0  0999 V2000
  190.2320  177.7590  147.6400 S   0  0  0  0  0  0  0  0  0  0  0  0
  185.7630  176.7710  145.4100 O   0  0  0  0  0  0  0  0  0  0  0  0
  189.8640  176.9740  145.1660 N   0  0  0  0  0  0  0  0  0  0  0  0
  184.8570  177.7470  138.7390 C   0  0  0  0  0  3  0  0  0  0  0  0
  189.4590  178.1690  139.5990 C   0  0  0  0  0  2  0  0  0  0  0  0
  185.5300  178.3510  143.5790 C   0  0  1  0  0  3  0  0  0  0  0  0
  189.1870  177.7800  146.1650 C   0  0  1  0  0  3  0  0  0  0  0  0
  191.4720  176.7530  146.7720 C   0  0  2  0  0  3  0  0  0  0  0  0
  189.7530  177.2630  143.7690 C   0  0  0  0  0  0  0  0  0  0  0  0
  190.8570  176.1070  145.6240 N   0  0  0  0  0  2  0  0  0  0  0  0
  184.7820  179.4270  145.6970 C   0  0  0  0  0  3  0  0  0  0  0  0
  189.8100  178.5590  143.3360 N   0  0  0  0  0  0  0  0  0  0  0  0
  189.7370  178.8660  142.0090 C   0  0  0  0  0  3  0  0  0  0  0  0
  189.5820  177.8520  141.0570 C   0  0  0  0  0  0  0  0  0  0  0  0
  189.6220  176.2150  142.8420 C   0  0  0  0  0  3  0  0  0  0  0  0
  186.6900  177.7610  145.7890 C   0  0  1  0  0  0  0  0  0  0  0  0
  192.0390  175.7140  147.7180 C   0  0  0  0  0  1  0  0  0  0  0  0
  187.8570  177.1270  146.5230 C   0  0  0  0  0  2  0  0  0  0  0  0
  184.5510  179.1700  144.4090 C   0  0  0  0  0  0  0  0  0  0  0  0
  186.9790  178.5880  139.5600 C   0  0  0  0  0  0  0  0  0  0  0  0
  189.5280  176.5170  141.4820 C   0  0  0  0  0  3  0  0  0  0  0  0
  186.4690  177.4110  144.3640 C   0  0  1  0  0  3  0  0  0  0  0  0
  186.5460  178.3530  140.8680 C   0  0  0  0  0  3  0  0  0  0  0  0
  184.8240  177.5080  142.5170 C   0  0  0  0  0  2  0  0  0  0  0  0
  184.4370  177.5130  140.0500 C   0  0  0  0  0  3  0  0  0  0  0  0
  186.0110  178.9770  146.4200 C   0  0  0  0  0  2  0  0  0  0  0  0
  186.1300  178.2860  138.4820 C   0  0  0  0  0  0  0  0  0  0  0  0
  185.2740  177.8240  141.1230 C   0  0  0  0  0  0  0  0  0  0  0  0
  188.3400  179.1760  139.3280 C   0  0  0  0  0  2  0  0  0  0  0  0
  182.3390  179.1540  143.4180 N   0  0  0  0  0  0  0  0  0  0  0  0
  183.3720  179.8250  143.8230 C   0  0  0  0  0  3  0  0  0  0  0  0
  180.8810  179.0460  139.1470 C   0  0  0  0  0  2  0  0  0  0  0  0
  180.7780  179.5160  141.4730 N   0  0  0  0  0  0  0  0  0  0  0  0
  181.1580  179.7350  142.8490 C   0  0  0  0  0  0  0  0  0  0  0  0
  179.4550  179.4430  139.5100 C   0  0  0  0  0  2  0  0  0  0  0  0
  181.6480  178.9590  140.4460 C   0  0  0  0  0  2  0  0  0  0  0  0
  179.4770  179.8970  140.9580 C   0  0  0  0  0  2  0  0  0  0  0  0
  180.4370  180.5080  143.5960 N   0  0  0  0  0  2  0  0  0  0  0  0
  186.5590  178.5350  137.1750 O   0  0  0  0  0  0  0  0  0  0  0  0
  186.9530  177.4980  136.2840 C   0  0  0  0  0  2  0  0  0  0  0  0
  185.7710  177.0670  135.4320 C   0  0  0  0  0  2  0  0  0  0  0  0
  185.8310  175.5700  135.1880 C   0  0  0  0  0  2  0  0  0  0  0  0
  186.1940  174.1090  137.1660 C   0  0  0  0  0  3  0  0  0  0  0  0
  186.6890  174.9290  136.2390 C   0  0  0  0  0  3  0  0  0  0  0  0
  184.7390  173.7520  137.2360 C   0  0  0  0  0  2  0  0  0  0  0  0
  184.5550  172.2460  137.2840 C   0  0  0  0  0  2  0  0  0  0  0  0
  183.3180  171.7180  135.1420 N   0  0  0  0  0  1  0  0  0  0  0  0
  183.3150  171.8340  136.5650 C   0  0  0  0  0  0  0  0  0  0  0  0
  182.2690  171.5860  137.2140 O   0  0  0  0  0  0  0  0  0  0  0  0
  2 16  1  0  0  0  0
  3 10  1  0  0  0  0
  3  7  1  0  0  0  0
  4 25  1  0  0  0  0
  5 14  1  0  0  0  0
  6 24  1  6  0  0  0
  6 22  1  0  0  0  0
  6 19  1  0  0  0  0
  7 18  1  1  0  0  0
  7  1  1  0  0  0  0
  8  1  1  0  0  0  0
  8 17  1  1  0  0  0
  9  3  1  0  0  0  0
 10  8  1  0  0  0  0
 11 26  1  0  0  0  0
 12  9  1  0  0  0  0
 13 12  2  0  0  0  0
 14 21  2  0  0  0  0
 14 13  1  0  0  0  0
 15  9  2  0  0  0  0
 16 26  1  1  0  0  0
 16 18  1  0  0  0  0
 19 11  2  0  0  0  0
 20 23  2  0  0  0  0
 21 15  1  0  0  0  0
 22  2  1  1  0  0  0
 22 16  1  0  0  0  0
 23 28  1  0  0  0  0
 25 28  2  0  0  0  0
 27  4  2  0  0  0  0
 27 20  1  0  0  0  0
 28 24  1  0  0  0  0
 29 20  1  0  0  0  0
 29  5  1  0  0  0  0
 30 31  2  0  0  0  0
 31 19  1  0  0  0  0
 32 35  1  0  0  0  0
 32 36  1  0  0  0  0
 33 34  1  0  0  0  0
 34 30  1  0  0  0  0
 34 38  2  0  0  0  0
 35 37  1  0  0  0  0
 36 33  1  0  0  0  0
 37 33  1  0  0  0  0
 39 27  1  0  0  0  0
 40 39  1  0  0  0  0
 41 40  1  0  0  0  0
 42 41  1  0  0  0  0
 42 44  1  0  0  0  0
 43 45  1  0  0  0  0
 44 43  2  0  0  0  0
 45 46  1  0  0  0  0
 47 48  1  0  0  0  0
 48 49  2  0  0  0  0
 48 46  1  0  0  0  0
M  END
>  <MODEL>
9

>  <REMARK>
 VINA RESULT:      -5.1      4.505      9.146
  Name = 
  10 active torsions:
  status: ('A' for Active; 'I' for Inactive)
    1  A    between atoms: C_8  and  C_24
    2  A    between atoms: C_8  and  O_32
    3  A    between atoms: C_9  and  C_14
    4  A    between atoms: C_9  and  C_31
    5  A    between atoms: N_11  and  C_16
    6  A    between atoms: C_15  and  C_17
    7  A    between atoms: C_17  and  C_24
    8  A    between atoms: C_31  and  C_44
    9  A    between atoms: O_32  and  C_45
   10  A    between atoms: C_34  and  C_46
                            x       y       z     vdW  Elec       q    Type
                         _______ _______ _______ _____ _____    ______ ____

>  <TORSDO>
F 10

$$$$
