=
 OpenBabel11042412183D

 34 40  0  0  1  0  0  0  0  0999 V2000
  187.8830  177.5190  141.7620 C   0  0  2  0  0  3  0  0  0  0  0  0
  187.7040  178.4880  136.6900 C   0  0  0  0  0  3  0  0  0  0  0  0
  189.0420  178.2090  136.9690 C   0  0  0  0  0  3  0  0  0  0  0  0
  187.1520  178.1580  138.9940 N   0  0  0  0  0  0  0  0  0  0  0  0
  188.8500  177.5850  140.6140 C   0  0  0  0  0  0  0  0  0  0  0  0
  188.4520  177.8860  139.2970 C   0  0  0  0  0  0  0  0  0  0  0  0
  186.7640  178.4590  137.7250 C   0  0  0  0  0  3  0  0  0  0  0  0
  189.4270  177.9080  138.2750 C   0  0  0  0  0  0  0  0  0  0  0  0
  191.1250  177.3430  139.8300 C   0  0  0  0  0  3  0  0  0  0  0  0
  190.7270  177.6360  138.5630 N   0  0  0  0  0  0  0  0  0  0  0  0
  190.1960  177.3130  140.8740 C   0  0  0  0  0  3  0  0  0  0  0  0
  186.6990  178.3270  141.4930 N   0  0  0  0  0  2  0  0  0  0  0  0
  185.4370  179.8320  142.9410 C   0  0  0  0  0  2  0  0  0  0  0  0
  185.9240  178.4020  142.7250 C   0  0  1  0  0  3  0  0  0  0  0  0
  184.4750  178.7700  142.4560 C   0  0  1  0  0  0  0  0  0  0  0  0
  183.5930  178.3240  143.4380 O   0  0  0  0  0  1  0  0  0  0  0  0
  183.9520  178.8700  141.0170 C   0  0  2  0  0  0  0  0  0  0  0  0
  183.7930  177.3220  138.9930 C   0  0  0  0  0  2  0  0  0  0  0  0
  182.5140  179.2350  138.1930 C   0  0  0  0  0  2  0  0  0  0  0  0
  181.9110  179.5450  139.5570 C   0  0  0  0  0  2  0  0  0  0  0  0
  182.4560  178.7380  140.7590 C   0  0  1  0  0  3  0  0  0  0  0  0
  183.4040  177.5530  140.4610 C   0  0  2  0  0  3  0  0  0  0  0  0
  184.6860  179.6580  140.1220 O   0  0  0  0  0  1  0  0  0  0  0  0
  182.7050  177.7500  138.0300 C   0  0  0  0  0  2  0  0  0  0  0  0
  188.5230  177.9670  142.9900 N   0  0  0  0  0  2  0  0  0  0  0  0
  190.9510  177.0230  145.3150 S   0  0  0  0  0  0  0  0  0  0  0  0
  187.0160  177.5600  145.7550 C   0  0  0  0  0  3  0  0  0  0  0  0
  190.0170  176.2790  143.9240 C   0  0  0  0  0  2  0  0  0  0  0  0
  189.4030  177.4130  146.0890 C   0  0  0  0  0  0  0  0  0  0  0  0
  189.2680  177.8180  147.4160 C   0  0  0  0  0  3  0  0  0  0  0  0
  188.2980  177.2820  145.2740 C   0  0  0  0  0  0  0  0  0  0  0  0
  187.9870  178.1030  147.9140 C   0  0  0  0  0  3  0  0  0  0  0  0
  186.8630  177.9740  147.0850 C   0  0  0  0  0  3  0  0  0  0  0  0
  188.5890  176.8300  143.8950 C   0  0  1  0  0  3  0  0  0  0  0  0
  1 12  1  6  0  0  0
  1 25  1  0  0  0  0
  2  3  2  0  0  0  0
  2  7  1  0  0  0  0
  3  8  1  0  0  0  0
  4  6  1  0  0  0  0
  5 11  1  0  0  0  0
  5  1  1  0  0  0  0
  6  5  2  0  0  0  0
  7  4  2  0  0  0  0
  8 10  2  0  0  0  0
  8  6  1  0  0  0  0
  9 11  2  0  0  0  0
 10  9  1  0  0  0  0
 14 12  1  6  0  0  0
 14 13  1  0  0  0  0
 15 14  1  0  0  0  0
 15 13  1  0  0  0  0
 15 16  1  1  0  0  0
 17 23  1  6  0  0  0
 17 15  1  0  0  0  0
 19 20  1  0  0  0  0
 21 20  1  6  0  0  0
 21 17  1  0  0  0  0
 22 18  1  6  0  0  0
 22 21  1  0  0  0  0
 22 17  1  0  0  0  0
 24 19  1  0  0  0  0
 24 18  1  0  0  0  0
 26 29  1  0  0  0  0
 27 33  1  0  0  0  0
 28 26  1  0  0  0  0
 29 30  2  0  0  0  0
 30 32  1  0  0  0  0
 31 27  2  0  0  0  0
 31 29  1  0  0  0  0
 33 32  2  0  0  0  0
 34 25  1  6  0  0  0
 34 28  1  0  0  0  0
 34 31  1  0  0  0  0
M  END
>  <MODEL>
1

>  <REMARK>
 VINA RESULT:      -9.1      0.000      0.000
  Name = 
  6 active torsions:
  status: ('A' for Active; 'I' for Inactive)
    1  A    between atoms: C_3  and  C_22
    2  A    between atoms: C_7  and  C_18
    3  A    between atoms: N_17  and  C_18
    4  A    between atoms: N_17  and  C_20
    5  A    between atoms: C_18  and  N_19
    6  A    between atoms: N_19  and  C_32
                            x       y       z     vdW  Elec       q    Type
                         _______ _______ _______ _____ _____    ______ ____

>  <TORSDO>
F 6

$$$$
=
 OpenBabel11042412183D

 34 40  0  0  1  0  0  0  0  0999 V2000
  186.0680  178.6450  142.2190 C   0  0  2  0  0  3  0  0  0  0  0  0
  187.5630  177.6930  147.0740 C   0  0  0  0  0  3  0  0  0  0  0  0
  186.2180  178.0540  147.1610 C   0  0  0  0  0  3  0  0  0  0  0  0
  187.4870  177.9810  144.7000 N   0  0  0  0  0  0  0  0  0  0  0  0
  185.4570  178.6790  143.5910 C   0  0  0  0  0  0  0  0  0  0  0  0
  186.1740  178.3420  144.7560 C   0  0  0  0  0  0  0  0  0  0  0  0
  188.1870  177.6630  145.8220 C   0  0  0  0  0  3  0  0  0  0  0  0
  185.5140  178.3820  146.0040 C   0  0  0  0  0  0  0  0  0  0  0  0
  183.4990  179.0650  144.9570 C   0  0  0  0  0  3  0  0  0  0  0  0
  184.2040  178.7380  146.0730 N   0  0  0  0  0  0  0  0  0  0  0  0
  184.1120  179.0420  143.7010 C   0  0  0  0  0  3  0  0  0  0  0  0
  185.0860  178.2350  141.2220 N   0  0  0  0  0  2  0  0  0  0  0  0
  184.8940  178.5800  138.8140 C   0  0  0  0  0  2  0  0  0  0  0  0
  185.0690  179.2480  140.1750 C   0  0  1  0  0  3  0  0  0  0  0  0
  183.7290  179.2950  139.4600 C   0  0  1  0  0  0  0  0  0  0  0  0
  183.4440  180.5330  138.8860 O   0  0  0  0  0  1  0  0  0  0  0  0
  182.5500  178.4520  139.9620 C   0  0  2  0  0  0  0  0  0  0  0  0
  181.0660  178.3930  142.0390 C   0  0  0  0  0  2  0  0  0  0  0  0
  179.9240  176.7660  140.6290 C   0  0  0  0  0  2  0  0  0  0  0  0
  180.2050  177.5220  139.3370 C   0  0  0  0  0  2  0  0  0  0  0  0
  181.1500  178.7430  139.4340 C   0  0  1  0  0  3  0  0  0  0  0  0
  181.5650  179.2210  140.8460 C   0  0  2  0  0  3  0  0  0  0  0  0
  182.8240  177.1350  140.3490 O   0  0  0  0  0  1  0  0  0  0  0  0
  179.7310  177.7320  141.7700 C   0  0  0  0  0  2  0  0  0  0  0  0
  187.2090  177.7410  142.1950 N   0  0  0  0  0  2  0  0  0  0  0  0
  190.6260  177.0210  142.1870 S   0  0  0  0  0  0  0  0  0  0  0  0
  188.1570  177.8950  139.1690 C   0  0  0  0  0  3  0  0  0  0  0  0
  189.5160  178.4160  142.6160 C   0  0  0  0  0  2  0  0  0  0  0  0
  189.9440  177.0390  140.5490 C   0  0  0  0  0  0  0  0  0  0  0  0
  190.4930  176.3620  139.4610 C   0  0  0  0  0  3  0  0  0  0  0  0
  188.7990  177.7960  140.4060 C   0  0  0  0  0  0  0  0  0  0  0  0
  189.8590  176.4500  138.2130 C   0  0  0  0  0  3  0  0  0  0  0  0
  188.6920  177.2160  138.0670 C   0  0  0  0  0  3  0  0  0  0  0  0
  188.3380  178.4710  141.6390 C   0  0  1  0  0  3  0  0  0  0  0  0
  1 12  1  6  0  0  0
  1  5  1  0  0  0  0
  2  3  1  0  0  0  0
  4  6  2  0  0  0  0
  4  7  1  0  0  0  0
  5 11  2  0  0  0  0
  5  6  1  0  0  0  0
  6  8  1  0  0  0  0
  7  2  2  0  0  0  0
  8 10  1  0  0  0  0
  8  3  2  0  0  0  0
  9 10  2  0  0  0  0
 11  9  1  0  0  0  0
 13 15  1  0  0  0  0
 13 14  1  0  0  0  0
 14 12  1  1  0  0  0
 15 16  1  6  0  0  0
 15 17  1  0  0  0  0
 15 14  1  0  0  0  0
 17 23  1  1  0  0  0
 17 22  1  0  0  0  0
 19 24  1  0  0  0  0
 20 19  1  0  0  0  0
 21 20  1  1  0  0  0
 21 17  1  0  0  0  0
 21 22  1  0  0  0  0
 22 18  1  1  0  0  0
 24 18  1  0  0  0  0
 25  1  1  0  0  0  0
 26 28  1  0  0  0  0
 27 31  1  0  0  0  0
 29 26  1  0  0  0  0
 30 29  1  0  0  0  0
 31 29  2  0  0  0  0
 31 34  1  0  0  0  0
 32 30  2  0  0  0  0
 33 32  1  0  0  0  0
 33 27  2  0  0  0  0
 34 25  1  1  0  0  0
 34 28  1  0  0  0  0
M  END
>  <MODEL>
2

>  <REMARK>
 VINA RESULT:      -8.9      1.938      6.008
  Name = 
  6 active torsions:
  status: ('A' for Active; 'I' for Inactive)
    1  A    between atoms: C_3  and  C_22
    2  A    between atoms: C_7  and  C_18
    3  A    between atoms: N_17  and  C_18
    4  A    between atoms: N_17  and  C_20
    5  A    between atoms: C_18  and  N_19
    6  A    between atoms: N_19  and  C_32
                            x       y       z     vdW  Elec       q    Type
                         _______ _______ _______ _____ _____    ______ ____

>  <TORSDO>
F 6

$$$$
=
 OpenBabel11042412183D

 34 40  0  0  1  0  0  0  0  0999 V2000
  188.6620  177.8030  141.5340 C   0  0  2  0  0  3  0  0  0  0  0  0
  186.2880  177.7330  146.1240 C   0  0  0  0  0  3  0  0  0  0  0  0
  185.3320  178.1900  145.2160 C   0  0  0  0  0  3  0  0  0  0  0  0
  187.8860  177.5510  144.3520 N   0  0  0  0  0  0  0  0  0  0  0  0
  187.3060  178.1460  142.0830 C   0  0  0  0  0  0  0  0  0  0  0  0
  186.9740  178.0000  143.4440 C   0  0  0  0  0  0  0  0  0  0  0  0
  187.5720  177.4160  145.6690 C   0  0  0  0  0  3  0  0  0  0  0  0
  185.6680  178.3280  143.8700 C   0  0  0  0  0  0  0  0  0  0  0  0
  185.0550  178.9210  141.6570 C   0  0  0  0  0  3  0  0  0  0  0  0
  184.7490  178.7750  142.9740 N   0  0  0  0  0  0  0  0  0  0  0  0
  186.3360  178.6100  141.1910 C   0  0  0  0  0  3  0  0  0  0  0  0
  188.5710  177.4040  140.1340 N   0  0  0  0  0  2  0  0  0  0  0  0
  190.0980  177.6980  138.2540 C   0  0  0  0  0  2  0  0  0  0  0  0
  189.2900  178.3960  139.3440 C   0  0  1  0  0  3  0  0  0  0  0  0
  188.8160  178.4160  137.9010 C   0  0  1  0  0  0  0  0  0  0  0  0
  189.0160  179.6390  137.2630 O   0  0  0  0  0  1  0  0  0  0  0  0
  187.6100  177.5740  137.4660 C   0  0  2  0  0  0  0  0  0  0  0  0
  186.1510  177.3660  135.3810 C   0  0  0  0  0  2  0  0  0  0  0  0
  185.3200  175.4890  136.6950 C   0  0  0  0  0  2  0  0  0  0  0  0
  186.6850  175.1520  137.2830 C   0  0  0  0  0  2  0  0  0  0  0  0
  187.8350  176.1440  136.9880 C   0  0  1  0  0  3  0  0  0  0  0  0
  187.5680  177.2730  135.9650 C   0  0  2  0  0  3  0  0  0  0  0  0
  186.3790  177.8570  138.0710 O   0  0  0  0  0  1  0  0  0  0  0  0
  185.4700  176.0160  135.2910 C   0  0  0  0  0  2  0  0  0  0  0  0
  189.2700  176.7360  142.3160 N   0  0  0  0  0  2  0  0  0  0  0  0
  190.9010  179.0310  144.3820 S   0  0  0  0  0  0  0  0  0  0  0  0
  191.4900  175.1080  143.8970 C   0  0  0  0  0  3  0  0  0  0  0  0
  190.8590  178.5640  142.6090 C   0  0  0  0  0  2  0  0  0  0  0  0
  191.3410  177.3560  144.7680 C   0  0  0  0  0  0  0  0  0  0  0  0
  191.8190  176.9340  146.0080 C   0  0  0  0  0  3  0  0  0  0  0  0
  191.1830  176.4610  143.7300 C   0  0  0  0  0  0  0  0  0  0  0  0
  192.1300  175.5790  146.1930 C   0  0  0  0  0  3  0  0  0  0  0  0
  191.9660  174.6670  145.1390 C   0  0  0  0  0  3  0  0  0  0  0  0
  190.6820  177.0500  142.4680 C   0  0  1  0  0  3  0  0  0  0  0  0
  1 12  1  6  0  0  0
  1  5  1  0  0  0  0
  1 25  1  0  0  0  0
  3  2  2  0  0  0  0
  4  7  2  0  0  0  0
  5  6  1  0  0  0  0
  6  8  2  0  0  0  0
  6  4  1  0  0  0  0
  7  2  1  0  0  0  0
  8  3  1  0  0  0  0
  9 10  2  0  0  0  0
 10  8  1  0  0  0  0
 11  9  1  0  0  0  0
 11  5  2  0  0  0  0
 13 14  1  0  0  0  0
 14 12  1  1  0  0  0
 15 16  1  6  0  0  0
 15 13  1  0  0  0  0
 15 14  1  0  0  0  0
 17 15  1  0  0  0  0
 17 23  1  1  0  0  0
 19 20  1  0  0  0  0
 21 20  1  1  0  0  0
 21 17  1  0  0  0  0
 22 18  1  1  0  0  0
 22 21  1  0  0  0  0
 22 17  1  0  0  0  0
 24 18  1  0  0  0  0
 24 19  1  0  0  0  0
 26 29  1  0  0  0  0
 27 33  1  0  0  0  0
 28 26  1  0  0  0  0
 29 30  2  0  0  0  0
 30 32  1  0  0  0  0
 31 27  2  0  0  0  0
 31 29  1  0  0  0  0
 33 32  2  0  0  0  0
 34 25  1  1  0  0  0
 34 28  1  0  0  0  0
 34 31  1  0  0  0  0
M  END
>  <MODEL>
3

>  <REMARK>
 VINA RESULT:      -8.7      2.344      5.473
  Name = 
  6 active torsions:
  status: ('A' for Active; 'I' for Inactive)
    1  A    between atoms: C_3  and  C_22
    2  A    between atoms: C_7  and  C_18
    3  A    between atoms: N_17  and  C_18
    4  A    between atoms: N_17  and  C_20
    5  A    between atoms: C_18  and  N_19
    6  A    between atoms: N_19  and  C_32
                            x       y       z     vdW  Elec       q    Type
                         _______ _______ _______ _____ _____    ______ ____

>  <TORSDO>
F 6

$$$$
=
 OpenBabel11042412183D

 34 40  0  0  1  0  0  0  0  0999 V2000
  187.5590  177.7940  139.8080 C   0  0  2  0  0  3  0  0  0  0  0  0
  186.1240  175.4440  135.4350 C   0  0  0  0  0  3  0  0  0  0  0  0
  187.1870  176.2750  135.0800 C   0  0  0  0  0  3  0  0  0  0  0  0
  186.3050  176.1780  137.7050 N   0  0  0  0  0  0  0  0  0  0  0  0
  187.9670  177.8050  138.3620 C   0  0  0  0  0  0  0  0  0  0  0  0
  187.3420  177.0030  137.3870 C   0  0  0  0  0  0  0  0  0  0  0  0
  185.6920  175.4090  136.7650 C   0  0  0  0  0  3  0  0  0  0  0  0
  187.8030  177.0620  136.0530 C   0  0  0  0  0  0  0  0  0  0  0  0
  189.4510  178.6570  136.6530 C   0  0  0  0  0  3  0  0  0  0  0  0
  188.8380  177.8790  135.7220 N   0  0  0  0  0  0  0  0  0  0  0  0
  189.0260  178.6340  137.9850 C   0  0  0  0  0  3  0  0  0  0  0  0
  186.4380  178.6980  140.0390 N   0  0  0  0  0  2  0  0  0  0  0  0
  185.3900  179.6890  142.0070 C   0  0  0  0  0  2  0  0  0  0  0  0
  185.8980  178.4030  141.3600 C   0  0  1  0  0  3  0  0  0  0  0  0
  184.4080  178.6910  141.4350 C   0  0  1  0  0  0  0  0  0  0  0  0
  183.7420  177.9430  142.4040 O   0  0  0  0  0  1  0  0  0  0  0  0
  183.6270  179.0840  140.1750 C   0  0  2  0  0  0  0  0  0  0  0  0
  183.1890  178.0660  137.8740 C   0  0  0  0  0  2  0  0  0  0  0  0
  181.6820  179.9800  137.8090 C   0  0  0  0  0  2  0  0  0  0  0  0
  181.3210  179.8870  139.2860 C   0  0  0  0  0  2  0  0  0  0  0  0
  182.1190  178.8710  140.1370 C   0  0  1  0  0  3  0  0  0  0  0  0
  183.0610  177.8940  139.3950 C   0  0  2  0  0  3  0  0  0  0  0  0
  184.1420  180.1340  139.4050 O   0  0  0  0  0  1  0  0  0  0  0  0
  181.9230  178.6040  137.2420 C   0  0  0  0  0  2  0  0  0  0  0  0
  188.6830  178.1690  140.6540 N   0  0  0  0  0  2  0  0  0  0  0  0
  191.6720  177.5050  142.3340 S   0  0  0  0  0  0  0  0  0  0  0  0
  187.8810  177.0330  143.5080 C   0  0  0  0  0  3  0  0  0  0  0  0
  190.6480  176.7660  141.0040 C   0  0  0  0  0  2  0  0  0  0  0  0
  190.2650  177.4070  143.4100 C   0  0  0  0  0  0  0  0  0  0  0  0
  190.3200  177.5780  144.7930 C   0  0  0  0  0  3  0  0  0  0  0  0
  189.0690  177.1360  142.7790 C   0  0  0  0  0  0  0  0  0  0  0  0
  189.1360  177.4810  145.5390 C   0  0  0  0  0  3  0  0  0  0  0  0
  187.9180  177.2090  144.8970 C   0  0  0  0  0  3  0  0  0  0  0  0
  189.1620  176.9640  141.3120 C   0  0  1  0  0  3  0  0  0  0  0  0
  1 12  1  6  0  0  0
  1 25  1  0  0  0  0
  2  7  1  0  0  0  0
  3  2  2  0  0  0  0
  3  8  1  0  0  0  0
  5  1  1  0  0  0  0
  6  4  1  0  0  0  0
  6  5  2  0  0  0  0
  7  4  2  0  0  0  0
  8  6  1  0  0  0  0
  9 11  2  0  0  0  0
 10  8  2  0  0  0  0
 10  9  1  0  0  0  0
 11  5  1  0  0  0  0
 14 12  1  6  0  0  0
 14 15  1  0  0  0  0
 14 13  1  0  0  0  0
 15 13  1  0  0  0  0
 15 16  1  1  0  0  0
 17 23  1  6  0  0  0
 17 15  1  0  0  0  0
 19 20  1  0  0  0  0
 21 20  1  6  0  0  0
 21 17  1  0  0  0  0
 22 18  1  6  0  0  0
 22 21  1  0  0  0  0
 22 17  1  0  0  0  0
 24 19  1  0  0  0  0
 24 18  1  0  0  0  0
 26 29  1  0  0  0  0
 27 33  1  0  0  0  0
 28 34  1  0  0  0  0
 28 26  1  0  0  0  0
 29 30  2  0  0  0  0
 30 32  1  0  0  0  0
 31 29  1  0  0  0  0
 31 27  2  0  0  0  0
 33 32  2  0  0  0  0
 34 25  1  6  0  0  0
 34 31  1  0  0  0  0
M  END
>  <MODEL>
4

>  <REMARK>
 VINA RESULT:      -8.7      1.675      2.393
  Name = 
  6 active torsions:
  status: ('A' for Active; 'I' for Inactive)
    1  A    between atoms: C_3  and  C_22
    2  A    between atoms: C_7  and  C_18
    3  A    between atoms: N_17  and  C_18
    4  A    between atoms: N_17  and  C_20
    5  A    between atoms: C_18  and  N_19
    6  A    between atoms: N_19  and  C_32
                            x       y       z     vdW  Elec       q    Type
                         _______ _______ _______ _____ _____    ______ ____

>  <TORSDO>
F 6

$$$$
=
 OpenBabel11042412183D

 34 40  0  0  1  0  0  0  0  0999 V2000
  186.8450  177.8070  143.3200 C   0  0  2  0  0  3  0  0  0  0  0  0
  189.6340  178.0830  138.9780 C   0  0  0  0  0  3  0  0  0  0  0  0
  190.3080  177.1770  139.7980 C   0  0  0  0  0  3  0  0  0  0  0  0
  187.9740  178.3850  140.6740 N   0  0  0  0  0  0  0  0  0  0  0  0
  188.1130  177.2080  142.7800 C   0  0  0  0  0  0  0  0  0  0  0  0
  188.6130  177.5070  141.4980 C   0  0  0  0  0  0  0  0  0  0  0  0
  188.4580  178.6830  139.4390 C   0  0  0  0  0  3  0  0  0  0  0  0
  189.8040  176.8830  141.0640 C   0  0  0  0  0  0  0  0  0  0  0  0
  189.9780  175.7060  143.1140 C   0  0  0  0  0  3  0  0  0  0  0  0
  190.4500  176.0050  141.8740 N   0  0  0  0  0  0  0  0  0  0  0  0
  188.8050  176.3020  143.5870 C   0  0  0  0  0  3  0  0  0  0  0  0
  186.5180  177.2440  144.6250 N   0  0  0  0  0  2  0  0  0  0  0  0
  185.3870  177.7030  146.7380 C   0  0  0  0  0  2  0  0  0  0  0  0
  185.7620  178.2480  145.3630 C   0  0  1  0  0  3  0  0  0  0  0  0
  186.5050  178.7110  146.6040 C   0  0  1  0  0  0  0  0  0  0  0  0
  186.1550  179.9950  147.0200 O   0  0  0  0  0  1  0  0  0  0  0  0
  187.9400  178.2410  146.8730 C   0  0  2  0  0  0  0  0  0  0  0  0
  189.7820  178.7800  148.5580 C   0  0  0  0  0  2  0  0  0  0  0  0
  190.7730  176.8730  147.4090 C   0  0  0  0  0  2  0  0  0  0  0  0
  189.4440  176.1510  147.2250 C   0  0  0  0  0  2  0  0  0  0  0  0
  188.1670  176.9310  147.6170 C   0  0  1  0  0  3  0  0  0  0  0  0
  188.3440  178.2820  148.3490 C   0  0  2  0  0  3  0  0  0  0  0  0
  188.9240  178.6310  145.9550 O   0  0  0  0  0  1  0  0  0  0  0  0
  190.7740  177.6460  148.7030 C   0  0  0  0  0  2  0  0  0  0  0  0
  185.7450  177.5840  142.3920 N   0  0  0  0  0  2  0  0  0  0  0  0
  183.5770  178.6190  139.8580 S   0  0  0  0  0  0  0  0  0  0  0  0
  183.2080  178.8390  143.8300 C   0  0  0  0  0  3  0  0  0  0  0  0
  185.1390  179.1730  140.6430 C   0  0  0  0  0  2  0  0  0  0  0  0
  182.8080  178.6680  141.4560 C   0  0  0  0  0  0  0  0  0  0  0  0
  181.4310  178.5980  141.6670 C   0  0  0  0  0  3  0  0  0  0  0  0
  183.6810  178.7910  142.5170 C   0  0  0  0  0  0  0  0  0  0  0  0
  180.9410  178.6440  142.9810 C   0  0  0  0  0  3  0  0  0  0  0  0
  181.8290  178.7640  144.0610 C   0  0  0  0  0  3  0  0  0  0  0  0
  185.1110  178.8690  142.1430 C   0  0  1  0  0  3  0  0  0  0  0  0
  1 25  1  6  0  0  0
  1 12  1  0  0  0  0
  2  7  2  0  0  0  0
  2  3  1  0  0  0  0
  3  8  2  0  0  0  0
  4  6  2  0  0  0  0
  5  1  1  0  0  0  0
  5 11  2  0  0  0  0
  6  5  1  0  0  0  0
  7  4  1  0  0  0  0
  8  6  1  0  0  0  0
  8 10  1  0  0  0  0
  9 11  1  0  0  0  0
 10  9  2  0  0  0  0
 14 12  1  6  0  0  0
 14 15  1  0  0  0  0
 14 13  1  0  0  0  0
 15 13  1  0  0  0  0
 15 17  1  0  0  0  0
 15 16  1  1  0  0  0
 17 23  1  6  0  0  0
 17 21  1  0  0  0  0
 17 22  1  0  0  0  0
 18 24  1  0  0  0  0
 19 24  1  0  0  0  0
 20 19  1  0  0  0  0
 21 20  1  6  0  0  0
 21 22  1  0  0  0  0
 22 18  1  6  0  0  0
 26 28  1  0  0  0  0
 26 29  1  0  0  0  0
 27 33  1  0  0  0  0
 28 34  1  0  0  0  0
 29 30  2  0  0  0  0
 29 31  1  0  0  0  0
 30 32  1  0  0  0  0
 31 27  2  0  0  0  0
 32 33  2  0  0  0  0
 34 25  1  6  0  0  0
 34 31  1  0  0  0  0
M  END
>  <MODEL>
5

>  <REMARK>
 VINA RESULT:      -8.4      2.783      6.683
  Name = 
  6 active torsions:
  status: ('A' for Active; 'I' for Inactive)
    1  A    between atoms: C_3  and  C_22
    2  A    between atoms: C_7  and  C_18
    3  A    between atoms: N_17  and  C_18
    4  A    between atoms: N_17  and  C_20
    5  A    between atoms: C_18  and  N_19
    6  A    between atoms: N_19  and  C_32
                            x       y       z     vdW  Elec       q    Type
                         _______ _______ _______ _____ _____    ______ ____

>  <TORSDO>
F 6

$$$$
=
 OpenBabel11042412183D

 34 40  0  0  1  0  0  0  0  0999 V2000
  187.4250  178.2760  143.0760 C   0  0  2  0  0  3  0  0  0  0  0  0
  183.7390  179.1180  139.5520 C   0  0  0  0  0  3  0  0  0  0  0  0
  183.0700  178.9930  140.7700 C   0  0  0  0  0  3  0  0  0  0  0  0
  185.8290  178.7710  140.6640 N   0  0  0  0  0  0  0  0  0  0  0  0
  185.9270  178.3900  143.0480 C   0  0  0  0  0  0  0  0  0  0  0  0
  185.2020  178.6390  141.8660 C   0  0  0  0  0  0  0  0  0  0  0  0
  185.1320  179.0020  139.5190 C   0  0  0  0  0  3  0  0  0  0  0  0
  183.7950  178.7510  141.9360 C   0  0  0  0  0  0  0  0  0  0  0  0
  183.8450  178.3840  144.2770 C   0  0  0  0  0  3  0  0  0  0  0  0
  183.1570  178.6230  143.1290 N   0  0  0  0  0  0  0  0  0  0  0  0
  185.2370  178.2630  144.2560 C   0  0  0  0  0  3  0  0  0  0  0  0
  187.9330  177.7850  141.8000 N   0  0  0  0  0  2  0  0  0  0  0  0
  189.7730  176.2390  141.3800 C   0  0  0  0  0  2  0  0  0  0  0  0
  189.3720  177.6010  141.9380 C   0  0  1  0  0  3  0  0  0  0  0  0
  190.0570  177.4940  140.5860 C   0  0  1  0  0  0  0  0  0  0  0  0
  191.3970  177.8780  140.6060 O   0  0  0  0  0  1  0  0  0  0  0  0
  189.2660  177.7260  139.2930 C   0  0  2  0  0  0  0  0  0  0  0  0
  189.8050  177.9410  136.8060 C   0  0  0  0  0  2  0  0  0  0  0  0
  187.3700  177.9020  136.7330 C   0  0  0  0  0  2  0  0  0  0  0  0
  187.2390  176.9140  137.8840 C   0  0  0  0  0  2  0  0  0  0  0  0
  188.5370  176.5550  138.6450 C   0  0  1  0  0  3  0  0  0  0  0  0
  189.8780  177.0570  138.0590 C   0  0  2  0  0  3  0  0  0  0  0  0
  188.7250  179.0020  139.0940 O   0  0  0  0  0  1  0  0  0  0  0  0
  188.6130  177.6130  135.9320 C   0  0  0  0  0  2  0  0  0  0  0  0
  187.8460  177.3920  144.1530 N   0  0  0  0  0  2  0  0  0  0  0  0
  188.1310  177.1220  147.6230 S   0  0  0  0  0  0  0  0  0  0  0  0
  190.9530  177.3180  144.8010 C   0  0  0  0  0  3  0  0  0  0  0  0
  187.7350  178.4020  146.3710 C   0  0  0  0  0  2  0  0  0  0  0  0
  189.6830  176.8630  146.8040 C   0  0  0  0  0  0  0  0  0  0  0  0
  190.7460  176.1410  147.3440 C   0  0  0  0  0  3  0  0  0  0  0  0
  189.7850  177.4450  145.5570 C   0  0  0  0  0  0  0  0  0  0  0  0
  191.9260  176.0030  146.5970 C   0  0  0  0  0  3  0  0  0  0  0  0
  192.0280  176.5910  145.3270 C   0  0  0  0  0  3  0  0  0  0  0  0
  188.5860  178.1920  145.1160 C   0  0  1  0  0  3  0  0  0  0  0  0
  1 12  1  6  0  0  0
  1 25  1  0  0  0  0
  2  3  1  0  0  0  0
  3  8  2  0  0  0  0
  4  6  2  0  0  0  0
  5  1  1  0  0  0  0
  5 11  2  0  0  0  0
  6  8  1  0  0  0  0
  6  5  1  0  0  0  0
  7  2  2  0  0  0  0
  7  4  1  0  0  0  0
  8 10  1  0  0  0  0
 10  9  2  0  0  0  0
 11  9  1  0  0  0  0
 13 14  1  0  0  0  0
 14 12  1  6  0  0  0
 15 16  1  6  0  0  0
 15 13  1  0  0  0  0
 15 14  1  0  0  0  0
 17 23  1  6  0  0  0
 17 15  1  0  0  0  0
 19 20  1  0  0  0  0
 21 20  1  6  0  0  0
 21 17  1  0  0  0  0
 22 18  1  6  0  0  0
 22 21  1  0  0  0  0
 22 17  1  0  0  0  0
 24 19  1  0  0  0  0
 24 18  1  0  0  0  0
 27 33  2  0  0  0  0
 27 31  1  0  0  0  0
 28 26  1  0  0  0  0
 29 30  1  0  0  0  0
 29 26  1  0  0  0  0
 31 29  2  0  0  0  0
 32 30  2  0  0  0  0
 33 32  1  0  0  0  0
 34 25  1  6  0  0  0
 34 31  1  0  0  0  0
 34 28  1  0  0  0  0
M  END
>  <MODEL>
6

>  <REMARK>
 VINA RESULT:      -8.2      2.146      5.188
  Name = 
  6 active torsions:
  status: ('A' for Active; 'I' for Inactive)
    1  A    between atoms: C_3  and  C_22
    2  A    between atoms: C_7  and  C_18
    3  A    between atoms: N_17  and  C_18
    4  A    between atoms: N_17  and  C_20
    5  A    between atoms: C_18  and  N_19
    6  A    between atoms: N_19  and  C_32
                            x       y       z     vdW  Elec       q    Type
                         _______ _______ _______ _____ _____    ______ ____

>  <TORSDO>
F 6

$$$$
=
 OpenBabel11042412183D

 34 40  0  0  1  0  0  0  0  0999 V2000
  189.8950  176.4280  140.1220 C   0  0  2  0  0  3  0  0  0  0  0  0
  192.2380  173.7660  136.3630 C   0  0  0  0  0  3  0  0  0  0  0  0
  193.1970  174.6610  136.8410 C   0  0  0  0  0  3  0  0  0  0  0  0
  190.6540  174.6200  137.9400 N   0  0  0  0  0  0  0  0  0  0  0  0
  191.2440  176.4010  139.4620 C   0  0  0  0  0  0  0  0  0  0  0  0
  191.5680  175.5080  138.4230 C   0  0  0  0  0  0  0  0  0  0  0  0
  190.9590  173.7620  136.9300 C   0  0  0  0  0  3  0  0  0  0  0  0
  192.8690  175.5390  137.8730 C   0  0  0  0  0  0  0  0  0  0  0  0
  193.4920  177.2850  139.3500 C   0  0  0  0  0  3  0  0  0  0  0  0
  193.7910  176.4180  138.3460 N   0  0  0  0  0  0  0  0  0  0  0  0
  192.2170  177.2920  139.9230 C   0  0  0  0  0  3  0  0  0  0  0  0
  188.8810  176.9540  139.2140 N   0  0  0  0  0  2  0  0  0  0  0  0
  189.8330  177.8970  137.1750 C   0  0  0  0  0  2  0  0  0  0  0  0
  189.4140  178.1720  138.6160 C   0  0  1  0  0  3  0  0  0  0  0  0
  188.5540  178.6520  137.4590 C   0  0  1  0  0  0  0  0  0  0  0  0
  188.6480  180.0220  137.2230 O   0  0  0  0  0  1  0  0  0  0  0  0
  187.2200  177.9630  137.1430 C   0  0  2  0  0  0  0  0  0  0  0  0
  185.6320  177.8290  135.1480 C   0  0  0  0  0  2  0  0  0  0  0  0
  184.6240  176.1800  136.6310 C   0  0  0  0  0  2  0  0  0  0  0  0
  185.9600  175.6910  137.1780 C   0  0  0  0  0  2  0  0  0  0  0  0
  187.2180  176.4880  136.7600 C   0  0  1  0  0  3  0  0  0  0  0  0
  187.0530  177.5750  135.6710 C   0  0  2  0  0  3  0  0  0  0  0  0
  186.0770  178.4580  137.7820 O   0  0  0  0  0  1  0  0  0  0  0  0
  184.7670  176.5870  135.1870 C   0  0  0  0  0  2  0  0  0  0  0  0
  189.9400  177.2300  141.3360 N   0  0  0  0  0  2  0  0  0  0  0  0
  191.3320  177.4940  144.5280 S   0  0  0  0  0  0  0  0  0  0  0  0
  187.5800  176.7170  143.3960 C   0  0  0  0  0  3  0  0  0  0  0  0
  191.2880  176.2950  143.1420 C   0  0  0  0  0  2  0  0  0  0  0  0
  189.5590  177.4370  144.5760 C   0  0  0  0  0  0  0  0  0  0  0  0
  188.7840  177.9500  145.6150 C   0  0  0  0  0  3  0  0  0  0  0  0
  188.9690  176.8280  143.4880 C   0  0  0  0  0  0  0  0  0  0  0  0
  187.3870  177.8470  145.5370 C   0  0  0  0  0  3  0  0  0  0  0  0
  186.7860  177.2320  144.4290 C   0  0  0  0  0  3  0  0  0  0  0  0
  189.9130  176.3180  142.4690 C   0  0  1  0  0  3  0  0  0  0  0  0
  1 12  1  6  0  0  0
  1 25  1  0  0  0  0
  2  3  2  0  0  0  0
  2  7  1  0  0  0  0
  3  8  1  0  0  0  0
  4  6  1  0  0  0  0
  5 11  1  0  0  0  0
  5  1  1  0  0  0  0
  6  5  2  0  0  0  0
  7  4  2  0  0  0  0
  8 10  2  0  0  0  0
  8  6  1  0  0  0  0
  9 11  2  0  0  0  0
 10  9  1  0  0  0  0
 13 15  1  0  0  0  0
 13 14  1  0  0  0  0
 14 12  1  1  0  0  0
 15 16  1  6  0  0  0
 15 14  1  0  0  0  0
 17 15  1  0  0  0  0
 17 23  1  1  0  0  0
 18 24  1  0  0  0  0
 19 20  1  0  0  0  0
 21 17  1  0  0  0  0
 21 20  1  1  0  0  0
 22 18  1  1  0  0  0
 22 21  1  0  0  0  0
 22 17  1  0  0  0  0
 24 19  1  0  0  0  0
 26 29  1  0  0  0  0
 27 31  2  0  0  0  0
 27 33  1  0  0  0  0
 28 26  1  0  0  0  0
 29 30  2  0  0  0  0
 31 29  1  0  0  0  0
 32 30  1  0  0  0  0
 33 32  2  0  0  0  0
 34 25  1  6  0  0  0
 34 28  1  0  0  0  0
 34 31  1  0  0  0  0
M  END
>  <MODEL>
7

>  <REMARK>
 VINA RESULT:      -8.1      2.752      4.406
  Name = 
  6 active torsions:
  status: ('A' for Active; 'I' for Inactive)
    1  A    between atoms: C_3  and  C_22
    2  A    between atoms: C_7  and  C_18
    3  A    between atoms: N_17  and  C_18
    4  A    between atoms: N_17  and  C_20
    5  A    between atoms: C_18  and  N_19
    6  A    between atoms: N_19  and  C_32
                            x       y       z     vdW  Elec       q    Type
                         _______ _______ _______ _____ _____    ______ ____

>  <TORSDO>
F 6

$$$$
=
 OpenBabel11042412183D

 34 40  0  0  1  0  0  0  0  0999 V2000
  185.3480  178.4600  141.8440 C   0  0  2  0  0  3  0  0  0  0  0  0
  186.3950  178.0460  146.8870 C   0  0  0  0  0  3  0  0  0  0  0  0
  185.0540  178.4260  146.8140 C   0  0  0  0  0  3  0  0  0  0  0  0
  186.5320  178.0660  144.4990 N   0  0  0  0  0  0  0  0  0  0  0  0
  184.6200  178.6540  143.1440 C   0  0  0  0  0  0  0  0  0  0  0  0
  185.2270  178.4420  144.3970 C   0  0  0  0  0  0  0  0  0  0  0  0
  187.1250  177.8700  145.7080 C   0  0  0  0  0  3  0  0  0  0  0  0
  184.4610  178.6290  145.5690 C   0  0  0  0  0  0  0  0  0  0  0  0
  182.5580  179.2090  144.2780 C   0  0  0  0  0  3  0  0  0  0  0  0
  183.1570  179.0030  145.4820 N   0  0  0  0  0  0  0  0  0  0  0  0
  183.2780  179.0390  143.0920 C   0  0  0  0  0  3  0  0  0  0  0  0
  186.7900  178.4070  142.0580 N   0  0  0  0  0  2  0  0  0  0  0  0
  188.6390  179.0030  140.5820 C   0  0  0  0  0  2  0  0  0  0  0  0
  187.4170  178.1100  140.7760 C   0  0  1  0  0  3  0  0  0  0  0  0
  188.8180  177.5480  140.9530 C   0  0  1  0  0  0  0  0  0  0  0  0
  189.2370  176.7470  139.8920 O   0  0  0  0  0  1  0  0  0  0  0  0
  189.3530  177.2180  142.3510 C   0  0  2  0  0  0  0  0  0  0  0  0
  191.3320  175.9280  143.3200 C   0  0  0  0  0  2  0  0  0  0  0  0
  190.4260  176.9390  145.3440 C   0  0  0  0  0  2  0  0  0  0  0  0
  190.0190  178.2320  144.6490 C   0  0  0  0  0  2  0  0  0  0  0  0
  190.1550  178.2690  143.1090 C   0  0  1  0  0  3  0  0  0  0  0  0
  190.8770  177.0860  142.4210 C   0  0  2  0  0  3  0  0  0  0  0  0
  188.6210  176.3010  143.1160 O   0  0  0  0  0  1  0  0  0  0  0  0
  191.6810  176.3830  144.7220 C   0  0  0  0  0  2  0  0  0  0  0  0
  185.0220  179.5330  140.9160 N   0  0  0  0  0  2  0  0  0  0  0  0
  182.3290  177.3620  140.4380 S   0  0  0  0  0  0  0  0  0  0  0  0
  183.1790  180.8540  138.6930 C   0  0  0  0  0  3  0  0  0  0  0  0
  184.1040  177.4700  139.9920 C   0  0  0  0  0  2  0  0  0  0  0  0
  182.0770  178.9240  139.6360 C   0  0  0  0  0  0  0  0  0  0  0  0
  180.8260  179.4510  139.3180 C   0  0  0  0  0  3  0  0  0  0  0  0
  183.2330  179.6100  139.3260 C   0  0  0  0  0  0  0  0  0  0  0  0
  180.7550  180.7010  138.6840 C   0  0  0  0  0  3  0  0  0  0  0  0
  181.9300  181.4020  138.3730 C   0  0  0  0  0  3  0  0  0  0  0  0
  184.4880  178.9240  139.7070 C   0  0  1  0  0  3  0  0  0  0  0  0
  1 25  1  6  0  0  0
  1 12  1  0  0  0  0
  1  5  1  0  0  0  0
  3  2  1  0  0  0  0
  4  7  1  0  0  0  0
  5  6  1  0  0  0  0
  6  4  2  0  0  0  0
  6  8  1  0  0  0  0
  7  2  2  0  0  0  0
  8  3  2  0  0  0  0
  9 10  2  0  0  0  0
 10  8  1  0  0  0  0
 11  5  2  0  0  0  0
 11  9  1  0  0  0  0
 13 14  1  0  0  0  0
 13 15  1  0  0  0  0
 14 15  1  0  0  0  0
 14 12  1  1  0  0  0
 15 16  1  6  0  0  0
 15 17  1  0  0  0  0
 17 22  1  0  0  0  0
 17 21  1  0  0  0  0
 17 23  1  1  0  0  0
 18 24  1  0  0  0  0
 20 19  1  0  0  0  0
 21 20  1  1  0  0  0
 22 21  1  0  0  0  0
 22 18  1  1  0  0  0
 24 19  1  0  0  0  0
 27 31  1  0  0  0  0
 28 26  1  0  0  0  0
 29 26  1  0  0  0  0
 30 29  1  0  0  0  0
 31 29  2  0  0  0  0
 31 34  1  0  0  0  0
 32 30  2  0  0  0  0
 33 32  1  0  0  0  0
 33 27  2  0  0  0  0
 34 28  1  0  0  0  0
 34 25  1  1  0  0  0
M  END
>  <MODEL>
8

>  <REMARK>
 VINA RESULT:      -8.1      2.941      8.167
  Name = 
  6 active torsions:
  status: ('A' for Active; 'I' for Inactive)
    1  A    between atoms: C_3  and  C_22
    2  A    between atoms: C_7  and  C_18
    3  A    between atoms: N_17  and  C_18
    4  A    between atoms: N_17  and  C_20
    5  A    between atoms: C_18  and  N_19
    6  A    between atoms: N_19  and  C_32
                            x       y       z     vdW  Elec       q    Type
                         _______ _______ _______ _____ _____    ______ ____

>  <TORSDO>
F 6

$$$$
=
 OpenBabel11042412183D

 34 40  0  0  1  0  0  0  0  0999 V2000
  184.2160  179.0590  139.7400 C   0  0  2  0  0  3  0  0  0  0  0  0
  180.1660  181.9360  138.3150 C   0  0  0  0  0  3  0  0  0  0  0  0
  179.6330  180.8830  139.0600 C   0  0  0  0  0  3  0  0  0  0  0  0
  182.3660  181.0540  138.6420 N   0  0  0  0  0  0  0  0  0  0  0  0
  182.7230  179.0270  139.9070 C   0  0  0  0  0  0  0  0  0  0  0  0
  181.8730  180.0130  139.3700 C   0  0  0  0  0  0  0  0  0  0  0  0
  181.5480  182.0040  138.1130 C   0  0  0  0  0  3  0  0  0  0  0  0
  180.4810  179.9140  139.5920 C   0  0  0  0  0  0  0  0  0  0  0  0
  180.7860  177.9230  140.8430 C   0  0  0  0  0  3  0  0  0  0  0  0
  179.9770  178.8820  140.3180 N   0  0  0  0  0  0  0  0  0  0  0  0
  182.1680  177.9790  140.6460 C   0  0  0  0  0  3  0  0  0  0  0  0
  184.5990  178.6300  138.4000 N   0  0  0  0  0  2  0  0  0  0  0  0
  183.6200  177.1820  136.6970 C   0  0  0  0  0  2  0  0  0  0  0  0
  184.0040  177.3200  138.1680 C   0  0  1  0  0  3  0  0  0  0  0  0
  184.8490  176.4780  137.2270 C   0  0  1  0  0  0  0  0  0  0  0  0
  184.6780  175.1060  137.3980 O   0  0  0  0  0  1  0  0  0  0  0  0
  186.2240  176.9740  136.7620 C   0  0  2  0  0  0  0  0  0  0  0  0
  188.1120  178.3880  137.7410 C   0  0  0  0  0  2  0  0  0  0  0  0
  189.1600  177.6090  135.6840 C   0  0  0  0  0  2  0  0  0  0  0  0
  188.4940  176.2400  135.7310 C   0  0  0  0  0  2  0  0  0  0  0  0
  187.4160  176.0260  136.8200 C   0  0  1  0  0  3  0  0  0  0  0  0
  187.2460  177.1290  137.8910 C   0  0  2  0  0  3  0  0  0  0  0  0
  186.2460  177.9650  135.7730 O   0  0  0  0  0  1  0  0  0  0  0  0
  189.4430  178.1020  137.0790 C   0  0  0  0  0  2  0  0  0  0  0  0
  184.8550  178.2120  140.7360 N   0  0  0  0  0  2  0  0  0  0  0  0
  185.2010  178.3080  144.2100 S   0  0  0  0  0  0  0  0  0  0  0  0
  187.9670  178.0290  141.3400 C   0  0  0  0  0  3  0  0  0  0  0  0
  184.8500  179.4640  142.8300 C   0  0  0  0  0  2  0  0  0  0  0  0
  186.7180  177.8720  143.4000 C   0  0  0  0  0  0  0  0  0  0  0  0
  187.7510  177.1530  144.0010 C   0  0  0  0  0  3  0  0  0  0  0  0
  186.8250  178.3050  142.0950 C   0  0  0  0  0  0  0  0  0  0  0  0
  188.9040  176.8650  143.2550 C   0  0  0  0  0  3  0  0  0  0  0  0
  189.0110  177.3020  141.9260 C   0  0  0  0  0  3  0  0  0  0  0  0
  185.6600  179.0680  141.5930 C   0  0  1  0  0  3  0  0  0  0  0  0
  1 12  1  6  0  0  0
  1  5  1  0  0  0  0
  1 25  1  0  0  0  0
  2  3  1  0  0  0  0
  3  8  2  0  0  0  0
  4  6  2  0  0  0  0
  5 11  2  0  0  0  0
  6  8  1  0  0  0  0
  6  5  1  0  0  0  0
  7  2  2  0  0  0  0
  7  4  1  0  0  0  0
  8 10  1  0  0  0  0
 10  9  2  0  0  0  0
 11  9  1  0  0  0  0
 13 15  1  0  0  0  0
 13 14  1  0  0  0  0
 14 12  1  6  0  0  0
 15 16  1  1  0  0  0
 15 14  1  0  0  0  0
 17 23  1  6  0  0  0
 17 21  1  0  0  0  0
 17 15  1  0  0  0  0
 17 22  1  0  0  0  0
 19 20  1  0  0  0  0
 19 24  1  0  0  0  0
 21 20  1  6  0  0  0
 21 22  1  0  0  0  0
 22 18  1  6  0  0  0
 24 18  1  0  0  0  0
 27 33  2  0  0  0  0
 27 31  1  0  0  0  0
 28 26  1  0  0  0  0
 29 30  1  0  0  0  0
 29 26  1  0  0  0  0
 31 29  2  0  0  0  0
 32 30  2  0  0  0  0
 33 32  1  0  0  0  0
 34 25  1  6  0  0  0
 34 31  1  0  0  0  0
 34 28  1  0  0  0  0
M  END
>  <MODEL>
9

>  <REMARK>
 VINA RESULT:      -8.1      2.798      6.507
  Name = 
  6 active torsions:
  status: ('A' for Active; 'I' for Inactive)
    1  A    between atoms: C_3  and  C_22
    2  A    between atoms: C_7  and  C_18
    3  A    between atoms: N_17  and  C_18
    4  A    between atoms: N_17  and  C_20
    5  A    between atoms: C_18  and  N_19
    6  A    between atoms: N_19  and  C_32
                            x       y       z     vdW  Elec       q    Type
                         _______ _______ _______ _____ _____    ______ ____

>  <TORSDO>
F 6

$$$$
