=
 OpenBabel11042413123D

 32 36  0  0  1  0  0  0  0  0999 V2000
  190.8710  176.6530  141.4540 C   0  0  0  0  0  0  0  0  0  0  0  0
  186.6270  177.9890  144.5130 C   0  0  0  0  0  0  0  0  0  0  0  0
  187.5830  177.8960  137.7880 C   0  0  0  0  0  0  0  0  0  0  0  0
  187.6520  177.9700  139.2560 C   0  0  0  0  0  0  0  0  0  0  0  0
  187.8700  177.4520  144.0300 N   0  0  0  0  0  2  0  0  0  0  0  0
  185.6250  178.2020  142.2410 O   0  0  0  0  0  0  0  0  0  0  0  0
  192.0050  175.8970  137.5900 O   0  0  0  0  0  0  0  0  0  0  0  0
  190.9770  177.9760  143.5810 C   0  0  2  0  0  3  0  0  0  0  0  0
  190.2440  175.5820  143.4660 N   0  0  0  0  0  2  0  0  0  0  0  0
  184.3450  178.7650  144.1720 C   0  0  0  0  0  3  0  0  0  0  0  0
  191.1110  176.5840  139.9780 C   0  0  1  0  0  3  0  0  0  0  0  0
  184.1770  178.9150  145.5480 C   0  0  0  0  0  3  0  0  0  0  0  0
  192.9570  176.6960  138.2460 C   0  0  0  0  0  2  0  0  0  0  0  0
  186.3940  178.2750  137.0940 N   0  0  0  0  0  1  0  0  0  0  0  0
  189.9430  177.1100  139.1750 C   0  0  0  0  0  0  0  0  0  0  0  0
  190.2700  176.7970  144.2790 C   0  0  2  0  0  3  0  0  0  0  0  0
  188.8320  177.5810  139.8850 O   0  0  0  0  0  0  0  0  0  0  0  0
  187.7200  179.1370  141.9300 O   0  0  0  0  0  0  0  0  0  0  0  0
  190.5640  175.5700  142.0970 N   0  0  0  0  0  0  0  0  0  0  0  0
  190.5670  179.3460  144.0940 C   0  0  0  0  0  1  0  0  0  0  0  0
  188.6330  177.4630  135.7170 O   0  0  0  0  0  1  0  0  0  0  0  0
  191.1270  176.7920  136.9690 C   0  0  0  0  0  2  0  0  0  0  0  0
  190.8570  177.9130  142.1310 N   0  0  0  0  0  2  0  0  0  0  0  0
  192.4360  177.2310  139.5870 C   0  0  0  0  0  2  0  0  0  0  0  0
  185.5610  178.3220  143.6360 C   0  0  0  0  0  0  0  0  0  0  0  0
  186.7070  178.5700  141.4390 C   0  0  0  0  0  0  0  0  0  0  0  0
  188.9280  177.0680  144.9610 C   0  0  0  0  0  2  0  0  0  0  0  0
  188.6690  177.5010  137.1080 C   0  0  0  0  0  0  0  0  0  0  0  0
  185.2280  178.6130  146.4120 C   0  0  0  0  0  3  0  0  0  0  0  0
  186.6130  178.3700  139.9870 C   0  0  0  0  0  3  0  0  0  0  0  0
  189.9110  177.0900  137.8170 C   0  0  0  0  0  0  0  0  0  0  0  0
  186.4390  178.1500  145.8980 C   0  0  0  0  0  3  0  0  0  0  0  0
  1 19  2  0  0  0  0
  1 23  1  0  0  0  0
  2 32  1  0  0  0  0
  3  4  1  0  0  0  0
  4 17  1  0  0  0  0
  4 30  2  0  0  0  0
  5  2  1  0  0  0  0
  5 27  1  0  0  0  0
  6 25  1  0  0  0  0
  7 13  1  0  0  0  0
  8 20  1  1  0  0  0
  8 16  1  0  0  0  0
  9 16  1  0  0  0  0
 10 12  2  0  0  0  0
 11 24  1  1  0  0  0
 11  1  1  0  0  0  0
 12 29  1  0  0  0  0
 13 24  1  0  0  0  0
 14  3  1  0  0  0  0
 15 17  1  0  0  0  0
 15 11  1  0  0  0  0
 16 27  1  6  0  0  0
 19  9  1  0  0  0  0
 21 28  1  0  0  0  0
 22  7  1  0  0  0  0
 22 31  1  0  0  0  0
 23  8  1  0  0  0  0
 25 10  1  0  0  0  0
 25  2  2  0  0  0  0
 26 18  2  0  0  0  0
 26  6  1  0  0  0  0
 28  3  2  0  0  0  0
 28 31  1  0  0  0  0
 30 26  1  0  0  0  0
 31 15  2  0  0  0  0
 32 29  2  0  0  0  0
M  END
>  <MODEL>
1

>  <REMARK>
 VINA RESULT:     -10.2      0.000      0.000
  Name = 
  0 active torsions:
  status: ('A' for Active; 'I' for Inactive)
                            x       y       z     vdW  Elec       q    Type
                         _______ _______ _______ _____ _____    ______ ____

>  <TORSDO>
F 0

$$$$
=
 OpenBabel11042413123D

 32 36  0  0  1  0  0  0  0  0999 V2000
  189.8620  177.9190  145.3100 C   0  0  0  0  0  0  0  0  0  0  0  0
  190.2650  177.4410  139.9470 C   0  0  0  0  0  0  0  0  0  0  0  0
  184.9810  178.5690  144.0640 C   0  0  0  0  0  0  0  0  0  0  0  0
  186.2310  178.1840  143.3920 C   0  0  0  0  0  0  0  0  0  0  0  0
  190.5450  177.6330  141.3430 N   0  0  0  0  0  2  0  0  0  0  0  0
  187.8520  178.0240  140.1630 O   0  0  0  0  0  0  0  0  0  0  0  0
  187.2990  179.0280  148.3080 O   0  0  0  0  0  0  0  0  0  0  0  0
  191.2760  176.2340  144.1070 C   0  0  2  0  0  3  0  0  0  0  0  0
  191.6630  178.7070  143.9980 N   0  0  0  0  0  2  0  0  0  0  0  0
  188.7770  177.5300  138.0220 C   0  0  0  0  0  3  0  0  0  0  0  0
  188.7300  178.2020  146.2480 C   0  0  1  0  0  3  0  0  0  0  0  0
  189.8270  177.1690  137.1780 C   0  0  0  0  0  3  0  0  0  0  0  0
  187.9860  177.8500  148.6450 C   0  0  0  0  0  2  0  0  0  0  0  0
  183.7760  178.7430  143.3190 N   0  0  0  0  0  1  0  0  0  0  0  0
  187.3930  178.2550  145.5450 C   0  0  0  0  0  0  0  0  0  0  0  0
  191.9640  177.4120  143.3900 C   0  0  2  0  0  3  0  0  0  0  0  0
  187.3820  178.0350  144.1630 O   0  0  0  0  0  0  0  0  0  0  0  0
  188.1460  176.5450  141.9190 O   0  0  0  0  0  0  0  0  0  0  0  0
  190.6370  178.8910  144.9410 N   0  0  0  0  0  0  0  0  0  0  0  0
  191.0910  174.9960  143.2450 C   0  0  0  0  0  1  0  0  0  0  0  0
  183.7990  179.0470  146.0530 O   0  0  0  0  0  1  0  0  0  0  0  0
  186.1140  178.6090  147.6930 C   0  0  0  0  0  2  0  0  0  0  0  0
  190.0160  176.6220  144.7250 N   0  0  0  0  0  2  0  0  0  0  0  0
  188.7340  177.2540  147.4440 C   0  0  0  0  0  2  0  0  0  0  0  0
  188.9700  177.6540  139.4030 C   0  0  0  0  0  0  0  0  0  0  0  0
  187.4970  177.4960  141.4060 C   0  0  0  0  0  0  0  0  0  0  0  0
  191.8990  177.4580  141.8620 C   0  0  0  0  0  2  0  0  0  0  0  0
  184.9830  178.7200  145.3970 C   0  0  0  0  0  0  0  0  0  0  0  0
  191.0930  176.9340  137.7080 C   0  0  0  0  0  3  0  0  0  0  0  0
  186.2910  178.0030  142.0730 C   0  0  0  0  0  3  0  0  0  0  0  0
  186.2340  178.5560  146.1860 C   0  0  0  0  0  0  0  0  0  0  0  0
  191.3100  177.0740  139.0790 C   0  0  0  0  0  3  0  0  0  0  0  0
  1 11  1  0  0  0  0
  2  5  1  0  0  0  0
  3 28  2  0  0  0  0
  4  3  1  0  0  0  0
  4 17  1  0  0  0  0
  5 27  1  0  0  0  0
  6 26  1  0  0  0  0
  7 13  1  0  0  0  0
  8 20  1  6  0  0  0
  8 23  1  0  0  0  0
  9 19  1  0  0  0  0
 10 25  2  0  0  0  0
 11 24  1  1  0  0  0
 12 29  2  0  0  0  0
 12 10  1  0  0  0  0
 14  3  1  0  0  0  0
 15 31  2  0  0  0  0
 15 11  1  0  0  0  0
 16 27  1  6  0  0  0
 16  9  1  0  0  0  0
 16  8  1  0  0  0  0
 17 15  1  0  0  0  0
 19  1  2  0  0  0  0
 22  7  1  0  0  0  0
 23  1  1  0  0  0  0
 24 13  1  0  0  0  0
 25  2  1  0  0  0  0
 25  6  1  0  0  0  0
 26 18  2  0  0  0  0
 26 30  1  0  0  0  0
 28 21  1  0  0  0  0
 28 31  1  0  0  0  0
 29 32  1  0  0  0  0
 30  4  2  0  0  0  0
 31 22  1  0  0  0  0
 32  2  2  0  0  0  0
M  END
>  <MODEL>
2

>  <REMARK>
 VINA RESULT:      -9.6      2.179      7.035
  Name = 
  0 active torsions:
  status: ('A' for Active; 'I' for Inactive)
                            x       y       z     vdW  Elec       q    Type
                         _______ _______ _______ _____ _____    ______ ____

>  <TORSDO>
F 0

$$$$
=
 OpenBabel11042413123D

 32 36  0  0  1  0  0  0  0  0999 V2000
  183.9870  178.2090  141.7310 C   0  0  0  0  0  0  0  0  0  0  0  0
  186.4150  177.3460  136.9860 C   0  0  0  0  0  0  0  0  0  0  0  0
  188.7570  177.5790  143.3590 C   0  0  0  0  0  0  0  0  0  0  0  0
  188.0570  177.7120  142.0720 C   0  0  0  0  0  0  0  0  0  0  0  0
  185.4470  177.4820  138.0410 N   0  0  0  0  0  2  0  0  0  0  0  0
  188.3290  176.9840  138.5400 O   0  0  0  0  0  0  0  0  0  0  0  0
  184.5710  178.0210  145.7830 O   0  0  0  0  0  0  0  0  0  0  0  0
  183.5130  179.4610  139.6120 C   0  0  2  0  0  3  0  0  0  0  0  0
  183.0560  177.0170  139.9150 N   0  0  0  0  0  2  0  0  0  0  0  0
  188.6650  176.8860  136.1820 C   0  0  0  0  0  3  0  0  0  0  0  0
  184.4570  178.2330  143.1530 C   0  0  1  0  0  3  0  0  0  0  0  0
  188.2230  176.9660  134.8620 C   0  0  0  0  0  3  0  0  0  0  0  0
  183.8960  179.2010  145.4270 C   0  0  0  0  0  2  0  0  0  0  0  0
  190.1570  177.3040  143.4030 N   0  0  0  0  0  1  0  0  0  0  0  0
  185.9570  178.0930  143.2700 C   0  0  0  0  0  0  0  0  0  0  0  0
  183.2030  178.1050  138.9500 C   0  0  2  0  0  3  0  0  0  0  0  0
  186.6890  177.9720  142.0830 O   0  0  0  0  0  0  0  0  0  0  0  0
  187.2880  178.8230  139.4840 O   0  0  0  0  0  0  0  0  0  0  0  0
  183.4400  177.1310  141.2630 N   0  0  0  0  0  0  0  0  0  0  0  0
  184.2010  180.4630  138.7000 C   0  0  0  0  0  1  0  0  0  0  0  0
  188.7190  177.6710  145.7190 O   0  0  0  0  0  1  0  0  0  0  0  0
  185.9310  178.3500  145.7820 C   0  0  0  0  0  2  0  0  0  0  0  0
  184.2480  179.3130  140.8600 N   0  0  0  0  0  2  0  0  0  0  0  0
  183.9120  179.4400  143.9100 C   0  0  0  0  0  2  0  0  0  0  0  0
  187.7860  177.0890  137.2520 C   0  0  0  0  0  0  0  0  0  0  0  0
  188.0370  177.8180  139.6210 C   0  0  0  0  0  0  0  0  0  0  0  0
  184.0350  177.6930  137.7340 C   0  0  0  0  0  2  0  0  0  0  0  0
  188.0640  177.7560  144.4930 C   0  0  0  0  0  0  0  0  0  0  0  0
  186.8850  177.2440  134.5940 C   0  0  0  0  0  3  0  0  0  0  0  0
  188.6930  177.5630  140.9100 C   0  0  0  0  0  3  0  0  0  0  0  0
  186.6010  178.0290  144.4650 C   0  0  0  0  0  0  0  0  0  0  0  0
  185.9890  177.4270  135.6480 C   0  0  0  0  0  3  0  0  0  0  0  0
  1 11  1  0  0  0  0
  2 25  1  0  0  0  0
  2  5  1  0  0  0  0
  3 14  1  0  0  0  0
  3 28  2  0  0  0  0
  4 17  1  0  0  0  0
  4  3  1  0  0  0  0
  6 26  1  0  0  0  0
  8 20  1  6  0  0  0
  8 23  1  0  0  0  0
  9 19  1  0  0  0  0
 10 25  2  0  0  0  0
 11 15  1  0  0  0  0
 11 24  1  6  0  0  0
 12 10  1  0  0  0  0
 13  7  1  0  0  0  0
 15 31  2  0  0  0  0
 16 27  1  6  0  0  0
 16  8  1  0  0  0  0
 16  9  1  0  0  0  0
 17 15  1  0  0  0  0
 18 26  2  0  0  0  0
 19  1  2  0  0  0  0
 22  7  1  0  0  0  0
 23  1  1  0  0  0  0
 24 13  1  0  0  0  0
 25  6  1  0  0  0  0
 26 30  1  0  0  0  0
 27  5  1  0  0  0  0
 28 21  1  0  0  0  0
 29 12  2  0  0  0  0
 29 32  1  0  0  0  0
 30  4  2  0  0  0  0
 31 28  1  0  0  0  0
 31 22  1  0  0  0  0
 32  2  2  0  0  0  0
M  END
>  <MODEL>
3

>  <REMARK>
 VINA RESULT:      -8.1      2.543      8.009
  Name = 
  0 active torsions:
  status: ('A' for Active; 'I' for Inactive)
                            x       y       z     vdW  Elec       q    Type
                         _______ _______ _______ _____ _____    ______ ____

>  <TORSDO>
F 0

$$$$
=
 OpenBabel11042413123D

 32 36  0  0  1  0  0  0  0  0999 V2000
  184.6660  177.1650  137.6440 C   0  0  0  0  0  0  0  0  0  0  0  0
  189.4770  177.2210  140.0940 C   0  0  0  0  0  0  0  0  0  0  0  0
  183.2080  178.6750  142.2700 C   0  0  0  0  0  0  0  0  0  0  0  0
  184.4700  178.4480  141.5500 C   0  0  0  0  0  0  0  0  0  0  0  0
  188.3900  176.9770  139.1860 N   0  0  0  0  0  2  0  0  0  0  0  0
  187.9890  177.7630  142.0190 O   0  0  0  0  0  0  0  0  0  0  0  0
  180.6360  177.4020  138.3510 O   0  0  0  0  0  0  0  0  0  0  0  0
  186.7960  178.0150  136.6340 C   0  0  2  0  0  3  0  0  0  0  0  0
  186.4130  175.6200  137.2630 N   0  0  0  0  0  2  0  0  0  0  0  0
  190.3560  177.7230  142.3080 C   0  0  0  0  0  3  0  0  0  0  0  0
  183.2650  177.4410  138.0940 C   0  0  1  0  0  3  0  0  0  0  0  0
  191.6590  177.5560  141.8420 C   0  0  0  0  0  3  0  0  0  0  0  0
  180.9960  178.1720  137.2320 C   0  0  0  0  0  2  0  0  0  0  0  0
  183.2110  179.0190  143.6550 N   0  0  0  0  0  1  0  0  0  0  0  0
  183.2020  177.9540  139.5150 C   0  0  0  0  0  0  0  0  0  0  0  0
  187.4110  176.6280  136.9120 C   0  0  2  0  0  3  0  0  0  0  0  0
  184.4120  178.1060  140.2000 O   0  0  0  0  0  0  0  0  0  0  0  0
  187.0540  179.0260  140.3200 O   0  0  0  0  0  0  0  0  0  0  0  0
  185.0840  175.9400  137.5950 N   0  0  0  0  0  0  0  0  0  0  0  0
  187.7610  179.1760  136.8120 C   0  0  0  0  0  1  0  0  0  0  0  0
  180.8520  178.8360  142.2530 O   0  0  0  0  0  1  0  0  0  0  0  0
  180.6990  178.2760  139.4430 C   0  0  0  0  0  2  0  0  0  0  0  0
  185.5750  178.2400  137.3920 N   0  0  0  0  0  2  0  0  0  0  0  0
  182.5180  178.3350  137.1080 C   0  0  0  0  0  2  0  0  0  0  0  0
  189.2580  177.5780  141.4510 C   0  0  0  0  0  0  0  0  0  0  0  0
  186.9210  178.4380  141.4270 C   0  0  0  0  0  0  0  0  0  0  0  0
  188.6470  176.5590  137.8100 C   0  0  0  0  0  2  0  0  0  0  0  0
  182.0520  178.5870  141.5950 C   0  0  0  0  0  0  0  0  0  0  0  0
  191.8820  177.2310  140.5060 C   0  0  0  0  0  3  0  0  0  0  0  0
  185.6510  178.5360  142.1600 C   0  0  0  0  0  3  0  0  0  0  0  0
  182.0320  178.2150  140.1540 C   0  0  0  0  0  0  0  0  0  0  0  0
  190.8000  177.0600  139.6430 C   0  0  0  0  0  3  0  0  0  0  0  0
  1 11  1  0  0  0  0
  2 25  1  0  0  0  0
  3 14  1  0  0  0  0
  4 30  2  0  0  0  0
  4  3  1  0  0  0  0
  5  2  1  0  0  0  0
  7 22  1  0  0  0  0
  8 20  1  1  0  0  0
  8 16  1  0  0  0  0
  8 23  1  0  0  0  0
  9 19  1  0  0  0  0
 11 24  1  6  0  0  0
 11 15  1  0  0  0  0
 12 10  1  0  0  0  0
 13  7  1  0  0  0  0
 15 31  2  0  0  0  0
 15 17  1  0  0  0  0
 16  9  1  0  0  0  0
 16 27  1  1  0  0  0
 17  4  1  0  0  0  0
 18 26  2  0  0  0  0
 19  1  2  0  0  0  0
 22 31  1  0  0  0  0
 23  1  1  0  0  0  0
 24 13  1  0  0  0  0
 25  6  1  0  0  0  0
 25 10  2  0  0  0  0
 26  6  1  0  0  0  0
 26 30  1  0  0  0  0
 27  5  1  0  0  0  0
 28 21  1  0  0  0  0
 28  3  2  0  0  0  0
 29 12  2  0  0  0  0
 31 28  1  0  0  0  0
 32  2  2  0  0  0  0
 32 29  1  0  0  0  0
M  END
>  <MODEL>
4

>  <REMARK>
 VINA RESULT:      -8.0      3.178      7.433
  Name = 
  0 active torsions:
  status: ('A' for Active; 'I' for Inactive)
                            x       y       z     vdW  Elec       q    Type
                         _______ _______ _______ _____ _____    ______ ____

>  <TORSDO>
F 0

$$$$
=
 OpenBabel11042413123D

 32 36  0  0  1  0  0  0  0  0999 V2000
  184.6430  177.2560  137.9890 C   0  0  0  0  0  0  0  0  0  0  0  0
  189.9160  176.9500  139.1070 C   0  0  0  0  0  0  0  0  0  0  0  0
  184.5570  178.9250  142.7850 C   0  0  0  0  0  0  0  0  0  0  0  0
  185.5680  178.5910  141.7700 C   0  0  0  0  0  0  0  0  0  0  0  0
  188.6150  176.7850  138.5190 N   0  0  0  0  0  2  0  0  0  0  0  0
  189.0260  177.6300  141.3330 O   0  0  0  0  0  0  0  0  0  0  0  0
  180.9660  177.8230  139.7060 O   0  0  0  0  0  0  0  0  0  0  0  0
  186.4940  177.9210  136.4360 C   0  0  2  0  0  3  0  0  0  0  0  0
  186.1100  175.5710  137.2160 N   0  0  0  0  0  2  0  0  0  0  0  0
  191.3760  177.4030  141.0010 C   0  0  0  0  0  3  0  0  0  0  0  0
  183.4320  177.6480  138.7770 C   0  0  1  0  0  3  0  0  0  0  0  0
  192.4970  177.1280  140.2190 C   0  0  0  0  0  3  0  0  0  0  0  0
  181.0790  178.5490  138.5090 C   0  0  0  0  0  2  0  0  0  0  0  0
  184.9470  179.2830  144.1110 N   0  0  0  0  0  1  0  0  0  0  0  0
  183.7800  178.1790  140.1490 C   0  0  0  0  0  0  0  0  0  0  0  0
  187.0540  176.4930  136.5880 C   0  0  2  0  0  3  0  0  0  0  0  0
  185.1350  178.2400  140.4930 O   0  0  0  0  0  0  0  0  0  0  0  0
  187.7780  178.9470  139.8960 O   0  0  0  0  0  0  0  0  0  0  0  0
  184.9410  176.0000  137.8700 N   0  0  0  0  0  0  0  0  0  0  0  0
  187.5560  179.0020  136.3210 C   0  0  0  0  0  1  0  0  0  0  0  0
  182.2970  179.2750  143.3740 O   0  0  0  0  0  1  0  0  0  0  0  0
  181.3760  178.6990  140.7170 C   0  0  0  0  0  2  0  0  0  0  0  0
  185.5330  178.2520  137.4770 N   0  0  0  0  0  2  0  0  0  0  0  0
  182.5240  178.5890  137.9910 C   0  0  0  0  0  2  0  0  0  0  0  0
  190.0850  177.3380  140.4630 C   0  0  0  0  0  0  0  0  0  0  0  0
  187.8940  178.3830  141.0180 C   0  0  0  0  0  0  0  0  0  0  0  0
  188.4740  176.3340  137.1370 C   0  0  0  0  0  2  0  0  0  0  0  0
  183.2630  178.9240  142.4350 C   0  0  0  0  0  0  0  0  0  0  0  0
  192.3400  176.7720  138.8820 C   0  0  0  0  0  3  0  0  0  0  0  0
  186.8700  178.5900  142.0500 C   0  0  0  0  0  3  0  0  0  0  0  0
  182.8400  178.5400  141.0610 C   0  0  0  0  0  0  0  0  0  0  0  0
  191.0600  176.6800  138.3340 C   0  0  0  0  0  3  0  0  0  0  0  0
  1 11  1  0  0  0  0
  2 25  1  0  0  0  0
  3 14  1  0  0  0  0
  4 30  2  0  0  0  0
  4  3  1  0  0  0  0
  5  2  1  0  0  0  0
  7 22  1  0  0  0  0
  8 20  1  1  0  0  0
  8 16  1  0  0  0  0
  8 23  1  0  0  0  0
  9 19  1  0  0  0  0
 11 24  1  6  0  0  0
 11 15  1  0  0  0  0
 12 10  1  0  0  0  0
 13  7  1  0  0  0  0
 15 17  1  0  0  0  0
 15 31  2  0  0  0  0
 16 27  1  1  0  0  0
 16  9  1  0  0  0  0
 17  4  1  0  0  0  0
 18 26  2  0  0  0  0
 19  1  2  0  0  0  0
 22 31  1  0  0  0  0
 23  1  1  0  0  0  0
 24 13  1  0  0  0  0
 25 10  2  0  0  0  0
 25  6  1  0  0  0  0
 26  6  1  0  0  0  0
 26 30  1  0  0  0  0
 27  5  1  0  0  0  0
 28  3  2  0  0  0  0
 28 21  1  0  0  0  0
 29 12  2  0  0  0  0
 31 28  1  0  0  0  0
 32 29  1  0  0  0  0
 32  2  2  0  0  0  0
M  END
>  <MODEL>
5

>  <REMARK>
 VINA RESULT:      -7.9      2.781      7.683
  Name = 
  0 active torsions:
  status: ('A' for Active; 'I' for Inactive)
                            x       y       z     vdW  Elec       q    Type
                         _______ _______ _______ _____ _____    ______ ____

>  <TORSDO>
F 0

$$$$
=
 OpenBabel11042413123D

 32 36  0  0  1  0  0  0  0  0999 V2000
  185.9160  176.6470  136.9010 C   0  0  0  0  0  0  0  0  0  0  0  0
  189.4970  177.3960  140.8710 C   0  0  0  0  0  0  0  0  0  0  0  0
  182.7930  178.4230  140.4910 C   0  0  0  0  0  0  0  0  0  0  0  0
  184.2420  178.2560  140.2980 C   0  0  0  0  0  0  0  0  0  0  0  0
  188.8300  176.9650  139.6730 N   0  0  0  0  0  2  0  0  0  0  0  0
  187.3840  177.9630  142.0630 O   0  0  0  0  0  0  0  0  0  0  0  0
  181.8980  176.5530  136.0990 O   0  0  0  0  0  0  0  0  0  0  0  0
  188.2150  177.6040  136.6160 C   0  0  2  0  0  3  0  0  0  0  0  0
  187.7690  175.2510  137.3520 N   0  0  0  0  0  2  0  0  0  0  0  0
  189.4820  178.1810  143.1750 C   0  0  0  0  0  3  0  0  0  0  0  0
  184.4330  176.8250  136.7880 C   0  0  1  0  0  3  0  0  0  0  0  0
  190.8730  178.1010  143.2250 C   0  0  0  0  0  3  0  0  0  0  0  0
  182.5950  177.2480  135.0960 C   0  0  0  0  0  2  0  0  0  0  0  0
  182.2730  178.8920  141.7350 N   0  0  0  0  0  1  0  0  0  0  0  0
  183.8290  177.4560  138.0210 C   0  0  0  0  0  0  0  0  0  0  0  0
  188.7660  176.3160  137.2590 C   0  0  2  0  0  3  0  0  0  0  0  0
  184.6980  177.7880  139.0670 O   0  0  0  0  0  0  0  0  0  0  0  0
  187.0570  178.9690  140.0040 O   0  0  0  0  0  0  0  0  0  0  0  0
  186.3940  175.4680  137.1510 N   0  0  0  0  0  0  0  0  0  0  0  0
  188.9800  178.8650  136.9830 C   0  0  0  0  0  1  0  0  0  0  0  0
  180.5990  178.3520  139.6210 O   0  0  0  0  0  1  0  0  0  0  0  0
  181.5090  177.5240  137.0280 C   0  0  0  0  0  2  0  0  0  0  0  0
  186.7900  177.7780  136.8590 N   0  0  0  0  0  2  0  0  0  0  0  0
  184.0450  177.5470  135.5010 C   0  0  0  0  0  2  0  0  0  0  0  0
  188.7800  177.8520  142.0090 C   0  0  0  0  0  0  0  0  0  0  0  0
  186.5650  178.4750  141.0540 C   0  0  0  0  0  0  0  0  0  0  0  0
  189.5930  176.4500  138.5390 C   0  0  0  0  0  2  0  0  0  0  0  0
  181.9690  178.1620  139.4660 C   0  0  0  0  0  0  0  0  0  0  0  0
  191.5840  177.6780  142.1040 C   0  0  0  0  0  3  0  0  0  0  0  0
  185.1130  178.5140  141.2720 C   0  0  0  0  0  3  0  0  0  0  0  0
  182.4940  177.6600  138.1680 C   0  0  0  0  0  0  0  0  0  0  0  0
  190.9010  177.3250  140.9410 C   0  0  0  0  0  3  0  0  0  0  0  0
  1 19  2  0  0  0  0
  2 32  2  0  0  0  0
  2 25  1  0  0  0  0
  3 14  1  0  0  0  0
  4  3  1  0  0  0  0
  4 30  2  0  0  0  0
  5  2  1  0  0  0  0
  7 22  1  0  0  0  0
  8 23  1  0  0  0  0
  8 20  1  1  0  0  0
  8 16  1  0  0  0  0
 10 12  1  0  0  0  0
 11 24  1  6  0  0  0
 11  1  1  0  0  0  0
 11 15  1  0  0  0  0
 13 24  1  0  0  0  0
 13  7  1  0  0  0  0
 15 31  2  0  0  0  0
 15 17  1  0  0  0  0
 16  9  1  0  0  0  0
 16 27  1  1  0  0  0
 17  4  1  0  0  0  0
 18 26  2  0  0  0  0
 19  9  1  0  0  0  0
 22 31  1  0  0  0  0
 23  1  1  0  0  0  0
 25  6  1  0  0  0  0
 25 10  2  0  0  0  0
 26 30  1  0  0  0  0
 26  6  1  0  0  0  0
 27  5  1  0  0  0  0
 28 21  1  0  0  0  0
 28  3  2  0  0  0  0
 29 12  2  0  0  0  0
 31 28  1  0  0  0  0
 32 29  1  0  0  0  0
M  END
>  <MODEL>
6

>  <REMARK>
 VINA RESULT:      -7.6      3.372      6.643
  Name = 
  0 active torsions:
  status: ('A' for Active; 'I' for Inactive)
                            x       y       z     vdW  Elec       q    Type
                         _______ _______ _______ _____ _____    ______ ____

>  <TORSDO>
F 0

$$$$
=
 OpenBabel11042413123D

 32 36  0  0  1  0  0  0  0  0999 V2000
  180.9060  177.8280  139.9850 C   0  0  0  0  0  0  0  0  0  0  0  0
  185.2710  177.6880  136.8090 C   0  0  0  0  0  0  0  0  0  0  0  0
  184.4430  179.0920  143.4040 C   0  0  0  0  0  0  0  0  0  0  0  0
  184.3630  178.8910  141.9490 C   0  0  0  0  0  0  0  0  0  0  0  0
  183.9570  177.5090  137.3630 N   0  0  0  0  0  2  0  0  0  0  0  0
  186.3380  178.1390  139.0160 O   0  0  0  0  0  0  0  0  0  0  0  0
  179.7200  178.0730  143.8990 O   0  0  0  0  0  0  0  0  0  0  0  0
  181.0210  178.7080  137.6410 C   0  0  2  0  0  3  0  0  0  0  0  0
  181.2730  176.2860  138.2320 N   0  0  0  0  0  2  0  0  0  0  0  0
  187.6670  178.0540  137.0380 C   0  0  0  0  0  3  0  0  0  0  0  0
  180.6860  178.0950  141.4420 C   0  0  1  0  0  3  0  0  0  0  0  0
  187.8340  177.8990  135.6620 C   0  0  0  0  0  3  0  0  0  0  0  0
  178.9310  178.9000  143.0820 C   0  0  0  0  0  2  0  0  0  0  0  0
  185.6960  179.3580  144.0350 N   0  0  0  0  0  1  0  0  0  0  0  0
  181.9500  178.5280  142.1500 C   0  0  0  0  0  0  0  0  0  0  0  0
  181.4700  177.3010  137.1980 C   0  0  2  0  0  3  0  0  0  0  0  0
  183.1170  178.6260  141.3840 O   0  0  0  0  0  0  0  0  0  0  0  0
  184.4730  179.5070  139.0980 O   0  0  0  0  0  0  0  0  0  0  0  0
  180.9840  176.6020  139.5710 N   0  0  0  0  0  0  0  0  0  0  0  0
  181.6810  179.8450  136.8790 C   0  0  0  0  0  1  0  0  0  0  0  0
  183.3690  179.2820  145.4990 O   0  0  0  0  0  1  0  0  0  0  0  0
  180.7680  178.8830  144.3520 C   0  0  0  0  0  2  0  0  0  0  0  0
  181.1540  178.9050  139.0770 N   0  0  0  0  0  2  0  0  0  0  0  0
  179.5200  179.0520  141.6730 C   0  0  0  0  0  2  0  0  0  0  0  0
  186.3980  177.9710  137.6250 C   0  0  0  0  0  0  0  0  0  0  0  0
  185.3650  178.8590  139.7100 C   0  0  0  0  0  0  0  0  0  0  0  0
  182.8260  177.1670  136.5030 C   0  0  0  0  0  2  0  0  0  0  0  0
  183.3140  179.0560  144.1260 C   0  0  0  0  0  0  0  0  0  0  0  0
  186.7290  177.6470  134.8530 C   0  0  0  0  0  3  0  0  0  0  0  0
  185.4460  178.9300  141.1750 C   0  0  0  0  0  3  0  0  0  0  0  0
  182.0020  178.7670  143.4860 C   0  0  0  0  0  0  0  0  0  0  0  0
  185.4610  177.5380  135.4230 C   0  0  0  0  0  3  0  0  0  0  0  0
  1 11  1  0  0  0  0
  2  5  1  0  0  0  0
  2 25  1  0  0  0  0
  3 14  1  0  0  0  0
  3 28  2  0  0  0  0
  4  3  1  0  0  0  0
  6 26  1  0  0  0  0
  7 22  1  0  0  0  0
  8 20  1  6  0  0  0
  8 23  1  0  0  0  0
  9 19  1  0  0  0  0
 10 25  2  0  0  0  0
 11 24  1  6  0  0  0
 11 15  1  0  0  0  0
 12 10  1  0  0  0  0
 13  7  1  0  0  0  0
 15 31  2  0  0  0  0
 16 27  1  1  0  0  0
 16  8  1  0  0  0  0
 16  9  1  0  0  0  0
 17  4  1  0  0  0  0
 17 15  1  0  0  0  0
 18 26  2  0  0  0  0
 19  1  2  0  0  0  0
 23  1  1  0  0  0  0
 24 13  1  0  0  0  0
 25  6  1  0  0  0  0
 26 30  1  0  0  0  0
 27  5  1  0  0  0  0
 28 21  1  0  0  0  0
 29 32  1  0  0  0  0
 29 12  2  0  0  0  0
 30  4  2  0  0  0  0
 31 28  1  0  0  0  0
 31 22  1  0  0  0  0
 32  2  2  0  0  0  0
M  END
>  <MODEL>
7

>  <REMARK>
 VINA RESULT:      -7.3      4.075      9.580
  Name = 
  0 active torsions:
  status: ('A' for Active; 'I' for Inactive)
                            x       y       z     vdW  Elec       q    Type
                         _______ _______ _______ _____ _____    ______ ____

>  <TORSDO>
F 0

$$$$
