=
 OpenBabel11042410443D

 38 41  0  0  1  0  0  0  0  0999 V2000
  187.4240  177.2930  144.8660 C   0  0  0  0  0  2  0  0  0  0  0  0
  185.2270  178.1490  144.0070 C   0  0  1  0  0  3  0  0  0  0  0  0
  179.6440  180.2150  138.7740 C   0  0  0  0  0  1  0  0  0  0  0  0
  183.0530  178.5310  142.8210 O   0  0  0  0  0  0  0  0  0  0  0  0
  180.6590  179.9360  139.7770 N   0  0  0  0  0  0  0  0  0  0  0  0
  180.3100  179.9970  141.1910 C   0  0  0  0  0  2  0  0  0  0  0  0
  182.2610  178.3910  141.6450 C   0  0  1  0  0  3  0  0  0  0  0  0
  184.8810  179.7150  139.2960 O   0  0  0  0  0  1  0  0  0  0  0  0
  184.2440  179.1700  140.4080 C   0  0  0  0  0  0  0  0  0  0  0  0
  185.0600  178.7370  141.5690 C   0  0  0  0  0  0  0  0  0  0  0  0
  182.4100  179.8030  138.2310 O   0  0  0  0  0  0  0  0  0  0  0  0
  186.7570  178.2150  143.8570 C   0  0  2  0  0  3  0  0  0  0  0  0
  180.7820  178.7300  141.9070 C   0  0  0  0  0  2  0  0  0  0  0  0
  182.0080  179.6240  139.4130 C   0  0  0  0  0  0  0  0  0  0  0  0
  186.5580  178.7420  141.4470 C   0  0  0  0  0  2  0  0  0  0  0  0
  184.7780  179.0410  145.1510 C   0  0  0  0  0  1  0  0  0  0  0  0
  184.4530  178.4940  142.7530 C   0  0  0  0  0  0  0  0  0  0  0  0
  187.1920  177.8000  142.4600 C   0  0  0  0  0  2  0  0  0  0  0  0
  182.9010  179.0840  140.4600 C   0  0  0  0  0  0  0  0  0  0  0  0
  188.8090  177.8040  145.2310 C   0  0  2  0  0  3  0  0  0  0  0  0
  190.7380  177.8640  143.5930 C   0  0  0  0  0  0  0  0  0  0  0  0
  190.7020  179.1230  143.5380 O   0  0  0  0  0  0  0  0  0  0  0  0
  189.8030  177.1420  144.3970 N   0  0  0  0  0  2  0  0  0  0  0  0
  191.7830  177.1210  142.8400 C   0  0  0  0  0  2  0  0  0  0  0  0
  191.6720  177.4270  141.3870 C   0  0  0  0  0  3  0  0  0  0  0  0
  190.6220  176.9930  140.6950 C   0  0  0  0  0  3  0  0  0  0  0  0
  190.4810  177.2880  139.2310 C   0  0  1  0  0  3  0  0  0  0  0  0
  190.9420  176.0650  138.4410 C   0  0  0  0  0  2  0  0  0  0  0  0
  192.3510  176.2730  137.9200 C   0  0  0  0  0  1  0  0  0  0  0  0
  189.0190  177.6260  138.8960 C   0  0  1  0  0  3  0  0  0  0  0  0
  188.8450  179.0440  138.6660 N   0  0  0  0  0  0  0  0  0  0  0  0
  188.9700  179.5120  137.5740 O   0  0  0  0  0  0  0  0  0  0  0  0
  187.3640  176.4970  137.6400 O   0  0  0  0  0  0  0  0  0  0  0  0
  188.5290  176.8510  137.7070 C   0  0  0  0  0  3  0  0  0  0  0  0
  189.0650  177.5270  146.5770 O   0  0  0  0  0  0  0  0  0  0  0  0
  187.8170  177.5910  147.2000 C   0  0  0  0  0  3  0  0  0  0  0  0
  187.9440  177.0860  148.6230 C   0  0  0  0  0  2  0  0  0  0  0  0
  187.8890  178.5740  148.3510 C   0  0  0  0  0  2  0  0  0  0  0  0
  2 16  1  1  0  0  0
  3  5  1  0  0  0  0
  5  6  1  0  0  0  0
  6 13  1  0  0  0  0
  7 13  1  1  0  0  0
  7  4  1  0  0  0  0
  8  9  1  0  0  0  0
  9 19  2  0  0  0  0
  9 10  1  0  0  0  0
 10 17  2  0  0  0  0
 11 14  2  0  0  0  0
 12  2  1  0  0  0  0
 12  1  1  1  0  0  0
 14  5  1  0  0  0  0
 14 19  1  0  0  0  0
 15 10  1  0  0  0  0
 15 18  1  0  0  0  0
 17  4  1  0  0  0  0
 17  2  1  0  0  0  0
 18 12  1  0  0  0  0
 19  7  1  0  0  0  0
 20  1  1  6  0  0  0
 20 35  1  0  0  0  0
 21 23  1  0  0  0  0
 22 21  2  0  0  0  0
 23 20  1  0  0  0  0
 24 21  1  0  0  0  0
 25 24  1  0  0  0  0
 26 25  2  0  0  0  0
 27 28  1  6  0  0  0
 27 26  1  0  0  0  0
 29 28  1  0  0  0  0
 30 34  1  6  0  0  0
 30 27  1  0  0  0  0
 31 30  1  0  0  0  0
 32 31  2  0  0  0  0
 33 34  2  0  0  0  0
 35 36  1  0  0  0  0
 36 38  1  0  0  0  0
 36 37  1  0  0  0  0
 38 37  1  0  0  0  0
M  END
>  <MODEL>
1

>  <REMARK>
 VINA RESULT:      -8.7      0.000      0.000
  Name = 
  12 active torsions:
  status: ('A' for Active; 'I' for Inactive)
    1  A    between atoms: C_1  and  O_27
    2  A    between atoms: C_3  and  C_28
    3  A    between atoms: C_6  and  C_20
    4  A    between atoms: C_6  and  C_22
    5  A    between atoms: C_7  and  C_12
    6  A    between atoms: N_9  and  C_30
    7  A    between atoms: C_12  and  C_18
    8  A    between atoms: C_22  and  O_27
    9  A    between atoms: C_22  and  N_38
   10  A    between atoms: C_28  and  C_30
   11  A    between atoms: C_28  and  C_31
   12  A    between atoms: C_30  and  C_33
                            x       y       z     vdW  Elec       q    Type
                         _______ _______ _______ _____ _____    ______ ____

>  <TORSDO>
F 12

$$$$
=
 OpenBabel11042410443D

 38 41  0  0  1  0  0  0  0  0999 V2000
  186.9510  177.1630  144.7980 C   0  0  0  0  0  2  0  0  0  0  0  0
  184.8190  178.1270  143.8870 C   0  0  1  0  0  3  0  0  0  0  0  0
  179.5170  180.5630  138.5240 C   0  0  0  0  0  1  0  0  0  0  0  0
  182.7080  178.6270  142.6350 O   0  0  0  0  0  0  0  0  0  0  0  0
  180.4820  180.2150  139.5540 N   0  0  0  0  0  0  0  0  0  0  0  0
  180.0830  180.2450  140.9550 C   0  0  0  0  0  2  0  0  0  0  0  0
  181.9560  178.5540  141.4270 C   0  0  1  0  0  3  0  0  0  0  0  0
  184.7090  179.8530  139.2210 O   0  0  0  0  0  1  0  0  0  0  0  0
  184.0120  179.2970  140.2910 C   0  0  0  0  0  0  0  0  0  0  0  0
  184.7660  178.7970  141.4660 C   0  0  0  0  0  0  0  0  0  0  0  0
  182.2860  180.0660  138.0690 O   0  0  0  0  0  0  0  0  0  0  0  0
  186.3560  178.1410  143.7960 C   0  0  2  0  0  3  0  0  0  0  0  0
  180.4820  178.9390  141.6450 C   0  0  0  0  0  2  0  0  0  0  0  0
  181.8330  179.8660  139.2300 C   0  0  0  0  0  0  0  0  0  0  0  0
  186.2670  178.7500  141.3990 C   0  0  0  0  0  2  0  0  0  0  0  0
  184.3600  178.9980  145.0430 C   0  0  0  0  0  1  0  0  0  0  0  0
  184.1070  178.5400  142.6170 C   0  0  0  0  0  0  0  0  0  0  0  0
  186.8280  177.7540  142.4030 C   0  0  0  0  0  2  0  0  0  0  0  0
  182.6650  179.2590  140.2900 C   0  0  0  0  0  0  0  0  0  0  0  0
  188.3520  177.5910  145.2030 C   0  0  2  0  0  3  0  0  0  0  0  0
  190.3890  177.8170  143.7180 C   0  0  0  0  0  0  0  0  0  0  0  0
  190.5120  179.0380  144.0060 O   0  0  0  0  0  0  0  0  0  0  0  0
  189.3160  177.0440  144.2590 N   0  0  0  0  0  2  0  0  0  0  0  0
  191.3880  177.1630  142.8310 C   0  0  0  0  0  2  0  0  0  0  0  0
  190.7250  176.6960  141.5820 C   0  0  0  0  0  3  0  0  0  0  0  0
  191.0640  177.2290  140.4110 C   0  0  0  0  0  3  0  0  0  0  0  0
  190.4170  176.7780  139.1350 C   0  0  1  0  0  3  0  0  0  0  0  0
  189.5280  177.9050  138.6150 C   0  0  0  0  0  2  0  0  0  0  0  0
  188.1010  177.4200  138.4510 C   0  0  0  0  0  1  0  0  0  0  0  0
  191.4880  176.4130  138.0960 C   0  0  1  0  0  3  0  0  0  0  0  0
  192.8090  176.8020  138.5400 N   0  0  0  0  0  0  0  0  0  0  0  0
  193.7400  176.7930  137.7920 O   0  0  0  0  0  0  0  0  0  0  0  0
  190.4220  174.3230  137.8010 O   0  0  0  0  0  0  0  0  0  0  0  0
  191.4690  174.9470  137.7720 C   0  0  0  0  0  3  0  0  0  0  0  0
  188.6290  177.1140  146.4870 O   0  0  0  0  0  0  0  0  0  0  0  0
  188.3950  178.2010  147.3320 C   0  0  0  0  0  3  0  0  0  0  0  0
  187.9950  177.6900  148.7020 C   0  0  0  0  0  2  0  0  0  0  0  0
  189.4080  178.1780  148.4590 C   0  0  0  0  0  2  0  0  0  0  0  0
  2 16  1  1  0  0  0
  3  5  1  0  0  0  0
  5  6  1  0  0  0  0
  6 13  1  0  0  0  0
  7 13  1  1  0  0  0
  7  4  1  0  0  0  0
  8  9  1  0  0  0  0
  9 10  1  0  0  0  0
 10 17  2  0  0  0  0
 11 14  2  0  0  0  0
 12  2  1  0  0  0  0
 12  1  1  1  0  0  0
 14  5  1  0  0  0  0
 14 19  1  0  0  0  0
 15 10  1  0  0  0  0
 15 18  1  0  0  0  0
 17  4  1  0  0  0  0
 17  2  1  0  0  0  0
 18 12  1  0  0  0  0
 19  9  2  0  0  0  0
 19  7  1  0  0  0  0
 20  1  1  6  0  0  0
 20 35  1  0  0  0  0
 21 22  2  0  0  0  0
 21 23  1  0  0  0  0
 23 20  1  0  0  0  0
 24 21  1  0  0  0  0
 25 24  1  0  0  0  0
 26 25  2  0  0  0  0
 27 28  1  6  0  0  0
 27 26  1  0  0  0  0
 29 28  1  0  0  0  0
 30 34  1  1  0  0  0
 30 31  1  0  0  0  0
 30 27  1  0  0  0  0
 32 31  2  0  0  0  0
 34 33  2  0  0  0  0
 35 36  1  0  0  0  0
 36 38  1  0  0  0  0
 36 37  1  0  0  0  0
 38 37  1  0  0  0  0
M  END
>  <MODEL>
2

>  <REMARK>
 VINA RESULT:      -8.4      1.436      1.781
  Name = 
  12 active torsions:
  status: ('A' for Active; 'I' for Inactive)
    1  A    between atoms: C_1  and  O_27
    2  A    between atoms: C_3  and  C_28
    3  A    between atoms: C_6  and  C_20
    4  A    between atoms: C_6  and  C_22
    5  A    between atoms: C_7  and  C_12
    6  A    between atoms: N_9  and  C_30
    7  A    between atoms: C_12  and  C_18
    8  A    between atoms: C_22  and  O_27
    9  A    between atoms: C_22  and  N_38
   10  A    between atoms: C_28  and  C_30
   11  A    between atoms: C_28  and  C_31
   12  A    between atoms: C_30  and  C_33
                            x       y       z     vdW  Elec       q    Type
                         _______ _______ _______ _____ _____    ______ ____

>  <TORSDO>
F 12

$$$$
=
 OpenBabel11042410443D

 38 41  0  0  1  0  0  0  0  0999 V2000
  185.1430  179.7710  142.9930 C   0  0  0  0  0  2  0  0  0  0  0  0
  186.7950  178.7060  141.4320 C   0  0  1  0  0  3  0  0  0  0  0  0
  189.9590  176.2210  134.6030 C   0  0  0  0  0  1  0  0  0  0  0  0
  188.3680  178.1260  139.5700 O   0  0  0  0  0  0  0  0  0  0  0  0
  189.3900  176.5750  135.8940 N   0  0  0  0  0  0  0  0  0  0  0  0
  190.1920  176.4220  137.1010 C   0  0  0  0  0  2  0  0  0  0  0  0
  188.7200  178.2200  138.1920 C   0  0  1  0  0  3  0  0  0  0  0  0
  185.3160  177.2860  136.8970 O   0  0  0  0  0  1  0  0  0  0  0  0
  186.3560  177.7150  137.7190 C   0  0  0  0  0  0  0  0  0  0  0  0
  186.0450  178.1940  139.0880 C   0  0  0  0  0  0  0  0  0  0  0  0
  187.2430  176.9610  135.0450 O   0  0  0  0  0  0  0  0  0  0  0  0
  185.3090  178.8180  141.8190 C   0  0  2  0  0  3  0  0  0  0  0  0
  190.1480  177.7070  137.9300 C   0  0  0  0  0  2  0  0  0  0  0  0
  188.0440  177.0490  136.0160 C   0  0  0  0  0  0  0  0  0  0  0  0
  184.6070  178.3620  139.4910 C   0  0  0  0  0  2  0  0  0  0  0  0
  187.5000  177.7280  142.3550 C   0  0  0  0  0  1  0  0  0  0  0  0
  187.0450  178.3220  139.9890 C   0  0  0  0  0  0  0  0  0  0  0  0
  184.4740  179.3310  140.6560 C   0  0  0  0  0  2  0  0  0  0  0  0
  187.6350  177.6480  137.3040 C   0  0  0  0  0  0  0  0  0  0  0  0
  184.4420  179.0820  144.1530 C   0  0  2  0  0  3  0  0  0  0  0  0
  185.9340  178.4680  146.1020 C   0  0  0  0  0  0  0  0  0  0  0  0
  185.6700  179.5480  146.6950 O   0  0  0  0  0  0  0  0  0  0  0  0
  185.3770  178.1850  144.8180 N   0  0  0  0  0  2  0  0  0  0  0  0
  186.8100  177.4610  146.7580 C   0  0  0  0  0  2  0  0  0  0  0  0
  188.2400  177.8070  146.5260 C   0  0  0  0  0  3  0  0  0  0  0  0
  188.9670  177.0920  145.6720 C   0  0  0  0  0  3  0  0  0  0  0  0
  190.4080  177.4190  145.4160 C   0  0  1  0  0  3  0  0  0  0  0  0
  191.2770  176.3930  146.1400 C   0  0  0  0  0  2  0  0  0  0  0  0
  191.4820  176.8020  147.5860 C   0  0  0  0  0  1  0  0  0  0  0  0
  190.6970  177.3980  143.9060 C   0  0  1  0  0  3  0  0  0  0  0  0
  191.7100  178.3680  143.5500 N   0  0  0  0  0  0  0  0  0  0  0  0
  191.9640  179.2880  144.2680 O   0  0  0  0  0  0  0  0  0  0  0  0
  190.3640  175.3710  142.7360 O   0  0  0  0  0  0  0  0  0  0  0  0
  191.1100  176.0330  143.4390 C   0  0  0  0  0  3  0  0  0  0  0  0
  183.3540  178.3510  143.6670 O   0  0  0  0  0  0  0  0  0  0  0  0
  182.2870  179.2510  143.6700 C   0  0  0  0  0  3  0  0  0  0  0  0
  181.3190  178.8810  142.5630 C   0  0  0  0  0  2  0  0  0  0  0  0
  181.0090  178.5030  143.9960 C   0  0  0  0  0  2  0  0  0  0  0  0
  2 12  1  0  0  0  0
  2 16  1  1  0  0  0
  3  5  1  0  0  0  0
  4 17  1  0  0  0  0
  5 14  1  0  0  0  0
  5  6  1  0  0  0  0
  6 13  1  0  0  0  0
  7 13  1  1  0  0  0
  7  4  1  0  0  0  0
  8  9  1  0  0  0  0
  9 10  1  0  0  0  0
 10 15  1  0  0  0  0
 10 17  2  0  0  0  0
 11 14  2  0  0  0  0
 12  1  1  1  0  0  0
 14 19  1  0  0  0  0
 15 18  1  0  0  0  0
 17  2  1  0  0  0  0
 18 12  1  0  0  0  0
 19  9  2  0  0  0  0
 19  7  1  0  0  0  0
 20  1  1  6  0  0  0
 20 23  1  0  0  0  0
 21 22  2  0  0  0  0
 21 24  1  0  0  0  0
 23 21  1  0  0  0  0
 25 24  1  0  0  0  0
 26 25  2  0  0  0  0
 27 26  1  6  0  0  0
 27 28  1  0  0  0  0
 28 29  1  0  0  0  0
 30 34  1  1  0  0  0
 30 27  1  0  0  0  0
 31 30  1  0  0  0  0
 31 32  2  0  0  0  0
 33 34  2  0  0  0  0
 35 36  1  0  0  0  0
 35 20  1  0  0  0  0
 36 38  1  0  0  0  0
 37 36  1  0  0  0  0
 37 38  1  0  0  0  0
M  END
>  <MODEL>
3

>  <REMARK>
 VINA RESULT:      -7.9      2.385      6.586
  Name = 
  12 active torsions:
  status: ('A' for Active; 'I' for Inactive)
    1  A    between atoms: C_1  and  O_27
    2  A    between atoms: C_3  and  C_28
    3  A    between atoms: C_6  and  C_20
    4  A    between atoms: C_6  and  C_22
    5  A    between atoms: C_7  and  C_12
    6  A    between atoms: N_9  and  C_30
    7  A    between atoms: C_12  and  C_18
    8  A    between atoms: C_22  and  O_27
    9  A    between atoms: C_22  and  N_38
   10  A    between atoms: C_28  and  C_30
   11  A    between atoms: C_28  and  C_31
   12  A    between atoms: C_30  and  C_33
                            x       y       z     vdW  Elec       q    Type
                         _______ _______ _______ _____ _____    ______ ____

>  <TORSDO>
F 12

$$$$
=
 OpenBabel11042410443D

 38 41  0  0  1  0  0  0  0  0999 V2000
  182.2050  178.7270  140.5870 C   0  0  0  0  0  2  0  0  0  0  0  0
  184.4660  178.3930  141.6230 C   0  0  1  0  0  3  0  0  0  0  0  0
  189.8890  177.1110  147.2600 C   0  0  0  0  0  1  0  0  0  0  0  0
  186.4660  177.6150  142.9170 O   0  0  0  0  0  0  0  0  0  0  0  0
  188.9500  177.4350  146.1970 N   0  0  0  0  0  0  0  0  0  0  0  0
  189.4160  177.4890  144.8170 C   0  0  0  0  0  2  0  0  0  0  0  0
  187.0040  177.0020  144.0850 C   0  0  1  0  0  3  0  0  0  0  0  0
  185.0470  179.1010  146.5150 O   0  0  0  0  0  1  0  0  0  0  0  0
  185.4720  178.4530  145.3570 C   0  0  0  0  0  0  0  0  0  0  0  0
  184.6570  178.5680  144.1230 C   0  0  0  0  0  0  0  0  0  0  0  0
  187.1910  177.9410  147.6560 O   0  0  0  0  0  0  0  0  0  0  0  0
  183.1190  179.1290  141.7340 C   0  0  2  0  0  3  0  0  0  0  0  0
  188.4950  176.6610  143.9180 C   0  0  0  0  0  2  0  0  0  0  0  0
  187.5770  177.7320  146.4730 C   0  0  0  0  0  0  0  0  0  0  0  0
  183.3140  179.2380  144.1990 C   0  0  0  0  0  2  0  0  0  0  0  0
  185.3660  179.1050  140.6290 C   0  0  0  0  0  1  0  0  0  0  0  0
  185.1960  178.2090  142.9360 C   0  0  0  0  0  0  0  0  0  0  0  0
  182.4210  178.8040  143.0460 C   0  0  0  0  0  2  0  0  0  0  0  0
  186.6350  177.7740  145.3350 C   0  0  0  0  0  0  0  0  0  0  0  0
  182.2530  177.2250  140.3600 C   0  0  2  0  0  3  0  0  0  0  0  0
  183.0520  177.7540  138.0170 C   0  0  0  0  0  0  0  0  0  0  0  0
  182.2720  178.7410  137.9320 O   0  0  0  0  0  0  0  0  0  0  0  0
  183.0720  176.9390  139.1900 N   0  0  0  0  0  2  0  0  0  0  0  0
  183.9850  177.4510  136.8990 C   0  0  0  0  0  2  0  0  0  0  0  0
  185.1930  176.7570  137.4240 C   0  0  0  0  0  3  0  0  0  0  0  0
  186.4050  177.2370  137.1550 C   0  0  0  0  0  3  0  0  0  0  0  0
  187.6400  176.5610  137.6720 C   0  0  1  0  0  3  0  0  0  0  0  0
  188.3160  175.8300  136.5150 C   0  0  0  0  0  2  0  0  0  0  0  0
  189.7920  176.1740  136.4630 C   0  0  0  0  0  1  0  0  0  0  0  0
  188.5950  177.5970  138.2860 C   0  0  1  0  0  3  0  0  0  0  0  0
  188.1680  178.9480  137.9900 N   0  0  0  0  0  0  0  0  0  0  0  0
  188.9180  179.7390  137.5040 O   0  0  0  0  0  0  0  0  0  0  0  0
  188.7000  178.3830  140.5130 O   0  0  0  0  0  0  0  0  0  0  0  0
  188.7290  177.4160  139.7700 C   0  0  0  0  0  3  0  0  0  0  0  0
  180.9560  176.7460  140.1530 O   0  0  0  0  0  0  0  0  0  0  0  0
  181.1200  175.4100  139.7850 C   0  0  0  0  0  3  0  0  0  0  0  0
  179.8450  174.6480  140.0870 C   0  0  0  0  0  2  0  0  0  0  0  0
  180.1490  175.0810  138.6680 C   0  0  0  0  0  2  0  0  0  0  0  0
  2 16  1  6  0  0  0
  2 12  1  0  0  0  0
  2 17  1  0  0  0  0
  4 17  1  0  0  0  0
  4  7  1  0  0  0  0
  5 14  1  0  0  0  0
  5  3  1  0  0  0  0
  6  5  1  0  0  0  0
  7 13  1  6  0  0  0
  7 19  1  0  0  0  0
  9  8  1  0  0  0  0
 10 15  1  0  0  0  0
 10  9  1  0  0  0  0
 12  1  1  6  0  0  0
 12 18  1  0  0  0  0
 13  6  1  0  0  0  0
 14 11  2  0  0  0  0
 17 10  2  0  0  0  0
 18 15  1  0  0  0  0
 19  9  2  0  0  0  0
 19 14  1  0  0  0  0
 20  1  1  6  0  0  0
 21 23  1  0  0  0  0
 22 21  2  0  0  0  0
 23 20  1  0  0  0  0
 24 25  1  0  0  0  0
 24 21  1  0  0  0  0
 26 25  2  0  0  0  0
 26 27  1  0  0  0  0
 27 28  1  6  0  0  0
 27 30  1  0  0  0  0
 29 28  1  0  0  0  0
 30 34  1  1  0  0  0
 31 30  1  0  0  0  0
 32 31  2  0  0  0  0
 34 33  2  0  0  0  0
 35 20  1  0  0  0  0
 36 37  1  0  0  0  0
 36 35  1  0  0  0  0
 38 36  1  0  0  0  0
 38 37  1  0  0  0  0
M  END
>  <MODEL>
4

>  <REMARK>
 VINA RESULT:      -7.5      2.352      7.375
  Name = 
  12 active torsions:
  status: ('A' for Active; 'I' for Inactive)
    1  A    between atoms: C_1  and  O_27
    2  A    between atoms: C_3  and  C_28
    3  A    between atoms: C_6  and  C_20
    4  A    between atoms: C_6  and  C_22
    5  A    between atoms: C_7  and  C_12
    6  A    between atoms: N_9  and  C_30
    7  A    between atoms: C_12  and  C_18
    8  A    between atoms: C_22  and  O_27
    9  A    between atoms: C_22  and  N_38
   10  A    between atoms: C_28  and  C_30
   11  A    between atoms: C_28  and  C_31
   12  A    between atoms: C_30  and  C_33
                            x       y       z     vdW  Elec       q    Type
                         _______ _______ _______ _____ _____    ______ ____

>  <TORSDO>
F 12

$$$$
=
 OpenBabel11042410443D

 38 41  0  0  1  0  0  0  0  0999 V2000
  182.9110  178.6180  142.0170 C   0  0  0  0  0  2  0  0  0  0  0  0
  184.0970  178.5470  139.8060 C   0  0  1  0  0  3  0  0  0  0  0  0
  189.9380  177.3010  134.5950 C   0  0  0  0  0  1  0  0  0  0  0  0
  185.4280  177.9480  137.7690 O   0  0  0  0  0  0  0  0  0  0  0  0
  188.8600  177.6330  135.5130 N   0  0  0  0  0  0  0  0  0  0  0  0
  187.5660  178.0470  134.9860 C   0  0  0  0  0  2  0  0  0  0  0  0
  186.5170  177.2390  137.1850 C   0  0  1  0  0  3  0  0  0  0  0  0
  189.0690  178.3870  139.6960 O   0  0  0  0  0  1  0  0  0  0  0  0
  187.8640  178.0760  139.0700 C   0  0  0  0  0  0  0  0  0  0  0  0
  186.5940  178.2650  139.8120 C   0  0  0  0  0  0  0  0  0  0  0  0
  190.1990  177.4800  137.4270 O   0  0  0  0  0  0  0  0  0  0  0  0
  184.1990  178.9620  141.2840 C   0  0  2  0  0  3  0  0  0  0  0  0
  186.4450  177.2430  135.6480 C   0  0  0  0  0  2  0  0  0  0  0  0
  189.0420  177.5880  136.9330 C   0  0  0  0  0  0  0  0  0  0  0  0
  186.6500  178.6240  141.2710 C   0  0  0  0  0  2  0  0  0  0  0  0
  183.3410  179.6060  139.0210 C   0  0  0  0  0  1  0  0  0  0  0  0
  185.4230  178.2610  139.1360 C   0  0  0  0  0  0  0  0  0  0  0  0
  185.3540  178.2540  141.9760 C   0  0  0  0  0  2  0  0  0  0  0  0
  187.8400  177.6620  137.7890 C   0  0  0  0  0  0  0  0  0  0  0  0
  182.7660  179.4570  143.2760 C   0  0  2  0  0  3  0  0  0  0  0  0
  184.3240  179.0390  145.2260 C   0  0  0  0  0  0  0  0  0  0  0  0
  185.0320  180.0380  144.9240 O   0  0  0  0  0  0  0  0  0  0  0  0
  183.1950  178.6780  144.4290 N   0  0  0  0  0  2  0  0  0  0  0  0
  184.6470  178.2460  146.4420 C   0  0  0  0  0  2  0  0  0  0  0  0
  186.0860  178.4120  146.7860 C   0  0  0  0  0  3  0  0  0  0  0  0
  187.0110  177.7180  146.1270 C   0  0  0  0  0  3  0  0  0  0  0  0
  188.4680  177.8660  146.4480 C   0  0  1  0  0  3  0  0  0  0  0  0
  188.7250  177.2700  147.8300 C   0  0  0  0  0  2  0  0  0  0  0  0
  189.1360  178.3560  148.8060 C   0  0  0  0  0  1  0  0  0  0  0  0
  189.3210  177.1530  145.3870 C   0  0  1  0  0  3  0  0  0  0  0  0
  189.5210  177.9870  144.2220 N   0  0  0  0  0  0  0  0  0  0  0  0
  189.2720  177.5860  143.1260 O   0  0  0  0  0  0  0  0  0  0  0  0
  191.6530  177.3760  145.7130 O   0  0  0  0  0  0  0  0  0  0  0  0
  190.6480  176.7220  145.9410 C   0  0  0  0  0  3  0  0  0  0  0  0
  181.4270  179.8290  143.4320 O   0  0  0  0  0  0  0  0  0  0  0  0
  180.7850  178.6750  143.8880 C   0  0  0  0  0  3  0  0  0  0  0  0
  179.3950  179.0370  144.3710 C   0  0  0  0  0  2  0  0  0  0  0  0
  179.5810  178.4000  143.0100 C   0  0  0  0  0  2  0  0  0  0  0  0
  2 16  1  6  0  0  0
  2 12  1  0  0  0  0
  3  5  1  0  0  0  0
  4 17  1  0  0  0  0
  5 14  1  0  0  0  0
  6  5  1  0  0  0  0
  6 13  1  0  0  0  0
  7 13  1  6  0  0  0
  7  4  1  0  0  0  0
  7 19  1  0  0  0  0
  9  8  1  0  0  0  0
  9 10  1  0  0  0  0
 10 15  1  0  0  0  0
 12 18  1  0  0  0  0
 12  1  1  1  0  0  0
 14 11  2  0  0  0  0
 14 19  1  0  0  0  0
 15 18  1  0  0  0  0
 17  2  1  0  0  0  0
 17 10  2  0  0  0  0
 19  9  2  0  0  0  0
 20  1  1  6  0  0  0
 20 35  1  0  0  0  0
 20 23  1  0  0  0  0
 21 24  1  0  0  0  0
 22 21  2  0  0  0  0
 23 21  1  0  0  0  0
 24 25  1  0  0  0  0
 26 25  2  0  0  0  0
 27 26  1  6  0  0  0
 27 28  1  0  0  0  0
 28 29  1  0  0  0  0
 30 34  1  1  0  0  0
 30 27  1  0  0  0  0
 31 30  1  0  0  0  0
 32 31  2  0  0  0  0
 33 34  2  0  0  0  0
 35 36  1  0  0  0  0
 36 37  1  0  0  0  0
 38 36  1  0  0  0  0
 38 37  1  0  0  0  0
M  END
>  <MODEL>
5

>  <REMARK>
 VINA RESULT:      -7.4      2.397      7.256
  Name = 
  12 active torsions:
  status: ('A' for Active; 'I' for Inactive)
    1  A    between atoms: C_1  and  O_27
    2  A    between atoms: C_3  and  C_28
    3  A    between atoms: C_6  and  C_20
    4  A    between atoms: C_6  and  C_22
    5  A    between atoms: C_7  and  C_12
    6  A    between atoms: N_9  and  C_30
    7  A    between atoms: C_12  and  C_18
    8  A    between atoms: C_22  and  O_27
    9  A    between atoms: C_22  and  N_38
   10  A    between atoms: C_28  and  C_30
   11  A    between atoms: C_28  and  C_31
   12  A    between atoms: C_30  and  C_33
                            x       y       z     vdW  Elec       q    Type
                         _______ _______ _______ _____ _____    ______ ____

>  <TORSDO>
F 12

$$$$
=
 OpenBabel11042410443D

 38 41  0  0  1  0  0  0  0  0999 V2000
  190.5890  176.8540  137.3690 C   0  0  0  0  0  2  0  0  0  0  0  0
  188.3770  177.9730  137.7640 C   0  0  1  0  0  3  0  0  0  0  0  0
  180.5440  178.7160  138.7200 C   0  0  0  0  0  1  0  0  0  0  0  0
  186.0940  178.6600  138.5330 O   0  0  0  0  0  0  0  0  0  0  0  0
  181.9750  178.6560  138.4670 N   0  0  0  0  0  0  0  0  0  0  0  0
  182.7920  179.8470  138.6640 C   0  0  0  0  0  2  0  0  0  0  0  0
  184.8040  178.2930  139.0160 C   0  0  1  0  0  3  0  0  0  0  0  0
  184.1850  175.6630  136.4010 O   0  0  0  0  0  1  0  0  0  0  0  0
  184.8090  176.5740  137.2510 C   0  0  0  0  0  0  0  0  0  0  0  0
  186.2880  176.6780  137.2410 C   0  0  0  0  0  0  0  0  0  0  0  0
  181.9120  176.4900  137.5830 O   0  0  0  0  0  0  0  0  0  0  0  0
  189.1490  176.9660  136.8930 C   0  0  2  0  0  3  0  0  0  0  0  0
  184.0140  179.5130  139.5220 C   0  0  0  0  0  2  0  0  0  0  0  0
  182.6060  177.4580  138.0010 C   0  0  0  0  0  0  0  0  0  0  0  0
  187.0810  175.6830  136.4400 C   0  0  0  0  0  2  0  0  0  0  0  0
  188.6640  179.3890  137.2980 C   0  0  0  0  0  1  0  0  0  0  0  0
  186.8820  177.7440  137.8220 C   0  0  0  0  0  0  0  0  0  0  0  0
  188.5110  175.5860  136.9510 C   0  0  0  0  0  2  0  0  0  0  0  0
  184.0820  177.3920  138.0360 C   0  0  0  0  0  0  0  0  0  0  0  0
  190.6870  175.9410  138.5810 C   0  0  2  0  0  3  0  0  0  0  0  0
  190.3400  177.0560  140.8270 C   0  0  0  0  0  0  0  0  0  0  0  0
  189.1160  176.7540  140.8310 O   0  0  0  0  0  0  0  0  0  0  0  0
  191.1740  176.7050  139.7220 N   0  0  0  0  0  2  0  0  0  0  0  0
  190.9320  177.7560  141.9970 C   0  0  0  0  0  2  0  0  0  0  0  0
  189.8940  177.9480  143.0480 C   0  0  0  0  0  3  0  0  0  0  0  0
  190.1080  177.5020  144.2830 C   0  0  0  0  0  3  0  0  0  0  0  0
  189.0840  177.6830  145.3630 C   0  0  1  0  0  3  0  0  0  0  0  0
  187.7590  177.0970  144.8820 C   0  0  0  0  0  2  0  0  0  0  0  0
  186.6160  178.0390  145.2070 C   0  0  0  0  0  1  0  0  0  0  0  0
  189.5430  176.9860  146.6540 C   0  0  1  0  0  3  0  0  0  0  0  0
  190.9600  176.6940  146.6200 N   0  0  0  0  0  0  0  0  0  0  0  0
  191.6920  177.0860  147.4790 O   0  0  0  0  0  0  0  0  0  0  0  0
  188.1580  177.6440  148.4540 O   0  0  0  0  0  0  0  0  0  0  0  0
  189.2180  177.8020  147.8710 C   0  0  0  0  0  3  0  0  0  0  0  0
  191.5720  174.8960  138.3030 O   0  0  0  0  0  0  0  0  0  0  0  0
  192.7200  175.5180  137.8100 C   0  0  0  0  0  3  0  0  0  0  0  0
  193.8970  174.5720  137.9440 C   0  0  0  0  0  2  0  0  0  0  0  0
  193.2190  174.7510  136.6020 C   0  0  0  0  0  2  0  0  0  0  0  0
  2 16  1  6  0  0  0
  2 17  1  0  0  0  0
  4  7  1  0  0  0  0
  5  6  1  0  0  0  0
  5  3  1  0  0  0  0
  6 13  1  0  0  0  0
  7 13  1  6  0  0  0
  8  9  1  0  0  0  0
  9 19  2  0  0  0  0
 10  9  1  0  0  0  0
 10 17  2  0  0  0  0
 11 14  2  0  0  0  0
 12 18  1  0  0  0  0
 12  1  1  1  0  0  0
 12  2  1  0  0  0  0
 14 19  1  0  0  0  0
 14  5  1  0  0  0  0
 15 18  1  0  0  0  0
 15 10  1  0  0  0  0
 17  4  1  0  0  0  0
 19  7  1  0  0  0  0
 20  1  1  6  0  0  0
 20 23  1  0  0  0  0
 21 22  2  0  0  0  0
 21 24  1  0  0  0  0
 23 21  1  0  0  0  0
 24 25  1  0  0  0  0
 25 26  2  0  0  0  0
 27 26  1  6  0  0  0
 27 30  1  0  0  0  0
 28 29  1  0  0  0  0
 28 27  1  0  0  0  0
 30 34  1  1  0  0  0
 31 30  1  0  0  0  0
 31 32  2  0  0  0  0
 34 33  2  0  0  0  0
 35 20  1  0  0  0  0
 36 37  1  0  0  0  0
 36 35  1  0  0  0  0
 38 36  1  0  0  0  0
 38 37  1  0  0  0  0
M  END
>  <MODEL>
6

>  <REMARK>
 VINA RESULT:      -7.1      2.280      6.941
  Name = 
  12 active torsions:
  status: ('A' for Active; 'I' for Inactive)
    1  A    between atoms: C_1  and  O_27
    2  A    between atoms: C_3  and  C_28
    3  A    between atoms: C_6  and  C_20
    4  A    between atoms: C_6  and  C_22
    5  A    between atoms: C_7  and  C_12
    6  A    between atoms: N_9  and  C_30
    7  A    between atoms: C_12  and  C_18
    8  A    between atoms: C_22  and  O_27
    9  A    between atoms: C_22  and  N_38
   10  A    between atoms: C_28  and  C_30
   11  A    between atoms: C_28  and  C_31
   12  A    between atoms: C_30  and  C_33
                            x       y       z     vdW  Elec       q    Type
                         _______ _______ _______ _____ _____    ______ ____

>  <TORSDO>
F 12

$$$$
=
 OpenBabel11042410443D

 38 41  0  0  1  0  0  0  0  0999 V2000
  182.4580  178.5960  140.8650 C   0  0  0  0  0  2  0  0  0  0  0  0
  184.7210  178.3450  141.9200 C   0  0  1  0  0  3  0  0  0  0  0  0
  190.1390  177.1970  147.5910 C   0  0  0  0  0  1  0  0  0  0  0  0
  186.7420  177.6330  143.2200 O   0  0  0  0  0  0  0  0  0  0  0  0
  189.1980  177.4990  146.5240 N   0  0  0  0  0  0  0  0  0  0  0  0
  189.6740  177.6030  145.1500 C   0  0  0  0  0  2  0  0  0  0  0  0
  187.2950  177.0210  144.3810 C   0  0  1  0  0  3  0  0  0  0  0  0
  185.2180  178.9750  146.8310 O   0  0  0  0  0  1  0  0  0  0  0  0
  185.6840  178.3720  145.6650 C   0  0  0  0  0  0  0  0  0  0  0  0
  184.8780  178.4750  144.4250 C   0  0  0  0  0  0  0  0  0  0  0  0
  187.4020  177.8920  147.9730 O   0  0  0  0  0  0  0  0  0  0  0  0
  183.3400  179.0150  142.0310 C   0  0  2  0  0  3  0  0  0  0  0  0
  188.8030  176.7530  144.2240 C   0  0  0  0  0  2  0  0  0  0  0  0
  187.8090  177.7260  146.7900 C   0  0  0  0  0  0  0  0  0  0  0  0
  183.5040  179.0800  144.4990 C   0  0  0  0  0  2  0  0  0  0  0  0
  185.5980  179.1190  140.9500 C   0  0  0  0  0  1  0  0  0  0  0  0
  185.4460  178.1680  143.2370 C   0  0  0  0  0  0  0  0  0  0  0  0
  182.6450  178.6300  143.3270 C   0  0  0  0  0  2  0  0  0  0  0  0
  186.8780  177.7480  145.6420 C   0  0  0  0  0  0  0  0  0  0  0  0
  182.9210  177.2670  140.2880 C   0  0  2  0  0  3  0  0  0  0  0  0
  183.7210  176.4310  138.0380 C   0  0  0  0  0  0  0  0  0  0  0  0
  183.4530  175.2370  138.3430 O   0  0  0  0  0  0  0  0  0  0  0  0
  183.5050  177.4890  138.9730 N   0  0  0  0  0  2  0  0  0  0  0  0
  184.2360  176.7480  136.6790 C   0  0  0  0  0  2  0  0  0  0  0  0
  185.6630  177.1660  136.7660 C   0  0  0  0  0  3  0  0  0  0  0  0
  186.5420  176.7170  135.8730 C   0  0  0  0  0  3  0  0  0  0  0  0
  187.9850  177.1230  135.9320 C   0  0  1  0  0  3  0  0  0  0  0  0
  188.2780  177.6790  137.3240 C   0  0  0  0  0  2  0  0  0  0  0  0
  189.0200  178.9980  137.2200 C   0  0  0  0  0  1  0  0  0  0  0  0
  188.8880  175.9160  135.6330 C   0  0  1  0  0  3  0  0  0  0  0  0
  190.1470  176.3310  135.0520 N   0  0  0  0  0  0  0  0  0  0  0  0
  191.1700  176.2310  135.6600 O   0  0  0  0  0  0  0  0  0  0  0  0
  188.9220  173.8930  136.8570 O   0  0  0  0  0  0  0  0  0  0  0  0
  189.1400  175.0930  136.8630 C   0  0  0  0  0  3  0  0  0  0  0  0
  181.8270  176.4050  140.1770 O   0  0  0  0  0  0  0  0  0  0  0  0
  180.7130  177.2440  140.1170 C   0  0  0  0  0  3  0  0  0  0  0  0
  179.6830  176.6390  139.1830 C   0  0  0  0  0  2  0  0  0  0  0  0
  179.5110  176.5120  140.6820 C   0  0  0  0  0  2  0  0  0  0  0  0
  2 16  1  6  0  0  0
  2 12  1  0  0  0  0
  2 17  1  0  0  0  0
  4 17  1  0  0  0  0
  4  7  1  0  0  0  0
  5 14  1  0  0  0  0
  5  3  1  0  0  0  0
  6  5  1  0  0  0  0
  7 13  1  6  0  0  0
  7 19  1  0  0  0  0
  9  8  1  0  0  0  0
 10 15  1  0  0  0  0
 10  9  1  0  0  0  0
 12  1  1  6  0  0  0
 12 18  1  0  0  0  0
 13  6  1  0  0  0  0
 14 11  2  0  0  0  0
 17 10  2  0  0  0  0
 18 15  1  0  0  0  0
 19  9  2  0  0  0  0
 19 14  1  0  0  0  0
 20  1  1  6  0  0  0
 21 22  2  0  0  0  0
 21 23  1  0  0  0  0
 23 20  1  0  0  0  0
 24 25  1  0  0  0  0
 24 21  1  0  0  0  0
 26 25  2  0  0  0  0
 27 26  1  1  0  0  0
 27 28  1  0  0  0  0
 29 28  1  0  0  0  0
 30 27  1  0  0  0  0
 30 34  1  1  0  0  0
 31 30  1  0  0  0  0
 31 32  2  0  0  0  0
 33 34  2  0  0  0  0
 35 20  1  0  0  0  0
 36 35  1  0  0  0  0
 36 38  1  0  0  0  0
 37 36  1  0  0  0  0
 37 38  1  0  0  0  0
M  END
>  <MODEL>
7

>  <REMARK>
 VINA RESULT:      -7.0      2.659      7.491
  Name = 
  12 active torsions:
  status: ('A' for Active; 'I' for Inactive)
    1  A    between atoms: C_1  and  O_27
    2  A    between atoms: C_3  and  C_28
    3  A    between atoms: C_6  and  C_20
    4  A    between atoms: C_6  and  C_22
    5  A    between atoms: C_7  and  C_12
    6  A    between atoms: N_9  and  C_30
    7  A    between atoms: C_12  and  C_18
    8  A    between atoms: C_22  and  O_27
    9  A    between atoms: C_22  and  N_38
   10  A    between atoms: C_28  and  C_30
   11  A    between atoms: C_28  and  C_31
   12  A    between atoms: C_30  and  C_33
                            x       y       z     vdW  Elec       q    Type
                         _______ _______ _______ _____ _____    ______ ____

>  <TORSDO>
F 12

$$$$
=
 OpenBabel11042410443D

 38 41  0  0  1  0  0  0  0  0999 V2000
  182.8890  178.4990  140.6910 C   0  0  0  0  0  2  0  0  0  0  0  0
  185.0920  178.2790  141.8740 C   0  0  1  0  0  3  0  0  0  0  0  0
  190.1920  177.3360  147.8680 C   0  0  0  0  0  1  0  0  0  0  0  0
  187.0350  177.6090  143.3080 O   0  0  0  0  0  0  0  0  0  0  0  0
  189.3110  177.5990  146.7410 N   0  0  0  0  0  0  0  0  0  0  0  0
  189.8600  177.6420  145.3920 C   0  0  0  0  0  2  0  0  0  0  0  0
  187.5200  177.0430  144.5220 C   0  0  1  0  0  3  0  0  0  0  0  0
  185.3330  179.1110  146.7750 O   0  0  0  0  0  1  0  0  0  0  0  0
  185.8550  178.4570  145.6610 C   0  0  0  0  0  0  0  0  0  0  0  0
  185.1170  178.5130  144.3760 C   0  0  0  0  0  0  0  0  0  0  0  0
  187.4440  178.0630  148.0750 O   0  0  0  0  0  0  0  0  0  0  0  0
  183.7120  178.9610  141.8830 C   0  0  2  0  0  3  0  0  0  0  0  0
  189.0320  176.7590  144.4570 C   0  0  0  0  0  2  0  0  0  0  0  0
  187.9120  177.8450  146.9230 C   0  0  0  0  0  0  0  0  0  0  0  0
  183.7460  179.1290  144.3520 C   0  0  0  0  0  2  0  0  0  0  0  0
  186.0240  179.0060  140.9210 C   0  0  0  0  0  1  0  0  0  0  0  0
  185.7440  178.1520  143.2350 C   0  0  0  0  0  0  0  0  0  0  0  0
  182.9460  178.6350  143.1560 C   0  0  0  0  0  2  0  0  0  0  0  0
  187.0430  177.8250  145.7280 C   0  0  0  0  0  0  0  0  0  0  0  0
  181.4020  178.5800  140.9980 C   0  0  2  0  0  3  0  0  0  0  0  0
  179.6510  176.7530  140.9460 C   0  0  0  0  0  0  0  0  0  0  0  0
  179.3030  176.9990  142.1330 O   0  0  0  0  0  0  0  0  0  0  0  0
  180.7110  177.4860  140.3290 N   0  0  0  0  0  2  0  0  0  0  0  0
  178.9320  175.7100  140.1670 C   0  0  0  0  0  2  0  0  0  0  0  0
  179.6690  175.4250  138.9050 C   0  0  0  0  0  3  0  0  0  0  0  0
  180.3290  174.2780  138.7660 C   0  0  0  0  0  3  0  0  0  0  0  0
  181.0780  173.9610  137.5060 C   0  0  1  0  0  3  0  0  0  0  0  0
  180.3030  174.5340  136.3210 C   0  0  0  0  0  2  0  0  0  0  0  0
  179.8460  173.4190  135.4010 C   0  0  0  0  0  1  0  0  0  0  0  0
  182.4930  174.5600  137.5630 C   0  0  1  0  0  3  0  0  0  0  0  0
  183.4880  173.6030  137.1310 N   0  0  0  0  0  0  0  0  0  0  0  0
  183.1820  172.6330  136.5060 O   0  0  0  0  0  0  0  0  0  0  0  0
  182.6380  176.9040  137.2880 O   0  0  0  0  0  0  0  0  0  0  0  0
  182.5990  175.8130  136.7430 C   0  0  0  0  0  3  0  0  0  0  0  0
  180.9010  179.8010  140.5400 O   0  0  0  0  0  0  0  0  0  0  0  0
  181.1440  179.7970  139.1650 C   0  0  0  0  0  3  0  0  0  0  0  0
  180.0720  180.6100  138.4670 C   0  0  0  0  0  2  0  0  0  0  0  0
  181.4390  181.2130  138.7110 C   0  0  0  0  0  2  0  0  0  0  0  0
  2 16  1  6  0  0  0
  2 12  1  0  0  0  0
  2 17  1  0  0  0  0
  4  7  1  0  0  0  0
  5 14  1  0  0  0  0
  5  3  1  0  0  0  0
  6  5  1  0  0  0  0
  7 13  1  6  0  0  0
  7 19  1  0  0  0  0
  9 19  2  0  0  0  0
  9  8  1  0  0  0  0
 10  9  1  0  0  0  0
 12  1  1  6  0  0  0
 12 18  1  0  0  0  0
 13  6  1  0  0  0  0
 14 11  2  0  0  0  0
 15 10  1  0  0  0  0
 17  4  1  0  0  0  0
 17 10  2  0  0  0  0
 18 15  1  0  0  0  0
 19 14  1  0  0  0  0
 20  1  1  6  0  0  0
 21 22  2  0  0  0  0
 23 21  1  0  0  0  0
 23 20  1  0  0  0  0
 24 21  1  0  0  0  0
 25 24  1  0  0  0  0
 26 25  2  0  0  0  0
 27 28  1  6  0  0  0
 27 30  1  0  0  0  0
 27 26  1  0  0  0  0
 29 28  1  0  0  0  0
 30 34  1  6  0  0  0
 31 30  1  0  0  0  0
 32 31  2  0  0  0  0
 34 33  2  0  0  0  0
 35 20  1  0  0  0  0
 36 35  1  0  0  0  0
 37 38  1  0  0  0  0
 37 36  1  0  0  0  0
 38 36  1  0  0  0  0
M  END
>  <MODEL>
8

>  <REMARK>
 VINA RESULT:      -6.9      3.451      9.078
  Name = 
  12 active torsions:
  status: ('A' for Active; 'I' for Inactive)
    1  A    between atoms: C_1  and  O_27
    2  A    between atoms: C_3  and  C_28
    3  A    between atoms: C_6  and  C_20
    4  A    between atoms: C_6  and  C_22
    5  A    between atoms: C_7  and  C_12
    6  A    between atoms: N_9  and  C_30
    7  A    between atoms: C_12  and  C_18
    8  A    between atoms: C_22  and  O_27
    9  A    between atoms: C_22  and  N_38
   10  A    between atoms: C_28  and  C_30
   11  A    between atoms: C_28  and  C_31
   12  A    between atoms: C_30  and  C_33
                            x       y       z     vdW  Elec       q    Type
                         _______ _______ _______ _____ _____    ______ ____

>  <TORSDO>
F 12

$$$$
=
 OpenBabel11042410443D

 38 41  0  0  1  0  0  0  0  0999 V2000
  186.0420  179.3650  141.2520 C   0  0  0  0  0  2  0  0  0  0  0  0
  188.0220  178.0780  140.4030 C   0  0  1  0  0  3  0  0  0  0  0  0
  192.9180  174.6420  135.2020 C   0  0  0  0  0  1  0  0  0  0  0  0
  190.0410  177.2300  139.1840 O   0  0  0  0  0  0  0  0  0  0  0  0
  192.0150  175.1770  136.2090 N   0  0  0  0  0  0  0  0  0  0  0  0
  192.4190  175.1830  137.6090 C   0  0  0  0  0  2  0  0  0  0  0  0
  190.7850  177.1290  137.9730 C   0  0  1  0  0  3  0  0  0  0  0  0
  187.8680  176.0620  135.8560 O   0  0  0  0  0  1  0  0  0  0  0  0
  188.6400  176.5890  136.8880 C   0  0  0  0  0  0  0  0  0  0  0  0
  187.9670  177.2550  138.0290 C   0  0  0  0  0  0  0  0  0  0  0  0
  190.2330  175.4650  134.7190 O   0  0  0  0  0  0  0  0  0  0  0  0
  186.4960  178.2570  140.3140 C   0  0  2  0  0  3  0  0  0  0  0  0
  192.1990  176.5710  138.2150 C   0  0  0  0  0  2  0  0  0  0  0  0
  190.7180  175.6770  135.8640 C   0  0  0  0  0  0  0  0  0  0  0  0
  186.4840  177.4920  137.9610 C   0  0  0  0  0  2  0  0  0  0  0  0
  188.3750  177.2280  141.6120 C   0  0  0  0  0  1  0  0  0  0  0  0
  188.6640  177.4960  139.1620 C   0  0  0  0  0  0  0  0  0  0  0  0
  186.0660  178.6140  138.8990 C   0  0  0  0  0  2  0  0  0  0  0  0
  189.9800  176.4520  136.8840 C   0  0  0  0  0  0  0  0  0  0  0  0
  185.0170  178.8430  142.2470 C   0  0  2  0  0  3  0  0  0  0  0  0
  185.3670  178.4250  144.7190 C   0  0  0  0  0  0  0  0  0  0  0  0
  184.4760  179.2620  145.0260 O   0  0  0  0  0  0  0  0  0  0  0  0
  185.7060  178.1880  143.3510 N   0  0  0  0  0  2  0  0  0  0  0  0
  186.0530  177.6500  145.7870 C   0  0  0  0  0  2  0  0  0  0  0  0
  187.5150  177.5960  145.5120 C   0  0  0  0  0  3  0  0  0  0  0  0
  188.3840  177.6750  146.5170 C   0  0  0  0  0  3  0  0  0  0  0  0
  189.8620  177.6200  146.2710 C   0  0  1  0  0  3  0  0  0  0  0  0
  190.4250  176.3800  146.9620 C   0  0  0  0  0  2  0  0  0  0  0  0
  191.6750  176.7330  147.7450 C   0  0  0  0  0  1  0  0  0  0  0  0
  190.1490  177.5720  144.7620 C   0  0  1  0  0  3  0  0  0  0  0  0
  190.6180  178.8510  144.2740 N   0  0  0  0  0  0  0  0  0  0  0  0
  191.6750  178.9530  143.7270 O   0  0  0  0  0  0  0  0  0  0  0  0
  190.9920  175.8200  143.4170 O   0  0  0  0  0  0  0  0  0  0  0  0
  191.1410  176.4990  144.4190 C   0  0  0  0  0  3  0  0  0  0  0  0
  184.1770  177.9260  141.6080 O   0  0  0  0  0  0  0  0  0  0  0  0
  183.1400  178.6980  141.0810 C   0  0  0  0  0  3  0  0  0  0  0  0
  181.9640  177.7980  140.7560 C   0  0  0  0  0  2  0  0  0  0  0  0
  181.9500  178.6340  142.0180 C   0  0  0  0  0  2  0  0  0  0  0  0
  2 16  1  1  0  0  0
  3  5  1  0  0  0  0
  5  6  1  0  0  0  0
  6 13  1  0  0  0  0
  7 13  1  1  0  0  0
  7  4  1  0  0  0  0
  8  9  1  0  0  0  0
  9 10  1  0  0  0  0
 10 17  2  0  0  0  0
 11 14  2  0  0  0  0
 12  2  1  0  0  0  0
 12  1  1  1  0  0  0
 14  5  1  0  0  0  0
 14 19  1  0  0  0  0
 15 10  1  0  0  0  0
 15 18  1  0  0  0  0
 17  4  1  0  0  0  0
 17  2  1  0  0  0  0
 18 12  1  0  0  0  0
 19  9  2  0  0  0  0
 19  7  1  0  0  0  0
 20  1  1  6  0  0  0
 20 23  1  0  0  0  0
 21 22  2  0  0  0  0
 21 24  1  0  0  0  0
 23 21  1  0  0  0  0
 25 24  1  0  0  0  0
 25 26  2  0  0  0  0
 27 26  1  6  0  0  0
 27 28  1  0  0  0  0
 28 29  1  0  0  0  0
 30 34  1  1  0  0  0
 30 27  1  0  0  0  0
 31 30  1  0  0  0  0
 32 31  2  0  0  0  0
 33 34  2  0  0  0  0
 35 20  1  0  0  0  0
 36 35  1  0  0  0  0
 36 38  1  0  0  0  0
 37 36  1  0  0  0  0
 37 38  1  0  0  0  0
M  END
>  <MODEL>
9

>  <REMARK>
 VINA RESULT:      -6.9      2.364      7.811
  Name = 
  12 active torsions:
  status: ('A' for Active; 'I' for Inactive)
    1  A    between atoms: C_1  and  O_27
    2  A    between atoms: C_3  and  C_28
    3  A    between atoms: C_6  and  C_20
    4  A    between atoms: C_6  and  C_22
    5  A    between atoms: C_7  and  C_12
    6  A    between atoms: N_9  and  C_30
    7  A    between atoms: C_12  and  C_18
    8  A    between atoms: C_22  and  O_27
    9  A    between atoms: C_22  and  N_38
   10  A    between atoms: C_28  and  C_30
   11  A    between atoms: C_28  and  C_31
   12  A    between atoms: C_30  and  C_33
                            x       y       z     vdW  Elec       q    Type
                         _______ _______ _______ _____ _____    ______ ____

>  <TORSDO>
F 12

$$$$
