=
 OpenBabel11042412463D

 59 65  0  0  1  0  0  0  0  0999 V2000
  182.0410  176.8790  138.2360 C   0  0  0  0  0  0  0  0  0  0  0  0
  183.9670  177.4330  136.7030 C   0  0  0  0  0  0  0  0  0  0  0  0
  182.9840  176.4270  139.3050 C   0  0  0  0  0  2  0  0  0  0  0  0
  184.6740  178.1820  139.0000 C   0  0  0  0  0  3  0  0  0  0  0  0
  184.9200  177.8440  137.5840 C   0  0  0  0  0  0  0  0  0  0  0  0
  181.5620  177.6270  135.9240 C   0  0  0  0  0  1  0  0  0  0  0  0
  182.5140  177.3150  137.0410 C   0  0  0  0  0  0  0  0  0  0  0  0
  186.1860  178.0610  137.1580 F   0  0  0  0  0  0  0  0  0  0  0  0
  183.7830  177.5880  139.7880 C   0  0  0  0  0  0  0  0  0  0  0  0
  183.4750  178.4470  142.2680 C   0  0  0  0  0  0  0  0  0  0  0  0
  183.6340  178.0580  141.1370 C   0  0  0  0  0  0  0  0  0  0  0  0
  183.2450  178.9220  143.6340 C   0  0  0  0  0  2  0  0  0  0  0  0
  184.4600  179.6790  144.1400 C   0  0  0  0  0  2  0  0  0  0  0  0
  186.6820  177.1970  145.9040 N   0  0  0  0  0  2  0  0  0  0  0  0
  185.5300  178.7220  144.5610 C   0  0  0  0  0  0  0  0  0  0  0  0
  185.6510  178.1530  145.8440 N   0  0  0  0  0  0  0  0  0  0  0  0
  186.4500  178.2110  143.7820 C   0  0  0  0  0  0  0  0  0  0  0  0
  186.5960  178.5110  142.4280 O   0  0  0  0  0  1  0  0  0  0  0  0
  187.2810  177.2310  144.5530 C   0  0  1  0  0  3  0  0  0  0  0  0
  184.7450  178.3950  146.9530 C   0  0  0  0  0  1  0  0  0  0  0  0
  190.9680  177.8950  143.4470 C   0  0  0  0  0  2  0  0  0  0  0  0
  190.9020  177.5470  145.9360 C   0  0  2  0  0  3  0  0  0  0  0  0
  189.5330  177.3820  143.3370 C   0  0  1  0  0  3  0  0  0  0  0  0
  189.5210  175.9090  142.9560 C   0  0  0  0  0  1  0  0  0  0  0  0
  188.7490  177.6750  144.6310 C   0  0  2  0  0  3  0  0  0  0  0  0
  189.4500  177.0520  145.8430 C   0  0  0  0  0  2  0  0  0  0  0  0
  191.6910  177.2850  144.6450 C   0  0  0  0  0  2  0  0  0  0  0  0
  191.5710  177.0800  147.0980 O   0  0  0  0  0  0  0  0  0  0  0  0
  191.9600  175.7360  146.8980 C   0  0  0  0  0  1  0  0  0  0  0  0
  180.5970  176.8270  138.5580 C   0  0  0  0  0  0  0  0  0  0  0  0
  179.9260  175.7950  138.3180 O   0  0  0  0  0  0  0  0  0  0  0  0
  179.9100  178.0090  139.1530 C   0  0  0  0  0  2  0  0  0  0  0  0
  180.8870  178.9180  139.7360 N   0  0  0  0  0  2  0  0  0  0  0  0
  180.3040  180.6470  141.1930 O   0  0  0  0  0  1  0  0  0  0  0  0
  180.2480  180.2220  139.8610 C   0  0  1  0  0  3  0  0  0  0  0  0
  181.3730  180.5970  137.7590 O   0  0  0  0  0  0  0  0  0  0  0  0
  180.7760  181.2790  136.6690 C   0  0  0  0  0  2  0  0  0  0  0  0
  179.2420  183.1800  136.6170 N   0  0  0  0  0  2  0  0  0  0  0  0
  179.9650  182.3320  137.2670 C   0  0  0  0  0  0  0  0  0  0  0  0
  180.0690  182.2950  138.6160 O   0  0  0  0  0  0  0  0  0  0  0  0
  180.9410  181.2330  138.9540 C   0  0  1  0  0  3  0  0  0  0  0  0
  184.2950  177.1710  135.3600 O   0  0  0  0  0  0  0  0  0  0  0  0
  185.5070  177.4000  134.8290 O   0  0  0  0  0  0  0  0  0  0  0  0
  186.1250  176.1470  134.7630 C   0  0  0  0  0  2  0  0  0  0  0  0
  188.0230  177.6130  134.8750 O   0  0  0  0  0  1  0  0  0  0  0  0
  187.6330  176.3010  134.5940 C   0  0  1  0  0  3  0  0  0  0  0  0
  190.3680  175.1810  136.7670 C   0  0  2  0  0  0  0  0  0  0  0  0
  191.1180  177.5650  139.6860 C   0  0  0  0  0  2  0  0  0  0  0  0
  192.5890  176.1000  136.9250 O   0  0  0  0  0  0  0  0  0  0  0  0
  189.8830  175.6110  135.4230 C   0  0  0  0  0  2  0  0  0  0  0  0
  191.4230  176.1590  137.2890 C   0  0  0  0  0  0  0  0  0  0  0  0
  188.4050  175.3070  135.4590 C   0  0  1  0  0  3  0  0  0  0  0  0
  190.4020  176.3050  139.3140 C   0  0  1  0  0  3  0  0  0  0  0  0
  187.9470  175.3400  136.7900 O   0  0  0  0  0  0  0  0  0  0  0  0
  190.9440  173.7770  136.6790 C   0  0  0  0  0  1  0  0  0  0  0  0
  188.9850  176.0860  138.8320 C   0  0  0  0  0  2  0  0  0  0  0  0
  190.9680  177.2370  138.2150 C   0  0  1  0  0  0  0  0  0  0  0  0
  190.0520  178.1010  137.6280 F   0  0  0  0  0  0  0  0  0  0  0  0
  189.0630  175.1280  137.6160 C   0  0  2  0  0  3  0  0  0  0  0  0
  1 30  1  0  0  0  0
  1  3  1  0  0  0  0
  2  7  1  0  0  0  0
  2  5  2  0  0  0  0
  3  9  1  0  0  0  0
  4  9  2  0  0  0  0
  5  4  1  0  0  0  0
  6  7  1  0  0  0  0
  7  1  2  0  0  0  0
  8  5  1  0  0  0  0
  9 11  1  0  0  0  0
 10 12  1  0  0  0  0
 11 10  3  0  0  0  0
 12 13  1  0  0  0  0
 13 15  1  0  0  0  0
 15 16  1  0  0  0  0
 16 14  1  0  0  0  0
 16 20  1  0  0  0  0
 17 15  2  0  0  0  0
 18 17  1  0  0  0  0
 19 17  1  6  0  0  0
 19 25  1  0  0  0  0
 19 14  1  0  0  0  0
 21 27  1  0  0  0  0
 22 28  1  1  0  0  0
 23 24  1  1  0  0  0
 23 21  1  0  0  0  0
 23 25  1  0  0  0  0
 25 26  1  1  0  0  0
 26 22  1  0  0  0  0
 27 22  1  0  0  0  0
 29 28  1  0  0  0  0
 30 32  1  0  0  0  0
 31 30  2  0  0  0  0
 32 33  1  0  0  0  0
 33 35  1  0  0  0  0
 35 34  1  1  0  0  0
 36 41  1  0  0  0  0
 37 39  1  0  0  0  0
 37 36  1  0  0  0  0
 38 39  2  0  0  0  0
 39 40  1  0  0  0  0
 40 41  1  0  0  0  0
 41 35  1  1  0  0  0
 42  2  1  0  0  0  0
 43 42  1  0  0  0  0
 44 43  1  0  0  0  0
 46 44  1  0  0  0  0
 46 45  1  1  0  0  0
 47 55  1  6  0  0  0
 47 51  1  0  0  0  0
 47 59  1  0  0  0  0
 49 51  2  0  0  0  0
 50 52  1  0  0  0  0
 50 47  1  0  0  0  0
 51 57  1  0  0  0  0
 52 46  1  6  0  0  0
 52 54  1  0  0  0  0
 53 56  1  6  0  0  0
 53 48  1  0  0  0  0
 54 59  1  0  0  0  0
 57 58  1  6  0  0  0
 57 53  1  0  0  0  0
 57 48  1  0  0  0  0
 59 56  1  1  0  0  0
M  END
>  <MODEL>
1

>  <REMARK>
 VINA RESULT:      -8.0      0.000      0.000
  Name = 
  16 active torsions:
  status: ('A' for Active; 'I' for Inactive)
    1  A    between atoms: C_1  and  C_18
    2  A    between atoms: C_3  and  C_46
    3  A    between atoms: O_4  and  C_34
    4  A    between atoms: O_4  and  O_50
    5  A    between atoms: C_6  and  O_50
    6  A    between atoms: N_9  and  C_27
    7  A    between atoms: N_9  and  C_32
    8  A    between atoms: C_14  and  C_26
    9  A    between atoms: C_15  and  O_42
   10  A    between atoms: C_18  and  C_27
   11  A    between atoms: C_23  and  C_25
   12  A    between atoms: C_25  and  C_34
   13  A    between atoms: C_26  and  C_46
   14  A    between atoms: C_32  and  C_38
   15  A    between atoms: C_33  and  C_49
   16  A    between atoms: C_56  and  C_59
                            x       y       z     vdW  Elec       q    Type
                         _______ _______ _______ _____ _____    ______ ____

>  <TORSDO>
F 16

$$$$
=
 OpenBabel11042412463D

 59 65  0  0  1  0  0  0  0  0999 V2000
  186.3120  178.2010  144.2910 C   0  0  0  0  0  0  0  0  0  0  0  0
  187.2290  178.1780  141.9410 C   0  0  0  0  0  0  0  0  0  0  0  0
  185.4120  179.3490  143.9600 C   0  0  0  0  0  2  0  0  0  0  0  0
  184.7580  178.6010  141.7140 C   0  0  0  0  0  3  0  0  0  0  0  0
  186.1450  178.5600  141.2120 C   0  0  0  0  0  0  0  0  0  0  0  0
  188.1550  176.6440  143.7350 C   0  0  0  0  0  1  0  0  0  0  0  0
  187.1540  177.6950  143.3560 C   0  0  0  0  0  0  0  0  0  0  0  0
  186.2820  178.8460  139.8960 F   0  0  0  0  0  0  0  0  0  0  0  0
  184.4000  178.9150  142.9560 C   0  0  0  0  0  0  0  0  0  0  0  0
  181.8310  178.8590  143.5710 C   0  0  0  0  0  0  0  0  0  0  0  0
  183.0070  178.8730  143.3040 C   0  0  0  0  0  0  0  0  0  0  0  0
  180.3980  178.8710  143.8720 C   0  0  0  0  0  2  0  0  0  0  0  0
  179.6080  178.3220  142.6980 C   0  0  0  0  0  2  0  0  0  0  0  0
  180.3400  180.7160  139.8800 N   0  0  0  0  0  2  0  0  0  0  0  0
  180.0250  178.9980  141.4300 C   0  0  0  0  0  0  0  0  0  0  0  0
  179.7050  180.3220  141.0720 N   0  0  0  0  0  0  0  0  0  0  0  0
  180.8150  178.4910  140.5170 C   0  0  0  0  0  0  0  0  0  0  0  0
  181.3690  177.2120  140.5710 O   0  0  0  0  0  1  0  0  0  0  0  0
  181.0650  179.5040  139.4420 C   0  0  1  0  0  3  0  0  0  0  0  0
  178.9330  181.2430  141.8870 C   0  0  0  0  0  1  0  0  0  0  0  0
  180.7510  177.3920  136.1710 C   0  0  0  0  0  2  0  0  0  0  0  0
  179.8580  179.7040  135.7500 C   0  0  2  0  0  3  0  0  0  0  0  0
  181.3560  177.8670  137.4910 C   0  0  1  0  0  3  0  0  0  0  0  0
  182.8260  178.2140  137.3100 C   0  0  0  0  0  1  0  0  0  0  0  0
  180.5320  179.0270  138.0820 C   0  0  2  0  0  3  0  0  0  0  0  0
  180.4400  180.1890  137.0880 C   0  0  0  0  0  2  0  0  0  0  0  0
  180.6520  178.5310  135.1590 C   0  0  0  0  0  2  0  0  0  0  0  0
  179.6550  180.7600  134.8220 O   0  0  0  0  0  0  0  0  0  0  0  0
  179.0590  181.8530  135.4910 C   0  0  0  0  0  1  0  0  0  0  0  0
  186.2220  177.6630  145.6670 C   0  0  0  0  0  0  0  0  0  0  0  0
  185.4130  176.7450  145.9430 O   0  0  0  0  0  0  0  0  0  0  0  0
  187.0760  178.2190  146.7560 C   0  0  0  0  0  2  0  0  0  0  0  0
  188.4660  178.2720  146.3280 N   0  0  0  0  0  2  0  0  0  0  0  0
  188.8010  176.3590  147.6250 O   0  0  0  0  0  1  0  0  0  0  0  0
  189.2690  177.6540  147.3760 C   0  0  1  0  0  3  0  0  0  0  0  0
  191.4050  176.5620  147.6360 O   0  0  0  0  0  0  0  0  0  0  0  0
  191.9660  175.7060  146.6540 C   0  0  0  0  0  2  0  0  0  0  0  0
  191.8930  175.8080  144.2140 N   0  0  0  0  0  2  0  0  0  0  0  0
  191.5900  176.2880  145.3720 C   0  0  0  0  0  0  0  0  0  0  0  0
  190.8620  177.4140  145.5640 O   0  0  0  0  0  0  0  0  0  0  0  0
  190.7360  177.6150  146.9590 C   0  0  1  0  0  3  0  0  0  0  0  0
  188.5090  178.1350  141.3590 O   0  0  0  0  0  0  0  0  0  0  0  0
  188.8960  177.2000  140.4750 O   0  0  0  0  0  0  0  0  0  0  0  0
  189.5940  177.8950  139.4830 C   0  0  0  0  0  2  0  0  0  0  0  0
  188.9340  179.6390  137.9700 O   0  0  0  0  0  1  0  0  0  0  0  0
  188.6510  178.3280  138.3660 C   0  0  1  0  0  3  0  0  0  0  0  0
  187.7340  175.3680  136.4030 C   0  0  2  0  0  0  0  0  0  0  0  0
  183.9450  174.8840  135.9850 C   0  0  0  0  0  2  0  0  0  0  0  0
  186.7670  173.3120  137.2080 O   0  0  0  0  0  0  0  0  0  0  0  0
  188.3860  175.9660  137.6040 C   0  0  0  0  0  2  0  0  0  0  0  0
  186.5770  174.4590  136.8240 C   0  0  0  0  0  0  0  0  0  0  0  0
  188.7090  177.3760  137.1730 C   0  0  1  0  0  3  0  0  0  0  0  0
  185.1740  175.4080  135.3110 C   0  0  1  0  0  3  0  0  0  0  0  0
  187.8130  177.7800  136.1650 O   0  0  0  0  0  0  0  0  0  0  0  0
  188.7600  174.5830  135.6020 C   0  0  0  0  0  1  0  0  0  0  0  0
  185.7840  176.7910  135.3220 C   0  0  0  0  0  2  0  0  0  0  0  0
  185.2030  175.0390  136.8150 C   0  0  1  0  0  0  0  0  0  0  0  0
  185.0600  176.1020  137.6980 F   0  0  0  0  0  0  0  0  0  0  0  0
  187.3040  176.6130  135.5730 C   0  0  2  0  0  3  0  0  0  0  0  0
  1 30  1  0  0  0  0
  2  7  1  0  0  0  0
  3  1  1  0  0  0  0
  4  9  2  0  0  0  0
  5  4  1  0  0  0  0
  5  2  2  0  0  0  0
  7  6  1  0  0  0  0
  7  1  2  0  0  0  0
  8  5  1  0  0  0  0
  9 11  1  0  0  0  0
  9  3  1  0  0  0  0
 10 12  1  0  0  0  0
 11 10  3  0  0  0  0
 13 12  1  0  0  0  0
 14 16  1  0  0  0  0
 15 13  1  0  0  0  0
 16 15  1  0  0  0  0
 16 20  1  0  0  0  0
 17 18  1  0  0  0  0
 17 15  2  0  0  0  0
 19 14  1  1  0  0  0
 19 17  1  0  0  0  0
 21 23  1  0  0  0  0
 22 28  1  6  0  0  0
 22 26  1  0  0  0  0
 23 24  1  6  0  0  0
 23 25  1  0  0  0  0
 25 26  1  6  0  0  0
 25 19  1  0  0  0  0
 27 22  1  0  0  0  0
 27 21  1  0  0  0  0
 28 29  1  0  0  0  0
 30 31  2  0  0  0  0
 30 32  1  0  0  0  0
 33 32  1  0  0  0  0
 33 35  1  0  0  0  0
 35 34  1  6  0  0  0
 37 36  1  0  0  0  0
 38 39  2  0  0  0  0
 39 40  1  0  0  0  0
 39 37  1  0  0  0  0
 40 41  1  0  0  0  0
 41 35  1  1  0  0  0
 41 36  1  0  0  0  0
 42  2  1  0  0  0  0
 43 42  1  0  0  0  0
 44 43  1  0  0  0  0
 46 45  1  6  0  0  0
 46 44  1  0  0  0  0
 47 55  1  6  0  0  0
 47 51  1  0  0  0  0
 47 50  1  0  0  0  0
 48 57  1  0  0  0  0
 51 49  2  0  0  0  0
 52 50  1  0  0  0  0
 52 46  1  1  0  0  0
 53 56  1  1  0  0  0
 53 48  1  0  0  0  0
 53 57  1  0  0  0  0
 54 52  1  0  0  0  0
 57 51  1  0  0  0  0
 57 58  1  1  0  0  0
 59 56  1  1  0  0  0
 59 54  1  0  0  0  0
 59 47  1  0  0  0  0
M  END
>  <MODEL>
2

>  <REMARK>
 VINA RESULT:      -8.0      2.197      9.194
  Name = 
  16 active torsions:
  status: ('A' for Active; 'I' for Inactive)
    1  A    between atoms: C_1  and  C_18
    2  A    between atoms: C_3  and  C_46
    3  A    between atoms: O_4  and  C_34
    4  A    between atoms: O_4  and  O_50
    5  A    between atoms: C_6  and  O_50
    6  A    between atoms: N_9  and  C_27
    7  A    between atoms: N_9  and  C_32
    8  A    between atoms: C_14  and  C_26
    9  A    between atoms: C_15  and  O_42
   10  A    between atoms: C_18  and  C_27
   11  A    between atoms: C_23  and  C_25
   12  A    between atoms: C_25  and  C_34
   13  A    between atoms: C_26  and  C_46
   14  A    between atoms: C_32  and  C_38
   15  A    between atoms: C_33  and  C_49
   16  A    between atoms: C_56  and  C_59
                            x       y       z     vdW  Elec       q    Type
                         _______ _______ _______ _____ _____    ______ ____

>  <TORSDO>
F 16

$$$$
=
 OpenBabel11042412463D

 59 65  0  0  1  0  0  0  0  0999 V2000
  189.5440  175.3020  136.1570 C   0  0  0  0  0  0  0  0  0  0  0  0
  187.5040  176.7140  135.7010 C   0  0  0  0  0  0  0  0  0  0  0  0
  190.3400  176.5160  136.5170 C   0  0  0  0  0  2  0  0  0  0  0  0
  188.5770  177.6950  137.7550 C   0  0  0  0  0  3  0  0  0  0  0  0
  187.6440  177.7150  136.6120 C   0  0  0  0  0  0  0  0  0  0  0  0
  187.5050  174.2160  135.2650 C   0  0  0  0  0  1  0  0  0  0  0  0
  188.2510  175.4190  135.7640 C   0  0  0  0  0  0  0  0  0  0  0  0
  186.8270  178.7930  136.5630 F   0  0  0  0  0  0  0  0  0  0  0  0
  189.7810  177.1300  137.7540 C   0  0  0  0  0  0  0  0  0  0  0  0
  191.1870  177.2050  139.9900 C   0  0  0  0  0  0  0  0  0  0  0  0
  190.5580  177.1610  138.9610 C   0  0  0  0  0  0  0  0  0  0  0  0
  191.9260  177.2840  141.2510 C   0  0  0  0  0  2  0  0  0  0  0  0
  191.3980  178.4270  142.1010 C   0  0  0  0  0  2  0  0  0  0  0  0
  188.1650  177.2280  143.6240 N   0  0  0  0  0  2  0  0  0  0  0  0
  190.2950  177.9460  142.9900 C   0  0  0  0  0  0  0  0  0  0  0  0
  188.9440  177.8220  142.6130 N   0  0  0  0  0  0  0  0  0  0  0  0
  190.4390  177.4910  144.2090 C   0  0  0  0  0  0  0  0  0  0  0  0
  191.6560  177.4160  144.8880 O   0  0  0  0  0  1  0  0  0  0  0  0
  189.1160  177.0270  144.7380 C   0  0  1  0  0  3  0  0  0  0  0  0
  188.4140  178.1270  141.2960 C   0  0  0  0  0  1  0  0  0  0  0  0
  189.0260  178.3420  148.4150 C   0  0  0  0  0  2  0  0  0  0  0  0
  186.7440  178.5940  147.3910 C   0  0  2  0  0  3  0  0  0  0  0  0
  189.4550  177.4620  147.2410 C   0  0  1  0  0  3  0  0  0  0  0  0
  189.3210  175.9900  147.6010 C   0  0  0  0  0  1  0  0  0  0  0  0
  188.6810  177.8430  145.9650 C   0  0  2  0  0  3  0  0  0  0  0  0
  187.1700  177.7320  146.1920 C   0  0  0  0  0  2  0  0  0  0  0  0
  187.5230  178.2450  148.6670 C   0  0  0  0  0  2  0  0  0  0  0  0
  185.3370  178.6100  147.5880 O   0  0  0  0  0  0  0  0  0  0  0  0
  184.6960  178.5490  146.3300 C   0  0  0  0  0  1  0  0  0  0  0  0
  190.2380  173.9990  136.2620 C   0  0  0  0  0  0  0  0  0  0  0  0
  189.8170  173.1130  137.0450 O   0  0  0  0  0  0  0  0  0  0  0  0
  191.4620  173.7240  135.4570 C   0  0  0  0  0  2  0  0  0  0  0  0
  192.5660  173.3550  136.3310 N   0  0  0  0  0  2  0  0  0  0  0  0
  193.3760  174.8660  137.9150 O   0  0  0  0  0  1  0  0  0  0  0  0
  193.3680  174.5520  136.5520 C   0  0  1  0  0  3  0  0  0  0  0  0
  195.6830  175.2120  136.7170 O   0  0  0  0  0  0  0  0  0  0  0  0
  196.6730  174.4220  137.3540 C   0  0  0  0  0  2  0  0  0  0  0  0
  196.9670  171.9990  137.4520 N   0  0  0  0  0  2  0  0  0  0  0  0
  196.3230  173.0410  137.0500 C   0  0  0  0  0  0  0  0  0  0  0  0
  195.2090  172.9980  136.2810 O   0  0  0  0  0  0  0  0  0  0  0  0
  194.7910  174.3300  136.0510 C   0  0  1  0  0  3  0  0  0  0  0  0
  186.5550  176.8110  134.6650 O   0  0  0  0  0  0  0  0  0  0  0  0
  185.4070  176.1150  134.6380 O   0  0  0  0  0  0  0  0  0  0  0  0
  184.5410  176.7950  135.5000 C   0  0  0  0  0  2  0  0  0  0  0  0
  184.3040  174.5300  136.2630 O   0  0  0  0  0  1  0  0  0  0  0  0
  183.7440  175.8090  136.3480 C   0  0  1  0  0  3  0  0  0  0  0  0
  183.4620  178.2420  139.0780 C   0  0  2  0  0  0  0  0  0  0  0  0
  180.6580  180.8230  138.5870 C   0  0  0  0  0  2  0  0  0  0  0  0
  184.0730  180.5720  139.0390 O   0  0  0  0  0  0  0  0  0  0  0  0
  184.2570  177.6310  137.9730 C   0  0  0  0  0  2  0  0  0  0  0  0
  183.2210  179.7270  138.8010 C   0  0  0  0  0  0  0  0  0  0  0  0
  183.6440  176.2630  137.8020 C   0  0  1  0  0  3  0  0  0  0  0  0
  181.0060  179.5380  139.2700 C   0  0  1  0  0  3  0  0  0  0  0  0
  182.3020  176.2890  138.2280 O   0  0  0  0  0  0  0  0  0  0  0  0
  184.1960  178.0610  140.3980 C   0  0  0  0  0  1  0  0  0  0  0  0
  180.8340  178.1060  138.8160 C   0  0  0  0  0  2  0  0  0  0  0  0
  181.9270  180.1100  138.1650 C   0  0  1  0  0  0  0  0  0  0  0  0
  181.7630  179.5590  136.9010 F   0  0  0  0  0  0  0  0  0  0  0  0
  182.1690  177.3750  139.1080 C   0  0  2  0  0  3  0  0  0  0  0  0
  1 30  1  0  0  0  0
  1  3  1  0  0  0  0
  2  7  1  0  0  0  0
  2  5  2  0  0  0  0
  3  9  1  0  0  0  0
  5  4  1  0  0  0  0
  6  7  1  0  0  0  0
  7  1  2  0  0  0  0
  8  5  1  0  0  0  0
  9  4  2  0  0  0  0
  9 11  1  0  0  0  0
 10 12  1  0  0  0  0
 11 10  3  0  0  0  0
 12 13  1  0  0  0  0
 13 15  1  0  0  0  0
 15 17  2  0  0  0  0
 16 15  1  0  0  0  0
 16 14  1  0  0  0  0
 17 19  1  0  0  0  0
 17 18  1  0  0  0  0
 19 14  1  6  0  0  0
 19 25  1  0  0  0  0
 20 16  1  0  0  0  0
 21 27  1  0  0  0  0
 22 28  1  1  0  0  0
 22 27  1  0  0  0  0
 23 24  1  1  0  0  0
 23 21  1  0  0  0  0
 25 26  1  1  0  0  0
 25 23  1  0  0  0  0
 26 22  1  0  0  0  0
 29 28  1  0  0  0  0
 30 31  2  0  0  0  0
 32 30  1  0  0  0  0
 32 33  1  0  0  0  0
 33 35  1  0  0  0  0
 35 34  1  1  0  0  0
 36 37  1  0  0  0  0
 39 37  1  0  0  0  0
 39 38  2  0  0  0  0
 40 39  1  0  0  0  0
 41 40  1  0  0  0  0
 41 35  1  1  0  0  0
 41 36  1  0  0  0  0
 42  2  1  0  0  0  0
 43 42  1  0  0  0  0
 43 44  1  0  0  0  0
 44 46  1  0  0  0  0
 46 45  1  1  0  0  0
 47 59  1  0  0  0  0
 47 55  1  1  0  0  0
 50 47  1  0  0  0  0
 51 49  2  0  0  0  0
 51 47  1  0  0  0  0
 52 46  1  6  0  0  0
 52 50  1  0  0  0  0
 52 54  1  0  0  0  0
 53 48  1  6  0  0  0
 54 59  1  0  0  0  0
 56 53  1  0  0  0  0
 57 58  1  6  0  0  0
 57 48  1  0  0  0  0
 57 51  1  0  0  0  0
 57 53  1  0  0  0  0
 59 56  1  6  0  0  0
M  END
>  <MODEL>
3

>  <REMARK>
 VINA RESULT:      -7.5      3.352      9.024
  Name = 
  16 active torsions:
  status: ('A' for Active; 'I' for Inactive)
    1  A    between atoms: C_1  and  C_18
    2  A    between atoms: C_3  and  C_46
    3  A    between atoms: O_4  and  C_34
    4  A    between atoms: O_4  and  O_50
    5  A    between atoms: C_6  and  O_50
    6  A    between atoms: N_9  and  C_27
    7  A    between atoms: N_9  and  C_32
    8  A    between atoms: C_14  and  C_26
    9  A    between atoms: C_15  and  O_42
   10  A    between atoms: C_18  and  C_27
   11  A    between atoms: C_23  and  C_25
   12  A    between atoms: C_25  and  C_34
   13  A    between atoms: C_26  and  C_46
   14  A    between atoms: C_32  and  C_38
   15  A    between atoms: C_33  and  C_49
   16  A    between atoms: C_56  and  C_59
                            x       y       z     vdW  Elec       q    Type
                         _______ _______ _______ _____ _____    ______ ____

>  <TORSDO>
F 16

$$$$
=
 OpenBabel11042412463D

 59 65  0  0  1  0  0  0  0  0999 V2000
  182.1950  179.0160  142.2590 C   0  0  0  0  0  0  0  0  0  0  0  0
  184.4070  178.8840  143.4630 C   0  0  0  0  0  0  0  0  0  0  0  0
  182.8800  179.3760  140.9790 C   0  0  0  0  0  2  0  0  0  0  0  0
  184.7890  177.8470  141.2020 C   0  0  0  0  0  3  0  0  0  0  0  0
  185.2340  178.4250  142.4850 C   0  0  0  0  0  0  0  0  0  0  0  0
  182.2120  178.6030  144.7010 C   0  0  0  0  0  1  0  0  0  0  0  0
  182.9130  178.8180  143.3920 C   0  0  0  0  0  0  0  0  0  0  0  0
  186.5710  178.3910  142.6910 F   0  0  0  0  0  0  0  0  0  0  0  0
  183.7120  178.2280  140.5200 C   0  0  0  0  0  0  0  0  0  0  0  0
  183.0860  176.9520  138.2930 C   0  0  0  0  0  0  0  0  0  0  0  0
  183.3880  177.5400  139.3020 C   0  0  0  0  0  0  0  0  0  0  0  0
  182.6930  176.2210  137.0870 C   0  0  0  0  0  2  0  0  0  0  0  0
  183.3100  176.8620  135.8570 C   0  0  0  0  0  2  0  0  0  0  0  0
  186.6610  175.3010  135.1180 N   0  0  0  0  0  2  0  0  0  0  0  0
  184.7580  176.4970  135.7520 C   0  0  0  0  0  0  0  0  0  0  0  0
  185.2560  175.3070  135.1850 N   0  0  0  0  0  0  0  0  0  0  0  0
  185.7660  177.2610  136.0890 C   0  0  0  0  0  0  0  0  0  0  0  0
  185.6430  178.5380  136.6370 O   0  0  0  0  0  1  0  0  0  0  0  0
  187.0560  176.5760  135.7550 C   0  0  1  0  0  3  0  0  0  0  0  0
  184.4410  174.2570  134.5990 C   0  0  0  0  0  1  0  0  0  0  0  0
  189.0570  177.2670  139.0370 C   0  0  0  0  0  2  0  0  0  0  0  0
  189.9400  175.1750  137.9570 C   0  0  2  0  0  3  0  0  0  0  0  0
  188.2780  177.5940  137.7650 C   0  0  1  0  0  3  0  0  0  0  0  0
  189.0550  178.5760  136.9010 C   0  0  0  0  0  1  0  0  0  0  0  0
  187.8940  176.3050  137.0140 C   0  0  2  0  0  3  0  0  0  0  0  0
  189.1400  175.4800  136.6800 C   0  0  0  0  0  2  0  0  0  0  0  0
  190.3090  176.4480  138.7320 C   0  0  0  0  0  2  0  0  0  0  0  0
  191.0540  174.3260  137.7220 O   0  0  0  0  0  0  0  0  0  0  0  0
  191.7120  174.7470  136.5440 C   0  0  0  0  0  1  0  0  0  0  0  0
  180.7210  178.8890  142.2100 C   0  0  0  0  0  0  0  0  0  0  0  0
  179.9870  179.7200  142.7980 O   0  0  0  0  0  0  0  0  0  0  0  0
  180.0810  177.7570  141.4790 C   0  0  0  0  0  2  0  0  0  0  0  0
  179.5080  178.2260  140.2260 N   0  0  0  0  0  2  0  0  0  0  0  0
  179.1940  177.3060  138.1030 O   0  0  0  0  0  1  0  0  0  0  0  0
  179.0830  177.0520  139.4740 C   0  0  1  0  0  3  0  0  0  0  0  0
  179.2660  175.0770  140.8480 O   0  0  0  0  0  0  0  0  0  0  0  0
  179.1170  173.7610  140.3420 C   0  0  0  0  0  2  0  0  0  0  0  0
  179.7740  172.7880  138.2000 N   0  0  0  0  0  2  0  0  0  0  0  0
  179.7110  173.7880  139.0120 C   0  0  0  0  0  0  0  0  0  0  0  0
  180.1890  175.0250  138.7360 O   0  0  0  0  0  0  0  0  0  0  0  0
  179.9340  175.8460  139.8590 C   0  0  1  0  0  3  0  0  0  0  0  0
  184.9290  179.3820  144.6720 O   0  0  0  0  0  0  0  0  0  0  0  0
  185.1720  178.6200  145.7500 O   0  0  0  0  0  0  0  0  0  0  0  0
  186.5310  178.7950  146.0290 C   0  0  0  0  0  2  0  0  0  0  0  0
  187.0060  176.7630  144.8410 O   0  0  0  0  0  1  0  0  0  0  0  0
  187.2550  177.4520  146.0310 C   0  0  1  0  0  3  0  0  0  0  0  0
  190.8190  176.9090  145.3530 C   0  0  2  0  0  0  0  0  0  0  0  0
  191.8100  177.4490  141.6800 C   0  0  0  0  0  2  0  0  0  0  0  0
  191.8270  175.0630  144.1780 O   0  0  0  0  0  0  0  0  0  0  0  0
  189.4990  176.3830  145.8080 C   0  0  0  0  0  2  0  0  0  0  0  0
  191.2880  176.1590  144.1050 C   0  0  0  0  0  0  0  0  0  0  0  0
  188.7560  177.6170  146.2600 C   0  0  1  0  0  3  0  0  0  0  0  0
  191.7840  178.0970  143.0290 C   0  0  1  0  0  3  0  0  0  0  0  0
  189.2470  178.7430  145.5720 O   0  0  0  0  0  0  0  0  0  0  0  0
  191.8390  176.7670  146.4720 C   0  0  0  0  0  1  0  0  0  0  0  0
  190.7280  178.9590  143.6840 C   0  0  0  0  0  2  0  0  0  0  0  0
  191.0070  176.7820  142.7780 C   0  0  1  0  0  0  0  0  0  0  0  0
  189.6490  176.9240  142.5260 F   0  0  0  0  0  0  0  0  0  0  0  0
  190.5400  178.4240  145.1270 C   0  0  2  0  0  3  0  0  0  0  0  0
  1  7  2  0  0  0  0
  2 42  1  0  0  0  0
  3  1  1  0  0  0  0
  4  5  1  0  0  0  0
  5  8  1  0  0  0  0
  5  2  2  0  0  0  0
  7  2  1  0  0  0  0
  7  6  1  0  0  0  0
  9  3  1  0  0  0  0
  9  4  2  0  0  0  0
 10 11  3  0  0  0  0
 11  9  1  0  0  0  0
 12 10  1  0  0  0  0
 13 12  1  0  0  0  0
 14 16  1  0  0  0  0
 15 13  1  0  0  0  0
 15 17  2  0  0  0  0
 16 15  1  0  0  0  0
 17 18  1  0  0  0  0
 19 14  1  1  0  0  0
 19 17  1  0  0  0  0
 19 25  1  0  0  0  0
 20 16  1  0  0  0  0
 22 28  1  6  0  0  0
 22 27  1  0  0  0  0
 23 24  1  6  0  0  0
 23 21  1  0  0  0  0
 25 26  1  6  0  0  0
 25 23  1  0  0  0  0
 26 22  1  0  0  0  0
 27 21  1  0  0  0  0
 29 28  1  0  0  0  0
 30  1  1  0  0  0  0
 30 31  2  0  0  0  0
 32 30  1  0  0  0  0
 33 32  1  0  0  0  0
 35 34  1  6  0  0  0
 35 33  1  0  0  0  0
 37 36  1  0  0  0  0
 38 39  2  0  0  0  0
 39 37  1  0  0  0  0
 40 39  1  0  0  0  0
 40 41  1  0  0  0  0
 41 35  1  6  0  0  0
 41 36  1  0  0  0  0
 42 43  1  0  0  0  0
 43 44  1  0  0  0  0
 44 46  1  0  0  0  0
 46 45  1  6  0  0  0
 47 50  1  0  0  0  0
 47 55  1  1  0  0  0
 48 57  1  0  0  0  0
 50 52  1  0  0  0  0
 51 49  2  0  0  0  0
 51 47  1  0  0  0  0
 52 46  1  6  0  0  0
 53 48  1  6  0  0  0
 53 56  1  0  0  0  0
 54 52  1  0  0  0  0
 57 58  1  6  0  0  0
 57 53  1  0  0  0  0
 57 51  1  0  0  0  0
 59 56  1  6  0  0  0
 59 47  1  0  0  0  0
 59 54  1  0  0  0  0
M  END
>  <MODEL>
4

>  <REMARK>
 VINA RESULT:      -7.1      2.901      7.681
  Name = 
  16 active torsions:
  status: ('A' for Active; 'I' for Inactive)
    1  A    between atoms: C_1  and  C_18
    2  A    between atoms: C_3  and  C_46
    3  A    between atoms: O_4  and  C_34
    4  A    between atoms: O_4  and  O_50
    5  A    between atoms: C_6  and  O_50
    6  A    between atoms: N_9  and  C_27
    7  A    between atoms: N_9  and  C_32
    8  A    between atoms: C_14  and  C_26
    9  A    between atoms: C_15  and  O_42
   10  A    between atoms: C_18  and  C_27
   11  A    between atoms: C_23  and  C_25
   12  A    between atoms: C_25  and  C_34
   13  A    between atoms: C_26  and  C_46
   14  A    between atoms: C_32  and  C_38
   15  A    between atoms: C_33  and  C_49
   16  A    between atoms: C_56  and  C_59
                            x       y       z     vdW  Elec       q    Type
                         _______ _______ _______ _____ _____    ______ ____

>  <TORSDO>
F 16

$$$$
=
 OpenBabel11042412463D

 59 65  0  0  1  0  0  0  0  0999 V2000
  181.3400  178.9340  141.3110 C   0  0  0  0  0  0  0  0  0  0  0  0
  183.3250  179.1830  142.8480 C   0  0  0  0  0  0  0  0  0  0  0  0
  182.1030  179.5460  140.1790 C   0  0  0  0  0  2  0  0  0  0  0  0
  184.2590  178.4580  140.6260 C   0  0  0  0  0  3  0  0  0  0  0  0
  184.3690  179.0040  141.9920 C   0  0  0  0  0  0  0  0  0  0  0  0
  181.0970  178.3210  143.6980 C   0  0  0  0  0  1  0  0  0  0  0  0
  181.9130  178.7990  142.5330 C   0  0  0  0  0  0  0  0  0  0  0  0
  185.6330  179.2460  142.4100 F   0  0  0  0  0  0  0  0  0  0  0  0
  183.2340  178.6530  139.8010 C   0  0  0  0  0  0  0  0  0  0  0  0
  183.2480  177.4730  137.4370 C   0  0  0  0  0  0  0  0  0  0  0  0
  183.2570  178.0210  138.5110 C   0  0  0  0  0  0  0  0  0  0  0  0
  183.2120  176.7830  136.1450 C   0  0  0  0  0  2  0  0  0  0  0  0
  184.4640  177.0960  135.3460 C   0  0  0  0  0  2  0  0  0  0  0  0
  187.5540  176.2700  137.3410 N   0  0  0  0  0  2  0  0  0  0  0  0
  185.6600  176.4670  135.9880 C   0  0  0  0  0  0  0  0  0  0  0  0
  186.6130  177.1480  136.7710 N   0  0  0  0  0  0  0  0  0  0  0  0
  185.9450  175.1890  135.9900 C   0  0  0  0  0  0  0  0  0  0  0  0
  185.1840  174.2080  135.3540 O   0  0  0  0  0  1  0  0  0  0  0  0
  187.1750  174.9430  136.8090 C   0  0  1  0  0  3  0  0  0  0  0  0
  186.5740  178.5640  137.0890 C   0  0  0  0  0  1  0  0  0  0  0  0
  189.2590  172.3560  134.7550 C   0  0  0  0  0  2  0  0  0  0  0  0
  190.8080  174.0860  135.7180 C   0  0  2  0  0  3  0  0  0  0  0  0
  188.1320  172.8660  135.6520 C   0  0  1  0  0  3  0  0  0  0  0  0
  188.0230  172.0140  136.9080 C   0  0  0  0  0  1  0  0  0  0  0  0
  188.3140  174.3650  135.9560 C   0  0  2  0  0  3  0  0  0  0  0  0
  189.6770  174.6250  136.6070 C   0  0  0  0  0  2  0  0  0  0  0  0
  190.6280  172.5980  135.3830 C   0  0  0  0  0  2  0  0  0  0  0  0
  192.1000  174.3880  136.2230 O   0  0  0  0  0  0  0  0  0  0  0  0
  192.5820  175.5550  135.5870 C   0  0  0  0  0  1  0  0  0  0  0  0
  179.9580  178.4920  141.0170 C   0  0  0  0  0  0  0  0  0  0  0  0
  179.1070  179.3040  140.5810 O   0  0  0  0  0  0  0  0  0  0  0  0
  179.5470  177.0800  141.2580 C   0  0  0  0  0  2  0  0  0  0  0  0
  178.9330  176.5230  140.0610 N   0  0  0  0  0  2  0  0  0  0  0  0
  181.1040  175.6730  139.9370 O   0  0  0  0  0  1  0  0  0  0  0  0
  180.0100  176.0970  139.1760 C   0  0  1  0  0  3  0  0  0  0  0  0
  179.8940  175.2400  136.9240 O   0  0  0  0  0  0  0  0  0  0  0  0
  180.6780  174.1510  136.4640 C   0  0  0  0  0  2  0  0  0  0  0  0
  181.4120  172.1180  137.6010 N   0  0  0  0  0  2  0  0  0  0  0  0
  180.7710  173.2370  137.5940 C   0  0  0  0  0  0  0  0  0  0  0  0
  180.0900  173.7310  138.6550 O   0  0  0  0  0  0  0  0  0  0  0  0
  179.5280  174.9700  138.2690 C   0  0  1  0  0  3  0  0  0  0  0  0
  183.5370  179.6760  144.1490 O   0  0  0  0  0  0  0  0  0  0  0  0
  184.0820  178.9530  145.1410 O   0  0  0  0  0  0  0  0  0  0  0  0
  185.3520  179.5020  145.3450 C   0  0  0  0  0  2  0  0  0  0  0  0
  185.3230  178.1710  147.3440 O   0  0  0  0  0  1  0  0  0  0  0  0
  186.1530  178.6520  146.3260 C   0  0  1  0  0  3  0  0  0  0  0  0
  188.5110  177.1320  143.9630 C   0  0  2  0  0  0  0  0  0  0  0  0
  192.0490  178.6220  144.1110 C   0  0  0  0  0  2  0  0  0  0  0  0
  189.4060  178.1060  141.9490 O   0  0  0  0  0  0  0  0  0  0  0  0
  187.2560  177.8970  144.2190 C   0  0  0  0  0  2  0  0  0  0  0  0
  189.4980  177.9840  143.1630 C   0  0  0  0  0  0  0  0  0  0  0  0
  186.8740  177.5030  145.6250 C   0  0  1  0  0  3  0  0  0  0  0  0
  191.2030  177.4790  144.5760 C   0  0  1  0  0  3  0  0  0  0  0  0
  188.0270  177.1250  146.3400 O   0  0  0  0  0  0  0  0  0  0  0  0
  188.1850  175.8510  143.2110 C   0  0  0  0  0  1  0  0  0  0  0  0
  190.3740  177.3190  145.8310 C   0  0  0  0  0  2  0  0  0  0  0  0
  190.5490  178.7210  143.9230 C   0  0  1  0  0  0  0  0  0  0  0  0
  190.0220  179.6570  144.8030 F   0  0  0  0  0  0  0  0  0  0  0  0
  188.9970  176.7560  145.3940 C   0  0  2  0  0  3  0  0  0  0  0  0
  1  7  2  0  0  0  0
  2 42  1  0  0  0  0
  3  1  1  0  0  0  0
  4  5  1  0  0  0  0
  5  8  1  0  0  0  0
  5  2  2  0  0  0  0
  7  2  1  0  0  0  0
  7  6  1  0  0  0  0
  9  3  1  0  0  0  0
  9  4  2  0  0  0  0
 10 11  3  0  0  0  0
 11  9  1  0  0  0  0
 12 10  1  0  0  0  0
 13 15  1  0  0  0  0
 13 12  1  0  0  0  0
 15 17  2  0  0  0  0
 15 16  1  0  0  0  0
 16 20  1  0  0  0  0
 16 14  1  0  0  0  0
 18 17  1  0  0  0  0
 19 17  1  6  0  0  0
 19 14  1  0  0  0  0
 21 27  1  0  0  0  0
 21 23  1  0  0  0  0
 22 28  1  1  0  0  0
 22 26  1  0  0  0  0
 23 25  1  0  0  0  0
 23 24  1  1  0  0  0
 25 26  1  1  0  0  0
 25 19  1  0  0  0  0
 27 22  1  0  0  0  0
 29 28  1  0  0  0  0
 30 32  1  0  0  0  0
 30  1  1  0  0  0  0
 31 30  2  0  0  0  0
 33 32  1  0  0  0  0
 35 34  1  1  0  0  0
 35 33  1  0  0  0  0
 36 41  1  0  0  0  0
 37 36  1  0  0  0  0
 37 39  1  0  0  0  0
 39 38  2  0  0  0  0
 39 40  1  0  0  0  0
 41 40  1  0  0  0  0
 41 35  1  1  0  0  0
 42 43  1  0  0  0  0
 43 44  1  0  0  0  0
 44 46  1  0  0  0  0
 46 45  1  1  0  0  0
 47 55  1  6  0  0  0
 47 50  1  0  0  0  0
 47 59  1  0  0  0  0
 49 51  2  0  0  0  0
 50 52  1  0  0  0  0
 51 57  1  0  0  0  0
 51 47  1  0  0  0  0
 52 46  1  1  0  0  0
 52 54  1  0  0  0  0
 53 48  1  1  0  0  0
 53 56  1  0  0  0  0
 57 48  1  0  0  0  0
 57 53  1  0  0  0  0
 57 58  1  1  0  0  0
 59 56  1  1  0  0  0
 59 54  1  0  0  0  0
M  END
>  <MODEL>
5

>  <REMARK>
 VINA RESULT:      -7.1      3.077      7.924
  Name = 
  16 active torsions:
  status: ('A' for Active; 'I' for Inactive)
    1  A    between atoms: C_1  and  C_18
    2  A    between atoms: C_3  and  C_46
    3  A    between atoms: O_4  and  C_34
    4  A    between atoms: O_4  and  O_50
    5  A    between atoms: C_6  and  O_50
    6  A    between atoms: N_9  and  C_27
    7  A    between atoms: N_9  and  C_32
    8  A    between atoms: C_14  and  C_26
    9  A    between atoms: C_15  and  O_42
   10  A    between atoms: C_18  and  C_27
   11  A    between atoms: C_23  and  C_25
   12  A    between atoms: C_25  and  C_34
   13  A    between atoms: C_26  and  C_46
   14  A    between atoms: C_32  and  C_38
   15  A    between atoms: C_33  and  C_49
   16  A    between atoms: C_56  and  C_59
                            x       y       z     vdW  Elec       q    Type
                         _______ _______ _______ _____ _____    ______ ____

>  <TORSDO>
F 16

$$$$
=
 OpenBabel11042412463D

 59 65  0  0  1  0  0  0  0  0999 V2000
  190.4760  177.5250  139.5020 C   0  0  0  0  0  0  0  0  0  0  0  0
  189.6270  176.6860  137.2800 C   0  0  0  0  0  0  0  0  0  0  0  0
  189.4010  178.5630  139.5540 C   0  0  0  0  0  2  0  0  0  0  0  0
  187.5810  177.1780  138.6600 C   0  0  0  0  0  3  0  0  0  0  0  0
  188.2860  176.8840  137.3980 C   0  0  0  0  0  0  0  0  0  0  0  0
  191.7410  175.7520  138.3240 C   0  0  0  0  0  1  0  0  0  0  0  0
  190.5750  176.6900  138.4380 C   0  0  0  0  0  0  0  0  0  0  0  0
  187.4820  176.7220  136.3210 F   0  0  0  0  0  0  0  0  0  0  0  0
  188.0720  177.8980  139.6650 C   0  0  0  0  0  0  0  0  0  0  0  0
  186.6210  178.2340  141.8470 C   0  0  0  0  0  0  0  0  0  0  0  0
  187.2760  178.0640  140.8490 C   0  0  0  0  0  0  0  0  0  0  0  0
  185.8470  178.4710  143.0680 C   0  0  0  0  0  2  0  0  0  0  0  0
  184.8920  179.6340  142.8690 C   0  0  0  0  0  2  0  0  0  0  0  0
  181.4910  178.5280  141.6760 N   0  0  0  0  0  2  0  0  0  0  0  0
  183.6910  179.1930  142.0920 C   0  0  0  0  0  0  0  0  0  0  0  0
  182.4750  178.7600  142.6560 N   0  0  0  0  0  0  0  0  0  0  0  0
  183.5670  179.2300  140.7900 C   0  0  0  0  0  0  0  0  0  0  0  0
  184.5610  179.6590  139.9110 O   0  0  0  0  0  1  0  0  0  0  0  0
  182.1890  178.7870  140.3990 C   0  0  1  0  0  3  0  0  0  0  0  0
  182.1920  178.6890  144.0780 C   0  0  0  0  0  1  0  0  0  0  0  0
  182.5580  176.4960  137.2570 C   0  0  0  0  0  2  0  0  0  0  0  0
  181.0340  175.3820  138.9170 C   0  0  2  0  0  3  0  0  0  0  0  0
  182.4700  177.7990  138.0500 C   0  0  1  0  0  3  0  0  0  0  0  0
  181.4210  178.7220  137.4460 C   0  0  0  0  0  1  0  0  0  0  0  0
  182.2290  177.5110  139.5440 C   0  0  2  0  0  3  0  0  0  0  0  0
  180.9570  176.6790  139.7390 C   0  0  0  0  0  2  0  0  0  0  0  0
  181.3000  175.6490  137.4290 C   0  0  0  0  0  2  0  0  0  0  0  0
  179.9250  174.5220  139.1370 O   0  0  0  0  0  0  0  0  0  0  0  0
  179.7430  174.3530  140.5280 C   0  0  0  0  0  1  0  0  0  0  0  0
  191.3980  177.4660  140.6590 C   0  0  0  0  0  0  0  0  0  0  0  0
  192.5910  177.8380  140.5450 O   0  0  0  0  0  0  0  0  0  0  0  0
  190.9310  176.9420  141.9740 C   0  0  0  0  0  2  0  0  0  0  0  0
  190.3180  178.0080  142.7520 N   0  0  0  0  0  2  0  0  0  0  0  0
  189.7960  176.0020  143.8270 O   0  0  0  0  0  1  0  0  0  0  0  0
  189.6900  177.3940  143.9160 C   0  0  1  0  0  3  0  0  0  0  0  0
  189.4390  177.8160  146.2780 O   0  0  0  0  0  0  0  0  0  0  0  0
  190.0290  177.0040  147.2810 C   0  0  0  0  0  2  0  0  0  0  0  0
  192.1730  175.8360  147.3350 N   0  0  0  0  0  2  0  0  0  0  0  0
  191.3190  176.5970  146.7400 C   0  0  0  0  0  0  0  0  0  0  0  0
  191.5000  177.1280  145.5070 O   0  0  0  0  0  0  0  0  0  0  0  0
  190.3530  177.8950  145.1950 C   0  0  1  0  0  3  0  0  0  0  0  0
  190.2020  176.3720  136.0340 O   0  0  0  0  0  0  0  0  0  0  0  0
  191.5160  176.4620  135.7750 O   0  0  0  0  0  0  0  0  0  0  0  0
  191.7500  175.5600  134.7320 C   0  0  0  0  0  2  0  0  0  0  0  0
  190.7760  173.3700  134.5940 O   0  0  0  0  0  1  0  0  0  0  0  0
  191.7510  174.1270  135.2510 C   0  0  1  0  0  3  0  0  0  0  0  0
  195.3830  173.8640  135.6950 C   0  0  2  0  0  0  0  0  0  0  0  0
  196.5660  174.4880  139.2970 C   0  0  0  0  0  2  0  0  0  0  0  0
  196.9510  175.6550  136.0680 O   0  0  0  0  0  0  0  0  0  0  0  0
  194.2070  174.5270  135.0600 C   0  0  0  0  0  2  0  0  0  0  0  0
  196.1550  174.8640  136.5570 C   0  0  0  0  0  0  0  0  0  0  0  0
  193.1260  173.4750  135.1170 C   0  0  1  0  0  3  0  0  0  0  0  0
  196.2350  173.4170  138.3060 C   0  0  1  0  0  3  0  0  0  0  0  0
  193.3730  172.6010  136.1930 O   0  0  0  0  0  0  0  0  0  0  0  0
  196.2860  173.2840  134.6180 C   0  0  0  0  0  1  0  0  0  0  0  0
  194.9300  172.7050  138.0280 C   0  0  0  0  0  2  0  0  0  0  0  0
  195.8580  174.8910  138.0190 C   0  0  1  0  0  0  0  0  0  0  0  0
  194.5420  175.2400  138.2950 F   0  0  0  0  0  0  0  0  0  0  0  0
  194.7430  172.6880  136.4900 C   0  0  2  0  0  3  0  0  0  0  0  0
  1  3  1  0  0  0  0
  1 30  1  0  0  0  0
  2  5  2  0  0  0  0
  2  7  1  0  0  0  0
  3  9  1  0  0  0  0
  4  9  2  0  0  0  0
  5  4  1  0  0  0  0
  6  7  1  0  0  0  0
  7  1  2  0  0  0  0
  8  5  1  0  0  0  0
  9 11  1  0  0  0  0
 10 12  1  0  0  0  0
 11 10  3  0  0  0  0
 13 12  1  0  0  0  0
 14 16  1  0  0  0  0
 15 16  1  0  0  0  0
 15 13  1  0  0  0  0
 16 20  1  0  0  0  0
 17 15  2  0  0  0  0
 18 17  1  0  0  0  0
 19 17  1  1  0  0  0
 19 14  1  0  0  0  0
 21 27  1  0  0  0  0
 21 23  1  0  0  0  0
 22 28  1  6  0  0  0
 22 26  1  0  0  0  0
 23 24  1  6  0  0  0
 23 25  1  0  0  0  0
 25 26  1  6  0  0  0
 25 19  1  0  0  0  0
 27 22  1  0  0  0  0
 28 29  1  0  0  0  0
 30 32  1  0  0  0  0
 31 30  2  0  0  0  0
 32 33  1  0  0  0  0
 33 35  1  0  0  0  0
 35 34  1  6  0  0  0
 36 37  1  0  0  0  0
 39 37  1  0  0  0  0
 39 38  2  0  0  0  0
 40 39  1  0  0  0  0
 41 35  1  6  0  0  0
 41 40  1  0  0  0  0
 41 36  1  0  0  0  0
 42  2  1  0  0  0  0
 43 42  1  0  0  0  0
 44 46  1  0  0  0  0
 44 43  1  0  0  0  0
 46 45  1  6  0  0  0
 47 55  1  6  0  0  0
 47 59  1  0  0  0  0
 47 51  1  0  0  0  0
 49 51  2  0  0  0  0
 50 52  1  0  0  0  0
 50 47  1  0  0  0  0
 51 57  1  0  0  0  0
 52 46  1  1  0  0  0
 52 54  1  0  0  0  0
 53 56  1  1  0  0  0
 53 48  1  0  0  0  0
 54 59  1  0  0  0  0
 57 58  1  1  0  0  0
 57 53  1  0  0  0  0
 57 48  1  0  0  0  0
 59 56  1  1  0  0  0
M  END
>  <MODEL>
6

>  <REMARK>
 VINA RESULT:      -7.1      2.972      8.611
  Name = 
  16 active torsions:
  status: ('A' for Active; 'I' for Inactive)
    1  A    between atoms: C_1  and  C_18
    2  A    between atoms: C_3  and  C_46
    3  A    between atoms: O_4  and  C_34
    4  A    between atoms: O_4  and  O_50
    5  A    between atoms: C_6  and  O_50
    6  A    between atoms: N_9  and  C_27
    7  A    between atoms: N_9  and  C_32
    8  A    between atoms: C_14  and  C_26
    9  A    between atoms: C_15  and  O_42
   10  A    between atoms: C_18  and  C_27
   11  A    between atoms: C_23  and  C_25
   12  A    between atoms: C_25  and  C_34
   13  A    between atoms: C_26  and  C_46
   14  A    between atoms: C_32  and  C_38
   15  A    between atoms: C_33  and  C_49
   16  A    between atoms: C_56  and  C_59
                            x       y       z     vdW  Elec       q    Type
                         _______ _______ _______ _____ _____    ______ ____

>  <TORSDO>
F 16

$$$$
=
 OpenBabel11042412463D

 59 65  0  0  1  0  0  0  0  0999 V2000
  181.9780  177.1430  138.1030 C   0  0  0  0  0  0  0  0  0  0  0  0
  183.8810  177.6440  136.5240 C   0  0  0  0  0  0  0  0  0  0  0  0
  182.9330  176.6500  139.1430 C   0  0  0  0  0  2  0  0  0  0  0  0
  184.6730  178.3490  138.8070 C   0  0  0  0  0  3  0  0  0  0  0  0
  184.8700  178.0150  137.3830 C   0  0  0  0  0  0  0  0  0  0  0  0
  181.4640  177.9270  135.8110 C   0  0  0  0  0  1  0  0  0  0  0  0
  182.4340  177.5730  136.9000 C   0  0  0  0  0  0  0  0  0  0  0  0
  186.1310  178.1920  136.9250 F   0  0  0  0  0  0  0  0  0  0  0  0
  183.7830  177.7790  139.6140 C   0  0  0  0  0  0  0  0  0  0  0  0
  183.5790  178.6080  142.1140 C   0  0  0  0  0  0  0  0  0  0  0  0
  183.6860  178.2410  140.9700 C   0  0  0  0  0  0  0  0  0  0  0  0
  183.4160  179.0340  143.5060 C   0  0  0  0  0  2  0  0  0  0  0  0
  184.6750  179.7280  143.9950 C   0  0  0  0  0  2  0  0  0  0  0  0
  186.4870  177.2160  146.1430 N   0  0  0  0  0  2  0  0  0  0  0  0
  185.6170  178.7310  144.5940 C   0  0  0  0  0  0  0  0  0  0  0  0
  185.5390  178.2290  145.9080 N   0  0  0  0  0  0  0  0  0  0  0  0
  186.5880  178.1220  143.9630 C   0  0  0  0  0  0  0  0  0  0  0  0
  186.9200  178.3360  142.6250 O   0  0  0  0  0  1  0  0  0  0  0  0
  187.2490  177.1360  144.8780 C   0  0  1  0  0  3  0  0  0  0  0  0
  184.5220  178.5880  146.8800 C   0  0  0  0  0  1  0  0  0  0  0  0
  191.0420  177.7180  144.1470 C   0  0  0  0  0  2  0  0  0  0  0  0
  190.7500  177.1170  146.5710 C   0  0  2  0  0  3  0  0  0  0  0  0
  189.6000  177.2940  143.8700 C   0  0  1  0  0  3  0  0  0  0  0  0
  189.5560  175.8710  143.3330 C   0  0  0  0  0  1  0  0  0  0  0  0
  188.7230  177.4930  145.1210 C   0  0  2  0  0  3  0  0  0  0  0  0
  189.2910  176.7120  146.3110 C   0  0  0  0  0  2  0  0  0  0  0  0
  191.6330  176.9500  145.3270 C   0  0  0  0  0  2  0  0  0  0  0  0
  191.2970  176.4990  147.7260 O   0  0  0  0  0  0  0  0  0  0  0  0
  192.5790  175.9920  147.4140 C   0  0  0  0  0  1  0  0  0  0  0  0
  180.5420  177.1370  138.4630 C   0  0  0  0  0  0  0  0  0  0  0  0
  180.0990  177.9270  139.3310 O   0  0  0  0  0  0  0  0  0  0  0  0
  179.6020  176.1760  137.8180 C   0  0  0  0  0  2  0  0  0  0  0  0
  180.2000  174.8500  137.7600 N   0  0  0  0  0  2  0  0  0  0  0  0
  179.2200  175.1660  135.6640 O   0  0  0  0  0  1  0  0  0  0  0  0
  179.7030  174.2000  136.5530 C   0  0  1  0  0  3  0  0  0  0  0  0
  181.6570  174.2430  135.1380 O   0  0  0  0  0  0  0  0  0  0  0  0
  182.9790  174.0980  135.6310 C   0  0  0  0  0  2  0  0  0  0  0  0
  183.8650  172.7300  137.4510 N   0  0  0  0  0  2  0  0  0  0  0  0
  182.8820  173.1360  136.7210 C   0  0  0  0  0  0  0  0  0  0  0  0
  181.6010  172.7250  136.8720 O   0  0  0  0  0  0  0  0  0  0  0  0
  180.8160  173.3880  135.8990 C   0  0  1  0  0  3  0  0  0  0  0  0
  184.1640  177.3830  135.1700 O   0  0  0  0  0  0  0  0  0  0  0  0
  185.4010  177.4030  134.6500 O   0  0  0  0  0  0  0  0  0  0  0  0
  185.9810  176.1870  135.0280 C   0  0  0  0  0  2  0  0  0  0  0  0
  188.0070  177.4110  134.6210 O   0  0  0  0  0  1  0  0  0  0  0  0
  187.4420  176.1320  134.5940 C   0  0  1  0  0  3  0  0  0  0  0  0
  190.2760  175.0680  136.6650 C   0  0  2  0  0  0  0  0  0  0  0  0
  191.1760  177.5360  139.4690 C   0  0  0  0  0  2  0  0  0  0  0  0
  192.5060  175.9810  136.6870 O   0  0  0  0  0  0  0  0  0  0  0  0
  189.7280  175.4580  135.3340 C   0  0  0  0  0  2  0  0  0  0  0  0
  191.3590  176.0560  137.1050 C   0  0  0  0  0  0  0  0  0  0  0  0
  188.2530  175.1620  135.4510 C   0  0  1  0  0  3  0  0  0  0  0  0
  190.4390  176.2690  139.1710 C   0  0  1  0  0  3  0  0  0  0  0  0
  187.8610  175.2390  136.8010 O   0  0  0  0  0  0  0  0  0  0  0  0
  190.8430  173.6590  136.5930 C   0  0  0  0  0  1  0  0  0  0  0  0
  188.9990  176.0430  138.7660 C   0  0  0  0  0  2  0  0  0  0  0  0
  190.9530  177.1640  138.0170 C   0  0  1  0  0  0  0  0  0  0  0  0
  190.0120  178.0140  137.4490 F   0  0  0  0  0  0  0  0  0  0  0  0
  189.0150  175.0470  137.5780 C   0  0  2  0  0  3  0  0  0  0  0  0
  1 30  1  0  0  0  0
  1  3  1  0  0  0  0
  2  7  1  0  0  0  0
  2  5  2  0  0  0  0
  3  9  1  0  0  0  0
  4  9  2  0  0  0  0
  5  4  1  0  0  0  0
  6  7  1  0  0  0  0
  7  1  2  0  0  0  0
  8  5  1  0  0  0  0
  9 11  1  0  0  0  0
 10 12  1  0  0  0  0
 11 10  3  0  0  0  0
 12 13  1  0  0  0  0
 13 15  1  0  0  0  0
 15 16  1  0  0  0  0
 16 14  1  0  0  0  0
 16 20  1  0  0  0  0
 17 15  2  0  0  0  0
 18 17  1  0  0  0  0
 19 17  1  6  0  0  0
 19 25  1  0  0  0  0
 19 14  1  0  0  0  0
 21 27  1  0  0  0  0
 22 28  1  1  0  0  0
 23 24  1  1  0  0  0
 23 21  1  0  0  0  0
 23 25  1  0  0  0  0
 25 26  1  1  0  0  0
 26 22  1  0  0  0  0
 27 22  1  0  0  0  0
 29 28  1  0  0  0  0
 30 31  2  0  0  0  0
 32 30  1  0  0  0  0
 33 32  1  0  0  0  0
 35 34  1  6  0  0  0
 35 33  1  0  0  0  0
 36 37  1  0  0  0  0
 36 41  1  0  0  0  0
 37 39  1  0  0  0  0
 39 40  1  0  0  0  0
 39 38  2  0  0  0  0
 41 35  1  1  0  0  0
 41 40  1  0  0  0  0
 42  2  1  0  0  0  0
 43 44  1  0  0  0  0
 43 42  1  0  0  0  0
 46 45  1  1  0  0  0
 46 44  1  0  0  0  0
 47 55  1  6  0  0  0
 47 51  1  0  0  0  0
 47 59  1  0  0  0  0
 49 51  2  0  0  0  0
 50 52  1  0  0  0  0
 50 47  1  0  0  0  0
 51 57  1  0  0  0  0
 52 46  1  6  0  0  0
 52 54  1  0  0  0  0
 53 56  1  1  0  0  0
 53 48  1  0  0  0  0
 54 59  1  0  0  0  0
 57 58  1  6  0  0  0
 57 53  1  0  0  0  0
 57 48  1  0  0  0  0
 59 56  1  1  0  0  0
M  END
>  <MODEL>
7

>  <REMARK>
 VINA RESULT:      -7.0      1.901      3.307
  Name = 
  16 active torsions:
  status: ('A' for Active; 'I' for Inactive)
    1  A    between atoms: C_1  and  C_18
    2  A    between atoms: C_3  and  C_46
    3  A    between atoms: O_4  and  C_34
    4  A    between atoms: O_4  and  O_50
    5  A    between atoms: C_6  and  O_50
    6  A    between atoms: N_9  and  C_27
    7  A    between atoms: N_9  and  C_32
    8  A    between atoms: C_14  and  C_26
    9  A    between atoms: C_15  and  O_42
   10  A    between atoms: C_18  and  C_27
   11  A    between atoms: C_23  and  C_25
   12  A    between atoms: C_25  and  C_34
   13  A    between atoms: C_26  and  C_46
   14  A    between atoms: C_32  and  C_38
   15  A    between atoms: C_33  and  C_49
   16  A    between atoms: C_56  and  C_59
                            x       y       z     vdW  Elec       q    Type
                         _______ _______ _______ _____ _____    ______ ____

>  <TORSDO>
F 16

$$$$
=
 OpenBabel11042412463D

 59 65  0  0  1  0  0  0  0  0999 V2000
  181.3030  179.0030  140.9660 C   0  0  0  0  0  0  0  0  0  0  0  0
  183.2160  179.0000  142.6090 C   0  0  0  0  0  0  0  0  0  0  0  0
  182.2540  179.0480  139.8130 C   0  0  0  0  0  2  0  0  0  0  0  0
  183.9260  177.4950  140.7210 C   0  0  0  0  0  3  0  0  0  0  0  0
  184.1690  178.3020  141.9320 C   0  0  0  0  0  0  0  0  0  0  0  0
  180.8070  179.1080  143.3900 C   0  0  0  0  0  1  0  0  0  0  0  0
  181.7660  179.0050  142.2410 C   0  0  0  0  0  0  0  0  0  0  0  0
  185.4310  178.2370  142.4160 F   0  0  0  0  0  0  0  0  0  0  0  0
  183.0440  177.7850  139.7690 C   0  0  0  0  0  0  0  0  0  0  0  0
  182.7440  176.1020  137.7540 C   0  0  0  0  0  0  0  0  0  0  0  0
  182.8960  176.8780  138.6660 C   0  0  0  0  0  0  0  0  0  0  0  0
  182.5360  175.1410  136.6690 C   0  0  0  0  0  2  0  0  0  0  0  0
  183.2560  175.6000  135.4130 C   0  0  0  0  0  2  0  0  0  0  0  0
  186.8150  174.3850  135.6700 N   0  0  0  0  0  2  0  0  0  0  0  0
  184.7350  175.4440  135.5760 C   0  0  0  0  0  0  0  0  0  0  0  0
  185.4190  174.2130  135.6390 N   0  0  0  0  0  0  0  0  0  0  0  0
  185.6100  176.4170  135.5950 C   0  0  0  0  0  0  0  0  0  0  0  0
  185.2900  177.7710  135.5000 O   0  0  0  0  0  1  0  0  0  0  0  0
  186.9960  175.8530  135.6880 C   0  0  1  0  0  3  0  0  0  0  0  0
  184.7950  172.9060  135.5390 C   0  0  0  0  0  1  0  0  0  0  0  0
  188.5040  178.1990  138.4220 C   0  0  0  0  0  2  0  0  0  0  0  0
  189.7140  175.9960  138.4650 C   0  0  2  0  0  3  0  0  0  0  0  0
  187.8560  177.8170  137.0920 C   0  0  1  0  0  3  0  0  0  0  0  0
  188.6320  178.4180  135.9290 C   0  0  0  0  0  1  0  0  0  0  0  0
  187.6960  176.2890  136.9840 C   0  0  2  0  0  3  0  0  0  0  0  0
  189.0500  175.5890  137.1400 C   0  0  0  0  0  2  0  0  0  0  0  0
  189.8580  177.5190  138.6010 C   0  0  0  0  0  2  0  0  0  0  0  0
  190.9270  175.3010  138.7120 O   0  0  0  0  0  0  0  0  0  0  0  0
  191.4130  174.7750  137.4930 C   0  0  0  0  0  1  0  0  0  0  0  0
  179.8610  178.9510  140.6350 C   0  0  0  0  0  0  0  0  0  0  0  0
  179.0420  178.4280  141.4290 O   0  0  0  0  0  0  0  0  0  0  0  0
  179.3590  179.4980  139.3420 C   0  0  0  0  0  2  0  0  0  0  0  0
  179.5760  180.9360  139.2860 N   0  0  0  0  0  2  0  0  0  0  0  0
  179.4270  180.2680  137.0540 O   0  0  0  0  0  1  0  0  0  0  0  0
  179.8910  181.2770  137.9040 C   0  0  1  0  0  3  0  0  0  0  0  0
  179.8070  183.6490  138.3370 O   0  0  0  0  0  0  0  0  0  0  0  0
  180.3620  184.6190  137.4640 C   0  0  0  0  0  2  0  0  0  0  0  0
  180.4930  184.6880  135.0260 N   0  0  0  0  0  2  0  0  0  0  0  0
  180.1300  184.1090  136.1190 C   0  0  0  0  0  0  0  0  0  0  0  0
  179.4780  182.9230  136.1730 O   0  0  0  0  0  0  0  0  0  0  0  0
  179.2560  182.6140  137.5360 C   0  0  1  0  0  3  0  0  0  0  0  0
  183.5410  179.7100  143.7810 O   0  0  0  0  0  0  0  0  0  0  0  0
  183.9740  179.1270  144.9100 O   0  0  0  0  0  0  0  0  0  0  0  0
  185.2910  179.5680  145.0740 C   0  0  0  0  0  2  0  0  0  0  0  0
  185.1110  178.2820  147.0940 O   0  0  0  0  0  1  0  0  0  0  0  0
  186.0120  178.7260  146.1210 C   0  0  1  0  0  3  0  0  0  0  0  0
  188.4970  177.1150  143.9560 C   0  0  2  0  0  0  0  0  0  0  0  0
  192.0510  178.5260  144.3390 C   0  0  0  0  0  2  0  0  0  0  0  0
  189.5580  178.0350  141.9980 O   0  0  0  0  0  0  0  0  0  0  0  0
  187.2460  177.9130  144.1100 C   0  0  0  0  0  2  0  0  0  0  0  0
  189.5600  177.9310  143.2180 C   0  0  0  0  0  0  0  0  0  0  0  0
  186.7550  177.5500  145.4910 C   0  0  1  0  0  3  0  0  0  0  0  0
  191.1460  177.4100  144.7580 C   0  0  1  0  0  3  0  0  0  0  0  0
  187.8440  177.1570  146.2920 O   0  0  0  0  0  0  0  0  0  0  0  0
  188.1960  175.8300  143.2020 C   0  0  0  0  0  1  0  0  0  0  0  0
  190.2250  177.2890  145.9510 C   0  0  0  0  0  2  0  0  0  0  0  0
  190.5710  178.6560  144.0410 C   0  0  1  0  0  0  0  0  0  0  0  0
  190.0040  179.6180  144.8680 F   0  0  0  0  0  0  0  0  0  0  0  0
  188.8700  176.7510  145.4240 C   0  0  2  0  0  3  0  0  0  0  0  0
  1  7  2  0  0  0  0
  2 42  1  0  0  0  0
  3  1  1  0  0  0  0
  4  5  1  0  0  0  0
  5  8  1  0  0  0  0
  5  2  2  0  0  0  0
  7  2  1  0  0  0  0
  7  6  1  0  0  0  0
  9  3  1  0  0  0  0
  9  4  2  0  0  0  0
 10 11  3  0  0  0  0
 11  9  1  0  0  0  0
 12 10  1  0  0  0  0
 13 15  1  0  0  0  0
 13 12  1  0  0  0  0
 14 19  1  0  0  0  0
 15 17  2  0  0  0  0
 15 16  1  0  0  0  0
 16 14  1  0  0  0  0
 18 17  1  0  0  0  0
 19 17  1  1  0  0  0
 19 25  1  0  0  0  0
 20 16  1  0  0  0  0
 21 27  1  0  0  0  0
 22 27  1  0  0  0  0
 22 28  1  6  0  0  0
 23 24  1  6  0  0  0
 23 21  1  0  0  0  0
 25 23  1  0  0  0  0
 25 26  1  6  0  0  0
 26 22  1  0  0  0  0
 29 28  1  0  0  0  0
 30  1  1  0  0  0  0
 30 31  2  0  0  0  0
 32 30  1  0  0  0  0
 33 32  1  0  0  0  0
 35 34  1  6  0  0  0
 35 33  1  0  0  0  0
 37 36  1  0  0  0  0
 38 39  2  0  0  0  0
 39 40  1  0  0  0  0
 39 37  1  0  0  0  0
 40 41  1  0  0  0  0
 41 35  1  1  0  0  0
 41 36  1  0  0  0  0
 42 43  1  0  0  0  0
 43 44  1  0  0  0  0
 44 46  1  0  0  0  0
 46 45  1  1  0  0  0
 47 55  1  6  0  0  0
 47 50  1  0  0  0  0
 47 59  1  0  0  0  0
 49 51  2  0  0  0  0
 50 52  1  0  0  0  0
 51 47  1  0  0  0  0
 51 57  1  0  0  0  0
 52 46  1  1  0  0  0
 52 54  1  0  0  0  0
 53 48  1  1  0  0  0
 53 56  1  0  0  0  0
 57 48  1  0  0  0  0
 57 53  1  0  0  0  0
 57 58  1  1  0  0  0
 59 56  1  1  0  0  0
 59 54  1  0  0  0  0
M  END
>  <MODEL>
8

>  <REMARK>
 VINA RESULT:      -7.0      2.747      7.210
  Name = 
  16 active torsions:
  status: ('A' for Active; 'I' for Inactive)
    1  A    between atoms: C_1  and  C_18
    2  A    between atoms: C_3  and  C_46
    3  A    between atoms: O_4  and  C_34
    4  A    between atoms: O_4  and  O_50
    5  A    between atoms: C_6  and  O_50
    6  A    between atoms: N_9  and  C_27
    7  A    between atoms: N_9  and  C_32
    8  A    between atoms: C_14  and  C_26
    9  A    between atoms: C_15  and  O_42
   10  A    between atoms: C_18  and  C_27
   11  A    between atoms: C_23  and  C_25
   12  A    between atoms: C_25  and  C_34
   13  A    between atoms: C_26  and  C_46
   14  A    between atoms: C_32  and  C_38
   15  A    between atoms: C_33  and  C_49
   16  A    between atoms: C_56  and  C_59
                            x       y       z     vdW  Elec       q    Type
                         _______ _______ _______ _____ _____    ______ ____

>  <TORSDO>
F 16

$$$$
=
 OpenBabel11042412463D

 59 65  0  0  1  0  0  0  0  0999 V2000
  189.4010  175.7610  136.7000 C   0  0  0  0  0  0  0  0  0  0  0  0
  187.1060  176.8000  136.5710 C   0  0  0  0  0  0  0  0  0  0  0  0
  190.0140  177.0850  137.0250 C   0  0  0  0  0  2  0  0  0  0  0  0
  188.2480  177.8900  138.5300 C   0  0  0  0  0  3  0  0  0  0  0  0
  187.1860  177.7800  137.5120 C   0  0  0  0  0  0  0  0  0  0  0  0
  187.4830  174.3570  136.0030 C   0  0  0  0  0  1  0  0  0  0  0  0
  188.0670  175.6570  136.4720 C   0  0  0  0  0  0  0  0  0  0  0  0
  186.1960  178.6950  137.6210 F   0  0  0  0  0  0  0  0  0  0  0  0
  189.5210  177.5490  138.3530 C   0  0  0  0  0  0  0  0  0  0  0  0
  191.1750  177.7690  140.4020 C   0  0  0  0  0  0  0  0  0  0  0  0
  190.4310  177.6790  139.4570 C   0  0  0  0  0  0  0  0  0  0  0  0
  192.0510  177.8620  141.5720 C   0  0  0  0  0  2  0  0  0  0  0  0
  191.9750  176.5850  142.3900 C   0  0  0  0  0  2  0  0  0  0  0  0
  191.2280  176.5950  146.0850 N   0  0  0  0  0  2  0  0  0  0  0  0
  191.5440  176.8910  143.7900 C   0  0  0  0  0  0  0  0  0  0  0  0
  191.5800  175.9840  144.8670 N   0  0  0  0  0  0  0  0  0  0  0  0
  191.1570  178.0610  144.2330 C   0  0  0  0  0  0  0  0  0  0  0  0
  191.0540  179.2100  143.4490 O   0  0  0  0  0  1  0  0  0  0  0  0
  190.8910  177.9840  145.7060 C   0  0  1  0  0  3  0  0  0  0  0  0
  192.0560  174.6150  144.7900 C   0  0  0  0  0  1  0  0  0  0  0  0
  187.5640  178.2120  147.7390 C   0  0  0  0  0  2  0  0  0  0  0  0
  187.0240  178.0130  145.2910 C   0  0  2  0  0  3  0  0  0  0  0  0
  189.0170  177.8400  147.4480 C   0  0  1  0  0  3  0  0  0  0  0  0
  189.2470  176.3560  147.6950 C   0  0  0  0  0  1  0  0  0  0  0  0
  189.4190  178.2830  146.0290 C   0  0  2  0  0  3  0  0  0  0  0  0
  188.4880  177.6620  144.9820 C   0  0  0  0  0  2  0  0  0  0  0  0
  186.6130  177.6010  146.7120 C   0  0  0  0  0  2  0  0  0  0  0  0
  186.1230  177.5480  144.2970 O   0  0  0  0  0  0  0  0  0  0  0  0
  186.6640  177.8240  143.0210 C   0  0  0  0  0  1  0  0  0  0  0  0
  190.3170  174.5990  136.6480 C   0  0  0  0  0  0  0  0  0  0  0  0
  190.0290  173.5320  137.2420 O   0  0  0  0  0  0  0  0  0  0  0  0
  191.6090  174.6850  135.9100 C   0  0  0  0  0  2  0  0  0  0  0  0
  192.7140  174.3220  136.7860 N   0  0  0  0  0  2  0  0  0  0  0  0
  193.5030  176.4090  137.4740 O   0  0  0  0  0  1  0  0  0  0  0  0
  193.7530  175.3310  136.6190 C   0  0  1  0  0  3  0  0  0  0  0  0
  195.5530  175.1150  138.2110 O   0  0  0  0  0  0  0  0  0  0  0  0
  195.7960  173.9320  138.9550 C   0  0  0  0  0  2  0  0  0  0  0  0
  195.5530  171.5800  138.3430 N   0  0  0  0  0  2  0  0  0  0  0  0
  195.4780  172.8340  138.0520 C   0  0  0  0  0  0  0  0  0  0  0  0
  195.0800  173.3150  136.8500 O   0  0  0  0  0  0  0  0  0  0  0  0
  195.1220  174.7270  136.9140 C   0  0  1  0  0  3  0  0  0  0  0  0
  186.0290  176.7590  135.6650 O   0  0  0  0  0  0  0  0  0  0  0  0
  184.8310  177.3160  135.9050 O   0  0  0  0  0  0  0  0  0  0  0  0
  183.9410  176.2430  136.0230 C   0  0  0  0  0  2  0  0  0  0  0  0
  183.4990  175.4510  138.2460 O   0  0  0  0  0  1  0  0  0  0  0  0
  183.0960  176.3830  137.2840 C   0  0  1  0  0  3  0  0  0  0  0  0
  181.8330  179.3020  139.1120 C   0  0  2  0  0  0  0  0  0  0  0  0
  180.4640  178.4840  142.6080 C   0  0  0  0  0  2  0  0  0  0  0  0
  179.5370  179.8630  139.5790 O   0  0  0  0  0  0  0  0  0  0  0  0
  181.7590  178.3870  137.9360 C   0  0  0  0  0  2  0  0  0  0  0  0
  180.5340  179.2380  139.9170 C   0  0  0  0  0  0  0  0  0  0  0  0
  183.1480  177.8010  137.8480 C   0  0  1  0  0  3  0  0  0  0  0  0
  181.6630  178.9970  141.8730 C   0  0  1  0  0  3  0  0  0  0  0  0
  183.7480  177.8130  139.1210 O   0  0  0  0  0  0  0  0  0  0  0  0
  182.0940  180.7230  138.6390 C   0  0  0  0  0  1  0  0  0  0  0  0
  182.8610  178.2630  141.3160 C   0  0  0  0  0  2  0  0  0  0  0  0
  180.4980  178.3310  141.1010 C   0  0  1  0  0  0  0  0  0  0  0  0
  180.6850  176.9970  140.7640 F   0  0  0  0  0  0  0  0  0  0  0  0
  183.0910  178.7960  139.8780 C   0  0  2  0  0  3  0  0  0  0  0  0
  1  3  1  0  0  0  0
  2  5  2  0  0  0  0
  3  9  1  0  0  0  0
  5  8  1  0  0  0  0
  5  4  1  0  0  0  0
  6  7  1  0  0  0  0
  7  2  1  0  0  0  0
  7  1  2  0  0  0  0
  9  4  2  0  0  0  0
  9 11  1  0  0  0  0
 10 12  1  0  0  0  0
 11 10  3  0  0  0  0
 12 13  1  0  0  0  0
 13 15  1  0  0  0  0
 15 17  2  0  0  0  0
 15 16  1  0  0  0  0
 16 14  1  0  0  0  0
 18 17  1  0  0  0  0
 19 17  1  6  0  0  0
 19 25  1  0  0  0  0
 19 14  1  0  0  0  0
 20 16  1  0  0  0  0
 22 28  1  6  0  0  0
 22 27  1  0  0  0  0
 23 24  1  6  0  0  0
 23 21  1  0  0  0  0
 25 26  1  6  0  0  0
 25 23  1  0  0  0  0
 26 22  1  0  0  0  0
 27 21  1  0  0  0  0
 29 28  1  0  0  0  0
 30  1  1  0  0  0  0
 30 31  2  0  0  0  0
 32 30  1  0  0  0  0
 32 33  1  0  0  0  0
 35 33  1  0  0  0  0
 35 34  1  1  0  0  0
 36 37  1  0  0  0  0
 39 38  2  0  0  0  0
 39 37  1  0  0  0  0
 40 41  1  0  0  0  0
 40 39  1  0  0  0  0
 41 35  1  1  0  0  0
 41 36  1  0  0  0  0
 42 43  1  0  0  0  0
 42  2  1  0  0  0  0
 43 44  1  0  0  0  0
 44 46  1  0  0  0  0
 46 45  1  1  0  0  0
 47 55  1  6  0  0  0
 47 59  1  0  0  0  0
 47 51  1  0  0  0  0
 49 51  2  0  0  0  0
 50 47  1  0  0  0  0
 51 57  1  0  0  0  0
 52 46  1  1  0  0  0
 52 50  1  0  0  0  0
 52 54  1  0  0  0  0
 53 56  1  1  0  0  0
 53 48  1  0  0  0  0
 54 59  1  0  0  0  0
 57 58  1  6  0  0  0
 57 53  1  0  0  0  0
 57 48  1  0  0  0  0
 59 56  1  1  0  0  0
M  END
>  <MODEL>
9

>  <REMARK>
 VINA RESULT:      -6.9      3.361      9.243
  Name = 
  16 active torsions:
  status: ('A' for Active; 'I' for Inactive)
    1  A    between atoms: C_1  and  C_18
    2  A    between atoms: C_3  and  C_46
    3  A    between atoms: O_4  and  C_34
    4  A    between atoms: O_4  and  O_50
    5  A    between atoms: C_6  and  O_50
    6  A    between atoms: N_9  and  C_27
    7  A    between atoms: N_9  and  C_32
    8  A    between atoms: C_14  and  C_26
    9  A    between atoms: C_15  and  O_42
   10  A    between atoms: C_18  and  C_27
   11  A    between atoms: C_23  and  C_25
   12  A    between atoms: C_25  and  C_34
   13  A    between atoms: C_26  and  C_46
   14  A    between atoms: C_32  and  C_38
   15  A    between atoms: C_33  and  C_49
   16  A    between atoms: C_56  and  C_59
                            x       y       z     vdW  Elec       q    Type
                         _______ _______ _______ _____ _____    ______ ____

>  <TORSDO>
F 16

$$$$
