=
 OpenBabel11042410153D

 65 71  0  0  1  0  0  0  0  0999 V2000
  191.3340  176.0310  137.7660 C   0  0  2  0  0  3  0  0  0  0  0  0
  190.9530  177.3580  139.7730 C   0  0  2  0  0  3  0  0  0  0  0  0
  188.5520  177.6820  139.3910 O   0  0  0  0  0  1  0  0  0  0  0  0
  193.1180  174.1650  137.5090 C   0  0  2  0  0  3  0  0  0  0  0  0
  191.6350  174.5900  137.3890 C   0  0  0  0  0  2  0  0  0  0  0  0
  189.8030  177.5260  138.7830 C   0  0  2  0  0  3  0  0  0  0  0  0
  191.9220  176.3680  139.1340 C   0  0  2  0  0  3  0  0  0  0  0  0
  194.0570  176.2530  138.1640 C   0  0  2  0  0  3  0  0  0  0  0  0
  193.1980  176.9660  139.0410 O   0  0  0  0  0  0  0  0  0  0  0  0
  189.8390  176.3010  137.9150 C   0  0  1  0  0  3  0  0  0  0  0  0
  193.8590  176.6490  136.8290 O   0  0  0  0  0  1  0  0  0  0  0  0
  194.0240  174.8510  138.3580 O   0  0  0  0  0  0  0  0  0  0  0  0
  190.9600  177.5240  142.2620 C   0  0  0  0  0  3  0  0  0  0  0  0
  190.5360  176.9270  141.1560 C   0  0  0  0  0  3  0  0  0  0  0  0
  190.6060  176.9730  143.6270 C   0  0  0  0  0  2  0  0  0  0  0  0
  189.1560  176.5250  143.7820 C   0  0  1  0  0  3  0  0  0  0  0  0
  186.7860  178.0730  145.9640 C   0  0  0  0  0  0  0  0  0  0  0  0
  187.0970  177.7440  147.1370 O   0  0  0  0  0  0  0  0  0  0  0  0
  187.2270  177.8720  143.4930 C   0  0  0  0  0  3  0  0  0  0  0  0
  185.7230  178.9930  145.7550 N   0  0  0  0  0  1  0  0  0  0  0  0
  188.6730  176.8210  145.0720 O   0  0  0  0  0  0  0  0  0  0  0  0
  187.5780  177.6010  144.8660 N   0  0  0  0  0  0  0  0  0  0  0  0
  188.2480  177.0980  142.7140 C   0  0  0  0  0  3  0  0  0  0  0  0
  189.4340  177.7780  135.9060 C   0  0  0  0  0  1  0  0  0  0  0  0
  189.0630  176.4810  136.6080 C   0  0  2  0  0  3  0  0  0  0  0  0
  187.5550  176.1830  136.6270 C   0  0  1  0  0  3  0  0  0  0  0  0
  186.7520  177.2930  136.2160 O   0  0  0  0  0  0  0  0  0  0  0  0
  186.2120  178.1720  137.1590 C   0  0  0  0  0  0  0  0  0  0  0  0
  185.1200  177.7480  137.9740 N   0  0  0  0  0  1  0  0  0  0  0  0
  186.6740  179.3420  137.2840 O   0  0  0  0  0  0  0  0  0  0  0  0
  187.0700  174.8570  136.0370 C   0  0  0  0  0  2  0  0  0  0  0  0
  186.8210  172.2570  137.2840 C   0  0  0  0  0  1  0  0  0  0  0  0
  185.0860  173.3800  135.9430 C   0  0  1  0  0  3  0  0  0  0  0  0
  185.7510  174.4940  136.7270 C   0  0  1  0  0  3  0  0  0  0  0  0
  185.5770  173.1090  137.3530 C   0  0  2  0  0  3  0  0  0  0  0  0
  179.5060  178.8200  139.8390 C   0  0  2  0  0  3  0  0  0  0  0  0
  182.0100  179.3710  139.8960 C   0  0  0  0  0  1  0  0  0  0  0  0
  180.0080  176.4990  140.3900 C   0  0  2  0  0  3  0  0  0  0  0  0
  182.5080  175.9770  136.4240 N   0  0  0  0  0  2  0  0  0  0  0  0
  181.6470  175.3310  137.3650 C   0  0  0  0  0  0  0  0  0  0  0  0
  181.5930  173.8420  137.4240 C   0  0  0  0  0  2  0  0  0  0  0  0
  180.5460  179.6610  141.8060 N   0  0  0  0  0  2  0  0  0  0  0  0
  180.1690  176.7780  138.9460 C   0  0  0  0  0  0  0  0  0  0  0  0
  183.9980  175.7740  134.6480 O   0  0  0  0  0  0  0  0  0  0  0  0
  180.6080  179.7460  140.3600 C   0  0  2  0  0  3  0  0  0  0  0  0
  179.1080  175.3030  140.6230 C   0  0  0  0  0  1  0  0  0  0  0  0
  180.8990  176.0460  138.1580 C   0  0  0  0  0  0  0  0  0  0  0  0
  179.3370  177.7620  140.9210 C   0  0  1  0  0  3  0  0  0  0  0  0
  183.4090  175.2170  135.6030 C   0  0  0  0  0  0  0  0  0  0  0  0
  180.1060  178.3010  142.1180 C   0  0  0  0  0  2  0  0  0  0  0  0
  182.9790  173.2820  137.1870 C   0  0  0  0  0  2  0  0  0  0  0  0
  183.5960  173.7330  135.8460 C   0  0  2  0  0  3  0  0  0  0  0  0
  179.8780  178.1270  138.6160 N   0  0  0  0  0  2  0  0  0  0  0  0
  193.7070  173.5240  136.3790 O   0  0  0  0  0  0  0  0  0  0  0  0
  194.8460  174.9040  134.9380 O   0  0  0  0  0  0  0  0  0  0  0  0
  194.8970  173.9680  135.7880 C   0  0  0  0  0  0  0  0  0  0  0  0
  196.3690  173.3710  137.5320 O   0  0  0  0  0  1  0  0  0  0  0  0
  196.2200  173.3450  136.1190 C   0  0  2  0  0  0  0  0  0  0  0  0
  197.2450  174.0750  135.4330 O   0  0  0  0  0  0  0  0  0  0  0  0
  198.3330  174.3810  136.2860 C   0  0  0  0  0  1  0  0  0  0  0  0
  195.0670  171.6100  134.8470 O   0  0  0  0  0  1  0  0  0  0  0  0
  196.2160  171.8790  135.6170 C   0  0  2  0  0  3  0  0  0  0  0  0
  196.8730  169.6280  136.0920 O   0  0  0  0  0  1  0  0  0  0  0  0
  196.4490  170.8060  136.7010 C   0  0  2  0  0  3  0  0  0  0  0  0
  195.1740  170.5120  137.4620 C   0  0  0  0  0  1  0  0  0  0  0  0
  1  5  1  1  0  0  0
  1 10  1  0  0  0  0
  1  7  1  0  0  0  0
  2 14  1  1  0  0  0
  4 54  1  6  0  0  0
  4 12  1  0  0  0  0
  5  4  1  0  0  0  0
  6  3  1  1  0  0  0
  6  2  1  0  0  0  0
  7  9  1  6  0  0  0
  7  2  1  0  0  0  0
  8 11  1  6  0  0  0
  8 12  1  0  0  0  0
  8  9  1  0  0  0  0
 10 25  1  6  0  0  0
 10  6  1  0  0  0  0
 13 15  1  0  0  0  0
 14 13  2  0  0  0  0
 16 15  1  1  0  0  0
 16 21  1  0  0  0  0
 17 18  2  0  0  0  0
 19 22  1  0  0  0  0
 20 17  1  0  0  0  0
 22 21  1  0  0  0  0
 22 17  1  0  0  0  0
 23 19  2  0  0  0  0
 23 16  1  0  0  0  0
 25 24  1  1  0  0  0
 25 26  1  0  0  0  0
 26 31  1  6  0  0  0
 27 26  1  0  0  0  0
 27 28  1  0  0  0  0
 28 30  2  0  0  0  0
 28 29  1  0  0  0  0
 33 52  1  1  0  0  0
 33 34  1  0  0  0  0
 33 35  1  0  0  0  0
 34 31  1  6  0  0  0
 34 35  1  0  0  0  0
 35 32  1  6  0  0  0
 36 53  1  6  0  0  0
 36 45  1  0  0  0  0
 36 48  1  0  0  0  0
 38 46  1  6  0  0  0
 38 48  1  0  0  0  0
 39 40  1  0  0  0  0
 40 41  1  0  0  0  0
 40 47  2  0  0  0  0
 42 50  1  0  0  0  0
 43 38  1  0  0  0  0
 44 49  2  0  0  0  0
 45 37  1  6  0  0  0
 45 42  1  0  0  0  0
 47 43  2  0  0  0  0
 48 50  1  1  0  0  0
 49 52  1  0  0  0  0
 49 39  1  0  0  0  0
 51 41  1  0  0  0  0
 52 51  1  1  0  0  0
 53 43  1  0  0  0  0
 55 56  2  0  0  0  0
 56 58  1  0  0  0  0
 56 54  1  0  0  0  0
 58 57  1  1  0  0  0
 59 58  1  0  0  0  0
 59 60  1  0  0  0  0
 62 61  1  1  0  0  0
 62 58  1  0  0  0  0
 62 64  1  0  0  0  0
 63 64  1  0  0  0  0
 64 65  1  6  0  0  0
M  END
>  <MODEL>
1

>  <REMARK>
 VINA RESULT:      -7.4      0.000      0.000
  Name = 
  16 active torsions:
  status: ('A' for Active; 'I' for Inactive)
    1  A    between atoms: C_2  and  C_39
    2  A    between atoms: C_5  and  C_24
    3  A    between atoms: C_5  and  C_51
    4  A    between atoms: O_7  and  C_55
    5  A    between atoms: C_8  and  C_39
    6  A    between atoms: C_10  and  O_36
    7  A    between atoms: C_11  and  C_35
    8  A    between atoms: C_15  and  O_28
    9  A    between atoms: C_19  and  C_31
   10  A    between atoms: C_19  and  C_55
   11  A    between atoms: C_24  and  O_36
   12  A    between atoms: C_24  and  C_54
   13  A    between atoms: O_28  and  C_50
   14  A    between atoms: C_33  and  C_62
   15  A    between atoms: C_37  and  C_54
   16  A    between atoms: C_50  and  C_55
                            x       y       z     vdW  Elec       q    Type
                         _______ _______ _______ _____ _____    ______ ____

>  <TORSDO>
F 16

$$$$
=
 OpenBabel11042410153D

 65 71  0  0  1  0  0  0  0  0999 V2000
  190.7290  176.5080  138.7150 C   0  0  2  0  0  3  0  0  0  0  0  0
  188.4430  176.2610  137.9100 C   0  0  2  0  0  3  0  0  0  0  0  0
  187.4260  177.6500  139.6570 O   0  0  0  0  0  1  0  0  0  0  0  0
  192.8600  176.4820  137.2340 C   0  0  2  0  0  3  0  0  0  0  0  0
  192.0150  177.2080  138.3070 C   0  0  0  0  0  2  0  0  0  0  0  0
  188.4620  176.7590  139.3540 C   0  0  2  0  0  3  0  0  0  0  0  0
  189.9040  176.1330  137.4860 C   0  0  2  0  0  3  0  0  0  0  0  0
  191.5330  174.5220  136.9720 C   0  0  2  0  0  3  0  0  0  0  0  0
  190.1450  174.8100  137.0560 O   0  0  0  0  0  0  0  0  0  0  0  0
  189.8070  177.4020  139.5390 C   0  0  1  0  0  3  0  0  0  0  0  0
  192.0440  174.1280  138.2200 O   0  0  0  0  0  1  0  0  0  0  0  0
  192.2820  175.5440  136.3400 O   0  0  0  0  0  0  0  0  0  0  0  0
  186.4860  176.7540  136.4440 C   0  0  0  0  0  3  0  0  0  0  0  0
  187.6530  177.1220  136.9570 C   0  0  0  0  0  3  0  0  0  0  0  0
  185.7950  177.6040  135.3990 C   0  0  0  0  0  2  0  0  0  0  0  0
  184.7190  176.8820  134.5940 C   0  0  1  0  0  3  0  0  0  0  0  0
  183.1560  173.8270  135.5950 C   0  0  0  0  0  0  0  0  0  0  0  0
  184.0040  172.9120  135.4370 O   0  0  0  0  0  0  0  0  0  0  0  0
  182.5630  176.2640  135.3600 C   0  0  0  0  0  3  0  0  0  0  0  0
  181.9000  173.5220  136.1860 N   0  0  0  0  0  1  0  0  0  0  0  0
  184.7580  175.4940  134.8340 O   0  0  0  0  0  0  0  0  0  0  0  0
  183.5120  175.1790  135.2810 N   0  0  0  0  0  0  0  0  0  0  0  0
  183.3310  177.4390  134.8360 C   0  0  0  0  0  3  0  0  0  0  0  0
  191.4360  178.4080  141.1870 C   0  0  0  0  0  1  0  0  0  0  0  0
  190.1830  177.5650  141.0130 C   0  0  2  0  0  3  0  0  0  0  0  0
  190.1380  176.3110  141.9030 C   0  0  1  0  0  3  0  0  0  0  0  0
  191.4020  175.9860  142.4880 O   0  0  0  0  0  0  0  0  0  0  0  0
  191.6790  176.3120  143.8190 C   0  0  0  0  0  0  0  0  0  0  0  0
  191.8810  177.6770  144.1830 N   0  0  0  0  0  1  0  0  0  0  0  0
  191.7660  175.4060  144.6970 O   0  0  0  0  0  0  0  0  0  0  0  0
  188.9790  176.1630  142.8910 C   0  0  0  0  0  2  0  0  0  0  0  0
  188.9150  176.8510  145.7020 C   0  0  0  0  0  1  0  0  0  0  0  0
  187.2080  177.4610  144.0320 C   0  0  1  0  0  3  0  0  0  0  0  0
  188.5280  177.5710  143.2950 C   0  0  1  0  0  3  0  0  0  0  0  0
  188.4400  177.9440  144.7750 C   0  0  2  0  0  3  0  0  0  0  0  0
  179.5410  178.1470  139.9530 C   0  0  2  0  0  3  0  0  0  0  0  0
  180.0310  176.0270  141.3100 C   0  0  0  0  0  1  0  0  0  0  0  0
  181.7760  178.0420  138.9880 C   0  0  2  0  0  3  0  0  0  0  0  0
  183.7600  178.5140  143.2410 N   0  0  0  0  0  2  0  0  0  0  0  0
  183.8820  178.8090  141.8470 C   0  0  0  0  0  0  0  0  0  0  0  0
  185.2040  179.2030  141.2830 C   0  0  0  0  0  2  0  0  0  0  0  0
  178.9370  175.9910  139.1470 N   0  0  0  0  0  2  0  0  0  0  0  0
  181.7750  178.6740  140.3250 C   0  0  0  0  0  0  0  0  0  0  0  0
  184.7690  178.4300  145.3370 O   0  0  0  0  0  0  0  0  0  0  0  0
  179.0720  176.7520  140.3740 C   0  0  2  0  0  3  0  0  0  0  0  0
  182.4730  178.9170  137.9660 C   0  0  0  0  0  1  0  0  0  0  0  0
  182.8320  178.7490  141.0770 C   0  0  0  0  0  0  0  0  0  0  0  0
  180.2930  177.9310  138.6470 C   0  0  1  0  0  3  0  0  0  0  0  0
  184.9160  178.4830  144.0940 C   0  0  0  0  0  0  0  0  0  0  0  0
  179.9560  176.5070  138.2320 C   0  0  0  0  0  2  0  0  0  0  0  0
  186.2960  178.4080  141.9670 C   0  0  0  0  0  2  0  0  0  0  0  0
  186.3070  178.5820  143.5000 C   0  0  2  0  0  3  0  0  0  0  0  0
  180.4760  178.7400  140.8940 N   0  0  0  0  0  2  0  0  0  0  0  0
  194.2440  176.2850  137.5150 O   0  0  0  0  0  0  0  0  0  0  0  0
  194.2770  175.8860  139.7780 O   0  0  0  0  0  0  0  0  0  0  0  0
  194.6990  175.5660  138.6280 C   0  0  0  0  0  0  0  0  0  0  0  0
  196.1680  174.1340  139.7920 O   0  0  0  0  0  1  0  0  0  0  0  0
  195.6900  174.4490  138.4920 C   0  0  2  0  0  0  0  0  0  0  0  0
  196.7270  174.8740  137.6000 O   0  0  0  0  0  0  0  0  0  0  0  0
  198.0080  174.7710  138.1940 C   0  0  0  0  0  1  0  0  0  0  0  0
  195.0560  172.1050  138.7400 O   0  0  0  0  0  1  0  0  0  0  0  0
  194.9670  173.2200  137.8840 C   0  0  2  0  0  3  0  0  0  0  0  0
  194.4440  173.4430  135.5600 O   0  0  0  0  0  1  0  0  0  0  0  0
  195.3630  172.8690  136.4340 C   0  0  2  0  0  3  0  0  0  0  0  0
  195.3550  171.3720  136.2130 C   0  0  0  0  0  1  0  0  0  0  0  0
  1  5  1  6  0  0  0
  1 10  1  0  0  0  0
  2 14  1  6  0  0  0
  2  6  1  0  0  0  0
  4 54  1  1  0  0  0
  4  5  1  0  0  0  0
  6 10  1  0  0  0  0
  6  3  1  6  0  0  0
  7  9  1  1  0  0  0
  7  2  1  0  0  0  0
  7  1  1  0  0  0  0
  8  9  1  0  0  0  0
  8 11  1  1  0  0  0
 10 25  1  1  0  0  0
 12  8  1  0  0  0  0
 12  4  1  0  0  0  0
 13 14  2  0  0  0  0
 15 13  1  0  0  0  0
 16 21  1  0  0  0  0
 16 23  1  0  0  0  0
 16 15  1  1  0  0  0
 17 20  1  0  0  0  0
 18 17  2  0  0  0  0
 21 22  1  0  0  0  0
 22 19  1  0  0  0  0
 22 17  1  0  0  0  0
 23 19  2  0  0  0  0
 25 24  1  6  0  0  0
 25 26  1  0  0  0  0
 26 27  1  0  0  0  0
 26 31  1  1  0  0  0
 27 28  1  0  0  0  0
 28 29  1  0  0  0  0
 28 30  2  0  0  0  0
 33 52  1  6  0  0  0
 33 35  1  0  0  0  0
 34 31  1  1  0  0  0
 34 33  1  0  0  0  0
 34 35  1  0  0  0  0
 35 32  1  1  0  0  0
 36 45  1  0  0  0  0
 36 53  1  1  0  0  0
 38 46  1  6  0  0  0
 38 43  1  0  0  0  0
 39 49  1  0  0  0  0
 40 39  1  0  0  0  0
 41 40  1  0  0  0  0
 41 51  1  0  0  0  0
 42 45  1  0  0  0  0
 43 53  1  0  0  0  0
 43 47  2  0  0  0  0
 45 37  1  1  0  0  0
 47 40  2  0  0  0  0
 48 50  1  1  0  0  0
 48 38  1  0  0  0  0
 48 36  1  0  0  0  0
 49 44  2  0  0  0  0
 50 42  1  0  0  0  0
 52 51  1  6  0  0  0
 52 49  1  0  0  0  0
 54 56  1  0  0  0  0
 56 55  2  0  0  0  0
 58 56  1  0  0  0  0
 58 57  1  1  0  0  0
 59 60  1  0  0  0  0
 59 58  1  0  0  0  0
 62 58  1  0  0  0  0
 62 61  1  1  0  0  0
 63 64  1  0  0  0  0
 64 65  1  1  0  0  0
 64 62  1  0  0  0  0
M  END
>  <MODEL>
2

>  <REMARK>
 VINA RESULT:      -6.8      1.960      6.548
  Name = 
  16 active torsions:
  status: ('A' for Active; 'I' for Inactive)
    1  A    between atoms: C_2  and  C_39
    2  A    between atoms: C_5  and  C_24
    3  A    between atoms: C_5  and  C_51
    4  A    between atoms: O_7  and  C_55
    5  A    between atoms: C_8  and  C_39
    6  A    between atoms: C_10  and  O_36
    7  A    between atoms: C_11  and  C_35
    8  A    between atoms: C_15  and  O_28
    9  A    between atoms: C_19  and  C_31
   10  A    between atoms: C_19  and  C_55
   11  A    between atoms: C_24  and  O_36
   12  A    between atoms: C_24  and  C_54
   13  A    between atoms: O_28  and  C_50
   14  A    between atoms: C_33  and  C_62
   15  A    between atoms: C_37  and  C_54
   16  A    between atoms: C_50  and  C_55
                            x       y       z     vdW  Elec       q    Type
                         _______ _______ _______ _____ _____    ______ ____

>  <TORSDO>
F 16

$$$$
=
 OpenBabel11042410153D

 65 71  0  0  1  0  0  0  0  0999 V2000
  184.4830  178.6230  141.2760 C   0  0  2  0  0  3  0  0  0  0  0  0
  182.0710  178.4850  140.9660 C   0  0  2  0  0  3  0  0  0  0  0  0
  182.1480  178.4790  138.5140 O   0  0  0  0  0  1  0  0  0  0  0  0
  185.8060  177.6260  143.2740 C   0  0  2  0  0  3  0  0  0  0  0  0
  185.6280  177.7380  141.7410 C   0  0  0  0  0  2  0  0  0  0  0  0
  182.7600  178.9460  139.6830 C   0  0  2  0  0  3  0  0  0  0  0  0
  183.1840  178.2430  141.9820 C   0  0  2  0  0  3  0  0  0  0  0  0
  184.0860  179.1230  143.9630 C   0  0  2  0  0  3  0  0  0  0  0  0
  182.9410  179.0300  143.1280 O   0  0  0  0  0  0  0  0  0  0  0  0
  184.1760  178.4560  139.7910 C   0  0  1  0  0  3  0  0  0  0  0  0
  184.9440  180.1500  143.5320 O   0  0  0  0  0  1  0  0  0  0  0  0
  184.7350  177.8810  144.1690 O   0  0  0  0  0  0  0  0  0  0  0  0
  181.5460  176.1920  140.1370 C   0  0  0  0  0  3  0  0  0  0  0  0
  181.1820  177.2790  140.8050 C   0  0  0  0  0  3  0  0  0  0  0  0
  180.5690  175.0600  139.9030 C   0  0  0  0  0  2  0  0  0  0  0  0
  179.9500  175.0240  138.5090 C   0  0  1  0  0  3  0  0  0  0  0  0
  181.8140  174.6710  135.4800 C   0  0  0  0  0  0  0  0  0  0  0  0
  182.4000  175.7650  135.2790 O   0  0  0  0  0  0  0  0  0  0  0  0
  180.2250  173.3170  136.8880 C   0  0  0  0  0  3  0  0  0  0  0  0
  182.0630  173.5750  134.6100 N   0  0  0  0  0  1  0  0  0  0  0  0
  180.8500  175.5220  137.5460 O   0  0  0  0  0  0  0  0  0  0  0  0
  180.9910  174.5150  136.6430 N   0  0  0  0  0  0  0  0  0  0  0  0
  179.4460  173.6480  138.1250 C   0  0  0  0  0  3  0  0  0  0  0  0
  184.5330  180.4890  138.3330 C   0  0  0  0  0  1  0  0  0  0  0  0
  185.1240  179.1810  138.8310 C   0  0  2  0  0  3  0  0  0  0  0  0
  185.8110  178.3430  137.7400 C   0  0  1  0  0  3  0  0  0  0  0  0
  187.0250  178.9250  137.2580 O   0  0  0  0  0  0  0  0  0  0  0  0
  188.2150  178.7950  137.9810 C   0  0  0  0  0  0  0  0  0  0  0  0
  188.1650  178.6220  139.3960 N   0  0  0  0  0  1  0  0  0  0  0  0
  189.3320  178.8460  137.3910 O   0  0  0  0  0  0  0  0  0  0  0  0
  185.9270  176.8310  137.9500 C   0  0  0  0  0  2  0  0  0  0  0  0
  184.8210  174.1900  137.5280 C   0  0  0  0  0  1  0  0  0  0  0  0
  187.0030  174.9840  136.7050 C   0  0  1  0  0  3  0  0  0  0  0  0
  186.0810  176.1790  136.5720 C   0  0  1  0  0  3  0  0  0  0  0  0
  185.5470  174.7650  136.3370 C   0  0  2  0  0  3  0  0  0  0  0  0
  195.3900  173.2310  135.1280 C   0  0  2  0  0  3  0  0  0  0  0  0
  194.2530  172.1130  137.1360 C   0  0  0  0  0  1  0  0  0  0  0  0
  194.3660  175.3580  135.7360 C   0  0  2  0  0  3  0  0  0  0  0  0
  190.0390  173.5720  135.1520 N   0  0  0  0  0  2  0  0  0  0  0  0
  190.8540  174.7420  135.0400 C   0  0  0  0  0  0  0  0  0  0  0  0
  190.2160  176.0870  134.9530 C   0  0  0  0  0  2  0  0  0  0  0  0
  196.5040  173.0080  137.2190 N   0  0  0  0  0  2  0  0  0  0  0  0
  193.4430  174.4930  134.9670 C   0  0  0  0  0  0  0  0  0  0  0  0
  187.9030  172.6490  135.1790 O   0  0  0  0  0  0  0  0  0  0  0  0
  195.5450  172.3380  136.3610 C   0  0  2  0  0  3  0  0  0  0  0  0
  194.4690  176.7370  135.1180 C   0  0  0  0  0  1  0  0  0  0  0  0
  192.1510  174.6280  134.9980 C   0  0  0  0  0  0  0  0  0  0  0  0
  195.7060  174.6380  135.6190 C   0  0  1  0  0  3  0  0  0  0  0  0
  188.6130  173.6740  135.2920 C   0  0  0  0  0  0  0  0  0  0  0  0
  196.3180  174.4430  136.9980 C   0  0  0  0  0  2  0  0  0  0  0  0
  188.9950  176.1200  135.8470 C   0  0  0  0  0  2  0  0  0  0  0  0
  187.9610  175.0260  135.5080 C   0  0  2  0  0  3  0  0  0  0  0  0
  194.0330  173.2520  134.6090 N   0  0  0  0  0  2  0  0  0  0  0  0
  187.1100  177.8640  143.7990 O   0  0  0  0  0  0  0  0  0  0  0  0
  188.0630  175.8200  143.3630 O   0  0  0  0  0  0  0  0  0  0  0  0
  188.2180  177.0710  143.4730 C   0  0  0  0  0  0  0  0  0  0  0  0
  189.4440  178.7850  142.4140 O   0  0  0  0  0  1  0  0  0  0  0  0
  189.5800  177.6650  143.2770 C   0  0  2  0  0  0  0  0  0  0  0  0
  190.4410  176.6490  142.7480 O   0  0  0  0  0  0  0  0  0  0  0  0
  190.6760  176.8280  141.3630 C   0  0  0  0  0  1  0  0  0  0  0  0
  191.4680  178.5280  144.5620 O   0  0  0  0  0  1  0  0  0  0  0  0
  190.1210  178.1240  144.6540 C   0  0  2  0  0  3  0  0  0  0  0  0
  189.1780  177.7790  146.8260 O   0  0  0  0  0  1  0  0  0  0  0  0
  189.8930  177.1370  145.8190 C   0  0  2  0  0  3  0  0  0  0  0  0
  191.2070  176.6650  146.4010 C   0  0  0  0  0  1  0  0  0  0  0  0
  1  5  1  1  0  0  0
  1  7  1  0  0  0  0
  2 14  1  6  0  0  0
  2  7  1  0  0  0  0
  4 54  1  1  0  0  0
  4 12  1  0  0  0  0
  5  4  1  0  0  0  0
  6  3  1  6  0  0  0
  6 10  1  0  0  0  0
  6  2  1  0  0  0  0
  7  9  1  1  0  0  0
  8 11  1  6  0  0  0
  8 12  1  0  0  0  0
  9  8  1  0  0  0  0
 10 25  1  6  0  0  0
 10  1  1  0  0  0  0
 13 14  2  0  0  0  0
 15 13  1  0  0  0  0
 16 15  1  1  0  0  0
 17 22  1  0  0  0  0
 18 17  2  0  0  0  0
 19 23  2  0  0  0  0
 20 17  1  0  0  0  0
 21 16  1  0  0  0  0
 22 19  1  0  0  0  0
 22 21  1  0  0  0  0
 23 16  1  0  0  0  0
 25 24  1  6  0  0  0
 26 31  1  1  0  0  0
 26 25  1  0  0  0  0
 27 26  1  0  0  0  0
 27 28  1  0  0  0  0
 28 29  1  0  0  0  0
 30 28  2  0  0  0  0
 33 52  1  6  0  0  0
 34 33  1  0  0  0  0
 34 31  1  1  0  0  0
 35 34  1  0  0  0  0
 35 33  1  0  0  0  0
 35 32  1  1  0  0  0
 36 53  1  1  0  0  0
 36 48  1  0  0  0  0
 36 45  1  0  0  0  0
 38 46  1  6  0  0  0
 39 49  1  0  0  0  0
 40 39  1  0  0  0  0
 41 40  1  0  0  0  0
 41 51  1  0  0  0  0
 43 47  2  0  0  0  0
 43 38  1  0  0  0  0
 44 49  2  0  0  0  0
 45 37  1  1  0  0  0
 45 42  1  0  0  0  0
 47 40  2  0  0  0  0
 48 38  1  0  0  0  0
 48 50  1  1  0  0  0
 49 52  1  0  0  0  0
 50 42  1  0  0  0  0
 52 51  1  1  0  0  0
 53 43  1  0  0  0  0
 55 56  2  0  0  0  0
 56 54  1  0  0  0  0
 58 57  1  6  0  0  0
 58 56  1  0  0  0  0
 58 62  1  0  0  0  0
 59 58  1  0  0  0  0
 60 59  1  0  0  0  0
 62 61  1  6  0  0  0
 62 64  1  0  0  0  0
 64 65  1  1  0  0  0
 64 63  1  0  0  0  0
M  END
>  <MODEL>
3

>  <REMARK>
 VINA RESULT:      -6.7      3.520     10.633
  Name = 
  16 active torsions:
  status: ('A' for Active; 'I' for Inactive)
    1  A    between atoms: C_2  and  C_39
    2  A    between atoms: C_5  and  C_24
    3  A    between atoms: C_5  and  C_51
    4  A    between atoms: O_7  and  C_55
    5  A    between atoms: C_8  and  C_39
    6  A    between atoms: C_10  and  O_36
    7  A    between atoms: C_11  and  C_35
    8  A    between atoms: C_15  and  O_28
    9  A    between atoms: C_19  and  C_31
   10  A    between atoms: C_19  and  C_55
   11  A    between atoms: C_24  and  O_36
   12  A    between atoms: C_24  and  C_54
   13  A    between atoms: O_28  and  C_50
   14  A    between atoms: C_33  and  C_62
   15  A    between atoms: C_37  and  C_54
   16  A    between atoms: C_50  and  C_55
                            x       y       z     vdW  Elec       q    Type
                         _______ _______ _______ _____ _____    ______ ____

>  <TORSDO>
F 16

$$$$
=
 OpenBabel11042410153D

 65 71  0  0  1  0  0  0  0  0999 V2000
  189.1150  177.2910  139.6410 C   0  0  2  0  0  3  0  0  0  0  0  0
  190.8940  176.1930  138.3910 C   0  0  2  0  0  3  0  0  0  0  0  0
  189.9080  176.5880  136.1800 O   0  0  0  0  0  1  0  0  0  0  0  0
  189.4050  178.5340  141.9000 C   0  0  2  0  0  3  0  0  0  0  0  0
  188.8980  178.5660  140.4390 C   0  0  0  0  0  2  0  0  0  0  0  0
  189.6410  176.3480  137.5320 C   0  0  2  0  0  3  0  0  0  0  0  0
  190.5680  176.8320  139.7370 C   0  0  2  0  0  3  0  0  0  0  0  0
  190.1700  176.2800  141.9840 C   0  0  2  0  0  3  0  0  0  0  0  0
  190.7680  175.8800  140.7600 O   0  0  0  0  0  0  0  0  0  0  0  0
  188.8710  177.4820  138.1470 C   0  0  1  0  0  3  0  0  0  0  0  0
  188.8100  175.9240  142.0230 O   0  0  0  0  0  1  0  0  0  0  0  0
  190.4190  177.6330  142.3170 O   0  0  0  0  0  0  0  0  0  0  0  0
  192.7080  176.2850  136.6810 C   0  0  0  0  0  3  0  0  0  0  0  0
  192.1480  176.7680  137.7830 C   0  0  0  0  0  3  0  0  0  0  0  0
  194.0330  176.8230  136.1830 C   0  0  0  0  0  2  0  0  0  0  0  0
  195.1450  175.7840  136.0670 C   0  0  1  0  0  3  0  0  0  0  0  0
  195.6900  173.1400  138.4090 C   0  0  0  0  0  0  0  0  0  0  0  0
  196.1750  173.6610  139.4450 O   0  0  0  0  0  0  0  0  0  0  0  0
  194.8760  173.4300  136.0430 C   0  0  0  0  0  3  0  0  0  0  0  0
  195.3800  171.7520  138.4030 N   0  0  0  0  0  1  0  0  0  0  0  0
  195.5340  175.3200  137.3400 O   0  0  0  0  0  0  0  0  0  0  0  0
  195.3560  173.9720  137.2910 N   0  0  0  0  0  0  0  0  0  0  0  0
  194.7790  174.6320  135.1540 C   0  0  0  0  0  3  0  0  0  0  0  0
  186.4770  177.8490  138.8630 C   0  0  0  0  0  1  0  0  0  0  0  0
  187.4040  177.5040  137.7100 C   0  0  2  0  0  3  0  0  0  0  0  0
  186.9070  176.3490  136.8240 C   0  0  1  0  0  3  0  0  0  0  0  0
  187.0740  176.5960  135.4260 O   0  0  0  0  0  0  0  0  0  0  0  0
  186.9820  177.8940  134.9130 C   0  0  0  0  0  0  0  0  0  0  0  0
  185.6990  178.4920  134.7340 N   0  0  0  0  0  1  0  0  0  0  0  0
  188.0250  178.5320  134.5940 O   0  0  0  0  0  0  0  0  0  0  0  0
  187.2840  174.9190  137.2170 C   0  0  0  0  0  2  0  0  0  0  0  0
  187.3400  172.0510  136.8310 C   0  0  0  0  0  1  0  0  0  0  0  0
  185.5720  173.5730  136.0420 C   0  0  1  0  0  3  0  0  0  0  0  0
  185.9840  174.1260  137.3910 C   0  0  1  0  0  3  0  0  0  0  0  0
  185.9780  172.6160  137.1470 C   0  0  2  0  0  3  0  0  0  0  0  0
  179.5170  178.7560  139.5610 C   0  0  2  0  0  3  0  0  0  0  0  0
  181.9650  179.5180  139.5960 C   0  0  0  0  0  1  0  0  0  0  0  0
  180.2050  176.5250  140.2590 C   0  0  2  0  0  3  0  0  0  0  0  0
  182.7810  175.9690  136.3460 N   0  0  0  0  0  2  0  0  0  0  0  0
  181.9670  175.3130  137.3220 C   0  0  0  0  0  0  0  0  0  0  0  0
  182.0370  173.8310  137.4730 C   0  0  0  0  0  2  0  0  0  0  0  0
  180.4630  179.8020  141.4770 N   0  0  0  0  0  2  0  0  0  0  0  0
  180.3570  176.7250  138.8010 C   0  0  0  0  0  0  0  0  0  0  0  0
  184.3010  175.7820  134.5940 O   0  0  0  0  0  0  0  0  0  0  0  0
  180.5320  179.8020  140.0280 C   0  0  2  0  0  3  0  0  0  0  0  0
  179.4060  175.2740  140.5620 C   0  0  0  0  0  1  0  0  0  0  0  0
  181.1540  176.0100  138.0640 C   0  0  0  0  0  0  0  0  0  0  0  0
  179.4250  177.7570  140.7070 C   0  0  1  0  0  3  0  0  0  0  0  0
  183.7500  175.2380  135.5790 C   0  0  0  0  0  0  0  0  0  0  0  0
  180.1340  178.4310  141.8710 C   0  0  0  0  0  2  0  0  0  0  0  0
  183.4670  173.3760  137.2780 C   0  0  0  0  0  2  0  0  0  0  0  0
  184.0590  173.7930  135.9150 C   0  0  2  0  0  3  0  0  0  0  0  0
  179.9580  178.0230  138.3860 N   0  0  0  0  0  2  0  0  0  0  0  0
  188.4920  178.9390  142.9180 O   0  0  0  0  0  0  0  0  0  0  0  0
  186.5520  177.8470  142.3510 O   0  0  0  0  0  0  0  0  0  0  0  0
  187.3580  178.1920  143.2630 C   0  0  0  0  0  0  0  0  0  0  0  0
  186.5940  176.4770  144.6910 O   0  0  0  0  0  1  0  0  0  0  0  0
  187.0660  177.8170  144.6850 C   0  0  2  0  0  0  0  0  0  0  0  0
  186.1120  178.7490  145.2090 O   0  0  0  0  0  0  0  0  0  0  0  0
  185.4300  178.2280  146.3340 C   0  0  0  0  0  1  0  0  0  0  0  0
  189.3410  177.0030  145.0310 O   0  0  0  0  0  1  0  0  0  0  0  0
  188.3780  177.9170  145.5020 C   0  0  2  0  0  3  0  0  0  0  0  0
  188.9930  178.8330  147.6260 O   0  0  0  0  0  1  0  0  0  0  0  0
  188.2130  177.8430  147.0350 C   0  0  2  0  0  3  0  0  0  0  0  0
  188.6670  176.5020  147.5690 C   0  0  0  0  0  1  0  0  0  0  0  0
  1  7  1  0  0  0  0
  1  5  1  1  0  0  0
  2 14  1  6  0  0  0
  2  7  1  0  0  0  0
  4 12  1  0  0  0  0
  4 54  1  1  0  0  0
  5  4  1  0  0  0  0
  6  3  1  6  0  0  0
  6 10  1  0  0  0  0
  6  2  1  0  0  0  0
  7  9  1  1  0  0  0
  8 11  1  6  0  0  0
  8 12  1  0  0  0  0
  9  8  1  0  0  0  0
 10 25  1  1  0  0  0
 10  1  1  0  0  0  0
 13 14  2  0  0  0  0
 15 13  1  0  0  0  0
 16 15  1  1  0  0  0
 16 21  1  0  0  0  0
 17 18  2  0  0  0  0
 19 22  1  0  0  0  0
 20 17  1  0  0  0  0
 22 21  1  0  0  0  0
 22 17  1  0  0  0  0
 23 19  2  0  0  0  0
 23 16  1  0  0  0  0
 25 24  1  1  0  0  0
 26 31  1  1  0  0  0
 26 25  1  0  0  0  0
 27 26  1  0  0  0  0
 28 27  1  0  0  0  0
 29 28  1  0  0  0  0
 30 28  2  0  0  0  0
 33 52  1  1  0  0  0
 33 35  1  0  0  0  0
 33 34  1  0  0  0  0
 34 31  1  6  0  0  0
 35 32  1  6  0  0  0
 35 34  1  0  0  0  0
 36 53  1  6  0  0  0
 36 45  1  0  0  0  0
 36 48  1  0  0  0  0
 38 46  1  6  0  0  0
 38 48  1  0  0  0  0
 39 40  1  0  0  0  0
 40 41  1  0  0  0  0
 40 47  2  0  0  0  0
 42 50  1  0  0  0  0
 43 38  1  0  0  0  0
 44 49  2  0  0  0  0
 45 37  1  1  0  0  0
 45 42  1  0  0  0  0
 47 43  2  0  0  0  0
 48 50  1  1  0  0  0
 49 52  1  0  0  0  0
 49 39  1  0  0  0  0
 51 41  1  0  0  0  0
 52 51  1  1  0  0  0
 53 43  1  0  0  0  0
 54 56  1  0  0  0  0
 55 56  2  0  0  0  0
 56 58  1  0  0  0  0
 58 57  1  1  0  0  0
 58 59  1  0  0  0  0
 58 62  1  0  0  0  0
 59 60  1  0  0  0  0
 62 61  1  6  0  0  0
 62 64  1  0  0  0  0
 64 65  1  1  0  0  0
 64 63  1  0  0  0  0
M  END
>  <MODEL>
4

>  <REMARK>
 VINA RESULT:      -5.4      2.568      7.627
  Name = 
  16 active torsions:
  status: ('A' for Active; 'I' for Inactive)
    1  A    between atoms: C_2  and  C_39
    2  A    between atoms: C_5  and  C_24
    3  A    between atoms: C_5  and  C_51
    4  A    between atoms: O_7  and  C_55
    5  A    between atoms: C_8  and  C_39
    6  A    between atoms: C_10  and  O_36
    7  A    between atoms: C_11  and  C_35
    8  A    between atoms: C_15  and  O_28
    9  A    between atoms: C_19  and  C_31
   10  A    between atoms: C_19  and  C_55
   11  A    between atoms: C_24  and  O_36
   12  A    between atoms: C_24  and  C_54
   13  A    between atoms: O_28  and  C_50
   14  A    between atoms: C_33  and  C_62
   15  A    between atoms: C_37  and  C_54
   16  A    between atoms: C_50  and  C_55
                            x       y       z     vdW  Elec       q    Type
                         _______ _______ _______ _____ _____    ______ ____

>  <TORSDO>
F 16

$$$$
=
 OpenBabel11042410153D

 65 71  0  0  1  0  0  0  0  0999 V2000
  184.7520  178.4160  141.0490 C   0  0  2  0  0  3  0  0  0  0  0  0
  182.4270  177.9650  140.4800 C   0  0  2  0  0  3  0  0  0  0  0  0
  182.8330  177.6170  138.0850 O   0  0  0  0  0  1  0  0  0  0  0  0
  185.8810  177.8710  143.3200 C   0  0  2  0  0  3  0  0  0  0  0  0
  185.9010  177.7410  141.7790 C   0  0  0  0  0  2  0  0  0  0  0  0
  183.2360  178.3130  139.2320 C   0  0  2  0  0  3  0  0  0  0  0  0
  183.4110  177.9970  141.6460 C   0  0  2  0  0  3  0  0  0  0  0  0
  183.9520  179.2470  143.5580 C   0  0  2  0  0  3  0  0  0  0  0  0
  182.9430  178.9070  142.6180 O   0  0  0  0  0  0  0  0  0  0  0  0
  184.6640  178.0060  139.5820 C   0  0  1  0  0  3  0  0  0  0  0  0
  184.7600  180.2920  143.0780 O   0  0  0  0  0  1  0  0  0  0  0  0
  184.6800  178.1280  144.0310 O   0  0  0  0  0  0  0  0  0  0  0  0
  180.4070  176.5640  140.0560 C   0  0  0  0  0  3  0  0  0  0  0  0
  181.6840  176.6550  140.4040 C   0  0  0  0  0  3  0  0  0  0  0  0
  179.6790  175.2370  140.1150 C   0  0  0  0  0  2  0  0  0  0  0  0
  178.9810  174.8310  138.8210 C   0  0  1  0  0  3  0  0  0  0  0  0
  180.2860  175.4290  135.5480 C   0  0  0  0  0  0  0  0  0  0  0  0
  180.1630  176.6600  135.3230 O   0  0  0  0  0  0  0  0  0  0  0  0
  179.8860  173.4830  137.0950 C   0  0  0  0  0  3  0  0  0  0  0  0
  180.9520  174.6080  134.5980 N   0  0  0  0  0  1  0  0  0  0  0  0
  179.3270  175.7010  137.7680 O   0  0  0  0  0  0  0  0  0  0  0  0
  179.8510  174.8960  136.8050 N   0  0  0  0  0  0  0  0  0  0  0  0
  179.2380  173.3870  138.4430 C   0  0  0  0  0  3  0  0  0  0  0  0
  184.9570  179.5030  137.5680 C   0  0  0  0  0  1  0  0  0  0  0  0
  185.6600  178.6890  138.6410 C   0  0  2  0  0  3  0  0  0  0  0  0
  186.8410  177.8500  138.1240 C   0  0  1  0  0  3  0  0  0  0  0  0
  187.8470  177.6180  139.1130 O   0  0  0  0  0  0  0  0  0  0  0  0
  189.1090  178.2090  139.0010 C   0  0  0  0  0  0  0  0  0  0  0  0
  190.2420  177.5710  139.5890 N   0  0  0  0  0  1  0  0  0  0  0  0
  189.2500  179.3110  138.3970 O   0  0  0  0  0  0  0  0  0  0  0  0
  186.5370  176.6030  137.2910 C   0  0  0  0  0  2  0  0  0  0  0  0
  187.5080  177.6200  134.7620 C   0  0  0  0  0  1  0  0  0  0  0  0
  187.5850  175.2680  135.4910 C   0  0  1  0  0  3  0  0  0  0  0  0
  187.8660  176.0710  136.7440 C   0  0  1  0  0  3  0  0  0  0  0  0
  188.3770  176.5580  135.3880 C   0  0  2  0  0  3  0  0  0  0  0  0
  195.5800  173.0890  138.1790 C   0  0  2  0  0  3  0  0  0  0  0  0
  194.4920  175.2060  139.1320 C   0  0  0  0  0  1  0  0  0  0  0  0
  194.8440  173.7200  135.9430 C   0  0  2  0  0  3  0  0  0  0  0  0
  190.3160  173.5190  137.2520 N   0  0  0  0  0  2  0  0  0  0  0  0
  191.2410  173.3150  136.1810 C   0  0  0  0  0  0  0  0  0  0  0  0
  190.7470  173.2440  134.7750 C   0  0  0  0  0  2  0  0  0  0  0  0
  196.8270  175.0910  138.4890 N   0  0  0  0  0  2  0  0  0  0  0  0
  193.7740  173.0480  136.7140 C   0  0  0  0  0  0  0  0  0  0  0  0
  188.1020  173.7350  137.9350 O   0  0  0  0  0  0  0  0  0  0  0  0
  195.7350  174.3280  139.0630 C   0  0  2  0  0  3  0  0  0  0  0  0
  195.0460  173.0630  134.5940 C   0  0  0  0  0  1  0  0  0  0  0  0
  192.5110  173.1750  136.4370 C   0  0  0  0  0  0  0  0  0  0  0  0
  196.0850  173.5180  136.8080 C   0  0  1  0  0  3  0  0  0  0  0  0
  188.9260  173.7670  136.9920 C   0  0  0  0  0  0  0  0  0  0  0  0
  196.7800  174.8500  137.0460 C   0  0  0  0  0  2  0  0  0  0  0  0
  189.6130  174.2300  134.5940 C   0  0  0  0  0  2  0  0  0  0  0  0
  188.4430  173.9990  135.5730 C   0  0  2  0  0  3  0  0  0  0  0  0
  194.1960  172.6760  138.0180 N   0  0  0  0  0  2  0  0  0  0  0  0
  187.0740  178.3260  143.9540 O   0  0  0  0  0  0  0  0  0  0  0  0
  188.5480  176.5900  143.6530 O   0  0  0  0  0  0  0  0  0  0  0  0
  188.0600  177.4550  144.4360 C   0  0  0  0  0  0  0  0  0  0  0  0
  188.3830  176.2070  146.4110 O   0  0  0  0  0  1  0  0  0  0  0  0
  188.5290  177.5080  145.8590 C   0  0  2  0  0  0  0  0  0  0  0  0
  187.7590  178.5000  146.5490 O   0  0  0  0  0  0  0  0  0  0  0  0
  186.8320  177.9170  147.4460 C   0  0  0  0  0  1  0  0  0  0  0  0
  190.3470  178.6880  144.7370 O   0  0  0  0  0  1  0  0  0  0  0  0
  190.0220  177.9210  145.8720 C   0  0  2  0  0  3  0  0  0  0  0  0
  191.7650  177.0310  147.2500 O   0  0  0  0  0  1  0  0  0  0  0  0
  191.0260  176.7710  146.0990 C   0  0  2  0  0  3  0  0  0  0  0  0
  191.9880  176.6490  144.9370 C   0  0  0  0  0  1  0  0  0  0  0  0
  1  7  1  0  0  0  0
  1  5  1  1  0  0  0
  2 14  1  6  0  0  0
  2  7  1  0  0  0  0
  4 54  1  6  0  0  0
  4 12  1  0  0  0  0
  5  4  1  0  0  0  0
  6  3  1  6  0  0  0
  6 10  1  0  0  0  0
  6  2  1  0  0  0  0
  7  9  1  1  0  0  0
  8 11  1  6  0  0  0
  8 12  1  0  0  0  0
  9  8  1  0  0  0  0
 10 25  1  6  0  0  0
 10  1  1  0  0  0  0
 13 15  1  0  0  0  0
 13 14  2  0  0  0  0
 16 15  1  1  0  0  0
 17 22  1  0  0  0  0
 18 17  2  0  0  0  0
 19 23  2  0  0  0  0
 20 17  1  0  0  0  0
 21 16  1  0  0  0  0
 22 19  1  0  0  0  0
 22 21  1  0  0  0  0
 23 16  1  0  0  0  0
 25 24  1  6  0  0  0
 26 31  1  1  0  0  0
 26 25  1  0  0  0  0
 26 27  1  0  0  0  0
 28 27  1  0  0  0  0
 28 29  1  0  0  0  0
 30 28  2  0  0  0  0
 33 52  1  1  0  0  0
 33 34  1  0  0  0  0
 34 31  1  6  0  0  0
 35 32  1  6  0  0  0
 35 33  1  0  0  0  0
 35 34  1  0  0  0  0
 36 53  1  6  0  0  0
 36 45  1  0  0  0  0
 38 46  1  6  0  0  0
 38 43  1  0  0  0  0
 38 48  1  0  0  0  0
 40 47  2  0  0  0  0
 40 39  1  0  0  0  0
 41 40  1  0  0  0  0
 42 45  1  0  0  0  0
 43 53  1  0  0  0  0
 45 37  1  6  0  0  0
 47 43  2  0  0  0  0
 48 50  1  1  0  0  0
 48 36  1  0  0  0  0
 49 39  1  0  0  0  0
 49 44  2  0  0  0  0
 50 42  1  0  0  0  0
 51 41  1  0  0  0  0
 52 51  1  6  0  0  0
 52 49  1  0  0  0  0
 54 56  1  0  0  0  0
 55 56  2  0  0  0  0
 56 58  1  0  0  0  0
 58 62  1  0  0  0  0
 58 57  1  1  0  0  0
 58 59  1  0  0  0  0
 59 60  1  0  0  0  0
 62 61  1  6  0  0  0
 62 64  1  0  0  0  0
 64 65  1  6  0  0  0
 64 63  1  0  0  0  0
M  END
>  <MODEL>
5

>  <REMARK>
 VINA RESULT:      -4.9      3.787     11.009
  Name = 
  16 active torsions:
  status: ('A' for Active; 'I' for Inactive)
    1  A    between atoms: C_2  and  C_39
    2  A    between atoms: C_5  and  C_24
    3  A    between atoms: C_5  and  C_51
    4  A    between atoms: O_7  and  C_55
    5  A    between atoms: C_8  and  C_39
    6  A    between atoms: C_10  and  O_36
    7  A    between atoms: C_11  and  C_35
    8  A    between atoms: C_15  and  O_28
    9  A    between atoms: C_19  and  C_31
   10  A    between atoms: C_19  and  C_55
   11  A    between atoms: C_24  and  O_36
   12  A    between atoms: C_24  and  C_54
   13  A    between atoms: O_28  and  C_50
   14  A    between atoms: C_33  and  C_62
   15  A    between atoms: C_37  and  C_54
   16  A    between atoms: C_50  and  C_55
                            x       y       z     vdW  Elec       q    Type
                         _______ _______ _______ _____ _____    ______ ____

>  <TORSDO>
F 16

$$$$
=
 OpenBabel11042410153D

 65 71  0  0  1  0  0  0  0  0999 V2000
  186.3330  178.2980  138.6680 C   0  0  2  0  0  3  0  0  0  0  0  0
  187.8190  177.5680  140.4550 C   0  0  2  0  0  3  0  0  0  0  0  0
  189.8260  177.4270  139.0510 O   0  0  0  0  0  1  0  0  0  0  0  0
  184.2600  179.8300  138.9620 C   0  0  2  0  0  3  0  0  0  0  0  0
  185.5980  179.5550  138.2350 C   0  0  0  0  0  2  0  0  0  0  0  0
  188.4340  177.2850  139.0860 C   0  0  2  0  0  3  0  0  0  0  0  0
  186.4820  178.2520  140.1860 C   0  0  2  0  0  3  0  0  0  0  0  0
  184.1680  177.8830  140.3300 C   0  0  2  0  0  3  0  0  0  0  0  0
  185.4530  177.5130  140.8090 O   0  0  0  0  0  0  0  0  0  0  0  0
  187.7640  178.2410  138.1400 C   0  0  1  0  0  3  0  0  0  0  0  0
  183.8490  177.1890  139.1500 O   0  0  0  0  0  1  0  0  0  0  0  0
  183.9810  179.2830  140.2410 O   0  0  0  0  0  0  0  0  0  0  0  0
  189.5470  177.8300  142.2350 C   0  0  0  0  0  3  0  0  0  0  0  0
  188.6910  178.3770  141.3810 C   0  0  0  0  0  3  0  0  0  0  0  0
  190.3080  178.6840  143.2270 C   0  0  0  0  0  2  0  0  0  0  0  0
  191.5530  178.0280  143.8160 C   0  0  1  0  0  3  0  0  0  0  0  0
  191.6970  176.5020  147.0440 C   0  0  0  0  0  0  0  0  0  0  0  0
  191.6870  177.4310  147.8910 O   0  0  0  0  0  0  0  0  0  0  0  0
  191.7280  175.8070  144.6230 C   0  0  0  0  0  3  0  0  0  0  0  0
  191.6570  175.1520  147.4880 N   0  0  0  0  0  1  0  0  0  0  0  0
  191.5460  178.1090  145.2230 O   0  0  0  0  0  0  0  0  0  0  0  0
  191.6360  176.8190  145.6480 N   0  0  0  0  0  0  0  0  0  0  0  0
  191.7390  176.5990  143.3510 C   0  0  0  0  0  3  0  0  0  0  0  0
  187.0250  178.6460  135.7590 C   0  0  0  0  0  1  0  0  0  0  0  0
  187.9160  177.8250  136.6750 C   0  0  2  0  0  3  0  0  0  0  0  0
  187.9300  176.3190  136.3600 C   0  0  1  0  0  3  0  0  0  0  0  0
  188.8810  175.9600  135.3540 O   0  0  0  0  0  0  0  0  0  0  0  0
  190.1650  176.5130  135.3540 C   0  0  0  0  0  0  0  0  0  0  0  0
  190.3970  177.7570  134.6960 N   0  0  0  0  0  1  0  0  0  0  0  0
  191.1220  175.9100  135.9190 O   0  0  0  0  0  0  0  0  0  0  0  0
  187.9110  175.3320  137.5300 C   0  0  0  0  0  2  0  0  0  0  0  0
  188.8460  172.6910  136.8040 C   0  0  0  0  0  1  0  0  0  0  0  0
  186.9840  173.9010  135.7360 C   0  0  1  0  0  3  0  0  0  0  0  0
  186.8780  174.2480  137.2080 C   0  0  1  0  0  3  0  0  0  0  0  0
  187.3460  172.8570  136.7760 C   0  0  2  0  0  3  0  0  0  0  0  0
  178.9320  175.7210  138.5210 C   0  0  2  0  0  3  0  0  0  0  0  0
  180.9130  176.9560  139.5820 C   0  0  0  0  0  1  0  0  0  0  0  0
  180.1600  173.6220  138.6780 C   0  0  2  0  0  3  0  0  0  0  0  0
  183.5560  175.2640  135.8440 N   0  0  0  0  0  2  0  0  0  0  0  0
  182.8190  174.1070  136.2490 C   0  0  0  0  0  0  0  0  0  0  0  0
  183.3470  172.7460  135.9490 C   0  0  0  0  0  2  0  0  0  0  0  0
  179.0330  176.1200  140.8640 N   0  0  0  0  0  2  0  0  0  0  0  0
  180.5480  174.4090  137.4860 C   0  0  0  0  0  0  0  0  0  0  0  0
  185.3920  176.1390  134.7130 O   0  0  0  0  0  0  0  0  0  0  0  0
  179.4100  176.7050  139.5910 C   0  0  2  0  0  3  0  0  0  0  0  0
  179.7820  172.2040  138.3020 C   0  0  0  0  0  1  0  0  0  0  0  0
  181.6790  174.2470  136.8640 C   0  0  0  0  0  0  0  0  0  0  0  0
  178.9350  174.3610  139.2060 C   0  0  1  0  0  3  0  0  0  0  0  0
  184.8560  175.1400  135.2470 C   0  0  0  0  0  0  0  0  0  0  0  0
  179.1060  174.6690  140.6860 C   0  0  0  0  0  2  0  0  0  0  0  0
  184.8530  172.7500  136.0980 C   0  0  0  0  0  2  0  0  0  0  0  0
  185.5510  173.7940  135.2000 C   0  0  2  0  0  3  0  0  0  0  0  0
  179.8370  175.6330  137.3870 N   0  0  0  0  0  2  0  0  0  0  0  0
  183.1190  180.0970  138.1510 O   0  0  0  0  0  0  0  0  0  0  0  0
  181.7160  180.4750  139.9310 O   0  0  0  0  0  0  0  0  0  0  0  0
  181.8930  180.5230  138.6790 C   0  0  0  0  0  0  0  0  0  0  0  0
  179.5830  180.3740  138.2220 O   0  0  0  0  0  1  0  0  0  0  0  0
  180.7820  181.0080  137.7970 C   0  0  2  0  0  0  0  0  0  0  0  0
  181.1230  180.7080  136.4380 O   0  0  0  0  0  0  0  0  0  0  0  0
  180.1640  179.8640  135.8280 C   0  0  0  0  0  1  0  0  0  0  0  0
  179.3370  182.9080  138.3080 O   0  0  0  0  0  1  0  0  0  0  0  0
  180.6530  182.5430  137.9630 C   0  0  2  0  0  3  0  0  0  0  0  0
  182.0160  184.3920  137.2930 O   0  0  0  0  0  1  0  0  0  0  0  0
  181.1970  183.3850  136.7890 C   0  0  2  0  0  3  0  0  0  0  0  0
  180.0710  184.0340  136.0150 C   0  0  0  0  0  1  0  0  0  0  0  0
  1  5  1  1  0  0  0
  1  7  1  0  0  0  0
  2 14  1  1  0  0  0
  4 54  1  6  0  0  0
  4 12  1  0  0  0  0
  5  4  1  0  0  0  0
  6  3  1  1  0  0  0
  6  2  1  0  0  0  0
  7  2  1  0  0  0  0
  7  9  1  1  0  0  0
  8 11  1  6  0  0  0
  8  9  1  0  0  0  0
 10 25  1  6  0  0  0
 10  1  1  0  0  0  0
 10  6  1  0  0  0  0
 12  8  1  0  0  0  0
 13 15  1  0  0  0  0
 14 13  2  0  0  0  0
 16 15  1  1  0  0  0
 16 21  1  0  0  0  0
 17 20  1  0  0  0  0
 17 18  2  0  0  0  0
 19 22  1  0  0  0  0
 21 22  1  0  0  0  0
 22 17  1  0  0  0  0
 23 16  1  0  0  0  0
 23 19  2  0  0  0  0
 25 24  1  6  0  0  0
 26 25  1  0  0  0  0
 26 31  1  1  0  0  0
 27 26  1  0  0  0  0
 28 27  1  0  0  0  0
 28 30  2  0  0  0  0
 29 28  1  0  0  0  0
 33 52  1  1  0  0  0
 33 35  1  0  0  0  0
 33 34  1  0  0  0  0
 34 31  1  6  0  0  0
 35 32  1  6  0  0  0
 35 34  1  0  0  0  0
 36 53  1  6  0  0  0
 36 48  1  0  0  0  0
 36 45  1  0  0  0  0
 38 46  1  6  0  0  0
 38 48  1  0  0  0  0
 39 40  1  0  0  0  0
 40 47  2  0  0  0  0
 41 51  1  0  0  0  0
 41 40  1  0  0  0  0
 43 38  1  0  0  0  0
 44 49  2  0  0  0  0
 45 37  1  1  0  0  0
 45 42  1  0  0  0  0
 47 43  2  0  0  0  0
 48 50  1  1  0  0  0
 49 39  1  0  0  0  0
 50 42  1  0  0  0  0
 52 49  1  0  0  0  0
 52 51  1  1  0  0  0
 53 43  1  0  0  0  0
 54 56  1  0  0  0  0
 56 55  2  0  0  0  0
 58 62  1  0  0  0  0
 58 57  1  1  0  0  0
 58 56  1  0  0  0  0
 59 58  1  0  0  0  0
 60 59  1  0  0  0  0
 62 61  1  6  0  0  0
 64 65  1  1  0  0  0
 64 63  1  0  0  0  0
 64 62  1  0  0  0  0
M  END
>  <MODEL>
6

>  <REMARK>
 VINA RESULT:      -4.6      3.693      8.790
  Name = 
  16 active torsions:
  status: ('A' for Active; 'I' for Inactive)
    1  A    between atoms: C_2  and  C_39
    2  A    between atoms: C_5  and  C_24
    3  A    between atoms: C_5  and  C_51
    4  A    between atoms: O_7  and  C_55
    5  A    between atoms: C_8  and  C_39
    6  A    between atoms: C_10  and  O_36
    7  A    between atoms: C_11  and  C_35
    8  A    between atoms: C_15  and  O_28
    9  A    between atoms: C_19  and  C_31
   10  A    between atoms: C_19  and  C_55
   11  A    between atoms: C_24  and  O_36
   12  A    between atoms: C_24  and  C_54
   13  A    between atoms: O_28  and  C_50
   14  A    between atoms: C_33  and  C_62
   15  A    between atoms: C_37  and  C_54
   16  A    between atoms: C_50  and  C_55
                            x       y       z     vdW  Elec       q    Type
                         _______ _______ _______ _____ _____    ______ ____

>  <TORSDO>
F 16

$$$$
