=
 OpenBabel11032419483D

 62 68  0  0  1  0  0  0  0  0999 V2000
  188.8930  174.8410  137.2810 C   0  0  1  0  0  3  0  0  0  0  0  0
  186.4440  176.5320  135.9610 N   0  0  0  0  0  0  0  0  0  0  0  0
  187.9720  174.6910  136.1390 N   0  0  0  0  0  0  0  0  0  0  0  0
  189.5590  173.5780  136.9740 C   0  0  2  0  0  3  0  0  0  0  0  0
  190.3270  174.8660  136.7950 C   0  0  2  0  0  3  0  0  0  0  0  0
  186.8110  175.3370  135.6010 C   0  0  0  0  0  0  0  0  0  0  0  0
  188.6270  173.4490  135.8990 N   0  0  0  0  0  2  0  0  0  0  0  0
  188.7490  179.0980  137.4020 N   0  0  0  0  0  0  0  0  0  0  0  0
  187.6070  179.0860  138.3190 C   0  0  0  0  0  2  0  0  0  0  0  0
  188.4430  178.1250  136.3500 C   0  0  0  0  0  3  0  0  0  0  0  0
  187.1860  177.4580  136.7620 C   0  0  0  0  0  0  0  0  0  0  0  0
  186.6970  178.0300  137.8320 C   0  0  0  0  0  0  0  0  0  0  0  0
  185.3550  177.7290  138.4190 C   0  0  0  0  0  2  0  0  0  0  0  0
  184.6500  179.8910  139.0620 O   0  0  0  0  0  0  0  0  0  0  0  0
  184.9570  178.7680  139.4300 C   0  0  0  0  0  0  0  0  0  0  0  0
  184.2010  179.4320  143.7910 N   0  0  0  0  0  2  0  0  0  0  0  0
  186.3780  177.6300  142.6850 C   0  0  0  0  0  2  0  0  0  0  0  0
  186.3700  178.3140  144.0420 C   0  0  1  0  0  3  0  0  0  0  0  0
  186.1980  178.6360  141.5670 C   0  0  0  0  0  2  0  0  0  0  0  0
  184.8540  178.4280  140.8820 C   0  0  1  0  0  3  0  0  0  0  0  0
  183.7570  179.2510  141.5460 C   0  0  0  0  0  2  0  0  0  0  0  0
  183.4410  178.7090  142.8570 N   0  0  0  0  0  2  0  0  0  0  0  0
  184.9460  178.4620  144.5800 C   0  0  1  0  0  3  0  0  0  0  0  0
  187.1310  177.5560  144.9140 F   0  0  0  0  0  0  0  0  0  0  0  0
  185.6070  179.9190  146.3650 O   0  0  0  0  0  0  0  0  0  0  0  0
  184.2560  178.1650  146.9560 O   0  0  0  0  0  1  0  0  0  0  0  0
  184.9580  178.8990  146.0100 C   0  0  0  0  0  0  0  0  0  0  0  0
  191.2200  175.0560  137.9260 N   0  0  0  0  0  2  0  0  0  0  0  0
  192.5730  174.7650  137.4720 C   0  0  0  0  0  2  0  0  0  0  0  0
  193.9410  176.6240  136.8690 O   0  0  0  0  0  0  0  0  0  0  0  0
  193.4800  175.9020  137.7980 C   0  0  0  0  0  0  0  0  0  0  0  0
  193.7870  176.1650  139.1350 O   0  0  0  0  0  0  0  0  0  0  0  0
  193.4320  177.3870  139.7700 C   0  0  0  0  0  2  0  0  0  0  0  0
  192.0980  177.3400  140.1710 O   0  0  0  0  0  0  0  0  0  0  0  0
  192.1530  177.0580  141.4940 N   0  0  0  0  0  2  0  0  0  0  0  0
  191.0280  176.7260  144.4130 C   0  0  1  0  0  3  0  0  0  0  0  0
  191.4810  177.9910  143.6590 C   0  0  2  0  0  3  0  0  0  0  0  0
  189.5110  177.1240  140.5300 N   0  0  0  0  0  1  0  0  0  0  0  0
  190.8500  179.1110  144.2040 O   0  0  0  0  0  1  0  0  0  0  0  0
  189.5600  176.0920  142.7460 C   0  0  0  0  0  2  0  0  0  0  0  0
  189.6900  176.3560  144.1250 O   0  0  0  0  0  0  0  0  0  0  0  0
  191.1720  177.9080  142.1590 C   0  0  2  0  0  3  0  0  0  0  0  0
  189.7550  177.3740  141.9410 C   0  0  1  0  0  3  0  0  0  0  0  0
  192.0050  175.5650  144.2660 C   0  0  0  0  0  1  0  0  0  0  0  0
  185.9090  174.5520  134.7140 C   0  0  0  0  0  2  0  0  0  0  0  0
  185.0850  173.5900  135.5470 C   0  0  0  0  0  2  0  0  0  0  0  0
  180.3040  175.3760  137.5540 N   0  0  0  0  0  0  0  0  0  0  0  0
  180.2920  174.4830  136.6100 C   0  0  0  0  0  0  0  0  0  0  0  0
  183.1370  174.4280  137.5730 C   0  0  0  0  0  3  0  0  0  0  0  0
  179.0100  173.8020  136.2880 C   0  0  0  0  0  1  0  0  0  0  0  0
  183.6780  173.7390  135.2210 N   0  0  0  0  0  2  0  0  0  0  0  0
  181.4510  174.1720  135.8150 N   0  0  0  0  0  0  0  0  0  0  0  0
  181.4580  176.2070  137.8930 C   0  0  2  0  0  3  0  0  0  0  0  0
  182.7030  174.1520  136.1820 C   0  0  0  0  0  0  0  0  0  0  0  0
  182.5720  175.3280  138.3700 C   0  0  0  0  0  3  0  0  0  0  0  0
  179.7890  176.8460  139.4670 C   0  0  0  0  0  2  0  0  0  0  0  0
  180.9440  178.4900  138.2660 C   0  0  0  0  0  2  0  0  0  0  0  0
  179.8300  179.5600  140.1130 O   0  0  0  0  0  0  0  0  0  0  0  0
  181.1040  177.1900  138.9240 N   0  0  2  0  0  0  0  0  0  0  0  0
  179.6640  177.2890  140.9280 C   0  0  0  0  0  2  0  0  0  0  0  0
  180.1850  178.7100  141.1690 C   0  0  0  0  0  2  0  0  0  0  0  0
  180.9650  179.6200  139.2940 C   0  0  0  0  0  2  0  0  0  0  0  0
  1  3  1  6  0  0  0
  2 11  1  0  0  0  0
  4  7  1  6  0  0  0
  4  1  1  0  0  0  0
  5  4  1  0  0  0  0
  5  1  1  0  0  0  0
  5 28  1  1  0  0  0
  6  2  2  0  0  0  0
  6  3  1  0  0  0  0
  7  3  1  0  0  0  0
  8  9  1  0  0  0  0
 10 11  1  0  0  0  0
 10  8  2  0  0  0  0
 11 12  2  0  0  0  0
 12  9  1  0  0  0  0
 12 13  1  0  0  0  0
 13 15  1  0  0  0  0
 14 15  2  0  0  0  0
 16 23  1  0  0  0  0
 17 18  1  0  0  0  0
 18 23  1  0  0  0  0
 18 24  1  1  0  0  0
 19 17  1  0  0  0  0
 20 15  1  6  0  0  0
 20 21  1  0  0  0  0
 20 19  1  0  0  0  0
 21 22  1  0  0  0  0
 22 16  1  0  0  0  0
 23 27  1  1  0  0  0
 27 25  2  0  0  0  0
 27 26  1  0  0  0  0
 29 31  1  0  0  0  0
 29 28  1  0  0  0  0
 30 31  2  0  0  0  0
 31 32  1  0  0  0  0
 32 33  1  0  0  0  0
 33 34  1  0  0  0  0
 34 35  1  0  0  0  0
 36 44  1  6  0  0  0
 37 39  1  1  0  0  0
 37 36  1  0  0  0  0
 40 41  1  0  0  0  0
 41 36  1  0  0  0  0
 42 35  1  6  0  0  0
 42 37  1  0  0  0  0
 43 38  1  6  0  0  0
 43 42  1  0  0  0  0
 43 40  1  0  0  0  0
 45 46  1  0  0  0  0
 45  6  1  0  0  0  0
 47 53  1  0  0  0  0
 48 47  2  0  0  0  0
 49 55  2  0  0  0  0
 50 48  1  0  0  0  0
 51 46  1  0  0  0  0
 51 54  1  0  0  0  0
 52 54  2  0  0  0  0
 52 48  1  0  0  0  0
 53 55  1  1  0  0  0
 53 59  1  0  0  0  0
 54 49  1  0  0  0  0
 56 60  1  0  0  0  0
 57 62  1  0  0  0  0
 58 61  1  0  0  0  0
 59 57  1  6  0  0  0
 59 56  1  0  0  0  0
 60 61  1  0  0  0  0
 62 58  1  0  0  0  0
M  END
>  <MODEL>
1

>  <REMARK>
 VINA RESULT:      -7.4      0.000      0.000
  Name = 
  17 active torsions:
  status: ('A' for Active; 'I' for Inactive)
    1  A    between atoms: C_2  and  N_37
    2  A    between atoms: C_2  and  C_50
    3  A    between atoms: C_5  and  N_18
    4  A    between atoms: C_5  and  C_27
    5  A    between atoms: N_17  and  C_41
    6  A    between atoms: C_22  and  C_33
    7  A    between atoms: C_22  and  C_36
    8  A    between atoms: N_24  and  C_48
    9  A    between atoms: N_24  and  O_53
   10  A    between atoms: C_27  and  C_55
   11  A    between atoms: C_31  and  N_44
   12  A    between atoms: C_33  and  C_57
   13  A    between atoms: N_37  and  C_54
   14  A    between atoms: C_45  and  O_47
   15  A    between atoms: C_45  and  O_53
   16  A    between atoms: O_47  and  C_50
   17  A    between atoms: C_56  and  C_61
                            x       y       z     vdW  Elec       q    Type
                         _______ _______ _______ _____ _____    ______ ____

>  <TORSDO>
F 17

$$$$
=
 OpenBabel11032419483D

 62 68  0  0  1  0  0  0  0  0999 V2000
  189.0940  174.9400  137.1880 C   0  0  1  0  0  3  0  0  0  0  0  0
  186.0350  175.3820  136.1670 N   0  0  0  0  0  0  0  0  0  0  0  0
  188.0690  174.1500  136.4800 N   0  0  0  0  0  0  0  0  0  0  0  0
  190.0540  173.8400  137.1290 C   0  0  2  0  0  3  0  0  0  0  0  0
  190.3280  175.0870  136.3230 C   0  0  2  0  0  3  0  0  0  0  0  0
  186.6850  174.2560  136.1260 C   0  0  0  0  0  0  0  0  0  0  0  0
  189.0240  173.0930  136.4780 N   0  0  0  0  0  2  0  0  0  0  0  0
  187.6000  178.7690  135.9400 N   0  0  0  0  0  0  0  0  0  0  0  0
  186.7820  178.8330  137.1530 C   0  0  0  0  0  2  0  0  0  0  0  0
  187.4030  177.4290  135.3800 C   0  0  0  0  0  3  0  0  0  0  0  0
  186.5850  176.6890  136.3670 C   0  0  0  0  0  0  0  0  0  0  0  0
  186.1980  177.4870  137.3280 C   0  0  0  0  0  0  0  0  0  0  0  0
  185.2180  177.1190  138.3970 C   0  0  0  0  0  2  0  0  0  0  0  0
  183.7240  178.9390  138.1830 O   0  0  0  0  0  0  0  0  0  0  0  0
  184.4940  178.3320  138.9120 C   0  0  0  0  0  0  0  0  0  0  0  0
  186.1470  178.4030  143.0710 N   0  0  0  0  0  2  0  0  0  0  0  0
  183.2220  178.8240  142.3830 C   0  0  0  0  0  2  0  0  0  0  0  0
  183.7790  178.3200  143.7040 C   0  0  1  0  0  3  0  0  0  0  0  0
  183.7010  177.9690  141.2280 C   0  0  0  0  0  2  0  0  0  0  0  0
  184.6400  178.7690  140.3340 C   0  0  1  0  0  3  0  0  0  0  0  0
  186.0880  178.6380  140.7880 C   0  0  0  0  0  2  0  0  0  0  0  0
  186.2920  179.3460  142.0400 N   0  0  0  0  0  2  0  0  0  0  0  0
  185.1520  178.9270  143.9940 C   0  0  1  0  0  3  0  0  0  0  0  0
  182.8870  178.6570  144.7070 F   0  0  0  0  0  0  0  0  0  0  0  0
  186.1330  177.5360  145.6830 O   0  0  0  0  0  0  0  0  0  0  0  0
  185.3570  179.5720  146.3930 O   0  0  0  0  0  1  0  0  0  0  0  0
  185.5800  178.6320  145.3970 C   0  0  0  0  0  0  0  0  0  0  0  0
  191.3130  175.9030  137.0160 N   0  0  0  0  0  2  0  0  0  0  0  0
  192.3080  175.0040  137.5840 C   0  0  0  0  0  2  0  0  0  0  0  0
  194.6790  175.2680  137.5550 O   0  0  0  0  0  0  0  0  0  0  0  0
  193.5600  175.7510  137.8900 C   0  0  0  0  0  0  0  0  0  0  0  0
  193.4730  176.9930  138.5250 O   0  0  0  0  0  0  0  0  0  0  0  0
  193.3590  177.1180  139.9370 C   0  0  0  0  0  2  0  0  0  0  0  0
  192.0870  177.5790  140.2680 O   0  0  0  0  0  0  0  0  0  0  0  0
  191.8640  177.0940  141.5120 N   0  0  0  0  0  2  0  0  0  0  0  0
  190.8790  176.9500  144.4960 C   0  0  1  0  0  3  0  0  0  0  0  0
  191.3500  178.1560  143.6610 C   0  0  2  0  0  3  0  0  0  0  0  0
  189.1820  177.2460  140.6790 N   0  0  0  0  0  1  0  0  0  0  0  0
  190.8020  179.3290  144.1830 O   0  0  0  0  0  1  0  0  0  0  0  0
  189.2980  176.3150  142.9360 C   0  0  0  0  0  2  0  0  0  0  0  0
  189.5120  176.6340  144.2930 O   0  0  0  0  0  0  0  0  0  0  0  0
  190.9610  178.0200  142.1840 C   0  0  2  0  0  3  0  0  0  0  0  0
  189.5110  177.5480  142.0620 C   0  0  1  0  0  3  0  0  0  0  0  0
  191.7920  175.7360  144.3550 C   0  0  0  0  0  1  0  0  0  0  0  0
  185.9250  173.0050  135.8480 C   0  0  0  0  0  2  0  0  0  0  0  0
  185.0740  172.6490  137.0510 C   0  0  0  0  0  2  0  0  0  0  0  0
  180.0330  174.7710  136.6450 N   0  0  0  0  0  0  0  0  0  0  0  0
  180.1650  173.4800  136.7060 C   0  0  0  0  0  0  0  0  0  0  0  0
  182.8540  174.4900  137.5870 C   0  0  0  0  0  3  0  0  0  0  0  0
  178.9510  172.6470  136.9170 C   0  0  0  0  0  1  0  0  0  0  0  0
  183.7210  172.3420  136.6210 N   0  0  0  0  0  2  0  0  0  0  0  0
  181.4260  172.8150  136.5120 N   0  0  0  0  0  0  0  0  0  0  0  0
  181.1140  175.7000  136.3240 C   0  0  2  0  0  3  0  0  0  0  0  0
  182.6170  173.2190  136.8600 C   0  0  0  0  0  0  0  0  0  0  0  0
  182.1690  175.6100  137.3820 C   0  0  0  0  0  3  0  0  0  0  0  0
  181.6190  177.8990  135.5630 C   0  0  0  0  0  2  0  0  0  0  0  0
  180.4740  177.6030  137.5830 C   0  0  0  0  0  2  0  0  0  0  0  0
  180.2400  179.9070  136.9230 O   0  0  0  0  0  0  0  0  0  0  0  0
  180.6070  177.0730  136.2230 N   0  0  2  0  0  0  0  0  0  0  0  0
  180.9700  179.0480  134.7840 C   0  0  0  0  0  2  0  0  0  0  0  0
  179.8730  179.7640  135.5780 C   0  0  0  0  0  2  0  0  0  0  0  0
  179.5990  178.8540  137.5910 C   0  0  0  0  0  2  0  0  0  0  0  0
  1  3  1  6  0  0  0
  2 11  1  0  0  0  0
  4  7  1  6  0  0  0
  4  1  1  0  0  0  0
  5 28  1  1  0  0  0
  5  4  1  0  0  0  0
  5  1  1  0  0  0  0
  6  2  2  0  0  0  0
  6  3  1  0  0  0  0
  7  3  1  0  0  0  0
  8  9  1  0  0  0  0
  9 12  1  0  0  0  0
 10  8  2  0  0  0  0
 10 11  1  0  0  0  0
 11 12  2  0  0  0  0
 12 13  1  0  0  0  0
 13 15  1  0  0  0  0
 14 15  2  0  0  0  0
 16 23  1  0  0  0  0
 17 18  1  0  0  0  0
 18 23  1  0  0  0  0
 18 24  1  1  0  0  0
 19 17  1  0  0  0  0
 20 15  1  6  0  0  0
 20 21  1  0  0  0  0
 20 19  1  0  0  0  0
 21 22  1  0  0  0  0
 22 16  1  0  0  0  0
 23 27  1  1  0  0  0
 27 25  2  0  0  0  0
 27 26  1  0  0  0  0
 28 29  1  0  0  0  0
 29 31  1  0  0  0  0
 30 31  2  0  0  0  0
 31 32  1  0  0  0  0
 32 33  1  0  0  0  0
 33 34  1  0  0  0  0
 34 35  1  0  0  0  0
 36 44  1  6  0  0  0
 37 39  1  1  0  0  0
 37 36  1  0  0  0  0
 40 41  1  0  0  0  0
 41 36  1  0  0  0  0
 42 35  1  1  0  0  0
 42 37  1  0  0  0  0
 43 38  1  6  0  0  0
 43 42  1  0  0  0  0
 43 40  1  0  0  0  0
 45  6  1  0  0  0  0
 45 46  1  0  0  0  0
 47 48  2  0  0  0  0
 48 50  1  0  0  0  0
 51 54  1  0  0  0  0
 51 46  1  0  0  0  0
 52 48  1  0  0  0  0
 52 54  2  0  0  0  0
 53 47  1  0  0  0  0
 53 55  1  1  0  0  0
 54 49  1  0  0  0  0
 55 49  2  0  0  0  0
 57 62  1  0  0  0  0
 58 62  1  0  0  0  0
 59 56  1  6  0  0  0
 59 53  1  0  0  0  0
 59 57  1  0  0  0  0
 60 56  1  0  0  0  0
 60 61  1  0  0  0  0
 61 58  1  0  0  0  0
M  END
>  <MODEL>
2

>  <REMARK>
 VINA RESULT:      -7.3      1.509      1.986
  Name = 
  17 active torsions:
  status: ('A' for Active; 'I' for Inactive)
    1  A    between atoms: C_2  and  N_37
    2  A    between atoms: C_2  and  C_50
    3  A    between atoms: C_5  and  N_18
    4  A    between atoms: C_5  and  C_27
    5  A    between atoms: N_17  and  C_41
    6  A    between atoms: C_22  and  C_33
    7  A    between atoms: C_22  and  C_36
    8  A    between atoms: N_24  and  C_48
    9  A    between atoms: N_24  and  O_53
   10  A    between atoms: C_27  and  C_55
   11  A    between atoms: C_31  and  N_44
   12  A    between atoms: C_33  and  C_57
   13  A    between atoms: N_37  and  C_54
   14  A    between atoms: C_45  and  O_47
   15  A    between atoms: C_45  and  O_53
   16  A    between atoms: O_47  and  C_50
   17  A    between atoms: C_56  and  C_61
                            x       y       z     vdW  Elec       q    Type
                         _______ _______ _______ _____ _____    ______ ____

>  <TORSDO>
F 17

$$$$
=
 OpenBabel11032419483D

 62 68  0  0  1  0  0  0  0  0999 V2000
  184.7010  179.2660  139.6260 C   0  0  1  0  0  3  0  0  0  0  0  0
  186.3570  178.4780  142.3160 N   0  0  0  0  0  0  0  0  0  0  0  0
  186.0010  178.6500  139.9500 N   0  0  0  0  0  0  0  0  0  0  0  0
  184.9460  179.1480  138.1910 C   0  0  2  0  0  3  0  0  0  0  0  0
  183.8570  178.3070  138.8140 C   0  0  2  0  0  3  0  0  0  0  0  0
  186.8170  178.4020  141.1010 C   0  0  0  0  0  0  0  0  0  0  0  0
  186.2120  178.5880  138.5430 N   0  0  0  0  0  2  0  0  0  0  0  0
  182.6680  178.2620  142.8750 N   0  0  0  0  0  0  0  0  0  0  0  0
  183.1750  178.9190  144.0820 C   0  0  0  0  0  2  0  0  0  0  0  0
  183.8360  177.9820  142.0360 C   0  0  0  0  0  3  0  0  0  0  0  0
  184.9890  178.6180  142.7130 C   0  0  0  0  0  0  0  0  0  0  0  0
  184.6270  179.0950  143.8760 C   0  0  0  0  0  0  0  0  0  0  0  0
  185.5680  179.6470  144.8990 C   0  0  0  0  0  2  0  0  0  0  0  0
  184.7180  178.6750  146.8790 O   0  0  0  0  0  0  0  0  0  0  0  0
  185.6560  178.7460  146.1000 C   0  0  0  0  0  0  0  0  0  0  0  0
  189.5710  177.4410  147.8330 N   0  0  0  0  0  2  0  0  0  0  0  0
  188.7280  176.9670  144.9570 C   0  0  0  0  0  2  0  0  0  0  0  0
  190.1510  177.0480  145.4820 C   0  0  1  0  0  3  0  0  0  0  0  0
  187.9420  178.2110  145.3180 C   0  0  0  0  0  2  0  0  0  0  0  0
  186.8460  177.8700  146.3190 C   0  0  1  0  0  3  0  0  0  0  0  0
  187.3440  177.9940  147.7540 C   0  0  0  0  0  2  0  0  0  0  0  0
  188.2830  176.9270  148.0580 N   0  0  0  0  0  2  0  0  0  0  0  0
  190.2420  176.5300  146.9180 C   0  0  1  0  0  3  0  0  0  0  0  0
  190.9630  176.2950  144.6520 F   0  0  0  0  0  0  0  0  0  0  0  0
  192.3920  175.4720  146.8380 O   0  0  0  0  0  0  0  0  0  0  0  0
  192.1950  177.2250  148.3010 O   0  0  0  0  0  1  0  0  0  0  0  0
  191.6680  176.3740  147.3400 C   0  0  0  0  0  0  0  0  0  0  0  0
  182.5630  178.9100  138.5390 N   0  0  0  0  0  2  0  0  0  0  0  0
  181.6430  178.4700  139.5790 C   0  0  0  0  0  2  0  0  0  0  0  0
  179.7440  177.7670  138.3170 O   0  0  0  0  0  0  0  0  0  0  0  0
  180.7220  177.4280  139.0420 C   0  0  0  0  0  0  0  0  0  0  0  0
  180.9720  176.0850  139.3310 O   0  0  0  0  0  0  0  0  0  0  0  0
  181.3320  175.1450  138.3260 C   0  0  0  0  0  2  0  0  0  0  0  0
  182.1090  175.7690  137.3520 O   0  0  0  0  0  0  0  0  0  0  0  0
  183.2350  175.0210  137.2880 N   0  0  0  0  0  2  0  0  0  0  0  0
  185.2800  172.9010  136.1830 C   0  0  1  0  0  3  0  0  0  0  0  0
  183.7890  173.1070  135.8590 C   0  0  2  0  0  3  0  0  0  0  0  0
  184.1640  176.8540  135.3670 N   0  0  0  0  0  1  0  0  0  0  0  0
  183.5080  172.5860  134.5940 O   0  0  0  0  0  1  0  0  0  0  0  0
  185.8260  175.0940  135.7070 C   0  0  0  0  0  2  0  0  0  0  0  0
  186.1350  173.7460  135.4310 O   0  0  0  0  0  0  0  0  0  0  0  0
  183.3890  174.5870  135.9040 C   0  0  2  0  0  3  0  0  0  0  0  0
  184.4350  175.4380  135.1820 C   0  0  1  0  0  3  0  0  0  0  0  0
  185.5750  172.9460  137.6790 C   0  0  0  0  0  1  0  0  0  0  0  0
  188.2800  178.2010  140.9060 C   0  0  0  0  0  2  0  0  0  0  0  0
  188.5790  178.0480  139.4280 C   0  0  0  0  0  2  0  0  0  0  0  0
  191.3040  174.2240  136.5940 N   0  0  0  0  0  0  0  0  0  0  0  0
  190.0360  174.0500  136.8200 C   0  0  0  0  0  0  0  0  0  0  0  0
  190.4570  176.9560  137.4580 C   0  0  0  0  0  3  0  0  0  0  0  0
  189.3240  172.9630  136.0970 C   0  0  0  0  0  1  0  0  0  0  0  0
  188.5550  176.6420  139.0640 N   0  0  0  0  0  2  0  0  0  0  0  0
  189.3040  174.8210  137.7900 N   0  0  0  0  0  0  0  0  0  0  0  0
  192.1520  175.1680  137.3180 C   0  0  2  0  0  3  0  0  0  0  0  0
  189.4610  176.0750  138.1140 C   0  0  0  0  0  0  0  0  0  0  0  0
  191.6640  176.5600  137.0650 C   0  0  0  0  0  3  0  0  0  0  0  0
  194.3880  174.9080  138.0960 C   0  0  0  0  0  2  0  0  0  0  0  0
  193.9510  176.2880  136.2570 C   0  0  0  0  0  2  0  0  0  0  0  0
  196.3180  175.8490  136.3150 O   0  0  0  0  0  0  0  0  0  0  0  0
  193.5530  175.0330  136.9000 N   0  0  2  0  0  0  0  0  0  0  0  0
  195.6400  174.0730  137.8090 C   0  0  0  0  0  2  0  0  0  0  0  0
  196.3280  174.4600  136.4960 C   0  0  0  0  0  2  0  0  0  0  0  0
  195.2380  176.0980  135.4570 C   0  0  0  0  0  2  0  0  0  0  0  0
  1  3  1  1  0  0  0
  2 11  1  0  0  0  0
  3  6  1  0  0  0  0
  4  7  1  1  0  0  0
  4  5  1  0  0  0  0
  4  1  1  0  0  0  0
  5 28  1  6  0  0  0
  5  1  1  0  0  0  0
  6  2  2  0  0  0  0
  7  3  1  0  0  0  0
  8  9  1  0  0  0  0
 10 11  1  0  0  0  0
 10  8  2  0  0  0  0
 11 12  2  0  0  0  0
 12  9  1  0  0  0  0
 12 13  1  0  0  0  0
 13 15  1  0  0  0  0
 15 14  2  0  0  0  0
 16 22  1  0  0  0  0
 17 19  1  0  0  0  0
 17 18  1  0  0  0  0
 18 24  1  6  0  0  0
 18 23  1  0  0  0  0
 19 20  1  0  0  0  0
 20 15  1  1  0  0  0
 20 21  1  0  0  0  0
 21 22  1  0  0  0  0
 23 27  1  1  0  0  0
 23 16  1  0  0  0  0
 25 27  2  0  0  0  0
 27 26  1  0  0  0  0
 28 29  1  0  0  0  0
 30 31  2  0  0  0  0
 31 32  1  0  0  0  0
 31 29  1  0  0  0  0
 33 32  1  0  0  0  0
 34 33  1  0  0  0  0
 35 34  1  0  0  0  0
 36 44  1  1  0  0  0
 37 39  1  6  0  0  0
 37 42  1  0  0  0  0
 37 36  1  0  0  0  0
 41 40  1  0  0  0  0
 41 36  1  0  0  0  0
 42 35  1  1  0  0  0
 43 38  1  1  0  0  0
 43 40  1  0  0  0  0
 43 42  1  0  0  0  0
 45  6  1  0  0  0  0
 46 45  1  0  0  0  0
 47 48  2  0  0  0  0
 47 53  1  0  0  0  0
 48 52  1  0  0  0  0
 49 54  1  0  0  0  0
 50 48  1  0  0  0  0
 51 46  1  0  0  0  0
 52 54  2  0  0  0  0
 53 55  1  6  0  0  0
 54 51  1  0  0  0  0
 55 49  2  0  0  0  0
 58 61  1  0  0  0  0
 59 57  1  1  0  0  0
 59 53  1  0  0  0  0
 59 56  1  0  0  0  0
 60 56  1  0  0  0  0
 61 60  1  0  0  0  0
 62 57  1  0  0  0  0
 62 58  1  0  0  0  0
M  END
>  <MODEL>
3

>  <REMARK>
 VINA RESULT:      -6.7      2.888      9.667
  Name = 
  17 active torsions:
  status: ('A' for Active; 'I' for Inactive)
    1  A    between atoms: C_2  and  N_37
    2  A    between atoms: C_2  and  C_50
    3  A    between atoms: C_5  and  N_18
    4  A    between atoms: C_5  and  C_27
    5  A    between atoms: N_17  and  C_41
    6  A    between atoms: C_22  and  C_33
    7  A    between atoms: C_22  and  C_36
    8  A    between atoms: N_24  and  C_48
    9  A    between atoms: N_24  and  O_53
   10  A    between atoms: C_27  and  C_55
   11  A    between atoms: C_31  and  N_44
   12  A    between atoms: C_33  and  C_57
   13  A    between atoms: N_37  and  C_54
   14  A    between atoms: C_45  and  O_47
   15  A    between atoms: C_45  and  O_53
   16  A    between atoms: O_47  and  C_50
   17  A    between atoms: C_56  and  C_61
                            x       y       z     vdW  Elec       q    Type
                         _______ _______ _______ _____ _____    ______ ____

>  <TORSDO>
F 17

$$$$
=
 OpenBabel11032419483D

 62 68  0  0  1  0  0  0  0  0999 V2000
  186.7760  174.5640  136.1550 C   0  0  1  0  0  3  0  0  0  0  0  0
  189.7640  175.6090  136.9180 N   0  0  0  0  0  0  0  0  0  0  0  0
  188.0440  173.9640  136.6090 N   0  0  0  0  0  0  0  0  0  0  0  0
  186.1140  173.2620  136.1240 C   0  0  2  0  0  3  0  0  0  0  0  0
  185.6750  174.2760  137.1540 C   0  0  2  0  0  3  0  0  0  0  0  0
  189.4030  174.3620  136.8330 C   0  0  0  0  0  0  0  0  0  0  0  0
  187.3680  172.7130  136.5300 N   0  0  0  0  0  2  0  0  0  0  0  0
  187.3340  178.4050  136.4170 N   0  0  0  0  0  0  0  0  0  0  0  0
  187.3910  178.2360  137.8700 C   0  0  0  0  0  2  0  0  0  0  0  0
  188.2300  177.3940  135.8490 C   0  0  0  0  0  3  0  0  0  0  0  0
  188.9050  176.7520  137.0000 C   0  0  0  0  0  0  0  0  0  0  0  0
  188.3990  177.1860  138.1240 C   0  0  0  0  0  0  0  0  0  0  0  0
  188.7200  176.6270  139.4740 C   0  0  0  0  0  2  0  0  0  0  0  0
  190.7350  177.8620  139.5000 O   0  0  0  0  0  0  0  0  0  0  0  0
  189.7990  177.4240  140.1510 C   0  0  0  0  0  0  0  0  0  0  0  0
  190.8300  177.2760  144.5050 N   0  0  0  0  0  2  0  0  0  0  0  0
  188.0120  177.5820  143.4210 C   0  0  0  0  0  2  0  0  0  0  0  0
  188.4060  177.0120  144.7740 C   0  0  1  0  0  3  0  0  0  0  0  0
  188.7080  176.8440  142.2960 C   0  0  0  0  0  2  0  0  0  0  0  0
  189.7090  177.7600  141.6050 C   0  0  1  0  0  3  0  0  0  0  0  0
  191.0830  177.6770  142.2580 C   0  0  0  0  0  2  0  0  0  0  0  0
  191.0580  178.3010  143.5710 N   0  0  0  0  0  2  0  0  0  0  0  0
  189.6800  177.6720  145.3030 C   0  0  1  0  0  3  0  0  0  0  0  0
  187.3600  177.2230  145.6540 F   0  0  0  0  0  0  0  0  0  0  0  0
  190.7980  176.4430  147.0320 O   0  0  0  0  0  0  0  0  0  0  0  0
  189.1660  177.8920  147.7320 O   0  0  0  0  0  1  0  0  0  0  0  0
  189.9220  177.2980  146.7310 C   0  0  0  0  0  0  0  0  0  0  0  0
  184.4420  174.9090  136.7140 N   0  0  0  0  0  2  0  0  0  0  0  0
  183.6140  175.1240  137.8930 C   0  0  0  0  0  2  0  0  0  0  0  0
  181.3030  174.7060  138.3150 O   0  0  0  0  0  0  0  0  0  0  0  0
  182.1730  175.1460  137.5110 C   0  0  0  0  0  0  0  0  0  0  0  0
  181.8060  175.6800  136.2740 O   0  0  0  0  0  0  0  0  0  0  0  0
  181.2480  176.9810  136.1420 C   0  0  0  0  0  2  0  0  0  0  0  0
  182.1210  177.9250  136.6790 O   0  0  0  0  0  0  0  0  0  0  0  0
  181.3190  178.7860  137.3490 N   0  0  0  0  0  2  0  0  0  0  0  0
  181.4570  178.6220  140.4870 C   0  0  1  0  0  3  0  0  0  0  0  0
  182.5870  178.7330  139.4470 C   0  0  2  0  0  3  0  0  0  0  0  0
  180.8940  181.5590  137.5560 N   0  0  0  0  0  1  0  0  0  0  0  0
  183.7160  179.3000  140.0410 O   0  0  0  0  0  1  0  0  0  0  0  0
  180.3410  180.4740  139.6750 C   0  0  0  0  0  2  0  0  0  0  0  0
  180.8890  179.8760  140.8280 O   0  0  0  0  0  0  0  0  0  0  0  0
  182.1700  179.5730  138.2330 C   0  0  2  0  0  3  0  0  0  0  0  0
  181.4480  180.8420  138.6920 C   0  0  1  0  0  3  0  0  0  0  0  0
  180.4060  177.5810  140.1140 C   0  0  0  0  0  1  0  0  0  0  0  0
  190.4610  173.3140  136.8150 C   0  0  0  0  0  2  0  0  0  0  0  0
  190.8060  172.9630  135.3810 C   0  0  0  0  0  2  0  0  0  0  0  0
  196.1220  172.1240  136.4300 N   0  0  0  0  0  0  0  0  0  0  0  0
  195.5190  171.3390  135.5890 C   0  0  0  0  0  0  0  0  0  0  0  0
  193.6170  173.6480  135.8610 C   0  0  0  0  0  3  0  0  0  0  0  0
  196.3400  170.4140  134.7620 C   0  0  0  0  0  1  0  0  0  0  0  0
  191.8420  171.9460  135.3590 N   0  0  0  0  0  2  0  0  0  0  0  0
  194.0870  171.2760  135.4700 N   0  0  0  0  0  0  0  0  0  0  0  0
  195.4410  172.9920  137.3880 C   0  0  2  0  0  3  0  0  0  0  0  0
  193.2210  172.2430  135.5960 C   0  0  0  0  0  0  0  0  0  0  0  0
  194.6310  174.0050  136.6410 C   0  0  0  0  0  3  0  0  0  0  0  0
  195.7500  174.7910  138.9170 C   0  0  0  0  0  2  0  0  0  0  0  0
  197.4610  174.2290  137.4230 C   0  0  0  0  0  2  0  0  0  0  0  0
  198.3960  175.6480  139.1290 O   0  0  0  0  0  0  0  0  0  0  0  0
  196.4090  173.6570  138.2670 N   0  0  2  0  0  0  0  0  0  0  0  0
  196.3600  175.0670  140.2950 C   0  0  0  0  0  2  0  0  0  0  0  0
  197.8920  175.0420  140.2870 C   0  0  0  0  0  2  0  0  0  0  0  0
  198.6880  174.5880  138.2590 C   0  0  0  0  0  2  0  0  0  0  0  0
  1  3  1  1  0  0  0
  1  5  1  0  0  0  0
  2 11  1  0  0  0  0
  3  6  1  0  0  0  0
  4  1  1  0  0  0  0
  4  7  1  1  0  0  0
  4  5  1  0  0  0  0
  5 28  1  6  0  0  0
  6  2  2  0  0  0  0
  7  3  1  0  0  0  0
  8  9  1  0  0  0  0
  9 12  1  0  0  0  0
 10  8  2  0  0  0  0
 10 11  1  0  0  0  0
 11 12  2  0  0  0  0
 12 13  1  0  0  0  0
 13 15  1  0  0  0  0
 14 15  2  0  0  0  0
 16 23  1  0  0  0  0
 17 18  1  0  0  0  0
 18 23  1  0  0  0  0
 18 24  1  1  0  0  0
 19 17  1  0  0  0  0
 20 15  1  6  0  0  0
 20 21  1  0  0  0  0
 20 19  1  0  0  0  0
 21 22  1  0  0  0  0
 22 16  1  0  0  0  0
 23 27  1  1  0  0  0
 27 25  2  0  0  0  0
 27 26  1  0  0  0  0
 28 29  1  0  0  0  0
 31 29  1  0  0  0  0
 31 30  2  0  0  0  0
 32 31  1  0  0  0  0
 33 32  1  0  0  0  0
 33 34  1  0  0  0  0
 34 35  1  0  0  0  0
 36 44  1  6  0  0  0
 36 41  1  0  0  0  0
 37 39  1  1  0  0  0
 37 36  1  0  0  0  0
 40 41  1  0  0  0  0
 42 35  1  6  0  0  0
 42 43  1  0  0  0  0
 42 37  1  0  0  0  0
 43 38  1  6  0  0  0
 43 40  1  0  0  0  0
 45  6  1  0  0  0  0
 46 45  1  0  0  0  0
 47 53  1  0  0  0  0
 48 47  2  0  0  0  0
 49 55  2  0  0  0  0
 50 48  1  0  0  0  0
 51 46  1  0  0  0  0
 51 54  1  0  0  0  0
 52 48  1  0  0  0  0
 52 54  2  0  0  0  0
 53 55  1  6  0  0  0
 53 59  1  0  0  0  0
 54 49  1  0  0  0  0
 56 60  1  0  0  0  0
 57 62  1  0  0  0  0
 58 61  1  0  0  0  0
 59 57  1  6  0  0  0
 59 56  1  0  0  0  0
 61 60  1  0  0  0  0
 62 58  1  0  0  0  0
M  END
>  <MODEL>
4

>  <REMARK>
 VINA RESULT:      -6.6      3.000     10.018
  Name = 
  17 active torsions:
  status: ('A' for Active; 'I' for Inactive)
    1  A    between atoms: C_2  and  N_37
    2  A    between atoms: C_2  and  C_50
    3  A    between atoms: C_5  and  N_18
    4  A    between atoms: C_5  and  C_27
    5  A    between atoms: N_17  and  C_41
    6  A    between atoms: C_22  and  C_33
    7  A    between atoms: C_22  and  C_36
    8  A    between atoms: N_24  and  C_48
    9  A    between atoms: N_24  and  O_53
   10  A    between atoms: C_27  and  C_55
   11  A    between atoms: C_31  and  N_44
   12  A    between atoms: C_33  and  C_57
   13  A    between atoms: N_37  and  C_54
   14  A    between atoms: C_45  and  O_47
   15  A    between atoms: C_45  and  O_53
   16  A    between atoms: O_47  and  C_50
   17  A    between atoms: C_56  and  C_61
                            x       y       z     vdW  Elec       q    Type
                         _______ _______ _______ _____ _____    ______ ____

>  <TORSDO>
F 17

$$$$
=
 OpenBabel11032419483D

 62 68  0  0  1  0  0  0  0  0999 V2000
  188.2220  177.4570  140.4360 C   0  0  1  0  0  3  0  0  0  0  0  0
  190.1280  177.4370  137.7970 N   0  0  0  0  0  0  0  0  0  0  0  0
  189.6670  177.3770  140.1500 N   0  0  0  0  0  0  0  0  0  0  0  0
  188.4530  177.3920  141.8770 C   0  0  2  0  0  3  0  0  0  0  0  0
  187.9250  178.6760  141.2840 C   0  0  2  0  0  3  0  0  0  0  0  0
  190.5330  177.2380  139.0170 C   0  0  0  0  0  0  0  0  0  0  0  0
  189.8420  177.2800  141.5600 N   0  0  0  0  0  2  0  0  0  0  0  0
  187.1970  179.5520  136.8450 N   0  0  0  0  0  0  0  0  0  0  0  0
  186.9610  178.2820  136.1550 C   0  0  0  0  0  3  0  0  0  0  0  0
  188.4690  179.4050  137.5570 C   0  0  0  0  0  2  0  0  0  0  0  0
  188.8740  177.9910  137.3830 C   0  0  0  0  0  0  0  0  0  0  0  0
  188.0600  177.3820  136.5610 C   0  0  0  0  0  0  0  0  0  0  0  0
  188.2680  176.0020  136.0240 C   0  0  0  0  0  2  0  0  0  0  0  0
  188.0920  174.6550  137.9590 O   0  0  0  0  0  0  0  0  0  0  0  0
  187.5950  174.9740  136.8900 C   0  0  0  0  0  0  0  0  0  0  0  0
  183.1910  174.1960  137.0840 N   0  0  0  0  0  2  0  0  0  0  0  0
  185.2670  172.1120  136.3380 C   0  0  0  0  0  2  0  0  0  0  0  0
  183.8910  171.8500  136.9270 C   0  0  1  0  0  3  0  0  0  0  0  0
  186.0640  173.0570  137.2150 C   0  0  0  0  0  2  0  0  0  0  0  0
  186.2770  174.3850  136.5010 C   0  0  1  0  0  3  0  0  0  0  0  0
  185.1470  175.3630  136.7960 C   0  0  0  0  0  2  0  0  0  0  0  0
  183.9230  174.9360  136.1400 N   0  0  0  0  0  2  0  0  0  0  0  0
  182.8850  172.9100  136.4760 C   0  0  1  0  0  3  0  0  0  0  0  0
  183.4760  170.5950  136.5170 F   0  0  0  0  0  0  0  0  0  0  0  0
  181.2580  171.9140  137.9300 O   0  0  0  0  0  1  0  0  0  0  0  0
  180.4450  172.7990  135.9780 O   0  0  0  0  0  0  0  0  0  0  0  0
  181.4900  172.5130  136.8450 C   0  0  0  0  0  0  0  0  0  0  0  0
  186.4940  178.7660  141.5220 N   0  0  0  0  0  2  0  0  0  0  0  0
  186.2190  178.1190  142.7970 C   0  0  0  0  0  2  0  0  0  0  0  0
  185.7370  179.3820  144.7640 O   0  0  0  0  0  0  0  0  0  0  0  0
  185.3370  178.9840  143.6320 C   0  0  0  0  0  0  0  0  0  0  0  0
  184.0880  179.3620  143.1360 O   0  0  0  0  0  0  0  0  0  0  0  0
  182.9600  178.4970  143.1770 C   0  0  0  0  0  2  0  0  0  0  0  0
  182.1000  178.7930  142.1220 O   0  0  0  0  0  0  0  0  0  0  0  0
  182.8790  178.7180  141.0180 N   0  0  0  0  0  2  0  0  0  0  0  0
  181.3280  177.2910  138.6830 C   0  0  1  0  0  3  0  0  0  0  0  0
  180.9340  178.5080  139.5410 C   0  0  2  0  0  3  0  0  0  0  0  0
  184.3000  180.2100  139.1030 N   0  0  0  0  0  1  0  0  0  0  0  0
  180.0180  179.2960  138.8410 O   0  0  0  0  0  1  0  0  0  0  0  0
  183.3530  178.2120  138.0610 C   0  0  0  0  0  2  0  0  0  0  0  0
  182.1600  177.6290  137.5860 O   0  0  0  0  0  0  0  0  0  0  0  0
  182.1510  179.3570  139.9280 C   0  0  2  0  0  3  0  0  0  0  0  0
  183.0600  179.5600  138.7140 C   0  0  1  0  0  3  0  0  0  0  0  0
  181.8840  176.1360  139.5100 C   0  0  0  0  0  1  0  0  0  0  0  0
  191.9040  176.6990  139.2330 C   0  0  0  0  0  2  0  0  0  0  0  0
  192.1500  175.5410  138.2870 C   0  0  0  0  0  2  0  0  0  0  0  0
  196.6940  174.7590  135.3170 N   0  0  0  0  0  0  0  0  0  0  0  0
  196.0980  175.9120  135.2580 C   0  0  0  0  0  0  0  0  0  0  0  0
  194.8710  174.6280  137.6800 C   0  0  0  0  0  3  0  0  0  0  0  0
  196.7990  177.0440  134.5940 C   0  0  0  0  0  1  0  0  0  0  0  0
  192.8560  176.0110  137.1070 N   0  0  0  0  0  2  0  0  0  0  0  0
  194.7620  176.1260  135.7450 N   0  0  0  0  0  0  0  0  0  0  0  0
  196.0800  173.5350  135.8280 C   0  0  2  0  0  3  0  0  0  0  0  0
  194.1800  175.5810  136.7780 C   0  0  0  0  0  0  0  0  0  0  0  0
  195.7520  173.7190  137.2770 C   0  0  0  0  0  3  0  0  0  0  0  0
  196.1740  171.1680  135.5830 C   0  0  0  0  0  2  0  0  0  0  0  0
  197.8000  172.2690  136.8560 C   0  0  0  0  0  2  0  0  0  0  0  0
  198.5980  170.0470  136.3870 O   0  0  0  0  0  0  0  0  0  0  0  0
  196.9790  172.3890  135.6480 N   0  0  2  0  0  0  0  0  0  0  0  0
  196.8540  170.1060  134.7140 C   0  0  0  0  0  2  0  0  0  0  0  0
  198.3500  169.9580  135.0110 C   0  0  0  0  0  2  0  0  0  0  0  0
  199.0070  171.3700  136.6000 C   0  0  0  0  0  2  0  0  0  0  0  0
  1  3  1  6  0  0  0
  1  5  1  0  0  0  0
  1  4  1  0  0  0  0
  2  6  2  0  0  0  0
  3  7  1  0  0  0  0
  4  7  1  6  0  0  0
  5 28  1  1  0  0  0
  5  4  1  0  0  0  0
  6 45  1  0  0  0  0
  6  3  1  0  0  0  0
  8 10  1  0  0  0  0
  9 12  1  0  0  0  0
  9  8  2  0  0  0  0
 11 10  1  0  0  0  0
 11  2  1  0  0  0  0
 12 11  2  0  0  0  0
 13 12  1  0  0  0  0
 13 15  1  0  0  0  0
 15 14  2  0  0  0  0
 17 18  1  0  0  0  0
 17 19  1  0  0  0  0
 18 24  1  6  0  0  0
 20 21  1  0  0  0  0
 20 15  1  1  0  0  0
 20 19  1  0  0  0  0
 22 21  1  0  0  0  0
 22 16  1  0  0  0  0
 23 27  1  1  0  0  0
 23 18  1  0  0  0  0
 23 16  1  0  0  0  0
 26 27  2  0  0  0  0
 27 25  1  0  0  0  0
 28 29  1  0  0  0  0
 29 31  1  0  0  0  0
 31 30  2  0  0  0  0
 32 33  1  0  0  0  0
 32 31  1  0  0  0  0
 34 33  1  0  0  0  0
 35 34  1  0  0  0  0
 36 44  1  1  0  0  0
 36 37  1  0  0  0  0
 37 39  1  6  0  0  0
 37 42  1  0  0  0  0
 40 43  1  0  0  0  0
 41 40  1  0  0  0  0
 41 36  1  0  0  0  0
 42 35  1  1  0  0  0
 43 38  1  1  0  0  0
 43 42  1  0  0  0  0
 46 45  1  0  0  0  0
 47 53  1  0  0  0  0
 48 47  2  0  0  0  0
 48 52  1  0  0  0  0
 50 48  1  0  0  0  0
 51 46  1  0  0  0  0
 52 54  2  0  0  0  0
 53 55  1  1  0  0  0
 54 51  1  0  0  0  0
 54 49  1  0  0  0  0
 55 49  2  0  0  0  0
 58 62  1  0  0  0  0
 59 56  1  1  0  0  0
 59 53  1  0  0  0  0
 59 57  1  0  0  0  0
 60 61  1  0  0  0  0
 60 56  1  0  0  0  0
 61 58  1  0  0  0  0
 62 57  1  0  0  0  0
M  END
>  <MODEL>
5

>  <REMARK>
 VINA RESULT:      -5.9      3.850     11.129
  Name = 
  17 active torsions:
  status: ('A' for Active; 'I' for Inactive)
    1  A    between atoms: C_2  and  N_37
    2  A    between atoms: C_2  and  C_50
    3  A    between atoms: C_5  and  N_18
    4  A    between atoms: C_5  and  C_27
    5  A    between atoms: N_17  and  C_41
    6  A    between atoms: C_22  and  C_33
    7  A    between atoms: C_22  and  C_36
    8  A    between atoms: N_24  and  C_48
    9  A    between atoms: N_24  and  O_53
   10  A    between atoms: C_27  and  C_55
   11  A    between atoms: C_31  and  N_44
   12  A    between atoms: C_33  and  C_57
   13  A    between atoms: N_37  and  C_54
   14  A    between atoms: C_45  and  O_47
   15  A    between atoms: C_45  and  O_53
   16  A    between atoms: O_47  and  C_50
   17  A    between atoms: C_56  and  C_61
                            x       y       z     vdW  Elec       q    Type
                         _______ _______ _______ _____ _____    ______ ____

>  <TORSDO>
F 17

$$$$
=
 OpenBabel11032419483D

 62 68  0  0  1  0  0  0  0  0999 V2000
  188.1700  176.6140  138.1710 C   0  0  1  0  0  3  0  0  0  0  0  0
  188.9040  178.3350  140.8360 N   0  0  0  0  0  0  0  0  0  0  0  0
  187.5560  177.7030  138.9540 N   0  0  0  0  0  0  0  0  0  0  0  0
  187.0590  176.6040  137.2220 C   0  0  2  0  0  3  0  0  0  0  0  0
  188.4150  177.0690  136.7480 C   0  0  2  0  0  3  0  0  0  0  0  0
  187.7770  178.3970  140.1880 C   0  0  0  0  0  0  0  0  0  0  0  0
  186.4790  177.6330  138.0250 N   0  0  0  0  0  2  0  0  0  0  0  0
  191.9500  177.2100  138.9850 N   0  0  0  0  0  0  0  0  0  0  0  0
  192.3240  177.0910  140.3950 C   0  0  0  0  0  2  0  0  0  0  0  0
  190.5810  177.7300  138.9630 C   0  0  0  0  0  3  0  0  0  0  0  0
  190.1330  177.7630  140.3740 C   0  0  0  0  0  0  0  0  0  0  0  0
  191.1220  177.4560  141.1730 C   0  0  0  0  0  0  0  0  0  0  0  0
  191.0750  177.5600  142.6640 C   0  0  0  0  0  2  0  0  0  0  0  0
  190.8310  175.2430  143.0630 O   0  0  0  0  0  0  0  0  0  0  0  0
  190.3950  176.3650  143.2720 C   0  0  0  0  0  0  0  0  0  0  0  0
  186.5610  178.0600  144.8420 N   0  0  0  0  0  2  0  0  0  0  0  0
  188.8720  177.1490  146.5850 C   0  0  0  0  0  2  0  0  0  0  0  0
  187.8100  178.1730  146.9500 C   0  0  1  0  0  3  0  0  0  0  0  0
  189.5740  177.5270  145.2970 C   0  0  0  0  0  2  0  0  0  0  0  0
  189.2340  176.5290  144.1980 C   0  0  1  0  0  3  0  0  0  0  0  0
  187.9910  176.9540  143.4260 C   0  0  0  0  0  2  0  0  0  0  0  0
  186.8050  176.8080  144.2540 N   0  0  0  0  0  2  0  0  0  0  0  0
  186.4740  177.8500  146.2780 C   0  0  1  0  0  3  0  0  0  0  0  0
  187.6640  178.1740  148.3250 F   0  0  0  0  0  0  0  0  0  0  0  0
  184.1780  178.4980  146.5090 O   0  0  0  0  0  0  0  0  0  0  0  0
  185.6900  179.7340  147.7080 O   0  0  0  0  0  1  0  0  0  0  0  0
  185.3780  178.7020  146.8340 C   0  0  0  0  0  0  0  0  0  0  0  0
  189.0590  176.0010  136.0010 N   0  0  0  0  0  2  0  0  0  0  0  0
  190.2870  176.5400  135.4330 C   0  0  0  0  0  2  0  0  0  0  0  0
  190.8600  174.2420  135.1410 O   0  0  0  0  0  0  0  0  0  0  0  0
  191.2610  175.4400  135.1800 C   0  0  0  0  0  0  0  0  0  0  0  0
  192.6040  175.7570  134.9630 O   0  0  0  0  0  0  0  0  0  0  0  0
  193.6340  174.7780  135.0130 C   0  0  0  0  0  2  0  0  0  0  0  0
  194.2240  174.7780  136.2760 O   0  0  0  0  0  0  0  0  0  0  0  0
  195.4520  174.2450  136.0750 N   0  0  0  0  0  2  0  0  0  0  0  0
  198.5440  173.8810  136.5260 C   0  0  1  0  0  3  0  0  0  0  0  0
  197.5670  174.9140  137.1190 C   0  0  2  0  0  3  0  0  0  0  0  0
  194.9790  172.2940  138.0460 N   0  0  0  0  0  1  0  0  0  0  0  0
  198.0710  175.3930  138.3300 O   0  0  0  0  0  1  0  0  0  0  0  0
  197.2620  172.0810  137.1980 C   0  0  0  0  0  2  0  0  0  0  0  0
  198.5510  172.6520  137.2340 O   0  0  0  0  0  0  0  0  0  0  0  0
  196.1700  174.3230  137.3420 C   0  0  2  0  0  3  0  0  0  0  0  0
  196.2800  172.9410  137.9890 C   0  0  1  0  0  3  0  0  0  0  0  0
  198.3710  173.6940  135.0220 C   0  0  0  0  0  1  0  0  0  0  0  0
  186.6250  179.0880  140.8310 C   0  0  0  0  0  2  0  0  0  0  0  0
  185.4060  178.9840  139.9360 C   0  0  0  0  0  2  0  0  0  0  0  0
  180.5060  176.5210  139.8880 N   0  0  0  0  0  0  0  0  0  0  0  0
  180.6950  177.5220  140.6940 C   0  0  0  0  0  0  0  0  0  0  0  0
  183.0180  177.7170  138.7980 C   0  0  0  0  0  3  0  0  0  0  0  0
  179.5180  178.1170  141.3820 C   0  0  0  0  0  1  0  0  0  0  0  0
  184.2220  178.7490  140.7440 N   0  0  0  0  0  2  0  0  0  0  0  0
  182.0020  178.0380  141.0040 N   0  0  0  0  0  0  0  0  0  0  0  0
  181.5770  175.7640  139.2420 C   0  0  2  0  0  3  0  0  0  0  0  0
  183.0440  178.1270  140.2230 C   0  0  0  0  0  0  0  0  0  0  0  0
  182.3400  176.6740  138.3310 C   0  0  0  0  0  3  0  0  0  0  0  0
  181.3950  174.7800  137.0810 C   0  0  0  0  0  2  0  0  0  0  0  0
  179.5680  174.7200  138.5420 C   0  0  0  0  0  2  0  0  0  0  0  0
  179.1640  173.1340  136.7760 O   0  0  0  0  0  0  0  0  0  0  0  0
  181.0300  174.6290  138.4910 N   0  0  2  0  0  0  0  0  0  0  0  0
  181.5350  173.4160  136.3980 C   0  0  0  0  0  2  0  0  0  0  0  0
  180.3900  172.4570  136.7390 C   0  0  0  0  0  2  0  0  0  0  0  0
  178.9310  173.3930  138.1340 C   0  0  0  0  0  2  0  0  0  0  0  0
  1  3  1  1  0  0  0
  3  6  1  0  0  0  0
  4  7  1  1  0  0  0
  4  1  1  0  0  0  0
  5 28  1  6  0  0  0
  5  4  1  0  0  0  0
  5  1  1  0  0  0  0
  6 45  1  0  0  0  0
  6  2  2  0  0  0  0
  7  3  1  0  0  0  0
  8  9  1  0  0  0  0
  9 12  1  0  0  0  0
 10  8  2  0  0  0  0
 10 11  1  0  0  0  0
 11  2  1  0  0  0  0
 11 12  2  0  0  0  0
 12 13  1  0  0  0  0
 13 15  1  0  0  0  0
 14 15  2  0  0  0  0
 16 23  1  0  0  0  0
 17 18  1  0  0  0  0
 18 24  1  1  0  0  0
 19 17  1  0  0  0  0
 20 15  1  6  0  0  0
 20 19  1  0  0  0  0
 21 20  1  0  0  0  0
 21 22  1  0  0  0  0
 22 16  1  0  0  0  0
 23 27  1  1  0  0  0
 23 18  1  0  0  0  0
 25 27  2  0  0  0  0
 27 26  1  0  0  0  0
 29 28  1  0  0  0  0
 30 31  2  0  0  0  0
 31 29  1  0  0  0  0
 32 33  1  0  0  0  0
 32 31  1  0  0  0  0
 33 34  1  0  0  0  0
 35 34  1  0  0  0  0
 36 44  1  6  0  0  0
 36 37  1  0  0  0  0
 36 41  1  0  0  0  0
 37 42  1  0  0  0  0
 37 39  1  1  0  0  0
 40 41  1  0  0  0  0
 40 43  1  0  0  0  0
 42 35  1  6  0  0  0
 42 43  1  0  0  0  0
 43 38  1  6  0  0  0
 46 51  1  0  0  0  0
 46 45  1  0  0  0  0
 47 48  2  0  0  0  0
 48 52  1  0  0  0  0
 48 50  1  0  0  0  0
 49 54  1  0  0  0  0
 53 55  1  6  0  0  0
 53 47  1  0  0  0  0
 54 51  1  0  0  0  0
 54 52  2  0  0  0  0
 55 49  2  0  0  0  0
 58 62  1  0  0  0  0
 59 56  1  6  0  0  0
 59 57  1  0  0  0  0
 59 53  1  0  0  0  0
 60 61  1  0  0  0  0
 60 56  1  0  0  0  0
 61 58  1  0  0  0  0
 62 57  1  0  0  0  0
M  END
>  <MODEL>
6

>  <REMARK>
 VINA RESULT:      -5.9      2.857      5.989
  Name = 
  17 active torsions:
  status: ('A' for Active; 'I' for Inactive)
    1  A    between atoms: C_2  and  N_37
    2  A    between atoms: C_2  and  C_50
    3  A    between atoms: C_5  and  N_18
    4  A    between atoms: C_5  and  C_27
    5  A    between atoms: N_17  and  C_41
    6  A    between atoms: C_22  and  C_33
    7  A    between atoms: C_22  and  C_36
    8  A    between atoms: N_24  and  C_48
    9  A    between atoms: N_24  and  O_53
   10  A    between atoms: C_27  and  C_55
   11  A    between atoms: C_31  and  N_44
   12  A    between atoms: C_33  and  C_57
   13  A    between atoms: N_37  and  C_54
   14  A    between atoms: C_45  and  O_47
   15  A    between atoms: C_45  and  O_53
   16  A    between atoms: O_47  and  C_50
   17  A    between atoms: C_56  and  C_61
                            x       y       z     vdW  Elec       q    Type
                         _______ _______ _______ _____ _____    ______ ____

>  <TORSDO>
F 17

$$$$
=
 OpenBabel11032419483D

 62 68  0  0  1  0  0  0  0  0999 V2000
  191.2620  174.8900  137.2220 C   0  0  1  0  0  3  0  0  0  0  0  0
  188.2860  174.8570  135.9030 N   0  0  0  0  0  0  0  0  0  0  0  0
  190.4470  173.9540  136.4270 N   0  0  0  0  0  0  0  0  0  0  0  0
  192.3820  173.9520  137.2690 C   0  0  2  0  0  3  0  0  0  0  0  0
  192.5370  175.2310  136.4810 C   0  0  2  0  0  3  0  0  0  0  0  0
  189.1040  173.8450  135.9370 C   0  0  0  0  0  0  0  0  0  0  0  0
  191.5490  173.0580  136.5280 N   0  0  0  0  0  2  0  0  0  0  0  0
  189.4380  178.4120  135.8390 N   0  0  0  0  0  0  0  0  0  0  0  0
  188.3340  178.4110  136.8010 C   0  0  0  0  0  2  0  0  0  0  0  0
  189.5550  177.0380  135.3440 C   0  0  0  0  0  3  0  0  0  0  0  0
  188.6050  176.2320  136.1430 C   0  0  0  0  0  0  0  0  0  0  0  0
  187.8900  177.0060  136.9180 C   0  0  0  0  0  0  0  0  0  0  0  0
  186.7190  176.5510  137.7290 C   0  0  0  0  0  2  0  0  0  0  0  0
  185.1090  177.1670  136.1120 O   0  0  0  0  0  0  0  0  0  0  0  0
  185.4520  177.2250  137.2830 C   0  0  0  0  0  0  0  0  0  0  0  0
  184.0910  178.7900  141.2500 N   0  0  0  0  0  2  0  0  0  0  0  0
  182.2480  177.6000  139.1540 C   0  0  0  0  0  2  0  0  0  0  0  0
  181.9970  177.6620  140.6510 C   0  0  1  0  0  3  0  0  0  0  0  0
  183.5630  176.9120  138.8500 C   0  0  0  0  0  2  0  0  0  0  0  0
  184.5560  177.9070  138.2660 C   0  0  1  0  0  3  0  0  0  0  0  0
  185.3760  178.5810  139.3590 C   0  0  0  0  0  2  0  0  0  0  0  0
  184.5460  179.4960  140.1240 N   0  0  0  0  0  2  0  0  0  0  0  0
  182.6410  178.9030  141.2700 C   0  0  1  0  0  3  0  0  0  0  0  0
  180.6300  177.6800  140.8610 F   0  0  0  0  0  0  0  0  0  0  0  0
  181.0030  179.4630  142.9300 O   0  0  0  0  0  0  0  0  0  0  0  0
  183.0710  178.8740  143.7240 O   0  0  0  0  0  1  0  0  0  0  0  0
  182.1830  179.0950  142.6810 C   0  0  0  0  0  0  0  0  0  0  0  0
  193.3110  176.1860  137.2580 N   0  0  0  0  0  2  0  0  0  0  0  0
  192.4340  176.7290  138.2870 C   0  0  0  0  0  2  0  0  0  0  0  0
  194.3200  176.3780  139.7050 O   0  0  0  0  0  0  0  0  0  0  0  0
  193.1900  176.9240  139.5560 C   0  0  0  0  0  0  0  0  0  0  0  0
  192.6440  177.7320  140.5560 O   0  0  0  0  0  0  0  0  0  0  0  0
  191.3110  177.5670  141.0240 C   0  0  0  0  0  2  0  0  0  0  0  0
  191.3000  176.7160  142.1270 O   0  0  0  0  0  0  0  0  0  0  0  0
  190.0110  176.7190  142.5430 N   0  0  0  0  0  2  0  0  0  0  0  0
  191.1240  177.6040  145.3490 C   0  0  1  0  0  3  0  0  0  0  0  0
  191.0170  178.3900  144.0290 C   0  0  2  0  0  3  0  0  0  0  0  0
  187.4150  177.3500  143.4220 N   0  0  0  0  0  1  0  0  0  0  0  0
  190.9730  179.7590  144.3010 O   0  0  0  0  0  1  0  0  0  0  0  0
  188.8870  177.0280  145.3470 C   0  0  0  0  0  2  0  0  0  0  0  0
  189.9230  177.6160  146.1020 O   0  0  0  0  0  0  0  0  0  0  0  0
  189.7770  177.9890  143.2200 C   0  0  2  0  0  3  0  0  0  0  0  0
  188.5560  177.8970  144.1370 C   0  0  1  0  0  3  0  0  0  0  0  0
  191.6880  176.2000  145.1600 C   0  0  0  0  0  1  0  0  0  0  0  0
  188.5780  172.4930  135.6000 C   0  0  0  0  0  2  0  0  0  0  0  0
  187.3830  172.1780  136.4770 C   0  0  0  0  0  2  0  0  0  0  0  0
  181.9650  171.9410  135.6650 N   0  0  0  0  0  0  0  0  0  0  0  0
  182.6900  170.9090  135.3540 C   0  0  0  0  0  0  0  0  0  0  0  0
  184.5330  172.5550  137.0610 C   0  0  0  0  0  3  0  0  0  0  0  0
  182.0060  169.6280  135.0300 C   0  0  0  0  0  1  0  0  0  0  0  0
  186.3590  171.5100  135.6930 N   0  0  0  0  0  2  0  0  0  0  0  0
  184.1230  170.9680  135.2420 N   0  0  0  0  0  0  0  0  0  0  0  0
  182.4910  173.2870  135.8860 C   0  0  2  0  0  3  0  0  0  0  0  0
  184.9620  171.6770  135.9450 C   0  0  0  0  0  0  0  0  0  0  0  0
  183.4110  173.2650  137.0670 C   0  0  0  0  0  3  0  0  0  0  0  0
  181.9610  175.5920  136.1580 C   0  0  0  0  0  2  0  0  0  0  0  0
  180.8370  173.9840  137.4340 C   0  0  0  0  0  2  0  0  0  0  0  0
  179.6050  176.0470  137.5810 O   0  0  0  0  0  0  0  0  0  0  0  0
  181.3980  174.2420  136.1050 N   0  0  2  0  0  0  0  0  0  0  0  0
  180.9500  176.6300  135.6580 C   0  0  0  0  0  2  0  0  0  0  0  0
  179.5450  176.4200  136.2320 C   0  0  0  0  0  2  0  0  0  0  0  0
  179.4720  174.6520  137.5820 C   0  0  0  0  0  2  0  0  0  0  0  0
  1  3  1  6  0  0  0
  1  4  1  0  0  0  0
  2  6  2  0  0  0  0
  2 11  1  0  0  0  0
  3  7  1  0  0  0  0
  4  7  1  6  0  0  0
  5  1  1  0  0  0  0
  5 28  1  1  0  0  0
  5  4  1  0  0  0  0
  6  3  1  0  0  0  0
  8  9  1  0  0  0  0
  9 12  1  0  0  0  0
 10  8  2  0  0  0  0
 10 11  1  0  0  0  0
 11 12  2  0  0  0  0
 12 13  1  0  0  0  0
 14 15  2  0  0  0  0
 15 13  1  0  0  0  0
 16 23  1  0  0  0  0
 17 18  1  0  0  0  0
 18 24  1  6  0  0  0
 18 23  1  0  0  0  0
 19 17  1  0  0  0  0
 20 15  1  6  0  0  0
 20 19  1  0  0  0  0
 20 21  1  0  0  0  0
 21 22  1  0  0  0  0
 22 16  1  0  0  0  0
 23 27  1  1  0  0  0
 27 25  2  0  0  0  0
 27 26  1  0  0  0  0
 28 29  1  0  0  0  0
 29 31  1  0  0  0  0
 31 30  2  0  0  0  0
 31 32  1  0  0  0  0
 32 33  1  0  0  0  0
 33 34  1  0  0  0  0
 34 35  1  0  0  0  0
 36 44  1  6  0  0  0
 36 41  1  0  0  0  0
 37 39  1  1  0  0  0
 37 36  1  0  0  0  0
 40 41  1  0  0  0  0
 42 35  1  1  0  0  0
 42 37  1  0  0  0  0
 42 43  1  0  0  0  0
 43 38  1  6  0  0  0
 43 40  1  0  0  0  0
 45  6  1  0  0  0  0
 45 46  1  0  0  0  0
 47 53  1  0  0  0  0
 48 47  2  0  0  0  0
 49 55  2  0  0  0  0
 50 48  1  0  0  0  0
 51 54  1  0  0  0  0
 51 46  1  0  0  0  0
 52 48  1  0  0  0  0
 52 54  2  0  0  0  0
 53 59  1  0  0  0  0
 53 55  1  1  0  0  0
 54 49  1  0  0  0  0
 57 62  1  0  0  0  0
 58 62  1  0  0  0  0
 59 56  1  1  0  0  0
 59 57  1  0  0  0  0
 60 56  1  0  0  0  0
 60 61  1  0  0  0  0
 61 58  1  0  0  0  0
M  END
>  <MODEL>
7

>  <REMARK>
 VINA RESULT:      -5.8      2.292      3.466
  Name = 
  17 active torsions:
  status: ('A' for Active; 'I' for Inactive)
    1  A    between atoms: C_2  and  N_37
    2  A    between atoms: C_2  and  C_50
    3  A    between atoms: C_5  and  N_18
    4  A    between atoms: C_5  and  C_27
    5  A    between atoms: N_17  and  C_41
    6  A    between atoms: C_22  and  C_33
    7  A    between atoms: C_22  and  C_36
    8  A    between atoms: N_24  and  C_48
    9  A    between atoms: N_24  and  O_53
   10  A    between atoms: C_27  and  C_55
   11  A    between atoms: C_31  and  N_44
   12  A    between atoms: C_33  and  C_57
   13  A    between atoms: N_37  and  C_54
   14  A    between atoms: C_45  and  O_47
   15  A    between atoms: C_45  and  O_53
   16  A    between atoms: O_47  and  C_50
   17  A    between atoms: C_56  and  C_61
                            x       y       z     vdW  Elec       q    Type
                         _______ _______ _______ _____ _____    ______ ____

>  <TORSDO>
F 17

$$$$
=
 OpenBabel11032419483D

 62 68  0  0  1  0  0  0  0  0999 V2000
  189.0630  176.3360  138.0240 C   0  0  1  0  0  3  0  0  0  0  0  0
  188.1070  174.5960  135.4440 N   0  0  0  0  0  0  0  0  0  0  0  0
  189.5800  175.2000  137.2390 N   0  0  0  0  0  0  0  0  0  0  0  0
  190.2230  176.3160  138.9110 C   0  0  2  0  0  3  0  0  0  0  0  0
  190.0420  177.4900  137.9790 C   0  0  2  0  0  3  0  0  0  0  0  0
  189.1410  174.3300  136.1890 C   0  0  0  0  0  0  0  0  0  0  0  0
  190.6750  175.1950  138.1500 N   0  0  0  0  0  2  0  0  0  0  0  0
  186.6310  177.9520  134.7200 N   0  0  0  0  0  0  0  0  0  0  0  0
  185.5790  177.2500  135.4590 C   0  0  0  0  0  2  0  0  0  0  0  0
  187.7460  177.0100  134.5940 C   0  0  0  0  0  3  0  0  0  0  0  0
  187.3710  175.8230  135.3970 C   0  0  0  0  0  0  0  0  0  0  0  0
  186.1440  175.9380  135.8340 C   0  0  0  0  0  0  0  0  0  0  0  0
  185.3830  174.8530  136.5270 C   0  0  0  0  0  2  0  0  0  0  0  0
  183.5980  174.1270  135.1580 O   0  0  0  0  0  0  0  0  0  0  0  0
  183.9450  174.8340  136.0920 C   0  0  0  0  0  0  0  0  0  0  0  0
  181.6640  178.4310  137.4720 N   0  0  0  0  0  2  0  0  0  0  0  0
  182.2860  176.0250  139.2130 C   0  0  0  0  0  2  0  0  0  0  0  0
  182.0120  177.4410  139.6900 C   0  0  1  0  0  3  0  0  0  0  0  0
  183.4240  175.9980  138.2140 C   0  0  0  0  0  2  0  0  0  0  0  0
  182.9060  175.6110  136.8350 C   0  0  1  0  0  3  0  0  0  0  0  0
  182.4800  176.8360  136.0360 C   0  0  0  0  0  2  0  0  0  0  0  0
  181.2670  177.4080  136.5940 N   0  0  0  0  0  2  0  0  0  0  0  0
  181.0360  178.1600  138.7560 C   0  0  1  0  0  3  0  0  0  0  0  0
  181.4860  177.3750  140.9670 F   0  0  0  0  0  0  0  0  0  0  0  0
  181.3630  180.4260  139.4690 O   0  0  0  0  0  0  0  0  0  0  0  0
  179.2650  179.5650  139.8050 O   0  0  0  0  0  1  0  0  0  0  0  0
  180.5740  179.4490  139.3570 C   0  0  0  0  0  0  0  0  0  0  0  0
  189.5000  178.6170  138.7210 N   0  0  0  0  0  2  0  0  0  0  0  0
  188.1890  178.9210  138.1640 C   0  0  0  0  0  2  0  0  0  0  0  0
  186.0330  178.1150  138.7910 O   0  0  0  0  0  0  0  0  0  0  0  0
  187.1250  178.6300  139.1660 C   0  0  0  0  0  0  0  0  0  0  0  0
  187.3640  178.9110  140.5130 O   0  0  0  0  0  0  0  0  0  0  0  0
  187.6650  177.8930  141.4600 C   0  0  0  0  0  2  0  0  0  0  0  0
  188.8560  178.1970  142.1160 O   0  0  0  0  0  0  0  0  0  0  0  0
  188.6760  177.7340  143.3760 N   0  0  0  0  0  2  0  0  0  0  0  0
  191.6380  177.0010  144.1370 C   0  0  1  0  0  3  0  0  0  0  0  0
  191.0170  178.3570  143.7530 C   0  0  2  0  0  3  0  0  0  0  0  0
  188.0710  177.9490  146.1150 N   0  0  0  0  0  1  0  0  0  0  0  0
  191.7870  179.3930  144.2860 O   0  0  0  0  0  1  0  0  0  0  0  0
  190.0970  176.6150  145.8140 C   0  0  0  0  0  2  0  0  0  0  0  0
  191.4730  176.6820  145.5080 O   0  0  0  0  0  0  0  0  0  0  0  0
  189.5710  178.4870  144.2470 C   0  0  2  0  0  3  0  0  0  0  0  0
  189.4600  177.9970  145.6910 C   0  0  1  0  0  3  0  0  0  0  0  0
  191.2090  175.8670  143.2120 C   0  0  0  0  0  1  0  0  0  0  0  0
  189.7980  173.0020  136.0450 C   0  0  0  0  0  2  0  0  0  0  0  0
  190.9790  173.1180  135.1020 C   0  0  0  0  0  2  0  0  0  0  0  0
  196.0700  171.8860  136.7280 N   0  0  0  0  0  0  0  0  0  0  0  0
  195.4420  171.0540  135.9520 C   0  0  0  0  0  0  0  0  0  0  0  0
  193.8080  173.5650  135.7330 C   0  0  0  0  0  3  0  0  0  0  0  0
  196.2070  169.9360  135.3370 C   0  0  0  0  0  1  0  0  0  0  0  0
  191.8880  172.0050  135.3130 N   0  0  0  0  0  2  0  0  0  0  0  0
  194.0250  171.1260  135.7150 N   0  0  0  0  0  0  0  0  0  0  0  0
  195.4260  172.9520  137.4930 C   0  0  2  0  0  3  0  0  0  0  0  0
  193.2710  172.1870  135.6290 C   0  0  0  0  0  0  0  0  0  0  0  0
  194.7970  173.9240  136.5440 C   0  0  0  0  0  3  0  0  0  0  0  0
  195.7680  174.8290  138.9170 C   0  0  0  0  0  2  0  0  0  0  0  0
  197.4920  174.1120  137.5060 C   0  0  0  0  0  2  0  0  0  0  0  0
  198.4400  175.5960  139.1470 O   0  0  0  0  0  0  0  0  0  0  0  0
  196.3980  173.6330  138.3550 N   0  0  2  0  0  0  0  0  0  0  0  0
  196.3550  175.1660  140.2920 C   0  0  0  0  0  2  0  0  0  0  0  0
  197.8840  175.0820  140.3260 C   0  0  0  0  0  2  0  0  0  0  0  0
  198.7110  174.4750  138.3510 C   0  0  0  0  0  2  0  0  0  0  0  0
  1  3  1  6  0  0  0
  1  4  1  0  0  0  0
  2  6  2  0  0  0  0
  3  7  1  0  0  0  0
  4  7  1  6  0  0  0
  5  1  1  0  0  0  0
  5 28  1  1  0  0  0
  5  4  1  0  0  0  0
  6  3  1  0  0  0  0
  8  9  1  0  0  0  0
  9 12  1  0  0  0  0
 10  8  2  0  0  0  0
 10 11  1  0  0  0  0
 11  2  1  0  0  0  0
 11 12  2  0  0  0  0
 12 13  1  0  0  0  0
 14 15  2  0  0  0  0
 15 13  1  0  0  0  0
 16 23  1  0  0  0  0
 17 18  1  0  0  0  0
 18 24  1  1  0  0  0
 19 17  1  0  0  0  0
 20 15  1  6  0  0  0
 20 19  1  0  0  0  0
 21 22  1  0  0  0  0
 21 20  1  0  0  0  0
 22 16  1  0  0  0  0
 23 27  1  1  0  0  0
 23 18  1  0  0  0  0
 27 25  2  0  0  0  0
 27 26  1  0  0  0  0
 29 28  1  0  0  0  0
 29 31  1  0  0  0  0
 30 31  2  0  0  0  0
 31 32  1  0  0  0  0
 32 33  1  0  0  0  0
 33 34  1  0  0  0  0
 34 35  1  0  0  0  0
 36 44  1  6  0  0  0
 36 41  1  0  0  0  0
 37 36  1  0  0  0  0
 37 42  1  0  0  0  0
 37 39  1  1  0  0  0
 41 40  1  0  0  0  0
 42 35  1  6  0  0  0
 42 43  1  0  0  0  0
 43 40  1  0  0  0  0
 43 38  1  6  0  0  0
 45  6  1  0  0  0  0
 46 51  1  0  0  0  0
 46 45  1  0  0  0  0
 47 53  1  0  0  0  0
 48 47  2  0  0  0  0
 49 55  2  0  0  0  0
 50 48  1  0  0  0  0
 51 54  1  0  0  0  0
 52 48  1  0  0  0  0
 53 55  1  6  0  0  0
 53 59  1  0  0  0  0
 54 52  2  0  0  0  0
 54 49  1  0  0  0  0
 56 60  1  0  0  0  0
 57 62  1  0  0  0  0
 58 61  1  0  0  0  0
 59 57  1  6  0  0  0
 59 56  1  0  0  0  0
 60 61  1  0  0  0  0
 62 58  1  0  0  0  0
M  END
>  <MODEL>
8

>  <REMARK>
 VINA RESULT:      -5.7      3.053      8.917
  Name = 
  17 active torsions:
  status: ('A' for Active; 'I' for Inactive)
    1  A    between atoms: C_2  and  N_37
    2  A    between atoms: C_2  and  C_50
    3  A    between atoms: C_5  and  N_18
    4  A    between atoms: C_5  and  C_27
    5  A    between atoms: N_17  and  C_41
    6  A    between atoms: C_22  and  C_33
    7  A    between atoms: C_22  and  C_36
    8  A    between atoms: N_24  and  C_48
    9  A    between atoms: N_24  and  O_53
   10  A    between atoms: C_27  and  C_55
   11  A    between atoms: C_31  and  N_44
   12  A    between atoms: C_33  and  C_57
   13  A    between atoms: N_37  and  C_54
   14  A    between atoms: C_45  and  O_47
   15  A    between atoms: C_45  and  O_53
   16  A    between atoms: O_47  and  C_50
   17  A    between atoms: C_56  and  C_61
                            x       y       z     vdW  Elec       q    Type
                         _______ _______ _______ _____ _____    ______ ____

>  <TORSDO>
F 17

$$$$
=
 OpenBabel11032419483D

 62 68  0  0  1  0  0  0  0  0999 V2000
  189.5670  174.2250  137.0390 C   0  0  1  0  0  3  0  0  0  0  0  0
  190.0020  177.3650  137.7810 N   0  0  0  0  0  0  0  0  0  0  0  0
  188.7940  175.4760  136.9280 N   0  0  0  0  0  0  0  0  0  0  0  0
  188.4890  173.4470  136.4340 C   0  0  2  0  0  3  0  0  0  0  0  0
  189.7790  173.6190  135.6680 C   0  0  2  0  0  3  0  0  0  0  0  0
  188.8920  176.8420  137.3500 C   0  0  0  0  0  0  0  0  0  0  0  0
  187.7570  174.6720  136.3750 N   0  0  0  0  0  2  0  0  0  0  0  0
  193.3380  175.9250  136.9040 N   0  0  0  0  0  0  0  0  0  0  0  0
  193.4900  176.3600  138.2940 C   0  0  0  0  0  2  0  0  0  0  0  0
  191.9720  176.2760  136.5090 C   0  0  0  0  0  3  0  0  0  0  0  0
  191.3080  176.7790  137.7340 C   0  0  0  0  0  0  0  0  0  0  0  0
  192.1690  176.8720  138.7130 C   0  0  0  0  0  0  0  0  0  0  0  0
  191.8850  177.5050  140.0380 C   0  0  0  0  0  2  0  0  0  0  0  0
  190.3940  175.6980  140.3510 O   0  0  0  0  0  0  0  0  0  0  0  0
  190.7900  176.7770  140.7650 C   0  0  0  0  0  0  0  0  0  0  0  0
  190.3940  177.3960  145.1810 N   0  0  0  0  0  2  0  0  0  0  0  0
  188.0520  177.2180  143.2590 C   0  0  0  0  0  2  0  0  0  0  0  0
  188.0310  176.9040  144.7460 C   0  0  1  0  0  3  0  0  0  0  0  0
  189.1130  176.4040  142.5460 C   0  0  0  0  0  2  0  0  0  0  0  0
  190.2240  177.3140  142.0400 C   0  0  1  0  0  3  0  0  0  0  0  0
  191.3220  177.4840  143.0820 C   0  0  0  0  0  2  0  0  0  0  0  0
  190.8440  178.2890  144.1940 N   0  0  0  0  0  2  0  0  0  0  0  0
  189.0290  177.7740  145.5110 C   0  0  1  0  0  3  0  0  0  0  0  0
  186.7480  177.1240  145.2170 F   0  0  0  0  0  0  0  0  0  0  0  0
  189.7180  177.1330  147.7160 O   0  0  0  0  0  1  0  0  0  0  0  0
  187.6410  178.0890  147.5570 O   0  0  0  0  0  0  0  0  0  0  0  0
  188.8270  177.6460  146.9870 C   0  0  0  0  0  0  0  0  0  0  0  0
  190.5780  172.4100  135.7900 N   0  0  0  0  0  2  0  0  0  0  0  0
  191.9130  172.7140  135.2920 C   0  0  0  0  0  2  0  0  0  0  0  0
  192.3690  170.3870  135.0250 O   0  0  0  0  0  0  0  0  0  0  0  0
  192.7900  171.5140  135.4120 C   0  0  0  0  0  0  0  0  0  0  0  0
  194.0790  171.6630  135.9290 O   0  0  0  0  0  0  0  0  0  0  0  0
  194.9510  170.5580  136.1280 C   0  0  0  0  0  2  0  0  0  0  0  0
  196.0580  170.9580  136.8740 O   0  0  0  0  0  0  0  0  0  0  0  0
  196.4050  172.1560  136.3480 N   0  0  0  0  0  2  0  0  0  0  0  0
  197.0490  175.2350  136.3590 C   0  0  1  0  0  3  0  0  0  0  0  0
  196.5170  174.3270  137.4830 C   0  0  2  0  0  3  0  0  0  0  0  0
  199.1190  171.6310  136.8650 N   0  0  0  0  0  1  0  0  0  0  0  0
  196.8350  174.8820  138.7240 O   0  0  0  0  0  1  0  0  0  0  0  0
  198.8710  173.8790  135.9390 C   0  0  0  0  0  2  0  0  0  0  0  0
  198.4610  175.1960  136.2340 O   0  0  0  0  0  0  0  0  0  0  0  0
  197.0890  172.9070  137.3950 C   0  0  2  0  0  3  0  0  0  0  0  0
  198.5940  172.9610  137.1260 C   0  0  1  0  0  3  0  0  0  0  0  0
  196.3330  175.0180  135.0300 C   0  0  0  0  0  1  0  0  0  0  0  0
  187.6420  177.6480  137.4440 C   0  0  0  0  0  2  0  0  0  0  0  0
  187.1730  178.0240  136.0530 C   0  0  0  0  0  2  0  0  0  0  0  0
  182.0570  176.9460  137.7070 N   0  0  0  0  0  0  0  0  0  0  0  0
  182.6660  176.0810  136.9510 C   0  0  0  0  0  0  0  0  0  0  0  0
  184.8950  177.8620  137.8920 C   0  0  0  0  0  3  0  0  0  0  0  0
  182.0560  174.7360  136.7720 C   0  0  0  0  0  1  0  0  0  0  0  0
  185.9840  177.2630  135.7120 N   0  0  0  0  0  2  0  0  0  0  0  0
  183.8680  176.3910  136.2240 N   0  0  0  0  0  0  0  0  0  0  0  0
  182.4730  178.3360  137.8750 C   0  0  2  0  0  3  0  0  0  0  0  0
  184.8530  177.1690  136.5820 C   0  0  0  0  0  0  0  0  0  0  0  0
  183.8300  178.3690  138.5050 C   0  0  0  0  0  3  0  0  0  0  0  0
  181.8040  180.5010  138.6070 C   0  0  0  0  0  2  0  0  0  0  0  0
  181.7390  178.6990  140.0990 C   0  0  0  0  0  2  0  0  0  0  0  0
  180.4480  180.4970  141.0450 O   0  0  0  0  0  0  0  0  0  0  0  0
  181.5070  179.0710  138.7010 N   0  0  2  0  0  0  0  0  0  0  0  0
  180.5340  181.3400  138.7810 C   0  0  0  0  0  2  0  0  0  0  0  0
  179.6600  180.8680  139.9480 C   0  0  0  0  0  2  0  0  0  0  0  0
  180.5500  179.1020  140.9680 C   0  0  0  0  0  2  0  0  0  0  0  0
  1  3  1  6  0  0  0
  3  6  1  0  0  0  0
  4  7  1  6  0  0  0
  4  1  1  0  0  0  0
  5 28  1  1  0  0  0
  5  4  1  0  0  0  0
  5  1  1  0  0  0  0
  6 45  1  0  0  0  0
  6  2  2  0  0  0  0
  7  3  1  0  0  0  0
  8  9  1  0  0  0  0
  9 12  1  0  0  0  0
 10  8  2  0  0  0  0
 10 11  1  0  0  0  0
 11  2  1  0  0  0  0
 11 12  2  0  0  0  0
 12 13  1  0  0  0  0
 13 15  1  0  0  0  0
 14 15  2  0  0  0  0
 16 23  1  0  0  0  0
 17 18  1  0  0  0  0
 18 24  1  1  0  0  0
 18 23  1  0  0  0  0
 19 17  1  0  0  0  0
 20 15  1  6  0  0  0
 20 19  1  0  0  0  0
 20 21  1  0  0  0  0
 21 22  1  0  0  0  0
 22 16  1  0  0  0  0
 23 27  1  1  0  0  0
 27 26  2  0  0  0  0
 27 25  1  0  0  0  0
 29 31  1  0  0  0  0
 29 28  1  0  0  0  0
 30 31  2  0  0  0  0
 31 32  1  0  0  0  0
 32 33  1  0  0  0  0
 33 34  1  0  0  0  0
 35 34  1  0  0  0  0
 36 44  1  6  0  0  0
 36 37  1  0  0  0  0
 37 39  1  1  0  0  0
 40 41  1  0  0  0  0
 40 43  1  0  0  0  0
 41 36  1  0  0  0  0
 42 35  1  6  0  0  0
 42 37  1  0  0  0  0
 43 38  1  6  0  0  0
 43 42  1  0  0  0  0
 46 45  1  0  0  0  0
 47 53  1  0  0  0  0
 48 47  2  0  0  0  0
 49 55  2  0  0  0  0
 50 48  1  0  0  0  0
 51 46  1  0  0  0  0
 51 54  1  0  0  0  0
 52 54  2  0  0  0  0
 52 48  1  0  0  0  0
 53 55  1  1  0  0  0
 53 59  1  0  0  0  0
 54 49  1  0  0  0  0
 56 60  1  0  0  0  0
 57 62  1  0  0  0  0
 59 56  1  1  0  0  0
 59 57  1  0  0  0  0
 60 61  1  0  0  0  0
 61 58  1  0  0  0  0
 62 58  1  0  0  0  0
M  END
>  <MODEL>
9

>  <REMARK>
 VINA RESULT:      -5.6      3.133      5.840
  Name = 
  17 active torsions:
  status: ('A' for Active; 'I' for Inactive)
    1  A    between atoms: C_2  and  N_37
    2  A    between atoms: C_2  and  C_50
    3  A    between atoms: C_5  and  N_18
    4  A    between atoms: C_5  and  C_27
    5  A    between atoms: N_17  and  C_41
    6  A    between atoms: C_22  and  C_33
    7  A    between atoms: C_22  and  C_36
    8  A    between atoms: N_24  and  C_48
    9  A    between atoms: N_24  and  O_53
   10  A    between atoms: C_27  and  C_55
   11  A    between atoms: C_31  and  N_44
   12  A    between atoms: C_33  and  C_57
   13  A    between atoms: N_37  and  C_54
   14  A    between atoms: C_45  and  O_47
   15  A    between atoms: C_45  and  O_53
   16  A    between atoms: O_47  and  C_50
   17  A    between atoms: C_56  and  C_61
                            x       y       z     vdW  Elec       q    Type
                         _______ _______ _______ _____ _____    ______ ____

>  <TORSDO>
F 17

$$$$
