=
 OpenBabel11032421013D

 46 49  0  0  1  0  0  0  0  0999 V2000
  190.0480  177.6770  139.4070 C   0  0  2  0  0  3  0  0  0  0  0  0
  190.0020  176.3600  138.7100 C   0  0  0  0  0  3  0  0  0  0  0  0
  191.1220  175.7730  138.3180 C   0  0  0  0  0  3  0  0  0  0  0  0
  191.0720  174.5190  137.6410 N   0  0  0  0  0  2  0  0  0  0  0  0
  192.1910  173.9750  136.9350 C   0  0  0  0  0  0  0  0  0  0  0  0
  193.4530  174.5600  137.0970 C   0  0  0  0  0  3  0  0  0  0  0  0
  194.4100  172.9550  135.5540 C   0  0  0  0  0  3  0  0  0  0  0  0
  193.1520  172.3640  135.3890 C   0  0  0  0  0  3  0  0  0  0  0  0
  192.0460  172.8720  136.0780 C   0  0  0  0  0  3  0  0  0  0  0  0
  194.5600  174.0510  136.4090 C   0  0  0  0  0  3  0  0  0  0  0  0
  190.0560  177.4350  140.9040 C   0  0  0  0  0  2  0  0  0  0  0  0
  191.4840  177.3940  141.4200 C   0  0  0  0  0  2  0  0  0  0  0  0
  191.5310  176.7140  142.7060 N   0  0  0  0  0  2  0  0  0  0  0  0
  191.6190  177.4170  143.9460 C   0  0  0  0  0  0  0  0  0  0  0  0
  191.6520  178.6770  143.9720 O   0  0  0  0  0  0  0  0  0  0  0  0
  191.6260  176.6580  145.2250 C   0  0  0  0  0  2  0  0  0  0  0  0
  191.6350  177.5480  146.3000 O   0  0  0  0  0  0  0  0  0  0  0  0
  192.2510  175.5480  147.4660 C   0  0  0  0  0  1  0  0  0  0  0  0
  191.3400  176.7640  147.4190 C   0  0  2  0  0  3  0  0  0  0  0  0
  189.8640  176.3590  147.4290 C   0  0  0  0  0  2  0  0  0  0  0  0
  188.9290  177.5000  147.8210 C   0  0  0  0  0  2  0  0  0  0  0  0
  188.1150  177.9500  145.5240 C   0  0  0  0  0  1  0  0  0  0  0  0
  186.7850  178.4690  147.4230 O   0  0  0  0  0  1  0  0  0  0  0  0
  187.7030  177.5440  146.9250 C   0  0  2  0  0  3  0  0  0  0  0  0
  188.9010  178.4490  139.0620 O   0  0  0  0  0  0  0  0  0  0  0  0
  189.1760  179.0070  136.8370 O   0  0  0  0  0  0  0  0  0  0  0  0
  188.4270  178.5680  137.7510 C   0  0  0  0  0  0  0  0  0  0  0  0
  184.7850  177.8250  138.2370 C   0  0  0  0  0  0  0  0  0  0  0  0
  184.3230  177.4680  137.0380 C   0  0  0  0  0  3  0  0  0  0  0  0
  185.2330  177.4030  135.8930 C   0  0  0  0  0  0  0  0  0  0  0  0
  187.0450  178.1810  137.4480 C   0  0  0  0  0  0  0  0  0  0  0  0
  184.7960  177.0390  134.7700 O   0  0  0  0  0  0  0  0  0  0  0  0
  186.6790  177.7730  136.0390 C   0  0  0  0  0  2  0  0  0  0  0  0
  186.1620  178.1930  138.4060 N   0  0  0  0  0  0  0  0  0  0  0  0
  184.3620  178.8590  140.4260 C   0  0  1  0  0  3  0  0  0  0  0  0
  183.8310  177.9700  139.3940 C   0  0  1  0  0  3  0  0  0  0  0  0
  183.2840  179.3410  139.5510 N   0  0  0  0  0  0  0  0  0  0  0  0
  183.8670  180.2180  138.6990 F   0  0  0  0  0  0  0  0  0  0  0  0
  183.8060  178.4830  141.7160 N   0  0  0  0  0  2  0  0  0  0  0  0
  186.0300  179.4270  142.2380 C   0  0  0  0  0  2  0  0  0  0  0  0
  186.1510  177.9180  142.4290 C   0  0  0  0  0  2  0  0  0  0  0  0
  184.8460  178.6250  142.7300 C   0  0  0  0  0  0  0  0  0  0  0  0
  184.9320  177.8420  144.9890 F   0  0  0  0  0  0  0  0  0  0  0  0
  182.9270  178.8980  144.3180 C   0  0  0  0  0  1  0  0  0  0  0  0
  184.9530  180.0670  144.6590 F   0  0  0  0  0  0  0  0  0  0  0  0
  184.4410  178.8650  144.1950 C   0  0  0  0  0  0  0  0  0  0  0  0
  1  2  1  6  0  0  0
  1 11  1  0  0  0  0
  3  2  2  0  0  0  0
  4  3  1  0  0  0  0
  5  6  1  0  0  0  0
  5  4  1  0  0  0  0
  7 10  1  0  0  0  0
  8  7  2  0  0  0  0
  8  9  1  0  0  0  0
  9  5  2  0  0  0  0
 10  6  2  0  0  0  0
 11 12  1  0  0  0  0
 12 13  1  0  0  0  0
 13 14  1  0  0  0  0
 14 15  2  0  0  0  0
 14 16  1  0  0  0  0
 16 17  1  0  0  0  0
 17 19  1  0  0  0  0
 19 20  1  0  0  0  0
 19 18  1  6  0  0  0
 20 21  1  0  0  0  0
 24 22  1  6  0  0  0
 24 23  1  0  0  0  0
 24 21  1  0  0  0  0
 25  1  1  0  0  0  0
 26 27  2  0  0  0  0
 27 25  1  0  0  0  0
 28 34  1  0  0  0  0
 29 28  2  0  0  0  0
 30 33  1  0  0  0  0
 30 29  1  0  0  0  0
 31 27  1  0  0  0  0
 31 34  2  0  0  0  0
 32 30  2  0  0  0  0
 33 31  1  0  0  0  0
 35 39  1  1  0  0  0
 36 28  1  6  0  0  0
 36 37  1  0  0  0  0
 36 35  1  0  0  0  0
 37 35  1  0  0  0  0
 38 37  1  0  0  0  0
 39 42  1  0  0  0  0
 40 41  1  0  0  0  0
 40 42  1  0  0  0  0
 41 42  1  0  0  0  0
 42 46  1  0  0  0  0
 46 44  1  0  0  0  0
 46 45  1  0  0  0  0
 46 43  1  0  0  0  0
M  END
>  <MODEL>
1

>  <REMARK>
 VINA RESULT:      -7.7      0.000      0.000
  Name = 
  19 active torsions:
  status: ('A' for Active; 'I' for Inactive)
    1  A    between atoms: C_2  and  C_22
    2  A    between atoms: C_2  and  O_38
    3  A    between atoms: C_3  and  N_40
    4  A    between atoms: C_7  and  C_21
    5  A    between atoms: C_8  and  C_35
    6  A    between atoms: C_8  and  C_39
    7  A    between atoms: C_12  and  N_17
    8  A    between atoms: C_12  and  C_36
    9  A    between atoms: C_14  and  C_35
   10  A    between atoms: C_14  and  O_38
   11  A    between atoms: C_16  and  N_42
   12  A    between atoms: C_18  and  C_29
   13  A    between atoms: C_18  and  N_42
   14  A    between atoms: O_19  and  C_43
   15  A    between atoms: O_19  and  C_44
   16  A    between atoms: C_24  and  C_44
   17  A    between atoms: C_27  and  C_43
   18  A    between atoms: C_31  and  N_40
   19  A    between atoms: C_36  and  C_44
                            x       y       z     vdW  Elec       q    Type
                         _______ _______ _______ _____ _____    ______ ____

>  <TORSDO>
F 19

$$$$
=
 OpenBabel11032421013D

 46 49  0  0  1  0  0  0  0  0999 V2000
  185.4610  178.2450  141.4400 C   0  0  2  0  0  3  0  0  0  0  0  0
  185.0200  179.3090  140.4940 C   0  0  0  0  0  3  0  0  0  0  0  0
  183.8050  179.2730  139.9680 C   0  0  0  0  0  3  0  0  0  0  0  0
  183.3920  180.2860  139.0540 N   0  0  0  0  0  2  0  0  0  0  0  0
  182.1620  180.2190  138.3270 C   0  0  0  0  0  0  0  0  0  0  0  0
  181.3000  181.3220  138.3360 C   0  0  0  0  0  3  0  0  0  0  0  0
  179.7290  180.1260  136.9320 C   0  0  0  0  0  3  0  0  0  0  0  0
  180.5860  179.0190  136.9170 C   0  0  0  0  0  3  0  0  0  0  0  0
  181.7990  179.0660  137.6110 C   0  0  0  0  0  3  0  0  0  0  0  0
  180.0870  181.2770  137.6400 C   0  0  0  0  0  3  0  0  0  0  0  0
  184.5150  178.2250  142.6250 C   0  0  0  0  0  2  0  0  0  0  0  0
  184.8190  179.3850  143.5580 C   0  0  0  0  0  2  0  0  0  0  0  0
  185.6580  178.9330  144.6580 N   0  0  0  0  0  2  0  0  0  0  0  0
  185.1550  178.7410  145.9810 C   0  0  0  0  0  0  0  0  0  0  0  0
  183.9410  178.9500  146.2460 O   0  0  0  0  0  0  0  0  0  0  0  0
  186.0630  178.2420  147.0490 C   0  0  0  0  0  2  0  0  0  0  0  0
  187.3720  178.1960  146.5680 O   0  0  0  0  0  0  0  0  0  0  0  0
  188.5000  178.2540  148.6810 C   0  0  0  0  0  1  0  0  0  0  0  0
  188.0680  177.4110  147.4930 C   0  0  2  0  0  3  0  0  0  0  0  0
  189.2640  176.7210  146.8320 C   0  0  0  0  0  2  0  0  0  0  0  0
  189.8710  177.5320  145.6890 C   0  0  0  0  0  2  0  0  0  0  0  0
  191.5970  176.1290  144.5970 C   0  0  0  0  0  1  0  0  0  0  0  0
  191.8980  176.9490  146.8060 O   0  0  0  0  0  1  0  0  0  0  0  0
  191.3630  177.2750  145.5600 C   0  0  2  0  0  3  0  0  0  0  0  0
  186.7820  178.5200  141.8980 O   0  0  0  0  0  0  0  0  0  0  0  0
  187.7110  176.7120  142.9960 O   0  0  0  0  0  0  0  0  0  0  0  0
  187.7610  177.5310  142.0390 C   0  0  0  0  0  0  0  0  0  0  0  0
  189.5430  177.3090  138.7480 C   0  0  0  0  0  0  0  0  0  0  0  0
  190.8440  177.3170  139.0380 C   0  0  0  0  0  3  0  0  0  0  0  0
  191.2840  177.3660  140.4340 C   0  0  0  0  0  0  0  0  0  0  0  0
  188.8550  177.4580  141.0640 C   0  0  0  0  0  0  0  0  0  0  0  0
  192.5130  177.3470  140.7000 O   0  0  0  0  0  0  0  0  0  0  0  0
  190.2860  177.4490  141.5500 C   0  0  0  0  0  2  0  0  0  0  0  0
  188.5650  177.3960  139.7950 N   0  0  0  0  0  0  0  0  0  0  0  0
  187.7840  177.9710  137.1640 C   0  0  1  0  0  3  0  0  0  0  0  0
  189.0960  177.3410  137.3100 C   0  0  1  0  0  3  0  0  0  0  0  0
  188.9840  178.7110  136.7480 N   0  0  0  0  0  0  0  0  0  0  0  0
  189.1740  179.6610  137.6930 F   0  0  0  0  0  0  0  0  0  0  0  0
  187.1190  177.4280  135.9900 N   0  0  0  0  0  2  0  0  0  0  0  0
  184.6780  177.0410  136.0410 C   0  0  0  0  0  2  0  0  0  0  0  0
  185.1310  177.1010  137.4970 C   0  0  0  0  0  2  0  0  0  0  0  0
  186.0490  176.5380  136.4320 C   0  0  0  0  0  0  0  0  0  0  0  0
  186.6420  174.5220  137.5760 F   0  0  0  0  0  0  0  0  0  0  0  0
  187.3320  174.6930  135.3220 C   0  0  0  0  0  1  0  0  0  0  0  0
  185.0780  174.3820  135.9650 F   0  0  0  0  0  0  0  0  0  0  0  0
  186.2520  175.0160  136.3420 C   0  0  0  0  0  0  0  0  0  0  0  0
  1  2  1  6  0  0  0
  1 25  1  0  0  0  0
  1 11  1  0  0  0  0
  3  2  2  0  0  0  0
  4  3  1  0  0  0  0
  5  6  1  0  0  0  0
  5  4  1  0  0  0  0
  7 10  1  0  0  0  0
  8  7  2  0  0  0  0
  8  9  1  0  0  0  0
  9  5  2  0  0  0  0
 10  6  2  0  0  0  0
 11 12  1  0  0  0  0
 12 13  1  0  0  0  0
 13 14  1  0  0  0  0
 14 15  2  0  0  0  0
 14 16  1  0  0  0  0
 17 16  1  0  0  0  0
 17 19  1  0  0  0  0
 19 18  1  1  0  0  0
 20 19  1  0  0  0  0
 21 20  1  0  0  0  0
 24 22  1  6  0  0  0
 24 21  1  0  0  0  0
 24 23  1  0  0  0  0
 25 27  1  0  0  0  0
 27 26  2  0  0  0  0
 28 29  2  0  0  0  0
 28 34  1  0  0  0  0
 29 30  1  0  0  0  0
 30 32  2  0  0  0  0
 30 33  1  0  0  0  0
 31 33  1  0  0  0  0
 31 27  1  0  0  0  0
 34 31  2  0  0  0  0
 35 39  1  6  0  0  0
 35 36  1  0  0  0  0
 36 28  1  1  0  0  0
 37 35  1  0  0  0  0
 37 36  1  0  0  0  0
 37 38  1  0  0  0  0
 39 42  1  0  0  0  0
 40 42  1  0  0  0  0
 40 41  1  0  0  0  0
 42 41  1  0  0  0  0
 44 46  1  0  0  0  0
 45 46  1  0  0  0  0
 46 42  1  0  0  0  0
 46 43  1  0  0  0  0
M  END
>  <MODEL>
2

>  <REMARK>
 VINA RESULT:      -7.5      3.466      7.904
  Name = 
  19 active torsions:
  status: ('A' for Active; 'I' for Inactive)
    1  A    between atoms: C_2  and  C_22
    2  A    between atoms: C_2  and  O_38
    3  A    between atoms: C_3  and  N_40
    4  A    between atoms: C_7  and  C_21
    5  A    between atoms: C_8  and  C_35
    6  A    between atoms: C_8  and  C_39
    7  A    between atoms: C_12  and  N_17
    8  A    between atoms: C_12  and  C_36
    9  A    between atoms: C_14  and  C_35
   10  A    between atoms: C_14  and  O_38
   11  A    between atoms: C_16  and  N_42
   12  A    between atoms: C_18  and  C_29
   13  A    between atoms: C_18  and  N_42
   14  A    between atoms: O_19  and  C_43
   15  A    between atoms: O_19  and  C_44
   16  A    between atoms: C_24  and  C_44
   17  A    between atoms: C_27  and  C_43
   18  A    between atoms: C_31  and  N_40
   19  A    between atoms: C_36  and  C_44
                            x       y       z     vdW  Elec       q    Type
                         _______ _______ _______ _____ _____    ______ ____

>  <TORSDO>
F 19

$$$$
=
 OpenBabel11032421013D

 46 49  0  0  1  0  0  0  0  0999 V2000
  185.6300  179.2700  141.8030 C   0  0  2  0  0  3  0  0  0  0  0  0
  186.6020  178.1910  141.4650 C   0  0  0  0  0  3  0  0  0  0  0  0
  187.8840  178.3300  141.7630 C   0  0  0  0  0  3  0  0  0  0  0  0
  188.8120  177.3000  141.4280 N   0  0  0  0  0  2  0  0  0  0  0  0
  189.4410  177.2120  140.1470 C   0  0  0  0  0  0  0  0  0  0  0  0
  190.7360  176.6880  140.0550 C   0  0  0  0  0  3  0  0  0  0  0  0
  190.7240  177.0380  137.6580 C   0  0  0  0  0  3  0  0  0  0  0  0
  189.4290  177.5610  137.7410 C   0  0  0  0  0  3  0  0  0  0  0  0
  188.7890  177.6470  138.9810 C   0  0  0  0  0  3  0  0  0  0  0  0
  191.3760  176.6010  138.8140 C   0  0  0  0  0  3  0  0  0  0  0  0
  184.5450  178.6880  142.6880 C   0  0  0  0  0  2  0  0  0  0  0  0
  184.4040  179.5130  143.9550 C   0  0  0  0  0  2  0  0  0  0  0  0
  185.5270  179.2560  144.8450 N   0  0  0  0  0  2  0  0  0  0  0  0
  185.3570  178.8110  146.1920 C   0  0  0  0  0  0  0  0  0  0  0  0
  184.2050  178.6120  146.6630 O   0  0  0  0  0  0  0  0  0  0  0  0
  186.5510  178.5330  147.0330 C   0  0  0  0  0  2  0  0  0  0  0  0
  187.2320  177.4230  146.5290 O   0  0  0  0  0  0  0  0  0  0  0  0
  188.3580  178.2900  148.4570 C   0  0  0  0  0  1  0  0  0  0  0  0
  188.2000  177.1260  147.4930 C   0  0  2  0  0  3  0  0  0  0  0  0
  189.5320  176.7600  146.8350 C   0  0  0  0  0  2  0  0  0  0  0  0
  189.8250  177.5720  145.5760 C   0  0  0  0  0  2  0  0  0  0  0  0
  191.4430  176.7290  143.9000 C   0  0  0  0  0  1  0  0  0  0  0  0
  192.0110  176.8490  146.2040 O   0  0  0  0  0  1  0  0  0  0  0  0
  191.2950  177.4970  145.1980 C   0  0  2  0  0  3  0  0  0  0  0  0
  185.0400  179.7820  140.6110 O   0  0  0  0  0  0  0  0  0  0  0  0
  185.5870  178.6850  138.6530 O   0  0  0  0  0  0  0  0  0  0  0  0
  184.7140  178.9770  139.5140 C   0  0  0  0  0  0  0  0  0  0  0  0
  181.0300  178.9350  138.8210 C   0  0  0  0  0  0  0  0  0  0  0  0
  180.6340  177.6800  139.0350 C   0  0  0  0  0  3  0  0  0  0  0  0
  181.5980  176.6750  139.4890 C   0  0  0  0  0  0  0  0  0  0  0  0
  183.3420  178.4780  139.3710 C   0  0  0  0  0  0  0  0  0  0  0  0
  181.2110  175.4990  139.7140 O   0  0  0  0  0  0  0  0  0  0  0  0
  183.0430  177.0280  139.6780 C   0  0  0  0  0  2  0  0  0  0  0  0
  182.4080  179.3010  138.9860 N   0  0  0  0  0  0  0  0  0  0  0  0
  180.7230  180.9610  137.4660 C   0  0  1  0  0  3  0  0  0  0  0  0
  180.0550  179.9450  138.2770 C   0  0  1  0  0  3  0  0  0  0  0  0
  179.9280  179.9210  136.7980 N   0  0  0  0  0  0  0  0  0  0  0  0
  180.8280  179.0830  136.2290 F   0  0  0  0  0  0  0  0  0  0  0  0
  179.9570  182.1970  137.5160 N   0  0  0  0  0  2  0  0  0  0  0  0
  179.5050  183.1130  135.2650 C   0  0  0  0  0  2  0  0  0  0  0  0
  180.8510  182.4000  135.1740 C   0  0  0  0  0  2  0  0  0  0  0  0
  180.4330  183.0840  136.4590 C   0  0  0  0  0  0  0  0  0  0  0  0
  182.2310  184.2070  137.5680 F   0  0  0  0  0  0  0  0  0  0  0  0
  180.1120  185.2470  137.6830 C   0  0  0  0  0  1  0  0  0  0  0  0
  181.4020  185.1570  135.7050 F   0  0  0  0  0  0  0  0  0  0  0  0
  181.0750  184.4290  136.8380 C   0  0  0  0  0  0  0  0  0  0  0  0
  1  2  1  6  0  0  0
  1 11  1  0  0  0  0
  2  3  2  0  0  0  0
  4  3  1  0  0  0  0
  5  4  1  0  0  0  0
  6  5  1  0  0  0  0
  7  8  2  0  0  0  0
  7 10  1  0  0  0  0
  8  9  1  0  0  0  0
  9  5  2  0  0  0  0
 10  6  2  0  0  0  0
 11 12  1  0  0  0  0
 12 13  1  0  0  0  0
 13 14  1  0  0  0  0
 14 15  2  0  0  0  0
 14 16  1  0  0  0  0
 17 16  1  0  0  0  0
 17 19  1  0  0  0  0
 19 18  1  1  0  0  0
 20 19  1  0  0  0  0
 21 20  1  0  0  0  0
 24 22  1  6  0  0  0
 24 21  1  0  0  0  0
 24 23  1  0  0  0  0
 25  1  1  0  0  0  0
 26 27  2  0  0  0  0
 27 25  1  0  0  0  0
 28 34  1  0  0  0  0
 28 29  2  0  0  0  0
 29 30  1  0  0  0  0
 30 33  1  0  0  0  0
 30 32  2  0  0  0  0
 31 27  1  0  0  0  0
 31 33  1  0  0  0  0
 34 31  2  0  0  0  0
 35 39  1  1  0  0  0
 35 36  1  0  0  0  0
 36 28  1  6  0  0  0
 37 35  1  0  0  0  0
 37 36  1  0  0  0  0
 38 37  1  0  0  0  0
 40 42  1  0  0  0  0
 41 40  1  0  0  0  0
 41 42  1  0  0  0  0
 42 46  1  0  0  0  0
 42 39  1  0  0  0  0
 45 46  1  0  0  0  0
 46 43  1  0  0  0  0
 46 44  1  0  0  0  0
M  END
>  <MODEL>
3

>  <REMARK>
 VINA RESULT:      -7.5      3.576      6.154
  Name = 
  19 active torsions:
  status: ('A' for Active; 'I' for Inactive)
    1  A    between atoms: C_2  and  C_22
    2  A    between atoms: C_2  and  O_38
    3  A    between atoms: C_3  and  N_40
    4  A    between atoms: C_7  and  C_21
    5  A    between atoms: C_8  and  C_35
    6  A    between atoms: C_8  and  C_39
    7  A    between atoms: C_12  and  N_17
    8  A    between atoms: C_12  and  C_36
    9  A    between atoms: C_14  and  C_35
   10  A    between atoms: C_14  and  O_38
   11  A    between atoms: C_16  and  N_42
   12  A    between atoms: C_18  and  C_29
   13  A    between atoms: C_18  and  N_42
   14  A    between atoms: O_19  and  C_43
   15  A    between atoms: O_19  and  C_44
   16  A    between atoms: C_24  and  C_44
   17  A    between atoms: C_27  and  C_43
   18  A    between atoms: C_31  and  N_40
   19  A    between atoms: C_36  and  C_44
                            x       y       z     vdW  Elec       q    Type
                         _______ _______ _______ _____ _____    ______ ____

>  <TORSDO>
F 19

$$$$
=
 OpenBabel11032421013D

 46 49  0  0  1  0  0  0  0  0999 V2000
  189.8280  177.8680  141.7080 C   0  0  2  0  0  3  0  0  0  0  0  0
  190.1380  177.7980  143.1640 C   0  0  0  0  0  3  0  0  0  0  0  0
  189.6720  176.7990  143.8990 C   0  0  0  0  0  3  0  0  0  0  0  0
  189.9600  176.7430  145.2940 N   0  0  0  0  0  2  0  0  0  0  0  0
  189.0860  177.2810  146.2880 C   0  0  0  0  0  0  0  0  0  0  0  0
  189.5790  177.5200  147.5770 C   0  0  0  0  0  3  0  0  0  0  0  0
  187.4010  178.3180  148.2780 C   0  0  0  0  0  3  0  0  0  0  0  0
  186.9010  178.0830  146.9920 C   0  0  0  0  0  3  0  0  0  0  0  0
  187.7410  177.5680  146.0000 C   0  0  0  0  0  3  0  0  0  0  0  0
  188.7390  178.0370  148.5690 C   0  0  0  0  0  3  0  0  0  0  0  0
  188.3340  177.6840  141.5190 C   0  0  0  0  0  2  0  0  0  0  0  0
  187.7740  178.8000  140.6530 C   0  0  0  0  0  2  0  0  0  0  0  0
  186.3320  178.6540  140.5230 N   0  0  0  0  0  2  0  0  0  0  0  0
  185.6780  178.5670  139.2560 C   0  0  0  0  0  0  0  0  0  0  0  0
  186.3410  178.6030  138.1850 O   0  0  0  0  0  0  0  0  0  0  0  0
  184.2040  178.3820  139.1990 C   0  0  0  0  0  2  0  0  0  0  0  0
  183.5850  179.2710  140.0810 O   0  0  0  0  0  0  0  0  0  0  0  0
  181.3710  179.1580  140.9900 C   0  0  0  0  0  1  0  0  0  0  0  0
  182.7230  178.4780  140.8450 C   0  0  2  0  0  3  0  0  0  0  0  0
  183.3380  178.1610  142.2110 C   0  0  0  0  0  2  0  0  0  0  0  0
  182.7160  178.9620  143.3520 C   0  0  0  0  0  2  0  0  0  0  0  0
  185.1420  179.0070  143.8560 C   0  0  0  0  0  1  0  0  0  0  0  0
  183.5230  179.1130  145.5920 O   0  0  0  0  0  1  0  0  0  0  0  0
  183.7810  179.5190  144.2820 C   0  0  2  0  0  3  0  0  0  0  0  0
  190.5200  176.8340  141.0140 O   0  0  0  0  0  0  0  0  0  0  0  0
  192.6220  177.5780  140.4080 O   0  0  0  0  0  0  0  0  0  0  0  0
  191.5140  177.0880  140.0620 C   0  0  0  0  0  0  0  0  0  0  0  0
  192.0490  175.8530  136.5630 C   0  0  0  0  0  0  0  0  0  0  0  0
  190.9150  176.1090  135.9090 C   0  0  0  0  0  3  0  0  0  0  0  0
  189.8110  176.7850  136.5940 C   0  0  0  0  0  0  0  0  0  0  0  0
  191.2520  176.7810  138.6510 C   0  0  0  0  0  0  0  0  0  0  0  0
  188.7550  177.0470  135.9640 O   0  0  0  0  0  0  0  0  0  0  0  0
  189.9220  177.1600  138.0420 C   0  0  0  0  0  2  0  0  0  0  0  0
  192.1800  176.1930  137.9510 N   0  0  0  0  0  0  0  0  0  0  0  0
  193.9670  174.3410  136.8370 C   0  0  1  0  0  3  0  0  0  0  0  0
  193.1500  175.0850  135.8800 C   0  0  1  0  0  3  0  0  0  0  0  0
  193.0120  173.6110  135.9910 N   0  0  0  0  0  0  0  0  0  0  0  0
  191.9920  173.2610  136.8110 F   0  0  0  0  0  0  0  0  0  0  0  0
  195.3100  174.1810  136.2990 N   0  0  0  0  0  2  0  0  0  0  0  0
  195.9330  172.5240  138.0240 C   0  0  0  0  0  2  0  0  0  0  0  0
  195.5790  173.8060  138.7720 C   0  0  0  0  0  2  0  0  0  0  0  0
  196.2170  173.8720  137.4000 C   0  0  0  0  0  0  0  0  0  0  0  0
  198.0470  175.1250  138.2970 F   0  0  0  0  0  0  0  0  0  0  0  0
  197.9610  174.9290  135.9430 C   0  0  0  0  0  1  0  0  0  0  0  0
  198.5090  173.1280  137.3720 F   0  0  0  0  0  0  0  0  0  0  0  0
  197.7030  174.2510  137.2790 C   0  0  0  0  0  0  0  0  0  0  0  0
  1 11  1  1  0  0  0
  1  2  1  0  0  0  0
  2  3  2  0  0  0  0
  3  4  1  0  0  0  0
  4  5  1  0  0  0  0
  5  6  1  0  0  0  0
  6 10  2  0  0  0  0
  7 10  1  0  0  0  0
  8  7  2  0  0  0  0
  9  5  2  0  0  0  0
  9  8  1  0  0  0  0
 12 11  1  0  0  0  0
 13 12  1  0  0  0  0
 14 13  1  0  0  0  0
 15 14  2  0  0  0  0
 16 14  1  0  0  0  0
 16 17  1  0  0  0  0
 17 19  1  0  0  0  0
 19 18  1  1  0  0  0
 19 20  1  0  0  0  0
 20 21  1  0  0  0  0
 21 24  1  0  0  0  0
 24 22  1  6  0  0  0
 24 23  1  0  0  0  0
 25  1  1  0  0  0  0
 27 26  2  0  0  0  0
 27 25  1  0  0  0  0
 28 34  1  0  0  0  0
 29 28  2  0  0  0  0
 29 30  1  0  0  0  0
 30 33  1  0  0  0  0
 31 27  1  0  0  0  0
 32 30  2  0  0  0  0
 33 31  1  0  0  0  0
 34 31  2  0  0  0  0
 35 39  1  6  0  0  0
 36 37  1  0  0  0  0
 36 28  1  1  0  0  0
 36 35  1  0  0  0  0
 37 38  1  0  0  0  0
 37 35  1  0  0  0  0
 39 42  1  0  0  0  0
 40 41  1  0  0  0  0
 42 40  1  0  0  0  0
 42 41  1  0  0  0  0
 44 46  1  0  0  0  0
 46 45  1  0  0  0  0
 46 42  1  0  0  0  0
 46 43  1  0  0  0  0
M  END
>  <MODEL>
4

>  <REMARK>
 VINA RESULT:      -7.3      4.270      9.872
  Name = 
  19 active torsions:
  status: ('A' for Active; 'I' for Inactive)
    1  A    between atoms: C_2  and  C_22
    2  A    between atoms: C_2  and  O_38
    3  A    between atoms: C_3  and  N_40
    4  A    between atoms: C_7  and  C_21
    5  A    between atoms: C_8  and  C_35
    6  A    between atoms: C_8  and  C_39
    7  A    between atoms: C_12  and  N_17
    8  A    between atoms: C_12  and  C_36
    9  A    between atoms: C_14  and  C_35
   10  A    between atoms: C_14  and  O_38
   11  A    between atoms: C_16  and  N_42
   12  A    between atoms: C_18  and  C_29
   13  A    between atoms: C_18  and  N_42
   14  A    between atoms: O_19  and  C_43
   15  A    between atoms: O_19  and  C_44
   16  A    between atoms: C_24  and  C_44
   17  A    between atoms: C_27  and  C_43
   18  A    between atoms: C_31  and  N_40
   19  A    between atoms: C_36  and  C_44
                            x       y       z     vdW  Elec       q    Type
                         _______ _______ _______ _____ _____    ______ ____

>  <TORSDO>
F 19

$$$$
=
 OpenBabel11032421013D

 46 49  0  0  1  0  0  0  0  0999 V2000
  188.0260  178.3020  141.2540 C   0  0  2  0  0  3  0  0  0  0  0  0
  187.3780  178.2270  142.5950 C   0  0  0  0  0  3  0  0  0  0  0  0
  187.6150  177.1980  143.3940 C   0  0  0  0  0  3  0  0  0  0  0  0
  186.9840  177.1240  144.6700 N   0  0  0  0  0  2  0  0  0  0  0  0
  187.6620  177.4400  145.8890 C   0  0  0  0  0  0  0  0  0  0  0  0
  189.0200  177.1250  146.0180 C   0  0  0  0  0  3  0  0  0  0  0  0
  189.0290  178.0210  148.2690 C   0  0  0  0  0  3  0  0  0  0  0  0
  187.6720  178.3400  148.1470 C   0  0  0  0  0  3  0  0  0  0  0  0
  186.9910  178.0520  146.9600 C   0  0  0  0  0  3  0  0  0  0  0  0
  189.7020  177.4140  147.2050 C   0  0  0  0  0  3  0  0  0  0  0  0
  186.9430  178.4050  140.1960 C   0  0  0  0  0  2  0  0  0  0  0  0
  185.6820  179.0030  140.7950 C   0  0  0  0  0  2  0  0  0  0  0  0
  184.7480  179.3600  139.7370 N   0  0  0  0  0  2  0  0  0  0  0  0
  183.5140  178.6690  139.5320 C   0  0  0  0  0  0  0  0  0  0  0  0
  183.1800  177.7130  140.2820 O   0  0  0  0  0  0  0  0  0  0  0  0
  182.5920  179.1120  138.4540 C   0  0  0  0  0  2  0  0  0  0  0  0
  182.2230  180.4410  138.6680 O   0  0  0  0  0  0  0  0  0  0  0  0
  180.5750  179.2700  137.3830 C   0  0  0  0  0  1  0  0  0  0  0  0
  180.9580  180.5630  138.0840 C   0  0  2  0  0  3  0  0  0  0  0  0
  180.9110  181.7550  137.1250 C   0  0  0  0  0  2  0  0  0  0  0  0
  180.5350  183.0660  137.8120 C   0  0  0  0  0  2  0  0  0  0  0  0
  180.9920  183.8430  135.5040 C   0  0  0  0  0  1  0  0  0  0  0  0
  182.1370  184.7770  137.3650 O   0  0  0  0  0  1  0  0  0  0  0  0
  180.9050  184.2650  136.9560 C   0  0  2  0  0  3  0  0  0  0  0  0
  188.7980  177.1270  141.0220 O   0  0  0  0  0  0  0  0  0  0  0  0
  190.9580  177.4630  141.7700 O   0  0  0  0  0  0  0  0  0  0  0  0
  190.1830  177.1520  140.8260 C   0  0  0  0  0  0  0  0  0  0  0  0
  190.3300  176.0430  137.2470 C   0  0  0  0  0  0  0  0  0  0  0  0
  191.6120  176.1350  136.8910 C   0  0  0  0  0  3  0  0  0  0  0  0
  192.6150  176.5650  137.8670 C   0  0  0  0  0  0  0  0  0  0  0  0
  190.7290  176.8180  139.5060 C   0  0  0  0  0  0  0  0  0  0  0  0
  193.8260  176.6230  137.5300 O   0  0  0  0  0  0  0  0  0  0  0  0
  192.2150  176.9470  139.2600 C   0  0  0  0  0  2  0  0  0  0  0  0
  189.9170  176.4100  138.5720 N   0  0  0  0  0  0  0  0  0  0  0  0
  187.9460  176.0560  136.6520 C   0  0  1  0  0  3  0  0  0  0  0  0
  189.2910  175.6800  136.2200 C   0  0  1  0  0  3  0  0  0  0  0  0
  188.6120  176.8520  135.6120 N   0  0  0  0  0  0  0  0  0  0  0  0
  188.9730  178.0110  136.2130 F   0  0  0  0  0  0  0  0  0  0  0  0
  186.9760  175.1660  136.0330 N   0  0  0  0  0  2  0  0  0  0  0  0
  184.9150  176.5120  135.7990 C   0  0  0  0  0  2  0  0  0  0  0  0
  185.4880  176.8430  137.1740 C   0  0  0  0  0  2  0  0  0  0  0  0
  185.6580  175.4570  136.5880 C   0  0  0  0  0  0  0  0  0  0  0  0
  184.3140  173.5440  136.0750 F   0  0  0  0  0  0  0  0  0  0  0  0
  183.6220  174.8520  137.9190 C   0  0  0  0  0  1  0  0  0  0  0  0
  185.5440  173.4770  137.9570 F   0  0  0  0  0  0  0  0  0  0  0  0
  184.7990  174.3010  137.1290 C   0  0  0  0  0  0  0  0  0  0  0  0
  1 11  1  6  0  0  0
  1  2  1  0  0  0  0
  2  3  2  0  0  0  0
  3  4  1  0  0  0  0
  4  5  1  0  0  0  0
  5  6  2  0  0  0  0
  5  9  1  0  0  0  0
  6 10  1  0  0  0  0
  8  7  1  0  0  0  0
  9  8  2  0  0  0  0
 10  7  2  0  0  0  0
 11 12  1  0  0  0  0
 13 12  1  0  0  0  0
 14 13  1  0  0  0  0
 14 15  2  0  0  0  0
 16 17  1  0  0  0  0
 16 14  1  0  0  0  0
 19 18  1  6  0  0  0
 19 17  1  0  0  0  0
 20 21  1  0  0  0  0
 20 19  1  0  0  0  0
 24 22  1  6  0  0  0
 24 23  1  0  0  0  0
 24 21  1  0  0  0  0
 25  1  1  0  0  0  0
 27 25  1  0  0  0  0
 27 26  2  0  0  0  0
 28 34  1  0  0  0  0
 29 28  2  0  0  0  0
 29 30  1  0  0  0  0
 30 33  1  0  0  0  0
 31 27  1  0  0  0  0
 32 30  2  0  0  0  0
 33 31  1  0  0  0  0
 34 31  2  0  0  0  0
 35 39  1  6  0  0  0
 36 35  1  0  0  0  0
 36 28  1  1  0  0  0
 37 38  1  0  0  0  0
 37 36  1  0  0  0  0
 37 35  1  0  0  0  0
 39 42  1  0  0  0  0
 40 42  1  0  0  0  0
 40 41  1  0  0  0  0
 42 46  1  0  0  0  0
 42 41  1  0  0  0  0
 43 46  1  0  0  0  0
 46 44  1  0  0  0  0
 46 45  1  0  0  0  0
M  END
>  <MODEL>
5

>  <REMARK>
 VINA RESULT:      -7.2      3.800      9.502
  Name = 
  19 active torsions:
  status: ('A' for Active; 'I' for Inactive)
    1  A    between atoms: C_2  and  C_22
    2  A    between atoms: C_2  and  O_38
    3  A    between atoms: C_3  and  N_40
    4  A    between atoms: C_7  and  C_21
    5  A    between atoms: C_8  and  C_35
    6  A    between atoms: C_8  and  C_39
    7  A    between atoms: C_12  and  N_17
    8  A    between atoms: C_12  and  C_36
    9  A    between atoms: C_14  and  C_35
   10  A    between atoms: C_14  and  O_38
   11  A    between atoms: C_16  and  N_42
   12  A    between atoms: C_18  and  C_29
   13  A    between atoms: C_18  and  N_42
   14  A    between atoms: O_19  and  C_43
   15  A    between atoms: O_19  and  C_44
   16  A    between atoms: C_24  and  C_44
   17  A    between atoms: C_27  and  C_43
   18  A    between atoms: C_31  and  N_40
   19  A    between atoms: C_36  and  C_44
                            x       y       z     vdW  Elec       q    Type
                         _______ _______ _______ _____ _____    ______ ____

>  <TORSDO>
F 19

$$$$
=
 OpenBabel11032421013D

 46 49  0  0  1  0  0  0  0  0999 V2000
  185.4950  179.1870  141.5610 C   0  0  2  0  0  3  0  0  0  0  0  0
  186.6680  178.2930  141.3430 C   0  0  0  0  0  3  0  0  0  0  0  0
  187.8980  178.7810  141.3920 C   0  0  0  0  0  3  0  0  0  0  0  0
  189.0160  177.9240  141.1710 N   0  0  0  0  0  2  0  0  0  0  0  0
  189.5060  177.6120  139.8650 C   0  0  0  0  0  0  0  0  0  0  0  0
  189.0440  178.3460  138.7660 C   0  0  0  0  0  3  0  0  0  0  0  0
  190.4240  177.0210  137.2800 C   0  0  0  0  0  3  0  0  0  0  0  0
  190.8920  176.2840  138.3730 C   0  0  0  0  0  3  0  0  0  0  0  0
  190.4360  176.5790  139.6620 C   0  0  0  0  0  3  0  0  0  0  0  0
  189.5010  178.0520  137.4770 C   0  0  0  0  0  3  0  0  0  0  0  0
  184.3540  178.3640  142.1280 C   0  0  0  0  0  2  0  0  0  0  0  0
  184.0760  178.7740  143.5640 C   0  0  0  0  0  2  0  0  0  0  0  0
  185.2530  178.5400  144.3870 N   0  0  0  0  0  2  0  0  0  0  0  0
  185.2150  178.5760  145.8140 C   0  0  0  0  0  0  0  0  0  0  0  0
  184.1360  178.8090  146.4240 O   0  0  0  0  0  0  0  0  0  0  0  0
  186.4500  178.2910  146.5920 C   0  0  0  0  0  2  0  0  0  0  0  0
  187.3300  177.5360  145.8150 O   0  0  0  0  0  0  0  0  0  0  0  0
  188.1510  177.8150  148.0480 C   0  0  0  0  0  1  0  0  0  0  0  0
  188.4220  177.2820  146.6510 C   0  0  2  0  0  3  0  0  0  0  0  0
  189.7070  177.8750  146.0660 C   0  0  0  0  0  2  0  0  0  0  0  0
  190.3230  177.0090  144.9690 C   0  0  0  0  0  2  0  0  0  0  0  0
  191.0480  179.1360  143.9250 C   0  0  0  0  0  1  0  0  0  0  0  0
  191.8250  177.0420  143.1150 O   0  0  0  0  0  1  0  0  0  0  0  0
  191.4720  177.7250  144.2790 C   0  0  2  0  0  3  0  0  0  0  0  0
  185.0880  179.7640  140.3230 O   0  0  0  0  0  0  0  0  0  0  0  0
  185.6670  178.5240  138.4620 O   0  0  0  0  0  0  0  0  0  0  0  0
  184.7610  179.0010  139.1970 C   0  0  0  0  0  0  0  0  0  0  0  0
  181.6700  177.2960  137.9340 C   0  0  0  0  0  0  0  0  0  0  0  0
  180.6630  178.1330  138.1880 C   0  0  0  0  0  3  0  0  0  0  0  0
  180.9300  179.4330  138.8070 C   0  0  0  0  0  0  0  0  0  0  0  0
  183.3490  178.7630  138.8750 C   0  0  0  0  0  0  0  0  0  0  0  0
  179.9790  180.2290  139.0180 O   0  0  0  0  0  0  0  0  0  0  0  0
  182.3230  179.8240  139.2010 C   0  0  0  0  0  2  0  0  0  0  0  0
  183.0120  177.6390  138.3080 N   0  0  0  0  0  0  0  0  0  0  0  0
  182.4660  174.9880  137.6570 C   0  0  1  0  0  3  0  0  0  0  0  0
  181.3830  175.9280  137.3740 C   0  0  1  0  0  3  0  0  0  0  0  0
  181.2090  174.8790  138.4100 N   0  0  0  0  0  0  0  0  0  0  0  0
  181.4850  175.3460  139.6510 F   0  0  0  0  0  0  0  0  0  0  0  0
  182.4980  173.9670  136.6210 N   0  0  0  0  0  2  0  0  0  0  0  0
  184.8490  174.6780  136.9020 C   0  0  0  0  0  2  0  0  0  0  0  0
  184.5780  174.6840  135.4010 C   0  0  0  0  0  2  0  0  0  0  0  0
  183.8920  173.6750  136.2980 C   0  0  0  0  0  0  0  0  0  0  0  0
  183.9310  171.5720  137.4370 F   0  0  0  0  0  0  0  0  0  0  0  0
  185.8910  172.1650  136.2570 C   0  0  0  0  0  1  0  0  0  0  0  0
  183.8790  171.5360  135.1890 F   0  0  0  0  0  0  0  0  0  0  0  0
  184.3720  172.2140  136.2920 C   0  0  0  0  0  0  0  0  0  0  0  0
  1  2  1  6  0  0  0
  1 11  1  0  0  0  0
  2  3  2  0  0  0  0
  4  3  1  0  0  0  0
  5  4  1  0  0  0  0
  6  5  2  0  0  0  0
  7 10  2  0  0  0  0
  7  8  1  0  0  0  0
  8  9  2  0  0  0  0
  9  5  1  0  0  0  0
 10  6  1  0  0  0  0
 11 12  1  0  0  0  0
 12 13  1  0  0  0  0
 13 14  1  0  0  0  0
 14 15  2  0  0  0  0
 14 16  1  0  0  0  0
 17 16  1  0  0  0  0
 17 19  1  0  0  0  0
 19 18  1  1  0  0  0
 20 19  1  0  0  0  0
 21 20  1  0  0  0  0
 23 24  1  0  0  0  0
 24 22  1  6  0  0  0
 24 21  1  0  0  0  0
 25  1  1  0  0  0  0
 26 27  2  0  0  0  0
 27 25  1  0  0  0  0
 28 29  2  0  0  0  0
 28 34  1  0  0  0  0
 29 30  1  0  0  0  0
 30 32  2  0  0  0  0
 30 33  1  0  0  0  0
 31 27  1  0  0  0  0
 31 33  1  0  0  0  0
 34 31  2  0  0  0  0
 35 39  1  6  0  0  0
 35 37  1  0  0  0  0
 36 35  1  0  0  0  0
 36 28  1  1  0  0  0
 36 37  1  0  0  0  0
 37 38  1  0  0  0  0
 41 42  1  0  0  0  0
 41 40  1  0  0  0  0
 42 39  1  0  0  0  0
 42 40  1  0  0  0  0
 44 46  1  0  0  0  0
 45 46  1  0  0  0  0
 46 42  1  0  0  0  0
 46 43  1  0  0  0  0
M  END
>  <MODEL>
6

>  <REMARK>
 VINA RESULT:      -7.1      3.461      6.192
  Name = 
  19 active torsions:
  status: ('A' for Active; 'I' for Inactive)
    1  A    between atoms: C_2  and  C_22
    2  A    between atoms: C_2  and  O_38
    3  A    between atoms: C_3  and  N_40
    4  A    between atoms: C_7  and  C_21
    5  A    between atoms: C_8  and  C_35
    6  A    between atoms: C_8  and  C_39
    7  A    between atoms: C_12  and  N_17
    8  A    between atoms: C_12  and  C_36
    9  A    between atoms: C_14  and  C_35
   10  A    between atoms: C_14  and  O_38
   11  A    between atoms: C_16  and  N_42
   12  A    between atoms: C_18  and  C_29
   13  A    between atoms: C_18  and  N_42
   14  A    between atoms: O_19  and  C_43
   15  A    between atoms: O_19  and  C_44
   16  A    between atoms: C_24  and  C_44
   17  A    between atoms: C_27  and  C_43
   18  A    between atoms: C_31  and  N_40
   19  A    between atoms: C_36  and  C_44
                            x       y       z     vdW  Elec       q    Type
                         _______ _______ _______ _____ _____    ______ ____

>  <TORSDO>
F 19

$$$$
=
 OpenBabel11032421013D

 46 49  0  0  1  0  0  0  0  0999 V2000
  185.8440  178.6160  140.5420 C   0  0  2  0  0  3  0  0  0  0  0  0
  184.7760  179.0400  139.5930 C   0  0  0  0  0  3  0  0  0  0  0  0
  183.8760  178.1670  139.1670 C   0  0  0  0  0  3  0  0  0  0  0  0
  182.8630  178.5750  138.2500 N   0  0  0  0  0  2  0  0  0  0  0  0
  181.6830  177.8040  138.0060 C   0  0  0  0  0  0  0  0  0  0  0  0
  181.1860  176.9740  139.0180 C   0  0  0  0  0  3  0  0  0  0  0  0
  179.3830  176.2590  137.5670 C   0  0  0  0  0  3  0  0  0  0  0  0
  179.8730  177.0880  136.5510 C   0  0  0  0  0  3  0  0  0  0  0  0
  181.0180  177.8590  136.7700 C   0  0  0  0  0  3  0  0  0  0  0  0
  180.0390  176.2030  138.8000 C   0  0  0  0  0  3  0  0  0  0  0  0
  185.6600  179.3650  141.8480 C   0  0  0  0  0  2  0  0  0  0  0  0
  185.0420  178.4520  142.8920 C   0  0  0  0  0  2  0  0  0  0  0  0
  183.5940  178.6040  142.8920 N   0  0  0  0  0  2  0  0  0  0  0  0
  182.8480  178.8750  144.0800 C   0  0  0  0  0  0  0  0  0  0  0  0
  183.4290  179.0050  145.1900 O   0  0  0  0  0  0  0  0  0  0  0  0
  181.3740  179.0540  143.9990 C   0  0  0  0  0  2  0  0  0  0  0  0
  181.0700  180.0230  143.0420 O   0  0  0  0  0  0  0  0  0  0  0  0
  179.7740  178.2010  142.1820 C   0  0  0  0  0  1  0  0  0  0  0  0
  179.8050  179.6720  142.5620 C   0  0  2  0  0  3  0  0  0  0  0  0
  179.4010  180.5620  141.3840 C   0  0  0  0  0  2  0  0  0  0  0  0
  180.3220  180.4160  140.1750 C   0  0  0  0  0  2  0  0  0  0  0  0
  178.9480  182.3710  139.5190 C   0  0  0  0  0  1  0  0  0  0  0  0
  179.1230  180.4630  138.1130 O   0  0  0  0  0  1  0  0  0  0  0  0
  179.8410  181.2590  139.0060 C   0  0  2  0  0  3  0  0  0  0  0  0
  187.1260  178.9240  140.0000 O   0  0  0  0  0  0  0  0  0  0  0  0
  187.4720  177.3650  138.3300 O   0  0  0  0  0  0  0  0  0  0  0  0
  187.9190  177.9830  139.3340 C   0  0  0  0  0  0  0  0  0  0  0  0
  190.8180  177.6170  141.6830 C   0  0  0  0  0  0  0  0  0  0  0  0
  191.8490  177.2330  140.9300 C   0  0  0  0  0  3  0  0  0  0  0  0
  191.6840  177.0820  139.4830 C   0  0  0  0  0  0  0  0  0  0  0  0
  189.2780  177.7160  139.8180 C   0  0  0  0  0  0  0  0  0  0  0  0
  192.6690  176.7460  138.7760 O   0  0  0  0  0  0  0  0  0  0  0  0
  190.3520  177.3140  138.8350 C   0  0  0  0  0  2  0  0  0  0  0  0
  189.5290  177.8380  141.0910 N   0  0  0  0  0  0  0  0  0  0  0  0
  189.6840  177.5590  143.8620 C   0  0  1  0  0  3  0  0  0  0  0  0
  190.9700  177.6920  143.1790 C   0  0  1  0  0  3  0  0  0  0  0  0
  190.6250  176.4300  143.8810 N   0  0  0  0  0  0  0  0  0  0  0  0
  190.1070  175.5080  143.0350 F   0  0  0  0  0  0  0  0  0  0  0  0
  189.7420  178.2590  145.1360 N   0  0  0  0  0  2  0  0  0  0  0  0
  187.6950  176.8810  145.2780 C   0  0  0  0  0  2  0  0  0  0  0  0
  187.3290  178.2490  145.8450 C   0  0  0  0  0  2  0  0  0  0  0  0
  188.7280  177.6970  146.0230 C   0  0  0  0  0  0  0  0  0  0  0  0
  188.3120  176.1050  147.7600 F   0  0  0  0  0  0  0  0  0  0  0  0
  189.0570  178.2400  148.4470 C   0  0  0  0  0  1  0  0  0  0  0  0
  190.4520  176.6720  147.3590 F   0  0  0  0  0  0  0  0  0  0  0  0
  189.1500  177.1460  147.3950 C   0  0  0  0  0  0  0  0  0  0  0  0
  1  2  1  6  0  0  0
  1 11  1  0  0  0  0
  3  2  2  0  0  0  0
  4  3  1  0  0  0  0
  5  4  1  0  0  0  0
  5  6  1  0  0  0  0
  7 10  1  0  0  0  0
  8  9  1  0  0  0  0
  8  7  2  0  0  0  0
  9  5  2  0  0  0  0
 10  6  2  0  0  0  0
 11 12  1  0  0  0  0
 12 13  1  0  0  0  0
 13 14  1  0  0  0  0
 14 15  2  0  0  0  0
 16 14  1  0  0  0  0
 17 16  1  0  0  0  0
 19 18  1  6  0  0  0
 19 17  1  0  0  0  0
 20 19  1  0  0  0  0
 21 20  1  0  0  0  0
 23 24  1  0  0  0  0
 24 22  1  1  0  0  0
 24 21  1  0  0  0  0
 25  1  1  0  0  0  0
 26 27  2  0  0  0  0
 27 31  1  0  0  0  0
 27 25  1  0  0  0  0
 29 28  2  0  0  0  0
 30 29  1  0  0  0  0
 31 34  2  0  0  0  0
 32 30  2  0  0  0  0
 33 30  1  0  0  0  0
 33 31  1  0  0  0  0
 34 28  1  0  0  0  0
 35 37  1  0  0  0  0
 35 39  1  1  0  0  0
 36 28  1  6  0  0  0
 36 35  1  0  0  0  0
 36 37  1  0  0  0  0
 38 37  1  0  0  0  0
 39 42  1  0  0  0  0
 40 41  1  0  0  0  0
 40 42  1  0  0  0  0
 41 42  1  0  0  0  0
 42 46  1  0  0  0  0
 45 46  1  0  0  0  0
 46 43  1  0  0  0  0
 46 44  1  0  0  0  0
M  END
>  <MODEL>
7

>  <REMARK>
 VINA RESULT:      -7.0      3.514      9.041
  Name = 
  19 active torsions:
  status: ('A' for Active; 'I' for Inactive)
    1  A    between atoms: C_2  and  C_22
    2  A    between atoms: C_2  and  O_38
    3  A    between atoms: C_3  and  N_40
    4  A    between atoms: C_7  and  C_21
    5  A    between atoms: C_8  and  C_35
    6  A    between atoms: C_8  and  C_39
    7  A    between atoms: C_12  and  N_17
    8  A    between atoms: C_12  and  C_36
    9  A    between atoms: C_14  and  C_35
   10  A    between atoms: C_14  and  O_38
   11  A    between atoms: C_16  and  N_42
   12  A    between atoms: C_18  and  C_29
   13  A    between atoms: C_18  and  N_42
   14  A    between atoms: O_19  and  C_43
   15  A    between atoms: O_19  and  C_44
   16  A    between atoms: C_24  and  C_44
   17  A    between atoms: C_27  and  C_43
   18  A    between atoms: C_31  and  N_40
   19  A    between atoms: C_36  and  C_44
                            x       y       z     vdW  Elec       q    Type
                         _______ _______ _______ _____ _____    ______ ____

>  <TORSDO>
F 19

$$$$
=
 OpenBabel11032421013D

 46 49  0  0  1  0  0  0  0  0999 V2000
  184.0680  179.2250  139.0960 C   0  0  2  0  0  3  0  0  0  0  0  0
  182.9550  180.1310  138.6930 C   0  0  0  0  0  3  0  0  0  0  0  0
  181.7730  180.0410  139.2830 C   0  0  0  0  0  3  0  0  0  0  0  0
  180.7080  180.9010  138.8870 N   0  0  0  0  0  2  0  0  0  0  0  0
  180.7430  181.6730  137.6830 C   0  0  0  0  0  0  0  0  0  0  0  0
  181.0470  183.0380  137.7530 C   0  0  0  0  0  3  0  0  0  0  0  0
  180.8020  183.2310  135.3510 C   0  0  0  0  0  3  0  0  0  0  0  0
  180.4990  181.8670  135.2720 C   0  0  0  0  0  3  0  0  0  0  0  0
  180.4710  181.0900  136.4350 C   0  0  0  0  0  3  0  0  0  0  0  0
  181.0760  183.8150  136.5900 C   0  0  0  0  0  3  0  0  0  0  0  0
  183.4910  177.8570  139.4120 C   0  0  0  0  0  2  0  0  0  0  0  0
  183.2380  177.0870  138.1280 C   0  0  0  0  0  2  0  0  0  0  0  0
  184.3640  176.2090  137.8420 N   0  0  0  0  0  2  0  0  0  0  0  0
  185.2680  176.4430  136.7610 C   0  0  0  0  0  0  0  0  0  0  0  0
  185.1250  177.4420  136.0070 O   0  0  0  0  0  0  0  0  0  0  0  0
  186.4180  175.5240  136.5510 C   0  0  0  0  0  2  0  0  0  0  0  0
  187.2880  176.0700  135.6050 O   0  0  0  0  0  0  0  0  0  0  0  0
  188.3140  174.2590  136.7910 C   0  0  0  0  0  1  0  0  0  0  0  0
  188.4940  175.3860  135.7880 C   0  0  2  0  0  3  0  0  0  0  0  0
  189.6060  176.3470  136.2190 C   0  0  0  0  0  2  0  0  0  0  0  0
  189.0890  177.7300  136.6080 C   0  0  0  0  0  2  0  0  0  0  0  0
  189.3050  177.1120  138.9980 C   0  0  0  0  0  1  0  0  0  0  0  0
  189.0560  179.3790  138.3320 O   0  0  0  0  0  1  0  0  0  0  0  0
  189.6320  178.1650  137.9590 C   0  0  2  0  0  3  0  0  0  0  0  0
  184.7180  179.7390  140.2550 O   0  0  0  0  0  0  0  0  0  0  0  0
  186.6950  178.5590  140.4430 O   0  0  0  0  0  0  0  0  0  0  0  0
  185.6530  179.0050  140.9930 C   0  0  0  0  0  0  0  0  0  0  0  0
  186.1750  177.7960  144.5030 C   0  0  0  0  0  0  0  0  0  0  0  0
  185.1000  178.1890  145.1870 C   0  0  0  0  0  3  0  0  0  0  0  0
  184.0200  178.9050  144.5050 C   0  0  0  0  0  0  0  0  0  0  0  0
  185.4080  178.7550  142.4180 C   0  0  0  0  0  0  0  0  0  0  0  0
  182.9970  179.2490  145.1510 O   0  0  0  0  0  0  0  0  0  0  0  0
  184.1230  179.2420  143.0480 C   0  0  0  0  0  2  0  0  0  0  0  0
  186.3050  178.1110  143.1090 N   0  0  0  0  0  0  0  0  0  0  0  0
  188.5120  177.9780  145.2400 C   0  0  1  0  0  3  0  0  0  0  0  0
  187.3190  177.1330  145.2230 C   0  0  1  0  0  3  0  0  0  0  0  0
  187.7250  177.8260  146.4720 N   0  0  0  0  0  0  0  0  0  0  0  0
  187.0680  179.0000  146.6330 F   0  0  0  0  0  0  0  0  0  0  0  0
  189.6960  177.1360  145.3160 N   0  0  0  0  0  2  0  0  0  0  0  0
  191.7450  178.3980  144.7500 C   0  0  0  0  0  2  0  0  0  0  0  0
  190.6250  179.0020  143.9080 C   0  0  0  0  0  2  0  0  0  0  0  0
  190.6140  177.5270  144.2510 C   0  0  0  0  0  0  0  0  0  0  0  0
  191.3860  177.1600  142.0160 F   0  0  0  0  0  0  0  0  0  0  0  0
  189.7920  175.6240  142.8420 C   0  0  0  0  0  1  0  0  0  0  0  0
  192.0320  175.6920  143.5930 F   0  0  0  0  0  0  0  0  0  0  0  0
  190.9900  176.5010  143.1680 C   0  0  0  0  0  0  0  0  0  0  0  0
  1  2  1  1  0  0  0
  1 11  1  0  0  0  0
  1 25  1  0  0  0  0
  2  3  2  0  0  0  0
  4  3  1  0  0  0  0
  5  6  1  0  0  0  0
  5  4  1  0  0  0  0
  7 10  1  0  0  0  0
  8  7  2  0  0  0  0
  8  9  1  0  0  0  0
  9  5  2  0  0  0  0
 10  6  2  0  0  0  0
 12 11  1  0  0  0  0
 13 12  1  0  0  0  0
 14 13  1  0  0  0  0
 15 14  2  0  0  0  0
 16 14  1  0  0  0  0
 17 19  1  0  0  0  0
 17 16  1  0  0  0  0
 19 20  1  0  0  0  0
 19 18  1  1  0  0  0
 20 21  1  0  0  0  0
 21 24  1  0  0  0  0
 24 23  1  0  0  0  0
 24 22  1  1  0  0  0
 25 27  1  0  0  0  0
 26 27  2  0  0  0  0
 27 31  1  0  0  0  0
 28 29  2  0  0  0  0
 30 32  2  0  0  0  0
 30 29  1  0  0  0  0
 31 33  1  0  0  0  0
 31 34  2  0  0  0  0
 33 30  1  0  0  0  0
 34 28  1  0  0  0  0
 35 39  1  1  0  0  0
 35 37  1  0  0  0  0
 36 28  1  6  0  0  0
 36 35  1  0  0  0  0
 36 37  1  0  0  0  0
 37 38  1  0  0  0  0
 41 42  1  0  0  0  0
 41 40  1  0  0  0  0
 42 40  1  0  0  0  0
 42 39  1  0  0  0  0
 43 46  1  0  0  0  0
 44 46  1  0  0  0  0
 46 45  1  0  0  0  0
 46 42  1  0  0  0  0
M  END
>  <MODEL>
8

>  <REMARK>
 VINA RESULT:      -7.0      3.457      9.626
  Name = 
  19 active torsions:
  status: ('A' for Active; 'I' for Inactive)
    1  A    between atoms: C_2  and  C_22
    2  A    between atoms: C_2  and  O_38
    3  A    between atoms: C_3  and  N_40
    4  A    between atoms: C_7  and  C_21
    5  A    between atoms: C_8  and  C_35
    6  A    between atoms: C_8  and  C_39
    7  A    between atoms: C_12  and  N_17
    8  A    between atoms: C_12  and  C_36
    9  A    between atoms: C_14  and  C_35
   10  A    between atoms: C_14  and  O_38
   11  A    between atoms: C_16  and  N_42
   12  A    between atoms: C_18  and  C_29
   13  A    between atoms: C_18  and  N_42
   14  A    between atoms: O_19  and  C_43
   15  A    between atoms: O_19  and  C_44
   16  A    between atoms: C_24  and  C_44
   17  A    between atoms: C_27  and  C_43
   18  A    between atoms: C_31  and  N_40
   19  A    between atoms: C_36  and  C_44
                            x       y       z     vdW  Elec       q    Type
                         _______ _______ _______ _____ _____    ______ ____

>  <TORSDO>
F 19

$$$$
=
 OpenBabel11032421013D

 46 49  0  0  1  0  0  0  0  0999 V2000
  184.0000  179.1170  139.0010 C   0  0  2  0  0  3  0  0  0  0  0  0
  182.5930  179.4750  139.3350 C   0  0  0  0  0  3  0  0  0  0  0  0
  181.6850  178.5260  139.5050 C   0  0  0  0  0  3  0  0  0  0  0  0
  180.3370  178.8730  139.8130 N   0  0  0  0  0  2  0  0  0  0  0  0
  179.8810  179.0990  141.1490 C   0  0  0  0  0  0  0  0  0  0  0  0
  179.8800  178.0380  142.0620 C   0  0  0  0  0  3  0  0  0  0  0  0
  178.9750  179.4910  143.7750 C   0  0  0  0  0  3  0  0  0  0  0  0
  178.9740  180.5580  142.8690 C   0  0  0  0  0  3  0  0  0  0  0  0
  179.4270  180.3630  141.5610 C   0  0  0  0  0  3  0  0  0  0  0  0
  179.4280  178.2330  143.3710 C   0  0  0  0  0  3  0  0  0  0  0  0
  184.1560  177.6110  139.0970 C   0  0  0  0  0  2  0  0  0  0  0  0
  184.3930  177.0200  137.7180 C   0  0  0  0  0  2  0  0  0  0  0  0
  185.8060  177.1000  137.3770 N   0  0  0  0  0  2  0  0  0  0  0  0
  186.5330  175.9930  136.8430 C   0  0  0  0  0  0  0  0  0  0  0  0
  185.9630  174.8890  136.6350 O   0  0  0  0  0  0  0  0  0  0  0  0
  187.9670  176.1580  136.4840 C   0  0  0  0  0  2  0  0  0  0  0  0
  188.7340  175.2140  137.1690 O   0  0  0  0  0  0  0  0  0  0  0  0
  190.9010  174.1950  137.0890 C   0  0  0  0  0  1  0  0  0  0  0  0
  190.0270  175.3620  136.6580 C   0  0  2  0  0  3  0  0  0  0  0  0
  190.6340  176.7020  137.0850 C   0  0  0  0  0  2  0  0  0  0  0  0
  191.4660  176.6060  138.3610 C   0  0  0  0  0  2  0  0  0  0  0  0
  191.8400  177.4880  140.6460 C   0  0  0  0  0  1  0  0  0  0  0  0
  189.6530  176.9890  139.8640 O   0  0  0  0  0  1  0  0  0  0  0  0
  190.8940  177.4820  139.4620 C   0  0  2  0  0  3  0  0  0  0  0  0
  184.8920  179.7410  139.9210 O   0  0  0  0  0  0  0  0  0  0  0  0
  186.8070  178.5760  140.4790 O   0  0  0  0  0  0  0  0  0  0  0  0
  185.6800  179.0220  140.8260 C   0  0  0  0  0  0  0  0  0  0  0  0
  185.5750  177.8830  144.3960 C   0  0  0  0  0  0  0  0  0  0  0  0
  184.3800  178.2520  144.8600 C   0  0  0  0  0  3  0  0  0  0  0  0
  183.4260  178.9230  143.9760 C   0  0  0  0  0  0  0  0  0  0  0  0
  185.1810  178.7860  142.1850 C   0  0  0  0  0  0  0  0  0  0  0  0
  182.2910  179.2450  144.4140 O   0  0  0  0  0  0  0  0  0  0  0  0
  183.7880  179.2410  142.5560 C   0  0  0  0  0  2  0  0  0  0  0  0
  185.9520  178.1810  143.0440 N   0  0  0  0  0  0  0  0  0  0  0  0
  187.8730  177.9530  145.2630 C   0  0  1  0  0  3  0  0  0  0  0  0
  186.5830  177.2680  145.3300 C   0  0  1  0  0  3  0  0  0  0  0  0
  187.0090  178.1680  146.4310 N   0  0  0  0  0  0  0  0  0  0  0  0
  186.5010  179.4160  146.2870 F   0  0  0  0  0  0  0  0  0  0  0  0
  188.9320  177.0180  145.6100 N   0  0  0  0  0  2  0  0  0  0  0  0
  189.3790  177.6930  143.2750 C   0  0  0  0  0  2  0  0  0  0  0  0
  189.3530  176.1680  143.2800 C   0  0  0  0  0  2  0  0  0  0  0  0
  189.8610  176.9290  144.4870 C   0  0  0  0  0  0  0  0  0  0  0  0
  192.0510  176.2730  143.7840 F   0  0  0  0  0  0  0  0  0  0  0  0
  191.6860  176.3850  146.1160 C   0  0  0  0  0  1  0  0  0  0  0  0
  191.8280  178.2990  144.7350 F   0  0  0  0  0  0  0  0  0  0  0  0
  191.3740  176.9890  144.7570 C   0  0  0  0  0  0  0  0  0  0  0  0
  1 11  1  1  0  0  0
  1  2  1  0  0  0  0
  1 25  1  0  0  0  0
  2  3  2  0  0  0  0
  3  4  1  0  0  0  0
  4  5  1  0  0  0  0
  5  9  2  0  0  0  0
  5  6  1  0  0  0  0
  6 10  2  0  0  0  0
  8  7  2  0  0  0  0
  9  8  1  0  0  0  0
 10  7  1  0  0  0  0
 12 11  1  0  0  0  0
 13 12  1  0  0  0  0
 14 13  1  0  0  0  0
 15 14  2  0  0  0  0
 16 14  1  0  0  0  0
 16 17  1  0  0  0  0
 19 20  1  0  0  0  0
 19 18  1  1  0  0  0
 19 17  1  0  0  0  0
 20 21  1  0  0  0  0
 21 24  1  0  0  0  0
 24 23  1  0  0  0  0
 24 22  1  1  0  0  0
 25 27  1  0  0  0  0
 26 27  2  0  0  0  0
 27 31  1  0  0  0  0
 28 29  2  0  0  0  0
 30 32  2  0  0  0  0
 30 29  1  0  0  0  0
 31 33  1  0  0  0  0
 31 34  2  0  0  0  0
 33 30  1  0  0  0  0
 34 28  1  0  0  0  0
 35 36  1  0  0  0  0
 35 39  1  1  0  0  0
 35 37  1  0  0  0  0
 36 28  1  6  0  0  0
 36 37  1  0  0  0  0
 38 37  1  0  0  0  0
 40 41  1  0  0  0  0
 40 42  1  0  0  0  0
 41 42  1  0  0  0  0
 42 46  1  0  0  0  0
 42 39  1  0  0  0  0
 43 46  1  0  0  0  0
 45 46  1  0  0  0  0
 46 44  1  0  0  0  0
M  END
>  <MODEL>
9

>  <REMARK>
 VINA RESULT:      -7.0      3.023      9.432
  Name = 
  19 active torsions:
  status: ('A' for Active; 'I' for Inactive)
    1  A    between atoms: C_2  and  C_22
    2  A    between atoms: C_2  and  O_38
    3  A    between atoms: C_3  and  N_40
    4  A    between atoms: C_7  and  C_21
    5  A    between atoms: C_8  and  C_35
    6  A    between atoms: C_8  and  C_39
    7  A    between atoms: C_12  and  N_17
    8  A    between atoms: C_12  and  C_36
    9  A    between atoms: C_14  and  C_35
   10  A    between atoms: C_14  and  O_38
   11  A    between atoms: C_16  and  N_42
   12  A    between atoms: C_18  and  C_29
   13  A    between atoms: C_18  and  N_42
   14  A    between atoms: O_19  and  C_43
   15  A    between atoms: O_19  and  C_44
   16  A    between atoms: C_24  and  C_44
   17  A    between atoms: C_27  and  C_43
   18  A    between atoms: C_31  and  N_40
   19  A    between atoms: C_36  and  C_44
                            x       y       z     vdW  Elec       q    Type
                         _______ _______ _______ _____ _____    ______ ____

>  <TORSDO>
F 19

$$$$
