=
 OpenBabel11032421063D

 59 63  0  0  1  0  0  0  0  0999 V2000
  187.0760  176.9120  136.3200 C   0  0  0  0  0  2  0  0  0  0  0  0
  187.5110  177.5420  138.6700 C   0  0  0  0  0  2  0  0  0  0  0  0
  190.8460  176.6690  136.9650 C   0  0  0  0  0  3  0  0  0  0  0  0
  192.2490  177.1610  140.1850 N   0  0  0  0  0  0  0  0  0  0  0  0
  191.2270  177.1260  139.3060 C   0  0  0  0  0  0  0  0  0  0  0  0
  186.7940  177.9480  137.3930 C   0  0  0  0  0  2  0  0  0  0  0  0
  188.9830  177.2930  138.4480 C   0  0  0  0  0  0  0  0  0  0  0  0
  189.4670  176.9110  137.1550 C   0  0  0  0  0  0  0  0  0  0  0  0
  191.6830  176.7740  138.0690 C   0  0  0  0  0  0  0  0  0  0  0  0
  189.8790  177.3860  139.5460 C   0  0  0  0  0  0  0  0  0  0  0  0
  193.0350  176.5920  138.2310 C   0  0  0  0  0  0  0  0  0  0  0  0
  193.3560  176.8300  139.5240 N   0  0  0  0  0  2  0  0  0  0  0  0
  188.5560  176.9420  135.9450 C   0  0  1  0  0  3  0  0  0  0  0  0
  194.7640  175.8600  136.3680 C   0  0  0  0  0  0  0  0  0  0  0  0
  195.7120  175.4490  135.3360 C   0  0  0  0  0  1  0  0  0  0  0  0
  193.9790  176.1940  137.2190 C   0  0  0  0  0  0  0  0  0  0  0  0
  189.4290  177.7850  140.8860 C   0  0  0  0  0  3  0  0  0  0  0  0
  188.9740  176.8800  141.7440 C   0  0  0  0  0  3  0  0  0  0  0  0
  188.4600  177.2420  143.0710 C   0  0  0  0  0  0  0  0  0  0  0  0
  187.1040  177.5480  143.2090 C   0  0  0  0  0  3  0  0  0  0  0  0
  188.7880  177.7090  145.4260 C   0  0  0  0  0  3  0  0  0  0  0  0
  186.5750  177.9360  144.4500 C   0  0  0  0  0  0  0  0  0  0  0  0
  189.3000  177.3180  144.1900 C   0  0  0  0  0  3  0  0  0  0  0  0
  187.4290  178.0340  145.5620 C   0  0  0  0  0  0  0  0  0  0  0  0
  186.8740  178.4400  146.8960 C   0  0  0  0  0  3  0  0  0  0  0  0
  187.7030  177.8700  148.0250 C   0  0  0  0  0  1  0  0  0  0  0  0
  185.4330  177.9790  147.0330 C   0  0  0  0  0  1  0  0  0  0  0  0
  185.2070  178.2200  144.6040 O   0  0  0  0  0  0  0  0  0  0  0  0
  183.1650  179.5450  144.7520 C   0  0  0  0  0  2  0  0  0  0  0  0
  183.2460  178.2060  140.7620 O   0  0  0  0  0  1  0  0  0  0  0  0
  183.2360  178.6850  142.0300 N   0  0  0  0  0  0  0  0  0  0  0  0
  185.5240  179.3870  141.8540 C   0  0  0  0  0  2  0  0  0  0  0  0
  185.3030  180.5100  144.3990 F   0  0  0  0  0  0  0  0  0  0  0  0
  182.1730  178.5100  144.2300 C   0  0  0  0  0  2  0  0  0  0  0  0
  184.5480  179.3860  144.1040 C   0  0  1  0  0  0  0  0  0  0  0  0
  181.9640  178.7530  142.7420 C   0  0  0  0  0  2  0  0  0  0  0  0
  184.4280  179.2550  142.6040 C   0  0  0  0  0  0  0  0  0  0  0  0
  188.8520  175.8210  134.9560 C   0  0  0  0  0  2  0  0  0  0  0  0
  187.8460  173.5460  136.3450 O   0  0  0  0  0  0  0  0  0  0  0  0
  187.1890  173.9650  135.3530 C   0  0  0  0  0  0  0  0  0  0  0  0
  187.6230  175.1210  134.6380 N   0  0  0  0  0  2  0  0  0  0  0  0
  186.0200  173.3160  134.9490 O   0  0  0  0  0  0  0  0  0  0  0  0
  185.7380  171.9570  135.2750 C   0  0  1  0  0  3  0  0  0  0  0  0
  186.9450  171.3360  135.9800 C   0  0  0  0  0  2  0  0  0  0  0  0
  187.3410  170.0200  135.3780 C   0  0  0  0  0  3  0  0  0  0  0  0
  188.4920  169.8270  134.7500 C   0  0  0  0  0  3  0  0  0  0  0  0
  189.4170  170.8500  134.6130 O   0  0  0  0  0  1  0  0  0  0  0  0
  184.4670  171.9040  136.1350 C   0  0  1  0  0  3  0  0  0  0  0  0
  184.8510  173.1580  138.1400 O   0  0  0  0  0  0  0  0  0  0  0  0
  183.5800  174.2450  136.5020 N   0  0  0  0  0  2  0  0  0  0  0  0
  184.3100  173.1180  137.0010 C   0  0  0  0  0  0  0  0  0  0  0  0
  183.3260  175.4650  137.2560 C   0  0  0  0  0  3  0  0  0  0  0  0
  182.6590  176.5150  136.3830 C   0  0  0  0  0  1  0  0  0  0  0  0
  182.4770  175.1820  138.4830 C   0  0  0  0  0  1  0  0  0  0  0  0
  183.3130  171.6960  135.3250 O   0  0  0  0  0  0  0  0  0  0  0  0
  182.1910  171.0000  135.7860 C   0  0  0  0  0  0  0  0  0  0  0  0
  181.8040  169.9090  135.1460 C   0  0  0  0  0  2  0  0  0  0  0  0
  181.3930  171.4760  136.9570 C   0  0  0  0  0  2  0  0  0  0  0  0
  179.9250  171.1390  136.7580 C   0  0  0  0  0  1  0  0  0  0  0  0
  1  6  1  0  0  0  0
  3  8  2  0  0  0  0
  3  9  1  0  0  0  0
  5 10  1  0  0  0  0
  5  4  2  0  0  0  0
  6  2  1  0  0  0  0
  7  2  1  0  0  0  0
  7 10  2  0  0  0  0
  8  7  1  0  0  0  0
  9 11  2  0  0  0  0
  9  5  1  0  0  0  0
 10 17  1  0  0  0  0
 11 12  1  0  0  0  0
 12  4  1  0  0  0  0
 13 38  1  6  0  0  0
 13  1  1  0  0  0  0
 13  8  1  0  0  0  0
 14 16  3  0  0  0  0
 15 14  1  0  0  0  0
 16 11  1  0  0  0  0
 17 18  2  0  0  0  0
 18 19  1  0  0  0  0
 19 20  2  0  0  0  0
 19 23  1  0  0  0  0
 20 22  1  0  0  0  0
 21 24  1  0  0  0  0
 22 28  1  0  0  0  0
 22 24  2  0  0  0  0
 23 21  2  0  0  0  0
 24 25  1  0  0  0  0
 25 27  1  0  0  0  0
 25 26  1  0  0  0  0
 30 31  1  0  0  0  0
 31 37  1  0  0  0  0
 31 36  1  0  0  0  0
 32 37  2  0  0  0  0
 34 29  1  0  0  0  0
 35 33  1  1  0  0  0
 35 28  1  0  0  0  0
 35 29  1  0  0  0  0
 36 34  1  0  0  0  0
 37 35  1  0  0  0  0
 40 39  2  0  0  0  0
 41 38  1  0  0  0  0
 41 40  1  0  0  0  0
 42 43  1  0  0  0  0
 42 40  1  0  0  0  0
 43 44  1  1  0  0  0
 43 48  1  0  0  0  0
 45 44  1  0  0  0  0
 46 45  2  0  0  0  0
 47 46  1  0  0  0  0
 48 55  1  6  0  0  0
 48 51  1  0  0  0  0
 50 51  1  0  0  0  0
 50 52  1  0  0  0  0
 51 49  2  0  0  0  0
 52 54  1  0  0  0  0
 53 52  1  0  0  0  0
 55 56  1  0  0  0  0
 56 58  1  0  0  0  0
 57 56  2  0  0  0  0
 59 58  1  0  0  0  0
M  END
>  <MODEL>
1

>  <REMARK>
 VINA RESULT:      -7.6      0.000      0.000
  Name = 
  18 active torsions:
  status: ('A' for Active; 'I' for Inactive)
    1  A    between atoms: O_1  and  C_3
    2  A    between atoms: O_1  and  C_22
    3  A    between atoms: C_2  and  N_34
    4  A    between atoms: C_3  and  C_4
    5  A    between atoms: C_5  and  C_35
    6  A    between atoms: C_5  and  C_49
    7  A    between atoms: C_7  and  C_39
    8  A    between atoms: O_15  and  C_25
    9  A    between atoms: O_15  and  C_40
   10  A    between atoms: C_19  and  O_45
   11  A    between atoms: C_22  and  C_38
   12  A    between atoms: C_22  and  C_49
   13  A    between atoms: C_23  and  C_55
   14  A    between atoms: C_30  and  C_36
   15  A    between atoms: C_41  and  C_53
   16  A    between atoms: C_41  and  N_58
   17  A    between atoms: C_44  and  C_52
   18  A    between atoms: O_45  and  C_49
                            x       y       z     vdW  Elec       q    Type
                         _______ _______ _______ _____ _____    ______ ____

>  <TORSDO>
F 18

$$$$
=
 OpenBabel11032421063D

 59 63  0  0  1  0  0  0  0  0999 V2000
  179.8760  178.5830  142.2070 C   0  0  0  0  0  2  0  0  0  0  0  0
  182.0560  178.8160  143.3460 C   0  0  0  0  0  2  0  0  0  0  0  0
  182.6530  178.3250  139.5790 C   0  0  0  0  0  3  0  0  0  0  0  0
  186.0890  178.2980  140.4550 N   0  0  0  0  0  0  0  0  0  0  0  0
  184.7730  178.3880  140.7340 C   0  0  0  0  0  0  0  0  0  0  0  0
  180.6670  179.4140  143.1990 C   0  0  0  0  0  2  0  0  0  0  0  0
  182.7520  178.6430  142.0180 C   0  0  0  0  0  0  0  0  0  0  0  0
  181.9890  178.4980  140.8130 C   0  0  1  0  0  3  0  0  0  0  0  0
  184.0410  178.2620  139.5900 C   0  0  0  0  0  0  0  0  0  0  0  0
  184.1690  178.5710  141.9780 C   0  0  0  0  0  0  0  0  0  0  0  0
  184.9710  178.0880  138.5940 C   0  0  0  0  0  0  0  0  0  0  0  0
  186.2080  178.1110  139.1430 N   0  0  0  0  0  0  0  0  0  0  0  0
  180.4890  178.7110  140.8150 C   0  0  1  0  0  3  0  0  0  0  0  0
  184.4920  177.7220  136.0190 C   0  0  0  0  0  0  0  0  0  0  0  0
  184.2370  177.5190  134.5950 C   0  0  0  0  0  1  0  0  0  0  0  0
  184.7070  177.8910  137.1930 C   0  0  0  0  0  0  0  0  0  0  0  0
  184.9910  178.7250  143.1840 C   0  0  0  0  0  3  0  0  0  0  0  0
  185.7250  177.7170  143.6370 C   0  0  0  0  0  3  0  0  0  0  0  0
  186.5150  177.8090  144.8710 C   0  0  0  0  0  0  0  0  0  0  0  0
  187.7810  177.2190  144.9080 C   0  0  0  0  0  3  0  0  0  0  0  0
  186.7760  178.4740  147.1870 C   0  0  0  0  0  3  0  0  0  0  0  0
  188.5570  177.2480  146.0780 C   0  0  0  0  0  0  0  0  0  0  0  0
  186.0180  178.4440  146.0170 C   0  0  0  0  0  3  0  0  0  0  0  0
  188.0410  177.8650  147.2310 C   0  0  0  0  0  0  0  0  0  0  0  0
  188.8630  177.9110  148.4850 C   0  0  0  0  0  3  0  0  0  0  0  0
  187.9850  178.0770  149.7050 C   0  0  0  0  0  1  0  0  0  0  0  0
  189.8700  179.0470  148.4180 C   0  0  0  0  0  1  0  0  0  0  0  0
  189.8420  176.6810  146.1160 O   0  0  0  0  0  0  0  0  0  0  0  0
  190.7400  178.6230  144.9470 C   0  0  0  0  0  2  0  0  0  0  0  0
  190.5410  175.6320  141.9910 O   0  0  0  0  0  1  0  0  0  0  0  0
  190.6580  176.5870  142.9450 N   0  0  0  0  0  0  0  0  0  0  0  0
  191.7330  175.0520  144.4440 C   0  0  0  0  0  2  0  0  0  0  0  0
  192.0890  177.1600  146.2370 F   0  0  0  0  0  0  0  0  0  0  0  0
  189.7390  178.6910  143.7980 C   0  0  0  0  0  2  0  0  0  0  0  0
  190.9800  177.1770  145.4070 C   0  0  1  0  0  0  0  0  0  0  0  0
  190.3320  177.9660  142.5980 C   0  0  0  0  0  2  0  0  0  0  0  0
  191.2350  176.2710  144.2260 C   0  0  0  0  0  0  0  0  0  0  0  0
  179.7620  177.7830  139.8510 C   0  0  0  0  0  2  0  0  0  0  0  0
  179.7920  175.2610  138.5240 O   0  0  0  0  0  0  0  0  0  0  0  0
  180.6430  176.1210  138.1680 C   0  0  0  0  0  0  0  0  0  0  0  0
  180.6560  177.4140  138.7700 N   0  0  0  0  0  2  0  0  0  0  0  0
  181.5740  175.8270  137.1690 O   0  0  0  0  0  0  0  0  0  0  0  0
  181.2290  175.1460  135.9650 C   0  0  1  0  0  3  0  0  0  0  0  0
  180.8900  176.1670  134.8770 C   0  0  0  0  0  2  0  0  0  0  0  0
  179.5030  176.7190  135.0260 C   0  0  0  0  0  3  0  0  0  0  0  0
  179.2550  177.9720  135.3800 C   0  0  0  0  0  3  0  0  0  0  0  0
  180.2850  178.8640  135.6350 O   0  0  0  0  0  1  0  0  0  0  0  0
  182.3890  174.2250  135.5620 C   0  0  1  0  0  3  0  0  0  0  0  0
  183.3260  174.3610  137.7630 O   0  0  0  0  0  0  0  0  0  0  0  0
  184.8780  174.2530  136.0150 N   0  0  0  0  0  2  0  0  0  0  0  0
  183.5400  174.3000  136.5210 C   0  0  0  0  0  0  0  0  0  0  0  0
  186.0770  174.3540  136.8350 C   0  0  0  0  0  3  0  0  0  0  0  0
  186.4310  173.0110  137.4500 C   0  0  0  0  0  1  0  0  0  0  0  0
  187.2460  174.8900  136.0280 C   0  0  0  0  0  1  0  0  0  0  0  0
  181.9400  172.8820  135.4010 O   0  0  0  0  0  0  0  0  0  0  0  0
  181.8260  171.9970  136.4780 C   0  0  0  0  0  0  0  0  0  0  0  0
  180.7390  172.0380  137.2310 C   0  0  0  0  0  2  0  0  0  0  0  0
  182.9150  171.0340  136.8260 C   0  0  0  0  0  2  0  0  0  0  0  0
  183.7440  170.7170  135.5920 C   0  0  0  0  0  1  0  0  0  0  0  0
  1  6  1  0  0  0  0
  3  9  2  0  0  0  0
  4  5  2  0  0  0  0
  5 10  1  0  0  0  0
  6  2  1  0  0  0  0
  7  2  1  0  0  0  0
  8  3  1  6  0  0  0
  8 13  1  0  0  0  0
  8  7  1  0  0  0  0
  9  5  1  0  0  0  0
 10  7  2  0  0  0  0
 10 17  1  0  0  0  0
 11 12  2  0  0  0  0
 11  9  1  0  0  0  0
 12  4  1  0  0  0  0
 13 38  1  6  0  0  0
 13  1  1  0  0  0  0
 14 16  3  0  0  0  0
 15 14  1  0  0  0  0
 16 11  1  0  0  0  0
 17 18  2  0  0  0  0
 18 19  1  0  0  0  0
 19 20  2  0  0  0  0
 19 23  1  0  0  0  0
 20 22  1  0  0  0  0
 21 24  1  0  0  0  0
 22 28  1  0  0  0  0
 22 24  2  0  0  0  0
 23 21  2  0  0  0  0
 24 25  1  0  0  0  0
 25 26  1  0  0  0  0
 27 25  1  0  0  0  0
 29 35  1  0  0  0  0
 30 31  1  0  0  0  0
 31 37  1  0  0  0  0
 34 29  1  0  0  0  0
 35 28  1  0  0  0  0
 35 33  1  1  0  0  0
 36 31  1  0  0  0  0
 36 34  1  0  0  0  0
 37 32  2  0  0  0  0
 37 35  1  0  0  0  0
 40 39  2  0  0  0  0
 40 41  1  0  0  0  0
 41 38  1  0  0  0  0
 42 40  1  0  0  0  0
 43 44  1  6  0  0  0
 43 42  1  0  0  0  0
 44 45  1  0  0  0  0
 45 46  2  0  0  0  0
 46 47  1  0  0  0  0
 48 55  1  1  0  0  0
 48 43  1  0  0  0  0
 48 51  1  0  0  0  0
 50 51  1  0  0  0  0
 50 52  1  0  0  0  0
 51 49  2  0  0  0  0
 52 53  1  0  0  0  0
 54 52  1  0  0  0  0
 55 56  1  0  0  0  0
 56 58  1  0  0  0  0
 56 57  2  0  0  0  0
 59 58  1  0  0  0  0
M  END
>  <MODEL>
2

>  <REMARK>
 VINA RESULT:      -7.0      3.407      6.878
  Name = 
  18 active torsions:
  status: ('A' for Active; 'I' for Inactive)
    1  A    between atoms: O_1  and  C_3
    2  A    between atoms: O_1  and  C_22
    3  A    between atoms: C_2  and  N_34
    4  A    between atoms: C_3  and  C_4
    5  A    between atoms: C_5  and  C_35
    6  A    between atoms: C_5  and  C_49
    7  A    between atoms: C_7  and  C_39
    8  A    between atoms: O_15  and  C_25
    9  A    between atoms: O_15  and  C_40
   10  A    between atoms: C_19  and  O_45
   11  A    between atoms: C_22  and  C_38
   12  A    between atoms: C_22  and  C_49
   13  A    between atoms: C_23  and  C_55
   14  A    between atoms: C_30  and  C_36
   15  A    between atoms: C_41  and  C_53
   16  A    between atoms: C_41  and  N_58
   17  A    between atoms: C_44  and  C_52
   18  A    between atoms: O_45  and  C_49
                            x       y       z     vdW  Elec       q    Type
                         _______ _______ _______ _____ _____    ______ ____

>  <TORSDO>
F 18

$$$$
=
 OpenBabel11032421063D

 59 63  0  0  1  0  0  0  0  0999 V2000
  187.2540  177.9260  136.5190 C   0  0  0  0  0  2  0  0  0  0  0  0
  187.8460  177.8210  138.9160 C   0  0  0  0  0  2  0  0  0  0  0  0
  190.9730  177.0500  136.8140 C   0  0  0  0  0  3  0  0  0  0  0  0
  192.5330  176.4520  139.9420 N   0  0  0  0  0  0  0  0  0  0  0  0
  191.4880  176.7890  139.1590 C   0  0  1  0  0  3  0  0  0  0  0  0
  187.1510  178.6510  137.8490 C   0  0  0  0  0  2  0  0  0  0  0  0
  189.2620  177.4630  138.5350 C   0  0  0  0  0  0  0  0  0  0  0  0
  189.6480  177.3980  137.1560 C   0  0  0  0  0  0  0  0  0  0  0  0
  191.8520  176.7410  137.8450 C   0  0  0  0  0  0  0  0  0  0  0  0
  190.1970  177.1370  139.5530 C   0  0  0  0  0  0  0  0  0  0  0  0
  193.1700  176.3550  137.8580 C   0  0  0  0  0  0  0  0  0  0  0  0
  193.5620  176.1840  139.1420 N   0  0  0  0  0  0  0  0  0  0  0  0
  188.7110  177.8760  136.0650 C   0  0  1  0  0  3  0  0  0  0  0  0
  194.7310  175.9590  135.7610 C   0  0  0  0  0  0  0  0  0  0  0  0
  195.6010  175.7420  134.6070 C   0  0  0  0  0  1  0  0  0  0  0  0
  194.0170  176.1400  136.7140 C   0  0  0  0  0  0  0  0  0  0  0  0
  189.8490  177.2010  140.9780 C   0  0  0  0  0  3  0  0  0  0  0  0
  190.7880  177.3980  141.8950 C   0  0  0  0  0  3  0  0  0  0  0  0
  190.4930  177.4100  143.3340 C   0  0  0  0  0  0  0  0  0  0  0  0
  189.2360  177.8410  143.7610 C   0  0  0  0  0  3  0  0  0  0  0  0
  191.1540  177.0980  145.6450 C   0  0  0  0  0  3  0  0  0  0  0  0
  188.9220  177.9060  145.1290 C   0  0  0  0  0  0  0  0  0  0  0  0
  191.4510  177.0310  144.2840 C   0  0  0  0  0  3  0  0  0  0  0  0
  189.8960  177.5480  146.0760 C   0  0  0  0  0  0  0  0  0  0  0  0
  189.5700  177.6050  147.5400 C   0  0  0  0  0  3  0  0  0  0  0  0
  190.8090  177.8850  148.3620 C   0  0  0  0  0  1  0  0  0  0  0  0
  188.9370  176.3010  147.9930 C   0  0  0  0  0  1  0  0  0  0  0  0
  187.6500  178.3130  145.5670 O   0  0  0  0  0  0  0  0  0  0  0  0
  186.4510  176.8280  144.0500 C   0  0  0  0  0  2  0  0  0  0  0  0
  183.9790  180.2220  144.3470 O   0  0  0  0  0  1  0  0  0  0  0  0
  184.7410  179.1030  144.2840 N   0  0  0  0  0  0  0  0  0  0  0  0
  184.9500  179.0300  146.6740 C   0  0  0  0  0  2  0  0  0  0  0  0
  186.3360  176.6220  146.4100 F   0  0  0  0  0  0  0  0  0  0  0  0
  186.2590  177.7890  142.8810 C   0  0  0  0  0  2  0  0  0  0  0  0
  186.4440  177.5630  145.3980 C   0  0  1  0  0  0  0  0  0  0  0  0
  184.8800  178.4230  143.0010 C   0  0  0  0  0  2  0  0  0  0  0  0
  185.2770  178.5170  145.4860 C   0  0  0  0  0  0  0  0  0  0  0  0
  188.8190  177.0460  134.7920 C   0  0  0  0  0  2  0  0  0  0  0  0
  186.0020  177.4280  134.5940 O   0  0  0  0  0  0  0  0  0  0  0  0
  186.4250  176.2490  134.7500 C   0  0  0  0  0  0  0  0  0  0  0  0
  187.8260  175.9900  134.8200 N   0  0  0  0  0  2  0  0  0  0  0  0
  185.5300  175.1800  134.8380 O   0  0  0  0  0  0  0  0  0  0  0  0
  184.3540  175.2190  135.6430 C   0  0  1  0  0  3  0  0  0  0  0  0
  183.2400  175.9480  134.8890 C   0  0  0  0  0  2  0  0  0  0  0  0
  182.4200  176.8230  135.7910 C   0  0  0  0  0  3  0  0  0  0  0  0
  182.8650  177.2900  136.9490 C   0  0  0  0  0  3  0  0  0  0  0  0
  184.1420  176.9950  137.4000 O   0  0  0  0  0  1  0  0  0  0  0  0
  183.9620  173.7840  136.0230 C   0  0  1  0  0  3  0  0  0  0  0  0
  185.6090  173.0060  137.5800 O   0  0  0  0  0  0  0  0  0  0  0  0
  185.7160  172.0550  135.4440 N   0  0  0  0  0  2  0  0  0  0  0  0
  185.1470  172.9490  136.4070 C   0  0  0  0  0  0  0  0  0  0  0  0
  186.8860  171.2200  135.6790 C   0  0  0  0  0  3  0  0  0  0  0  0
  186.7530  169.8830  134.9700 C   0  0  0  0  0  1  0  0  0  0  0  0
  188.1570  171.9270  135.2420 C   0  0  0  0  0  1  0  0  0  0  0  0
  182.9750  173.7810  137.0510 O   0  0  0  0  0  0  0  0  0  0  0  0
  181.8010  173.0270  136.9590 C   0  0  0  0  0  0  0  0  0  0  0  0
  181.8720  171.7780  136.5290 C   0  0  0  0  0  2  0  0  0  0  0  0
  180.4640  173.6050  137.2940 C   0  0  0  0  0  2  0  0  0  0  0  0
  180.6090  174.6550  138.3820 C   0  0  0  0  0  1  0  0  0  0  0  0
  1  6  1  0  0  0  0
  3  8  2  0  0  0  0
  3  9  1  0  0  0  0
  5  9  1  6  0  0  0
  5 10  1  0  0  0  0
  5  4  1  0  0  0  0
  6  2  1  0  0  0  0
  7  2  1  0  0  0  0
  7 10  2  0  0  0  0
  8  7  1  0  0  0  0
  9 11  2  0  0  0  0
 10 17  1  0  0  0  0
 11 12  1  0  0  0  0
 12  4  2  0  0  0  0
 13 38  1  6  0  0  0
 13  1  1  0  0  0  0
 13  8  1  0  0  0  0
 14 16  3  0  0  0  0
 15 14  1  0  0  0  0
 16 11  1  0  0  0  0
 17 18  2  0  0  0  0
 18 19  1  0  0  0  0
 19 20  2  0  0  0  0
 19 23  1  0  0  0  0
 20 22  1  0  0  0  0
 21 24  1  0  0  0  0
 22 28  1  0  0  0  0
 22 24  2  0  0  0  0
 23 21  2  0  0  0  0
 24 25  1  0  0  0  0
 25 27  1  0  0  0  0
 25 26  1  0  0  0  0
 29 35  1  0  0  0  0
 31 30  1  0  0  0  0
 31 37  1  0  0  0  0
 34 36  1  0  0  0  0
 34 29  1  0  0  0  0
 35 37  1  0  0  0  0
 35 28  1  0  0  0  0
 35 33  1  1  0  0  0
 36 31  1  0  0  0  0
 37 32  2  0  0  0  0
 38 41  1  0  0  0  0
 39 40  2  0  0  0  0
 40 41  1  0  0  0  0
 40 42  1  0  0  0  0
 42 43  1  0  0  0  0
 43 44  1  6  0  0  0
 43 48  1  0  0  0  0
 44 45  1  0  0  0  0
 45 46  2  0  0  0  0
 46 47  1  0  0  0  0
 48 51  1  1  0  0  0
 48 55  1  0  0  0  0
 50 52  1  0  0  0  0
 50 51  1  0  0  0  0
 51 49  2  0  0  0  0
 53 52  1  0  0  0  0
 54 52  1  0  0  0  0
 56 55  1  0  0  0  0
 56 58  1  0  0  0  0
 57 56  2  0  0  0  0
 58 59  1  0  0  0  0
M  END
>  <MODEL>
3

>  <REMARK>
 VINA RESULT:      -6.1      1.802      3.546
  Name = 
  18 active torsions:
  status: ('A' for Active; 'I' for Inactive)
    1  A    between atoms: O_1  and  C_3
    2  A    between atoms: O_1  and  C_22
    3  A    between atoms: C_2  and  N_34
    4  A    between atoms: C_3  and  C_4
    5  A    between atoms: C_5  and  C_35
    6  A    between atoms: C_5  and  C_49
    7  A    between atoms: C_7  and  C_39
    8  A    between atoms: O_15  and  C_25
    9  A    between atoms: O_15  and  C_40
   10  A    between atoms: C_19  and  O_45
   11  A    between atoms: C_22  and  C_38
   12  A    between atoms: C_22  and  C_49
   13  A    between atoms: C_23  and  C_55
   14  A    between atoms: C_30  and  C_36
   15  A    between atoms: C_41  and  C_53
   16  A    between atoms: C_41  and  N_58
   17  A    between atoms: C_44  and  C_52
   18  A    between atoms: O_45  and  C_49
                            x       y       z     vdW  Elec       q    Type
                         _______ _______ _______ _____ _____    ______ ____

>  <TORSDO>
F 18

$$$$
=
 OpenBabel11032421063D

 59 63  0  0  1  0  0  0  0  0999 V2000
  186.3800  178.1620  136.3600 C   0  0  0  0  0  2  0  0  0  0  0  0
  186.8890  178.1280  138.7780 C   0  0  0  0  0  2  0  0  0  0  0  0
  190.0900  177.3140  136.8080 C   0  0  0  0  0  3  0  0  0  0  0  0
  191.5430  176.8130  140.0040 N   0  0  0  0  0  0  0  0  0  0  0  0
  190.5250  177.1220  139.1750 C   0  0  0  0  0  0  0  0  0  0  0  0
  186.2280  178.9230  137.6640 C   0  0  0  0  0  2  0  0  0  0  0  0
  188.3190  177.7670  138.4560 C   0  0  0  0  0  0  0  0  0  0  0  0
  188.7520  177.6650  137.0940 C   0  0  0  0  0  0  0  0  0  0  0  0
  190.9340  177.0380  137.8770 C   0  0  0  0  0  0  0  0  0  0  0  0
  189.2190  177.4740  139.5150 C   0  0  0  0  0  0  0  0  0  0  0  0
  192.2520  176.6600  137.9460 C   0  0  0  0  0  0  0  0  0  0  0  0
  192.6000  176.5270  139.2480 N   0  0  0  0  0  2  0  0  0  0  0  0
  187.8520  178.1060  135.9580 C   0  0  1  0  0  3  0  0  0  0  0  0
  193.8780  176.2090  135.9100 C   0  0  0  0  0  0  0  0  0  0  0  0
  194.7740  175.9510  134.7850 C   0  0  0  0  0  1  0  0  0  0  0  0
  193.1390  176.4170  136.8390 C   0  0  0  0  0  0  0  0  0  0  0  0
  188.8220  177.5760  140.9240 C   0  0  0  0  0  3  0  0  0  0  0  0
  187.5530  177.7790  141.2580 C   0  0  0  0  0  3  0  0  0  0  0  0
  187.1220  177.9450  142.6510 C   0  0  0  0  0  0  0  0  0  0  0  0
  187.9870  177.5580  143.6760 C   0  0  0  0  0  3  0  0  0  0  0  0
  185.4590  178.5540  144.3060 C   0  0  0  0  0  3  0  0  0  0  0  0
  187.6030  177.6630  145.0230 C   0  0  0  0  0  0  0  0  0  0  0  0
  185.8550  178.4510  142.9730 C   0  0  0  0  0  3  0  0  0  0  0  0
  186.3220  178.1490  145.3370 C   0  0  0  0  0  0  0  0  0  0  0  0
  185.9020  178.2730  146.7720 C   0  0  0  0  0  3  0  0  0  0  0  0
  184.3960  178.2470  146.9020 C   0  0  0  0  0  1  0  0  0  0  0  0
  186.4480  179.5580  147.3740 C   0  0  0  0  0  1  0  0  0  0  0  0
  188.4770  177.3020  146.0620 O   0  0  0  0  0  0  0  0  0  0  0  0
  190.5990  177.9300  145.0370 C   0  0  0  0  0  2  0  0  0  0  0  0
  191.6620  175.1110  147.9770 O   0  0  0  0  0  1  0  0  0  0  0  0
  191.3370  176.0570  147.0630 N   0  0  0  0  0  0  0  0  0  0  0  0
  189.9850  177.2320  148.6600 C   0  0  0  0  0  2  0  0  0  0  0  0
  189.5630  179.2140  146.7410 F   0  0  0  0  0  0  0  0  0  0  0  0
  191.1070  176.5380  144.6720 C   0  0  0  0  0  2  0  0  0  0  0  0
  189.7470  177.9080  146.3150 C   0  0  1  0  0  0  0  0  0  0  0  0
  192.0330  176.0580  145.7800 C   0  0  0  0  0  2  0  0  0  0  0  0
  190.4360  177.1260  147.4080 C   0  0  0  0  0  0  0  0  0  0  0  0
  188.0070  177.2420  134.7140 C   0  0  0  0  0  2  0  0  0  0  0  0
  185.1630  177.4180  134.6670 O   0  0  0  0  0  0  0  0  0  0  0  0
  185.6780  176.2740  134.7980 C   0  0  0  0  0  0  0  0  0  0  0  0
  187.0960  176.1160  134.7930 N   0  0  0  0  0  2  0  0  0  0  0  0
  184.8690  175.1430  134.9320 O   0  0  0  0  0  0  0  0  0  0  0  0
  183.6150  175.1630  135.6110 C   0  0  1  0  0  3  0  0  0  0  0  0
  182.4790  175.0570  134.5940 C   0  0  0  0  0  2  0  0  0  0  0  0
  181.2410  175.7750  135.0450 C   0  0  0  0  0  3  0  0  0  0  0  0
  180.1300  175.1490  135.4050 C   0  0  0  0  0  3  0  0  0  0  0  0
  180.0470  173.7650  135.3880 O   0  0  0  0  0  1  0  0  0  0  0  0
  183.5880  174.0250  136.6410 C   0  0  1  0  0  3  0  0  0  0  0  0
  184.1850  171.8170  135.9260 O   0  0  0  0  0  0  0  0  0  0  0  0
  185.9810  173.2250  136.4470 N   0  0  0  0  0  2  0  0  0  0  0  0
  184.5810  172.9450  136.3290 C   0  0  0  0  0  0  0  0  0  0  0  0
  187.0410  172.2560  136.2100 C   0  0  0  0  0  3  0  0  0  0  0  0
  187.8970  172.6650  135.0230 C   0  0  0  0  0  1  0  0  0  0  0  0
  187.9040  172.0780  137.4470 C   0  0  0  0  0  1  0  0  0  0  0  0
  183.7720  174.5280  137.9610 O   0  0  0  0  0  0  0  0  0  0  0  0
  182.9160  175.4780  138.5260 C   0  0  0  0  0  0  0  0  0  0  0  0
  183.3970  176.6680  138.8450 C   0  0  0  0  0  2  0  0  0  0  0  0
  181.4810  175.1740  138.8150 C   0  0  0  0  0  2  0  0  0  0  0  0
  180.9540  176.1200  139.8810 C   0  0  0  0  0  1  0  0  0  0  0  0
  1  6  1  0  0  0  0
  3  8  2  0  0  0  0
  3  9  1  0  0  0  0
  5 10  1  0  0  0  0
  5  4  2  0  0  0  0
  6  2  1  0  0  0  0
  7  2  1  0  0  0  0
  7 10  2  0  0  0  0
  8  7  1  0  0  0  0
  9 11  2  0  0  0  0
  9  5  1  0  0  0  0
 10 17  1  0  0  0  0
 11 12  1  0  0  0  0
 12  4  1  0  0  0  0
 13 38  1  6  0  0  0
 13  1  1  0  0  0  0
 13  8  1  0  0  0  0
 14 16  3  0  0  0  0
 15 14  1  0  0  0  0
 16 11  1  0  0  0  0
 17 18  2  0  0  0  0
 18 19  1  0  0  0  0
 19 23  2  0  0  0  0
 19 20  1  0  0  0  0
 20 22  2  0  0  0  0
 21 24  2  0  0  0  0
 22 24  1  0  0  0  0
 22 28  1  0  0  0  0
 23 21  1  0  0  0  0
 24 25  1  0  0  0  0
 25 26  1  0  0  0  0
 25 27  1  0  0  0  0
 28 35  1  0  0  0  0
 29 35  1  0  0  0  0
 31 37  1  0  0  0  0
 31 30  1  0  0  0  0
 34 29  1  0  0  0  0
 34 36  1  0  0  0  0
 35 33  1  1  0  0  0
 35 37  1  0  0  0  0
 36 31  1  0  0  0  0
 37 32  2  0  0  0  0
 38 41  1  0  0  0  0
 39 40  2  0  0  0  0
 40 42  1  0  0  0  0
 41 40  1  0  0  0  0
 42 43  1  0  0  0  0
 43 44  1  6  0  0  0
 43 48  1  0  0  0  0
 44 45  1  0  0  0  0
 45 46  2  0  0  0  0
 47 46  1  0  0  0  0
 48 51  1  6  0  0  0
 48 55  1  0  0  0  0
 49 51  2  0  0  0  0
 51 50  1  0  0  0  0
 52 50  1  0  0  0  0
 52 54  1  0  0  0  0
 53 52  1  0  0  0  0
 55 56  1  0  0  0  0
 56 58  1  0  0  0  0
 56 57  2  0  0  0  0
 58 59  1  0  0  0  0
M  END
>  <MODEL>
4

>  <REMARK>
 VINA RESULT:      -5.8      2.417      4.895
  Name = 
  18 active torsions:
  status: ('A' for Active; 'I' for Inactive)
    1  A    between atoms: O_1  and  C_3
    2  A    between atoms: O_1  and  C_22
    3  A    between atoms: C_2  and  N_34
    4  A    between atoms: C_3  and  C_4
    5  A    between atoms: C_5  and  C_35
    6  A    between atoms: C_5  and  C_49
    7  A    between atoms: C_7  and  C_39
    8  A    between atoms: O_15  and  C_25
    9  A    between atoms: O_15  and  C_40
   10  A    between atoms: C_19  and  O_45
   11  A    between atoms: C_22  and  C_38
   12  A    between atoms: C_22  and  C_49
   13  A    between atoms: C_23  and  C_55
   14  A    between atoms: C_30  and  C_36
   15  A    between atoms: C_41  and  C_53
   16  A    between atoms: C_41  and  N_58
   17  A    between atoms: C_44  and  C_52
   18  A    between atoms: O_45  and  C_49
                            x       y       z     vdW  Elec       q    Type
                         _______ _______ _______ _____ _____    ______ ____

>  <TORSDO>
F 18

$$$$
=
 OpenBabel11032421063D

 59 63  0  0  1  0  0  0  0  0999 V2000
  186.7660  177.2300  136.6920 C   0  0  0  0  0  2  0  0  0  0  0  0
  187.2460  177.7370  139.0620 C   0  0  0  0  0  2  0  0  0  0  0  0
  190.5520  176.9960  137.2410 C   0  0  0  0  0  3  0  0  0  0  0  0
  192.0210  177.3300  140.4510 N   0  0  0  0  0  0  0  0  0  0  0  0
  190.9800  177.3310  139.5940 C   0  0  0  0  0  0  0  0  0  0  0  0
  186.4970  178.2030  137.8250 C   0  0  0  0  0  2  0  0  0  0  0  0
  188.7160  177.5180  138.7960 C   0  0  0  0  0  0  0  0  0  0  0  0
  189.1750  177.2110  137.4730 C   0  0  0  0  0  0  0  0  0  0  0  0
  191.4120  177.0510  138.3310 C   0  0  0  0  0  0  0  0  0  0  0  0
  189.6340  177.5620  139.8780 C   0  0  0  0  0  0  0  0  0  0  0  0
  192.7690  176.8760  138.4530 C   0  0  0  0  0  0  0  0  0  0  0  0
  193.1160  177.0480  139.7500 N   0  0  0  0  0  2  0  0  0  0  0  0
  188.2370  177.2970  136.2870 C   0  0  1  0  0  3  0  0  0  0  0  0
  194.4660  176.2720  136.5160 C   0  0  0  0  0  0  0  0  0  0  0  0
  195.3960  175.9410  135.4400 C   0  0  0  0  0  1  0  0  0  0  0  0
  193.6940  176.5450  137.4010 C   0  0  0  0  0  0  0  0  0  0  0  0
  189.2110  177.8820  141.2460 C   0  0  0  0  0  3  0  0  0  0  0  0
  188.7170  176.9400  142.0400 C   0  0  0  0  0  3  0  0  0  0  0  0
  188.2270  177.2270  143.3940 C   0  0  0  0  0  0  0  0  0  0  0  0
  186.8890  177.5870  143.5650 C   0  0  0  0  0  3  0  0  0  0  0  0
  188.5890  177.5040  145.7740 C   0  0  0  0  0  3  0  0  0  0  0  0
  186.3840  177.9090  144.8350 C   0  0  0  0  0  0  0  0  0  0  0  0
  189.0750  177.1800  144.5080 C   0  0  0  0  0  3  0  0  0  0  0  0
  187.2470  177.8830  145.9450 C   0  0  0  0  0  0  0  0  0  0  0  0
  186.7190  178.2170  147.3090 C   0  0  0  0  0  3  0  0  0  0  0  0
  186.2320  179.6470  147.3680 C   0  0  0  0  0  1  0  0  0  0  0  0
  187.7920  177.9950  148.3610 C   0  0  0  0  0  1  0  0  0  0  0  0
  185.0330  178.2460  145.0200 O   0  0  0  0  0  0  0  0  0  0  0  0
  182.9140  179.4460  144.8760 C   0  0  0  0  0  2  0  0  0  0  0  0
  183.4150  177.7590  141.0510 O   0  0  0  0  0  1  0  0  0  0  0  0
  183.2690  178.3500  142.2620 N   0  0  0  0  0  0  0  0  0  0  0  0
  185.5200  179.1780  142.2060 C   0  0  0  0  0  2  0  0  0  0  0  0
  185.0170  180.5100  144.6060 F   0  0  0  0  0  0  0  0  0  0  0  0
  182.0310  178.3070  144.3760 C   0  0  0  0  0  2  0  0  0  0  0  0
  184.3550  179.3170  144.3590 C   0  0  1  0  0  0  0  0  0  0  0  0
  181.9380  178.4000  142.8600 C   0  0  0  0  0  2  0  0  0  0  0  0
  184.3720  179.0440  142.8740 C   0  0  0  0  0  0  0  0  0  0  0  0
  188.5230  176.2350  135.2330 C   0  0  0  0  0  2  0  0  0  0  0  0
  186.4150  174.8050  136.5100 O   0  0  0  0  0  0  0  0  0  0  0  0
  186.2750  175.0890  135.2890 C   0  0  0  0  0  0  0  0  0  0  0  0
  187.2800  175.8350  134.6030 N   0  0  0  0  0  2  0  0  0  0  0  0
  185.1290  174.6940  134.5950 O   0  0  0  0  0  0  0  0  0  0  0  0
  184.2330  173.6980  135.0820 C   0  0  1  0  0  3  0  0  0  0  0  0
  184.8330  173.0290  136.3200 C   0  0  0  0  0  2  0  0  0  0  0  0
  185.7240  171.8740  135.9680 C   0  0  0  0  0  3  0  0  0  0  0  0
  185.3460  170.8830  135.1730 C   0  0  0  0  0  3  0  0  0  0  0  0
  184.0810  170.8580  134.6070 O   0  0  0  0  0  1  0  0  0  0  0  0
  182.8730  174.3490  135.3700 C   0  0  1  0  0  3  0  0  0  0  0  0
  180.9780  173.0540  134.6810 O   0  0  0  0  0  0  0  0  0  0  0  0
  181.7220  172.6620  136.8650 N   0  0  0  0  0  2  0  0  0  0  0  0
  181.7910  173.3360  135.6030 C   0  0  0  0  0  0  0  0  0  0  0  0
  180.7020  171.6880  137.2280 C   0  0  0  0  0  3  0  0  0  0  0  0
  179.3560  172.3620  137.4370 C   0  0  0  0  0  1  0  0  0  0  0  0
  180.5900  170.5980  136.1780 C   0  0  0  0  0  1  0  0  0  0  0  0
  182.9660  175.2630  136.4590 O   0  0  0  0  0  0  0  0  0  0  0  0
  182.3660  176.5250  136.4290 C   0  0  0  0  0  0  0  0  0  0  0  0
  182.9330  177.4890  135.7220 C   0  0  0  0  0  2  0  0  0  0  0  0
  181.1250  176.8280  137.2050 C   0  0  0  0  0  2  0  0  0  0  0  0
  181.1280  178.2830  137.6450 C   0  0  0  0  0  1  0  0  0  0  0  0
  1  6  1  0  0  0  0
  3  8  2  0  0  0  0
  3  9  1  0  0  0  0
  5 10  1  0  0  0  0
  5  4  2  0  0  0  0
  6  2  1  0  0  0  0
  7  2  1  0  0  0  0
  7 10  2  0  0  0  0
  8  7  1  0  0  0  0
  9 11  2  0  0  0  0
  9  5  1  0  0  0  0
 10 17  1  0  0  0  0
 11 12  1  0  0  0  0
 12  4  1  0  0  0  0
 13 38  1  6  0  0  0
 13  1  1  0  0  0  0
 13  8  1  0  0  0  0
 14 16  3  0  0  0  0
 15 14  1  0  0  0  0
 16 11  1  0  0  0  0
 17 18  2  0  0  0  0
 18 19  1  0  0  0  0
 19 20  2  0  0  0  0
 19 23  1  0  0  0  0
 20 22  1  0  0  0  0
 21 24  1  0  0  0  0
 22 28  1  0  0  0  0
 22 24  2  0  0  0  0
 23 21  2  0  0  0  0
 24 25  1  0  0  0  0
 25 26  1  0  0  0  0
 25 27  1  0  0  0  0
 30 31  1  0  0  0  0
 31 36  1  0  0  0  0
 31 37  1  0  0  0  0
 32 37  2  0  0  0  0
 34 29  1  0  0  0  0
 35 33  1  1  0  0  0
 35 29  1  0  0  0  0
 35 28  1  0  0  0  0
 36 34  1  0  0  0  0
 37 35  1  0  0  0  0
 40 39  2  0  0  0  0
 41 38  1  0  0  0  0
 41 40  1  0  0  0  0
 42 43  1  0  0  0  0
 42 40  1  0  0  0  0
 43 48  1  0  0  0  0
 43 44  1  1  0  0  0
 45 44  1  0  0  0  0
 46 45  2  0  0  0  0
 47 46  1  0  0  0  0
 48 51  1  1  0  0  0
 48 55  1  0  0  0  0
 49 51  2  0  0  0  0
 50 52  1  0  0  0  0
 51 50  1  0  0  0  0
 52 53  1  0  0  0  0
 54 52  1  0  0  0  0
 56 55  1  0  0  0  0
 56 58  1  0  0  0  0
 57 56  2  0  0  0  0
 58 59  1  0  0  0  0
M  END
>  <MODEL>
5

>  <REMARK>
 VINA RESULT:      -5.6      1.299      2.622
  Name = 
  18 active torsions:
  status: ('A' for Active; 'I' for Inactive)
    1  A    between atoms: O_1  and  C_3
    2  A    between atoms: O_1  and  C_22
    3  A    between atoms: C_2  and  N_34
    4  A    between atoms: C_3  and  C_4
    5  A    between atoms: C_5  and  C_35
    6  A    between atoms: C_5  and  C_49
    7  A    between atoms: C_7  and  C_39
    8  A    between atoms: O_15  and  C_25
    9  A    between atoms: O_15  and  C_40
   10  A    between atoms: C_19  and  O_45
   11  A    between atoms: C_22  and  C_38
   12  A    between atoms: C_22  and  C_49
   13  A    between atoms: C_23  and  C_55
   14  A    between atoms: C_30  and  C_36
   15  A    between atoms: C_41  and  C_53
   16  A    between atoms: C_41  and  N_58
   17  A    between atoms: C_44  and  C_52
   18  A    between atoms: O_45  and  C_49
                            x       y       z     vdW  Elec       q    Type
                         _______ _______ _______ _____ _____    ______ ____

>  <TORSDO>
F 18

$$$$
=
 OpenBabel11032421063D

 59 63  0  0  1  0  0  0  0  0999 V2000
  188.7000  176.4910  136.1440 C   0  0  0  0  0  2  0  0  0  0  0  0
  189.2160  176.8210  138.5380 C   0  0  0  0  0  2  0  0  0  0  0  0
  185.6360  178.0430  137.8450 C   0  0  0  0  0  3  0  0  0  0  0  0
  185.6740  179.0690  141.2390 N   0  0  0  0  0  0  0  0  0  0  0  0
  186.2210  178.5090  140.1410 C   0  0  0  0  0  0  0  0  0  0  0  0
  189.2590  175.8280  137.3890 C   0  0  0  0  0  2  0  0  0  0  0  0
  187.8410  177.4110  138.7380 C   0  0  0  0  0  0  0  0  0  0  0  0
  186.9150  177.4770  137.6470 C   0  0  0  0  0  0  0  0  0  0  0  0
  185.3400  178.5570  139.1010 C   0  0  0  0  0  0  0  0  0  0  0  0
  187.4920  177.9520  140.0040 C   0  0  0  0  0  0  0  0  0  0  0  0
  184.2250  179.1760  139.6120 C   0  0  0  0  0  0  0  0  0  0  0  0
  184.4520  179.4800  140.9120 N   0  0  0  0  0  2  0  0  0  0  0  0
  187.2130  176.7830  136.3330 C   0  0  1  0  0  3  0  0  0  0  0  0
  181.9940  179.7460  138.3110 C   0  0  0  0  0  0  0  0  0  0  0  0
  180.7650  180.0710  137.5920 C   0  0  0  0  0  1  0  0  0  0  0  0
  183.0090  179.4840  138.9060 C   0  0  0  0  0  0  0  0  0  0  0  0
  188.4040  177.8980  141.1520 C   0  0  0  0  0  3  0  0  0  0  0  0
  188.6180  176.7550  141.7930 C   0  0  0  0  0  3  0  0  0  0  0  0
  189.4760  176.6670  142.9810 C   0  0  0  0  0  0  0  0  0  0  0  0
  188.9750  177.1060  144.2090 C   0  0  0  0  0  3  0  0  0  0  0  0
  191.5940  176.1590  144.0450 C   0  0  0  0  0  3  0  0  0  0  0  0
  189.7720  177.0770  145.3660 C   0  0  0  0  0  0  0  0  0  0  0  0
  190.7900  176.1860  142.9060 C   0  0  0  0  0  3  0  0  0  0  0  0
  191.0970  176.6160  145.2770 C   0  0  0  0  0  0  0  0  0  0  0  0
  191.9560  176.5720  146.5060 C   0  0  0  0  0  3  0  0  0  0  0  0
  192.5220  175.1860  146.7240 C   0  0  0  0  0  1  0  0  0  0  0  0
  191.1580  176.9990  147.7260 C   0  0  0  0  0  1  0  0  0  0  0  0
  189.2680  177.4900  146.6100 O   0  0  0  0  0  0  0  0  0  0  0  0
  187.0360  176.6130  146.1640 C   0  0  0  0  0  2  0  0  0  0  0  0
  186.3470  180.1290  148.3750 O   0  0  0  0  0  1  0  0  0  0  0  0
  186.5590  178.9690  147.7070 N   0  0  0  0  0  0  0  0  0  0  0  0
  188.2020  178.2680  149.3090 C   0  0  0  0  0  2  0  0  0  0  0  0
  188.3910  175.8380  147.9510 F   0  0  0  0  0  0  0  0  0  0  0  0
  186.4170  177.8550  145.5300 C   0  0  0  0  0  2  0  0  0  0  0  0
  188.0840  176.9800  147.2270 C   0  0  1  0  0  0  0  0  0  0  0  0
  185.6640  178.6210  146.6080 C   0  0  0  0  0  2  0  0  0  0  0  0
  187.5490  178.0310  148.1700 C   0  0  0  0  0  0  0  0  0  0  0  0
  186.6890  177.5540  135.1280 C   0  0  0  0  0  2  0  0  0  0  0  0
  184.0470  178.2170  135.9640 O   0  0  0  0  0  0  0  0  0  0  0  0
  184.1800  177.2810  135.1290 C   0  0  0  0  0  0  0  0  0  0  0  0
  185.4750  176.9260  134.6460 N   0  0  0  0  0  2  0  0  0  0  0  0
  183.0640  176.5900  134.6530 O   0  0  0  0  0  0  0  0  0  0  0  0
  182.2820  175.7230  135.4720 C   0  0  1  0  0  3  0  0  0  0  0  0
  180.8090  176.1230  135.3840 C   0  0  0  0  0  2  0  0  0  0  0  0
  179.9860  175.5110  136.4790 C   0  0  0  0  0  3  0  0  0  0  0  0
  180.3780  175.4700  137.7440 C   0  0  0  0  0  3  0  0  0  0  0  0
  181.5950  176.0040  138.1380 O   0  0  0  0  0  1  0  0  0  0  0  0
  182.5220  174.2720  135.0320 C   0  0  1  0  0  3  0  0  0  0  0  0
  183.4800  173.3160  137.0090 O   0  0  0  0  0  0  0  0  0  0  0  0
  184.8570  173.3000  135.1160 N   0  0  0  0  0  2  0  0  0  0  0  0
  183.6360  173.6180  135.7940 C   0  0  0  0  0  0  0  0  0  0  0  0
  186.0230  172.7000  135.7490 C   0  0  0  0  0  3  0  0  0  0  0  0
  185.9400  171.1840  135.7180 C   0  0  0  0  0  1  0  0  0  0  0  0
  187.3060  173.1740  135.0890 C   0  0  0  0  0  1  0  0  0  0  0  0
  181.3220  173.5080  135.1190 O   0  0  0  0  0  0  0  0  0  0  0  0
  181.3080  172.1840  135.5680 C   0  0  0  0  0  0  0  0  0  0  0  0
  180.7460  171.9070  136.7330 C   0  0  0  0  0  2  0  0  0  0  0  0
  181.9470  171.0800  134.7890 C   0  0  0  0  0  2  0  0  0  0  0  0
  181.4900  169.7340  135.3240 C   0  0  0  0  0  1  0  0  0  0  0  0
  1 13  1  0  0  0  0
  1  6  1  0  0  0  0
  2  7  1  0  0  0  0
  3  9  1  0  0  0  0
  5  4  2  0  0  0  0
  6  2  1  0  0  0  0
  7 10  2  0  0  0  0
  8  3  2  0  0  0  0
  8  7  1  0  0  0  0
  9 11  2  0  0  0  0
  9  5  1  0  0  0  0
 10  5  1  0  0  0  0
 10 17  1  0  0  0  0
 11 12  1  0  0  0  0
 12  4  1  0  0  0  0
 13 38  1  6  0  0  0
 13  8  1  0  0  0  0
 14 16  3  0  0  0  0
 15 14  1  0  0  0  0
 16 11  1  0  0  0  0
 17 18  2  0  0  0  0
 18 19  1  0  0  0  0
 19 20  1  0  0  0  0
 20 22  2  0  0  0  0
 21 24  2  0  0  0  0
 22 28  1  0  0  0  0
 23 19  2  0  0  0  0
 23 21  1  0  0  0  0
 24 22  1  0  0  0  0
 24 25  1  0  0  0  0
 25 26  1  0  0  0  0
 25 27  1  0  0  0  0
 28 35  1  0  0  0  0
 29 35  1  0  0  0  0
 31 37  1  0  0  0  0
 31 30  1  0  0  0  0
 34 29  1  0  0  0  0
 34 36  1  0  0  0  0
 35 33  1  1  0  0  0
 35 37  1  0  0  0  0
 36 31  1  0  0  0  0
 37 32  2  0  0  0  0
 40 39  2  0  0  0  0
 41 38  1  0  0  0  0
 41 40  1  0  0  0  0
 42 40  1  0  0  0  0
 42 43  1  0  0  0  0
 43 44  1  6  0  0  0
 44 45  1  0  0  0  0
 45 46  2  0  0  0  0
 46 47  1  0  0  0  0
 48 55  1  1  0  0  0
 48 43  1  0  0  0  0
 48 51  1  0  0  0  0
 50 52  1  0  0  0  0
 50 51  1  0  0  0  0
 51 49  2  0  0  0  0
 53 52  1  0  0  0  0
 54 52  1  0  0  0  0
 55 56  1  0  0  0  0
 56 57  2  0  0  0  0
 58 59  1  0  0  0  0
 58 56  1  0  0  0  0
M  END
>  <MODEL>
6

>  <REMARK>
 VINA RESULT:      -5.4      3.030      5.931
  Name = 
  18 active torsions:
  status: ('A' for Active; 'I' for Inactive)
    1  A    between atoms: O_1  and  C_3
    2  A    between atoms: O_1  and  C_22
    3  A    between atoms: C_2  and  N_34
    4  A    between atoms: C_3  and  C_4
    5  A    between atoms: C_5  and  C_35
    6  A    between atoms: C_5  and  C_49
    7  A    between atoms: C_7  and  C_39
    8  A    between atoms: O_15  and  C_25
    9  A    between atoms: O_15  and  C_40
   10  A    between atoms: C_19  and  O_45
   11  A    between atoms: C_22  and  C_38
   12  A    between atoms: C_22  and  C_49
   13  A    between atoms: C_23  and  C_55
   14  A    between atoms: C_30  and  C_36
   15  A    between atoms: C_41  and  C_53
   16  A    between atoms: C_41  and  N_58
   17  A    between atoms: C_44  and  C_52
   18  A    between atoms: O_45  and  C_49
                            x       y       z     vdW  Elec       q    Type
                         _______ _______ _______ _____ _____    ______ ____

>  <TORSDO>
F 18

$$$$
=
 OpenBabel11032421063D

 59 63  0  0  1  0  0  0  0  0999 V2000
  188.1640  177.1560  135.7070 C   0  0  0  0  0  2  0  0  0  0  0  0
  190.4540  176.5710  136.4280 C   0  0  0  0  0  2  0  0  0  0  0  0
  188.2760  177.1870  139.5370 C   0  0  0  0  0  3  0  0  0  0  0  0
  191.2880  176.7060  141.3450 N   0  0  0  0  0  0  0  0  0  0  0  0
  190.5570  176.7780  140.2140 C   0  0  0  0  0  0  0  0  0  0  0  0
  189.3040  176.1720  135.5190 C   0  0  0  0  0  2  0  0  0  0  0  0
  190.0230  176.7230  137.8670 C   0  0  0  0  0  0  0  0  0  0  0  0
  188.6620  177.0360  138.1870 C   0  0  0  0  0  0  0  0  0  0  0  0
  189.2570  177.0640  140.5130 C   0  0  0  0  0  0  0  0  0  0  0  0
  190.9900  176.6080  138.9000 C   0  0  0  0  0  0  0  0  0  0  0  0
  189.2240  177.1670  141.8820 C   0  0  0  0  0  0  0  0  0  0  0  0
  190.4690  176.9490  142.3660 N   0  0  0  0  0  2  0  0  0  0  0  0
  187.5900  177.0240  137.1160 C   0  0  1  0  0  3  0  0  0  0  0  0
  187.1220  177.7380  143.3820 C   0  0  0  0  0  0  0  0  0  0  0  0
  185.9670  178.0530  144.2180 C   0  0  0  0  0  1  0  0  0  0  0  0
  188.0780  177.4760  142.6960 C   0  0  0  0  0  0  0  0  0  0  0  0
  192.3930  176.2780  138.6200 C   0  0  0  0  0  3  0  0  0  0  0  0
  192.7030  175.2760  137.8060 C   0  0  0  0  0  3  0  0  0  0  0  0
  194.0910  174.8750  137.5440 C   0  0  0  0  0  0  0  0  0  0  0  0
  194.3490  173.9750  136.5070 C   0  0  0  0  0  3  0  0  0  0  0  0
  196.4540  174.9100  138.0800 C   0  0  0  0  0  3  0  0  0  0  0  0
  195.6560  173.5320  136.2440 C   0  0  0  0  0  0  0  0  0  0  0  0
  195.1530  175.3460  138.3260 C   0  0  0  0  0  3  0  0  0  0  0  0
  196.7130  173.9910  137.0500 C   0  0  0  0  0  0  0  0  0  0  0  0
  198.1140  173.5330  136.7740 C   0  0  0  0  0  3  0  0  0  0  0  0
  198.9690  173.6200  138.0180 C   0  0  0  0  0  1  0  0  0  0  0  0
  198.7350  174.3650  135.6640 C   0  0  0  0  0  1  0  0  0  0  0  0
  195.9280  172.6480  135.1870 O   0  0  0  0  0  0  0  0  0  0  0  0
  194.6180  170.6780  134.5940 C   0  0  0  0  0  2  0  0  0  0  0  0
  194.6550  170.6720  138.8030 O   0  0  0  0  0  1  0  0  0  0  0  0
  194.6800  170.6350  137.4490 N   0  0  0  0  0  0  0  0  0  0  0  0
  197.0540  170.9780  137.4160 C   0  0  0  0  0  2  0  0  0  0  0  0
  196.9900  170.6800  134.6420 F   0  0  0  0  0  0  0  0  0  0  0  0
  193.3640  170.9740  135.4100 C   0  0  0  0  0  2  0  0  0  0  0  0
  195.8830  171.2220  135.2760 C   0  0  1  0  0  0  0  0  0  0  0  0
  193.4690  170.2360  136.7370 C   0  0  0  0  0  2  0  0  0  0  0  0
  195.9140  170.8370  136.7360 C   0  0  0  0  0  0  0  0  0  0  0  0
  186.5280  178.0940  137.3340 C   0  0  0  0  0  2  0  0  0  0  0  0
  184.1790  178.2660  138.9380 O   0  0  0  0  0  0  0  0  0  0  0  0
  184.0960  177.6520  137.8390 C   0  0  0  0  0  0  0  0  0  0  0  0
  185.2280  177.5620  136.9750 N   0  0  0  0  0  2  0  0  0  0  0  0
  182.8910  177.0660  137.4420 O   0  0  0  0  0  0  0  0  0  0  0  0
  182.3770  175.8750  138.0360 C   0  0  1  0  0  3  0  0  0  0  0  0
  181.3310  176.2370  139.0910 C   0  0  0  0  0  2  0  0  0  0  0  0
  180.6150  177.5160  138.7670 C   0  0  0  0  0  3  0  0  0  0  0  0
  180.4490  178.4960  139.6440 C   0  0  0  0  0  3  0  0  0  0  0  0
  180.9410  178.3960  140.9360 O   0  0  0  0  0  1  0  0  0  0  0  0
  181.8070  174.9740  136.9310 C   0  0  1  0  0  3  0  0  0  0  0  0
  182.7080  174.3240  134.8080 O   0  0  0  0  0  0  0  0  0  0  0  0
  184.1080  173.9600  136.6480 N   0  0  0  0  0  2  0  0  0  0  0  0
  182.8770  174.3920  136.0560 C   0  0  0  0  0  0  0  0  0  0  0  0
  185.2070  173.3470  135.9160 C   0  0  0  0  0  3  0  0  0  0  0  0
  185.7740  174.3040  134.8810 C   0  0  0  0  0  1  0  0  0  0  0  0
  186.3010  172.8840  136.8620 C   0  0  0  0  0  1  0  0  0  0  0  0
  180.9810  173.9520  137.4830 O   0  0  0  0  0  0  0  0  0  0  0  0
  180.7410  172.7450  136.8200 C   0  0  0  0  0  0  0  0  0  0  0  0
  181.5680  171.7300  137.0100 C   0  0  0  0  0  2  0  0  0  0  0  0
  179.5980  172.5820  135.8690 C   0  0  0  0  0  2  0  0  0  0  0  0
  179.4690  171.1250  135.4580 C   0  0  0  0  0  1  0  0  0  0  0  0
  1 13  1  0  0  0  0
  2  7  1  0  0  0  0
  3  9  1  0  0  0  0
  4 12  1  0  0  0  0
  5  9  1  0  0  0  0
  5  4  2  0  0  0  0
  6  1  1  0  0  0  0
  6  2  1  0  0  0  0
  7  8  1  0  0  0  0
  7 10  2  0  0  0  0
  8  3  2  0  0  0  0
  9 11  2  0  0  0  0
 10  5  1  0  0  0  0
 11 12  1  0  0  0  0
 11 16  1  0  0  0  0
 13 38  1  1  0  0  0
 13  8  1  0  0  0  0
 14 15  1  0  0  0  0
 16 14  3  0  0  0  0
 17 10  1  0  0  0  0
 18 17  2  0  0  0  0
 19 18  1  0  0  0  0
 19 23  1  0  0  0  0
 20 19  2  0  0  0  0
 21 23  2  0  0  0  0
 22 20  1  0  0  0  0
 22 24  2  0  0  0  0
 24 21  1  0  0  0  0
 25 24  1  0  0  0  0
 25 26  1  0  0  0  0
 27 25  1  0  0  0  0
 28 35  1  0  0  0  0
 28 22  1  0  0  0  0
 29 35  1  0  0  0  0
 29 34  1  0  0  0  0
 31 30  1  0  0  0  0
 34 36  1  0  0  0  0
 35 33  1  6  0  0  0
 35 37  1  0  0  0  0
 36 31  1  0  0  0  0
 37 32  2  0  0  0  0
 37 31  1  0  0  0  0
 40 39  2  0  0  0  0
 41 38  1  0  0  0  0
 41 40  1  0  0  0  0
 42 40  1  0  0  0  0
 42 43  1  0  0  0  0
 43 44  1  1  0  0  0
 45 44  1  0  0  0  0
 45 46  2  0  0  0  0
 46 47  1  0  0  0  0
 48 51  1  1  0  0  0
 48 55  1  0  0  0  0
 48 43  1  0  0  0  0
 49 51  2  0  0  0  0
 51 50  1  0  0  0  0
 52 50  1  0  0  0  0
 52 54  1  0  0  0  0
 53 52  1  0  0  0  0
 56 57  2  0  0  0  0
 56 55  1  0  0  0  0
 58 56  1  0  0  0  0
 59 58  1  0  0  0  0
M  END
>  <MODEL>
7

>  <REMARK>
 VINA RESULT:      -5.3      3.706      9.542
  Name = 
  18 active torsions:
  status: ('A' for Active; 'I' for Inactive)
    1  A    between atoms: O_1  and  C_3
    2  A    between atoms: O_1  and  C_22
    3  A    between atoms: C_2  and  N_34
    4  A    between atoms: C_3  and  C_4
    5  A    between atoms: C_5  and  C_35
    6  A    between atoms: C_5  and  C_49
    7  A    between atoms: C_7  and  C_39
    8  A    between atoms: O_15  and  C_25
    9  A    between atoms: O_15  and  C_40
   10  A    between atoms: C_19  and  O_45
   11  A    between atoms: C_22  and  C_38
   12  A    between atoms: C_22  and  C_49
   13  A    between atoms: C_23  and  C_55
   14  A    between atoms: C_30  and  C_36
   15  A    between atoms: C_41  and  C_53
   16  A    between atoms: C_41  and  N_58
   17  A    between atoms: C_44  and  C_52
   18  A    between atoms: O_45  and  C_49
                            x       y       z     vdW  Elec       q    Type
                         _______ _______ _______ _____ _____    ______ ____

>  <TORSDO>
F 18

$$$$
=
 OpenBabel11032421063D

 59 63  0  0  1  0  0  0  0  0999 V2000
  189.2430  177.9980  141.2440 C   0  0  0  0  0  2  0  0  0  0  0  0
  187.5550  178.0960  139.4420 C   0  0  0  0  0  2  0  0  0  0  0  0
  190.7390  176.4140  138.0910 C   0  0  0  0  0  3  0  0  0  0  0  0
  189.0300  176.4080  134.9840 N   0  0  0  0  0  0  0  0  0  0  0  0
  189.1370  176.6710  136.3020 C   0  0  0  0  0  0  0  0  0  0  0  0
  187.7930  177.7190  140.8940 C   0  0  0  0  0  2  0  0  0  0  0  0
  188.5370  177.4330  138.5070 C   0  0  0  0  0  0  0  0  0  0  0  0
  189.8260  177.0230  138.9800 C   0  0  1  0  0  3  0  0  0  0  0  0
  190.3580  176.2730  136.7630 C   0  0  0  0  0  0  0  0  0  0  0  0
  188.1940  177.2680  137.1380 C   0  0  0  0  0  0  0  0  0  0  0  0
  190.9970  175.7540  135.6630 C   0  0  0  0  0  0  0  0  0  0  0  0
  190.1730  175.8490  134.5940 N   0  0  0  0  0  0  0  0  0  0  0  0
  190.1570  177.0620  140.4580 C   0  0  1  0  0  3  0  0  0  0  0  0
  193.4420  174.7500  135.5780 C   0  0  0  0  0  0  0  0  0  0  0  0
  194.7900  174.1880  135.5370 C   0  0  0  0  0  1  0  0  0  0  0  0
  192.3300  175.2110  135.6160 C   0  0  0  0  0  0  0  0  0  0  0  0
  186.8820  177.6620  136.6120 C   0  0  0  0  0  3  0  0  0  0  0  0
  185.7840  177.0060  136.9670 C   0  0  0  0  0  3  0  0  0  0  0  0
  184.4610  177.3300  136.4200 C   0  0  0  0  0  0  0  0  0  0  0  0
  183.4890  177.8590  137.2720 C   0  0  0  0  0  3  0  0  0  0  0  0
  182.8620  177.3660  134.5990 C   0  0  0  0  0  3  0  0  0  0  0  0
  182.1970  178.1470  136.8020 C   0  0  0  0  0  0  0  0  0  0  0  0
  184.1420  177.0900  135.0760 C   0  0  0  0  0  3  0  0  0  0  0  0
  181.8780  177.8820  135.4590 C   0  0  0  0  0  0  0  0  0  0  0  0
  180.5050  178.1930  134.9430 C   0  0  0  0  0  3  0  0  0  0  0  0
  180.0350  179.5460  135.4290 C   0  0  0  0  0  1  0  0  0  0  0  0
  179.5190  177.1210  135.3770 C   0  0  0  0  0  1  0  0  0  0  0  0
  181.2210  178.7050  137.6450 O   0  0  0  0  0  0  0  0  0  0  0  0
  182.6880  179.4750  139.4360 C   0  0  0  0  0  2  0  0  0  0  0  0
  178.9360  179.0200  141.2900 O   0  0  0  0  0  1  0  0  0  0  0  0
  180.1360  179.2200  140.6930 N   0  0  0  0  0  0  0  0  0  0  0  0
  179.1150  180.4430  138.8980 C   0  0  0  0  0  2  0  0  0  0  0  0
  181.6650  180.9510  137.8850 F   0  0  0  0  0  0  0  0  0  0  0  0
  182.4210  178.3700  140.4520 C   0  0  0  0  0  2  0  0  0  0  0  0
  181.4490  179.7680  138.5750 C   0  0  1  0  0  0  0  0  0  0  0  0
  181.3480  178.8520  141.4180 C   0  0  0  0  0  2  0  0  0  0  0  0
  180.2180  179.9170  139.4350 C   0  0  0  0  0  0  0  0  0  0  0  0
  191.6110  177.4280  140.7260 C   0  0  0  0  0  2  0  0  0  0  0  0
  191.6480  175.8810  143.1180 O   0  0  0  0  0  0  0  0  0  0  0  0
  191.7130  177.1360  143.2300 C   0  0  0  0  0  0  0  0  0  0  0  0
  191.7340  177.9630  142.0680 N   0  0  0  0  0  2  0  0  0  0  0  0
  191.7820  177.7330  144.4910 O   0  0  0  0  0  0  0  0  0  0  0  0
  190.6250  178.1190  145.2290 C   0  0  1  0  0  3  0  0  0  0  0  0
  189.3800  177.4990  144.5940 C   0  0  0  0  0  2  0  0  0  0  0  0
  188.1760  178.3860  144.7160 C   0  0  0  0  0  3  0  0  0  0  0  0
  186.9320  177.9300  144.6770 C   0  0  0  0  0  3  0  0  0  0  0  0
  186.6660  176.5780  144.5220 O   0  0  0  0  0  1  0  0  0  0  0  0
  190.8050  177.7000  146.6950 C   0  0  1  0  0  3  0  0  0  0  0  0
  189.0510  176.3180  147.5630 O   0  0  0  0  0  0  0  0  0  0  0  0
  188.7850  178.6160  147.9120 N   0  0  0  0  0  2  0  0  0  0  0  0
  189.4960  177.4860  147.3950 C   0  0  0  0  0  0  0  0  0  0  0  0
  187.4910  178.5470  148.5760 C   0  0  0  0  0  3  0  0  0  0  0  0
  186.4520  177.8950  147.6790 C   0  0  0  0  0  1  0  0  0  0  0  0
  187.5950  177.8000  149.8940 C   0  0  0  0  0  1  0  0  0  0  0  0
  191.6380  176.5480  146.7960 O   0  0  0  0  0  0  0  0  0  0  0  0
  192.2410  176.1640  147.9970 C   0  0  0  0  0  0  0  0  0  0  0  0
  192.4260  174.8770  148.2410 C   0  0  0  0  0  2  0  0  0  0  0  0
  192.6460  177.1640  149.0310 C   0  0  0  0  0  2  0  0  0  0  0  0
  193.4310  176.4800  150.1380 C   0  0  0  0  0  1  0  0  0  0  0  0
  2  6  1  0  0  0  0
  4  5  2  0  0  0  0
  5  9  1  0  0  0  0
  5 10  1  0  0  0  0
  6  1  1  0  0  0  0
  7  8  1  0  0  0  0
  7  2  1  0  0  0  0
  8  3  1  1  0  0  0
  8 13  1  0  0  0  0
  9  3  2  0  0  0  0
 10  7  2  0  0  0  0
 11  9  1  0  0  0  0
 12  4  1  0  0  0  0
 12 11  2  0  0  0  0
 13 38  1  6  0  0  0
 13  1  1  0  0  0  0
 14 16  3  0  0  0  0
 15 14  1  0  0  0  0
 16 11  1  0  0  0  0
 17 18  2  0  0  0  0
 17 10  1  0  0  0  0
 19 18  1  0  0  0  0
 19 20  1  0  0  0  0
 21 23  1  0  0  0  0
 21 24  2  0  0  0  0
 22 20  2  0  0  0  0
 22 28  1  0  0  0  0
 23 19  2  0  0  0  0
 24 22  1  0  0  0  0
 25 27  1  0  0  0  0
 25 26  1  0  0  0  0
 25 24  1  0  0  0  0
 28 35  1  0  0  0  0
 29 34  1  0  0  0  0
 31 30  1  0  0  0  0
 31 36  1  0  0  0  0
 32 37  2  0  0  0  0
 34 36  1  0  0  0  0
 35 33  1  6  0  0  0
 35 37  1  0  0  0  0
 35 29  1  0  0  0  0
 37 31  1  0  0  0  0
 38 41  1  0  0  0  0
 39 40  2  0  0  0  0
 40 42  1  0  0  0  0
 41 40  1  0  0  0  0
 42 43  1  0  0  0  0
 43 44  1  6  0  0  0
 43 48  1  0  0  0  0
 44 45  1  0  0  0  0
 46 45  2  0  0  0  0
 47 46  1  0  0  0  0
 48 55  1  6  0  0  0
 48 51  1  0  0  0  0
 50 52  1  0  0  0  0
 51 49  2  0  0  0  0
 51 50  1  0  0  0  0
 52 54  1  0  0  0  0
 53 52  1  0  0  0  0
 55 56  1  0  0  0  0
 56 57  2  0  0  0  0
 56 58  1  0  0  0  0
 58 59  1  0  0  0  0
M  END
>  <MODEL>
8

>  <REMARK>
 VINA RESULT:      -4.9      4.044      9.649
  Name = 
  18 active torsions:
  status: ('A' for Active; 'I' for Inactive)
    1  A    between atoms: O_1  and  C_3
    2  A    between atoms: O_1  and  C_22
    3  A    between atoms: C_2  and  N_34
    4  A    between atoms: C_3  and  C_4
    5  A    between atoms: C_5  and  C_35
    6  A    between atoms: C_5  and  C_49
    7  A    between atoms: C_7  and  C_39
    8  A    between atoms: O_15  and  C_25
    9  A    between atoms: O_15  and  C_40
   10  A    between atoms: C_19  and  O_45
   11  A    between atoms: C_22  and  C_38
   12  A    between atoms: C_22  and  C_49
   13  A    between atoms: C_23  and  C_55
   14  A    between atoms: C_30  and  C_36
   15  A    between atoms: C_41  and  C_53
   16  A    between atoms: C_41  and  N_58
   17  A    between atoms: C_44  and  C_52
   18  A    between atoms: O_45  and  C_49
                            x       y       z     vdW  Elec       q    Type
                         _______ _______ _______ _____ _____    ______ ____

>  <TORSDO>
F 18

$$$$
=
 OpenBabel11032421063D

 59 63  0  0  1  0  0  0  0  0999 V2000
  185.8820  178.1930  137.0490 C   0  0  0  0  0  2  0  0  0  0  0  0
  186.5690  177.8650  139.4000 C   0  0  0  0  0  2  0  0  0  0  0  0
  189.6130  177.3170  137.1130 C   0  0  0  0  0  3  0  0  0  0  0  0
  191.2970  176.4350  140.1070 N   0  0  0  0  0  0  0  0  0  0  0  0
  190.2210  176.8380  139.4000 C   0  0  1  0  0  3  0  0  0  0  0  0
  185.8310  178.7870  138.4450 C   0  0  0  0  0  2  0  0  0  0  0  0
  187.9700  177.5540  138.9320 C   0  0  0  0  0  0  0  0  0  0  0  0
  188.3010  177.6220  137.5390 C   0  0  0  0  0  0  0  0  0  0  0  0
  190.5320  176.9160  138.0750 C   0  0  0  0  0  0  0  0  0  0  0  0
  188.9450  177.1380  139.8760 C   0  0  0  0  0  0  0  0  0  0  0  0
  191.8510  176.5400  137.9990 C   0  0  0  0  0  0  0  0  0  0  0  0
  192.2940  176.2500  139.2450 N   0  0  0  0  0  0  0  0  0  0  0  0
  187.3200  178.1960  136.5360 C   0  0  1  0  0  3  0  0  0  0  0  0
  193.3230  176.3640  135.8090 C   0  0  0  0  0  0  0  0  0  0  0  0
  194.1310  176.2740  134.5960 C   0  0  0  0  0  1  0  0  0  0  0  0
  192.6530  176.4410  136.8070 C   0  0  0  0  0  0  0  0  0  0  0  0
  188.6550  177.0640  141.3130 C   0  0  0  0  0  3  0  0  0  0  0  0
  187.6420  177.7460  141.8350 C   0  0  0  0  0  3  0  0  0  0  0  0
  187.3520  177.7470  143.2750 C   0  0  0  0  0  0  0  0  0  0  0  0
  188.3420  177.3190  144.1630 C   0  0  0  0  0  3  0  0  0  0  0  0
  185.8430  178.0790  145.1420 C   0  0  0  0  0  3  0  0  0  0  0  0
  188.0970  177.2660  145.5450 C   0  0  0  0  0  0  0  0  0  0  0  0
  186.1010  178.1330  143.7720 C   0  0  0  0  0  3  0  0  0  0  0  0
  186.8320  177.6330  146.0340 C   0  0  0  0  0  0  0  0  0  0  0  0
  186.5600  177.5890  147.5090 C   0  0  0  0  0  3  0  0  0  0  0  0
  185.0740  177.5750  147.7880 C   0  0  0  0  0  1  0  0  0  0  0  0
  187.2020  178.7790  148.2020 C   0  0  0  0  0  1  0  0  0  0  0  0
  189.0960  176.8640  146.4480 O   0  0  0  0  0  0  0  0  0  0  0  0
  190.4950  178.6940  145.6490 C   0  0  0  0  0  2  0  0  0  0  0  0
  192.5550  175.2190  144.4640 O   0  0  0  0  0  1  0  0  0  0  0  0
  191.9270  176.3440  144.8850 N   0  0  0  0  0  0  0  0  0  0  0  0
  191.6670  175.4510  147.0970 C   0  0  0  0  0  2  0  0  0  0  0  0
  190.5720  177.8950  147.8810 F   0  0  0  0  0  0  0  0  0  0  0  0
  190.6070  178.2840  144.1840 C   0  0  0  0  0  2  0  0  0  0  0  0
  190.3830  177.4730  146.5740 C   0  0  1  0  0  0  0  0  0  0  0  0
  191.9000  177.5030  143.9990 C   0  0  0  0  0  2  0  0  0  0  0  0
  191.4320  176.4410  146.2340 C   0  0  0  0  0  0  0  0  0  0  0  0
  187.3800  177.4910  135.1870 C   0  0  0  0  0  2  0  0  0  0  0  0
  184.6360  177.9850  134.5950 O   0  0  0  0  0  0  0  0  0  0  0  0
  184.9760  176.7980  134.8550 C   0  0  0  0  0  0  0  0  0  0  0  0
  186.3410  176.4820  135.1240 N   0  0  0  0  0  2  0  0  0  0  0  0
  184.0260  175.7740  134.8660 O   0  0  0  0  0  0  0  0  0  0  0  0
  183.6570  175.0730  136.0520 C   0  0  1  0  0  3  0  0  0  0  0  0
  182.3550  175.6530  136.6060 C   0  0  0  0  0  2  0  0  0  0  0  0
  182.5940  176.8170  137.5220 C   0  0  0  0  0  3  0  0  0  0  0  0
  181.8340  177.9030  137.5290 C   0  0  0  0  0  3  0  0  0  0  0  0
  180.7490  178.0260  136.6750 O   0  0  0  0  0  1  0  0  0  0  0  0
  183.5410  173.5760  135.7300 C   0  0  1  0  0  3  0  0  0  0  0  0
  185.0800  172.0040  134.7810 O   0  0  0  0  0  0  0  0  0  0  0  0
  185.9350  173.3280  136.5110 N   0  0  0  0  0  2  0  0  0  0  0  0
  184.8790  172.9040  135.6420 C   0  0  0  0  0  0  0  0  0  0  0  0
  187.2640  172.7330  136.5500 C   0  0  0  0  0  3  0  0  0  0  0  0
  188.3300  173.7590  136.2020 C   0  0  0  0  0  1  0  0  0  0  0  0
  187.5470  172.1180  137.9090 C   0  0  0  0  0  1  0  0  0  0  0  0
  182.6950  172.9180  136.6690 O   0  0  0  0  0  0  0  0  0  0  0  0
  181.5330  172.2430  136.2840 C   0  0  0  0  0  0  0  0  0  0  0  0
  180.4130  172.4580  136.9550 C   0  0  0  0  0  2  0  0  0  0  0  0
  181.5290  171.2560  135.1620 C   0  0  0  0  0  2  0  0  0  0  0  0
  182.2570  169.9900  135.5800 C   0  0  0  0  0  1  0  0  0  0  0  0
  1  6  1  0  0  0  0
  3  8  2  0  0  0  0
  3  9  1  0  0  0  0
  5  9  1  6  0  0  0
  5 10  1  0  0  0  0
  5  4  1  0  0  0  0
  6  2  1  0  0  0  0
  7  2  1  0  0  0  0
  7 10  2  0  0  0  0
  8  7  1  0  0  0  0
 10 17  1  0  0  0  0
 11  9  2  0  0  0  0
 11 12  1  0  0  0  0
 12  4  2  0  0  0  0
 13 38  1  6  0  0  0
 13  1  1  0  0  0  0
 13  8  1  0  0  0  0
 14 16  3  0  0  0  0
 15 14  1  0  0  0  0
 16 11  1  0  0  0  0
 17 18  2  0  0  0  0
 18 19  1  0  0  0  0
 19 23  2  0  0  0  0
 19 20  1  0  0  0  0
 20 22  2  0  0  0  0
 21 24  2  0  0  0  0
 22 24  1  0  0  0  0
 22 28  1  0  0  0  0
 23 21  1  0  0  0  0
 24 25  1  0  0  0  0
 25 26  1  0  0  0  0
 25 27  1  0  0  0  0
 28 35  1  0  0  0  0
 29 35  1  0  0  0  0
 30 31  1  0  0  0  0
 31 37  1  0  0  0  0
 34 29  1  0  0  0  0
 35 33  1  1  0  0  0
 36 34  1  0  0  0  0
 36 31  1  0  0  0  0
 37 35  1  0  0  0  0
 37 32  2  0  0  0  0
 39 40  2  0  0  0  0
 40 42  1  0  0  0  0
 40 41  1  0  0  0  0
 41 38  1  0  0  0  0
 42 43  1  0  0  0  0
 43 44  1  6  0  0  0
 44 45  1  0  0  0  0
 45 46  2  0  0  0  0
 47 46  1  0  0  0  0
 48 51  1  1  0  0  0
 48 43  1  0  0  0  0
 48 55  1  0  0  0  0
 49 51  2  0  0  0  0
 50 52  1  0  0  0  0
 51 50  1  0  0  0  0
 52 54  1  0  0  0  0
 53 52  1  0  0  0  0
 56 55  1  0  0  0  0
 56 57  2  0  0  0  0
 58 59  1  0  0  0  0
 58 56  1  0  0  0  0
M  END
>  <MODEL>
9

>  <REMARK>
 VINA RESULT:      -4.9      2.416      4.804
  Name = 
  18 active torsions:
  status: ('A' for Active; 'I' for Inactive)
    1  A    between atoms: O_1  and  C_3
    2  A    between atoms: O_1  and  C_22
    3  A    between atoms: C_2  and  N_34
    4  A    between atoms: C_3  and  C_4
    5  A    between atoms: C_5  and  C_35
    6  A    between atoms: C_5  and  C_49
    7  A    between atoms: C_7  and  C_39
    8  A    between atoms: O_15  and  C_25
    9  A    between atoms: O_15  and  C_40
   10  A    between atoms: C_19  and  O_45
   11  A    between atoms: C_22  and  C_38
   12  A    between atoms: C_22  and  C_49
   13  A    between atoms: C_23  and  C_55
   14  A    between atoms: C_30  and  C_36
   15  A    between atoms: C_41  and  C_53
   16  A    between atoms: C_41  and  N_58
   17  A    between atoms: C_44  and  C_52
   18  A    between atoms: O_45  and  C_49
                            x       y       z     vdW  Elec       q    Type
                         _______ _______ _______ _____ _____    ______ ____

>  <TORSDO>
F 18

$$$$
