=
 OpenBabel11042410333D

 67 73  0  0  1  0  0  0  0  0999 V2000
  184.6520  178.8020  142.6860 C   0  0  0  0  0  0  0  0  0  0  0  0
  183.7620  179.1790  141.5340 C   0  0  2  0  0  3  0  0  0  0  0  0
  181.5940  178.6400  142.5990 C   0  0  0  0  0  0  0  0  0  0  0  0
  184.2950  179.1270  143.9300 C   0  0  0  0  0  3  0  0  0  0  0  0
  186.3440  177.9370  141.1700 C   0  0  0  0  0  3  0  0  0  0  0  0
  181.8740  179.5400  143.6890 N   0  0  0  0  0  0  0  0  0  0  0  0
  182.4700  178.4120  141.5950 C   0  0  0  0  0  0  0  0  0  0  0  0
  185.5750  178.4750  140.0270 C   0  0  0  0  0  0  0  0  0  0  0  0
  183.0120  179.7600  144.2880 C   0  0  0  0  0  3  0  0  0  0  0  0
  184.4240  179.0510  140.2270 N   0  0  0  0  0  0  0  0  0  0  0  0
  185.9230  178.0950  142.4230 C   0  0  0  0  0  0  0  0  0  0  0  0
  187.1070  178.0810  135.9550 C   0  0  0  0  0  0  0  0  0  0  0  0
  187.9070  178.6970  137.0260 C   0  0  0  0  0  0  0  0  0  0  0  0
  189.0660  179.1310  136.7960 O   0  0  0  0  0  0  0  0  0  0  0  0
  186.1050  178.3750  138.6500 C   0  0  0  0  0  0  0  0  0  0  0  0
  185.8660  177.6630  136.2130 C   0  0  0  0  0  3  0  0  0  0  0  0
  185.1960  177.8660  137.5490 C   0  0  0  0  0  2  0  0  0  0  0  0
  187.3540  178.7820  138.3810 C   0  0  0  0  0  3  0  0  0  0  0  0
  187.6870  177.8510  134.6010 C   0  0  0  0  0  2  0  0  0  0  0  0
  188.5170  176.7300  134.6280 O   0  0  0  0  0  1  0  0  0  0  0  0
  181.9380  176.6300  139.7010 C   0  0  0  0  0  0  0  0  0  0  0  0
  182.1810  177.4340  140.5650 C   0  0  0  0  0  0  0  0  0  0  0  0
  181.6260  175.6600  138.6480 C   0  0  0  0  0  2  0  0  0  0  0  0
  183.0650  175.0060  135.3910 O   0  0  0  0  0  0  0  0  0  0  0  0
  183.4840  173.8980  136.1510 C   0  0  2  0  0  3  0  0  0  0  0  0
  183.3820  174.2480  137.6270 C   0  0  0  0  0  2  0  0  0  0  0  0
  182.7610  175.6070  137.6420 C   0  0  1  0  0  3  0  0  0  0  0  0
  182.2410  175.7600  136.2360 C   0  0  0  0  0  2  0  0  0  0  0  0
  186.6970  172.1940  136.9300 C   0  0  0  0  0  2  0  0  0  0  0  0
  184.9530  172.1660  135.0900 C   0  0  0  0  0  2  0  0  0  0  0  0
  185.8180  173.4350  137.0110 C   0  0  2  0  0  3  0  0  0  0  0  0
  186.6390  171.5400  135.2380 S   0  0  0  0  0  0  0  0  0  0  0  0
  184.9190  173.5160  135.7800 C   0  0  2  0  0  3  0  0  0  0  0  0
  187.8780  174.6070  137.0950 O   0  0  0  0  0  0  0  0  0  0  0  0
  186.6590  174.6690  137.1330 C   0  0  0  0  0  3  0  0  0  0  0  0
  179.2410  177.5310  142.5800 N   0  0  0  0  0  0  0  0  0  0  0  0
  180.2880  178.0240  142.5880 C   0  0  0  0  0  0  0  0  0  0  0  0
  186.7300  177.5080  143.5360 C   0  0  0  0  0  2  0  0  0  0  0  0
  187.9550  178.3700  143.7950 C   0  0  0  0  0  2  0  0  0  0  0  0
  189.2030  177.5100  143.9110 C   0  0  0  0  0  2  0  0  0  0  0  0
  188.0190  175.5480  143.2450 O   0  0  0  0  0  0  0  0  0  0  0  0
  189.0550  176.2530  143.1110 C   0  0  0  0  0  0  0  0  0  0  0  0
  190.0740  175.8320  142.2050 N   0  0  0  0  0  2  0  0  0  0  0  0
  191.2240  176.6640  141.8850 C   0  0  0  0  0  2  0  0  0  0  0  0
  192.7190  176.8950  138.3370 C   0  0  2  0  0  3  0  0  0  0  0  0
  190.2610  176.4050  138.3110 C   0  0  0  0  0  2  0  0  0  0  0  0
  192.6820  176.6730  139.8510 C   0  0  1  0  0  3  0  0  0  0  0  0
  193.5860  177.5420  140.4660 O   0  0  0  0  0  1  0  0  0  0  0  0
  191.2700  176.9210  140.3900 C   0  0  1  0  0  3  0  0  0  0  0  0
  191.6000  176.1110  137.6400 C   0  0  1  0  0  3  0  0  0  0  0  0
  190.3180  176.0360  139.7220 N   0  0  0  0  0  2  0  0  0  0  0  0
  193.9640  176.4860  137.8420 O   0  0  0  0  0  0  0  0  0  0  0  0
  194.4260  175.6320  138.7350 O   0  0  0  0  0  0  0  0  0  0  0  0
  194.7330  174.4740  138.0110 C   0  0  0  0  0  2  0  0  0  0  0  0
  195.5920  174.8130  136.8040 C   0  0  0  0  0  2  0  0  0  0  0  0
  196.3980  173.6040  136.3680 C   0  0  0  0  0  2  0  0  0  0  0  0
  197.8740  173.9300  136.4380 C   0  0  0  0  0  2  0  0  0  0  0  0
  198.3760  173.6760  137.8430 C   0  0  0  0  0  1  0  0  0  0  0  0
  191.5160  176.5090  136.1770 C   0  0  0  0  0  2  0  0  0  0  0  0
  192.2280  175.5770  135.3730 O   0  0  0  0  0  0  0  0  0  0  0  0
  190.4270  173.8640  135.5670 C   0  0  0  0  0  2  0  0  0  0  0  0
  190.7370  170.2780  134.6740 F   0  0  0  0  0  0  0  0  0  0  0  0
  192.7330  173.3370  134.8980 N   0  0  0  0  0  0  0  0  0  0  0  0
  192.4610  171.9010  134.8130 C   0  0  0  0  0  2  0  0  0  0  0  0
  190.9800  171.6360  134.5940 C   0  0  2  0  0  3  0  0  0  0  0  0
  190.2100  172.3580  135.6870 C   0  0  0  0  0  2  0  0  0  0  0  0
  191.8630  174.2300  135.2850 C   0  0  0  0  0  0  0  0  0  0  0  0
  1  4  2  0  0  0  0
  2 10  1  6  0  0  0
  2  7  1  0  0  0  0
  2  1  1  0  0  0  0
  3  6  1  0  0  0  0
  4  9  1  0  0  0  0
  5 11  2  0  0  0  0
  6  9  2  0  0  0  0
  7  3  2  0  0  0  0
  8 10  2  0  0  0  0
  8  5  1  0  0  0  0
 11  1  1  0  0  0  0
 11 38  1  0  0  0  0
 12 16  2  0  0  0  0
 12 13  1  0  0  0  0
 13 18  1  0  0  0  0
 14 13  2  0  0  0  0
 15  8  1  0  0  0  0
 16 17  1  0  0  0  0
 17 15  1  0  0  0  0
 18 15  2  0  0  0  0
 19 20  1  0  0  0  0
 19 12  1  0  0  0  0
 21 22  3  0  0  0  0
 22  7  1  0  0  0  0
 23 21  1  0  0  0  0
 24 25  1  0  0  0  0
 24 28  1  0  0  0  0
 25 26  1  1  0  0  0
 26 27  1  0  0  0  0
 27 23  1  1  0  0  0
 28 27  1  0  0  0  0
 29 31  1  0  0  0  0
 30 32  1  0  0  0  0
 31 35  1  6  0  0  0
 32 29  1  0  0  0  0
 33 30  1  1  0  0  0
 33 25  1  0  0  0  0
 33 31  1  0  0  0  0
 34 35  2  0  0  0  0
 36 37  3  0  0  0  0
 37  3  1  0  0  0  0
 38 39  1  0  0  0  0
 39 40  1  0  0  0  0
 42 41  2  0  0  0  0
 42 40  1  0  0  0  0
 43 42  1  0  0  0  0
 44 43  1  0  0  0  0
 45 52  1  6  0  0  0
 45 47  1  0  0  0  0
 46 51  1  0  0  0  0
 47 49  1  0  0  0  0
 47 48  1  1  0  0  0
 49 44  1  1  0  0  0
 50 59  1  6  0  0  0
 50 46  1  0  0  0  0
 50 45  1  0  0  0  0
 51 49  1  0  0  0  0
 52 53  1  0  0  0  0
 54 53  1  0  0  0  0
 55 54  1  0  0  0  0
 56 57  1  0  0  0  0
 56 55  1  0  0  0  0
 57 58  1  0  0  0  0
 60 59  1  0  0  0  0
 61 66  1  0  0  0  0
 63 67  2  0  0  0  0
 64 63  1  0  0  0  0
 65 62  1  1  0  0  0
 65 64  1  0  0  0  0
 65 66  1  0  0  0  0
 67 60  1  0  0  0  0
 67 61  1  0  0  0  0
M  END
>  <MODEL>
1

>  <REMARK>
 VINA RESULT:      -5.5      0.000      0.000
  Name = 
  23 active torsions:
  status: ('A' for Active; 'I' for Inactive)
    1  A    between atoms: C_1  and  C_32
    2  A    between atoms: C_1  and  C_52
    3  A    between atoms: C_3  and  C_13
    4  A    between atoms: C_4  and  C_60
    5  A    between atoms: C_5  and  O_63
    6  A    between atoms: C_7  and  C_31
    7  A    between atoms: C_7  and  O_47
    8  A    between atoms: C_12  and  C_59
    9  A    between atoms: C_12  and  C_66
   10  A    between atoms: O_19  and  C_22
   11  A    between atoms: O_19  and  O_63
   12  A    between atoms: C_20  and  C_41
   13  A    between atoms: C_21  and  C_50
   14  A    between atoms: C_22  and  C_52
   15  A    between atoms: C_24  and  C_29
   16  A    between atoms: C_25  and  C_42
   17  A    between atoms: C_37  and  C_53
   18  A    between atoms: C_37  and  C_59
   19  A    between atoms: C_41  and  N_56
   20  A    between atoms: C_44  and  C_51
   21  A    between atoms: C_45  and  C_60
   22  A    between atoms: C_46  and  C_49
   23  A    between atoms: O_47  and  C_62
                            x       y       z     vdW  Elec       q    Type
                         _______ _______ _______ _____ _____    ______ ____

>  <TORSDO>
F 23

$$$$
=
 OpenBabel11042410333D

 67 73  0  0  1  0  0  0  0  0999 V2000
  187.4060  175.6490  135.3900 C   0  0  2  0  0  3  0  0  0  0  0  0
  186.4640  176.8040  135.5810 C   0  0  0  0  0  0  0  0  0  0  0  0
  188.1090  178.4320  136.4560 C   0  0  0  0  0  0  0  0  0  0  0  0
  188.6250  175.8650  134.8910 C   0  0  0  0  0  3  0  0  0  0  0  0
  185.6900  174.0640  136.0610 C   0  0  0  0  0  3  0  0  0  0  0  0
  188.9250  178.2850  135.2770 N   0  0  0  0  0  0  0  0  0  0  0  0
  186.9750  177.7260  136.6540 C   0  0  0  0  0  0  0  0  0  0  0  0
  184.6980  175.1610  136.0670 C   0  0  0  0  0  0  0  0  0  0  0  0
  189.1760  177.2010  134.5940 C   0  0  0  0  0  3  0  0  0  0  0  0
  185.0760  176.3840  135.8220 N   0  0  0  0  0  0  0  0  0  0  0  0
  186.9610  174.2820  135.7340 C   0  0  0  0  0  0  0  0  0  0  0  0
  180.4970  174.2460  136.8370 C   0  0  0  0  0  0  0  0  0  0  0  0
  180.9040  175.4700  136.1280 C   0  0  0  0  0  0  0  0  0  0  0  0
  180.0450  176.2950  135.7210 O   0  0  0  0  0  0  0  0  0  0  0  0
  183.2710  174.8850  136.3380 C   0  0  0  0  0  0  0  0  0  0  0  0
  181.4270  173.4050  137.2930 C   0  0  0  0  0  3  0  0  0  0  0  0
  182.9050  173.6880  137.1930 C   0  0  0  0  0  2  0  0  0  0  0  0
  182.3270  175.7170  135.8750 C   0  0  0  0  0  3  0  0  0  0  0  0
  179.0570  173.8930  136.9890 C   0  0  0  0  0  2  0  0  0  0  0  0
  178.9390  172.6270  137.5640 O   0  0  0  0  0  1  0  0  0  0  0  0
  185.6210  177.9550  138.9250 C   0  0  0  0  0  0  0  0  0  0  0  0
  186.2320  177.8450  137.8930 C   0  0  0  0  0  0  0  0  0  0  0  0
  184.8920  178.0920  140.1890 C   0  0  0  0  0  2  0  0  0  0  0  0
  181.6600  177.3390  138.7420 O   0  0  0  0  0  0  0  0  0  0  0  0
  182.1590  178.3490  137.8970 C   0  0  2  0  0  3  0  0  0  0  0  0
  183.2600  179.1000  138.6270 C   0  0  0  0  0  2  0  0  0  0  0  0
  183.4240  178.3570  139.9140 C   0  0  1  0  0  3  0  0  0  0  0  0
  182.6810  177.0710  139.6610 C   0  0  0  0  0  2  0  0  0  0  0  0
  180.8400  181.7850  137.3570 C   0  0  0  0  0  2  0  0  0  0  0  0
  181.1350  179.6520  136.0170 C   0  0  0  0  0  2  0  0  0  0  0  0
  181.0710  180.5990  138.2860 C   0  0  2  0  0  3  0  0  0  0  0  0
  180.1980  181.1760  135.7730 S   0  0  0  0  0  0  0  0  0  0  0  0
  181.0310  179.2990  137.4880 C   0  0  2  0  0  3  0  0  0  0  0  0
  180.0080  181.4620  140.2220 O   0  0  0  0  0  0  0  0  0  0  0  0
  180.0460  180.5800  139.3790 C   0  0  0  0  0  3  0  0  0  0  0  0
  188.8660  180.2320  138.1750 N   0  0  0  0  0  0  0  0  0  0  0  0
  188.5290  179.4320  137.4110 C   0  0  0  0  0  0  0  0  0  0  0  0
  187.9230  173.1380  135.7710 C   0  0  0  0  0  2  0  0  0  0  0  0
  188.9380  173.3560  136.8820 C   0  0  0  0  0  2  0  0  0  0  0  0
  190.1430  174.1280  136.3670 C   0  0  0  0  0  2  0  0  0  0  0  0
  192.1560  173.2770  137.3230 O   0  0  0  0  0  0  0  0  0  0  0  0
  191.2400  174.1380  137.3870 C   0  0  0  0  0  0  0  0  0  0  0  0
  191.2580  175.1030  138.4380 N   0  0  0  0  0  2  0  0  0  0  0  0
  190.3230  176.2170  138.4910 C   0  0  0  0  0  2  0  0  0  0  0  0
  189.9680  178.0010  141.8920 C   0  0  2  0  0  3  0  0  0  0  0  0
  192.3620  177.6810  141.2250 C   0  0  0  0  0  2  0  0  0  0  0  0
  189.5850  177.1060  140.7110 C   0  0  1  0  0  3  0  0  0  0  0  0
  188.3800  177.5530  140.1640 O   0  0  0  0  0  1  0  0  0  0  0  0
  190.6850  177.1340  139.6450 C   0  0  1  0  0  3  0  0  0  0  0  0
  191.3800  177.6750  142.3920 C   0  0  1  0  0  3  0  0  0  0  0  0
  191.9540  176.6990  140.2250 N   0  0  0  0  0  2  0  0  0  0  0  0
  189.0430  177.8160  142.9280 O   0  0  0  0  0  0  0  0  0  0  0  0
  188.3540  176.7430  142.5880 O   0  0  0  0  0  0  0  0  0  0  0  0
  187.5770  176.4360  143.7110 C   0  0  0  0  0  2  0  0  0  0  0  0
  186.1540  176.9360  143.5250 C   0  0  0  0  0  2  0  0  0  0  0  0
  185.8190  177.9880  144.5660 C   0  0  0  0  0  2  0  0  0  0  0  0
  184.4910  178.6280  144.2260 C   0  0  0  0  0  2  0  0  0  0  0  0
  184.6500  180.1330  144.2140 C   0  0  0  0  0  1  0  0  0  0  0  0
  191.8240  178.7080  143.4140 C   0  0  0  0  0  2  0  0  0  0  0  0
  192.1650  178.0720  144.6390 O   0  0  0  0  0  0  0  0  0  0  0  0
  189.9410  178.5480  145.6580 C   0  0  0  0  0  2  0  0  0  0  0  0
  188.2390  176.4780  148.2220 F   0  0  0  0  0  0  0  0  0  0  0  0
  191.3860  176.6900  146.3670 N   0  0  0  0  0  0  0  0  0  0  0  0
  190.4650  176.2760  147.4250 C   0  0  0  0  0  2  0  0  0  0  0  0
  189.0480  176.7480  147.1350 C   0  0  2  0  0  3  0  0  0  0  0  0
  189.0960  178.2470  146.8940 C   0  0  0  0  0  2  0  0  0  0  0  0
  191.2080  177.7310  145.6000 C   0  0  0  0  0  0  0  0  0  0  0  0
  1  4  1  6  0  0  0
  1  2  1  0  0  0  0
  1 11  1  0  0  0  0
  2 10  1  0  0  0  0
  2  7  2  0  0  0  0
  3  7  1  0  0  0  0
  3 37  1  0  0  0  0
  5  8  1  0  0  0  0
  6  3  2  0  0  0  0
  7 22  1  0  0  0  0
  8 15  1  0  0  0  0
  9  4  2  0  0  0  0
  9  6  1  0  0  0  0
 10  8  2  0  0  0  0
 11 38  1  0  0  0  0
 11  5  2  0  0  0  0
 12 19  1  0  0  0  0
 12 16  2  0  0  0  0
 13 12  1  0  0  0  0
 14 13  2  0  0  0  0
 15 17  1  0  0  0  0
 17 16  1  0  0  0  0
 18 13  1  0  0  0  0
 18 15  2  0  0  0  0
 19 20  1  0  0  0  0
 21 23  1  0  0  0  0
 22 21  3  0  0  0  0
 24 28  1  0  0  0  0
 25 26  1  1  0  0  0
 25 24  1  0  0  0  0
 26 27  1  0  0  0  0
 27 23  1  6  0  0  0
 28 27  1  0  0  0  0
 29 31  1  0  0  0  0
 31 35  1  1  0  0  0
 32 30  1  0  0  0  0
 32 29  1  0  0  0  0
 33 30  1  6  0  0  0
 33 25  1  0  0  0  0
 33 31  1  0  0  0  0
 35 34  2  0  0  0  0
 37 36  3  0  0  0  0
 38 39  1  0  0  0  0
 40 39  1  0  0  0  0
 40 42  1  0  0  0  0
 41 42  2  0  0  0  0
 42 43  1  0  0  0  0
 43 44  1  0  0  0  0
 45 50  1  0  0  0  0
 45 52  1  1  0  0  0
 46 50  1  0  0  0  0
 47 48  1  6  0  0  0
 47 45  1  0  0  0  0
 49 44  1  6  0  0  0
 49 51  1  0  0  0  0
 49 47  1  0  0  0  0
 50 59  1  1  0  0  0
 51 46  1  0  0  0  0
 53 52  1  0  0  0  0
 53 54  1  0  0  0  0
 55 54  1  0  0  0  0
 55 56  1  0  0  0  0
 57 56  1  0  0  0  0
 58 57  1  0  0  0  0
 59 60  1  0  0  0  0
 60 67  1  0  0  0  0
 61 66  1  0  0  0  0
 63 64  1  0  0  0  0
 65 64  1  0  0  0  0
 65 62  1  1  0  0  0
 66 65  1  0  0  0  0
 67 61  1  0  0  0  0
 67 63  2  0  0  0  0
M  END
>  <MODEL>
2

>  <REMARK>
 VINA RESULT:      -5.3      3.879      8.783
  Name = 
  23 active torsions:
  status: ('A' for Active; 'I' for Inactive)
    1  A    between atoms: C_1  and  C_32
    2  A    between atoms: C_1  and  C_52
    3  A    between atoms: C_3  and  C_13
    4  A    between atoms: C_4  and  C_60
    5  A    between atoms: C_5  and  O_63
    6  A    between atoms: C_7  and  C_31
    7  A    between atoms: C_7  and  O_47
    8  A    between atoms: C_12  and  C_59
    9  A    between atoms: C_12  and  C_66
   10  A    between atoms: O_19  and  C_22
   11  A    between atoms: O_19  and  O_63
   12  A    between atoms: C_20  and  C_41
   13  A    between atoms: C_21  and  C_50
   14  A    between atoms: C_22  and  C_52
   15  A    between atoms: C_24  and  C_29
   16  A    between atoms: C_25  and  C_42
   17  A    between atoms: C_37  and  C_53
   18  A    between atoms: C_37  and  C_59
   19  A    between atoms: C_41  and  N_56
   20  A    between atoms: C_44  and  C_51
   21  A    between atoms: C_45  and  C_60
   22  A    between atoms: C_46  and  C_49
   23  A    between atoms: O_47  and  C_62
                            x       y       z     vdW  Elec       q    Type
                         _______ _______ _______ _____ _____    ______ ____

>  <TORSDO>
F 23

$$$$
=
 OpenBabel11042410333D

 67 73  0  0  1  0  0  0  0  0999 V2000
  190.7260  175.7150  137.2400 C   0  0  2  0  0  3  0  0  0  0  0  0
  191.1080  176.9390  138.0250 C   0  0  0  0  0  0  0  0  0  0  0  0
  193.4720  176.3410  138.4420 C   0  0  0  0  0  0  0  0  0  0  0  0
  191.5730  175.2200  136.3350 C   0  0  0  0  0  3  0  0  0  0  0  0
  188.5090  175.6970  138.2370 C   0  0  0  0  0  3  0  0  0  0  0  0
  193.7200  176.2200  137.0270 N   0  0  0  0  0  0  0  0  0  0  0  0
  192.2550  176.6330  138.9490 C   0  0  0  0  0  0  0  0  0  0  0  0
  188.7960  177.0040  138.8660 C   0  0  0  0  0  0  0  0  0  0  0  0
  192.9360  175.7330  136.1040 C   0  0  0  0  0  3  0  0  0  0  0  0
  189.9720  177.5490  138.7310 N   0  0  0  0  0  0  0  0  0  0  0  0
  189.4050  175.0900  137.4630 C   0  0  0  0  0  0  0  0  0  0  0  0
  185.7320  179.0200  141.2380 C   0  0  0  0  0  0  0  0  0  0  0  0
  185.5470  178.7550  139.8020 C   0  0  0  0  0  0  0  0  0  0  0  0
  184.4920  179.1050  139.2120 O   0  0  0  0  0  0  0  0  0  0  0  0
  187.7550  177.7110  139.6430 C   0  0  0  0  0  0  0  0  0  0  0  0
  186.8750  178.6750  141.8330 C   0  0  0  0  0  3  0  0  0  0  0  0
  188.0440  178.0910  141.0820 C   0  0  0  0  0  2  0  0  0  0  0  0
  186.5980  178.0530  139.0580 C   0  0  0  0  0  3  0  0  0  0  0  0
  184.6300  179.6050  142.0550 C   0  0  0  0  0  2  0  0  0  0  0  0
  183.5660  178.7050  142.1260 O   0  0  0  0  0  1  0  0  0  0  0  0
  191.8570  176.6750  141.5730 C   0  0  0  0  0  0  0  0  0  0  0  0
  192.0340  176.6610  140.3810 C   0  0  0  0  0  0  0  0  0  0  0  0
  191.6390  176.6740  143.0220 C   0  0  0  0  0  2  0  0  0  0  0  0
  189.0820  178.9390  144.2210 O   0  0  0  0  0  0  0  0  0  0  0  0
  189.2060  178.0140  145.2760 C   0  0  2  0  0  3  0  0  0  0  0  0
  189.8660  176.7510  144.7450 C   0  0  0  0  0  2  0  0  0  0  0  0
  190.2090  177.0810  143.3290 C   0  0  1  0  0  3  0  0  0  0  0  0
  190.0540  178.5790  143.2800 C   0  0  0  0  0  2  0  0  0  0  0  0
  186.2810  178.9620  147.3690 C   0  0  0  0  0  2  0  0  0  0  0  0
  186.7280  178.2430  144.9780 C   0  0  0  0  0  2  0  0  0  0  0  0
  187.6600  178.3230  147.2530 C   0  0  2  0  0  3  0  0  0  0  0  0
  185.2440  178.3780  145.9980 S   0  0  0  0  0  0  0  0  0  0  0  0
  187.8300  177.7030  145.8690 C   0  0  2  0  0  3  0  0  0  0  0  0
  187.9620  176.1070  148.0420 O   0  0  0  0  0  0  0  0  0  0  0  0
  187.8520  177.2900  148.3220 C   0  0  0  0  0  3  0  0  0  0  0  0
  195.5310  176.0770  140.0110 N   0  0  0  0  0  0  0  0  0  0  0  0
  194.6160  176.1950  139.3130 C   0  0  0  0  0  0  0  0  0  0  0  0
  189.0680  173.7570  136.8750 C   0  0  0  0  0  2  0  0  0  0  0  0
  187.6440  173.7760  136.3410 C   0  0  0  0  0  2  0  0  0  0  0  0
  186.9840  172.4180  136.5220 C   0  0  0  0  0  2  0  0  0  0  0  0
  185.9160  171.0030  134.9250 O   0  0  0  0  0  0  0  0  0  0  0  0
  186.0020  172.1570  135.4220 C   0  0  0  0  0  0  0  0  0  0  0  0
  185.1670  173.2000  134.9200 N   0  0  0  0  0  2  0  0  0  0  0  0
  185.0990  174.5130  135.5410 C   0  0  0  0  0  2  0  0  0  0  0  0
  181.6570  176.2540  135.4930 C   0  0  2  0  0  3  0  0  0  0  0  0
  181.5200  173.8810  136.2880 C   0  0  0  0  0  2  0  0  0  0  0  0
  183.1140  175.9740  135.1120 C   0  0  1  0  0  3  0  0  0  0  0  0
  183.8760  177.1250  135.3270 O   0  0  0  0  0  1  0  0  0  0  0  0
  183.6690  174.8160  135.9460 C   0  0  1  0  0  3  0  0  0  0  0  0
  180.8270  174.9660  135.4680 C   0  0  1  0  0  3  0  0  0  0  0  0
  182.8510  173.6210  135.7480 N   0  0  0  0  0  2  0  0  0  0  0  0
  181.1180  177.1850  134.5970 O   0  0  0  0  0  0  0  0  0  0  0  0
  180.4970  178.0710  135.3510 O   0  0  0  0  0  0  0  0  0  0  0  0
  181.2930  179.2200  135.2980 C   0  0  0  0  0  2  0  0  0  0  0  0
  180.4730  180.4510  135.6460 C   0  0  0  0  0  2  0  0  0  0  0  0
  180.1110  180.4520  137.1190 C   0  0  0  0  0  2  0  0  0  0  0  0
  179.8680  181.8730  137.5790 C   0  0  0  0  0  2  0  0  0  0  0  0
  181.1800  182.4860  138.0220 C   0  0  0  0  0  1  0  0  0  0  0  0
  179.4490  175.2200  136.0540 C   0  0  0  0  0  2  0  0  0  0  0  0
  179.5540  176.0070  137.2330 O   0  0  0  0  0  0  0  0  0  0  0  0
  179.3720  173.9660  138.6530 C   0  0  0  0  0  2  0  0  0  0  0  0
  179.2300  173.9020  142.3570 F   0  0  0  0  0  0  0  0  0  0  0  0
  179.3120  176.2520  139.5530 N   0  0  0  0  0  0  0  0  0  0  0  0
  179.0950  175.7880  140.9240 C   0  0  0  0  0  2  0  0  0  0  0  0
  179.5900  174.3610  141.1050 C   0  0  2  0  0  3  0  0  0  0  0  0
  178.9320  173.5010  140.0390 C   0  0  0  0  0  2  0  0  0  0  0  0
  179.3830  175.4680  138.5120 C   0  0  0  0  0  0  0  0  0  0  0  0
  1  4  1  6  0  0  0
  1 11  1  0  0  0  0
  1  2  1  0  0  0  0
  2 10  1  0  0  0  0
  2  7  2  0  0  0  0
  3  7  1  0  0  0  0
  3 37  1  0  0  0  0
  5  8  1  0  0  0  0
  6  3  2  0  0  0  0
  7 22  1  0  0  0  0
  8 15  1  0  0  0  0
  9  4  2  0  0  0  0
  9  6  1  0  0  0  0
 10  8  2  0  0  0  0
 11  5  2  0  0  0  0
 12 16  2  0  0  0  0
 12 19  1  0  0  0  0
 13 12  1  0  0  0  0
 14 13  2  0  0  0  0
 15 17  1  0  0  0  0
 17 16  1  0  0  0  0
 18 15  2  0  0  0  0
 18 13  1  0  0  0  0
 19 20  1  0  0  0  0
 21 23  1  0  0  0  0
 22 21  3  0  0  0  0
 24 25  1  0  0  0  0
 25 26  1  6  0  0  0
 25 33  1  0  0  0  0
 27 23  1  1  0  0  0
 27 26  1  0  0  0  0
 28 27  1  0  0  0  0
 28 24  1  0  0  0  0
 30 32  1  0  0  0  0
 31 29  1  0  0  0  0
 31 35  1  1  0  0  0
 32 29  1  0  0  0  0
 33 30  1  6  0  0  0
 33 31  1  0  0  0  0
 34 35  2  0  0  0  0
 37 36  3  0  0  0  0
 38 11  1  0  0  0  0
 39 40  1  0  0  0  0
 39 38  1  0  0  0  0
 41 42  2  0  0  0  0
 42 40  1  0  0  0  0
 43 42  1  0  0  0  0
 43 44  1  0  0  0  0
 45 52  1  6  0  0  0
 47 48  1  1  0  0  0
 47 45  1  0  0  0  0
 47 49  1  0  0  0  0
 49 44  1  6  0  0  0
 50 45  1  0  0  0  0
 50 59  1  1  0  0  0
 50 46  1  0  0  0  0
 51 49  1  0  0  0  0
 51 46  1  0  0  0  0
 52 53  1  0  0  0  0
 54 53  1  0  0  0  0
 54 55  1  0  0  0  0
 55 56  1  0  0  0  0
 56 57  1  0  0  0  0
 57 58  1  0  0  0  0
 59 60  1  0  0  0  0
 60 67  1  0  0  0  0
 61 66  1  0  0  0  0
 63 64  1  0  0  0  0
 64 65  1  0  0  0  0
 65 62  1  1  0  0  0
 66 65  1  0  0  0  0
 67 61  1  0  0  0  0
 67 63  2  0  0  0  0
M  END
>  <MODEL>
3

>  <REMARK>
 VINA RESULT:      -4.1      4.003     11.262
  Name = 
  23 active torsions:
  status: ('A' for Active; 'I' for Inactive)
    1  A    between atoms: C_1  and  C_32
    2  A    between atoms: C_1  and  C_52
    3  A    between atoms: C_3  and  C_13
    4  A    between atoms: C_4  and  C_60
    5  A    between atoms: C_5  and  O_63
    6  A    between atoms: C_7  and  C_31
    7  A    between atoms: C_7  and  O_47
    8  A    between atoms: C_12  and  C_59
    9  A    between atoms: C_12  and  C_66
   10  A    between atoms: O_19  and  C_22
   11  A    between atoms: O_19  and  O_63
   12  A    between atoms: C_20  and  C_41
   13  A    between atoms: C_21  and  C_50
   14  A    between atoms: C_22  and  C_52
   15  A    between atoms: C_24  and  C_29
   16  A    between atoms: C_25  and  C_42
   17  A    between atoms: C_37  and  C_53
   18  A    between atoms: C_37  and  C_59
   19  A    between atoms: C_41  and  N_56
   20  A    between atoms: C_44  and  C_51
   21  A    between atoms: C_45  and  C_60
   22  A    between atoms: C_46  and  C_49
   23  A    between atoms: O_47  and  C_62
                            x       y       z     vdW  Elec       q    Type
                         _______ _______ _______ _____ _____    ______ ____

>  <TORSDO>
F 23

$$$$
=
 OpenBabel11042410333D

 67 73  0  0  1  0  0  0  0  0999 V2000
  188.9480  177.6350  143.5970 C   0  0  0  0  0  0  0  0  0  0  0  0
  187.9190  178.6790  143.2640 C   0  0  0  0  0  0  0  0  0  0  0  0
  186.5910  178.5120  145.3450 C   0  0  0  0  0  0  0  0  0  0  0  0
  189.4470  177.5700  144.8340 C   0  0  0  0  0  3  0  0  0  0  0  0
  189.0390  176.9020  141.2810 C   0  0  0  0  0  3  0  0  0  0  0  0
  187.7550  178.7990  146.1440 N   0  0  0  0  0  0  0  0  0  0  0  0
  186.6360  178.4050  143.9990 C   0  0  0  0  0  0  0  0  0  0  0  0
  188.1780  178.0440  140.9010 C   0  0  0  0  0  0  0  0  0  0  0  0
  188.9840  178.4010  145.9610 C   0  0  0  0  0  3  0  0  0  0  0  0
  187.7080  178.8410  141.8180 N   0  0  0  0  0  0  0  0  0  0  0  0
  189.4130  176.7090  142.5430 C   0  0  2  0  0  3  0  0  0  0  0  0
  187.1450  178.7170  136.7110 C   0  0  0  0  0  0  0  0  0  0  0  0
  188.5410  178.7450  137.1770 C   0  0  0  0  0  0  0  0  0  0  0  0
  189.4840  178.9670  136.3730 O   0  0  0  0  0  0  0  0  0  0  0  0
  187.8500  178.2990  139.4810 C   0  0  0  0  0  0  0  0  0  0  0  0
  186.1580  178.5180  137.5870 C   0  0  0  0  0  3  0  0  0  0  0  0
  186.3950  178.4020  139.0720 C   0  0  0  0  0  2  0  0  0  0  0  0
  188.8340  178.4890  138.5900 C   0  0  0  0  0  3  0  0  0  0  0  0
  186.8190  178.8340  135.2600 C   0  0  0  0  0  2  0  0  0  0  0  0
  187.2080  177.6710  134.5940 O   0  0  0  0  0  1  0  0  0  0  0  0
  184.4730  177.7310  142.6150 C   0  0  0  0  0  0  0  0  0  0  0  0
  185.4560  178.0300  143.2430 C   0  0  0  0  0  0  0  0  0  0  0  0
  183.2660  177.3750  141.8630 C   0  0  0  0  0  2  0  0  0  0  0  0
  181.2940  179.6190  139.8200 O   0  0  0  0  0  0  0  0  0  0  0  0
  181.4140  178.4750  139.0080 C   0  0  2  0  0  3  0  0  0  0  0  0
  182.5910  177.6470  139.4990 C   0  0  0  0  0  2  0  0  0  0  0  0
  183.0560  178.3600  140.7280 C   0  0  1  0  0  3  0  0  0  0  0  0
  181.9160  179.2970  141.0310 C   0  0  0  0  0  2  0  0  0  0  0  0
  180.2310  178.5860  135.4830 C   0  0  0  0  0  2  0  0  0  0  0  0
  180.9590  180.2260  137.2750 C   0  0  0  0  0  2  0  0  0  0  0  0
  180.9910  177.8640  136.5900 C   0  0  2  0  0  3  0  0  0  0  0  0
  180.7020  180.3380  135.4910 S   0  0  0  0  0  0  0  0  0  0  0  0
  181.6070  178.8830  137.5460 C   0  0  2  0  0  3  0  0  0  0  0  0
  183.2280  177.1400  136.2830 O   0  0  0  0  0  0  0  0  0  0  0  0
  182.0500  176.9770  136.0100 C   0  0  0  0  0  3  0  0  0  0  0  0
  184.3280  178.3120  146.6140 N   0  0  0  0  0  0  0  0  0  0  0  0
  185.3340  178.4000  146.0490 C   0  0  0  0  0  0  0  0  0  0  0  0
  190.2620  175.5230  142.8720 C   0  0  0  0  0  2  0  0  0  0  0  0
  191.7270  175.9310  142.9000 C   0  0  0  0  0  2  0  0  0  0  0  0
  191.9880  177.0670  141.9230 C   0  0  0  0  0  2  0  0  0  0  0  0
  194.2010  176.2440  141.5810 O   0  0  0  0  0  0  0  0  0  0  0  0
  193.1770  176.7620  141.0640 C   0  0  0  0  0  0  0  0  0  0  0  0
  193.1720  177.0620  139.6690 N   0  0  0  0  0  2  0  0  0  0  0  0
  191.9790  177.5190  138.9730 C   0  0  0  0  0  2  0  0  0  0  0  0
  192.5730  174.8310  136.2700 C   0  0  2  0  0  3  0  0  0  0  0  0
  190.2270  174.8040  137.1490 C   0  0  0  0  0  2  0  0  0  0  0  0
  192.9120  175.8220  137.3880 C   0  0  1  0  0  3  0  0  0  0  0  0
  193.8620  176.7340  136.9230 O   0  0  0  0  0  1  0  0  0  0  0  0
  191.6510  176.5650  137.8390 C   0  0  1  0  0  3  0  0  0  0  0  0
  191.3900  173.9420  136.6660 C   0  0  1  0  0  3  0  0  0  0  0  0
  190.6430  175.6090  138.2930 N   0  0  0  0  0  2  0  0  0  0  0  0
  193.6960  174.0370  136.0040 O   0  0  0  0  0  0  0  0  0  0  0  0
  193.5620  172.9780  136.7790 O   0  0  0  0  0  0  0  0  0  0  0  0
  194.8680  172.5470  137.0410 C   0  0  0  0  0  2  0  0  0  0  0  0
  195.8600  173.6660  136.7720 C   0  0  0  0  0  2  0  0  0  0  0  0
  196.9380  173.6900  137.8400 C   0  0  0  0  0  2  0  0  0  0  0  0
  198.0540  174.6170  137.4100 C   0  0  0  0  0  2  0  0  0  0  0  0
  198.0080  174.7900  135.9070 C   0  0  0  0  0  1  0  0  0  0  0  0
  190.9320  173.1190  135.4740 C   0  0  0  0  0  2  0  0  0  0  0  0
  189.9510  172.1720  135.8780 O   0  0  0  0  0  0  0  0  0  0  0  0
  187.9020  172.8440  134.6280 C   0  0  0  0  0  2  0  0  0  0  0  0
  184.4710  173.0280  136.0220 F   0  0  0  0  0  0  0  0  0  0  0  0
  187.9240  172.3690  137.0400 N   0  0  0  0  0  0  0  0  0  0  0  0
  186.5070  172.7010  137.1950 C   0  0  0  0  0  2  0  0  0  0  0  0
  185.7630  172.5600  135.8760 C   0  0  2  0  0  3  0  0  0  0  0  0
  186.4930  173.3930  134.8370 C   0  0  0  0  0  2  0  0  0  0  0  0
  188.5870  172.4760  135.9200 C   0  0  0  0  0  0  0  0  0  0  0  0
  1  4  2  0  0  0  0
  2  1  1  0  0  0  0
  2  7  1  0  0  0  0
  3 37  1  0  0  0  0
  3  6  1  0  0  0  0
  4  9  1  0  0  0  0
  5 11  1  0  0  0  0
  7  3  2  0  0  0  0
  8  5  2  0  0  0  0
  8 10  1  0  0  0  0
  9  6  2  0  0  0  0
 10  2  2  0  0  0  0
 11 38  1  1  0  0  0
 11  1  1  0  0  0  0
 12 13  1  0  0  0  0
 12 16  2  0  0  0  0
 13 18  1  0  0  0  0
 14 13  2  0  0  0  0
 15  8  1  0  0  0  0
 16 17  1  0  0  0  0
 17 15  1  0  0  0  0
 18 15  2  0  0  0  0
 19 12  1  0  0  0  0
 20 19  1  0  0  0  0
 21 22  3  0  0  0  0
 22  7  1  0  0  0  0
 23 21  1  0  0  0  0
 24 28  1  0  0  0  0
 25 26  1  1  0  0  0
 25 24  1  0  0  0  0
 26 27  1  0  0  0  0
 27 28  1  0  0  0  0
 27 23  1  1  0  0  0
 29 32  1  0  0  0  0
 29 31  1  0  0  0  0
 31 35  1  6  0  0  0
 31 33  1  0  0  0  0
 32 30  1  0  0  0  0
 33 30  1  1  0  0  0
 33 25  1  0  0  0  0
 35 34  2  0  0  0  0
 37 36  3  0  0  0  0
 38 39  1  0  0  0  0
 40 39  1  0  0  0  0
 42 41  2  0  0  0  0
 42 40  1  0  0  0  0
 43 42  1  0  0  0  0
 44 43  1  0  0  0  0
 45 52  1  1  0  0  0
 45 50  1  0  0  0  0
 45 47  1  0  0  0  0
 46 51  1  0  0  0  0
 47 48  1  6  0  0  0
 47 49  1  0  0  0  0
 49 51  1  0  0  0  0
 49 44  1  1  0  0  0
 50 59  1  6  0  0  0
 50 46  1  0  0  0  0
 52 53  1  0  0  0  0
 53 54  1  0  0  0  0
 55 54  1  0  0  0  0
 55 56  1  0  0  0  0
 57 56  1  0  0  0  0
 58 57  1  0  0  0  0
 59 60  1  0  0  0  0
 60 67  1  0  0  0  0
 61 66  1  0  0  0  0
 61 67  1  0  0  0  0
 63 64  1  0  0  0  0
 65 62  1  1  0  0  0
 65 64  1  0  0  0  0
 66 65  1  0  0  0  0
 67 63  2  0  0  0  0
M  END
>  <MODEL>
4

>  <REMARK>
 VINA RESULT:      -3.4      2.673      4.592
  Name = 
  23 active torsions:
  status: ('A' for Active; 'I' for Inactive)
    1  A    between atoms: C_1  and  C_32
    2  A    between atoms: C_1  and  C_52
    3  A    between atoms: C_3  and  C_13
    4  A    between atoms: C_4  and  C_60
    5  A    between atoms: C_5  and  O_63
    6  A    between atoms: C_7  and  C_31
    7  A    between atoms: C_7  and  O_47
    8  A    between atoms: C_12  and  C_59
    9  A    between atoms: C_12  and  C_66
   10  A    between atoms: O_19  and  C_22
   11  A    between atoms: O_19  and  O_63
   12  A    between atoms: C_20  and  C_41
   13  A    between atoms: C_21  and  C_50
   14  A    between atoms: C_22  and  C_52
   15  A    between atoms: C_24  and  C_29
   16  A    between atoms: C_25  and  C_42
   17  A    between atoms: C_37  and  C_53
   18  A    between atoms: C_37  and  C_59
   19  A    between atoms: C_41  and  N_56
   20  A    between atoms: C_44  and  C_51
   21  A    between atoms: C_45  and  C_60
   22  A    between atoms: C_46  and  C_49
   23  A    between atoms: O_47  and  C_62
                            x       y       z     vdW  Elec       q    Type
                         _______ _______ _______ _____ _____    ______ ____

>  <TORSDO>
F 23

$$$$
=
 OpenBabel11042410333D

 67 73  0  0  1  0  0  0  0  0999 V2000
  182.3250  179.4100  139.5520 C   0  0  0  0  0  0  0  0  0  0  0  0
  182.8820  179.7410  138.1960 C   0  0  2  0  0  3  0  0  0  0  0  0
  180.7290  179.9350  136.9910 C   0  0  0  0  0  0  0  0  0  0  0  0
  181.2410  180.0510  139.9960 C   0  0  0  0  0  3  0  0  0  0  0  0
  184.1720  177.8970  140.0050 C   0  0  0  0  0  3  0  0  0  0  0  0
  180.2740  180.9470  137.9100 N   0  0  0  0  0  0  0  0  0  0  0  0
  181.9240  179.3170  137.1170 C   0  0  0  0  0  0  0  0  0  0  0  0
  184.8340  178.3550  138.7640 C   0  0  0  0  0  0  0  0  0  0  0  0
  180.4630  181.0180  139.1990 C   0  0  0  0  0  3  0  0  0  0  0  0
  184.2350  179.2070  137.9810 N   0  0  0  0  0  0  0  0  0  0  0  0
  182.9990  178.3940  140.3880 C   0  0  0  0  0  0  0  0  0  0  0  0
  188.7720  176.8090  137.6780 C   0  0  0  0  0  0  0  0  0  0  0  0
  188.5660  177.6160  138.8920 C   0  0  0  0  0  0  0  0  0  0  0  0
  189.5290  177.8850  139.6580 O   0  0  0  0  0  0  0  0  0  0  0  0
  186.1810  177.8640  138.4040 C   0  0  0  0  0  0  0  0  0  0  0  0
  187.7450  176.5690  136.8610 C   0  0  0  0  0  3  0  0  0  0  0  0
  186.3740  177.1610  137.0750 C   0  0  0  0  0  2  0  0  0  0  0  0
  187.2190  178.0900  139.2220 C   0  0  0  0  0  3  0  0  0  0  0  0
  190.0980  176.1940  137.3840 C   0  0  0  0  0  2  0  0  0  0  0  0
  190.2370  175.0060  138.1010 O   0  0  0  0  0  1  0  0  0  0  0  0
  182.6150  177.3450  135.4800 C   0  0  0  0  0  0  0  0  0  0  0  0
  182.3040  178.2440  136.2190 C   0  0  0  0  0  0  0  0  0  0  0  0
  183.0010  176.2420  134.5950 C   0  0  0  0  0  2  0  0  0  0  0  0
  181.2770  174.0870  136.9370 O   0  0  0  0  0  0  0  0  0  0  0  0
  182.5620  173.5150  136.8670 C   0  0  2  0  0  3  0  0  0  0  0  0
  183.2420  173.9920  135.5930 C   0  0  0  0  0  2  0  0  0  0  0  0
  182.2790  174.9720  135.0060 C   0  0  1  0  0  3  0  0  0  0  0  0
  181.3260  175.2380  136.1420 C   0  0  0  0  0  2  0  0  0  0  0  0
  181.3830  170.3120  135.3890 C   0  0  0  0  0  2  0  0  0  0  0  0
  183.5830  171.3650  136.0830 C   0  0  0  0  0  2  0  0  0  0  0  0
  181.1380  171.5000  136.3120 C   0  0  2  0  0  3  0  0  0  0  0  0
  183.0640  169.6860  135.6680 S   0  0  0  0  0  0  0  0  0  0  0  0
  182.4620  171.9890  136.8920 C   0  0  2  0  0  3  0  0  0  0  0  0
  180.0700  171.8230  138.4040 O   0  0  0  0  0  0  0  0  0  0  0  0
  180.1860  171.1280  137.4080 C   0  0  0  0  0  3  0  0  0  0  0  0
  179.1730  179.4100  134.9730 N   0  0  0  0  0  0  0  0  0  0  0  0
  179.8650  179.6430  135.8700 C   0  0  0  0  0  0  0  0  0  0  0  0
  182.3670  177.8740  141.6390 C   0  0  0  0  0  2  0  0  0  0  0  0
  181.8950  179.0360  142.4990 C   0  0  0  0  0  2  0  0  0  0  0  0
  182.9290  179.3710  143.5630 C   0  0  0  0  0  2  0  0  0  0  0  0
  181.5980  177.9250  144.9160 O   0  0  0  0  0  0  0  0  0  0  0  0
  182.6160  178.6630  144.8450 C   0  0  0  0  0  0  0  0  0  0  0  0
  183.4490  178.8200  145.9940 N   0  0  0  0  0  2  0  0  0  0  0  0
  184.7170  179.5300  145.9460 C   0  0  0  0  0  2  0  0  0  0  0  0
  187.7790  177.3590  145.0590 C   0  0  2  0  0  3  0  0  0  0  0  0
  187.7790  178.0770  147.4590 C   0  0  0  0  0  2  0  0  0  0  0  0
  186.6030  178.3140  144.8390 C   0  0  1  0  0  3  0  0  0  0  0  0
  185.7340  177.7650  143.8940 O   0  0  0  0  0  1  0  0  0  0  0  0
  185.8590  178.5530  146.1570 C   0  0  1  0  0  3  0  0  0  0  0  0
  188.6490  177.8210  146.2330 C   0  0  1  0  0  3  0  0  0  0  0  0
  186.7770  179.0950  147.1570 N   0  0  0  0  0  2  0  0  0  0  0  0
  188.5500  177.3010  143.8900 O   0  0  0  0  0  0  0  0  0  0  0  0
  188.4640  176.0500  143.4820 O   0  0  0  0  0  0  0  0  0  0  0  0
  189.5980  175.8450  142.6870 C   0  0  0  0  0  2  0  0  0  0  0  0
  190.7570  175.3450  143.5330 C   0  0  0  0  0  2  0  0  0  0  0  0
  191.9430  176.2840  143.4200 C   0  0  0  0  0  2  0  0  0  0  0  0
  191.4500  177.7140  143.3590 C   0  0  0  0  0  2  0  0  0  0  0  0
  192.0460  178.3980  142.1480 C   0  0  0  0  0  1  0  0  0  0  0  0
  189.6780  176.7560  146.5730 C   0  0  0  0  0  2  0  0  0  0  0  0
  190.9400  177.3570  146.8340 O   0  0  0  0  0  0  0  0  0  0  0  0
  192.3380  175.6160  147.9400 C   0  0  0  0  0  2  0  0  0  0  0  0
  194.3530  176.0800  151.0180 F   0  0  0  0  0  0  0  0  0  0  0  0
  191.9860  177.8630  148.8710 N   0  0  0  0  0  0  0  0  0  0  0  0
  192.7680  177.5710  150.0740 C   0  0  0  0  0  2  0  0  0  0  0  0
  193.7470  176.4330  149.8280 C   0  0  2  0  0  3  0  0  0  0  0  0
  192.9620  175.2510  149.2850 C   0  0  0  0  0  2  0  0  0  0  0  0
  191.7300  176.9960  147.9300 C   0  0  0  0  0  0  0  0  0  0  0  0
  1  4  2  0  0  0  0
  1 11  1  0  0  0  0
  2  7  1  6  0  0  0
  2  1  1  0  0  0  0
  3  7  2  0  0  0  0
  3  6  1  0  0  0  0
  5 11  2  0  0  0  0
  6  9  2  0  0  0  0
  8  5  1  0  0  0  0
  9  4  1  0  0  0  0
 10  2  1  0  0  0  0
 10  8  2  0  0  0  0
 11 38  1  0  0  0  0
 12 13  1  0  0  0  0
 13 18  1  0  0  0  0
 13 14  2  0  0  0  0
 15  8  1  0  0  0  0
 15 18  2  0  0  0  0
 16 17  1  0  0  0  0
 16 12  2  0  0  0  0
 17 15  1  0  0  0  0
 19 12  1  0  0  0  0
 19 20  1  0  0  0  0
 21 22  3  0  0  0  0
 22  7  1  0  0  0  0
 23 21  1  0  0  0  0
 25 26  1  6  0  0  0
 25 33  1  0  0  0  0
 25 24  1  0  0  0  0
 27 23  1  1  0  0  0
 27 26  1  0  0  0  0
 27 28  1  0  0  0  0
 28 24  1  0  0  0  0
 29 32  1  0  0  0  0
 29 31  1  0  0  0  0
 31 33  1  0  0  0  0
 31 35  1  1  0  0  0
 32 30  1  0  0  0  0
 33 30  1  6  0  0  0
 35 34  2  0  0  0  0
 36 37  3  0  0  0  0
 37  3  1  0  0  0  0
 38 39  1  0  0  0  0
 39 40  1  0  0  0  0
 40 42  1  0  0  0  0
 42 41  2  0  0  0  0
 42 43  1  0  0  0  0
 44 43  1  0  0  0  0
 45 52  1  6  0  0  0
 45 50  1  0  0  0  0
 47 48  1  6  0  0  0
 47 45  1  0  0  0  0
 47 49  1  0  0  0  0
 49 44  1  6  0  0  0
 49 51  1  0  0  0  0
 50 59  1  1  0  0  0
 50 46  1  0  0  0  0
 51 46  1  0  0  0  0
 53 52  1  0  0  0  0
 54 53  1  0  0  0  0
 54 55  1  0  0  0  0
 56 55  1  0  0  0  0
 57 56  1  0  0  0  0
 58 57  1  0  0  0  0
 59 60  1  0  0  0  0
 60 67  1  0  0  0  0
 61 66  1  0  0  0  0
 63 64  1  0  0  0  0
 65 64  1  0  0  0  0
 65 62  1  1  0  0  0
 66 65  1  0  0  0  0
 67 61  1  0  0  0  0
 67 63  2  0  0  0  0
M  END
>  <MODEL>
5

>  <REMARK>
 VINA RESULT:      -3.3      4.187      7.610
  Name = 
  23 active torsions:
  status: ('A' for Active; 'I' for Inactive)
    1  A    between atoms: C_1  and  C_32
    2  A    between atoms: C_1  and  C_52
    3  A    between atoms: C_3  and  C_13
    4  A    between atoms: C_4  and  C_60
    5  A    between atoms: C_5  and  O_63
    6  A    between atoms: C_7  and  C_31
    7  A    between atoms: C_7  and  O_47
    8  A    between atoms: C_12  and  C_59
    9  A    between atoms: C_12  and  C_66
   10  A    between atoms: O_19  and  C_22
   11  A    between atoms: O_19  and  O_63
   12  A    between atoms: C_20  and  C_41
   13  A    between atoms: C_21  and  C_50
   14  A    between atoms: C_22  and  C_52
   15  A    between atoms: C_24  and  C_29
   16  A    between atoms: C_25  and  C_42
   17  A    between atoms: C_37  and  C_53
   18  A    between atoms: C_37  and  C_59
   19  A    between atoms: C_41  and  N_56
   20  A    between atoms: C_44  and  C_51
   21  A    between atoms: C_45  and  C_60
   22  A    between atoms: C_46  and  C_49
   23  A    between atoms: O_47  and  C_62
                            x       y       z     vdW  Elec       q    Type
                         _______ _______ _______ _____ _____    ______ ____

>  <TORSDO>
F 23

$$$$
=
 OpenBabel11042410333D

 67 73  0  0  1  0  0  0  0  0999 V2000
  181.7180  175.4120  135.9680 C   0  0  0  0  0  0  0  0  0  0  0  0
  182.7160  174.7780  135.0400 C   0  0  0  0  0  0  0  0  0  0  0  0
  181.8610  172.4590  135.1680 C   0  0  0  0  0  0  0  0  0  0  0  0
  180.4340  175.0530  135.9030 C   0  0  0  0  0  3  0  0  0  0  0  0
  183.4110  176.9140  136.8550 C   0  0  0  0  0  3  0  0  0  0  0  0
  180.5560  172.8860  134.7280 N   0  0  0  0  0  0  0  0  0  0  0  0
  182.8840  173.3190  135.3670 C   0  0  0  0  0  0  0  0  0  0  0  0
  184.3550  176.4400  135.8190 C   0  0  0  0  0  0  0  0  0  0  0  0
  179.9140  173.9800  135.0350 C   0  0  0  0  0  3  0  0  0  0  0  0
  184.0010  175.4910  135.0000 N   0  0  0  0  0  2  0  0  0  0  0  0
  182.1690  176.4440  136.9260 C   0  0  0  0  0  0  0  0  0  0  0  0
  188.3700  178.1240  135.4760 C   0  0  0  0  0  0  0  0  0  0  0  0
  187.2900  178.8370  136.1770 C   0  0  0  0  0  0  0  0  0  0  0  0
  187.4960  179.9630  136.7020 O   0  0  0  0  0  0  0  0  0  0  0  0
  185.7000  177.0410  135.6940 C   0  0  0  0  0  0  0  0  0  0  0  0
  188.1190  176.9490  134.8940 C   0  0  0  0  0  3  0  0  0  0  0  0
  186.7400  176.3410  134.8430 C   0  0  0  0  0  2  0  0  0  0  0  0
  185.9670  178.2150  136.2840 C   0  0  0  0  0  3  0  0  0  0  0  0
  189.7620  178.6590  135.4680 C   0  0  0  0  0  2  0  0  0  0  0  0
  190.6290  177.7280  136.0380 O   0  0  0  0  0  1  0  0  0  0  0  0
  185.2020  172.4610  136.3330 C   0  0  0  0  0  0  0  0  0  0  0  0
  184.1530  172.8550  135.8910 C   0  0  0  0  0  0  0  0  0  0  0  0
  186.4720  171.9830  136.8870 C   0  0  0  0  0  2  0  0  0  0  0  0
  188.7540  173.6320  134.6120 O   0  0  0  0  0  0  0  0  0  0  0  0
  189.5740  172.6820  135.2490 C   0  0  2  0  0  3  0  0  0  0  0  0
  188.9070  172.2500  136.5460 C   0  0  0  0  0  2  0  0  0  0  0  0
  187.5870  172.9490  136.5330 C   0  0  1  0  0  3  0  0  0  0  0  0
  187.4620  173.4160  135.1060 C   0  0  0  0  0  2  0  0  0  0  0  0
  192.6040  173.0200  137.3810 C   0  0  0  0  0  2  0  0  0  0  0  0
  192.0460  172.3590  134.9970 C   0  0  0  0  0  2  0  0  0  0  0  0
  191.2000  173.4850  137.0130 C   0  0  2  0  0  3  0  0  0  0  0  0
  193.5690  172.8010  135.8600 S   0  0  0  0  0  0  0  0  0  0  0  0
  190.9580  173.2760  135.5200 C   0  0  2  0  0  3  0  0  0  0  0  0
  190.3230  175.2430  138.3410 O   0  0  0  0  0  0  0  0  0  0  0  0
  191.0090  174.9250  137.3830 C   0  0  0  0  0  3  0  0  0  0  0  0
  182.2090  169.8980  135.4640 N   0  0  0  0  0  0  0  0  0  0  0  0
  182.0540  171.0370  135.3320 C   0  0  0  0  0  0  0  0  0  0  0  0
  181.2680  176.9420  138.0110 C   0  0  0  0  0  2  0  0  0  0  0  0
  180.2230  175.8870  138.3360 C   0  0  0  0  0  2  0  0  0  0  0  0
  180.0030  175.7940  139.8380 C   0  0  0  0  0  2  0  0  0  0  0  0
  178.9310  177.8310  140.4650 O   0  0  0  0  0  0  0  0  0  0  0  0
  179.9950  177.1580  140.4560 C   0  0  0  0  0  0  0  0  0  0  0  0
  181.1790  177.7130  141.0270 N   0  0  0  0  0  2  0  0  0  0  0  0
  182.4020  176.9430  141.1900 C   0  0  0  0  0  2  0  0  0  0  0  0
  185.4570  178.8830  142.5260 C   0  0  2  0  0  3  0  0  0  0  0  0
  185.6560  178.3440  140.0870 C   0  0  0  0  0  2  0  0  0  0  0  0
  184.2240  177.9750  142.5600 C   0  0  1  0  0  3  0  0  0  0  0  0
  183.2920  178.4970  143.4600 O   0  0  0  0  0  1  0  0  0  0  0  0
  183.6010  177.8730  141.1640 C   0  0  1  0  0  3  0  0  0  0  0  0
  186.4150  178.4640  141.4060 C   0  0  1  0  0  3  0  0  0  0  0  0
  184.5860  177.3600  140.2150 N   0  0  0  0  0  2  0  0  0  0  0  0
  186.1120  178.8140  143.7620 O   0  0  0  0  0  0  0  0  0  0  0  0
  186.0210  177.5520  144.1320 O   0  0  0  0  0  0  0  0  0  0  0  0
  186.9020  177.4210  145.2110 C   0  0  0  0  0  2  0  0  0  0  0  0
  186.5380  178.3990  146.3160 C   0  0  0  0  0  2  0  0  0  0  0  0
  187.7100  178.5970  147.2590 C   0  0  0  0  0  2  0  0  0  0  0  0
  188.6360  177.4030  147.1710 C   0  0  0  0  0  2  0  0  0  0  0  0
  189.8510  177.6480  148.0400 C   0  0  0  0  0  1  0  0  0  0  0  0
  187.5170  179.4980  141.2470 C   0  0  0  0  0  2  0  0  0  0  0  0
  188.7540  178.8570  140.9620 O   0  0  0  0  0  0  0  0  0  0  0  0
  189.6890  178.6730  143.2650 C   0  0  0  0  0  2  0  0  0  0  0  0
  191.1180  175.6110  144.7910 F   0  0  0  0  0  0  0  0  0  0  0  0
  189.7520  176.8410  141.6270 N   0  0  0  0  0  0  0  0  0  0  0  0
  190.4920  175.9580  142.5290 C   0  0  0  0  0  2  0  0  0  0  0  0
  190.2870  176.3610  143.9820 C   0  0  2  0  0  3  0  0  0  0  0  0
  190.6420  177.8330  144.1120 C   0  0  0  0  0  2  0  0  0  0  0  0
  189.4290  178.0750  141.9050 C   0  0  0  0  0  0  0  0  0  0  0  0
  1 11  2  0  0  0  0
  2  7  2  0  0  0  0
  2  1  1  0  0  0  0
  3 37  1  0  0  0  0
  3  7  1  0  0  0  0
  4  1  1  0  0  0  0
  5 11  1  0  0  0  0
  6  9  1  0  0  0  0
  6  3  2  0  0  0  0
  7 22  1  0  0  0  0
  8  5  2  0  0  0  0
  9  4  2  0  0  0  0
 10  2  1  0  0  0  0
 10  8  1  0  0  0  0
 11 38  1  0  0  0  0
 12 13  1  0  0  0  0
 13 18  1  0  0  0  0
 13 14  2  0  0  0  0
 15  8  1  0  0  0  0
 15 18  2  0  0  0  0
 16 12  2  0  0  0  0
 17 16  1  0  0  0  0
 17 15  1  0  0  0  0
 19 12  1  0  0  0  0
 19 20  1  0  0  0  0
 21 23  1  0  0  0  0
 22 21  3  0  0  0  0
 24 28  1  0  0  0  0
 24 25  1  0  0  0  0
 25 33  1  0  0  0  0
 25 26  1  1  0  0  0
 27 26  1  0  0  0  0
 27 23  1  6  0  0  0
 28 27  1  0  0  0  0
 30 32  1  0  0  0  0
 31 29  1  0  0  0  0
 31 35  1  6  0  0  0
 32 29  1  0  0  0  0
 33 30  1  1  0  0  0
 33 31  1  0  0  0  0
 35 34  2  0  0  0  0
 37 36  3  0  0  0  0
 38 39  1  0  0  0  0
 39 40  1  0  0  0  0
 40 42  1  0  0  0  0
 42 41  2  0  0  0  0
 42 43  1  0  0  0  0
 43 44  1  0  0  0  0
 45 47  1  0  0  0  0
 45 52  1  1  0  0  0
 46 51  1  0  0  0  0
 46 50  1  0  0  0  0
 47 48  1  1  0  0  0
 49 44  1  1  0  0  0
 49 47  1  0  0  0  0
 50 59  1  6  0  0  0
 50 45  1  0  0  0  0
 51 49  1  0  0  0  0
 52 53  1  0  0  0  0
 53 54  1  0  0  0  0
 54 55  1  0  0  0  0
 55 56  1  0  0  0  0
 57 56  1  0  0  0  0
 57 58  1  0  0  0  0
 60 59  1  0  0  0  0
 60 67  1  0  0  0  0
 61 66  1  0  0  0  0
 63 67  2  0  0  0  0
 63 64  1  0  0  0  0
 64 65  1  0  0  0  0
 65 66  1  0  0  0  0
 65 62  1  1  0  0  0
 67 61  1  0  0  0  0
M  END
>  <MODEL>
6

>  <REMARK>
 VINA RESULT:      -3.0      3.316      8.206
  Name = 
  23 active torsions:
  status: ('A' for Active; 'I' for Inactive)
    1  A    between atoms: C_1  and  C_32
    2  A    between atoms: C_1  and  C_52
    3  A    between atoms: C_3  and  C_13
    4  A    between atoms: C_4  and  C_60
    5  A    between atoms: C_5  and  O_63
    6  A    between atoms: C_7  and  C_31
    7  A    between atoms: C_7  and  O_47
    8  A    between atoms: C_12  and  C_59
    9  A    between atoms: C_12  and  C_66
   10  A    between atoms: O_19  and  C_22
   11  A    between atoms: O_19  and  O_63
   12  A    between atoms: C_20  and  C_41
   13  A    between atoms: C_21  and  C_50
   14  A    between atoms: C_22  and  C_52
   15  A    between atoms: C_24  and  C_29
   16  A    between atoms: C_25  and  C_42
   17  A    between atoms: C_37  and  C_53
   18  A    between atoms: C_37  and  C_59
   19  A    between atoms: C_41  and  N_56
   20  A    between atoms: C_44  and  C_51
   21  A    between atoms: C_45  and  C_60
   22  A    between atoms: C_46  and  C_49
   23  A    between atoms: O_47  and  C_62
                            x       y       z     vdW  Elec       q    Type
                         _______ _______ _______ _____ _____    ______ ____

>  <TORSDO>
F 23

$$$$
=
 OpenBabel11042410333D

 67 73  0  0  1  0  0  0  0  0999 V2000
  183.3680  178.5930  141.5650 C   0  0  0  0  0  0  0  0  0  0  0  0
  182.8280  178.4550  140.1690 C   0  0  2  0  0  3  0  0  0  0  0  0
  180.7500  177.2380  140.7360 C   0  0  0  0  0  0  0  0  0  0  0  0
  182.5400  178.8950  142.5670 C   0  0  0  0  0  3  0  0  0  0  0  0
  185.6470  178.2900  140.7750 C   0  0  0  0  0  3  0  0  0  0  0  0
  180.3390  178.2960  141.6240 N   0  0  0  0  0  0  0  0  0  0  0  0
  181.9260  177.2550  140.0710 C   0  0  0  0  0  0  0  0  0  0  0  0
  185.1570  178.3470  139.3810 C   0  0  0  0  0  0  0  0  0  0  0  0
  181.0760  179.0120  142.4280 C   0  0  0  0  0  3  0  0  0  0  0  0
  183.8800  178.4450  139.1410 N   0  0  0  0  0  0  0  0  0  0  0  0
  184.8160  178.4150  141.8060 C   0  0  0  0  0  0  0  0  0  0  0  0
  187.9450  178.1140  136.0260 C   0  0  0  0  0  0  0  0  0  0  0  0
  188.2420  178.9160  137.2240 C   0  0  0  0  0  0  0  0  0  0  0  0
  189.3180  179.5630  137.3160 O   0  0  0  0  0  0  0  0  0  0  0  0
  186.1050  178.3030  138.2460 C   0  0  0  0  0  0  0  0  0  0  0  0
  186.7810  177.4670  135.9340 C   0  0  0  0  0  3  0  0  0  0  0  0
  185.6970  177.5830  136.9770 C   0  0  0  0  0  2  0  0  0  0  0  0
  187.2820  178.9400  138.3310 C   0  0  0  0  0  3  0  0  0  0  0  0
  188.9560  177.9530  134.9420 C   0  0  0  0  0  2  0  0  0  0  0  0
  189.1150  176.6000  134.6420 O   0  0  0  0  0  1  0  0  0  0  0  0
  182.6830  175.1910  138.5840 C   0  0  0  0  0  0  0  0  0  0  0  0
  182.3350  176.1300  139.2540 C   0  0  0  0  0  0  0  0  0  0  0  0
  183.1230  174.0540  137.7700 C   0  0  0  0  0  2  0  0  0  0  0  0
  185.9330  174.3010  135.5020 O   0  0  0  0  0  0  0  0  0  0  0  0
  186.0180  172.9750  135.9680 C   0  0  2  0  0  3  0  0  0  0  0  0
  185.2280  172.8590  137.2620 C   0  0  0  0  0  2  0  0  0  0  0  0
  184.5940  174.2020  137.4300 C   0  0  1  0  0  3  0  0  0  0  0  0
  184.7730  174.8340  136.0740 C   0  0  0  0  0  2  0  0  0  0  0  0
  189.5460  172.8180  134.8020 C   0  0  0  0  0  2  0  0  0  0  0  0
  188.2610  173.7400  136.7840 C   0  0  0  0  0  2  0  0  0  0  0  0
  188.1600  172.1890  134.8770 C   0  0  2  0  0  3  0  0  0  0  0  0
  190.0070  173.4280  136.4480 S   0  0  0  0  0  0  0  0  0  0  0  0
  187.4810  172.5840  136.1860 C   0  0  2  0  0  3  0  0  0  0  0  0
  188.5200  170.0050  135.7280 O   0  0  0  0  0  0  0  0  0  0  0  0
  188.2520  170.6980  134.7590 C   0  0  0  0  0  3  0  0  0  0  0  0
  179.0520  175.3010  140.3690 N   0  0  0  0  0  0  0  0  0  0  0  0
  179.8070  176.1620  140.5320 C   0  0  0  0  0  0  0  0  0  0  0  0
  185.3660  178.3240  143.1930 C   0  0  0  0  0  2  0  0  0  0  0  0
  184.7740  179.4280  144.0550 C   0  0  0  0  0  2  0  0  0  0  0  0
  185.2140  179.2750  145.5020 C   0  0  0  0  0  2  0  0  0  0  0  0
  183.1780  178.0510  145.7180 O   0  0  0  0  0  0  0  0  0  0  0  0
  184.2670  178.3900  146.2520 C   0  0  0  0  0  0  0  0  0  0  0  0
  184.5720  177.9330  147.5690 N   0  0  0  0  0  2  0  0  0  0  0  0
  185.8680  178.1570  148.1910 C   0  0  0  0  0  2  0  0  0  0  0  0
  189.3320  177.4480  146.6490 C   0  0  2  0  0  3  0  0  0  0  0  0
  187.4960  177.3900  144.9450 C   0  0  0  0  0  2  0  0  0  0  0  0
  188.2450  177.5290  147.7240 C   0  0  1  0  0  3  0  0  0  0  0  0
  188.6950  178.3320  148.7750 O   0  0  0  0  0  1  0  0  0  0  0  0
  186.9570  178.1130  147.1350 C   0  0  1  0  0  3  0  0  0  0  0  0
  188.8070  176.7500  145.3900 C   0  0  1  0  0  3  0  0  0  0  0  0
  186.5050  177.2930  146.0130 N   0  0  0  0  0  2  0  0  0  0  0  0
  190.4320  176.7460  147.1590 O   0  0  0  0  0  0  0  0  0  0  0  0
  191.3920  176.9170  146.2710 O   0  0  0  0  0  0  0  0  0  0  0  0
  192.2660  175.8410  146.4640 C   0  0  0  0  0  2  0  0  0  0  0  0
  192.2840  175.4270  147.9260 C   0  0  0  0  0  2  0  0  0  0  0  0
  193.3990  176.1390  148.6680 C   0  0  0  0  0  2  0  0  0  0  0  0
  192.9680  176.4040  150.0940 C   0  0  0  0  0  2  0  0  0  0  0  0
  193.5280  177.7360  150.5460 C   0  0  0  0  0  1  0  0  0  0  0  0
  189.8200  176.8700  144.2640 C   0  0  0  0  0  2  0  0  0  0  0  0
  189.1590  177.1400  143.0350 O   0  0  0  0  0  0  0  0  0  0  0  0
  188.9350  177.0650  140.5540 C   0  0  0  0  0  2  0  0  0  0  0  0
  191.7300  176.8620  138.1250 F   0  0  0  0  0  0  0  0  0  0  0  0
  191.0830  176.8420  141.7270 N   0  0  0  0  0  0  0  0  0  0  0  0
  191.8270  176.6320  140.4850 C   0  0  0  0  0  2  0  0  0  0  0  0
  191.0810  177.2140  139.2930 C   0  0  2  0  0  3  0  0  0  0  0  0
  189.6780  176.6310  139.2920 C   0  0  0  0  0  2  0  0  0  0  0  0
  189.7870  176.9820  141.7960 C   0  0  0  0  0  0  0  0  0  0  0  0
  1 11  1  0  0  0  0
  1  4  2  0  0  0  0
  2 10  1  6  0  0  0
  2  1  1  0  0  0  0
  3  6  1  0  0  0  0
  5 11  2  0  0  0  0
  6  9  2  0  0  0  0
  7  2  1  0  0  0  0
  7  3  2  0  0  0  0
  8  5  1  0  0  0  0
  9  4  1  0  0  0  0
 10  8  2  0  0  0  0
 11 38  1  0  0  0  0
 12 13  1  0  0  0  0
 13 14  2  0  0  0  0
 13 18  1  0  0  0  0
 15 18  2  0  0  0  0
 15  8  1  0  0  0  0
 16 12  2  0  0  0  0
 16 17  1  0  0  0  0
 17 15  1  0  0  0  0
 19 12  1  0  0  0  0
 20 19  1  0  0  0  0
 21 22  3  0  0  0  0
 22  7  1  0  0  0  0
 23 21  1  0  0  0  0
 24 25  1  0  0  0  0
 24 28  1  0  0  0  0
 25 33  1  0  0  0  0
 25 26  1  1  0  0  0
 26 27  1  0  0  0  0
 27 23  1  6  0  0  0
 28 27  1  0  0  0  0
 29 31  1  0  0  0  0
 29 32  1  0  0  0  0
 31 35  1  1  0  0  0
 31 33  1  0  0  0  0
 32 30  1  0  0  0  0
 33 30  1  6  0  0  0
 35 34  2  0  0  0  0
 36 37  3  0  0  0  0
 37  3  1  0  0  0  0
 38 39  1  0  0  0  0
 39 40  1  0  0  0  0
 40 42  1  0  0  0  0
 41 42  2  0  0  0  0
 42 43  1  0  0  0  0
 43 44  1  0  0  0  0
 45 52  1  1  0  0  0
 45 47  1  0  0  0  0
 46 50  1  0  0  0  0
 46 51  1  0  0  0  0
 47 48  1  1  0  0  0
 49 47  1  0  0  0  0
 49 44  1  1  0  0  0
 50 59  1  6  0  0  0
 50 45  1  0  0  0  0
 51 49  1  0  0  0  0
 53 54  1  0  0  0  0
 53 52  1  0  0  0  0
 54 55  1  0  0  0  0
 55 56  1  0  0  0  0
 56 57  1  0  0  0  0
 57 58  1  0  0  0  0
 60 59  1  0  0  0  0
 61 67  1  0  0  0  0
 63 67  2  0  0  0  0
 64 63  1  0  0  0  0
 65 62  1  6  0  0  0
 65 64  1  0  0  0  0
 66 65  1  0  0  0  0
 66 61  1  0  0  0  0
 67 60  1  0  0  0  0
M  END
>  <MODEL>
7

>  <REMARK>
 VINA RESULT:      -2.9      3.073      6.011
  Name = 
  23 active torsions:
  status: ('A' for Active; 'I' for Inactive)
    1  A    between atoms: C_1  and  C_32
    2  A    between atoms: C_1  and  C_52
    3  A    between atoms: C_3  and  C_13
    4  A    between atoms: C_4  and  C_60
    5  A    between atoms: C_5  and  O_63
    6  A    between atoms: C_7  and  C_31
    7  A    between atoms: C_7  and  O_47
    8  A    between atoms: C_12  and  C_59
    9  A    between atoms: C_12  and  C_66
   10  A    between atoms: O_19  and  C_22
   11  A    between atoms: O_19  and  O_63
   12  A    between atoms: C_20  and  C_41
   13  A    between atoms: C_21  and  C_50
   14  A    between atoms: C_22  and  C_52
   15  A    between atoms: C_24  and  C_29
   16  A    between atoms: C_25  and  C_42
   17  A    between atoms: C_37  and  C_53
   18  A    between atoms: C_37  and  C_59
   19  A    between atoms: C_41  and  N_56
   20  A    between atoms: C_44  and  C_51
   21  A    between atoms: C_45  and  C_60
   22  A    between atoms: C_46  and  C_49
   23  A    between atoms: O_47  and  C_62
                            x       y       z     vdW  Elec       q    Type
                         _______ _______ _______ _____ _____    ______ ____

>  <TORSDO>
F 23

$$$$
