=
 OpenBabel11032420273D

 39 43  0  0  1  0  0  0  0  0999 V2000
  190.7900  177.3290  145.7000 C   0  0  0  0  0  0  0  0  0  0  0  0
  190.5200  178.1410  143.4000 C   0  0  0  0  0  3  0  0  0  0  0  0
  186.8650  178.3680  142.5930 C   0  0  0  0  0  0  0  0  0  0  0  0
  182.6960  178.6560  143.1280 O   0  0  0  0  0  1  0  0  0  0  0  0
  184.5990  179.2400  141.8130 C   0  0  0  0  0  2  0  0  0  0  0  0
  188.5360  177.4530  144.7390 C   0  0  0  0  0  0  0  0  0  0  0  0
  186.6160  177.5830  146.3050 C   0  0  0  0  0  1  0  0  0  0  0  0
  188.2820  178.2100  142.3680 N   0  0  0  0  0  0  0  0  0  0  0  0
  184.8680  178.3310  144.1000 C   0  0  1  0  0  3  0  0  0  0  0  0
  185.9790  178.7360  141.4170 C   0  0  0  0  0  2  0  0  0  0  0  0
  184.0110  178.2910  142.8380 C   0  0  1  0  0  3  0  0  0  0  0  0
  186.3380  178.0960  143.8110 C   0  0  0  0  0  0  0  0  0  0  0  0
  189.4780  177.0720  145.8350 C   0  0  0  0  0  0  0  0  0  0  0  0
  184.7120  179.5550  144.7560 O   0  0  0  0  0  1  0  0  0  0  0  0
  189.0210  176.4460  146.9910 O   0  0  0  0  0  1  0  0  0  0  0  0
  191.2940  177.9990  144.4780 C   0  0  0  0  0  3  0  0  0  0  0  0
  187.2190  177.6790  144.9360 C   0  0  0  0  0  0  0  0  0  0  0  0
  189.1390  177.5370  143.3530 C   0  0  1  0  0  3  0  0  0  0  0  0
  191.6920  176.9910  146.7610 N   0  0  0  0  0  2  0  0  0  0  0  0
  192.3010  175.6770  146.9070 C   0  0  0  0  0  2  0  0  0  0  0  0
  192.9070  176.7780  148.7740 O   0  0  0  0  0  1  0  0  0  0  0  0
  193.1980  175.6740  148.0490 N   0  0  0  0  0  2  0  0  0  0  0  0
  188.8340  178.4730  141.0390 C   0  0  0  0  0  2  0  0  0  0  0  0
  190.5300  176.9940  139.9190 C   0  0  0  0  0  2  0  0  0  0  0  0
  189.0640  177.1650  140.2810 C   0  0  2  0  0  3  0  0  0  0  0  0
  188.7120  177.1720  138.7890 C   0  0  1  0  0  0  0  0  0  0  0  0
  190.1740  176.9810  138.4400 C   0  0  0  0  0  2  0  0  0  0  0  0
  187.9700  176.0430  138.4870 F   0  0  0  0  0  0  0  0  0  0  0  0
  185.7830  177.6310  137.6880 C   0  0  0  0  0  0  0  0  0  0  0  0
  188.9240  179.3400  137.7530 O   0  0  0  0  0  0  0  0  0  0  0  0
  186.7360  178.6440  138.0260 N   0  0  0  0  0  2  0  0  0  0  0  0
  188.1470  178.4410  138.1720 C   0  0  0  0  0  0  0  0  0  0  0  0
  186.1620  176.5250  137.2140 O   0  0  0  0  0  0  0  0  0  0  0  0
  184.3280  177.9240  137.8420 C   0  0  0  0  0  3  0  0  0  0  0  0
  184.1230  179.3040  138.4660 C   0  0  0  0  0  2  0  0  0  0  0  0
  182.6340  179.5970  138.6180 C   0  0  0  0  0  2  0  0  0  0  0  0
  182.1640  177.1480  138.8370 C   0  0  0  0  0  2  0  0  0  0  0  0
  183.6520  176.8440  138.6860 C   0  0  0  0  0  2  0  0  0  0  0  0
  181.9680  178.5210  139.4730 C   0  0  0  0  0  2  0  0  0  0  0  0
  1 13  2  0  0  0  0
  1 19  1  0  0  0  0
  2 16  2  0  0  0  0
  3 12  2  0  0  0  0
  5 11  1  0  0  0  0
  6 17  2  0  0  0  0
  6 13  1  0  0  0  0
  8  3  1  0  0  0  0
  8 18  1  0  0  0  0
  9 14  1  6  0  0  0
 10  5  1  0  0  0  0
 10  3  1  0  0  0  0
 11  4  1  1  0  0  0
 11  9  1  0  0  0  0
 12  9  1  0  0  0  0
 12 17  1  0  0  0  0
 13 15  1  0  0  0  0
 16  1  1  0  0  0  0
 17  7  1  0  0  0  0
 18  2  1  1  0  0  0
 18  6  1  0  0  0  0
 19 20  1  0  0  0  0
 20 22  1  0  0  0  0
 22 21  1  0  0  0  0
 23  8  1  0  0  0  0
 24 25  1  0  0  0  0
 25 23  1  6  0  0  0
 26 28  1  6  0  0  0
 26 25  1  0  0  0  0
 27 26  1  0  0  0  0
 27 24  1  0  0  0  0
 29 34  1  0  0  0  0
 29 31  1  0  0  0  0
 30 32  2  0  0  0  0
 31 32  1  0  0  0  0
 32 26  1  0  0  0  0
 33 29  2  0  0  0  0
 34 35  1  0  0  0  0
 34 38  1  0  0  0  0
 35 36  1  0  0  0  0
 36 39  1  0  0  0  0
 37 39  1  0  0  0  0
 38 37  1  0  0  0  0
M  END
>  <MODEL>
1

>  <REMARK>
 VINA RESULT:     -10.3      0.000      0.000
  Name = 
  7 active torsions:
  status: ('A' for Active; 'I' for Inactive)
    1  A    between atoms: C_1  and  C_5
    2  A    between atoms: C_2  and  N_9
    3  A    between atoms: N_9  and  C_39
    4  A    between atoms: C_12  and  C_30
    5  A    between atoms: C_16  and  C_27
    6  A    between atoms: N_20  and  C_39
    7  A    between atoms: N_23  and  C_30
                            x       y       z     vdW  Elec       q    Type
                         _______ _______ _______ _____ _____    ______ ____

>  <TORSDO>
F 7

$$$$
=
 OpenBabel11032420273D

 39 43  0  0  1  0  0  0  0  0999 V2000
  183.9020  178.5210  143.3980 C   0  0  0  0  0  0  0  0  0  0  0  0
  185.5870  178.4160  141.6170 C   0  0  0  0  0  3  0  0  0  0  0  0
  188.9880  178.0670  143.1560 C   0  0  0  0  0  0  0  0  0  0  0  0
  191.9950  177.2040  145.9790 O   0  0  0  0  0  1  0  0  0  0  0  0
  191.3440  177.2420  143.6840 C   0  0  0  0  0  2  0  0  0  0  0  0
  186.2770  178.4600  144.0100 C   0  0  0  0  0  0  0  0  0  0  0  0
  186.8660  177.6670  146.2850 C   0  0  0  0  0  1  0  0  0  0  0  0
  187.9870  178.4310  142.1830 N   0  0  0  0  0  0  0  0  0  0  0  0
  189.6560  177.4430  145.4850 C   0  0  1  0  0  3  0  0  0  0  0  0
  190.4370  177.9820  142.7110 C   0  0  0  0  0  2  0  0  0  0  0  0
  191.0910  177.7730  145.0810 C   0  0  1  0  0  3  0  0  0  0  0  0
  188.6430  177.9040  144.4550 C   0  0  0  0  0  0  0  0  0  0  0  0
  184.8310  178.5880  144.3650 C   0  0  0  0  0  0  0  0  0  0  0  0
  189.5140  176.0690  145.6960 O   0  0  0  0  0  1  0  0  0  0  0  0
  184.4300  178.7860  145.6830 O   0  0  0  0  0  1  0  0  0  0  0  0
  184.3110  178.3050  141.9890 C   0  0  0  0  0  3  0  0  0  0  0  0
  187.2240  178.0510  144.8810 C   0  0  0  0  0  0  0  0  0  0  0  0
  186.6440  178.8610  142.5960 C   0  0  1  0  0  3  0  0  0  0  0  0
  182.5140  178.6140  143.7390 N   0  0  0  0  0  2  0  0  0  0  0  0
  181.4770  178.9800  142.7860 C   0  0  0  0  0  2  0  0  0  0  0  0
  179.6300  177.8070  143.3160 O   0  0  0  0  0  1  0  0  0  0  0  0
  180.1890  179.0310  143.4550 N   0  0  0  0  0  2  0  0  0  0  0  0
  188.3790  178.6390  140.7890 C   0  0  0  0  0  2  0  0  0  0  0  0
  190.1080  177.1520  139.7320 C   0  0  0  0  0  2  0  0  0  0  0  0
  188.6400  177.3020  140.0960 C   0  0  2  0  0  3  0  0  0  0  0  0
  188.2790  177.2250  138.6080 C   0  0  1  0  0  0  0  0  0  0  0  0
  189.7440  177.0550  138.2580 C   0  0  0  0  0  2  0  0  0  0  0  0
  187.5660  176.0630  138.3670 F   0  0  0  0  0  0  0  0  0  0  0  0
  185.2360  177.7240  137.9060 C   0  0  0  0  0  0  0  0  0  0  0  0
  188.4150  179.2440  137.2960 O   0  0  0  0  0  0  0  0  0  0  0  0
  186.2690  178.7120  137.9730 N   0  0  0  0  0  2  0  0  0  0  0  0
  187.6760  178.4450  137.9320 C   0  0  0  0  0  0  0  0  0  0  0  0
  185.4930  176.5510  137.5190 O   0  0  0  0  0  0  0  0  0  0  0  0
  183.8350  178.1160  138.2380 C   0  0  0  0  0  3  0  0  0  0  0  0
  182.9070  177.8330  137.0570 C   0  0  0  0  0  2  0  0  0  0  0  0
  181.4760  178.2340  137.4040 C   0  0  0  0  0  2  0  0  0  0  0  0
  182.3370  179.9850  138.9720 C   0  0  0  0  0  2  0  0  0  0  0  0
  183.7720  179.5920  138.6320 C   0  0  0  0  0  2  0  0  0  0  0  0
  181.4190  179.7120  137.7830 C   0  0  0  0  0  2  0  0  0  0  0  0
  1 19  1  0  0  0  0
  1 13  2  0  0  0  0
  2 16  2  0  0  0  0
  3 12  2  0  0  0  0
  5 11  1  0  0  0  0
  6 13  1  0  0  0  0
  6 17  2  0  0  0  0
  8 18  1  0  0  0  0
  8  3  1  0  0  0  0
  9 14  1  6  0  0  0
 10  3  1  0  0  0  0
 10  5  1  0  0  0  0
 11  9  1  0  0  0  0
 11  4  1  1  0  0  0
 12 17  1  0  0  0  0
 12  9  1  0  0  0  0
 13 15  1  0  0  0  0
 16  1  1  0  0  0  0
 17  7  1  0  0  0  0
 18  2  1  6  0  0  0
 18  6  1  0  0  0  0
 20 22  1  0  0  0  0
 20 19  1  0  0  0  0
 21 22  1  0  0  0  0
 23  8  1  0  0  0  0
 24 25  1  0  0  0  0
 25 23  1  6  0  0  0
 26 28  1  6  0  0  0
 26 25  1  0  0  0  0
 27 26  1  0  0  0  0
 27 24  1  0  0  0  0
 29 31  1  0  0  0  0
 29 34  1  0  0  0  0
 30 32  2  0  0  0  0
 32 31  1  0  0  0  0
 32 26  1  0  0  0  0
 33 29  2  0  0  0  0
 34 38  1  0  0  0  0
 35 36  1  0  0  0  0
 35 34  1  0  0  0  0
 36 39  1  0  0  0  0
 38 37  1  0  0  0  0
 39 37  1  0  0  0  0
M  END
>  <MODEL>
2

>  <REMARK>
 VINA RESULT:      -8.3      1.992      5.525
  Name = 
  7 active torsions:
  status: ('A' for Active; 'I' for Inactive)
    1  A    between atoms: C_1  and  C_5
    2  A    between atoms: C_2  and  N_9
    3  A    between atoms: N_9  and  C_39
    4  A    between atoms: C_12  and  C_30
    5  A    between atoms: C_16  and  C_27
    6  A    between atoms: N_20  and  C_39
    7  A    between atoms: N_23  and  C_30
                            x       y       z     vdW  Elec       q    Type
                         _______ _______ _______ _____ _____    ______ ____

>  <TORSDO>
F 7

$$$$
=
 OpenBabel11032420273D

 39 43  0  0  1  0  0  0  0  0999 V2000
  189.8600  177.2330  139.2820 C   0  0  0  0  0  0  0  0  0  0  0  0
  187.5170  177.9260  139.0590 C   0  0  0  0  0  3  0  0  0  0  0  0
  185.7400  175.5470  136.7690 C   0  0  0  0  0  0  0  0  0  0  0  0
  184.8570  172.0480  134.5940 O   0  0  0  0  0  1  0  0  0  0  0  0
  184.0220  173.9240  135.8090 C   0  0  0  0  0  2  0  0  0  0  0  0
  188.4040  176.0190  137.7250 C   0  0  0  0  0  0  0  0  0  0  0  0
  189.0500  173.7070  137.0990 C   0  0  0  0  0  1  0  0  0  0  0  0
  186.0380  176.7840  137.4500 N   0  0  0  0  0  0  0  0  0  0  0  0
  186.4080  173.2770  135.9550 C   0  0  1  0  0  3  0  0  0  0  0  0
  184.3590  175.3650  136.1640 C   0  0  0  0  0  2  0  0  0  0  0  0
  185.1860  173.3280  135.0420 C   0  0  1  0  0  3  0  0  0  0  0  0
  186.7100  174.6190  136.5950 C   0  0  0  0  0  0  0  0  0  0  0  0
  189.7430  176.2910  138.3310 C   0  0  0  0  0  0  0  0  0  0  0  0
  186.2290  172.3150  136.9530 O   0  0  0  0  0  1  0  0  0  0  0  0
  190.8730  175.5910  137.9210 O   0  0  0  0  0  1  0  0  0  0  0  0
  188.6660  177.9850  139.7340 C   0  0  0  0  0  3  0  0  0  0  0  0
  188.0750  174.8440  137.1460 C   0  0  0  0  0  0  0  0  0  0  0  0
  187.4210  177.1710  137.7570 C   0  0  1  0  0  3  0  0  0  0  0  0
  191.1370  177.4760  139.8850 N   0  0  0  0  0  2  0  0  0  0  0  0
  191.3590  177.4600  141.3230 C   0  0  0  0  0  2  0  0  0  0  0  0
  190.0810  176.9260  143.0980 O   0  0  0  0  0  1  0  0  0  0  0  0
  190.5510  176.4200  141.9350 N   0  0  0  0  0  2  0  0  0  0  0  0
  184.9900  177.7940  137.6000 C   0  0  0  0  0  2  0  0  0  0  0  0
  182.5000  177.7070  137.9280 C   0  0  0  0  0  2  0  0  0  0  0  0
  183.8490  177.2650  138.4690 C   0  0  2  0  0  3  0  0  0  0  0  0
  183.5660  178.0340  139.7640 C   0  0  1  0  0  0  0  0  0  0  0  0
  182.2140  178.4520  139.2230 C   0  0  0  0  0  2  0  0  0  0  0  0
  183.4340  177.1390  140.8120 F   0  0  0  0  0  0  0  0  0  0  0  0
  184.4440  179.0000  142.6440 C   0  0  0  0  0  0  0  0  0  0  0  0
  184.6100  180.1500  139.2620 O   0  0  0  0  0  0  0  0  0  0  0  0
  185.0400  179.3790  141.4000 N   0  0  0  0  0  2  0  0  0  0  0  0
  184.4300  179.2350  140.1110 C   0  0  0  0  0  0  0  0  0  0  0  0
  183.2070  178.7650  142.7200 O   0  0  0  0  0  0  0  0  0  0  0  0
  185.2950  178.9500  143.8690 C   0  0  0  0  0  3  0  0  0  0  0  0
  186.3710  177.8730  143.7300 C   0  0  0  0  0  2  0  0  0  0  0  0
  187.2380  177.8290  144.9840 C   0  0  0  0  0  2  0  0  0  0  0  0
  185.3110  178.6480  146.3560 C   0  0  0  0  0  2  0  0  0  0  0  0
  184.4350  178.6950  145.1070 C   0  0  0  0  0  2  0  0  0  0  0  0
  186.3730  177.5610  146.2140 C   0  0  0  0  0  2  0  0  0  0  0  0
  1 16  1  0  0  0  0
  1 19  1  0  0  0  0
  2 16  2  0  0  0  0
  3  8  1  0  0  0  0
  5 10  1  0  0  0  0
  6 18  1  0  0  0  0
  6 13  1  0  0  0  0
  7 17  1  0  0  0  0
  8 23  1  0  0  0  0
  8 18  1  0  0  0  0
  9 12  1  0  0  0  0
  9 14  1  1  0  0  0
 10  3  1  0  0  0  0
 11  4  1  1  0  0  0
 11  5  1  0  0  0  0
 11  9  1  0  0  0  0
 12  3  2  0  0  0  0
 12 17  1  0  0  0  0
 13  1  2  0  0  0  0
 15 13  1  0  0  0  0
 17  6  2  0  0  0  0
 18  2  1  1  0  0  0
 19 20  1  0  0  0  0
 20 22  1  0  0  0  0
 22 21  1  0  0  0  0
 24 25  1  0  0  0  0
 24 27  1  0  0  0  0
 25 23  1  6  0  0  0
 25 26  1  0  0  0  0
 26 32  1  0  0  0  0
 26 28  1  1  0  0  0
 27 26  1  0  0  0  0
 29 33  2  0  0  0  0
 29 34  1  0  0  0  0
 30 32  2  0  0  0  0
 31 29  1  0  0  0  0
 32 31  1  0  0  0  0
 34 38  1  0  0  0  0
 35 34  1  0  0  0  0
 35 36  1  0  0  0  0
 36 39  1  0  0  0  0
 38 37  1  0  0  0  0
 39 37  1  0  0  0  0
M  END
>  <MODEL>
3

>  <REMARK>
 VINA RESULT:      -8.3      2.822      7.210
  Name = 
  7 active torsions:
  status: ('A' for Active; 'I' for Inactive)
    1  A    between atoms: C_1  and  C_5
    2  A    between atoms: C_2  and  N_9
    3  A    between atoms: N_9  and  C_39
    4  A    between atoms: C_12  and  C_30
    5  A    between atoms: C_16  and  C_27
    6  A    between atoms: N_20  and  C_39
    7  A    between atoms: N_23  and  C_30
                            x       y       z     vdW  Elec       q    Type
                         _______ _______ _______ _____ _____    ______ ____

>  <TORSDO>
F 7

$$$$
=
 OpenBabel11032420273D

 39 43  0  0  1  0  0  0  0  0999 V2000
  190.6740  176.9910  146.2560 C   0  0  0  0  0  0  0  0  0  0  0  0
  190.2800  176.9700  143.8340 C   0  0  0  0  0  3  0  0  0  0  0  0
  186.6750  177.7540  143.1630 C   0  0  0  0  0  0  0  0  0  0  0  0
  182.7560  179.1920  143.7340 O   0  0  0  0  0  1  0  0  0  0  0  0
  184.5520  178.8020  142.2130 C   0  0  0  0  0  2  0  0  0  0  0  0
  188.3870  177.2950  145.4200 C   0  0  0  0  0  0  0  0  0  0  0  0
  186.7530  178.4250  146.9050 C   0  0  0  0  0  1  0  0  0  0  0  0
  187.9890  177.1950  142.9520 N   0  0  0  0  0  0  0  0  0  0  0  0
  184.9240  178.7300  144.6600 C   0  0  1  0  0  3  0  0  0  0  0  0
  185.7380  177.8780  141.9750 C   0  0  0  0  0  2  0  0  0  0  0  0
  183.9210  178.4470  143.5440 C   0  0  1  0  0  3  0  0  0  0  0  0
  186.2660  178.0660  144.4150 C   0  0  0  0  0  0  0  0  0  0  0  0
  189.3660  177.1170  146.5350 C   0  0  0  0  0  0  0  0  0  0  0  0
  185.1060  180.1080  144.8130 O   0  0  0  0  0  1  0  0  0  0  0  0
  188.9440  177.0720  147.8610 O   0  0  0  0  0  1  0  0  0  0  0  0
  191.1410  177.0420  144.8500 C   0  0  0  0  0  3  0  0  0  0  0  0
  187.1800  177.8820  145.5750 C   0  0  0  0  0  0  0  0  0  0  0  0
  188.8110  176.7340  144.0780 C   0  0  1  0  0  3  0  0  0  0  0  0
  191.6170  176.8490  147.3250 N   0  0  0  0  0  2  0  0  0  0  0  0
  192.4180  175.6520  147.5330 C   0  0  0  0  0  2  0  0  0  0  0  0
  193.0340  177.0640  149.1750 O   0  0  0  0  0  1  0  0  0  0  0  0
  193.2140  175.7960  148.7400 N   0  0  0  0  0  2  0  0  0  0  0  0
  188.4060  176.8290  141.5980 C   0  0  0  0  0  2  0  0  0  0  0  0
  188.6060  179.1320  140.6120 C   0  0  0  0  0  2  0  0  0  0  0  0
  189.3580  177.8780  141.0240 C   0  0  2  0  0  3  0  0  0  0  0  0
  189.7920  177.6780  139.5670 C   0  0  1  0  0  0  0  0  0  0  0  0
  189.0560  178.9420  139.1720 C   0  0  0  0  0  2  0  0  0  0  0  0
  191.1630  177.8420  139.4680 F   0  0  0  0  0  0  0  0  0  0  0  0
  191.4800  175.6560  137.8170 C   0  0  0  0  0  0  0  0  0  0  0  0
  188.0510  176.3530  138.5520 O   0  0  0  0  0  0  0  0  0  0  0  0
  190.1650  175.4410  138.3370 N   0  0  0  0  0  2  0  0  0  0  0  0
  189.2800  176.4660  138.8060 C   0  0  0  0  0  0  0  0  0  0  0  0
  191.8540  176.8100  137.4690 O   0  0  0  0  0  0  0  0  0  0  0  0
  192.3850  174.4850  137.6280 C   0  0  0  0  0  3  0  0  0  0  0  0
  193.8480  174.9160  137.7400 C   0  0  0  0  0  2  0  0  0  0  0  0
  194.7670  173.7130  137.5490 C   0  0  0  0  0  2  0  0  0  0  0  0
  193.0490  172.6190  136.0930 C   0  0  0  0  0  2  0  0  0  0  0  0
  192.1220  173.8170  136.2790 C   0  0  0  0  0  2  0  0  0  0  0  0
  194.5070  173.0600  136.1930 C   0  0  0  0  0  2  0  0  0  0  0  0
  1 13  2  0  0  0  0
  1 19  1  0  0  0  0
  2 16  2  0  0  0  0
  3 12  2  0  0  0  0
  5 11  1  0  0  0  0
  6 17  2  0  0  0  0
  6 13  1  0  0  0  0
  8  3  1  0  0  0  0
  8 18  1  0  0  0  0
  9 14  1  6  0  0  0
 10  5  1  0  0  0  0
 10  3  1  0  0  0  0
 11  4  1  1  0  0  0
 11  9  1  0  0  0  0
 12  9  1  0  0  0  0
 12 17  1  0  0  0  0
 13 15  1  0  0  0  0
 16  1  1  0  0  0  0
 17  7  1  0  0  0  0
 18  2  1  6  0  0  0
 18  6  1  0  0  0  0
 19 20  1  0  0  0  0
 20 22  1  0  0  0  0
 22 21  1  0  0  0  0
 23  8  1  0  0  0  0
 24 25  1  0  0  0  0
 25 23  1  6  0  0  0
 26 28  1  6  0  0  0
 26 25  1  0  0  0  0
 27 26  1  0  0  0  0
 27 24  1  0  0  0  0
 29 31  1  0  0  0  0
 30 32  2  0  0  0  0
 31 32  1  0  0  0  0
 32 26  1  0  0  0  0
 33 29  2  0  0  0  0
 34 35  1  0  0  0  0
 34 29  1  0  0  0  0
 36 35  1  0  0  0  0
 37 39  1  0  0  0  0
 37 38  1  0  0  0  0
 38 34  1  0  0  0  0
 39 36  1  0  0  0  0
M  END
>  <MODEL>
4

>  <REMARK>
 VINA RESULT:      -8.2      2.464      4.969
  Name = 
  7 active torsions:
  status: ('A' for Active; 'I' for Inactive)
    1  A    between atoms: C_1  and  C_5
    2  A    between atoms: C_2  and  N_9
    3  A    between atoms: N_9  and  C_39
    4  A    between atoms: C_12  and  C_30
    5  A    between atoms: C_16  and  C_27
    6  A    between atoms: N_20  and  C_39
    7  A    between atoms: N_23  and  C_30
                            x       y       z     vdW  Elec       q    Type
                         _______ _______ _______ _____ _____    ______ ____

>  <TORSDO>
F 7

$$$$
=
 OpenBabel11032420273D

 39 43  0  0  1  0  0  0  0  0999 V2000
  184.9170  172.9320  135.2420 C   0  0  0  0  0  0  0  0  0  0  0  0
  184.3130  175.2370  135.8300 C   0  0  0  0  0  3  0  0  0  0  0  0
  187.1630  176.8250  137.6790 C   0  0  0  0  0  0  0  0  0  0  0  0
  191.0710  177.5460  139.0800 O   0  0  0  0  0  1  0  0  0  0  0  0
  188.9770  178.4670  138.4020 C   0  0  0  0  0  2  0  0  0  0  0  0
  186.4640  174.2540  136.6120 C   0  0  0  0  0  0  0  0  0  0  0  0
  188.8520  173.5810  136.6380 C   0  0  0  0  0  1  0  0  0  0  0  0
  185.8030  176.5760  137.2690 N   0  0  0  0  0  0  0  0  0  0  0  0
  189.5520  176.1120  137.8940 C   0  0  1  0  0  3  0  0  0  0  0  0
  187.4900  178.1460  138.3520 C   0  0  0  0  0  2  0  0  0  0  0  0
  189.7200  177.2450  138.9040 C   0  0  1  0  0  3  0  0  0  0  0  0
  188.0980  175.8540  137.5480 C   0  0  0  0  0  0  0  0  0  0  0  0
  186.0500  172.9740  135.9620 C   0  0  1  0  0  3  0  0  0  0  0  0
  190.2670  176.3930  136.7250 O   0  0  0  0  0  1  0  0  0  0  0  0
  186.8140  171.8180  136.0980 O   0  0  0  0  0  1  0  0  0  0  0  0
  184.0930  174.1540  135.0830 C   0  0  0  0  0  3  0  0  0  0  0  0
  187.7430  174.5430  136.9390 C   0  0  0  0  0  0  0  0  0  0  0  0
  185.3440  175.2210  136.9310 C   0  0  0  0  0  0  0  0  0  0  0  0
  184.5320  171.7140  134.5940 N   0  0  0  0  0  2  0  0  0  0  0  0
  183.3630  170.9370  134.9770 C   0  0  0  0  0  2  0  0  0  0  0  0
  182.7440  171.1480  137.1310 O   0  0  0  0  0  1  0  0  0  0  0  0
  183.5380  170.4120  136.3200 N   0  0  0  0  0  2  0  0  0  0  0  0
  184.7940  177.6200  137.4480 C   0  0  0  0  0  2  0  0  0  0  0  0
  182.3180  177.6070  137.8800 C   0  0  0  0  0  2  0  0  0  0  0  0
  183.6770  177.1400  138.3740 C   0  0  2  0  0  3  0  0  0  0  0  0
  183.4690  177.9440  139.6640 C   0  0  1  0  0  0  0  0  0  0  0  0
  182.1060  178.3870  139.1700 C   0  0  0  0  0  2  0  0  0  0  0  0
  183.3570  177.0740  140.7350 F   0  0  0  0  0  0  0  0  0  0  0  0
  184.4990  178.9390  142.4820 C   0  0  0  0  0  0  0  0  0  0  0  0
  184.5420  180.0210  139.0740 O   0  0  0  0  0  0  0  0  0  0  0  0
  185.0480  179.2790  141.2050 N   0  0  0  0  0  2  0  0  0  0  0  0
  184.3780  179.1280  139.9470 C   0  0  0  0  0  0  0  0  0  0  0  0
  183.2600  178.7390  142.6170 O   0  0  0  0  0  0  0  0  0  0  0  0
  185.4020  178.8890  143.6690 C   0  0  0  0  0  3  0  0  0  0  0  0
  186.4130  177.7520  143.5250 C   0  0  0  0  0  2  0  0  0  0  0  0
  187.3340  177.7080  144.7400 C   0  0  0  0  0  2  0  0  0  0  0  0
  185.5180  178.6810  146.1630 C   0  0  0  0  0  2  0  0  0  0  0  0
  184.5890  178.7290  144.9530 C   0  0  0  0  0  2  0  0  0  0  0  0
  186.5150  177.5340  146.0170 C   0  0  0  0  0  2  0  0  0  0  0  0
  1 13  1  0  0  0  0
  2 18  2  0  0  0  0
  3 10  1  0  0  0  0
  5 11  1  0  0  0  0
  6 18  1  0  0  0  0
  6 17  2  0  0  0  0
  7 17  1  0  0  0  0
  8 23  1  0  0  0  0
  8  3  1  0  0  0  0
  9 14  1  6  0  0  0
  9 11  1  0  0  0  0
 10  5  1  0  0  0  0
 11  4  1  6  0  0  0
 12  3  2  0  0  0  0
 12  9  1  0  0  0  0
 13 15  1  1  0  0  0
 13  6  1  0  0  0  0
 16  1  2  0  0  0  0
 16  2  1  0  0  0  0
 17 12  1  0  0  0  0
 18  8  1  0  0  0  0
 19 20  1  0  0  0  0
 19  1  1  0  0  0  0
 20 22  1  0  0  0  0
 22 21  1  0  0  0  0
 24 25  1  0  0  0  0
 24 27  1  0  0  0  0
 25 23  1  6  0  0  0
 25 26  1  0  0  0  0
 26 32  1  0  0  0  0
 26 28  1  1  0  0  0
 27 26  1  0  0  0  0
 29 33  2  0  0  0  0
 29 34  1  0  0  0  0
 30 32  2  0  0  0  0
 31 29  1  0  0  0  0
 32 31  1  0  0  0  0
 34 38  1  0  0  0  0
 35 34  1  0  0  0  0
 35 36  1  0  0  0  0
 36 39  1  0  0  0  0
 38 37  1  0  0  0  0
 39 37  1  0  0  0  0
M  END
>  <MODEL>
5

>  <REMARK>
 VINA RESULT:      -8.0      3.782      9.019
  Name = 
  7 active torsions:
  status: ('A' for Active; 'I' for Inactive)
    1  A    between atoms: C_1  and  C_5
    2  A    between atoms: C_2  and  N_9
    3  A    between atoms: N_9  and  C_39
    4  A    between atoms: C_12  and  C_30
    5  A    between atoms: C_16  and  C_27
    6  A    between atoms: N_20  and  C_39
    7  A    between atoms: N_23  and  C_30
                            x       y       z     vdW  Elec       q    Type
                         _______ _______ _______ _____ _____    ______ ____

>  <TORSDO>
F 7

$$$$
=
 OpenBabel11032420273D

 39 43  0  0  1  0  0  0  0  0999 V2000
  183.7220  178.5300  142.4300 C   0  0  0  0  0  0  0  0  0  0  0  0
  185.4890  178.4130  140.7310 C   0  0  0  0  0  3  0  0  0  0  0  0
  188.8130  178.0690  142.4320 C   0  0  0  0  0  0  0  0  0  0  0  0
  191.6810  177.2170  145.3990 O   0  0  0  0  0  1  0  0  0  0  0  0
  191.1400  177.2430  143.0750 C   0  0  0  0  0  2  0  0  0  0  0  0
  186.0650  178.4700  143.1540 C   0  0  0  0  0  0  0  0  0  0  0  0
  186.5440  177.6890  145.4590 C   0  0  0  0  0  1  0  0  0  0  0  0
  187.8590  178.4280  141.4110 N   0  0  0  0  0  0  0  0  0  0  0  0
  189.3690  177.4570  144.7930 C   0  0  1  0  0  3  0  0  0  0  0  0
  190.2810  177.9780  142.0560 C   0  0  0  0  0  2  0  0  0  0  0  0
  190.8220  177.7820  144.4560 C   0  0  1  0  0  3  0  0  0  0  0  0
  188.4060  177.9130  143.7140 C   0  0  0  0  0  0  0  0  0  0  0  0
  184.6040  178.6020  143.4400 C   0  0  0  0  0  0  0  0  0  0  0  0
  189.2150  176.0830  145.0050 O   0  0  0  0  0  1  0  0  0  0  0  0
  184.1410  178.8080  144.7370 O   0  0  0  0  0  1  0  0  0  0  0  0
  184.1960  178.3060  141.0440 C   0  0  0  0  0  3  0  0  0  0  0  0
  186.9690  178.0640  144.0720 C   0  0  0  0  0  0  0  0  0  0  0  0
  186.4990  178.8620  141.7570 C   0  0  1  0  0  3  0  0  0  0  0  0
  182.3190  178.6280  142.7050 N   0  0  0  0  0  2  0  0  0  0  0  0
  181.3210  178.9240  141.6870 C   0  0  0  0  0  2  0  0  0  0  0  0
  180.2160  180.5090  142.8430 O   0  0  0  0  0  1  0  0  0  0  0  0
  180.0610  179.2710  142.3190 N   0  0  0  0  0  2  0  0  0  0  0  0
  188.3170  178.6280  140.0360 C   0  0  0  0  0  2  0  0  0  0  0  0
  190.0660  177.3450  138.7660 C   0  0  0  0  0  2  0  0  0  0  0  0
  188.6810  177.2920  139.3880 C   0  0  2  0  0  3  0  0  0  0  0  0
  188.0840  177.0230  138.0010 C   0  0  1  0  0  0  0  0  0  0  0  0
  189.4730  177.0580  137.3940 C   0  0  0  0  0  2  0  0  0  0  0  0
  187.5520  175.7460  137.9690 F   0  0  0  0  0  0  0  0  0  0  0  0
  185.1060  176.6250  137.0160 C   0  0  0  0  0  0  0  0  0  0  0  0
  187.6570  179.1280  136.9030 O   0  0  0  0  0  0  0  0  0  0  0  0
  185.7550  177.8710  137.2870 N   0  0  0  0  0  2  0  0  0  0  0  0
  187.1710  178.0660  137.3780 C   0  0  0  0  0  0  0  0  0  0  0  0
  185.7570  175.6480  136.5530 O   0  0  0  0  0  0  0  0  0  0  0  0
  183.6330  176.5130  137.2250 C   0  0  0  0  0  3  0  0  0  0  0  0
  183.0370  177.8780  137.5710 C   0  0  0  0  0  2  0  0  0  0  0  0
  181.5310  177.7570  137.7810 C   0  0  0  0  0  2  0  0  0  0  0  0
  181.8160  175.3850  138.5290 C   0  0  0  0  0  2  0  0  0  0  0  0
  183.3230  175.4960  138.3230 C   0  0  0  0  0  2  0  0  0  0  0  0
  181.2310  176.7490  138.8880 C   0  0  0  0  0  2  0  0  0  0  0  0
  1 19  1  0  0  0  0
  1 13  2  0  0  0  0
  2 16  2  0  0  0  0
  3 12  2  0  0  0  0
  5 11  1  0  0  0  0
  6 13  1  0  0  0  0
  6 17  2  0  0  0  0
  8 18  1  0  0  0  0
  8  3  1  0  0  0  0
  9 14  1  6  0  0  0
 10  3  1  0  0  0  0
 10  5  1  0  0  0  0
 11  9  1  0  0  0  0
 11  4  1  1  0  0  0
 12 17  1  0  0  0  0
 12  9  1  0  0  0  0
 13 15  1  0  0  0  0
 16  1  1  0  0  0  0
 17  7  1  0  0  0  0
 18  2  1  6  0  0  0
 18  6  1  0  0  0  0
 20 22  1  0  0  0  0
 20 19  1  0  0  0  0
 22 21  1  0  0  0  0
 23  8  1  0  0  0  0
 24 25  1  0  0  0  0
 25 23  1  6  0  0  0
 26 28  1  6  0  0  0
 26 25  1  0  0  0  0
 27 26  1  0  0  0  0
 27 24  1  0  0  0  0
 29 34  1  0  0  0  0
 29 31  1  0  0  0  0
 30 32  2  0  0  0  0
 31 32  1  0  0  0  0
 32 26  1  0  0  0  0
 33 29  2  0  0  0  0
 34 35  1  0  0  0  0
 34 38  1  0  0  0  0
 35 36  1  0  0  0  0
 36 39  1  0  0  0  0
 37 39  1  0  0  0  0
 38 37  1  0  0  0  0
M  END
>  <MODEL>
6

>  <REMARK>
 VINA RESULT:      -7.9      2.294      5.653
  Name = 
  7 active torsions:
  status: ('A' for Active; 'I' for Inactive)
    1  A    between atoms: C_1  and  C_5
    2  A    between atoms: C_2  and  N_9
    3  A    between atoms: N_9  and  C_39
    4  A    between atoms: C_12  and  C_30
    5  A    between atoms: C_16  and  C_27
    6  A    between atoms: N_20  and  C_39
    7  A    between atoms: N_23  and  C_30
                            x       y       z     vdW  Elec       q    Type
                         _______ _______ _______ _____ _____    ______ ____

>  <TORSDO>
F 7

$$$$
=
 OpenBabel11032420273D

 39 43  0  0  1  0  0  0  0  0999 V2000
  189.0360  176.9880  137.7610 C   0  0  0  0  0  0  0  0  0  0  0  0
  186.8150  177.9010  138.2650 C   0  0  0  0  0  3  0  0  0  0  0  0
  184.1950  175.4770  137.1130 C   0  0  0  0  0  0  0  0  0  0  0  0
  182.3830  171.8640  135.9230 O   0  0  0  0  0  1  0  0  0  0  0  0
  182.1530  173.9490  137.0610 C   0  0  0  0  0  2  0  0  0  0  0  0
  187.0480  175.7650  137.0040 C   0  0  0  0  0  0  0  0  0  0  0  0
  187.2870  173.3390  136.5440 C   0  0  0  0  0  1  0  0  0  0  0  0
  184.7910  176.7450  137.4580 N   0  0  0  0  0  0  0  0  0  0  0  0
  184.3890  173.0690  136.4650 C   0  0  1  0  0  3  0  0  0  0  0  0
  182.6810  175.3770  137.0590 C   0  0  0  0  0  2  0  0  0  0  0  0
  182.9260  173.1450  136.0350 C   0  0  1  0  0  3  0  0  0  0  0  0
  184.9810  174.4350  136.7530 C   0  0  0  0  0  0  0  0  0  0  0  0
  188.5290  175.9600  137.0610 C   0  0  1  0  0  3  0  0  0  0  0  0
  184.5230  172.2550  137.5930 O   0  0  0  0  0  1  0  0  0  0  0  0
  189.3930  175.0980  136.3930 O   0  0  0  0  0  1  0  0  0  0  0  0
  188.1310  177.9130  138.4830 C   0  0  0  0  0  3  0  0  0  0  0  0
  186.4630  174.5730  136.7570 C   0  0  0  0  0  0  0  0  0  0  0  0
  186.2130  177.0130  137.2040 C   0  0  0  0  0  0  0  0  0  0  0  0
  190.4560  177.1600  137.8410 N   0  0  0  0  0  2  0  0  0  0  0  0
  191.3090  176.3780  138.7240 C   0  0  0  0  0  2  0  0  0  0  0  0
  191.0040  177.5060  140.6480 O   0  0  0  0  0  1  0  0  0  0  0  0
  190.7250  176.3240  140.0520 N   0  0  0  0  0  2  0  0  0  0  0  0
  183.9300  177.8740  137.8100 C   0  0  0  0  0  2  0  0  0  0  0  0
  181.6360  178.1980  138.7870 C   0  0  0  0  0  2  0  0  0  0  0  0
  182.9730  177.4920  138.9400 C   0  0  2  0  0  3  0  0  0  0  0  0
  183.1820  178.2080  140.2800 C   0  0  1  0  0  0  0  0  0  0  0  0
  181.8370  178.8900  140.1270 C   0  0  0  0  0  2  0  0  0  0  0  0
  183.1600  177.2790  141.3060 F   0  0  0  0  0  0  0  0  0  0  0  0
  184.6370  179.1310  142.9310 C   0  0  0  0  0  0  0  0  0  0  0  0
  184.5530  180.0180  139.4680 O   0  0  0  0  0  0  0  0  0  0  0  0
  185.1150  179.3000  141.5930 N   0  0  0  0  0  2  0  0  0  0  0  0
  184.3130  179.2140  140.4080 C   0  0  0  0  0  0  0  0  0  0  0  0
  183.4010  179.1710  143.1830 O   0  0  0  0  0  0  0  0  0  0  0  0
  185.6240  178.9710  144.0380 C   0  0  0  0  0  3  0  0  0  0  0  0
  186.4580  177.7060  143.8340 C   0  0  0  0  0  2  0  0  0  0  0  0
  187.4660  177.5520  144.9690 C   0  0  0  0  0  2  0  0  0  0  0  0
  185.9260  178.7740  146.5180 C   0  0  0  0  0  2  0  0  0  0  0  0
  184.9110  178.9340  145.3900 C   0  0  0  0  0  2  0  0  0  0  0  0
  186.7440  177.5020  146.3140 C   0  0  0  0  0  2  0  0  0  0  0  0
  1 19  1  0  0  0  0
  1 16  2  0  0  0  0
  2 16  1  0  0  0  0
  3  8  1  0  0  0  0
  6 13  1  0  0  0  0
  6 18  1  0  0  0  0
  7 17  1  0  0  0  0
  8 23  1  0  0  0  0
  9 12  1  0  0  0  0
  9 14  1  1  0  0  0
 10  5  1  0  0  0  0
 10  3  1  0  0  0  0
 11  4  1  1  0  0  0
 11  9  1  0  0  0  0
 11  5  1  0  0  0  0
 12 17  1  0  0  0  0
 12  3  2  0  0  0  0
 13 15  1  6  0  0  0
 13  1  1  0  0  0  0
 17  6  2  0  0  0  0
 18  8  1  0  0  0  0
 18  2  2  0  0  0  0
 19 20  1  0  0  0  0
 20 22  1  0  0  0  0
 22 21  1  0  0  0  0
 24 25  1  0  0  0  0
 24 27  1  0  0  0  0
 25 23  1  6  0  0  0
 25 26  1  0  0  0  0
 26 32  1  0  0  0  0
 26 28  1  1  0  0  0
 27 26  1  0  0  0  0
 29 33  2  0  0  0  0
 29 34  1  0  0  0  0
 30 32  2  0  0  0  0
 31 29  1  0  0  0  0
 32 31  1  0  0  0  0
 34 38  1  0  0  0  0
 35 34  1  0  0  0  0
 35 36  1  0  0  0  0
 36 39  1  0  0  0  0
 38 37  1  0  0  0  0
 39 37  1  0  0  0  0
M  END
>  <MODEL>
7

>  <REMARK>
 VINA RESULT:      -7.7      3.344      7.728
  Name = 
  7 active torsions:
  status: ('A' for Active; 'I' for Inactive)
    1  A    between atoms: C_1  and  C_5
    2  A    between atoms: C_2  and  N_9
    3  A    between atoms: N_9  and  C_39
    4  A    between atoms: C_12  and  C_30
    5  A    between atoms: C_16  and  C_27
    6  A    between atoms: N_20  and  C_39
    7  A    between atoms: N_23  and  C_30
                            x       y       z     vdW  Elec       q    Type
                         _______ _______ _______ _____ _____    ______ ____

>  <TORSDO>
F 7

$$$$
=
 OpenBabel11032420273D

 39 43  0  0  1  0  0  0  0  0999 V2000
  181.8270  178.7510  142.0800 C   0  0  0  0  0  0  0  0  0  0  0  0
  184.0870  179.1010  142.9690 C   0  0  0  0  0  3  0  0  0  0  0  0
  186.5940  178.4260  140.2630 C   0  0  0  0  0  0  0  0  0  0  0  0
  188.2400  177.9220  136.4170 O   0  0  0  0  0  1  0  0  0  0  0  0
  188.5650  178.6670  138.6610 C   0  0  0  0  0  2  0  0  0  0  0  0
  183.7570  178.2430  140.6530 C   0  0  0  0  0  0  0  0  0  0  0  0
  183.4080  178.2250  138.1970 C   0  0  0  0  0  1  0  0  0  0  0  0
  186.0560  178.5320  141.5970 N   0  0  0  0  0  0  0  0  0  0  0  0
  186.2910  178.2210  137.7880 C   0  0  1  0  0  3  0  0  0  0  0  0
  188.1020  178.4040  140.0860 C   0  0  0  0  0  2  0  0  0  0  0  0
  187.7560  177.7970  137.7190 C   0  0  1  0  0  3  0  0  0  0  0  0
  185.7620  178.2540  139.2090 C   0  0  0  0  0  0  0  0  0  0  0  0
  182.2870  178.2520  140.9210 C   0  0  1  0  0  3  0  0  0  0  0  0
  186.1190  179.4760  137.1970 O   0  0  0  0  0  1  0  0  0  0  0  0
  181.3840  177.7420  139.9920 O   0  0  0  0  0  1  0  0  0  0  0  0
  182.7730  179.3020  143.0790 C   0  0  0  0  0  3  0  0  0  0  0  0
  184.2880  178.2190  139.4110 C   0  0  0  0  0  0  0  0  0  0  0  0
  184.6480  178.2230  141.8780 C   0  0  0  0  0  0  0  0  0  0  0  0
  180.4160  178.7860  142.3270 N   0  0  0  0  0  2  0  0  0  0  0  0
  179.8120  179.5390  143.4170 C   0  0  0  0  0  2  0  0  0  0  0  0
  179.6810  177.4910  144.3430 O   0  0  0  0  0  1  0  0  0  0  0  0
  179.0000  178.6550  144.2340 N   0  0  0  0  0  2  0  0  0  0  0  0
  186.9680  178.6830  142.7320 C   0  0  0  0  0  2  0  0  0  0  0  0
  186.6280  177.4500  144.8960 C   0  0  0  0  0  2  0  0  0  0  0  0
  187.1390  177.3540  143.4680 C   0  0  2  0  0  3  0  0  0  0  0  0
  188.5420  177.0500  144.0060 C   0  0  1  0  0  0  0  0  0  0  0  0
  188.0170  177.1280  145.4260 C   0  0  0  0  0  2  0  0  0  0  0  0
  188.8930  175.7540  143.6700 F   0  0  0  0  0  0  0  0  0  0  0  0
  190.7750  176.9320  141.7700 C   0  0  0  0  0  0  0  0  0  0  0  0
  189.9740  178.8770  144.6630 O   0  0  0  0  0  0  0  0  0  0  0  0
  190.3910  178.0810  142.5320 N   0  0  0  0  0  2  0  0  0  0  0  0
  189.6570  178.0540  143.7630 C   0  0  0  0  0  0  0  0  0  0  0  0
  190.7360  175.7790  142.2820 O   0  0  0  0  0  0  0  0  0  0  0  0
  191.2870  177.1210  140.3820 C   0  0  0  0  0  3  0  0  0  0  0  0
  190.7460  176.0280  139.4590 C   0  0  0  0  0  2  0  0  0  0  0  0
  191.2720  176.2290  138.0410 C   0  0  0  0  0  2  0  0  0  0  0  0
  193.3320  177.3240  138.9490 C   0  0  0  0  0  2  0  0  0  0  0  0
  192.8150  177.1280  140.3710 C   0  0  0  0  0  2  0  0  0  0  0  0
  192.7990  176.2210  138.0380 C   0  0  0  0  0  2  0  0  0  0  0  0
  1 19  1  0  0  0  0
  1 16  2  0  0  0  0
  2 16  1  0  0  0  0
  3  8  1  0  0  0  0
  5 10  1  0  0  0  0
  6 13  1  0  0  0  0
  6 18  1  0  0  0  0
  7 17  1  0  0  0  0
  8 18  1  0  0  0  0
  8 23  1  0  0  0  0
  9 14  1  1  0  0  0
  9 12  1  0  0  0  0
 10  3  1  0  0  0  0
 11  4  1  6  0  0  0
 11  9  1  0  0  0  0
 11  5  1  0  0  0  0
 12 17  1  0  0  0  0
 12  3  2  0  0  0  0
 13 15  1  1  0  0  0
 13  1  1  0  0  0  0
 17  6  2  0  0  0  0
 18  2  2  0  0  0  0
 19 20  1  0  0  0  0
 20 22  1  0  0  0  0
 22 21  1  0  0  0  0
 24 27  1  0  0  0  0
 25 23  1  1  0  0  0
 25 26  1  0  0  0  0
 25 24  1  0  0  0  0
 26 28  1  6  0  0  0
 26 27  1  0  0  0  0
 29 33  2  0  0  0  0
 29 31  1  0  0  0  0
 31 32  1  0  0  0  0
 32 26  1  0  0  0  0
 32 30  2  0  0  0  0
 34 29  1  0  0  0  0
 35 34  1  0  0  0  0
 36 35  1  0  0  0  0
 37 38  1  0  0  0  0
 38 34  1  0  0  0  0
 39 36  1  0  0  0  0
 39 37  1  0  0  0  0
M  END
>  <MODEL>
8

>  <REMARK>
 VINA RESULT:      -7.7      2.953      8.045
  Name = 
  7 active torsions:
  status: ('A' for Active; 'I' for Inactive)
    1  A    between atoms: C_1  and  C_5
    2  A    between atoms: C_2  and  N_9
    3  A    between atoms: N_9  and  C_39
    4  A    between atoms: C_12  and  C_30
    5  A    between atoms: C_16  and  C_27
    6  A    between atoms: N_20  and  C_39
    7  A    between atoms: N_23  and  C_30
                            x       y       z     vdW  Elec       q    Type
                         _______ _______ _______ _____ _____    ______ ____

>  <TORSDO>
F 7

$$$$
=
 OpenBabel11032420273D

 39 43  0  0  1  0  0  0  0  0999 V2000
  188.5950  176.9010  137.3140 C   0  0  0  0  0  0  0  0  0  0  0  0
  186.3990  177.8510  137.8590 C   0  0  0  0  0  3  0  0  0  0  0  0
  183.7210  175.4310  136.8390 C   0  0  0  0  0  0  0  0  0  0  0  0
  181.8370  171.8130  135.7880 O   0  0  0  0  0  1  0  0  0  0  0  0
  181.6620  173.9260  136.8810 C   0  0  0  0  0  2  0  0  0  0  0  0
  186.5730  175.6840  136.6430 C   0  0  0  0  0  0  0  0  0  0  0  0
  186.7730  173.2450  136.2340 C   0  0  0  0  0  1  0  0  0  0  0  0
  184.3410  176.7000  137.1370 N   0  0  0  0  0  0  0  0  0  0  0  0
  183.8710  173.0060  136.2430 C   0  0  1  0  0  3  0  0  0  0  0  0
  182.2060  175.3470  136.8300 C   0  0  0  0  0  2  0  0  0  0  0  0
  182.3970  173.0890  135.8540 C   0  0  1  0  0  3  0  0  0  0  0  0
  184.4860  174.3720  136.4830 C   0  0  0  0  0  0  0  0  0  0  0  0
  188.0570  175.8620  136.6530 C   0  0  1  0  0  3  0  0  0  0  0  0
  184.0280  172.2170  137.3870 O   0  0  0  0  0  1  0  0  0  0  0  0
  188.8920  174.9740  135.9820 O   0  0  0  0  0  1  0  0  0  0  0  0
  187.7210  177.8530  138.0390 C   0  0  0  0  0  3  0  0  0  0  0  0
  185.9680  174.4930  136.4410 C   0  0  0  0  0  0  0  0  0  0  0  0
  185.7580  176.9450  136.8370 C   0  0  0  0  0  0  0  0  0  0  0  0
  190.0190  177.0580  137.3500 N   0  0  0  0  0  2  0  0  0  0  0  0
  190.7910  177.0830  138.5830 C   0  0  0  0  0  2  0  0  0  0  0  0
  191.3350  174.9240  138.2530 O   0  0  0  0  0  1  0  0  0  0  0  0
  190.8110  175.7590  139.1790 N   0  0  0  0  0  2  0  0  0  0  0  0
  183.5030  177.8470  137.4860 C   0  0  0  0  0  2  0  0  0  0  0  0
  181.3500  178.2840  138.7080 C   0  0  0  0  0  2  0  0  0  0  0  0
  182.6820  177.5530  138.7420 C   0  0  2  0  0  3  0  0  0  0  0  0
  183.0630  178.3370  140.0040 C   0  0  1  0  0  0  0  0  0  0  0  0
  181.7230  179.0450  139.9720 C   0  0  0  0  0  2  0  0  0  0  0  0
  183.1480  177.4680  141.0770 F   0  0  0  0  0  0  0  0  0  0  0  0
  185.1760  178.9680  142.2700 C   0  0  0  0  0  0  0  0  0  0  0  0
  184.2380  180.2170  139.0530 O   0  0  0  0  0  0  0  0  0  0  0  0
  185.3010  179.2760  140.8780 N   0  0  0  0  0  2  0  0  0  0  0  0
  184.2210  179.3190  139.9380 C   0  0  0  0  0  0  0  0  0  0  0  0
  184.0470  178.9870  142.8340 O   0  0  0  0  0  0  0  0  0  0  0  0
  186.4080  178.6880  143.0640 C   0  0  0  0  0  3  0  0  0  0  0  0
  187.4440  177.9590  142.2060 C   0  0  0  0  0  2  0  0  0  0  0  0
  188.7010  177.6790  143.0240 C   0  0  0  0  0  2  0  0  0  0  0  0
  187.3310  177.5890  145.1170 C   0  0  0  0  0  2  0  0  0  0  0  0
  186.0680  177.8690  144.3090 C   0  0  0  0  0  2  0  0  0  0  0  0
  188.3540  176.8500  144.2580 C   0  0  0  0  0  2  0  0  0  0  0  0
  1 19  1  0  0  0  0
  1 16  2  0  0  0  0
  2 16  1  0  0  0  0
  3  8  1  0  0  0  0
  6 13  1  0  0  0  0
  6 18  1  0  0  0  0
  7 17  1  0  0  0  0
  8 23  1  0  0  0  0
  9 12  1  0  0  0  0
  9 14  1  1  0  0  0
 10  3  1  0  0  0  0
 10  5  1  0  0  0  0
 11  4  1  1  0  0  0
 11  9  1  0  0  0  0
 11  5  1  0  0  0  0
 12  3  2  0  0  0  0
 13 15  1  6  0  0  0
 13  1  1  0  0  0  0
 17 12  1  0  0  0  0
 17  6  2  0  0  0  0
 18  8  1  0  0  0  0
 18  2  2  0  0  0  0
 19 20  1  0  0  0  0
 20 22  1  0  0  0  0
 21 22  1  0  0  0  0
 24 25  1  0  0  0  0
 24 27  1  0  0  0  0
 25 23  1  6  0  0  0
 25 26  1  0  0  0  0
 26 28  1  1  0  0  0
 27 26  1  0  0  0  0
 29 33  2  0  0  0  0
 29 34  1  0  0  0  0
 30 32  2  0  0  0  0
 31 29  1  0  0  0  0
 32 26  1  0  0  0  0
 32 31  1  0  0  0  0
 34 38  1  0  0  0  0
 35 36  1  0  0  0  0
 35 34  1  0  0  0  0
 36 39  1  0  0  0  0
 38 37  1  0  0  0  0
 39 37  1  0  0  0  0
M  END
>  <MODEL>
9

>  <REMARK>
 VINA RESULT:      -7.5      3.528      7.954
  Name = 
  7 active torsions:
  status: ('A' for Active; 'I' for Inactive)
    1  A    between atoms: C_1  and  C_5
    2  A    between atoms: C_2  and  N_9
    3  A    between atoms: N_9  and  C_39
    4  A    between atoms: C_12  and  C_30
    5  A    between atoms: C_16  and  C_27
    6  A    between atoms: N_20  and  C_39
    7  A    between atoms: N_23  and  C_30
                            x       y       z     vdW  Elec       q    Type
                         _______ _______ _______ _____ _____    ______ ____

>  <TORSDO>
F 7

$$$$
