=
 OpenBabel11042413283D

 56 60  0  0  1  0  0  0  0  0999 V2000
  189.4000  176.9490  139.8040 C   0  0  1  0  0  3  0  0  0  0  0  0
  187.5040  175.8490  136.6720 C   0  0  2  0  0  3  0  0  0  0  0  0
  187.7660  178.6530  140.2450 O   0  0  0  0  0  0  0  0  0  0  0  0
  186.5170  178.3880  137.7060 C   0  0  0  0  0  2  0  0  0  0  0  0
  187.8330  177.8710  138.0430 N   0  0  0  0  0  0  0  0  0  0  0  0
  188.3160  177.9050  139.3940 C   0  0  0  0  0  0  0  0  0  0  0  0
  190.2840  176.5890  138.6440 C   0  0  0  0  0  3  0  0  0  0  0  0
  185.5780  177.2070  137.4360 C   0  0  0  0  0  2  0  0  0  0  0  0
  189.8520  176.5810  137.3760 C   0  0  0  0  0  0  0  0  0  0  0  0
  188.4480  177.0070  137.0420 C   0  0  1  0  0  3  0  0  0  0  0  0
  186.1000  176.2550  136.4360 N   0  0  0  0  0  0  0  0  0  0  0  0
  187.6310  174.6760  137.4530 O   0  0  0  0  0  0  0  0  0  0  0  0
  186.9340  173.6280  136.8390 C   0  0  0  0  0  2  0  0  0  0  0  0
  187.8050  172.3880  136.8140 C   0  0  0  0  0  1  0  0  0  0  0  0
  190.2300  177.4810  140.9690 C   0  0  0  0  0  2  0  0  0  0  0  0
  189.8850  176.7480  142.2580 C   0  0  1  0  0  3  0  0  0  0  0  0
  189.4670  177.7290  143.2850 C   0  0  1  0  0  3  0  0  0  0  0  0
  188.5290  176.9600  142.5710 O   0  0  0  0  0  0  0  0  0  0  0  0
  189.6420  177.1420  144.6840 C   0  0  2  0  0  3  0  0  0  0  0  0
  188.6600  177.7110  146.9500 C   0  0  0  0  0  3  0  0  0  0  0  0
  186.3340  178.3480  147.1610 C   0  0  0  0  0  3  0  0  0  0  0  0
  186.1630  178.1930  145.7810 C   0  0  0  0  0  3  0  0  0  0  0  0
  187.2410  177.7950  144.9840 C   0  0  0  0  0  3  0  0  0  0  0  0
  187.5820  178.1070  147.7450 C   0  0  0  0  0  3  0  0  0  0  0  0
  188.4940  177.5520  145.5630 C   0  0  0  0  0  0  0  0  0  0  0  0
  191.7070  178.3410  144.3900 O   0  0  0  0  0  1  0  0  0  0  0  0
  190.9940  177.5470  145.2890 C   0  0  2  0  0  3  0  0  0  0  0  0
  191.7890  176.0850  147.0070 O   0  0  0  0  0  1  0  0  0  0  0  0
  191.8250  176.3180  145.6300 C   0  0  0  0  0  2  0  0  0  0  0  0
  190.6760  176.2140  136.2980 O   0  0  0  0  0  0  0  0  0  0  0  0
  191.3240  173.9580  136.7990 C   0  0  0  0  0  2  0  0  0  0  0  0
  191.5540  175.1190  136.1970 C   0  0  0  0  0  0  0  0  0  0  0  0
  192.7050  175.2410  135.4150 O   0  0  0  0  0  0  0  0  0  0  0  0
  193.8610  174.4410  135.6380 C   0  0  0  0  0  2  0  0  0  0  0  0
  194.9760  175.2750  136.1840 C   0  0  0  0  0  0  0  0  0  0  0  0
  195.2880  175.1830  137.3610 O   0  0  0  0  0  0  0  0  0  0  0  0
  195.6900  176.2410  135.3030 C   0  0  0  0  0  1  0  0  0  0  0  0
  186.0120  176.8570  135.1120 C   0  0  0  0  0  2  0  0  0  0  0  0
  184.5890  176.7260  134.5940 C   0  0  0  0  0  2  0  0  0  0  0  0
  183.6870  176.1250  135.6610 C   0  0  0  0  0  2  0  0  0  0  0  0
  182.3800  175.7850  135.1040 N   0  0  0  0  0  0  0  0  0  0  0  0
  180.7070  175.1960  136.8420 C   0  0  0  0  0  2  0  0  0  0  0  0
  181.9380  177.3200  137.0280 C   0  0  2  0  0  3  0  0  0  0  0  0
  181.3560  176.3200  136.0130 C   0  0  1  0  0  3  0  0  0  0  0  0
  181.5790  177.5070  139.4930 C   0  0  0  0  0  3  0  0  0  0  0  0
  179.5090  175.6550  140.5180 C   0  0  0  0  0  1  0  0  0  0  0  0
  179.4750  173.8220  139.0250 O   0  0  0  0  0  0  0  0  0  0  0  0
  179.8600  175.0030  139.2230 C   0  0  0  0  0  0  0  0  0  0  0  0
  181.3520  176.8970  138.3260 C   0  0  0  0  0  0  0  0  0  0  0  0
  180.5990  175.6960  138.2000 N   0  0  0  0  0  0  0  0  0  0  0  0
  181.5000  178.6050  136.7030 O   0  0  0  0  0  1  0  0  0  0  0  0
  182.4450  178.7160  139.6210 C   0  0  0  0  0  2  0  0  0  0  0  0
  183.7540  178.3450  140.2970 C   0  0  0  0  0  2  0  0  0  0  0  0
  184.5460  179.4870  140.4410 O   0  0  0  0  0  1  0  0  0  0  0  0
  183.3890  173.8140  135.8480 O   0  0  0  0  0  1  0  0  0  0  0  0
  182.3080  174.3250  135.1220 C   0  0  0  0  0  2  0  0  0  0  0  0
  1 15  1  1  0  0  0
  2 10  1  0  0  0  0
  2 12  1  1  0  0  0
  4  5  1  0  0  0  0
  5  6  1  0  0  0  0
  6  1  1  0  0  0  0
  6  3  2  0  0  0  0
  7  1  1  0  0  0  0
  8  4  1  0  0  0  0
  9  7  2  0  0  0  0
 10  9  1  1  0  0  0
 10  5  1  0  0  0  0
 11  2  1  0  0  0  0
 11  8  1  0  0  0  0
 13 12  1  0  0  0  0
 14 13  1  0  0  0  0
 16 15  1  6  0  0  0
 16 18  1  0  0  0  0
 16 17  1  0  0  0  0
 17 19  1  1  0  0  0
 18 17  1  0  0  0  0
 19 27  1  1  0  0  0
 19 25  1  0  0  0  0
 20 24  1  0  0  0  0
 21 24  2  0  0  0  0
 22 21  1  0  0  0  0
 23 25  1  0  0  0  0
 23 22  2  0  0  0  0
 25 20  2  0  0  0  0
 27 26  1  6  0  0  0
 27 29  1  0  0  0  0
 29 28  1  0  0  0  0
 30  9  1  0  0  0  0
 32 30  1  0  0  0  0
 32 31  2  0  0  0  0
 33 34  1  0  0  0  0
 33 32  1  0  0  0  0
 34 35  1  0  0  0  0
 35 36  2  0  0  0  0
 37 35  1  0  0  0  0
 38 11  1  0  0  0  0
 39 38  1  0  0  0  0
 39 40  1  0  0  0  0
 41 56  1  0  0  0  0
 41 40  1  0  0  0  0
 42 50  1  0  0  0  0
 43 51  1  6  0  0  0
 43 49  1  0  0  0  0
 44 41  1  6  0  0  0
 44 42  1  0  0  0  0
 44 43  1  0  0  0  0
 45 52  1  0  0  0  0
 47 48  2  0  0  0  0
 48 46  1  0  0  0  0
 49 45  2  0  0  0  0
 50 49  1  0  0  0  0
 50 48  1  0  0  0  0
 52 53  1  0  0  0  0
 53 54  1  0  0  0  0
 56 55  1  0  0  0  0
M  END
>  <MODEL>
1

>  <REMARK>
 VINA RESULT:      -7.2      0.000      0.000
  Name = 
  21 active torsions:
  status: ('A' for Active; 'I' for Inactive)
    1  A    between atoms: C_1  and  C_14
    2  A    between atoms: C_1  and  C_35
    3  A    between atoms: C_3  and  O_43
    4  A    between atoms: C_4  and  C_36
    5  A    between atoms: C_5  and  O_43
    6  A    between atoms: O_7  and  C_25
    7  A    between atoms: O_7  and  C_47
    8  A    between atoms: C_11  and  C_30
    9  A    between atoms: C_11  and  C_34
   10  A    between atoms: C_11  and  C_55
   11  A    between atoms: C_12  and  N_42
   12  A    between atoms: C_14  and  N_51
   13  A    between atoms: C_17  and  C_36
   14  A    between atoms: C_18  and  C_21
   15  A    between atoms: C_21  and  O_22
   16  A    between atoms: O_22  and  C_25
   17  A    between atoms: C_23  and  C_53
   18  A    between atoms: C_27  and  N_42
   19  A    between atoms: C_34  and  C_44
   20  A    between atoms: C_35  and  N_42
   21  A    between atoms: C_37  and  C_53
                            x       y       z     vdW  Elec       q    Type
                         _______ _______ _______ _____ _____    ______ ____

>  <TORSDO>
F 21

$$$$
=
 OpenBabel11042413283D

 56 60  0  0  1  0  0  0  0  0999 V2000
  184.0050  178.1030  143.3290 C   0  0  1  0  0  3  0  0  0  0  0  0
  182.1710  178.1480  139.9740 C   0  0  2  0  0  3  0  0  0  0  0  0
  182.0460  178.9170  144.4570 O   0  0  0  0  0  0  0  0  0  0  0  0
  180.6850  179.5590  142.0460 C   0  0  0  0  0  2  0  0  0  0  0  0
  182.1120  179.3030  142.1520 N   0  0  0  0  0  0  0  0  0  0  0  0
  182.6870  178.8230  143.3760 C   0  0  0  0  0  0  0  0  0  0  0  0
  184.8450  178.5680  142.1740 C   0  0  0  0  0  3  0  0  0  0  0  0
  180.0450  178.4450  141.2100 C   0  0  0  0  0  2  0  0  0  0  0  0
  184.3200  179.0430  141.0370 C   0  0  0  0  0  0  0  0  0  0  0  0
  182.8300  179.1980  140.8870 C   0  0  1  0  0  3  0  0  0  0  0  0
  180.6960  178.2420  139.9010 N   0  0  0  0  0  0  0  0  0  0  0  0
  182.6510  176.8240  140.1100 O   0  0  0  0  0  0  0  0  0  0  0  0
  182.2270  176.0590  139.0170 C   0  0  0  0  0  2  0  0  0  0  0  0
  181.1060  175.1370  139.4500 C   0  0  0  0  0  1  0  0  0  0  0  0
  184.7770  178.2210  144.6400 C   0  0  0  0  0  2  0  0  0  0  0  0
  186.2420  178.5390  144.3780 C   0  0  1  0  0  3  0  0  0  0  0  0
  187.0930  177.5800  145.1170 C   0  0  1  0  0  3  0  0  0  0  0  0
  186.8540  177.4460  143.7370 O   0  0  0  0  0  0  0  0  0  0  0  0
  188.4880  178.1630  145.3330 C   0  0  2  0  0  3  0  0  0  0  0  0
  190.5450  178.3750  143.8680 C   0  0  0  0  0  3  0  0  0  0  0  0
  191.2060  176.5650  142.4020 C   0  0  0  0  0  3  0  0  0  0  0  0
  190.1080  175.8110  142.8320 C   0  0  0  0  0  3  0  0  0  0  0  0
  189.2260  176.3400  143.7800 C   0  0  0  0  0  3  0  0  0  0  0  0
  191.4240  177.8460  142.9200 C   0  0  0  0  0  3  0  0  0  0  0  0
  189.4390  177.6230  144.3020 C   0  0  0  0  0  0  0  0  0  0  0  0
  189.6870  176.6890  146.8100 O   0  0  0  0  0  1  0  0  0  0  0  0
  188.9850  177.8950  146.7620 C   0  0  2  0  0  3  0  0  0  0  0  0
  188.2650  178.1050  149.0320 O   0  0  0  0  0  1  0  0  0  0  0  0
  187.8200  177.8290  147.7380 C   0  0  0  0  0  2  0  0  0  0  0  0
  185.1110  179.4480  139.9480 O   0  0  0  0  0  0  0  0  0  0  0  0
  185.2470  178.1460  137.9380 C   0  0  0  0  0  2  0  0  0  0  0  0
  185.8140  178.6490  139.0270 C   0  0  0  0  0  0  0  0  0  0  0  0
  187.1680  178.3890  139.2480 O   0  0  0  0  0  0  0  0  0  0  0  0
  188.0980  178.2540  138.1790 C   0  0  0  0  0  2  0  0  0  0  0  0
  188.7890  176.9300  138.2490 C   0  0  0  0  0  0  0  0  0  0  0  0
  188.2550  175.9360  137.7810 O   0  0  0  0  0  0  0  0  0  0  0  0
  190.1160  176.8120  138.9160 C   0  0  0  0  0  1  0  0  0  0  0  0
  180.3480  179.3470  139.0180 C   0  0  0  0  0  2  0  0  0  0  0  0
  180.8740  179.0590  137.6210 C   0  0  0  0  0  2  0  0  0  0  0  0
  179.8750  178.2220  136.8380 C   0  0  0  0  0  2  0  0  0  0  0  0
  179.9460  178.5290  135.4120 N   0  0  0  0  0  0  0  0  0  0  0  0
  181.9400  177.2280  134.7040 C   0  0  0  0  0  2  0  0  0  0  0  0
  179.9050  176.0280  135.3990 C   0  0  2  0  0  3  0  0  0  0  0  0
  180.4020  177.3160  134.7170 C   0  0  1  0  0  3  0  0  0  0  0  0
  181.1330  173.9300  135.9710 C   0  0  0  0  0  3  0  0  0  0  0  0
  183.9020  173.8710  134.9220 C   0  0  0  0  0  1  0  0  0  0  0  0
  184.5790  176.1300  134.7380 O   0  0  0  0  0  0  0  0  0  0  0  0
  183.6160  175.3360  134.8920 C   0  0  0  0  0  0  0  0  0  0  0  0
  181.1130  175.1650  135.4630 C   0  0  0  0  0  0  0  0  0  0  0  0
  182.2750  175.8500  135.0100 N   0  0  0  0  0  0  0  0  0  0  0  0
  178.9330  175.4320  134.5940 O   0  0  0  0  0  1  0  0  0  0  0  0
  179.9200  173.2610  136.5250 C   0  0  0  0  0  2  0  0  0  0  0  0
  180.3260  172.0500  137.3480 C   0  0  0  0  0  2  0  0  0  0  0  0
  179.6710  170.9150  136.8650 O   0  0  0  0  0  1  0  0  0  0  0  0
  180.4410  180.6610  134.5950 O   0  0  0  0  0  1  0  0  0  0  0  0
  180.9730  179.5610  135.2770 C   0  0  0  0  0  2  0  0  0  0  0  0
  1  6  1  0  0  0  0
  1 15  1  1  0  0  0
  2 12  1  1  0  0  0
  2 10  1  0  0  0  0
  4  5  1  0  0  0  0
  5  6  1  0  0  0  0
  6  3  2  0  0  0  0
  7  1  1  0  0  0  0
  8  4  1  0  0  0  0
  9  7  2  0  0  0  0
 10  9  1  1  0  0  0
 10  5  1  0  0  0  0
 11  2  1  0  0  0  0
 11  8  1  0  0  0  0
 13 14  1  0  0  0  0
 13 12  1  0  0  0  0
 16 15  1  1  0  0  0
 16 17  1  0  0  0  0
 17 19  1  6  0  0  0
 18 16  1  0  0  0  0
 18 17  1  0  0  0  0
 19 27  1  1  0  0  0
 20 25  1  0  0  0  0
 21 22  2  0  0  0  0
 21 24  1  0  0  0  0
 22 23  1  0  0  0  0
 23 25  2  0  0  0  0
 24 20  2  0  0  0  0
 25 19  1  0  0  0  0
 27 26  1  6  0  0  0
 27 29  1  0  0  0  0
 29 28  1  0  0  0  0
 30  9  1  0  0  0  0
 31 32  2  0  0  0  0
 32 33  1  0  0  0  0
 32 30  1  0  0  0  0
 34 35  1  0  0  0  0
 34 33  1  0  0  0  0
 35 37  1  0  0  0  0
 36 35  2  0  0  0  0
 38 11  1  0  0  0  0
 39 38  1  0  0  0  0
 40 39  1  0  0  0  0
 41 40  1  0  0  0  0
 42 44  1  0  0  0  0
 42 50  1  0  0  0  0
 43 51  1  6  0  0  0
 43 49  1  0  0  0  0
 44 43  1  0  0  0  0
 44 41  1  1  0  0  0
 45 52  1  0  0  0  0
 47 48  2  0  0  0  0
 48 46  1  0  0  0  0
 48 50  1  0  0  0  0
 49 45  2  0  0  0  0
 50 49  1  0  0  0  0
 52 53  1  0  0  0  0
 54 53  1  0  0  0  0
 55 56  1  0  0  0  0
 56 41  1  0  0  0  0
M  END
>  <MODEL>
2

>  <REMARK>
 VINA RESULT:      -6.8      2.842      5.984
  Name = 
  21 active torsions:
  status: ('A' for Active; 'I' for Inactive)
    1  A    between atoms: C_1  and  C_14
    2  A    between atoms: C_1  and  C_35
    3  A    between atoms: C_3  and  O_43
    4  A    between atoms: C_4  and  C_36
    5  A    between atoms: C_5  and  O_43
    6  A    between atoms: O_7  and  C_25
    7  A    between atoms: O_7  and  C_47
    8  A    between atoms: C_11  and  C_30
    9  A    between atoms: C_11  and  C_34
   10  A    between atoms: C_11  and  C_55
   11  A    between atoms: C_12  and  N_42
   12  A    between atoms: C_14  and  N_51
   13  A    between atoms: C_17  and  C_36
   14  A    between atoms: C_18  and  C_21
   15  A    between atoms: C_21  and  O_22
   16  A    between atoms: O_22  and  C_25
   17  A    between atoms: C_23  and  C_53
   18  A    between atoms: C_27  and  N_42
   19  A    between atoms: C_34  and  C_44
   20  A    between atoms: C_35  and  N_42
   21  A    between atoms: C_37  and  C_53
                            x       y       z     vdW  Elec       q    Type
                         _______ _______ _______ _____ _____    ______ ____

>  <TORSDO>
F 21

$$$$
=
 OpenBabel11042413283D

 56 60  0  0  1  0  0  0  0  0999 V2000
  190.5710  176.7910  139.7800 C   0  0  1  0  0  3  0  0  0  0  0  0
  188.6260  175.6140  136.7060 C   0  0  2  0  0  3  0  0  0  0  0  0
  189.0120  178.5850  140.1310 O   0  0  0  0  0  0  0  0  0  0  0  0
  187.7510  178.2440  137.6060 C   0  0  0  0  0  2  0  0  0  0  0  0
  189.0430  177.6880  137.9720 N   0  0  0  0  0  0  0  0  0  0  0  0
  189.5280  177.7700  139.3200 C   0  0  0  0  0  0  0  0  0  0  0  0
  191.4370  176.3340  138.6410 C   0  0  0  0  0  3  0  0  0  0  0  0
  186.7610  177.0920  137.3960 C   0  0  0  0  0  2  0  0  0  0  0  0
  191.0050  176.2790  137.3750 C   0  0  0  0  0  0  0  0  0  0  0  0
  189.6190  176.7480  137.0170 C   0  0  1  0  0  3  0  0  0  0  0  0
  187.2410  176.0690  136.4480 N   0  0  0  0  0  0  0  0  0  0  0  0
  188.7030  174.4780  137.5460 O   0  0  0  0  0  0  0  0  0  0  0  0
  188.7670  173.3200  136.7620 C   0  0  0  0  0  2  0  0  0  0  0  0
  187.5860  172.4280  137.0820 C   0  0  0  0  0  1  0  0  0  0  0  0
  191.4240  177.3460  140.9180 C   0  0  0  0  0  2  0  0  0  0  0  0
  190.5570  178.0530  141.9490 C   0  0  1  0  0  3  0  0  0  0  0  0
  190.4660  177.2200  143.1700 C   0  0  1  0  0  3  0  0  0  0  0  0
  191.3240  178.3340  143.0960 O   0  0  0  0  0  0  0  0  0  0  0  0
  189.2240  177.5930  143.9770 C   0  0  2  0  0  3  0  0  0  0  0  0
  188.6200  178.0330  146.3980 C   0  0  0  0  0  3  0  0  0  0  0  0
  190.1160  177.3690  148.1830 C   0  0  0  0  0  3  0  0  0  0  0  0
  191.0210  176.8660  147.2410 C   0  0  0  0  0  3  0  0  0  0  0  0
  190.7270  176.9480  145.8770 C   0  0  0  0  0  3  0  0  0  0  0  0
  188.9160  177.9530  147.7620 C   0  0  0  0  0  3  0  0  0  0  0  0
  189.5270  177.5320  145.4490 C   0  0  0  0  0  0  0  0  0  0  0  0
  188.4550  175.6490  142.7860 O   0  0  0  0  0  1  0  0  0  0  0  0
  188.0330  176.6980  143.6040 C   0  0  2  0  0  3  0  0  0  0  0  0
  185.9780  177.9100  143.7710 O   0  0  0  0  0  1  0  0  0  0  0  0
  186.9630  177.4970  142.8730 C   0  0  0  0  0  2  0  0  0  0  0  0
  191.8100  175.8220  136.3180 O   0  0  0  0  0  0  0  0  0  0  0  0
  192.3110  173.5070  135.9310 C   0  0  0  0  0  2  0  0  0  0  0  0
  192.6920  174.7260  136.2970 C   0  0  0  0  0  0  0  0  0  0  0  0
  194.0290  174.9210  136.6520 O   0  0  0  0  0  0  0  0  0  0  0  0
  194.4780  174.8210  137.9990 C   0  0  0  0  0  2  0  0  0  0  0  0
  195.4960  173.7330  138.1310 C   0  0  0  0  0  0  0  0  0  0  0  0
  195.2910  172.7920  138.8820 O   0  0  0  0  0  0  0  0  0  0  0  0
  196.7760  173.8090  137.3730 C   0  0  0  0  0  1  0  0  0  0  0  0
  187.1780  176.6050  135.0950 C   0  0  0  0  0  2  0  0  0  0  0  0
  185.7360  176.5920  134.6150 C   0  0  0  0  0  2  0  0  0  0  0  0
  184.9230  175.5730  135.3990 C   0  0  0  0  0  2  0  0  0  0  0  0
  183.6790  175.2540  134.7030 N   0  0  0  0  0  0  0  0  0  0  0  0
  181.6700  174.5040  135.9540 C   0  0  0  0  0  2  0  0  0  0  0  0
  183.0510  176.3220  136.8750 C   0  0  2  0  0  3  0  0  0  0  0  0
  182.5660  175.6920  135.5570 C   0  0  1  0  0  3  0  0  0  0  0  0
  182.2730  175.9520  139.2200 C   0  0  0  0  0  3  0  0  0  0  0  0
  179.8790  174.2200  139.4000 C   0  0  0  0  0  1  0  0  0  0  0  0
  179.9340  172.8290  137.4880 O   0  0  0  0  0  0  0  0  0  0  0  0
  180.3920  173.8590  138.0460 C   0  0  0  0  0  0  0  0  0  0  0  0
  182.2020  175.6830  137.9130 C   0  0  0  0  0  0  0  0  0  0  0  0
  181.3690  174.6680  137.3640 N   0  0  0  0  0  0  0  0  0  0  0  0
  182.8090  177.6960  136.8390 O   0  0  0  0  0  1  0  0  0  0  0  0
  183.2180  176.9570  139.7900 C   0  0  0  0  0  2  0  0  0  0  0  0
  182.4470  178.0090  140.5700 C   0  0  0  0  0  2  0  0  0  0  0  0
  183.3010  178.6350  141.4800 O   0  0  0  0  0  1  0  0  0  0  0  0
  184.7750  173.2580  135.2200 O   0  0  0  0  0  1  0  0  0  0  0  0
  183.6450  173.7970  134.5960 C   0  0  0  0  0  2  0  0  0  0  0  0
  1 15  1  1  0  0  0
  2 10  1  0  0  0  0
  2 12  1  1  0  0  0
  4  5  1  0  0  0  0
  5  6  1  0  0  0  0
  6  1  1  0  0  0  0
  6  3  2  0  0  0  0
  7  1  1  0  0  0  0
  8  4  1  0  0  0  0
  9  7  2  0  0  0  0
 10  9  1  1  0  0  0
 10  5  1  0  0  0  0
 11  2  1  0  0  0  0
 11  8  1  0  0  0  0
 13 14  1  0  0  0  0
 13 12  1  0  0  0  0
 16 15  1  6  0  0  0
 16 18  1  0  0  0  0
 16 17  1  0  0  0  0
 17 19  1  1  0  0  0
 18 17  1  0  0  0  0
 19 27  1  1  0  0  0
 19 25  1  0  0  0  0
 20 24  1  0  0  0  0
 22 21  1  0  0  0  0
 23 22  2  0  0  0  0
 24 21  2  0  0  0  0
 25 23  1  0  0  0  0
 25 20  2  0  0  0  0
 27 26  1  6  0  0  0
 29 27  1  0  0  0  0
 29 28  1  0  0  0  0
 30  9  1  0  0  0  0
 31 32  2  0  0  0  0
 32 30  1  0  0  0  0
 32 33  1  0  0  0  0
 33 34  1  0  0  0  0
 34 35  1  0  0  0  0
 35 36  2  0  0  0  0
 37 35  1  0  0  0  0
 38 11  1  0  0  0  0
 39 38  1  0  0  0  0
 39 40  1  0  0  0  0
 41 40  1  0  0  0  0
 42 50  1  0  0  0  0
 43 51  1  6  0  0  0
 43 49  1  0  0  0  0
 44 41  1  6  0  0  0
 44 42  1  0  0  0  0
 44 43  1  0  0  0  0
 45 52  1  0  0  0  0
 47 48  2  0  0  0  0
 48 46  1  0  0  0  0
 49 45  2  0  0  0  0
 50 49  1  0  0  0  0
 50 48  1  0  0  0  0
 52 53  1  0  0  0  0
 53 54  1  0  0  0  0
 56 41  1  0  0  0  0
 56 55  1  0  0  0  0
M  END
>  <MODEL>
3

>  <REMARK>
 VINA RESULT:      -6.7      1.535      2.306
  Name = 
  21 active torsions:
  status: ('A' for Active; 'I' for Inactive)
    1  A    between atoms: C_1  and  C_14
    2  A    between atoms: C_1  and  C_35
    3  A    between atoms: C_3  and  O_43
    4  A    between atoms: C_4  and  C_36
    5  A    between atoms: C_5  and  O_43
    6  A    between atoms: O_7  and  C_25
    7  A    between atoms: O_7  and  C_47
    8  A    between atoms: C_11  and  C_30
    9  A    between atoms: C_11  and  C_34
   10  A    between atoms: C_11  and  C_55
   11  A    between atoms: C_12  and  N_42
   12  A    between atoms: C_14  and  N_51
   13  A    between atoms: C_17  and  C_36
   14  A    between atoms: C_18  and  C_21
   15  A    between atoms: C_21  and  O_22
   16  A    between atoms: O_22  and  C_25
   17  A    between atoms: C_23  and  C_53
   18  A    between atoms: C_27  and  N_42
   19  A    between atoms: C_34  and  C_44
   20  A    between atoms: C_35  and  N_42
   21  A    between atoms: C_37  and  C_53
                            x       y       z     vdW  Elec       q    Type
                         _______ _______ _______ _____ _____    ______ ____

>  <TORSDO>
F 21

$$$$
=
 OpenBabel11042413283D

 56 60  0  0  1  0  0  0  0  0999 V2000
  189.8670  176.7100  139.3490 C   0  0  1  0  0  3  0  0  0  0  0  0
  187.3010  175.7840  136.6700 C   0  0  2  0  0  3  0  0  0  0  0  0
  188.6580  178.7200  139.8710 O   0  0  0  0  0  0  0  0  0  0  0  0
  186.9690  178.5280  137.5930 C   0  0  0  0  0  2  0  0  0  0  0  0
  188.2100  177.7940  137.7700 N   0  0  0  0  0  0  0  0  0  0  0  0
  188.9140  177.8250  139.0210 C   0  0  0  0  0  0  0  0  0  0  0  0
  190.4620  176.1130  138.1060 C   0  0  0  0  0  3  0  0  0  0  0  0
  185.8030  177.5320  137.5880 C   0  0  0  0  0  2  0  0  0  0  0  0
  189.8270  176.1020  136.9280 C   0  0  0  0  0  0  0  0  0  0  0  0
  188.4830  176.7640  136.7750 C   0  0  1  0  0  3  0  0  0  0  0  0
  185.9710  176.4330  136.6160 N   0  0  0  0  0  0  0  0  0  0  0  0
  187.3500  174.6630  137.5320 O   0  0  0  0  0  0  0  0  0  0  0  0
  186.5740  173.6280  136.9970 C   0  0  0  0  0  2  0  0  0  0  0  0
  187.3280  172.3190  137.1120 C   0  0  0  0  0  1  0  0  0  0  0  0
  190.9630  177.1510  140.3140 C   0  0  0  0  0  2  0  0  0  0  0  0
  190.3670  177.8430  141.5310 C   0  0  1  0  0  3  0  0  0  0  0  0
  190.4850  176.9530  142.7090 C   0  0  1  0  0  3  0  0  0  0  0  0
  191.3680  178.0300  142.5040 O   0  0  0  0  0  0  0  0  0  0  0  0
  189.4580  177.3390  143.7720 C   0  0  2  0  0  3  0  0  0  0  0  0
  189.3320  177.5450  146.2940 C   0  0  0  0  0  3  0  0  0  0  0  0
  191.1500  176.7600  147.6880 C   0  0  0  0  0  3  0  0  0  0  0  0
  191.8580  176.3660  146.5470 C   0  0  0  0  0  3  0  0  0  0  0  0
  191.3050  176.5630  145.2790 C   0  0  0  0  0  3  0  0  0  0  0  0
  189.8870  177.3500  147.5620 C   0  0  0  0  0  3  0  0  0  0  0  0
  190.0400  177.1530  145.1450 C   0  0  0  0  0  0  0  0  0  0  0  0
  188.3860  175.4000  142.8330 O   0  0  0  0  0  1  0  0  0  0  0  0
  188.1540  176.5460  143.5950 C   0  0  2  0  0  3  0  0  0  0  0  0
  186.3590  178.1040  143.8570 O   0  0  0  0  0  1  0  0  0  0  0  0
  187.0930  177.3920  142.9060 C   0  0  0  0  0  2  0  0  0  0  0  0
  190.3760  175.5140  135.7760 O   0  0  0  0  0  0  0  0  0  0  0  0
  190.4090  173.1790  135.2190 C   0  0  0  0  0  2  0  0  0  0  0  0
  191.0280  174.2730  135.6480 C   0  0  0  0  0  0  0  0  0  0  0  0
  192.3860  174.1820  135.9620 O   0  0  0  0  0  0  0  0  0  0  0  0
  192.8560  174.2120  137.3050 C   0  0  0  0  0  2  0  0  0  0  0  0
  194.0750  175.0730  137.4150 C   0  0  0  0  0  0  0  0  0  0  0  0
  193.9600  176.2730  137.6100 O   0  0  0  0  0  0  0  0  0  0  0  0
  195.4300  174.4760  137.2550 C   0  0  0  0  0  1  0  0  0  0  0  0
  185.7670  176.9510  135.2700 C   0  0  0  0  0  2  0  0  0  0  0  0
  184.4870  176.3660  134.6950 C   0  0  0  0  0  2  0  0  0  0  0  0
  183.3280  177.3320  134.8870 C   0  0  0  0  0  2  0  0  0  0  0  0
  182.2720  176.7220  135.6910 N   0  0  0  0  0  0  0  0  0  0  0  0
  181.9630  178.5650  137.3260 C   0  0  0  0  0  2  0  0  0  0  0  0
  181.7270  176.2340  138.0830 C   0  0  2  0  0  3  0  0  0  0  0  0
  182.4810  177.1340  137.0870 C   0  0  1  0  0  3  0  0  0  0  0  0
  180.3190  176.8390  140.0550 C   0  0  0  0  0  3  0  0  0  0  0  0
  180.3480  179.7350  140.6710 C   0  0  0  0  0  1  0  0  0  0  0  0
  180.8070  180.8330  138.6270 O   0  0  0  0  0  0  0  0  0  0  0  0
  180.8040  179.7400  139.2500 C   0  0  0  0  0  0  0  0  0  0  0  0
  181.0730  177.1920  139.0100 C   0  0  0  0  0  0  0  0  0  0  0  0
  181.2570  178.5410  138.5940 N   0  0  0  0  0  0  0  0  0  0  0  0
  182.6520  175.4520  138.7780 O   0  0  0  0  0  1  0  0  0  0  0  0
  180.0620  175.4160  140.4250 C   0  0  0  0  0  2  0  0  0  0  0  0
  178.9310  174.8570  139.5780 C   0  0  0  0  0  2  0  0  0  0  0  0
  179.3320  173.6490  139.0010 O   0  0  0  0  0  1  0  0  0  0  0  0
  181.6410  174.7540  134.6020 O   0  0  0  0  0  1  0  0  0  0  0  0
  182.4800  175.2780  135.5920 C   0  0  0  0  0  2  0  0  0  0  0  0
  1 15  1  1  0  0  0
  2 10  1  0  0  0  0
  2 12  1  1  0  0  0
  4  5  1  0  0  0  0
  5  6  1  0  0  0  0
  6  1  1  0  0  0  0
  6  3  2  0  0  0  0
  7  1  1  0  0  0  0
  8  4  1  0  0  0  0
  9  7  2  0  0  0  0
 10  9  1  1  0  0  0
 10  5  1  0  0  0  0
 11  2  1  0  0  0  0
 11  8  1  0  0  0  0
 13 14  1  0  0  0  0
 13 12  1  0  0  0  0
 16 15  1  6  0  0  0
 16 18  1  0  0  0  0
 16 17  1  0  0  0  0
 17 19  1  1  0  0  0
 18 17  1  0  0  0  0
 19 27  1  1  0  0  0
 19 25  1  0  0  0  0
 20 24  1  0  0  0  0
 22 21  1  0  0  0  0
 23 22  2  0  0  0  0
 24 21  2  0  0  0  0
 25 23  1  0  0  0  0
 25 20  2  0  0  0  0
 27 26  1  6  0  0  0
 29 27  1  0  0  0  0
 29 28  1  0  0  0  0
 30  9  1  0  0  0  0
 31 32  2  0  0  0  0
 32 30  1  0  0  0  0
 32 33  1  0  0  0  0
 33 34  1  0  0  0  0
 34 35  1  0  0  0  0
 35 36  2  0  0  0  0
 37 35  1  0  0  0  0
 38 11  1  0  0  0  0
 39 40  1  0  0  0  0
 39 38  1  0  0  0  0
 40 41  1  0  0  0  0
 42 50  1  0  0  0  0
 43 51  1  1  0  0  0
 43 49  1  0  0  0  0
 44 41  1  6  0  0  0
 44 42  1  0  0  0  0
 44 43  1  0  0  0  0
 45 52  1  0  0  0  0
 47 48  2  0  0  0  0
 48 46  1  0  0  0  0
 49 45  2  0  0  0  0
 50 49  1  0  0  0  0
 50 48  1  0  0  0  0
 53 52  1  0  0  0  0
 54 53  1  0  0  0  0
 55 56  1  0  0  0  0
 56 41  1  0  0  0  0
M  END
>  <MODEL>
4

>  <REMARK>
 VINA RESULT:      -6.5      1.684      3.007
  Name = 
  21 active torsions:
  status: ('A' for Active; 'I' for Inactive)
    1  A    between atoms: C_1  and  C_14
    2  A    between atoms: C_1  and  C_35
    3  A    between atoms: C_3  and  O_43
    4  A    between atoms: C_4  and  C_36
    5  A    between atoms: C_5  and  O_43
    6  A    between atoms: O_7  and  C_25
    7  A    between atoms: O_7  and  C_47
    8  A    between atoms: C_11  and  C_30
    9  A    between atoms: C_11  and  C_34
   10  A    between atoms: C_11  and  C_55
   11  A    between atoms: C_12  and  N_42
   12  A    between atoms: C_14  and  N_51
   13  A    between atoms: C_17  and  C_36
   14  A    between atoms: C_18  and  C_21
   15  A    between atoms: C_21  and  O_22
   16  A    between atoms: O_22  and  C_25
   17  A    between atoms: C_23  and  C_53
   18  A    between atoms: C_27  and  N_42
   19  A    between atoms: C_34  and  C_44
   20  A    between atoms: C_35  and  N_42
   21  A    between atoms: C_37  and  C_53
                            x       y       z     vdW  Elec       q    Type
                         _______ _______ _______ _____ _____    ______ ____

>  <TORSDO>
F 21

$$$$
=
 OpenBabel11042413283D

 56 60  0  0  1  0  0  0  0  0999 V2000
  184.4720  179.2040  138.7310 C   0  0  1  0  0  3  0  0  0  0  0  0
  188.1110  178.0370  138.6370 C   0  0  2  0  0  3  0  0  0  0  0  0
  184.6570  179.7290  141.0670 O   0  0  0  0  0  0  0  0  0  0  0  0
  187.1590  178.4140  141.3650 C   0  0  0  0  0  2  0  0  0  0  0  0
  186.2520  178.2300  140.2450 N   0  0  0  0  0  0  0  0  0  0  0  0
  185.0890  179.0570  140.0930 C   0  0  0  0  0  0  0  0  0  0  0  0
  184.7050  177.9830  137.8870 C   0  0  0  0  0  3  0  0  0  0  0  0
  188.4400  179.0860  140.8580 C   0  0  0  0  0  2  0  0  0  0  0  0
  185.7730  177.1880  138.0370 C   0  0  0  0  0  0  0  0  0  0  0  0
  186.7760  177.4500  139.1290 C   0  0  1  0  0  3  0  0  0  0  0  0
  189.0620  178.3840  139.7180 N   0  0  0  0  0  0  0  0  0  0  0  0
  188.0180  179.0210  137.6260 O   0  0  0  0  0  0  0  0  0  0  0  0
  188.8160  178.6500  136.5370 C   0  0  0  0  0  2  0  0  0  0  0  0
  187.9310  178.2030  135.3910 C   0  0  0  0  0  1  0  0  0  0  0  0
  182.9830  179.5330  138.8020 C   0  0  0  0  0  2  0  0  0  0  0  0
  182.2270  178.4580  139.5690 C   0  0  1  0  0  3  0  0  0  0  0  0
  180.9840  178.1160  138.8410 C   0  0  1  0  0  3  0  0  0  0  0  0
  182.1280  177.2970  138.7790 O   0  0  0  0  0  0  0  0  0  0  0  0
  179.9670  177.4890  139.7920 C   0  0  2  0  0  3  0  0  0  0  0  0
  180.4100  177.8920  142.2540 C   0  0  0  0  0  3  0  0  0  0  0  0
  179.6260  179.9120  143.3340 C   0  0  0  0  0  3  0  0  0  0  0  0
  179.0640  180.3440  142.1270 C   0  0  0  0  0  3  0  0  0  0  0  0
  179.1740  179.5480  140.9830 C   0  0  0  0  0  3  0  0  0  0  0  0
  180.2980  178.6870  143.3980 C   0  0  0  0  0  3  0  0  0  0  0  0
  179.8460  178.3190  141.0400 C   0  0  0  0  0  0  0  0  0  0  0  0
  180.5420  175.3170  138.9310 O   0  0  0  0  0  1  0  0  0  0  0  0
  180.3310  176.0320  140.1110 C   0  0  2  0  0  3  0  0  0  0  0  0
  179.5870  174.0460  141.2170 O   0  0  0  0  0  1  0  0  0  0  0  0
  179.2220  175.3580  140.9070 C   0  0  0  0  0  2  0  0  0  0  0  0
  186.0020  176.0650  137.2250 O   0  0  0  0  0  0  0  0  0  0  0  0
  184.6280  175.5920  135.3150 C   0  0  0  0  0  2  0  0  0  0  0  0
  185.0650  175.2790  136.5290 C   0  0  0  0  0  0  0  0  0  0  0  0
  184.5860  174.1080  137.1210 O   0  0  0  0  0  0  0  0  0  0  0  0
  185.4540  173.1500  137.7160 C   0  0  0  0  0  2  0  0  0  0  0  0
  186.3300  172.5210  136.6800 C   0  0  0  0  0  0  0  0  0  0  0  0
  185.8440  171.7890  135.8310 O   0  0  0  0  0  0  0  0  0  0  0  0
  187.8000  172.7590  136.6960 C   0  0  0  0  0  1  0  0  0  0  0  0
  189.6830  177.1560  140.1950 C   0  0  0  0  0  2  0  0  0  0  0  0
  190.6960  177.4920  141.2780 C   0  0  0  0  0  2  0  0  0  0  0  0
  190.6570  176.4500  142.3860 C   0  0  0  0  0  2  0  0  0  0  0  0
  190.9910  177.0500  143.6750 N   0  0  0  0  0  0  0  0  0  0  0  0
  190.3250  177.1000  146.0670 C   0  0  0  0  0  2  0  0  0  0  0  0
  188.5780  177.0930  144.3320 C   0  0  2  0  0  3  0  0  0  0  0  0
  189.9960  176.5860  144.6530 C   0  0  1  0  0  3  0  0  0  0  0  0
  186.8530  178.1080  145.8270 C   0  0  0  0  0  3  0  0  0  0  0  0
  187.6130  178.0670  148.6880 C   0  0  0  0  0  1  0  0  0  0  0  0
  189.9780  178.0620  148.7360 O   0  0  0  0  0  0  0  0  0  0  0  0
  188.9450  177.9000  148.0360 C   0  0  0  0  0  0  0  0  0  0  0  0
  188.0690  177.5880  145.6370 C   0  0  0  0  0  0  0  0  0  0  0  0
  189.0710  177.5400  146.6470 N   0  0  0  0  0  0  0  0  0  0  0  0
  187.8000  176.0210  143.8910 O   0  0  0  0  0  1  0  0  0  0  0  0
  185.8450  178.2330  144.7330 C   0  0  0  0  0  2  0  0  0  0  0  0
  184.9290  179.4130  145.0060 C   0  0  0  0  0  2  0  0  0  0  0  0
  183.6780  178.9480  145.4200 O   0  0  0  0  0  1  0  0  0  0  0  0
  191.9830  179.1450  143.9600 O   0  0  0  0  0  1  0  0  0  0  0  0
  190.8360  178.4920  143.4950 C   0  0  0  0  0  2  0  0  0  0  0  0
  1 15  1  1  0  0  0
  1  6  1  0  0  0  0
  2 12  1  1  0  0  0
  2 10  1  0  0  0  0
  2 11  1  0  0  0  0
  5  4  1  0  0  0  0
  6  5  1  0  0  0  0
  6  3  2  0  0  0  0
  7  9  2  0  0  0  0
  7  1  1  0  0  0  0
  8  4  1  0  0  0  0
 10  9  1  6  0  0  0
 10  5  1  0  0  0  0
 11 38  1  0  0  0  0
 11  8  1  0  0  0  0
 13 12  1  0  0  0  0
 14 13  1  0  0  0  0
 16 15  1  6  0  0  0
 17 16  1  0  0  0  0
 17 19  1  1  0  0  0
 18 17  1  0  0  0  0
 18 16  1  0  0  0  0
 19 27  1  1  0  0  0
 19 25  1  0  0  0  0
 20 24  1  0  0  0  0
 21 24  2  0  0  0  0
 22 21  1  0  0  0  0
 23 25  1  0  0  0  0
 23 22  2  0  0  0  0
 25 20  2  0  0  0  0
 27 26  1  6  0  0  0
 27 29  1  0  0  0  0
 29 28  1  0  0  0  0
 30  9  1  0  0  0  0
 31 32  2  0  0  0  0
 32 33  1  0  0  0  0
 32 30  1  0  0  0  0
 33 34  1  0  0  0  0
 35 37  1  0  0  0  0
 35 34  1  0  0  0  0
 36 35  2  0  0  0  0
 38 39  1  0  0  0  0
 39 40  1  0  0  0  0
 40 41  1  0  0  0  0
 42 50  1  0  0  0  0
 43 51  1  1  0  0  0
 43 44  1  0  0  0  0
 43 49  1  0  0  0  0
 44 41  1  6  0  0  0
 44 42  1  0  0  0  0
 48 46  1  0  0  0  0
 48 47  2  0  0  0  0
 49 45  2  0  0  0  0
 49 50  1  0  0  0  0
 50 48  1  0  0  0  0
 52 53  1  0  0  0  0
 52 45  1  0  0  0  0
 53 54  1  0  0  0  0
 56 41  1  0  0  0  0
 56 55  1  0  0  0  0
M  END
>  <MODEL>
5

>  <REMARK>
 VINA RESULT:      -6.3      3.109      8.956
  Name = 
  21 active torsions:
  status: ('A' for Active; 'I' for Inactive)
    1  A    between atoms: C_1  and  C_14
    2  A    between atoms: C_1  and  C_35
    3  A    between atoms: C_3  and  O_43
    4  A    between atoms: C_4  and  C_36
    5  A    between atoms: C_5  and  O_43
    6  A    between atoms: O_7  and  C_25
    7  A    between atoms: O_7  and  C_47
    8  A    between atoms: C_11  and  C_30
    9  A    between atoms: C_11  and  C_34
   10  A    between atoms: C_11  and  C_55
   11  A    between atoms: C_12  and  N_42
   12  A    between atoms: C_14  and  N_51
   13  A    between atoms: C_17  and  C_36
   14  A    between atoms: C_18  and  C_21
   15  A    between atoms: C_21  and  O_22
   16  A    between atoms: O_22  and  C_25
   17  A    between atoms: C_23  and  C_53
   18  A    between atoms: C_27  and  N_42
   19  A    between atoms: C_34  and  C_44
   20  A    between atoms: C_35  and  N_42
   21  A    between atoms: C_37  and  C_53
                            x       y       z     vdW  Elec       q    Type
                         _______ _______ _______ _____ _____    ______ ____

>  <TORSDO>
F 21

$$$$
=
 OpenBabel11042413283D

 56 60  0  0  1  0  0  0  0  0999 V2000
  190.2600  176.8560  140.3320 C   0  0  1  0  0  3  0  0  0  0  0  0
  188.5460  175.9470  137.0370 C   0  0  2  0  0  3  0  0  0  0  0  0
  188.5680  178.4950  140.8070 O   0  0  0  0  0  0  0  0  0  0  0  0
  187.4550  178.3880  138.1940 C   0  0  0  0  0  2  0  0  0  0  0  0
  188.7630  177.8730  138.5620 N   0  0  0  0  0  0  0  0  0  0  0  0
  189.1770  177.8190  139.9350 C   0  0  0  0  0  0  0  0  0  0  0  0
  191.2080  176.5950  139.1970 C   0  0  0  0  0  3  0  0  0  0  0  0
  186.5560  177.2130  137.7940 C   0  0  0  0  0  2  0  0  0  0  0  0
  190.8410  176.6690  137.9110 C   0  0  0  0  0  0  0  0  0  0  0  0
  189.4460  177.0930  137.5350 C   0  0  1  0  0  3  0  0  0  0  0  0
  187.1480  176.3440  136.7590 N   0  0  0  0  0  0  0  0  0  0  0  0
  188.6600  174.7240  137.7390 O   0  0  0  0  0  0  0  0  0  0  0  0
  188.8500  173.6780  136.8280 C   0  0  0  0  0  2  0  0  0  0  0  0
  187.9460  172.5190  137.1930 C   0  0  0  0  0  1  0  0  0  0  0  0
  191.0180  177.3180  141.5730 C   0  0  0  0  0  2  0  0  0  0  0  0
  190.5360  176.5760  142.8100 C   0  0  1  0  0  3  0  0  0  0  0  0
  189.6140  177.4440  143.5780 C   0  0  1  0  0  3  0  0  0  0  0  0
  189.1390  176.4130  142.7470 O   0  0  0  0  0  0  0  0  0  0  0  0
  189.5460  176.9920  145.0340 C   0  0  2  0  0  3  0  0  0  0  0  0
  188.1530  177.7970  146.9920 C   0  0  0  0  0  3  0  0  0  0  0  0
  185.7820  178.2120  146.7310 C   0  0  0  0  0  3  0  0  0  0  0  0
  185.8600  177.8290  145.3870 C   0  0  0  0  0  3  0  0  0  0  0  0
  187.0840  177.4280  144.8450 C   0  0  0  0  0  3  0  0  0  0  0  0
  186.9280  178.1960  147.5340 C   0  0  0  0  0  3  0  0  0  0  0  0
  188.2360  177.4090  145.6440 C   0  0  0  0  0  0  0  0  0  0  0  0
  191.8660  177.6280  145.0160 O   0  0  0  0  0  1  0  0  0  0  0  0
  190.7420  177.5240  145.8370 C   0  0  2  0  0  3  0  0  0  0  0  0
  192.3100  176.0010  146.8070 O   0  0  0  0  0  1  0  0  0  0  0  0
  191.0650  176.6020  147.0040 C   0  0  0  0  0  2  0  0  0  0  0  0
  191.7240  176.3950  136.8530 O   0  0  0  0  0  0  0  0  0  0  0  0
  192.5520  174.1490  136.6770 C   0  0  0  0  0  2  0  0  0  0  0  0
  192.7690  175.4530  136.8040 C   0  0  0  0  0  0  0  0  0  0  0  0
  194.0910  175.9000  136.8680 O   0  0  0  0  0  0  0  0  0  0  0  0
  194.9890  175.7660  135.7720 C   0  0  0  0  0  2  0  0  0  0  0  0
  196.1890  174.9680  136.1730 C   0  0  0  0  0  0  0  0  0  0  0  0
  196.9590  175.4030  137.0160 O   0  0  0  0  0  0  0  0  0  0  0  0
  196.4670  173.6560  135.5250 C   0  0  0  0  0  1  0  0  0  0  0  0
  187.1130  177.0370  135.4780 C   0  0  0  0  0  2  0  0  0  0  0  0
  185.9930  176.4620  134.6250 C   0  0  0  0  0  2  0  0  0  0  0  0
  184.6770  177.1580  134.9360 C   0  0  0  0  0  2  0  0  0  0  0  0
  183.9590  176.4600  135.9990 N   0  0  0  0  0  0  0  0  0  0  0  0
  183.9500  173.9840  135.8090 C   0  0  0  0  0  2  0  0  0  0  0  0
  181.8070  175.1960  135.8330 C   0  0  2  0  0  3  0  0  0  0  0  0
  183.2790  175.3060  135.3930 C   0  0  1  0  0  3  0  0  0  0  0  0
  180.5000  173.2140  136.6080 C   0  0  0  0  0  3  0  0  0  0  0  0
  181.9930  170.6660  136.3810 C   0  0  0  0  0  1  0  0  0  0  0  0
  184.2840  171.2360  136.5240 O   0  0  0  0  0  0  0  0  0  0  0  0
  183.1100  171.6550  136.3550 C   0  0  0  0  0  0  0  0  0  0  0  0
  181.6430  173.7620  136.1850 C   0  0  0  0  0  0  0  0  0  0  0  0
  182.8770  173.0570  136.1190 N   0  0  0  0  0  0  0  0  0  0  0  0
  180.9840  175.5200  134.7530 O   0  0  0  0  0  1  0  0  0  0  0  0
  179.2340  173.9900  136.7570 C   0  0  0  0  0  2  0  0  0  0  0  0
  178.9320  174.2090  138.2300 C   0  0  0  0  0  2  0  0  0  0  0  0
  179.8190  175.1540  138.7530 O   0  0  0  0  0  1  0  0  0  0  0  0
  182.8720  177.3230  137.8770 O   0  0  0  0  0  1  0  0  0  0  0  0
  182.9500  177.4000  136.4820 C   0  0  0  0  0  2  0  0  0  0  0  0
  1 15  1  1  0  0  0
  2 10  1  0  0  0  0
  2 12  1  1  0  0  0
  4  5  1  0  0  0  0
  5  6  1  0  0  0  0
  6  1  1  0  0  0  0
  6  3  2  0  0  0  0
  7  1  1  0  0  0  0
  8  4  1  0  0  0  0
  9  7  2  0  0  0  0
 10  9  1  1  0  0  0
 10  5  1  0  0  0  0
 11  2  1  0  0  0  0
 11  8  1  0  0  0  0
 13 14  1  0  0  0  0
 13 12  1  0  0  0  0
 16 15  1  6  0  0  0
 16 17  1  0  0  0  0
 17 19  1  1  0  0  0
 18 16  1  0  0  0  0
 18 17  1  0  0  0  0
 19 25  1  0  0  0  0
 19 27  1  1  0  0  0
 20 24  1  0  0  0  0
 21 24  2  0  0  0  0
 22 21  1  0  0  0  0
 23 22  2  0  0  0  0
 23 25  1  0  0  0  0
 25 20  2  0  0  0  0
 27 26  1  6  0  0  0
 27 29  1  0  0  0  0
 28 29  1  0  0  0  0
 30  9  1  0  0  0  0
 31 32  2  0  0  0  0
 32 30  1  0  0  0  0
 32 33  1  0  0  0  0
 34 35  1  0  0  0  0
 34 33  1  0  0  0  0
 35 36  2  0  0  0  0
 37 35  1  0  0  0  0
 38 11  1  0  0  0  0
 39 40  1  0  0  0  0
 39 38  1  0  0  0  0
 40 41  1  0  0  0  0
 41 56  1  0  0  0  0
 42 50  1  0  0  0  0
 43 51  1  6  0  0  0
 43 49  1  0  0  0  0
 44 42  1  0  0  0  0
 44 43  1  0  0  0  0
 44 41  1  1  0  0  0
 45 52  1  0  0  0  0
 48 46  1  0  0  0  0
 48 47  2  0  0  0  0
 49 45  2  0  0  0  0
 50 49  1  0  0  0  0
 50 48  1  0  0  0  0
 52 53  1  0  0  0  0
 53 54  1  0  0  0  0
 56 55  1  0  0  0  0
M  END
>  <MODEL>
6

>  <REMARK>
 VINA RESULT:      -6.2      1.642      2.768
  Name = 
  21 active torsions:
  status: ('A' for Active; 'I' for Inactive)
    1  A    between atoms: C_1  and  C_14
    2  A    between atoms: C_1  and  C_35
    3  A    between atoms: C_3  and  O_43
    4  A    between atoms: C_4  and  C_36
    5  A    between atoms: C_5  and  O_43
    6  A    between atoms: O_7  and  C_25
    7  A    between atoms: O_7  and  C_47
    8  A    between atoms: C_11  and  C_30
    9  A    between atoms: C_11  and  C_34
   10  A    between atoms: C_11  and  C_55
   11  A    between atoms: C_12  and  N_42
   12  A    between atoms: C_14  and  N_51
   13  A    between atoms: C_17  and  C_36
   14  A    between atoms: C_18  and  C_21
   15  A    between atoms: C_21  and  O_22
   16  A    between atoms: O_22  and  C_25
   17  A    between atoms: C_23  and  C_53
   18  A    between atoms: C_27  and  N_42
   19  A    between atoms: C_34  and  C_44
   20  A    between atoms: C_35  and  N_42
   21  A    between atoms: C_37  and  C_53
                            x       y       z     vdW  Elec       q    Type
                         _______ _______ _______ _____ _____    ______ ____

>  <TORSDO>
F 21

$$$$
=
 OpenBabel11042413283D

 56 60  0  0  1  0  0  0  0  0999 V2000
  191.2770  174.9760  135.5950 C   0  0  1  0  0  3  0  0  0  0  0  0
  187.4920  174.9890  136.1410 C   0  0  2  0  0  3  0  0  0  0  0  0
  191.2370  172.6290  135.0870 O   0  0  0  0  0  0  0  0  0  0  0  0
  188.5590  172.2830  135.9740 C   0  0  0  0  0  2  0  0  0  0  0  0
  189.3960  173.4290  136.2860 N   0  0  0  0  0  0  0  0  0  0  0  0
  190.6760  173.6010  135.6610 C   0  0  0  0  0  0  0  0  0  0  0  0
  190.8230  175.8290  136.7460 C   0  0  0  0  0  3  0  0  0  0  0  0
  187.3950  172.7470  135.0910 C   0  0  0  0  0  2  0  0  0  0  0  0
  189.6430  175.6620  137.3550 C   0  0  0  0  0  0  0  0  0  0  0  0
  188.7240  174.5400  136.9490 C   0  0  1  0  0  3  0  0  0  0  0  0
  186.6390  173.8800  135.6600 N   0  0  0  0  0  0  0  0  0  0  0  0
  187.7240  175.9900  135.1680 O   0  0  0  0  0  0  0  0  0  0  0  0
  186.7070  176.9490  135.2320 C   0  0  0  0  0  2  0  0  0  0  0  0
  187.2800  178.2620  135.7260 C   0  0  0  0  0  1  0  0  0  0  0  0
  192.8000  174.9400  135.5180 C   0  0  0  0  0  2  0  0  0  0  0  0
  193.3980  174.4920  136.8440 C   0  0  1  0  0  3  0  0  0  0  0  0
  194.8620  174.3290  136.6930 C   0  0  1  0  0  3  0  0  0  0  0  0
  194.3040  175.4670  137.3050 O   0  0  0  0  0  0  0  0  0  0  0  0
  195.4070  173.3930  137.7700 C   0  0  2  0  0  3  0  0  0  0  0  0
  197.7800  174.2430  138.0360 C   0  0  0  0  0  3  0  0  0  0  0  0
  198.4540  175.4070  140.0490 C   0  0  0  0  0  3  0  0  0  0  0  0
  197.1650  175.2540  140.5730 C   0  0  0  0  0  3  0  0  0  0  0  0
  196.1830  174.5930  139.8290 C   0  0  0  0  0  3  0  0  0  0  0  0
  198.7610  174.9020  138.7810 C   0  0  0  0  0  3  0  0  0  0  0  0
  196.4850  174.0840  138.5580 C   0  0  0  0  0  0  0  0  0  0  0  0
  195.8760  172.1500  135.7640 O   0  0  0  0  0  1  0  0  0  0  0  0
  195.9070  172.0760  137.1580 C   0  0  2  0  0  3  0  0  0  0  0  0
  194.0490  170.6520  136.6660 O   0  0  0  0  0  1  0  0  0  0  0  0
  195.0450  170.9060  137.6110 C   0  0  0  0  0  2  0  0  0  0  0  0
  189.2110  176.4830  138.4110 O   0  0  0  0  0  0  0  0  0  0  0  0
  191.2140  176.7900  139.6970 C   0  0  0  0  0  2  0  0  0  0  0  0
  189.8900  176.8160  139.5980 C   0  0  0  0  0  0  0  0  0  0  0  0
  189.1510  177.2130  140.7140 O   0  0  0  0  0  0  0  0  0  0  0  0
  188.1750  178.2470  140.6480 C   0  0  0  0  0  2  0  0  0  0  0  0
  187.3410  178.2600  141.8900 C   0  0  0  0  0  0  0  0  0  0  0  0
  186.3650  178.9900  141.9630 O   0  0  0  0  0  0  0  0  0  0  0  0
  187.7160  177.4080  143.0530 C   0  0  0  0  0  1  0  0  0  0  0  0
  185.8340  173.4030  136.7770 C   0  0  0  0  0  2  0  0  0  0  0  0
  184.8990  174.5120  137.2330 C   0  0  0  0  0  2  0  0  0  0  0  0
  183.4630  174.0150  137.2750 C   0  0  0  0  0  2  0  0  0  0  0  0
  182.7160  174.4870  136.1120 N   0  0  0  0  0  0  0  0  0  0  0  0
  180.9620  174.7090  137.8550 C   0  0  0  0  0  2  0  0  0  0  0  0
  182.0800  176.7330  137.0090 C   0  0  2  0  0  3  0  0  0  0  0  0
  181.6120  175.3240  136.6010 C   0  0  1  0  0  3  0  0  0  0  0  0
  181.5520  178.0800  139.0450 C   0  0  0  0  0  3  0  0  0  0  0  0
  179.5060  176.8270  140.7800 C   0  0  0  0  0  1  0  0  0  0  0  0
  179.6530  174.5000  140.3880 O   0  0  0  0  0  0  0  0  0  0  0  0
  179.9710  175.6500  139.9890 C   0  0  0  0  0  0  0  0  0  0  0  0
  181.4310  176.9610  138.3250 C   0  0  0  0  0  0  0  0  0  0  0  0
  180.7430  175.8020  138.7830 N   0  0  0  0  0  0  0  0  0  0  0  0
  181.6070  177.6570  136.0760 O   0  0  0  0  0  1  0  0  0  0  0  0
  182.3530  179.2540  138.5880 C   0  0  0  0  0  2  0  0  0  0  0  0
  183.7510  179.1890  139.1790 C   0  0  0  0  0  2  0  0  0  0  0  0
  184.3590  180.4420  139.0810 O   0  0  0  0  0  1  0  0  0  0  0  0
  183.1870  172.5500  134.8940 O   0  0  0  0  0  1  0  0  0  0  0  0
  182.1580  173.2910  135.4840 C   0  0  0  0  0  2  0  0  0  0  0  0
  1 15  1  1  0  0  0
  1  6  1  0  0  0  0
  1  7  1  0  0  0  0
  2 12  1  6  0  0  0
  2 10  1  0  0  0  0
  3  6  2  0  0  0  0
  4  5  1  0  0  0  0
  5 10  1  0  0  0  0
  6  5  1  0  0  0  0
  7  9  2  0  0  0  0
  8 11  1  0  0  0  0
  8  4  1  0  0  0  0
  9 30  1  0  0  0  0
 10  9  1  6  0  0  0
 11  2  1  0  0  0  0
 11 38  1  0  0  0  0
 12 13  1  0  0  0  0
 13 14  1  0  0  0  0
 16 15  1  6  0  0  0
 16 18  1  0  0  0  0
 17 16  1  0  0  0  0
 17 18  1  0  0  0  0
 17 19  1  1  0  0  0
 19 27  1  6  0  0  0
 19 25  1  0  0  0  0
 20 25  2  0  0  0  0
 20 24  1  0  0  0  0
 21 22  1  0  0  0  0
 23 22  2  0  0  0  0
 24 21  2  0  0  0  0
 25 23  1  0  0  0  0
 27 26  1  6  0  0  0
 27 29  1  0  0  0  0
 28 29  1  0  0  0  0
 30 32  1  0  0  0  0
 32 31  2  0  0  0  0
 32 33  1  0  0  0  0
 34 33  1  0  0  0  0
 34 35  1  0  0  0  0
 35 36  2  0  0  0  0
 35 37  1  0  0  0  0
 38 39  1  0  0  0  0
 39 40  1  0  0  0  0
 41 40  1  0  0  0  0
 42 50  1  0  0  0  0
 43 51  1  6  0  0  0
 43 49  1  0  0  0  0
 44 41  1  1  0  0  0
 44 43  1  0  0  0  0
 44 42  1  0  0  0  0
 48 47  2  0  0  0  0
 48 46  1  0  0  0  0
 49 50  1  0  0  0  0
 49 45  2  0  0  0  0
 50 48  1  0  0  0  0
 52 45  1  0  0  0  0
 52 53  1  0  0  0  0
 54 53  1  0  0  0  0
 55 56  1  0  0  0  0
 56 41  1  0  0  0  0
M  END
>  <MODEL>
7

>  <REMARK>
 VINA RESULT:      -6.0      2.428      6.929
  Name = 
  21 active torsions:
  status: ('A' for Active; 'I' for Inactive)
    1  A    between atoms: C_1  and  C_14
    2  A    between atoms: C_1  and  C_35
    3  A    between atoms: C_3  and  O_43
    4  A    between atoms: C_4  and  C_36
    5  A    between atoms: C_5  and  O_43
    6  A    between atoms: O_7  and  C_25
    7  A    between atoms: O_7  and  C_47
    8  A    between atoms: C_11  and  C_30
    9  A    between atoms: C_11  and  C_34
   10  A    between atoms: C_11  and  C_55
   11  A    between atoms: C_12  and  N_42
   12  A    between atoms: C_14  and  N_51
   13  A    between atoms: C_17  and  C_36
   14  A    between atoms: C_18  and  C_21
   15  A    between atoms: C_21  and  O_22
   16  A    between atoms: O_22  and  C_25
   17  A    between atoms: C_23  and  C_53
   18  A    between atoms: C_27  and  N_42
   19  A    between atoms: C_34  and  C_44
   20  A    between atoms: C_35  and  N_42
   21  A    between atoms: C_37  and  C_53
                            x       y       z     vdW  Elec       q    Type
                         _______ _______ _______ _____ _____    ______ ____

>  <TORSDO>
F 21

$$$$
=
 OpenBabel11042413283D

 56 60  0  0  1  0  0  0  0  0999 V2000
  186.2130  178.1760  142.4710 C   0  0  1  0  0  3  0  0  0  0  0  0
  189.7170  176.8710  141.6720 C   0  0  2  0  0  3  0  0  0  0  0  0
  185.9820  179.0410  140.2410 O   0  0  0  0  0  0  0  0  0  0  0  0
  188.7260  178.6660  139.6020 C   0  0  0  0  0  2  0  0  0  0  0  0
  188.1780  178.6560  140.9480 N   0  0  0  0  0  0  0  0  0  0  0  0
  186.7600  178.6870  141.1680 C   0  0  0  0  0  0  0  0  0  0  0  0
  187.2040  178.3480  143.5870 C   0  0  0  0  0  3  0  0  0  0  0  0
  189.2490  177.2640  139.2710 C   0  0  0  0  0  2  0  0  0  0  0  0
  188.5280  178.3470  143.3910 C   0  0  0  0  0  0  0  0  0  0  0  0
  189.0970  178.2410  142.0010 C   0  0  1  0  0  3  0  0  0  0  0  0
  190.1900  176.7330  140.2760 N   0  0  0  0  0  0  0  0  0  0  0  0
  189.0060  175.7430  142.1440 O   0  0  0  0  0  0  0  0  0  0  0  0
  189.7010  175.1660  143.2140 C   0  0  0  0  0  2  0  0  0  0  0  0
  191.1220  175.6900  143.2340 C   0  0  0  0  0  1  0  0  0  0  0  0
  184.8780  178.8220  142.8310 C   0  0  0  0  0  2  0  0  0  0  0  0
  183.7190  177.9080  142.4620 C   0  0  1  0  0  3  0  0  0  0  0  0
  182.7120  178.6750  141.6950 C   0  0  1  0  0  3  0  0  0  0  0  0
  183.6230  177.8100  141.0610 O   0  0  0  0  0  0  0  0  0  0  0  0
  181.3470  177.9960  141.7800 C   0  0  2  0  0  3  0  0  0  0  0  0
  180.7610  178.7360  139.4280 C   0  0  0  0  0  3  0  0  0  0  0  0
  179.8570  177.1600  137.8280 C   0  0  0  0  0  3  0  0  0  0  0  0
  179.9140  176.1460  138.7910 C   0  0  0  0  0  3  0  0  0  0  0  0
  180.3930  176.4260  140.0740 C   0  0  0  0  0  3  0  0  0  0  0  0
  180.2810  178.4550  138.1470 C   0  0  0  0  0  3  0  0  0  0  0  0
  180.8190  177.7220  140.3990 C   0  0  0  0  0  0  0  0  0  0  0  0
  180.8650  180.1210  142.7990 O   0  0  0  0  0  1  0  0  0  0  0  0
  180.3620  178.8330  142.6100 C   0  0  2  0  0  3  0  0  0  0  0  0
  178.9310  178.6820  144.5200 O   0  0  0  0  0  1  0  0  0  0  0  0
  180.1160  178.1930  143.9680 C   0  0  0  0  0  2  0  0  0  0  0  0
  189.4510  178.4780  144.4430 O   0  0  0  0  0  0  0  0  0  0  0  0
  188.4850  177.2080  146.2370 C   0  0  0  0  0  2  0  0  0  0  0  0
  189.5480  177.7190  145.6250 C   0  0  0  0  0  0  0  0  0  0  0  0
  190.8080  177.4700  146.1710 O   0  0  0  0  0  0  0  0  0  0  0  0
  190.9740  176.9070  147.4680 C   0  0  0  0  0  2  0  0  0  0  0  0
  192.0820  175.9020  147.4650 C   0  0  0  0  0  0  0  0  0  0  0  0
  192.1260  175.0440  146.5960 O   0  0  0  0  0  0  0  0  0  0  0  0
  193.1160  175.9230  148.5370 C   0  0  0  0  0  1  0  0  0  0  0  0
  191.4640  177.4300  140.1520 C   0  0  0  0  0  2  0  0  0  0  0  0
  192.4780  176.5100  139.4920 C   0  0  0  0  0  2  0  0  0  0  0  0
  191.8180  175.6890  138.3950 C   0  0  0  0  0  2  0  0  0  0  0  0
  192.0020  176.3200  137.0910 N   0  0  0  0  0  0  0  0  0  0  0  0
  190.3940  174.4710  136.6900 C   0  0  0  0  0  2  0  0  0  0  0  0
  189.7330  176.7800  136.1470 C   0  0  2  0  0  3  0  0  0  0  0  0
  190.9400  175.8260  136.2030 C   0  0  1  0  0  3  0  0  0  0  0  0
  187.2870  176.2940  136.2940 C   0  0  0  0  0  3  0  0  0  0  0  0
  186.6680  173.3990  136.3230 C   0  0  0  0  0  1  0  0  0  0  0  0
  188.5750  172.3320  137.2280 O   0  0  0  0  0  0  0  0  0  0  0  0
  188.1020  173.3890  136.7360 C   0  0  0  0  0  0  0  0  0  0  0  0
  188.5580  175.8830  136.3020 C   0  0  0  0  0  0  0  0  0  0  0  0
  188.9500  174.5410  136.5640 N   0  0  0  0  0  0  0  0  0  0  0  0
  189.7000  177.3990  134.8960 O   0  0  0  0  0  1  0  0  0  0  0  0
  186.8980  177.7230  136.1060 C   0  0  0  0  0  2  0  0  0  0  0  0
  185.4180  177.8990  136.4030 C   0  0  0  0  0  2  0  0  0  0  0  0
  184.9760  176.8510  137.2130 O   0  0  0  0  0  1  0  0  0  0  0  0
  193.3540  176.0240  135.2100 O   0  0  0  0  0  1  0  0  0  0  0  0
  193.2910  175.8400  136.5950 C   0  0  0  0  0  2  0  0  0  0  0  0
  1 15  1  1  0  0  0
  1  7  1  0  0  0  0
  2 10  1  0  0  0  0
  2 12  1  6  0  0  0
  3  6  2  0  0  0  0
  4  5  1  0  0  0  0
  5  6  1  0  0  0  0
  5 10  1  0  0  0  0
  6  1  1  0  0  0  0
  8  4  1  0  0  0  0
  8 11  1  0  0  0  0
  9  7  2  0  0  0  0
  9 30  1  0  0  0  0
 10  9  1  1  0  0  0
 11  2  1  0  0  0  0
 12 13  1  0  0  0  0
 13 14  1  0  0  0  0
 16 15  1  6  0  0  0
 17 19  1  1  0  0  0
 17 16  1  0  0  0  0
 18 17  1  0  0  0  0
 18 16  1  0  0  0  0
 19 27  1  6  0  0  0
 20 25  1  0  0  0  0
 21 24  1  0  0  0  0
 21 22  2  0  0  0  0
 22 23  1  0  0  0  0
 23 25  2  0  0  0  0
 24 20  2  0  0  0  0
 25 19  1  0  0  0  0
 27 26  1  1  0  0  0
 27 29  1  0  0  0  0
 29 28  1  0  0  0  0
 30 32  1  0  0  0  0
 32 33  1  0  0  0  0
 32 31  2  0  0  0  0
 33 34  1  0  0  0  0
 35 34  1  0  0  0  0
 35 37  1  0  0  0  0
 36 35  2  0  0  0  0
 38 11  1  0  0  0  0
 39 38  1  0  0  0  0
 40 39  1  0  0  0  0
 41 40  1  0  0  0  0
 43 51  1  6  0  0  0
 43 44  1  0  0  0  0
 43 49  1  0  0  0  0
 44 42  1  0  0  0  0
 44 41  1  1  0  0  0
 45 49  2  0  0  0  0
 46 48  1  0  0  0  0
 48 47  2  0  0  0  0
 49 50  1  0  0  0  0
 50 42  1  0  0  0  0
 50 48  1  0  0  0  0
 52 45  1  0  0  0  0
 52 53  1  0  0  0  0
 53 54  1  0  0  0  0
 55 56  1  0  0  0  0
 56 41  1  0  0  0  0
M  END
>  <MODEL>
8

>  <REMARK>
 VINA RESULT:      -6.0      2.558      8.585
  Name = 
  21 active torsions:
  status: ('A' for Active; 'I' for Inactive)
    1  A    between atoms: C_1  and  C_14
    2  A    between atoms: C_1  and  C_35
    3  A    between atoms: C_3  and  O_43
    4  A    between atoms: C_4  and  C_36
    5  A    between atoms: C_5  and  O_43
    6  A    between atoms: O_7  and  C_25
    7  A    between atoms: O_7  and  C_47
    8  A    between atoms: C_11  and  C_30
    9  A    between atoms: C_11  and  C_34
   10  A    between atoms: C_11  and  C_55
   11  A    between atoms: C_12  and  N_42
   12  A    between atoms: C_14  and  N_51
   13  A    between atoms: C_17  and  C_36
   14  A    between atoms: C_18  and  C_21
   15  A    between atoms: C_21  and  O_22
   16  A    between atoms: O_22  and  C_25
   17  A    between atoms: C_23  and  C_53
   18  A    between atoms: C_27  and  N_42
   19  A    between atoms: C_34  and  C_44
   20  A    between atoms: C_35  and  N_42
   21  A    between atoms: C_37  and  C_53
                            x       y       z     vdW  Elec       q    Type
                         _______ _______ _______ _____ _____    ______ ____

>  <TORSDO>
F 21

$$$$
=
 OpenBabel11042413283D

 56 60  0  0  1  0  0  0  0  0999 V2000
  189.8100  173.8470  135.5470 C   0  0  1  0  0  3  0  0  0  0  0  0
  186.6810  175.8090  136.5350 C   0  0  2  0  0  3  0  0  0  0  0  0
  188.5140  171.8460  135.2530 O   0  0  0  0  0  0  0  0  0  0  0  0
  186.1920  172.9370  136.4790 C   0  0  0  0  0  2  0  0  0  0  0  0
  187.5300  173.4950  136.5880 N   0  0  0  0  0  0  0  0  0  0  0  0
  188.6130  172.9760  135.8030 C   0  0  0  0  0  0  0  0  0  0  0  0
  190.0250  174.8280  136.6640 C   0  0  0  0  0  3  0  0  0  0  0  0
  185.3090  173.9210  135.7030 C   0  0  0  0  0  2  0  0  0  0  0  0
  189.0260  175.2990  137.4210 C   0  0  0  0  0  0  0  0  0  0  0  0
  187.6180  174.8030  137.2270 C   0  0  1  0  0  3  0  0  0  0  0  0
  185.3230  175.2880  136.2570 N   0  0  0  0  0  0  0  0  0  0  0  0
  187.2420  176.5350  135.4580 O   0  0  0  0  0  0  0  0  0  0  0  0
  186.8390  177.8730  135.5360 C   0  0  0  0  0  2  0  0  0  0  0  0
  187.3190  178.4700  136.8430 C   0  0  0  0  0  1  0  0  0  0  0  0
  191.0760  173.0330  135.2930 C   0  0  0  0  0  2  0  0  0  0  0  0
  192.2780  173.6770  135.9670 C   0  0  1  0  0  3  0  0  0  0  0  0
  193.4000  173.7520  135.0040 C   0  0  1  0  0  3  0  0  0  0  0  0
  192.6050  174.8740  135.3020 O   0  0  0  0  0  0  0  0  0  0  0  0
  194.7300  173.8650  135.7450 C   0  0  2  0  0  3  0  0  0  0  0  0
  194.6900  176.3770  135.4070 C   0  0  0  0  0  3  0  0  0  0  0  0
  196.7040  177.5710  134.7910 C   0  0  0  0  0  3  0  0  0  0  0  0
  197.4200  176.3680  134.7870 C   0  0  0  0  0  3  0  0  0  0  0  0
  196.7700  175.1680  135.0920 C   0  0  0  0  0  3  0  0  0  0  0  0
  195.3400  177.5750  135.1000 C   0  0  0  0  0  3  0  0  0  0  0  0
  195.4030  175.1660  135.4030 C   0  0  0  0  0  0  0  0  0  0  0  0
  194.8810  171.6080  134.9240 O   0  0  0  0  0  1  0  0  0  0  0  0
  195.6350  172.6610  135.4450 C   0  0  2  0  0  3  0  0  0  0  0  0
  197.6480  171.7960  136.4050 O   0  0  0  0  0  1  0  0  0  0  0  0
  196.3420  172.1870  136.7070 C   0  0  0  0  0  2  0  0  0  0  0  0
  189.2300  176.2400  138.4450 O   0  0  0  0  0  0  0  0  0  0  0  0
  191.4890  177.0480  138.4070 C   0  0  0  0  0  2  0  0  0  0  0  0
  190.4330  176.6030  139.0780 C   0  0  0  0  0  0  0  0  0  0  0  0
  190.5230  176.5160  140.4690 O   0  0  0  0  0  0  0  0  0  0  0  0
  191.5240  177.2080  141.2080 C   0  0  0  0  0  2  0  0  0  0  0  0
  191.2550  177.1070  142.6760 C   0  0  0  0  0  0  0  0  0  0  0  0
  190.7180  176.1090  143.1320 O   0  0  0  0  0  0  0  0  0  0  0  0
  191.6120  178.2340  143.5820 C   0  0  0  0  0  1  0  0  0  0  0  0
  184.5610  175.3080  137.4980 C   0  0  0  0  0  2  0  0  0  0  0  0
  183.9340  176.6810  137.6820 C   0  0  0  0  0  2  0  0  0  0  0  0
  183.2600  176.7810  139.0420 C   0  0  0  0  0  2  0  0  0  0  0  0
  182.3140  177.8930  139.0710 N   0  0  0  0  0  0  0  0  0  0  0  0
  181.9370  178.6760  141.3980 C   0  0  0  0  0  2  0  0  0  0  0  0
  184.2320  178.6040  140.5100 C   0  0  2  0  0  3  0  0  0  0  0  0
  182.7640  178.8340  140.1080 C   0  0  1  0  0  3  0  0  0  0  0  0
  185.2850  178.4860  142.7720 C   0  0  0  0  0  3  0  0  0  0  0  0
  183.4150  179.1520  144.9690 C   0  0  0  0  0  1  0  0  0  0  0  0
  181.2540  178.6140  144.1730 O   0  0  0  0  0  0  0  0  0  0  0  0
  182.4600  178.8100  143.8740 C   0  0  0  0  0  0  0  0  0  0  0  0
  184.2080  178.6310  141.9950 C   0  0  0  0  0  0  0  0  0  0  0  0
  182.8800  178.7240  142.4990 N   0  0  0  0  0  0  0  0  0  0  0  0
  185.0070  179.6600  140.0260 O   0  0  0  0  0  1  0  0  0  0  0  0
  186.6610  178.2990  142.2240 C   0  0  0  0  0  2  0  0  0  0  0  0
  187.4910  177.4630  143.1840 C   0  0  0  0  0  2  0  0  0  0  0  0
  186.7600  177.2310  144.3520 O   0  0  0  0  0  1  0  0  0  0  0  0
  179.9940  177.9630  138.8070 O   0  0  0  0  0  1  0  0  0  0  0  0
  181.0350  177.3170  139.4830 C   0  0  0  0  0  2  0  0  0  0  0  0
  1 15  1  1  0  0  0
  1  6  1  0  0  0  0
  1  7  1  0  0  0  0
  2 12  1  6  0  0  0
  2 10  1  0  0  0  0
  3  6  2  0  0  0  0
  4  5  1  0  0  0  0
  5 10  1  0  0  0  0
  6  5  1  0  0  0  0
  7  9  2  0  0  0  0
  8 11  1  0  0  0  0
  8  4  1  0  0  0  0
  9 30  1  0  0  0  0
 10  9  1  6  0  0  0
 11  2  1  0  0  0  0
 11 38  1  0  0  0  0
 12 13  1  0  0  0  0
 13 14  1  0  0  0  0
 16 15  1  6  0  0  0
 17 18  1  0  0  0  0
 17 19  1  1  0  0  0
 17 16  1  0  0  0  0
 18 16  1  0  0  0  0
 19 27  1  6  0  0  0
 21 24  1  0  0  0  0
 22 21  2  0  0  0  0
 22 23  1  0  0  0  0
 23 25  2  0  0  0  0
 24 20  2  0  0  0  0
 25 20  1  0  0  0  0
 25 19  1  0  0  0  0
 27 26  1  1  0  0  0
 27 29  1  0  0  0  0
 28 29  1  0  0  0  0
 30 32  1  0  0  0  0
 31 32  2  0  0  0  0
 32 33  1  0  0  0  0
 33 34  1  0  0  0  0
 34 35  1  0  0  0  0
 35 36  2  0  0  0  0
 35 37  1  0  0  0  0
 38 39  1  0  0  0  0
 39 40  1  0  0  0  0
 40 41  1  0  0  0  0
 41 56  1  0  0  0  0
 42 50  1  0  0  0  0
 43 51  1  6  0  0  0
 43 49  1  0  0  0  0
 44 41  1  6  0  0  0
 44 43  1  0  0  0  0
 44 42  1  0  0  0  0
 48 47  2  0  0  0  0
 48 46  1  0  0  0  0
 49 50  1  0  0  0  0
 49 45  2  0  0  0  0
 50 48  1  0  0  0  0
 52 45  1  0  0  0  0
 52 53  1  0  0  0  0
 53 54  1  0  0  0  0
 55 56  1  0  0  0  0
M  END
>  <MODEL>
9

>  <REMARK>
 VINA RESULT:      -6.0      2.451      7.723
  Name = 
  21 active torsions:
  status: ('A' for Active; 'I' for Inactive)
    1  A    between atoms: C_1  and  C_14
    2  A    between atoms: C_1  and  C_35
    3  A    between atoms: C_3  and  O_43
    4  A    between atoms: C_4  and  C_36
    5  A    between atoms: C_5  and  O_43
    6  A    between atoms: O_7  and  C_25
    7  A    between atoms: O_7  and  C_47
    8  A    between atoms: C_11  and  C_30
    9  A    between atoms: C_11  and  C_34
   10  A    between atoms: C_11  and  C_55
   11  A    between atoms: C_12  and  N_42
   12  A    between atoms: C_14  and  N_51
   13  A    between atoms: C_17  and  C_36
   14  A    between atoms: C_18  and  C_21
   15  A    between atoms: C_21  and  O_22
   16  A    between atoms: O_22  and  C_25
   17  A    between atoms: C_23  and  C_53
   18  A    between atoms: C_27  and  N_42
   19  A    between atoms: C_34  and  C_44
   20  A    between atoms: C_35  and  N_42
   21  A    between atoms: C_37  and  C_53
                            x       y       z     vdW  Elec       q    Type
                         _______ _______ _______ _____ _____    ______ ____

>  <TORSDO>
F 21

$$$$
