=
 OpenBabel11042410263D

 29 32  0  0  1  0  0  0  0  0999 V2000
  189.1260  177.5890  145.0700 C   0  0  1  0  0  3  0  0  0  0  0  0
  185.4790  178.7490  146.9520 N   0  0  0  0  0  0  0  0  0  0  0  0
  187.7890  178.1780  147.1400 C   0  0  0  0  0  3  0  0  0  0  0  0
  186.6980  178.1860  144.9860 C   0  0  0  0  0  3  0  0  0  0  0  0
  185.5000  178.5710  145.6000 C   0  0  0  0  0  0  0  0  0  0  0  0
  187.8470  177.9830  145.7540 C   0  0  0  0  0  0  0  0  0  0  0  0
  186.5830  178.5630  147.7250 C   0  0  0  0  0  3  0  0  0  0  0  0
  184.2570  178.8070  144.8260 C   0  0  0  0  0  0  0  0  0  0  0  0
  183.2190  179.1470  145.4520 O   0  0  0  0  0  0  0  0  0  0  0  0
  184.1650  178.6700  143.3990 N   0  0  0  0  0  2  0  0  0  0  0  0
  185.2290  178.2260  142.5120 C   0  0  0  0  0  1  0  0  0  0  0  0
  189.9080  176.6360  147.2330 N   0  0  0  0  0  2  0  0  0  0  0  0
  191.2610  176.7360  147.6670 N   0  0  0  0  0  0  0  0  0  0  0  0
  189.8840  176.4490  145.7740 C   0  0  2  0  0  3  0  0  0  0  0  0
  191.2900  176.4120  145.4020 C   0  0  0  0  0  0  0  0  0  0  0  0
  192.0780  176.5810  146.5380 N   0  0  0  0  0  0  0  0  0  0  0  0
  191.7490  176.2310  144.2440 O   0  0  0  0  0  0  0  0  0  0  0  0
  189.4410  177.8800  142.6940 C   0  0  0  0  0  0  0  0  0  0  0  0
  188.8840  177.2640  143.6800 N   0  0  0  0  0  0  0  0  0  0  0  0
  190.3870  179.0280  142.9120 C   0  0  0  0  0  1  0  0  0  0  0  0
  188.9920  178.3630  139.1040 C   0  0  1  0  0  3  0  0  0  0  0  0
  190.2870  177.5880  139.2660 C   0  0  2  0  0  3  0  0  0  0  0  0
  190.3270  176.5270  138.1790 C   0  0  1  0  0  3  0  0  0  0  0  0
  191.2800  175.4740  138.4890 N   0  0  0  0  0  1  0  0  0  0  0  0
  188.9360  175.9600  138.0440 C   0  0  0  0  0  2  0  0  0  0  0  0
  187.7870  177.3590  138.1650 S   0  0  0  0  0  0  0  0  0  0  0  0
  188.4910  178.5720  140.5060 C   0  0  0  0  0  2  0  0  0  0  0  0
  189.1110  177.4450  141.3010 C   0  0  1  0  0  3  0  0  0  0  0  0
  190.3090  176.9920  140.6030 N   0  0  0  0  0  2  0  0  0  0  0  0
  1 19  1  6  0  0  0
  1  6  1  0  0  0  0
  2  7  1  0  0  0  0
  3  7  2  0  0  0  0
  4  5  1  0  0  0  0
  4  6  2  0  0  0  0
  5  2  2  0  0  0  0
  6  3  1  0  0  0  0
  8  9  2  0  0  0  0
  8  5  1  0  0  0  0
 10  8  1  0  0  0  0
 11 10  1  0  0  0  0
 12 13  1  0  0  0  0
 14  1  1  6  0  0  0
 14 12  1  0  0  0  0
 15 14  1  0  0  0  0
 15 16  1  0  0  0  0
 16 13  2  0  0  0  0
 17 15  2  0  0  0  0
 18 20  1  0  0  0  0
 18 19  2  0  0  0  0
 21 22  1  0  0  0  0
 21 27  1  1  0  0  0
 22 29  1  1  0  0  0
 23 24  1  1  0  0  0
 23 22  1  0  0  0  0
 25 26  1  0  0  0  0
 25 23  1  0  0  0  0
 26 21  1  0  0  0  0
 27 28  1  0  0  0  0
 28 18  1  1  0  0  0
 29 28  1  0  0  0  0
M  END
>  <MODEL>
1

>  <REMARK>
 VINA RESULT:      -8.6      0.000      0.000
  Name = 
  5 active torsions:
  status: ('A' for Active; 'I' for Inactive)
    1  A    between atoms: C_6  and  C_29
    2  A    between atoms: C_9  and  C_11
    3  A    between atoms: C_12  and  C_26
    4  A    between atoms: N_14  and  C_29
    5  A    between atoms: C_19  and  C_29
                            x       y       z     vdW  Elec       q    Type
                         _______ _______ _______ _____ _____    ______ ____

>  <TORSDO>
F 5

$$$$
=
 OpenBabel11042410263D

 29 32  0  0  1  0  0  0  0  0999 V2000
  190.9010  176.0380  137.9500 C   0  0  1  0  0  3  0  0  0  0  0  0
  194.8960  175.3820  136.6090 N   0  0  0  0  0  0  0  0  0  0  0  0
  192.7050  176.2260  136.1810 C   0  0  0  0  0  3  0  0  0  0  0  0
  193.2240  175.1730  138.2910 C   0  0  0  0  0  3  0  0  0  0  0  0
  194.5370  174.9600  137.8560 C   0  0  0  0  0  0  0  0  0  0  0  0
  192.3010  175.8030  137.4530 C   0  0  0  0  0  0  0  0  0  0  0  0
  194.0200  176.0020  135.7740 C   0  0  0  0  0  3  0  0  0  0  0  0
  195.5560  174.3050  138.7120 C   0  0  0  0  0  0  0  0  0  0  0  0
  196.2020  175.0180  139.5250 O   0  0  0  0  0  0  0  0  0  0  0  0
  195.8520  172.9000  138.6700 N   0  0  0  0  0  2  0  0  0  0  0  0
  195.2640  171.9290  137.7610 C   0  0  0  0  0  1  0  0  0  0  0  0
  190.4350  173.6880  137.2700 N   0  0  0  0  0  2  0  0  0  0  0  0
  190.3750  173.2860  135.9050 N   0  0  0  0  0  0  0  0  0  0  0  0
  189.8680  175.0390  137.3980 C   0  0  2  0  0  3  0  0  0  0  0  0
  189.4470  175.3740  136.0470 C   0  0  0  0  0  0  0  0  0  0  0  0
  189.7560  174.3210  135.1890 N   0  0  0  0  0  0  0  0  0  0  0  0
  188.8690  176.4320  135.6870 O   0  0  0  0  0  0  0  0  0  0  0  0
  190.2140  176.9370  140.0830 C   0  0  0  0  0  0  0  0  0  0  0  0
  190.8700  176.0630  139.3980 N   0  0  0  0  0  0  0  0  0  0  0  0
  189.4330  178.0380  139.4200 C   0  0  0  0  0  1  0  0  0  0  0  0
  191.0910  178.0990  143.4300 C   0  0  1  0  0  3  0  0  0  0  0  0
  189.6010  178.3450  143.2750 C   0  0  2  0  0  3  0  0  0  0  0  0
  188.9340  177.9680  144.5890 C   0  0  1  0  0  3  0  0  0  0  0  0
  187.5050  177.7530  144.4250 N   0  0  0  0  0  1  0  0  0  0  0  0
  189.6040  176.7160  145.0970 C   0  0  0  0  0  2  0  0  0  0  0  0
  191.3810  176.9130  144.7900 S   0  0  0  0  0  0  0  0  0  0  0  0
  191.5160  177.4850  142.1250 C   0  0  0  0  0  2  0  0  0  0  0  0
  190.2580  176.8530  141.5760 C   0  0  1  0  0  3  0  0  0  0  0  0
  189.1060  177.5270  142.1660 N   0  0  0  0  0  2  0  0  0  0  0  0
  1 19  1  1  0  0  0
  2  5  1  0  0  0  0
  3  6  2  0  0  0  0
  5  4  2  0  0  0  0
  5  8  1  0  0  0  0
  6  1  1  0  0  0  0
  6  4  1  0  0  0  0
  7  3  1  0  0  0  0
  7  2  2  0  0  0  0
  8  9  2  0  0  0  0
 10  8  1  0  0  0  0
 11 10  1  0  0  0  0
 12 14  1  0  0  0  0
 13 12  1  0  0  0  0
 14  1  1  6  0  0  0
 15 14  1  0  0  0  0
 16 13  2  0  0  0  0
 16 15  1  0  0  0  0
 17 15  2  0  0  0  0
 19 18  2  0  0  0  0
 20 18  1  0  0  0  0
 21 27  1  6  0  0  0
 21 26  1  0  0  0  0
 22 29  1  6  0  0  0
 22 21  1  0  0  0  0
 22 23  1  0  0  0  0
 23 24  1  6  0  0  0
 23 25  1  0  0  0  0
 26 25  1  0  0  0  0
 28 18  1  6  0  0  0
 28 27  1  0  0  0  0
 28 29  1  0  0  0  0
M  END
>  <MODEL>
2

>  <REMARK>
 VINA RESULT:      -8.2      3.863      9.611
  Name = 
  5 active torsions:
  status: ('A' for Active; 'I' for Inactive)
    1  A    between atoms: C_6  and  C_29
    2  A    between atoms: C_9  and  C_11
    3  A    between atoms: C_12  and  C_26
    4  A    between atoms: N_14  and  C_29
    5  A    between atoms: C_19  and  C_29
                            x       y       z     vdW  Elec       q    Type
                         _______ _______ _______ _____ _____    ______ ____

>  <TORSDO>
F 5

$$$$
=
 OpenBabel11042410263D

 29 32  0  0  1  0  0  0  0  0999 V2000
  188.4990  178.1460  141.5610 C   0  0  1  0  0  3  0  0  0  0  0  0
  184.2900  178.7540  141.8870 N   0  0  0  0  0  0  0  0  0  0  0  0
  186.3680  178.2150  142.9300 C   0  0  0  0  0  3  0  0  0  0  0  0
  186.2680  178.6840  140.5640 C   0  0  0  0  0  3  0  0  0  0  0  0
  184.8880  178.8890  140.6680 C   0  0  0  0  0  0  0  0  0  0  0  0
  187.0140  178.3420  141.6940 C   0  0  0  0  0  0  0  0  0  0  0  0
  184.9920  178.4260  143.0050 C   0  0  0  0  0  3  0  0  0  0  0  0
  184.0550  179.2630  139.4990 C   0  0  0  0  0  0  0  0  0  0  0  0
  184.1300  180.4430  139.0640 O   0  0  0  0  0  0  0  0  0  0  0  0
  183.1630  178.3570  138.8290 N   0  0  0  0  0  2  0  0  0  0  0  0
  182.8890  176.9830  139.2180 C   0  0  0  0  0  1  0  0  0  0  0  0
  190.5850  178.3090  142.9110 N   0  0  0  0  0  2  0  0  0  0  0  0
  191.4800  177.2120  143.0680 N   0  0  0  0  0  0  0  0  0  0  0  0
  189.2040  177.8030  142.8850 C   0  0  2  0  0  3  0  0  0  0  0  0
  189.3520  176.3680  143.0740 C   0  0  0  0  0  0  0  0  0  0  0  0
  190.7030  176.0490  143.1810 N   0  0  0  0  0  0  0  0  0  0  0  0
  188.4190  175.5270  143.1550 O   0  0  0  0  0  0  0  0  0  0  0  0
  189.1590  177.4480  139.3460 C   0  0  0  0  0  0  0  0  0  0  0  0
  188.7960  177.1550  140.5480 N   0  0  0  0  0  0  0  0  0  0  0  0
  189.2810  178.8730  138.8820 C   0  0  0  0  0  1  0  0  0  0  0  0
  189.8830  176.0040  136.0720 C   0  0  1  0  0  3  0  0  0  0  0  0
  191.1830  175.9510  136.8540 C   0  0  2  0  0  3  0  0  0  0  0  0
  191.8420  174.6130  136.5590 C   0  0  1  0  0  3  0  0  0  0  0  0
  192.8450  174.2740  137.5560 N   0  0  0  0  0  1  0  0  0  0  0  0
  190.7550  173.5680  136.5240 C   0  0  0  0  0  2  0  0  0  0  0  0
  189.3460  174.3080  135.6540 S   0  0  0  0  0  0  0  0  0  0  0  0
  188.8930  176.6300  137.0160 C   0  0  0  0  0  2  0  0  0  0  0  0
  189.4420  176.3300  138.3930 C   0  0  1  0  0  3  0  0  0  0  0  0
  190.8780  176.0990  138.2780 N   0  0  0  0  0  2  0  0  0  0  0  0
  1 19  1  6  0  0  0
  1  6  1  0  0  0  0
  2  7  1  0  0  0  0
  3  7  2  0  0  0  0
  4  5  1  0  0  0  0
  4  6  2  0  0  0  0
  5  2  2  0  0  0  0
  6  3  1  0  0  0  0
  8  5  1  0  0  0  0
  9  8  2  0  0  0  0
 10 11  1  0  0  0  0
 10  8  1  0  0  0  0
 12 13  1  0  0  0  0
 13 16  2  0  0  0  0
 14  1  1  6  0  0  0
 14 12  1  0  0  0  0
 14 15  1  0  0  0  0
 15 17  2  0  0  0  0
 15 16  1  0  0  0  0
 18 19  2  0  0  0  0
 20 18  1  0  0  0  0
 21 22  1  0  0  0  0
 21 27  1  1  0  0  0
 22 29  1  1  0  0  0
 23 22  1  0  0  0  0
 23 24  1  1  0  0  0
 25 23  1  0  0  0  0
 26 21  1  0  0  0  0
 26 25  1  0  0  0  0
 27 28  1  0  0  0  0
 28 18  1  1  0  0  0
 29 28  1  0  0  0  0
M  END
>  <MODEL>
3

>  <REMARK>
 VINA RESULT:      -8.1      2.998      4.097
  Name = 
  5 active torsions:
  status: ('A' for Active; 'I' for Inactive)
    1  A    between atoms: C_6  and  C_29
    2  A    between atoms: C_9  and  C_11
    3  A    between atoms: C_12  and  C_26
    4  A    between atoms: N_14  and  C_29
    5  A    between atoms: C_19  and  C_29
                            x       y       z     vdW  Elec       q    Type
                         _______ _______ _______ _____ _____    ______ ____

>  <TORSDO>
F 5

$$$$
=
 OpenBabel11042410263D

 29 32  0  0  1  0  0  0  0  0999 V2000
  188.2100  178.2520  141.6670 C   0  0  1  0  0  3  0  0  0  0  0  0
  184.1400  178.8270  142.8050 N   0  0  0  0  0  0  0  0  0  0  0  0
  185.7780  178.6520  141.0780 C   0  0  0  0  0  3  0  0  0  0  0  0
  186.4180  178.4670  143.3990 C   0  0  0  0  0  3  0  0  0  0  0  0
  185.0830  178.6510  143.7760 C   0  0  0  0  0  0  0  0  0  0  0  0
  186.7720  178.4710  142.0480 C   0  0  0  0  0  0  0  0  0  0  0  0
  184.4560  178.8320  141.4820 C   0  0  0  0  0  3  0  0  0  0  0  0
  184.6560  178.6450  145.1970 C   0  0  0  0  0  0  0  0  0  0  0  0
  183.4790  179.0030  145.4690 O   0  0  0  0  0  0  0  0  0  0  0  0
  185.5070  178.2550  146.2860 N   0  0  0  0  0  2  0  0  0  0  0  0
  186.9070  177.8760  146.1840 C   0  0  0  0  0  1  0  0  0  0  0  0
  190.5010  178.2900  142.6400 N   0  0  0  0  0  2  0  0  0  0  0  0
  191.3550  177.1500  142.6280 N   0  0  0  0  0  0  0  0  0  0  0  0
  189.1130  177.8490  142.8460 C   0  0  2  0  0  3  0  0  0  0  0  0
  189.2210  176.4050  142.9880 C   0  0  0  0  0  0  0  0  0  0  0  0
  190.5530  176.0220  142.8580 N   0  0  0  0  0  0  0  0  0  0  0  0
  188.2760  175.6070  143.2180 O   0  0  0  0  0  0  0  0  0  0  0  0
  188.6990  177.5930  139.3960 C   0  0  0  0  0  0  0  0  0  0  0  0
  188.3130  177.2910  140.5880 N   0  0  0  0  0  0  0  0  0  0  0  0
  189.0560  179.0030  139.0140 C   0  0  0  0  0  1  0  0  0  0  0  0
  189.1210  176.2560  136.0260 C   0  0  1  0  0  3  0  0  0  0  0  0
  190.3970  175.9200  136.7760 C   0  0  2  0  0  3  0  0  0  0  0  0
  190.8010  174.5070  136.3860 C   0  0  1  0  0  3  0  0  0  0  0  0
  191.7350  173.9310  137.3400 N   0  0  0  0  0  1  0  0  0  0  0  0
  189.5430  173.6790  136.3090 C   0  0  0  0  0  2  0  0  0  0  0  0
  188.2830  174.7140  135.5150 S   0  0  0  0  0  0  0  0  0  0  0  0
  188.2690  176.9870  137.0260 C   0  0  0  0  0  2  0  0  0  0  0  0
  188.7670  176.5060  138.3700 C   0  0  1  0  0  3  0  0  0  0  0  0
  190.1360  176.0290  138.2120 N   0  0  0  0  0  2  0  0  0  0  0  0
  1 19  1  6  0  0  0
  1  6  1  0  0  0  0
  2  5  1  0  0  0  0
  3  7  1  0  0  0  0
  3  6  2  0  0  0  0
  4  5  2  0  0  0  0
  5  8  1  0  0  0  0
  6  4  1  0  0  0  0
  7  2  2  0  0  0  0
  8  9  2  0  0  0  0
  8 10  1  0  0  0  0
 11 10  1  0  0  0  0
 12 14  1  0  0  0  0
 13 12  1  0  0  0  0
 13 16  2  0  0  0  0
 14  1  1  6  0  0  0
 14 15  1  0  0  0  0
 15 17  2  0  0  0  0
 16 15  1  0  0  0  0
 18 19  2  0  0  0  0
 20 18  1  0  0  0  0
 21 22  1  0  0  0  0
 21 27  1  1  0  0  0
 22 29  1  1  0  0  0
 23 22  1  0  0  0  0
 23 24  1  1  0  0  0
 25 23  1  0  0  0  0
 26 21  1  0  0  0  0
 26 25  1  0  0  0  0
 27 28  1  0  0  0  0
 28 18  1  1  0  0  0
 29 28  1  0  0  0  0
M  END
>  <MODEL>
4

>  <REMARK>
 VINA RESULT:      -7.9      2.239      3.677
  Name = 
  5 active torsions:
  status: ('A' for Active; 'I' for Inactive)
    1  A    between atoms: C_6  and  C_29
    2  A    between atoms: C_9  and  C_11
    3  A    between atoms: C_12  and  C_26
    4  A    between atoms: N_14  and  C_29
    5  A    between atoms: C_19  and  C_29
                            x       y       z     vdW  Elec       q    Type
                         _______ _______ _______ _____ _____    ______ ____

>  <TORSDO>
F 5

$$$$
=
 OpenBabel11042410263D

 29 32  0  0  1  0  0  0  0  0999 V2000
  189.9950  176.9030  138.3670 C   0  0  1  0  0  3  0  0  0  0  0  0
  190.2160  177.6290  142.5630 N   0  0  0  0  0  0  0  0  0  0  0  0
  191.3120  177.4990  140.4470 C   0  0  0  0  0  3  0  0  0  0  0  0
  188.9480  177.0500  140.6340 C   0  0  0  0  0  3  0  0  0  0  0  0
  189.0160  177.2920  142.0100 C   0  0  0  0  0  0  0  0  0  0  0  0
  190.0970  177.1480  139.8460 C   0  0  0  0  0  0  0  0  0  0  0  0
  191.3510  177.7360  141.8210 C   0  0  0  0  0  3  0  0  0  0  0  0
  187.8210  177.2090  142.8860 C   0  0  0  0  0  0  0  0  0  0  0  0
  187.8300  176.3780  143.8330 O   0  0  0  0  0  0  0  0  0  0  0  0
  186.6490  178.0230  142.7190 N   0  0  0  0  0  2  0  0  0  0  0  0
  186.4210  178.9870  141.6550 C   0  0  0  0  0  1  0  0  0  0  0  0
  188.5830  178.9510  138.2620 N   0  0  0  0  0  2  0  0  0  0  0  0
  187.4040  179.0260  137.4660 N   0  0  0  0  0  0  0  0  0  0  0  0
  189.5910  178.1460  137.5550 C   0  0  2  0  0  3  0  0  0  0  0  0
  188.9440  177.7970  136.3000 C   0  0  0  0  0  0  0  0  0  0  0  0
  187.6580  178.3310  136.2740 N   0  0  0  0  0  0  0  0  0  0  0  0
  189.4540  177.1380  135.3570 O   0  0  0  0  0  0  0  0  0  0  0  0
  191.3040  175.1590  137.3290 C   0  0  0  0  0  0  0  0  0  0  0  0
  191.2250  176.3330  137.8570 N   0  0  0  0  0  0  0  0  0  0  0  0
  190.1050  174.2580  137.2230 C   0  0  0  0  0  1  0  0  0  0  0  0
  194.7880  175.5720  136.3240 C   0  0  1  0  0  3  0  0  0  0  0  0
  194.8190  174.9030  137.6860 C   0  0  2  0  0  3  0  0  0  0  0  0
  195.9030  173.8380  137.6520 C   0  0  1  0  0  3  0  0  0  0  0  0
  195.7380  172.8660  138.7210 N   0  0  0  0  0  1  0  0  0  0  0  0
  195.8340  173.1620  136.3050 C   0  0  0  0  0  2  0  0  0  0  0  0
  195.5440  174.4670  135.0790 S   0  0  0  0  0  0  0  0  0  0  0  0
  193.3270  175.7530  136.0180 C   0  0  0  0  0  2  0  0  0  0  0  0
  192.6340  174.6860  136.8350 C   0  0  1  0  0  3  0  0  0  0  0  0
  193.5010  174.3230  137.9510 N   0  0  0  0  0  2  0  0  0  0  0  0
  1 19  1  6  0  0  0
  1  6  1  0  0  0  0
  3  7  1  0  0  0  0
  4  5  2  0  0  0  0
  5  2  1  0  0  0  0
  5  8  1  0  0  0  0
  6  3  2  0  0  0  0
  6  4  1  0  0  0  0
  7  2  2  0  0  0  0
  8  9  2  0  0  0  0
 10  8  1  0  0  0  0
 11 10  1  0  0  0  0
 13 12  1  0  0  0  0
 14 12  1  0  0  0  0
 14  1  1  1  0  0  0
 15 14  1  0  0  0  0
 16 15  1  0  0  0  0
 16 13  2  0  0  0  0
 17 15  2  0  0  0  0
 18 19  2  0  0  0  0
 20 18  1  0  0  0  0
 21 27  1  6  0  0  0
 21 22  1  0  0  0  0
 22 29  1  6  0  0  0
 23 22  1  0  0  0  0
 23 24  1  1  0  0  0
 25 23  1  0  0  0  0
 26 25  1  0  0  0  0
 26 21  1  0  0  0  0
 27 28  1  0  0  0  0
 28 18  1  1  0  0  0
 28 29  1  0  0  0  0
M  END
>  <MODEL>
5

>  <REMARK>
 VINA RESULT:      -7.7      4.031      7.134
  Name = 
  5 active torsions:
  status: ('A' for Active; 'I' for Inactive)
    1  A    between atoms: C_6  and  C_29
    2  A    between atoms: C_9  and  C_11
    3  A    between atoms: C_12  and  C_26
    4  A    between atoms: N_14  and  C_29
    5  A    between atoms: C_19  and  C_29
                            x       y       z     vdW  Elec       q    Type
                         _______ _______ _______ _____ _____    ______ ____

>  <TORSDO>
F 5

$$$$
=
 OpenBabel11042410263D

 29 32  0  0  1  0  0  0  0  0999 V2000
  190.4150  176.9800  138.5980 C   0  0  1  0  0  3  0  0  0  0  0  0
  190.4460  177.5770  142.8210 N   0  0  0  0  0  0  0  0  0  0  0  0
  191.6380  177.5020  140.7550 C   0  0  0  0  0  3  0  0  0  0  0  0
  189.2640  177.0670  140.8180 C   0  0  0  0  0  3  0  0  0  0  0  0
  189.2700  177.2660  142.2030 C   0  0  0  0  0  0  0  0  0  0  0  0
  190.4500  177.1790  140.0880 C   0  0  0  0  0  0  0  0  0  0  0  0
  191.6140  177.6970  142.1360 C   0  0  0  0  0  3  0  0  0  0  0  0
  188.0350  177.1670  143.0200 C   0  0  0  0  0  0  0  0  0  0  0  0
  188.0300  176.3780  144.0020 O   0  0  0  0  0  0  0  0  0  0  0  0
  186.8400  177.9180  142.7570 N   0  0  0  0  0  2  0  0  0  0  0  0
  186.6280  178.8250  141.6400 C   0  0  0  0  0  1  0  0  0  0  0  0
  188.6820  178.7680  138.6430 N   0  0  0  0  0  2  0  0  0  0  0  0
  187.4290  178.6330  137.9800 N   0  0  0  0  0  0  0  0  0  0  0  0
  189.7270  178.1240  137.8320 C   0  0  2  0  0  3  0  0  0  0  0  0
  189.0150  177.6480  136.6560 C   0  0  0  0  0  0  0  0  0  0  0  0
  187.6630  177.9640  136.7700 N   0  0  0  0  0  0  0  0  0  0  0  0
  189.5220  177.0610  135.6650 O   0  0  0  0  0  0  0  0  0  0  0  0
  192.1170  175.6340  137.5400 C   0  0  0  0  0  0  0  0  0  0  0  0
  191.7470  176.7440  138.0820 N   0  0  0  0  0  0  0  0  0  0  0  0
  191.1830  174.4620  137.4210 C   0  0  0  0  0  1  0  0  0  0  0  0
  194.6950  174.7400  135.1160 C   0  0  1  0  0  3  0  0  0  0  0  0
  194.5800  176.2530  135.0700 C   0  0  2  0  0  3  0  0  0  0  0  0
  195.9870  176.8190  134.9670 C   0  0  1  0  0  3  0  0  0  0  0  0
  196.0330  178.2230  135.3430 N   0  0  0  0  0  1  0  0  0  0  0  0
  196.8750  175.9990  135.8690 C   0  0  0  0  0  2  0  0  0  0  0  0
  196.3750  174.2680  135.6620 S   0  0  0  0  0  0  0  0  0  0  0  0
  193.6890  174.3090  136.1460 C   0  0  0  0  0  2  0  0  0  0  0  0
  193.5230  175.5170  137.0410 C   0  0  1  0  0  3  0  0  0  0  0  0
  193.9040  176.7060  136.2880 N   0  0  0  0  0  2  0  0  0  0  0  0
  1 19  1  6  0  0  0
  1  6  1  0  0  0  0
  3  7  1  0  0  0  0
  4  5  2  0  0  0  0
  5  2  1  0  0  0  0
  5  8  1  0  0  0  0
  6  3  2  0  0  0  0
  6  4  1  0  0  0  0
  7  2  2  0  0  0  0
  8  9  2  0  0  0  0
 10  8  1  0  0  0  0
 11 10  1  0  0  0  0
 13 12  1  0  0  0  0
 14  1  1  1  0  0  0
 14 12  1  0  0  0  0
 15 16  1  0  0  0  0
 15 14  1  0  0  0  0
 16 13  2  0  0  0  0
 17 15  2  0  0  0  0
 18 19  2  0  0  0  0
 20 18  1  0  0  0  0
 21 26  1  0  0  0  0
 21 27  1  1  0  0  0
 22 21  1  0  0  0  0
 22 29  1  1  0  0  0
 23 22  1  0  0  0  0
 23 24  1  1  0  0  0
 23 25  1  0  0  0  0
 26 25  1  0  0  0  0
 27 28  1  0  0  0  0
 28 18  1  6  0  0  0
 29 28  1  0  0  0  0
M  END
>  <MODEL>
6

>  <REMARK>
 VINA RESULT:      -7.6      4.205      7.193
  Name = 
  5 active torsions:
  status: ('A' for Active; 'I' for Inactive)
    1  A    between atoms: C_6  and  C_29
    2  A    between atoms: C_9  and  C_11
    3  A    between atoms: C_12  and  C_26
    4  A    between atoms: N_14  and  C_29
    5  A    between atoms: C_19  and  C_29
                            x       y       z     vdW  Elec       q    Type
                         _______ _______ _______ _____ _____    ______ ____

>  <TORSDO>
F 5

$$$$
=
 OpenBabel11042410263D

 29 32  0  0  1  0  0  0  0  0999 V2000
  186.9280  177.9910  143.5940 C   0  0  1  0  0  3  0  0  0  0  0  0
  188.4720  177.4570  147.5340 N   0  0  0  0  0  0  0  0  0  0  0  0
  186.6290  177.9810  146.1100 C   0  0  0  0  0  3  0  0  0  0  0  0
  188.7960  177.4720  145.1750 C   0  0  0  0  0  3  0  0  0  0  0  0
  189.3050  177.2910  146.4660 C   0  0  0  0  0  0  0  0  0  0  0  0
  187.4560  177.8220  144.9920 C   0  0  0  0  0  0  0  0  0  0  0  0
  187.1630  177.7930  147.3850 C   0  0  0  0  0  3  0  0  0  0  0  0
  190.7180  176.9100  146.7110 C   0  0  0  0  0  0  0  0  0  0  0  0
  190.9780  176.1950  147.7150 O   0  0  0  0  0  0  0  0  0  0  0  0
  191.8120  177.3100  145.8700 N   0  0  0  0  0  2  0  0  0  0  0  0
  191.7240  178.1830  144.7110 C   0  0  0  0  0  1  0  0  0  0  0  0
  188.2660  175.9250  143.2190 N   0  0  0  0  0  2  0  0  0  0  0  0
  189.6450  175.9620  142.8660 N   0  0  0  0  0  0  0  0  0  0  0  0
  187.5720  177.0450  142.5650 C   0  0  2  0  0  3  0  0  0  0  0  0
  188.6140  177.7010  141.7920 C   0  0  0  0  0  0  0  0  0  0  0  0
  189.8250  177.0400  141.9860 N   0  0  0  0  0  0  0  0  0  0  0  0
  188.4670  178.6970  141.0370 O   0  0  0  0  0  0  0  0  0  0  0  0
  184.7280  178.4650  142.7190 C   0  0  0  0  0  0  0  0  0  0  0  0
  185.4850  177.8670  143.5740 N   0  0  0  0  0  0  0  0  0  0  0  0
  185.2920  179.3790  141.6670 C   0  0  0  0  0  1  0  0  0  0  0  0
  181.2770  179.4770  143.3430 C   0  0  1  0  0  3  0  0  0  0  0  0
  181.4210  179.3780  141.8350 C   0  0  2  0  0  3  0  0  0  0  0  0
  180.1560  178.7310  141.2930 C   0  0  1  0  0  3  0  0  0  0  0  0
  180.3530  178.2010  139.9540 N   0  0  0  0  0  1  0  0  0  0  0  0
  179.7640  177.6300  142.2470 C   0  0  0  0  0  2  0  0  0  0  0  0
  180.0340  178.2680  143.9230 S   0  0  0  0  0  0  0  0  0  0  0  0
  182.6310  179.1080  143.8830 C   0  0  0  0  0  2  0  0  0  0  0  0
  183.2500  178.2520  142.8020 C   0  0  1  0  0  3  0  0  0  0  0  0
  182.6090  178.5770  141.5320 N   0  0  0  0  0  2  0  0  0  0  0  0
  1 19  1  1  0  0  0
  1  6  1  0  0  0  0
  3  7  2  0  0  0  0
  4  5  1  0  0  0  0
  5  8  1  0  0  0  0
  5  2  2  0  0  0  0
  6  4  2  0  0  0  0
  6  3  1  0  0  0  0
  7  2  1  0  0  0  0
  8  9  2  0  0  0  0
 10  8  1  0  0  0  0
 11 10  1  0  0  0  0
 13 12  1  0  0  0  0
 14 12  1  0  0  0  0
 14  1  1  1  0  0  0
 15 16  1  0  0  0  0
 15 14  1  0  0  0  0
 16 13  2  0  0  0  0
 17 15  2  0  0  0  0
 18 19  2  0  0  0  0
 20 18  1  0  0  0  0
 21 27  1  1  0  0  0
 21 26  1  0  0  0  0
 22 29  1  1  0  0  0
 22 21  1  0  0  0  0
 23 24  1  6  0  0  0
 23 22  1  0  0  0  0
 23 25  1  0  0  0  0
 25 26  1  0  0  0  0
 28 18  1  6  0  0  0
 28 27  1  0  0  0  0
 29 28  1  0  0  0  0
M  END
>  <MODEL>
7

>  <REMARK>
 VINA RESULT:      -7.5      3.164      6.534
  Name = 
  5 active torsions:
  status: ('A' for Active; 'I' for Inactive)
    1  A    between atoms: C_6  and  C_29
    2  A    between atoms: C_9  and  C_11
    3  A    between atoms: C_12  and  C_26
    4  A    between atoms: N_14  and  C_29
    5  A    between atoms: C_19  and  C_29
                            x       y       z     vdW  Elec       q    Type
                         _______ _______ _______ _____ _____    ______ ____

>  <TORSDO>
F 5

$$$$
=
 OpenBabel11042410263D

 29 32  0  0  1  0  0  0  0  0999 V2000
  189.9550  177.1330  141.0820 C   0  0  1  0  0  3  0  0  0  0  0  0
  186.2040  178.8160  139.9490 N   0  0  0  0  0  0  0  0  0  0  0  0
  187.7820  178.2990  141.6620 C   0  0  0  0  0  3  0  0  0  0  0  0
  188.2270  177.7050  139.3650 C   0  0  0  0  0  3  0  0  0  0  0  0
  186.9990  178.2600  138.9890 C   0  0  0  0  0  0  0  0  0  0  0  0
  188.6220  177.7180  140.7050 C   0  0  0  0  0  0  0  0  0  0  0  0
  186.5640  178.8470  141.2590 C   0  0  0  0  0  3  0  0  0  0  0  0
  186.5400  178.2790  137.5790 C   0  0  0  0  0  0  0  0  0  0  0  0
  187.1810  178.9790  136.7510 O   0  0  0  0  0  0  0  0  0  0  0  0
  185.4030  177.5440  137.0970 N   0  0  0  0  0  2  0  0  0  0  0  0
  184.5030  176.7370  137.9050 C   0  0  0  0  0  1  0  0  0  0  0  0
  188.5330  176.0300  142.8030 N   0  0  0  0  0  2  0  0  0  0  0  0
  188.4130  176.5330  144.1310 N   0  0  0  0  0  0  0  0  0  0  0  0
  189.9120  176.2380  142.3340 C   0  0  2  0  0  3  0  0  0  0  0  0
  190.5820  176.8500  143.4700 C   0  0  0  0  0  0  0  0  0  0  0  0
  189.6750  177.0090  144.5150 N   0  0  0  0  0  0  0  0  0  0  0  0
  191.7970  177.1720  143.5340 O   0  0  0  0  0  0  0  0  0  0  0  0
  191.7340  176.6300  139.5280 C   0  0  0  0  0  0  0  0  0  0  0  0
  190.5370  176.4230  139.9620 N   0  0  0  0  0  0  0  0  0  0  0  0
  192.6300  177.6670  140.1470 C   0  0  0  0  0  1  0  0  0  0  0  0
  192.3310  175.9770  135.9870 C   0  0  1  0  0  3  0  0  0  0  0  0
  193.6830  176.3230  136.5860 C   0  0  2  0  0  3  0  0  0  0  0  0
  194.7090  175.3790  135.9810 C   0  0  1  0  0  3  0  0  0  0  0  0
  195.9260  175.3250  136.7750 N   0  0  0  0  0  1  0  0  0  0  0  0
  194.0740  174.0140  135.8900 C   0  0  0  0  0  2  0  0  0  0  0  0
  192.3650  174.2680  135.3400 S   0  0  0  0  0  0  0  0  0  0  0  0
  191.3680  176.0630  137.1380 C   0  0  0  0  0  2  0  0  0  0  0  0
  192.2210  175.8270  138.3640 C   0  0  1  0  0  3  0  0  0  0  0  0
  193.6010  176.1710  138.0400 N   0  0  0  0  0  2  0  0  0  0  0  0
  1 19  1  6  0  0  0
  2  7  1  0  0  0  0
  4  6  2  0  0  0  0
  5  4  1  0  0  0  0
  5  2  2  0  0  0  0
  6  1  1  0  0  0  0
  6  3  1  0  0  0  0
  7  3  2  0  0  0  0
  8  5  1  0  0  0  0
  9  8  2  0  0  0  0
 10  8  1  0  0  0  0
 10 11  1  0  0  0  0
 12 13  1  0  0  0  0
 13 16  2  0  0  0  0
 14  1  1  6  0  0  0
 14 12  1  0  0  0  0
 14 15  1  0  0  0  0
 15 17  2  0  0  0  0
 15 16  1  0  0  0  0
 18 19  2  0  0  0  0
 18 20  1  0  0  0  0
 21 22  1  0  0  0  0
 21 27  1  1  0  0  0
 22 29  1  1  0  0  0
 23 22  1  0  0  0  0
 23 24  1  1  0  0  0
 25 23  1  0  0  0  0
 26 25  1  0  0  0  0
 26 21  1  0  0  0  0
 27 28  1  0  0  0  0
 28 18  1  1  0  0  0
 29 28  1  0  0  0  0
M  END
>  <MODEL>
8

>  <REMARK>
 VINA RESULT:      -7.4      3.519      5.300
  Name = 
  5 active torsions:
  status: ('A' for Active; 'I' for Inactive)
    1  A    between atoms: C_6  and  C_29
    2  A    between atoms: C_9  and  C_11
    3  A    between atoms: C_12  and  C_26
    4  A    between atoms: N_14  and  C_29
    5  A    between atoms: C_19  and  C_29
                            x       y       z     vdW  Elec       q    Type
                         _______ _______ _______ _____ _____    ______ ____

>  <TORSDO>
F 5

$$$$
=
 OpenBabel11042410263D

 29 32  0  0  1  0  0  0  0  0999 V2000
  186.9140  178.0020  143.4850 C   0  0  1  0  0  3  0  0  0  0  0  0
  182.8120  179.1690  143.5090 N   0  0  0  0  0  0  0  0  0  0  0  0
  184.8890  178.9620  144.6660 C   0  0  0  0  0  3  0  0  0  0  0  0
  184.6880  178.2460  142.3690 C   0  0  0  0  0  3  0  0  0  0  0  0
  183.3430  178.6320  142.3720 C   0  0  0  0  0  0  0  0  0  0  0  0
  185.4660  178.4060  143.5180 C   0  0  0  0  0  0  0  0  0  0  0  0
  183.5460  179.3390  144.6400 C   0  0  0  0  0  3  0  0  0  0  0  0
  182.4790  178.4920  141.1750 C   0  0  0  0  0  0  0  0  0  0  0  0
  181.3240  178.0110  141.3240 O   0  0  0  0  0  0  0  0  0  0  0  0
  182.8810  178.8720  139.8490 N   0  0  0  0  0  2  0  0  0  0  0  0
  184.1880  179.3800  139.4650 C   0  0  0  0  0  1  0  0  0  0  0  0
  186.5050  177.1870  145.8020 N   0  0  0  0  0  2  0  0  0  0  0  0
  187.3740  177.5010  146.8860 N   0  0  0  0  0  0  0  0  0  0  0  0
  187.3070  176.9970  144.5830 C   0  0  2  0  0  3  0  0  0  0  0  0
  188.6780  177.1820  145.0320 C   0  0  0  0  0  0  0  0  0  0  0  0
  188.6870  177.4750  146.3930 N   0  0  0  0  0  0  0  0  0  0  0  0
  189.7140  177.0740  144.3250 O   0  0  0  0  0  0  0  0  0  0  0  0
  188.1590  178.0520  141.4170 C   0  0  0  0  0  0  0  0  0  0  0  0
  187.2750  177.5000  142.1760 N   0  0  0  0  0  0  0  0  0  0  0  0
  188.8830  179.3050  141.8280 C   0  0  0  0  0  1  0  0  0  0  0  0
  188.8080  178.0990  137.8250 C   0  0  1  0  0  3  0  0  0  0  0  0
  190.1390  177.7980  138.4900 C   0  0  2  0  0  3  0  0  0  0  0  0
  190.8340  176.7290  137.6620 C   0  0  1  0  0  3  0  0  0  0  0  0
  191.8870  176.0650  138.4140 N   0  0  0  0  0  1  0  0  0  0  0  0
  189.7860  175.7360  137.2280 C   0  0  0  0  0  2  0  0  0  0  0  0
  188.3180  176.6940  136.7640 S   0  0  0  0  0  0  0  0  0  0  0  0
  187.8330  178.2380  138.9620 C   0  0  0  0  0  2  0  0  0  0  0  0
  188.4460  177.4330  140.0850 C   0  0  1  0  0  3  0  0  0  0  0  0
  189.8840  177.3400  139.8570 N   0  0  0  0  0  2  0  0  0  0  0  0
  1 19  1  6  0  0  0
  1  6  1  0  0  0  0
  2  7  1  0  0  0  0
  4  5  1  0  0  0  0
  4  6  2  0  0  0  0
  5  2  2  0  0  0  0
  6  3  1  0  0  0  0
  7  3  2  0  0  0  0
  8  9  2  0  0  0  0
  8  5  1  0  0  0  0
 10  8  1  0  0  0  0
 11 10  1  0  0  0  0
 12 13  1  0  0  0  0
 14  1  1  6  0  0  0
 14 15  1  0  0  0  0
 14 12  1  0  0  0  0
 15 16  1  0  0  0  0
 16 13  2  0  0  0  0
 17 15  2  0  0  0  0
 18 20  1  0  0  0  0
 18 19  2  0  0  0  0
 21 22  1  0  0  0  0
 21 27  1  1  0  0  0
 22 29  1  1  0  0  0
 23 24  1  1  0  0  0
 23 22  1  0  0  0  0
 25 23  1  0  0  0  0
 26 25  1  0  0  0  0
 26 21  1  0  0  0  0
 27 28  1  0  0  0  0
 28 18  1  1  0  0  0
 29 28  1  0  0  0  0
M  END
>  <MODEL>
9

>  <REMARK>
 VINA RESULT:      -7.3      1.992      2.943
  Name = 
  5 active torsions:
  status: ('A' for Active; 'I' for Inactive)
    1  A    between atoms: C_6  and  C_29
    2  A    between atoms: C_9  and  C_11
    3  A    between atoms: C_12  and  C_26
    4  A    between atoms: N_14  and  C_29
    5  A    between atoms: C_19  and  C_29
                            x       y       z     vdW  Elec       q    Type
                         _______ _______ _______ _____ _____    ______ ____

>  <TORSDO>
F 5

$$$$
