=
 OpenBabel11042411593D

 28 30  0  0  1  0  0  0  0  0999 V2000
  190.2030  177.7920  145.1290 N   0  0  0  0  0  2  0  0  0  0  0  0
  190.9050  177.0330  141.0220 C   0  0  0  0  0  0  0  0  0  0  0  0
  191.6480  177.9630  143.1330 C   0  0  0  0  0  3  0  0  0  0  0  0
  189.7210  176.6050  141.6310 C   0  0  0  0  0  3  0  0  0  0  0  0
  191.8720  177.7080  141.7770 C   0  0  0  0  0  3  0  0  0  0  0  0
  190.4580  177.5370  143.7440 C   0  0  0  0  0  0  0  0  0  0  0  0
  189.4970  176.8600  142.9870 C   0  0  0  0  0  3  0  0  0  0  0  0
  191.1470  176.7440  139.5840 C   0  0  0  0  0  2  0  0  0  0  0  0
  189.8820  176.4800  138.9130 N   0  0  0  0  0  2  0  0  0  0  0  0
  188.5840  178.9620  139.3900 O   0  0  0  0  0  1  0  0  0  0  0  0
  189.7440  177.4210  137.8820 N   0  0  0  0  0  0  0  0  0  0  0  0
  189.0770  178.6670  138.1230 C   0  0  0  0  0  0  0  0  0  0  0  0
  190.1480  177.0500  136.5350 C   0  0  0  0  0  1  0  0  0  0  0  0
  188.9310  179.5060  137.1930 O   0  0  0  0  0  0  0  0  0  0  0  0
  189.3220  176.9760  145.9540 C   0  0  2  0  0  3  0  0  0  0  0  0
  187.4380  178.0730  147.0680 N   0  0  0  0  0  0  0  0  0  0  0  0
  186.0200  178.2080  145.2410 C   0  0  0  0  0  0  0  0  0  0  0  0
  184.8880  178.4790  144.4050 N   0  0  0  0  0  0  0  0  0  0  0  0
  183.5190  178.6660  142.4910 C   0  0  0  0  0  2  0  0  0  0  0  0
  183.6710  179.0980  144.8810 C   0  0  0  0  0  2  0  0  0  0  0  0
  182.6990  179.0360  143.7190 C   0  0  0  0  0  2  0  0  0  0  0  0
  184.8390  178.1220  143.0030 C   0  0  0  0  0  2  0  0  0  0  0  0
  187.9500  177.5740  145.9830 C   0  0  0  0  0  0  0  0  0  0  0  0
  186.1590  178.5110  146.6460 C   0  0  0  0  0  0  0  0  0  0  0  0
  185.3180  179.0770  147.3920 O   0  0  0  0  0  0  0  0  0  0  0  0
  187.1020  177.6430  144.8240 N   0  0  0  0  0  0  0  0  0  0  0  0
  191.3170  176.3720  147.3260 C   0  0  0  0  0  1  0  0  0  0  0  0
  189.8910  176.8890  147.3600 C   0  0  0  0  0  2  0  0  0  0  0  0
  1 15  1  0  0  0  0
  2  4  2  0  0  0  0
  2  5  1  0  0  0  0
  3  6  1  0  0  0  0
  4  7  1  0  0  0  0
  5  3  2  0  0  0  0
  6  1  1  0  0  0  0
  7  6  2  0  0  0  0
  8  2  1  0  0  0  0
  9  8  1  0  0  0  0
 11 12  1  0  0  0  0
 11  9  1  0  0  0  0
 12 10  1  0  0  0  0
 13 11  1  0  0  0  0
 14 12  2  0  0  0  0
 15 23  1  0  0  0  0
 15 28  1  1  0  0  0
 17 24  1  0  0  0  0
 18 20  1  0  0  0  0
 18 17  1  0  0  0  0
 19 22  1  0  0  0  0
 19 21  1  0  0  0  0
 21 20  1  0  0  0  0
 22 18  1  0  0  0  0
 23 16  2  0  0  0  0
 24 16  1  0  0  0  0
 24 25  2  0  0  0  0
 26 17  2  0  0  0  0
 26 23  1  0  0  0  0
 27 28  1  0  0  0  0
M  END
>  <MODEL>
1

>  <REMARK>
 VINA RESULT:      -8.6      0.000      0.000
  Name = 
  7 active torsions:
  status: ('A' for Active; 'I' for Inactive)
    1  A    between atoms: C_2  and  C_15
    2  A    between atoms: N_6  and  C_15
    3  A    between atoms: N_6  and  N_16
    4  A    between atoms: N_11  and  C_23
    5  A    between atoms: N_11  and  C_27
    6  A    between atoms: C_18  and  C_27
    7  A    between atoms: C_19  and  C_27
                            x       y       z     vdW  Elec       q    Type
                         _______ _______ _______ _____ _____    ______ ____

>  <TORSDO>
F 7

$$$$
=
 OpenBabel11042411593D

 28 30  0  0  1  0  0  0  0  0999 V2000
  189.7670  178.1920  144.1330 N   0  0  0  0  0  2  0  0  0  0  0  0
  190.2710  177.3270  140.0190 C   0  0  0  0  0  0  0  0  0  0  0  0
  191.1920  177.4540  142.2560 C   0  0  0  0  0  3  0  0  0  0  0  0
  189.0330  177.7570  140.5070 C   0  0  0  0  0  3  0  0  0  0  0  0
  191.3500  177.1700  140.8960 C   0  0  0  0  0  3  0  0  0  0  0  0
  189.9510  177.8890  142.7470 C   0  0  0  0  0  0  0  0  0  0  0  0
  188.8760  178.0410  141.8670 C   0  0  0  0  0  3  0  0  0  0  0  0
  190.4290  177.0090  138.5750 C   0  0  0  0  0  2  0  0  0  0  0  0
  191.1850  175.7740  138.4210 N   0  0  0  0  0  2  0  0  0  0  0  0
  193.9130  176.4640  138.8190 O   0  0  0  0  0  1  0  0  0  0  0  0
  192.0460  175.9370  137.3250 N   0  0  0  0  0  0  0  0  0  0  0  0
  193.4180  176.2990  137.5300 C   0  0  0  0  0  0  0  0  0  0  0  0
  191.4890  175.8870  135.9820 C   0  0  0  0  0  1  0  0  0  0  0  0
  194.1890  176.4690  136.5460 O   0  0  0  0  0  0  0  0  0  0  0  0
  189.1090  177.2990  145.0770 C   0  0  2  0  0  3  0  0  0  0  0  0
  187.2490  178.0460  146.4840 N   0  0  0  0  0  0  0  0  0  0  0  0
  185.6540  178.2630  144.8170 C   0  0  0  0  0  0  0  0  0  0  0  0
  184.4280  178.5200  144.1230 N   0  0  0  0  0  0  0  0  0  0  0  0
  182.8690  178.8050  142.3730 C   0  0  0  0  0  2  0  0  0  0  0  0
  183.2100  178.9440  144.7790 C   0  0  0  0  0  2  0  0  0  0  0  0
  182.1400  178.9290  143.7040 C   0  0  0  0  0  2  0  0  0  0  0  0
  184.2760  178.3390  142.6950 C   0  0  0  0  0  2  0  0  0  0  0  0
  187.6970  177.7430  145.3020 C   0  0  0  0  0  0  0  0  0  0  0  0
  185.9010  178.3990  146.2330 C   0  0  0  0  0  0  0  0  0  0  0  0
  185.0870  178.7750  147.1170 O   0  0  0  0  0  0  0  0  0  0  0  0
  186.7390  177.8700  144.2380 N   0  0  0  0  0  0  0  0  0  0  0  0
  191.2870  176.7750  146.1770 C   0  0  0  0  0  1  0  0  0  0  0  0
  189.8780  177.2980  146.3870 C   0  0  0  0  0  2  0  0  0  0  0  0
  1 15  1  0  0  0  0
  2  4  2  0  0  0  0
  2  5  1  0  0  0  0
  3  6  1  0  0  0  0
  4  7  1  0  0  0  0
  5  3  2  0  0  0  0
  6  1  1  0  0  0  0
  7  6  2  0  0  0  0
  8  2  1  0  0  0  0
  9  8  1  0  0  0  0
 11 12  1  0  0  0  0
 11  9  1  0  0  0  0
 12 10  1  0  0  0  0
 13 11  1  0  0  0  0
 14 12  2  0  0  0  0
 15 23  1  0  0  0  0
 15 28  1  1  0  0  0
 17 24  1  0  0  0  0
 18 20  1  0  0  0  0
 18 17  1  0  0  0  0
 19 22  1  0  0  0  0
 19 21  1  0  0  0  0
 21 20  1  0  0  0  0
 22 18  1  0  0  0  0
 23 16  2  0  0  0  0
 24 16  1  0  0  0  0
 24 25  2  0  0  0  0
 26 17  2  0  0  0  0
 26 23  1  0  0  0  0
 27 28  1  0  0  0  0
M  END
>  <MODEL>
2

>  <REMARK>
 VINA RESULT:      -8.5      2.024      2.178
  Name = 
  7 active torsions:
  status: ('A' for Active; 'I' for Inactive)
    1  A    between atoms: C_2  and  C_15
    2  A    between atoms: N_6  and  C_15
    3  A    between atoms: N_6  and  N_16
    4  A    between atoms: N_11  and  C_23
    5  A    between atoms: N_11  and  C_27
    6  A    between atoms: C_18  and  C_27
    7  A    between atoms: C_19  and  C_27
                            x       y       z     vdW  Elec       q    Type
                         _______ _______ _______ _____ _____    ______ ____

>  <TORSDO>
F 7

$$$$
=
 OpenBabel11042411593D

 28 30  0  0  1  0  0  0  0  0999 V2000
  189.9810  178.0530  144.2410 N   0  0  0  0  0  2  0  0  0  0  0  0
  190.3100  177.4140  140.0680 C   0  0  0  0  0  0  0  0  0  0  0  0
  188.9610  178.0040  141.9920 C   0  0  0  0  0  3  0  0  0  0  0  0
  191.4250  177.2630  140.8990 C   0  0  0  0  0  3  0  0  0  0  0  0
  189.0780  177.7910  140.6160 C   0  0  0  0  0  3  0  0  0  0  0  0
  190.0780  177.8480  142.8280 C   0  0  0  0  0  0  0  0  0  0  0  0
  191.3070  177.4750  142.2760 C   0  0  0  0  0  3  0  0  0  0  0  0
  190.4440  177.2050  138.6020 C   0  0  0  0  0  2  0  0  0  0  0  0
  189.4670  178.0210  137.8950 N   0  0  0  0  0  2  0  0  0  0  0  0
  186.7050  178.6720  138.0500 O   0  0  0  0  0  1  0  0  0  0  0  0
  188.5000  177.1560  137.3600 N   0  0  0  0  0  0  0  0  0  0  0  0
  187.1070  177.4820  137.4520 C   0  0  0  0  0  0  0  0  0  0  0  0
  188.9220  175.8600  136.8530 C   0  0  0  0  0  1  0  0  0  0  0  0
  186.2340  176.6960  136.9930 O   0  0  0  0  0  0  0  0  0  0  0  0
  189.2680  177.1580  145.1420 C   0  0  2  0  0  3  0  0  0  0  0  0
  187.4560  178.0280  146.5410 N   0  0  0  0  0  0  0  0  0  0  0  0
  185.8460  178.2330  144.8880 C   0  0  0  0  0  0  0  0  0  0  0  0
  184.6190  178.5040  144.2000 N   0  0  0  0  0  0  0  0  0  0  0  0
  183.0450  178.7720  142.4620 C   0  0  0  0  0  2  0  0  0  0  0  0
  183.4270  178.9980  144.8550 C   0  0  0  0  0  2  0  0  0  0  0  0
  182.3410  178.9770  143.7960 C   0  0  0  0  0  2  0  0  0  0  0  0
  184.4390  178.2710  142.7830 C   0  0  0  0  0  2  0  0  0  0  0  0
  187.8760  177.6610  145.3680 C   0  0  0  0  0  0  0  0  0  0  0  0
  186.1180  178.4180  146.2950 C   0  0  0  0  0  0  0  0  0  0  0  0
  185.3310  178.8590  147.1720 O   0  0  0  0  0  0  0  0  0  0  0  0
  186.9070  177.7780  144.3120 N   0  0  0  0  0  0  0  0  0  0  0  0
  191.4740  176.7140  146.2220 C   0  0  0  0  0  1  0  0  0  0  0  0
  190.0190  177.0710  146.4600 C   0  0  0  0  0  2  0  0  0  0  0  0
  1 15  1  0  0  0  0
  2  5  2  0  0  0  0
  2  4  1  0  0  0  0
  3  6  2  0  0  0  0
  4  7  2  0  0  0  0
  5  3  1  0  0  0  0
  6  1  1  0  0  0  0
  7  6  1  0  0  0  0
  8  2  1  0  0  0  0
  9  8  1  0  0  0  0
 11 12  1  0  0  0  0
 11  9  1  0  0  0  0
 12 10  1  0  0  0  0
 13 11  1  0  0  0  0
 14 12  2  0  0  0  0
 15 23  1  0  0  0  0
 15 28  1  1  0  0  0
 17 24  1  0  0  0  0
 18 20  1  0  0  0  0
 18 17  1  0  0  0  0
 19 22  1  0  0  0  0
 19 21  1  0  0  0  0
 21 20  1  0  0  0  0
 22 18  1  0  0  0  0
 23 16  2  0  0  0  0
 24 16  1  0  0  0  0
 24 25  2  0  0  0  0
 26 17  2  0  0  0  0
 26 23  1  0  0  0  0
 27 28  1  0  0  0  0
M  END
>  <MODEL>
3

>  <REMARK>
 VINA RESULT:      -8.3      1.311      1.589
  Name = 
  7 active torsions:
  status: ('A' for Active; 'I' for Inactive)
    1  A    between atoms: C_2  and  C_15
    2  A    between atoms: N_6  and  C_15
    3  A    between atoms: N_6  and  N_16
    4  A    between atoms: N_11  and  C_23
    5  A    between atoms: N_11  and  C_27
    6  A    between atoms: C_18  and  C_27
    7  A    between atoms: C_19  and  C_27
                            x       y       z     vdW  Elec       q    Type
                         _______ _______ _______ _____ _____    ______ ____

>  <TORSDO>
F 7

$$$$
=
 OpenBabel11042411593D

 28 30  0  0  1  0  0  0  0  0999 V2000
  188.3790  177.1100  144.9070 N   0  0  0  0  0  2  0  0  0  0  0  0
  184.4290  178.6350  144.8500 C   0  0  0  0  0  0  0  0  0  0  0  0
  186.4150  178.0200  146.0950 C   0  0  0  0  0  3  0  0  0  0  0  0
  185.0600  178.2550  143.6610 C   0  0  0  0  0  3  0  0  0  0  0  0
  185.1110  178.5230  146.0680 C   0  0  0  0  0  3  0  0  0  0  0  0
  187.0480  177.6340  144.9030 C   0  0  0  0  0  0  0  0  0  0  0  0
  186.3640  177.7510  143.6890 C   0  0  0  0  0  3  0  0  0  0  0  0
  183.0490  179.1870  144.8140 C   0  0  0  0  0  2  0  0  0  0  0  0
  182.7420  179.6650  143.4740 N   0  0  0  0  0  2  0  0  0  0  0  0
  182.5320  178.9560  140.7300 O   0  0  0  0  0  0  0  0  0  0  0  0
  181.6350  178.9410  143.0080 N   0  0  0  0  0  0  0  0  0  0  0  0
  181.5260  178.5960  141.6200 C   0  0  0  0  0  0  0  0  0  0  0  0
  180.5310  178.6830  143.9200 C   0  0  0  0  0  1  0  0  0  0  0  0
  180.5210  177.9660  141.1940 O   0  0  0  0  0  1  0  0  0  0  0  0
  189.5700  177.9250  144.7050 C   0  0  2  0  0  3  0  0  0  0  0  0
  191.3180  177.5210  143.0380 N   0  0  0  0  0  0  0  0  0  0  0  0
  189.9940  177.6730  141.1430 C   0  0  0  0  0  0  0  0  0  0  0  0
  189.5530  177.6850  139.7800 N   0  0  0  0  0  0  0  0  0  0  0  0
  188.1420  177.7660  137.8890 C   0  0  0  0  0  2  0  0  0  0  0  0
  190.4370  177.4920  138.6510 C   0  0  0  0  0  2  0  0  0  0  0  0
  189.5900  177.7500  137.4200 C   0  0  0  0  0  2  0  0  0  0  0  0
  188.1800  177.9330  139.3960 C   0  0  0  0  0  2  0  0  0  0  0  0
  190.0690  177.7630  143.3030 C   0  0  0  0  0  0  0  0  0  0  0  0
  191.3370  177.4500  141.6240 C   0  0  0  0  0  0  0  0  0  0  0  0
  192.3650  177.2170  140.9360 O   0  0  0  0  0  0  0  0  0  0  0  0
  189.2120  177.8600  142.1520 N   0  0  0  0  0  0  0  0  0  0  0  0
  190.0050  176.9360  146.9550 C   0  0  0  0  0  1  0  0  0  0  0  0
  190.6400  177.5030  145.6990 C   0  0  0  0  0  2  0  0  0  0  0  0
  2  5  1  0  0  0  0
  4  7  1  0  0  0  0
  4  2  2  0  0  0  0
  5  3  2  0  0  0  0
  6  1  1  0  0  0  0
  6  3  1  0  0  0  0
  7  6  2  0  0  0  0
  8  2  1  0  0  0  0
  9  8  1  0  0  0  0
 10 12  2  0  0  0  0
 11  9  1  0  0  0  0
 11 13  1  0  0  0  0
 12 11  1  0  0  0  0
 14 12  1  0  0  0  0
 15  1  1  0  0  0  0
 15 28  1  1  0  0  0
 16 23  2  0  0  0  0
 17 24  1  0  0  0  0
 17 26  2  0  0  0  0
 18 17  1  0  0  0  0
 19 22  1  0  0  0  0
 20 18  1  0  0  0  0
 21 19  1  0  0  0  0
 21 20  1  0  0  0  0
 22 18  1  0  0  0  0
 23 15  1  0  0  0  0
 24 16  1  0  0  0  0
 25 24  2  0  0  0  0
 26 23  1  0  0  0  0
 28 27  1  0  0  0  0
M  END
>  <MODEL>
4

>  <REMARK>
 VINA RESULT:      -8.0      2.620      6.994
  Name = 
  7 active torsions:
  status: ('A' for Active; 'I' for Inactive)
    1  A    between atoms: C_2  and  C_15
    2  A    between atoms: N_6  and  C_15
    3  A    between atoms: N_6  and  N_16
    4  A    between atoms: N_11  and  C_23
    5  A    between atoms: N_11  and  C_27
    6  A    between atoms: C_18  and  C_27
    7  A    between atoms: C_19  and  C_27
                            x       y       z     vdW  Elec       q    Type
                         _______ _______ _______ _____ _____    ______ ____

>  <TORSDO>
F 7

$$$$
=
 OpenBabel11042411593D

 28 30  0  0  1  0  0  0  0  0999 V2000
  189.0310  177.4110  140.6750 N   0  0  0  0  0  2  0  0  0  0  0  0
  189.3970  177.3790  144.8930 C   0  0  0  0  0  0  0  0  0  0  0  0
  188.3700  176.5110  142.8780 C   0  0  0  0  0  3  0  0  0  0  0  0
  190.1760  178.2460  144.1190 C   0  0  0  0  0  3  0  0  0  0  0  0
  188.4970  176.5070  144.2700 C   0  0  0  0  0  3  0  0  0  0  0  0
  189.1480  177.3830  142.1000 C   0  0  0  0  0  0  0  0  0  0  0  0
  190.0480  178.2500  142.7280 C   0  0  0  0  0  3  0  0  0  0  0  0
  189.5490  177.3650  146.3720 C   0  0  0  0  0  2  0  0  0  0  0  0
  188.3540  176.8060  146.9870 N   0  0  0  0  0  2  0  0  0  0  0  0
  185.9390  177.7790  145.8480 O   0  0  0  0  0  0  0  0  0  0  0  0
  187.6550  177.8620  147.5920 N   0  0  0  0  0  0  0  0  0  0  0  0
  186.4440  178.3580  147.0070 C   0  0  0  0  0  0  0  0  0  0  0  0
  188.2570  178.5420  148.7280 C   0  0  0  0  0  1  0  0  0  0  0  0
  185.8260  179.3220  147.5360 O   0  0  0  0  0  1  0  0  0  0  0  0
  188.5080  178.5470  139.9270 C   0  0  2  0  0  3  0  0  0  0  0  0
  186.2830  178.4210  138.9120 N   0  0  0  0  0  0  0  0  0  0  0  0
  185.0340  178.6530  140.8500 C   0  0  0  0  0  0  0  0  0  0  0  0
  183.9380  178.7600  141.7660 N   0  0  0  0  0  0  0  0  0  0  0  0
  182.7170  178.9160  143.7800 C   0  0  0  0  0  2  0  0  0  0  0  0
  182.5500  178.7330  141.3590 C   0  0  0  0  0  2  0  0  0  0  0  0
  181.7510  179.0440  142.6100 C   0  0  0  0  0  2  0  0  0  0  0  0
  184.1140  178.9460  143.1900 C   0  0  0  0  0  2  0  0  0  0  0  0
  187.0120  178.5490  139.9800 C   0  0  0  0  0  0  0  0  0  0  0  0
  184.9620  178.4810  139.4180 C   0  0  0  0  0  0  0  0  0  0  0  0
  183.9240  178.3850  138.7120 O   0  0  0  0  0  0  0  0  0  0  0  0
  186.2740  178.6920  141.2050 N   0  0  0  0  0  0  0  0  0  0  0  0
  190.1190  177.4610  138.3600 C   0  0  0  0  0  1  0  0  0  0  0  0
  188.9860  178.4620  138.4870 C   0  0  0  0  0  2  0  0  0  0  0  0
  1  6  1  0  0  0  0
  2  8  1  0  0  0  0
  3  5  2  0  0  0  0
  4  2  2  0  0  0  0
  5  2  1  0  0  0  0
  6  7  2  0  0  0  0
  6  3  1  0  0  0  0
  7  4  1  0  0  0  0
  8  9  1  0  0  0  0
  9 11  1  0  0  0  0
 10 12  2  0  0  0  0
 11 13  1  0  0  0  0
 12 14  1  0  0  0  0
 12 11  1  0  0  0  0
 15 28  1  6  0  0  0
 15 23  1  0  0  0  0
 15  1  1  0  0  0  0
 16 24  1  0  0  0  0
 16 23  2  0  0  0  0
 17 26  2  0  0  0  0
 17 18  1  0  0  0  0
 18 22  1  0  0  0  0
 20 18  1  0  0  0  0
 20 21  1  0  0  0  0
 21 19  1  0  0  0  0
 22 19  1  0  0  0  0
 23 26  1  0  0  0  0
 24 17  1  0  0  0  0
 25 24  2  0  0  0  0
 27 28  1  0  0  0  0
M  END
>  <MODEL>
5

>  <REMARK>
 VINA RESULT:      -8.0      2.125      6.584
  Name = 
  7 active torsions:
  status: ('A' for Active; 'I' for Inactive)
    1  A    between atoms: C_2  and  C_15
    2  A    between atoms: N_6  and  C_15
    3  A    between atoms: N_6  and  N_16
    4  A    between atoms: N_11  and  C_23
    5  A    between atoms: N_11  and  C_27
    6  A    between atoms: C_18  and  C_27
    7  A    between atoms: C_19  and  C_27
                            x       y       z     vdW  Elec       q    Type
                         _______ _______ _______ _____ _____    ______ ____

>  <TORSDO>
F 7

$$$$
=
 OpenBabel11042411593D

 28 30  0  0  1  0  0  0  0  0999 V2000
  189.0890  177.2530  139.7460 N   0  0  0  0  0  2  0  0  0  0  0  0
  191.1420  176.4700  143.3650 C   0  0  0  0  0  0  0  0  0  0  0  0
  191.1410  177.3670  141.1150 C   0  0  0  0  0  3  0  0  0  0  0  0
  189.7990  176.1100  143.2200 C   0  0  0  0  0  3  0  0  0  0  0  0
  191.8120  177.1050  142.3130 C   0  0  0  0  0  3  0  0  0  0  0  0
  189.7940  177.0020  140.9650 C   0  0  0  0  0  0  0  0  0  0  0  0
  189.1290  176.3700  142.0210 C   0  0  0  0  0  3  0  0  0  0  0  0
  191.8460  176.2070  144.6480 C   0  0  0  0  0  2  0  0  0  0  0  0
  191.6820  177.3420  145.5450 N   0  0  0  0  0  2  0  0  0  0  0  0
  188.9500  178.0260  145.9220 O   0  0  0  0  0  0  0  0  0  0  0  0
  190.9840  176.8920  146.6760 N   0  0  0  0  0  0  0  0  0  0  0  0
  189.6090  177.2510  146.8700 C   0  0  0  0  0  0  0  0  0  0  0  0
  191.7170  176.1920  147.7190 C   0  0  0  0  0  1  0  0  0  0  0  0
  188.9860  176.8670  147.8960 O   0  0  0  0  0  1  0  0  0  0  0  0
  188.5110  178.5440  139.3960 C   0  0  2  0  0  3  0  0  0  0  0  0
  186.1180  178.5010  138.8780 N   0  0  0  0  0  0  0  0  0  0  0  0
  185.3190  178.6810  141.0450 C   0  0  0  0  0  0  0  0  0  0  0  0
  184.4470  178.7740  142.1780 N   0  0  0  0  0  0  0  0  0  0  0  0
  183.6890  178.8740  144.4120 C   0  0  0  0  0  2  0  0  0  0  0  0
  183.0030  178.7900  142.0780 C   0  0  0  0  0  2  0  0  0  0  0  0
  182.5000  179.0670  143.4820 C   0  0  0  0  0  2  0  0  0  0  0  0
  184.9280  178.9010  143.5370 C   0  0  0  0  0  2  0  0  0  0  0  0
  187.0620  178.5730  139.7690 C   0  0  0  0  0  0  0  0  0  0  0  0
  184.9380  178.5670  139.6570 C   0  0  0  0  0  0  0  0  0  0  0  0
  183.7710  178.5180  139.1880 O   0  0  0  0  0  0  0  0  0  0  0  0
  186.6060  178.6820  141.1280 N   0  0  0  0  0  0  0  0  0  0  0  0
  189.4550  177.6420  137.2690 C   0  0  0  0  0  1  0  0  0  0  0  0
  188.6780  178.7800  137.9040 C   0  0  0  0  0  2  0  0  0  0  0  0
  1  6  1  0  0  0  0
  2  8  1  0  0  0  0
  3  5  1  0  0  0  0
  4  2  1  0  0  0  0
  5  2  2  0  0  0  0
  6  3  2  0  0  0  0
  6  7  1  0  0  0  0
  7  4  2  0  0  0  0
  8  9  1  0  0  0  0
  9 11  1  0  0  0  0
 10 12  2  0  0  0  0
 11 12  1  0  0  0  0
 11 13  1  0  0  0  0
 12 14  1  0  0  0  0
 15 28  1  6  0  0  0
 15  1  1  0  0  0  0
 15 23  1  0  0  0  0
 16 24  1  0  0  0  0
 16 23  2  0  0  0  0
 17 26  2  0  0  0  0
 17 18  1  0  0  0  0
 18 22  1  0  0  0  0
 20 18  1  0  0  0  0
 20 21  1  0  0  0  0
 21 19  1  0  0  0  0
 22 19  1  0  0  0  0
 23 26  1  0  0  0  0
 24 17  1  0  0  0  0
 25 24  2  0  0  0  0
 27 28  1  0  0  0  0
M  END
>  <MODEL>
6

>  <REMARK>
 VINA RESULT:      -7.9      2.290      6.292
  Name = 
  7 active torsions:
  status: ('A' for Active; 'I' for Inactive)
    1  A    between atoms: C_2  and  C_15
    2  A    between atoms: N_6  and  C_15
    3  A    between atoms: N_6  and  N_16
    4  A    between atoms: N_11  and  C_23
    5  A    between atoms: N_11  and  C_27
    6  A    between atoms: C_18  and  C_27
    7  A    between atoms: C_19  and  C_27
                            x       y       z     vdW  Elec       q    Type
                         _______ _______ _______ _____ _____    ______ ____

>  <TORSDO>
F 7

$$$$
=
 OpenBabel11042411593D

 28 30  0  0  1  0  0  0  0  0999 V2000
  187.1900  177.4350  145.9870 N   0  0  0  0  0  2  0  0  0  0  0  0
  183.9960  178.6310  143.4780 C   0  0  0  0  0  0  0  0  0  0  0  0
  185.0330  178.5930  145.6670 C   0  0  0  0  0  3  0  0  0  0  0  0
  185.0680  177.8960  142.9600 C   0  0  0  0  0  3  0  0  0  0  0  0
  183.9820  178.9840  144.8320 C   0  0  0  0  0  3  0  0  0  0  0  0
  186.1070  177.8530  145.1510 C   0  0  0  0  0  0  0  0  0  0  0  0
  186.1180  177.5050  143.7960 C   0  0  0  0  0  3  0  0  0  0  0  0
  182.8900  179.0600  142.5820 C   0  0  0  0  0  2  0  0  0  0  0  0
  182.9330  178.2980  141.3420 N   0  0  0  0  0  2  0  0  0  0  0  0
  184.4460  179.7590  139.4320 O   0  0  0  0  0  1  0  0  0  0  0  0
  182.2890  179.0570  140.3540 N   0  0  0  0  0  0  0  0  0  0  0  0
  183.0570  179.8040  139.4000 C   0  0  0  0  0  0  0  0  0  0  0  0
  180.8430  179.1980  140.4080 C   0  0  0  0  0  1  0  0  0  0  0  0
  182.4820  180.5060  138.5250 O   0  0  0  0  0  0  0  0  0  0  0  0
  188.4830  178.1060  146.0330 C   0  0  2  0  0  3  0  0  0  0  0  0
  190.4490  176.9940  145.0880 N   0  0  0  0  0  0  0  0  0  0  0  0
  189.9690  177.3440  142.8480 C   0  0  0  0  0  0  0  0  0  0  0  0
  190.0430  177.3450  141.4180 N   0  0  0  0  0  0  0  0  0  0  0  0
  189.4610  177.6560  139.1510 C   0  0  0  0  0  2  0  0  0  0  0  0
  191.1370  176.7610  140.6730 C   0  0  0  0  0  2  0  0  0  0  0  0
  190.8900  177.1350  139.2240 C   0  0  0  0  0  2  0  0  0  0  0  0
  189.0440  177.9670  140.5750 C   0  0  0  0  0  2  0  0  0  0  0  0
  189.3400  177.6430  144.8970 C   0  0  0  0  0  0  0  0  0  0  0  0
  190.9180  176.7660  143.7710 C   0  0  0  0  0  0  0  0  0  0  0  0
  191.9780  176.1480  143.4890 O   0  0  0  0  0  0  0  0  0  0  0  0
  189.0040  177.8770  143.5180 N   0  0  0  0  0  0  0  0  0  0  0  0
  188.2810  178.2500  148.5160 C   0  0  0  0  0  1  0  0  0  0  0  0
  189.1570  177.8040  147.3610 C   0  0  0  0  0  2  0  0  0  0  0  0
  1 15  1  0  0  0  0
  2  5  1  0  0  0  0
  4  2  2  0  0  0  0
  4  7  1  0  0  0  0
  5  3  2  0  0  0  0
  6  3  1  0  0  0  0
  6  1  1  0  0  0  0
  7  6  2  0  0  0  0
  8  2  1  0  0  0  0
  9  8  1  0  0  0  0
 11 13  1  0  0  0  0
 11  9  1  0  0  0  0
 12 10  1  0  0  0  0
 12 11  1  0  0  0  0
 14 12  2  0  0  0  0
 15 28  1  1  0  0  0
 17 26  2  0  0  0  0
 17 24  1  0  0  0  0
 18 17  1  0  0  0  0
 19 21  1  0  0  0  0
 19 22  1  0  0  0  0
 20 18  1  0  0  0  0
 21 20  1  0  0  0  0
 22 18  1  0  0  0  0
 23 16  2  0  0  0  0
 23 15  1  0  0  0  0
 24 16  1  0  0  0  0
 25 24  2  0  0  0  0
 26 23  1  0  0  0  0
 28 27  1  0  0  0  0
M  END
>  <MODEL>
7

>  <REMARK>
 VINA RESULT:      -7.8      2.605      6.275
  Name = 
  7 active torsions:
  status: ('A' for Active; 'I' for Inactive)
    1  A    between atoms: C_2  and  C_15
    2  A    between atoms: N_6  and  C_15
    3  A    between atoms: N_6  and  N_16
    4  A    between atoms: N_11  and  C_23
    5  A    between atoms: N_11  and  C_27
    6  A    between atoms: C_18  and  C_27
    7  A    between atoms: C_19  and  C_27
                            x       y       z     vdW  Elec       q    Type
                         _______ _______ _______ _____ _____    ______ ____

>  <TORSDO>
F 7

$$$$
=
 OpenBabel11042411593D

 28 30  0  0  1  0  0  0  0  0999 V2000
  184.5810  177.8980  142.0840 N   0  0  0  0  0  2  0  0  0  0  0  0
  182.3750  179.8960  139.0720 C   0  0  0  0  0  0  0  0  0  0  0  0
  184.5070  179.1840  139.9770 C   0  0  0  0  0  3  0  0  0  0  0  0
  181.7180  179.2810  140.1430 C   0  0  0  0  0  3  0  0  0  0  0  0
  183.7720  179.8420  138.9870 C   0  0  0  0  0  3  0  0  0  0  0  0
  183.8490  178.5700  141.0550 C   0  0  0  0  0  0  0  0  0  0  0  0
  182.4540  178.6250  141.1340 C   0  0  0  0  0  3  0  0  0  0  0  0
  181.5880  180.5770  138.0110 C   0  0  0  0  0  2  0  0  0  0  0  0
  181.4860  181.9990  138.3070 N   0  0  0  0  0  2  0  0  0  0  0  0
  182.3450  184.6110  137.5900 O   0  0  0  0  0  1  0  0  0  0  0  0
  180.9650  182.6330  137.1690 N   0  0  0  0  0  0  0  0  0  0  0  0
  181.3910  183.9570  136.8180 C   0  0  0  0  0  0  0  0  0  0  0  0
  179.8780  181.9930  136.4460 C   0  0  0  0  0  1  0  0  0  0  0  0
  180.9070  184.5390  135.8100 O   0  0  0  0  0  0  0  0  0  0  0  0
  185.2750  178.5850  143.1660 C   0  0  2  0  0  3  0  0  0  0  0  0
  187.4170  178.0090  142.1290 N   0  0  0  0  0  0  0  0  0  0  0  0
  188.5950  177.5380  144.0680 C   0  0  0  0  0  0  0  0  0  0  0  0
  189.6370  177.1730  144.9800 N   0  0  0  0  0  0  0  0  0  0  0  0
  190.8120  176.7880  146.9910 C   0  0  0  0  0  2  0  0  0  0  0  0
  190.9640  176.7770  144.5620 C   0  0  0  0  0  2  0  0  0  0  0  0
  191.6710  176.3220  145.8240 C   0  0  0  0  0  2  0  0  0  0  0  0
  189.4510  177.1260  146.4140 C   0  0  0  0  0  2  0  0  0  0  0  0
  186.7080  178.1560  143.2080 C   0  0  0  0  0  0  0  0  0  0  0  0
  188.6770  177.6010  142.6270 C   0  0  0  0  0  0  0  0  0  0  0  0
  189.6820  177.3550  141.9090 O   0  0  0  0  0  0  0  0  0  0  0  0
  187.4050  177.8770  144.4340 N   0  0  0  0  0  0  0  0  0  0  0  0
  183.4000  179.1850  144.7000 C   0  0  0  0  0  1  0  0  0  0  0  0
  184.5880  178.2670  144.4840 C   0  0  0  0  0  2  0  0  0  0  0  0
  1 15  1  0  0  0  0
  2  4  1  0  0  0  0
  3  6  2  0  0  0  0
  4  7  2  0  0  0  0
  5  2  2  0  0  0  0
  5  3  1  0  0  0  0
  6  7  1  0  0  0  0
  6  1  1  0  0  0  0
  8  9  1  0  0  0  0
  8  2  1  0  0  0  0
 11  9  1  0  0  0  0
 12 11  1  0  0  0  0
 12 10  1  0  0  0  0
 13 11  1  0  0  0  0
 14 12  2  0  0  0  0
 15 23  1  0  0  0  0
 15 28  1  1  0  0  0
 16 24  1  0  0  0  0
 16 23  2  0  0  0  0
 17 26  2  0  0  0  0
 17 18  1  0  0  0  0
 18 22  1  0  0  0  0
 20 18  1  0  0  0  0
 20 21  1  0  0  0  0
 21 19  1  0  0  0  0
 22 19  1  0  0  0  0
 23 26  1  0  0  0  0
 24 17  1  0  0  0  0
 25 24  2  0  0  0  0
 28 27  1  0  0  0  0
M  END
>  <MODEL>
8

>  <REMARK>
 VINA RESULT:      -7.7      4.429      7.777
  Name = 
  7 active torsions:
  status: ('A' for Active; 'I' for Inactive)
    1  A    between atoms: C_2  and  C_15
    2  A    between atoms: N_6  and  C_15
    3  A    between atoms: N_6  and  N_16
    4  A    between atoms: N_11  and  C_23
    5  A    between atoms: N_11  and  C_27
    6  A    between atoms: C_18  and  C_27
    7  A    between atoms: C_19  and  C_27
                            x       y       z     vdW  Elec       q    Type
                         _______ _______ _______ _____ _____    ______ ____

>  <TORSDO>
F 7

$$$$
=
 OpenBabel11042411593D

 28 30  0  0  1  0  0  0  0  0999 V2000
  188.3480  177.2980  144.2890 N   0  0  0  0  0  2  0  0  0  0  0  0
  184.3370  178.6230  144.5950 C   0  0  0  0  0  0  0  0  0  0  0  0
  186.1920  177.8710  143.2290 C   0  0  0  0  0  3  0  0  0  0  0  0
  185.1290  178.4870  145.7400 C   0  0  0  0  0  3  0  0  0  0  0  0
  184.8690  178.3090  143.3390 C   0  0  0  0  0  3  0  0  0  0  0  0
  186.9890  177.7380  144.3770 C   0  0  0  0  0  0  0  0  0  0  0  0
  186.4520  178.0500  145.6300 C   0  0  0  0  0  3  0  0  0  0  0  0
  182.9250  179.0710  144.7190 C   0  0  0  0  0  2  0  0  0  0  0  0
  182.4760  179.6460  143.4590 N   0  0  0  0  0  2  0  0  0  0  0  0
  182.1090  179.0130  140.7140 O   0  0  0  0  0  0  0  0  0  0  0  0
  181.3500  178.9240  143.0400 N   0  0  0  0  0  0  0  0  0  0  0  0
  181.1610  178.6170  141.6510 C   0  0  0  0  0  0  0  0  0  0  0  0
  180.3050  178.6280  144.0080 C   0  0  0  0  0  1  0  0  0  0  0  0
  180.1380  177.9880  141.2680 O   0  0  0  0  0  1  0  0  0  0  0  0
  189.4060  178.0630  143.6430 C   0  0  2  0  0  3  0  0  0  0  0  0
  190.5550  176.9180  141.8080 N   0  0  0  0  0  0  0  0  0  0  0  0
  189.0570  177.4370  140.1190 C   0  0  0  0  0  0  0  0  0  0  0  0
  188.4120  177.5270  138.8430 N   0  0  0  0  0  0  0  0  0  0  0  0
  186.8090  178.0150  137.1790 C   0  0  0  0  0  2  0  0  0  0  0  0
  188.9450  176.9390  137.6330 C   0  0  0  0  0  2  0  0  0  0  0  0
  188.0420  177.4190  136.5130 C   0  0  0  0  0  2  0  0  0  0  0  0
  187.1770  178.2530  138.6310 C   0  0  0  0  0  2  0  0  0  0  0  0
  189.5490  177.6330  142.2160 C   0  0  0  0  0  0  0  0  0  0  0  0
  190.2910  176.7530  140.4270 C   0  0  0  0  0  0  0  0  0  0  0  0
  191.0210  176.1030  139.6350 O   0  0  0  0  0  0  0  0  0  0  0  0
  188.5930  177.9730  141.1970 N   0  0  0  0  0  0  0  0  0  0  0  0
  190.4440  177.2500  145.7610 C   0  0  0  0  0  1  0  0  0  0  0  0
  190.7100  177.8490  144.3930 C   0  0  0  0  0  2  0  0  0  0  0  0
  1  6  1  0  0  0  0
  2  8  1  0  0  0  0
  2  4  1  0  0  0  0
  3  5  1  0  0  0  0
  3  6  2  0  0  0  0
  5  2  2  0  0  0  0
  6  7  1  0  0  0  0
  7  4  2  0  0  0  0
  9  8  1  0  0  0  0
 10 12  2  0  0  0  0
 11  9  1  0  0  0  0
 11 13  1  0  0  0  0
 12 11  1  0  0  0  0
 14 12  1  0  0  0  0
 15  1  1  0  0  0  0
 15 28  1  1  0  0  0
 16 23  2  0  0  0  0
 17 24  1  0  0  0  0
 17 26  2  0  0  0  0
 18 17  1  0  0  0  0
 19 22  1  0  0  0  0
 20 18  1  0  0  0  0
 21 19  1  0  0  0  0
 21 20  1  0  0  0  0
 22 18  1  0  0  0  0
 23 15  1  0  0  0  0
 24 16  1  0  0  0  0
 25 24  2  0  0  0  0
 26 23  1  0  0  0  0
 28 27  1  0  0  0  0
M  END
>  <MODEL>
9

>  <REMARK>
 VINA RESULT:      -7.7      2.767      7.160
  Name = 
  7 active torsions:
  status: ('A' for Active; 'I' for Inactive)
    1  A    between atoms: C_2  and  C_15
    2  A    between atoms: N_6  and  C_15
    3  A    between atoms: N_6  and  N_16
    4  A    between atoms: N_11  and  C_23
    5  A    between atoms: N_11  and  C_27
    6  A    between atoms: C_18  and  C_27
    7  A    between atoms: C_19  and  C_27
                            x       y       z     vdW  Elec       q    Type
                         _______ _______ _______ _____ _____    ______ ____

>  <TORSDO>
F 7

$$$$
