=
 OpenBabel11032420573D

 47 52  0  0  1  0  0  0  0  0999 V2000
  189.6390  176.3880  142.6980 C   0  0  0  0  0  2  0  0  0  0  0  0
  190.1230  177.7760  143.1360 C   0  0  1  0  0  3  0  0  0  0  0  0
  186.6900  174.7130  136.1160 S   0  0  0  0  0  0  0  0  0  0  0  0
  187.4230  173.5960  135.0270 N   0  0  0  0  0  0  0  0  0  0  0  0
  192.1210  175.2130  136.2880 N   0  0  0  0  0  0  0  0  0  0  0  0
  187.7360  177.2410  136.5050 C   0  0  0  0  0  2  0  0  0  0  0  0
  188.6400  173.6520  134.5960 C   0  0  0  0  0  3  0  0  0  0  0  0
  189.8120  174.8050  136.3450 O   0  0  0  0  0  0  0  0  0  0  0  0
  193.4010  175.5920  136.9080 C   0  0  1  0  0  3  0  0  0  0  0  0
  189.4200  176.4740  140.2060 C   0  0  2  0  0  3  0  0  0  0  0  0
  190.9200  175.8950  138.2630 C   0  0  0  0  0  0  0  0  0  0  0  0
  187.2910  174.5410  137.4840 O   0  0  0  0  0  0  0  0  0  0  0  0
  186.8790  176.4070  135.5350 C   0  0  2  0  0  3  0  0  0  0  0  0
  184.8760  177.6100  136.3430 C   0  0  0  0  0  3  0  0  0  0  0  0
  189.6310  174.7220  134.9410 C   0  0  0  0  0  2  0  0  0  0  0  0
  185.4480  177.5640  137.7340 C   0  0  0  0  0  2  0  0  0  0  0  0
  186.9410  177.7490  137.6980 C   0  0  0  0  0  0  0  0  0  0  0  0
  189.5590  178.0010  140.0560 C   0  0  2  0  0  3  0  0  0  0  0  0
  190.2460  175.9400  141.3740 C   0  0  0  0  0  2  0  0  0  0  0  0
  189.0120  178.6590  141.1640 O   0  0  0  0  0  0  0  0  0  0  0  0
  193.1830  176.7900  137.8510 C   0  0  0  0  0  2  0  0  0  0  0  0
  190.0940  178.8450  142.0340 C   0  0  0  0  0  2  0  0  0  0  0  0
  191.9790  176.5710  138.7250 C   0  0  0  0  0  3  0  0  0  0  0  0
  189.7310  175.7730  138.9990 O   0  0  0  0  0  0  0  0  0  0  0  0
  190.9840  175.2890  136.9210 C   0  0  0  0  0  0  0  0  0  0  0  0
  187.5220  178.2930  138.7120 N   0  0  0  0  0  0  0  0  0  0  0  0
  185.5410  177.0670  135.3140 C   0  0  0  0  0  3  0  0  0  0  0  0
  185.2270  174.3750  136.2020 O   0  0  0  0  0  0  0  0  0  0  0  0
  188.9460  178.5290  138.7600 C   0  0  0  0  0  2  0  0  0  0  0  0
  196.0440  173.6300  138.7310 C   0  0  0  0  0  2  0  0  0  0  0  0
  195.2950  174.8460  138.1580 C   0  0  0  0  0  2  0  0  0  0  0  0
  193.9760  174.4530  137.6370 N   0  0  0  0  0  0  0  0  0  0  0  0
  194.1730  173.3380  136.6990 C   0  0  0  0  0  2  0  0  0  0  0  0
  194.9540  172.1920  137.3640 C   0  0  0  0  0  2  0  0  0  0  0  0
  195.2260  172.4830  138.7160 O   0  0  0  0  0  0  0  0  0  0  0  0
  189.8340  179.1120  145.1060 O   0  0  0  0  0  0  0  0  0  0  0  0
  186.8510  177.5150  145.4380 C   0  0  2  0  0  0  0  0  0  0  0  0
  189.3690  178.2180  144.3470 C   0  0  0  0  0  0  0  0  0  0  0  0
  188.0890  177.6590  144.6190 N   0  0  0  0  0  0  0  0  0  0  0  0
  186.9430  176.7550  144.2880 C   0  0  0  0  0  2  0  0  0  0  0  0
  186.0130  178.7610  145.3940 C   0  0  0  0  0  0  0  0  0  0  0  0
  185.3100  179.1500  144.1350 C   0  0  0  0  0  1  0  0  0  0  0  0
  185.9300  179.4800  146.3780 O   0  0  0  0  0  0  0  0  0  0  0  0
  187.1450  176.8330  146.7750 C   0  0  0  0  0  2  0  0  0  0  0  0
  187.8750  177.7590  148.8810 O   0  0  0  0  0  1  0  0  0  0  0  0
  189.5340  176.6310  147.5770 C   0  0  0  0  0  1  0  0  0  0  0  0
  188.2780  177.4830  147.5730 C   0  0  1  0  0  3  0  0  0  0  0  0
  1  2  1  0  0  0  0
  2 38  1  1  0  0  0
  3 28  2  0  0  0  0
  3 12  2  0  0  0  0
  4  3  1  0  0  0  0
  5  9  1  0  0  0  0
  5 25  2  0  0  0  0
  6 17  1  0  0  0  0
  7 15  1  0  0  0  0
  7  4  2  0  0  0  0
  8 25  1  0  0  0  0
  9 32  1  1  0  0  0
  9 21  1  0  0  0  0
 10 19  1  1  0  0  0
 11 23  2  0  0  0  0
 11 24  1  0  0  0  0
 13 27  1  1  0  0  0
 13  3  1  0  0  0  0
 13  6  1  0  0  0  0
 14 16  1  0  0  0  0
 15  8  1  0  0  0  0
 17 16  1  0  0  0  0
 17 26  2  0  0  0  0
 18 29  1  6  0  0  0
 18 10  1  0  0  0  0
 18 20  1  0  0  0  0
 19  1  1  0  0  0  0
 20 22  1  0  0  0  0
 21 23  1  0  0  0  0
 22  2  1  0  0  0  0
 24 10  1  0  0  0  0
 25 11  1  0  0  0  0
 26 29  1  0  0  0  0
 27 14  2  0  0  0  0
 31 30  1  0  0  0  0
 32 31  1  0  0  0  0
 33 34  1  0  0  0  0
 33 32  1  0  0  0  0
 34 35  1  0  0  0  0
 35 30  1  0  0  0  0
 37 44  1  1  0  0  0
 38 39  1  0  0  0  0
 38 36  2  0  0  0  0
 39 37  1  0  0  0  0
 40 39  1  0  0  0  0
 40 37  1  0  0  0  0
 41 37  1  0  0  0  0
 41 43  2  0  0  0  0
 42 41  1  0  0  0  0
 44 47  1  0  0  0  0
 47 46  1  1  0  0  0
 47 45  1  0  0  0  0
M  END
>  <MODEL>
1

>  <REMARK>
 VINA RESULT:      -7.3      0.000      0.000
  Name = 
  5 active torsions:
  status: ('A' for Active; 'I' for Inactive)
    1  A    between atoms: C_4  and  C_18
    2  A    between atoms: C_5  and  C_11
    3  A    between atoms: C_11  and  C_36
    4  A    between atoms: C_16  and  N_29
    5  A    between atoms: C_36  and  C_47
                            x       y       z     vdW  Elec       q    Type
                         _______ _______ _______ _____ _____    ______ ____

>  <TORSDO>
F 5

$$$$
=
 OpenBabel11032420573D

 47 52  0  0  1  0  0  0  0  0999 V2000
  191.2390  173.7520  137.1460 C   0  0  0  0  0  2  0  0  0  0  0  0
  192.2230  174.3820  136.1530 C   0  0  1  0  0  3  0  0  0  0  0  0
  188.6790  176.9500  143.3140 S   0  0  0  0  0  0  0  0  0  0  0  0
  187.0070  177.2930  143.5570 N   0  0  0  0  0  0  0  0  0  0  0  0
  186.3840  178.5350  138.6230 N   0  0  0  0  0  0  0  0  0  0  0  0
  190.2160  178.4490  141.5730 C   0  0  0  0  0  2  0  0  0  0  0  0
  186.2520  177.9690  142.7560 C   0  0  0  0  0  3  0  0  0  0  0  0
  187.2680  177.6450  140.6050 O   0  0  0  0  0  0  0  0  0  0  0  0
  186.2850  178.6280  137.1580 C   0  0  1  0  0  3  0  0  0  0  0  0
  190.3580  175.6290  138.5470 C   0  0  2  0  0  3  0  0  0  0  0  0
  188.3410  177.1400  138.4410 C   0  0  0  0  0  0  0  0  0  0  0  0
  188.8270  175.9700  142.1830 O   0  0  0  0  0  0  0  0  0  0  0  0
  189.6100  178.4570  142.9890 C   0  0  2  0  0  3  0  0  0  0  0  0
  191.8690  178.0490  143.9070 C   0  0  0  0  0  3  0  0  0  0  0  0
  186.7020  178.6090  141.4780 C   0  0  0  0  0  2  0  0  0  0  0  0
  192.1350  177.1190  142.7540 C   0  0  0  0  0  2  0  0  0  0  0  0
  191.5050  177.6460  141.4940 C   0  0  0  0  0  0  0  0  0  0  0  0
  191.3710  176.6970  138.0940 C   0  0  2  0  0  3  0  0  0  0  0  0
  190.0340  174.6410  137.4300 C   0  0  0  0  0  2  0  0  0  0  0  0
  192.6120  176.1130  137.8120 O   0  0  0  0  0  0  0  0  0  0  0  0
  187.6960  178.5790  136.5410 C   0  0  0  0  0  2  0  0  0  0  0  0
  192.5750  175.8490  136.4370 C   0  0  0  0  0  2  0  0  0  0  0  0
  188.5100  177.4730  137.1550 C   0  0  0  0  0  3  0  0  0  0  0  0
  189.1620  176.2010  139.0840 O   0  0  0  0  0  0  0  0  0  0  0  0
  187.2850  177.8060  139.2220 C   0  0  0  0  0  0  0  0  0  0  0  0
  192.0500  177.3570  140.3620 N   0  0  0  0  0  0  0  0  0  0  0  0
  190.6880  178.6730  144.0210 C   0  0  0  0  0  3  0  0  0  0  0  0
  189.2000  176.3010  144.5660 O   0  0  0  0  0  0  0  0  0  0  0  0
  191.5280  177.8340  139.1020 C   0  0  0  0  0  2  0  0  0  0  0  0
  184.2810  176.7380  134.5940 C   0  0  0  0  0  2  0  0  0  0  0  0
  185.3290  177.7060  135.1720 C   0  0  0  0  0  2  0  0  0  0  0  0
  185.4480  177.5420  136.6290 N   0  0  0  0  0  0  0  0  0  0  0  0
  184.1010  177.6530  137.2100 C   0  0  0  0  0  2  0  0  0  0  0  0
  183.1310  176.6640  136.5420 C   0  0  0  0  0  2  0  0  0  0  0  0
  183.7970  175.8670  135.5900 O   0  0  0  0  0  0  0  0  0  0  0  0
  193.7180  172.9160  134.9830 O   0  0  0  0  0  0  0  0  0  0  0  0
  195.5870  172.9780  137.8220 C   0  0  2  0  0  0  0  0  0  0  0  0
  193.4500  173.5370  136.0480 C   0  0  0  0  0  0  0  0  0  0  0  0
  194.3520  173.4700  137.1480 N   0  0  0  0  0  0  0  0  0  0  0  0
  194.7870  173.8580  138.5260 C   0  0  0  0  0  2  0  0  0  0  0  0
  196.8260  173.5210  137.1700 C   0  0  0  0  0  0  0  0  0  0  0  0
  196.7460  174.7230  136.2870 C   0  0  0  0  0  1  0  0  0  0  0  0
  197.9000  172.9610  137.3310 O   0  0  0  0  0  0  0  0  0  0  0  0
  195.4830  171.4890  138.1560 C   0  0  0  0  0  2  0  0  0  0  0  0
  196.5830  169.6820  136.9940 O   0  0  0  0  0  1  0  0  0  0  0  0
  194.2060  169.8120  136.7600 C   0  0  0  0  0  1  0  0  0  0  0  0
  195.5090  170.5710  136.9310 C   0  0  1  0  0  3  0  0  0  0  0  0
  1 19  1  0  0  0  0
  2 38  1  1  0  0  0
  2 22  1  0  0  0  0
  2  1  1  0  0  0  0
  3  4  1  0  0  0  0
  3 28  2  0  0  0  0
  5 25  2  0  0  0  0
  7  4  2  0  0  0  0
  8 15  1  0  0  0  0
  9 21  1  6  0  0  0
  9  5  1  0  0  0  0
 10 19  1  6  0  0  0
 10 24  1  0  0  0  0
 11 24  1  0  0  0  0
 11 25  1  0  0  0  0
 12  3  2  0  0  0  0
 13  6  1  6  0  0  0
 13  3  1  0  0  0  0
 13 27  1  0  0  0  0
 14 27  2  0  0  0  0
 15  7  1  0  0  0  0
 16 14  1  0  0  0  0
 17  6  1  0  0  0  0
 17 16  1  0  0  0  0
 18 10  1  0  0  0  0
 18 29  1  1  0  0  0
 20 18  1  0  0  0  0
 21 23  1  0  0  0  0
 22 20  1  0  0  0  0
 23 11  2  0  0  0  0
 25  8  1  0  0  0  0
 26 17  2  0  0  0  0
 29 26  1  0  0  0  0
 30 31  1  0  0  0  0
 30 35  1  0  0  0  0
 31 32  1  0  0  0  0
 32  9  1  0  0  0  0
 32 33  1  0  0  0  0
 34 33  1  0  0  0  0
 35 34  1  0  0  0  0
 36 38  2  0  0  0  0
 37 44  1  1  0  0  0
 37 40  1  0  0  0  0
 38 39  1  0  0  0  0
 39 37  1  0  0  0  0
 39 40  1  0  0  0  0
 41 43  2  0  0  0  0
 41 37  1  0  0  0  0
 42 41  1  0  0  0  0
 47 46  1  1  0  0  0
 47 45  1  0  0  0  0
 47 44  1  0  0  0  0
M  END
>  <MODEL>
2

>  <REMARK>
 VINA RESULT:      -6.2      2.655      9.548
  Name = 
  5 active torsions:
  status: ('A' for Active; 'I' for Inactive)
    1  A    between atoms: C_4  and  C_18
    2  A    between atoms: C_5  and  C_11
    3  A    between atoms: C_11  and  C_36
    4  A    between atoms: C_16  and  N_29
    5  A    between atoms: C_36  and  C_47
                            x       y       z     vdW  Elec       q    Type
                         _______ _______ _______ _____ _____    ______ ____

>  <TORSDO>
F 5

$$$$
=
 OpenBabel11032420573D

 47 52  0  0  1  0  0  0  0  0999 V2000
  185.3960  178.9560  140.5850 C   0  0  0  0  0  2  0  0  0  0  0  0
  185.1990  179.0840  142.1000 C   0  0  1  0  0  3  0  0  0  0  0  0
  180.6980  175.7100  135.8700 S   0  0  0  0  0  0  0  0  0  0  0  0
  179.9220  176.5690  134.5940 N   0  0  0  0  0  0  0  0  0  0  0  0
  179.3950  180.7470  137.5170 N   0  0  0  0  0  0  0  0  0  0  0  0
  179.9290  176.0420  138.5040 C   0  0  0  0  0  2  0  0  0  0  0  0
  179.2230  177.6480  134.7270 C   0  0  0  0  0  3  0  0  0  0  0  0
  180.1350  178.6790  136.6940 O   0  0  0  0  0  0  0  0  0  0  0  0
  179.5230  181.9410  138.3680 C   0  0  1  0  0  3  0  0  0  0  0  0
  183.1560  178.3750  139.6320 C   0  0  2  0  0  3  0  0  0  0  0  0
  181.2370  179.6900  138.6570 C   0  0  0  0  0  0  0  0  0  0  0  0
  181.8570  176.5200  136.3830 O   0  0  0  0  0  0  0  0  0  0  0  0
  179.5400  175.3290  137.1960 C   0  0  2  0  0  3  0  0  0  0  0  0
  180.3310  173.2010  138.1750 C   0  0  0  0  0  3  0  0  0  0  0  0
  178.9320  178.3340  136.0270 C   0  0  0  0  0  2  0  0  0  0  0  0
  181.4750  173.9520  138.8020 C   0  0  0  0  0  2  0  0  0  0  0  0
  181.0240  175.3110  139.2650 C   0  0  0  0  0  0  0  0  0  0  0  0
  182.4580  178.0540  140.9670 C   0  0  2  0  0  3  0  0  0  0  0  0
  184.2050  179.4730  139.7870 C   0  0  0  0  0  2  0  0  0  0  0  0
  183.3660  177.5040  141.8800 O   0  0  0  0  0  0  0  0  0  0  0  0
  180.0170  181.5270  139.7670 C   0  0  0  0  0  2  0  0  0  0  0  0
  183.8350  178.6000  142.6150 C   0  0  0  0  0  2  0  0  0  0  0  0
  181.1710  180.5690  139.6660 C   0  0  0  0  0  3  0  0  0  0  0  0
  182.2290  178.6990  138.5920 O   0  0  0  0  0  0  0  0  0  0  0  0
  180.2130  179.7340  137.5990 C   0  0  0  0  0  0  0  0  0  0  0  0
  181.6200  175.8510  140.2730 N   0  0  0  0  0  0  0  0  0  0  0  0
  179.4280  173.8420  137.4200 C   0  0  0  0  0  3  0  0  0  0  0  0
  181.2400  174.4290  135.2980 O   0  0  0  0  0  0  0  0  0  0  0  0
  181.2440  177.1420  140.7990 C   0  0  0  0  0  2  0  0  0  0  0  0
  180.8230  185.3330  137.3880 C   0  0  0  0  0  2  0  0  0  0  0  0
  180.0450  184.2640  138.1740 C   0  0  0  0  0  2  0  0  0  0  0  0
  180.4430  182.9110  137.7570 N   0  0  0  0  0  0  0  0  0  0  0  0
  180.3170  182.8310  136.2940 C   0  0  0  0  0  2  0  0  0  0  0  0
  181.1090  183.9590  135.6120 C   0  0  0  0  0  2  0  0  0  0  0  0
  181.7980  184.7390  136.5610 O   0  0  0  0  0  0  0  0  0  0  0  0
  186.1080  177.7180  143.8480 O   0  0  0  0  0  0  0  0  0  0  0  0
  189.1110  178.2460  142.3440 C   0  0  2  0  0  0  0  0  0  0  0  0
  186.3230  178.4120  142.8180 C   0  0  0  0  0  0  0  0  0  0  0  0
  187.6460  178.5200  142.3040 N   0  0  0  0  0  0  0  0  0  0  0  0
  188.6360  178.9990  141.2890 C   0  0  0  0  0  2  0  0  0  0  0  0
  189.4080  176.7940  142.0970 C   0  0  0  0  0  0  0  0  0  0  0  0
  190.2900  176.3910  140.9610 C   0  0  0  0  0  1  0  0  0  0  0  0
  188.9020  175.9350  142.8020 O   0  0  0  0  0  0  0  0  0  0  0  0
  189.7820  178.9810  143.5060 C   0  0  0  0  0  2  0  0  0  0  0  0
  192.0470  179.2170  144.3080 O   0  0  0  0  0  1  0  0  0  0  0  0
  190.7490  177.4550  145.2760 C   0  0  0  0  0  1  0  0  0  0  0  0
  191.0390  178.2890  144.0400 C   0  0  1  0  0  3  0  0  0  0  0  0
  1  2  1  0  0  0  0
  2 22  1  0  0  0  0
  2 38  1  1  0  0  0
  3 12  2  0  0  0  0
  3 13  1  0  0  0  0
  4  7  2  0  0  0  0
  4  3  1  0  0  0  0
  5 25  2  0  0  0  0
  5  9  1  0  0  0  0
  6 17  1  0  0  0  0
  7 15  1  0  0  0  0
  8 25  1  0  0  0  0
  9 32  1  6  0  0  0
  9 21  1  0  0  0  0
 10 19  1  1  0  0  0
 10 18  1  0  0  0  0
 11 23  2  0  0  0  0
 13 27  1  1  0  0  0
 13  6  1  0  0  0  0
 14 16  1  0  0  0  0
 15  8  1  0  0  0  0
 16 17  1  0  0  0  0
 17 26  2  0  0  0  0
 18 29  1  6  0  0  0
 18 20  1  0  0  0  0
 19  1  1  0  0  0  0
 20 22  1  0  0  0  0
 23 21  1  0  0  0  0
 24 11  1  0  0  0  0
 24 10  1  0  0  0  0
 25 11  1  0  0  0  0
 26 29  1  0  0  0  0
 27 14  2  0  0  0  0
 28  3  2  0  0  0  0
 30 31  1  0  0  0  0
 32 31  1  0  0  0  0
 33 32  1  0  0  0  0
 34 33  1  0  0  0  0
 34 35  1  0  0  0  0
 35 30  1  0  0  0  0
 37 44  1  1  0  0  0
 38 36  2  0  0  0  0
 39 37  1  0  0  0  0
 39 38  1  0  0  0  0
 40 39  1  0  0  0  0
 40 37  1  0  0  0  0
 41 37  1  0  0  0  0
 41 43  2  0  0  0  0
 42 41  1  0  0  0  0
 44 47  1  0  0  0  0
 47 45  1  0  0  0  0
 47 46  1  1  0  0  0
M  END
>  <MODEL>
3

>  <REMARK>
 VINA RESULT:      -5.9      5.438      9.679
  Name = 
  5 active torsions:
  status: ('A' for Active; 'I' for Inactive)
    1  A    between atoms: C_4  and  C_18
    2  A    between atoms: C_5  and  C_11
    3  A    between atoms: C_11  and  C_36
    4  A    between atoms: C_16  and  N_29
    5  A    between atoms: C_36  and  C_47
                            x       y       z     vdW  Elec       q    Type
                         _______ _______ _______ _____ _____    ______ ____

>  <TORSDO>
F 5

$$$$
=
 OpenBabel11032420573D

 47 52  0  0  1  0  0  0  0  0999 V2000
  189.7170  176.5420  141.3680 C   0  0  0  0  0  2  0  0  0  0  0  0
  189.7860  178.0710  141.2890 C   0  0  1  0  0  3  0  0  0  0  0  0
  187.3560  172.0310  135.9920 S   0  0  0  0  0  0  0  0  0  0  0  0
  188.3760  170.8540  135.2520 N   0  0  0  0  0  0  0  0  0  0  0  0
  192.4190  173.9980  135.4640 N   0  0  0  0  0  0  0  0  0  0  0  0
  187.6370  174.7250  135.4460 C   0  0  0  0  0  2  0  0  0  0  0  0
  189.5250  171.0870  134.7100 C   0  0  0  0  0  3  0  0  0  0  0  0
  190.3230  173.0290  135.8740 O   0  0  0  0  0  0  0  0  0  0  0  0
  193.5380  174.8920  135.8010 C   0  0  1  0  0  3  0  0  0  0  0  0
  189.4780  175.7260  139.0150 C   0  0  2  0  0  3  0  0  0  0  0  0
  191.0770  174.9530  137.2230 C   0  0  0  0  0  0  0  0  0  0  0  0
  187.9840  172.4960  137.2770 O   0  0  0  0  0  0  0  0  0  0  0  0
  187.0520  173.4170  134.8830 C   0  0  2  0  0  3  0  0  0  0  0  0
  184.7900  174.2370  135.4540 C   0  0  0  0  0  3  0  0  0  0  0  0
  190.1690  172.4350  134.5950 C   0  0  0  0  0  2  0  0  0  0  0  0
  185.3550  174.8150  136.7230 C   0  0  0  0  0  2  0  0  0  0  0  0
  186.7330  175.3710  136.4840 C   0  0  0  0  0  0  0  0  0  0  0  0
  189.1750  177.0910  138.3700 C   0  0  2  0  0  3  0  0  0  0  0  0
  190.4240  175.8550  140.2050 C   0  0  0  0  0  2  0  0  0  0  0  0
  188.4650  177.9100  139.2570 O   0  0  0  0  0  0  0  0  0  0  0  0
  192.9890  176.2320  136.3270 C   0  0  0  0  0  2  0  0  0  0  0  0
  189.4500  178.6600  139.9110 C   0  0  0  0  0  2  0  0  0  0  0  0
  191.9000  176.0030  137.3380 C   0  0  0  0  0  3  0  0  0  0  0  0
  189.9730  174.7710  138.0720 O   0  0  0  0  0  0  0  0  0  0  0  0
  191.3080  173.9740  136.1470 C   0  0  0  0  0  0  0  0  0  0  0  0
  187.1360  176.3570  137.2090 N   0  0  0  0  0  0  0  0  0  0  0  0
  185.5810  173.5800  134.5940 C   0  0  0  0  0  3  0  0  0  0  0  0
  186.0510  171.3620  136.3250 O   0  0  0  0  0  0  0  0  0  0  0  0
  188.4340  176.9690  137.0390 C   0  0  0  0  0  2  0  0  0  0  0  0
  196.7410  174.2230  137.6600 C   0  0  0  0  0  2  0  0  0  0  0  0
  195.7030  174.9740  136.8070 C   0  0  0  0  0  2  0  0  0  0  0  0
  194.4170  174.2620  136.7970 N   0  0  0  0  0  0  0  0  0  0  0  0
  194.6700  172.8710  136.3960 C   0  0  0  0  0  2  0  0  0  0  0  0
  195.7400  172.2270  137.2940 C   0  0  0  0  0  2  0  0  0  0  0  0
  196.1550  173.1160  138.3050 O   0  0  0  0  0  0  0  0  0  0  0  0
  188.7110  179.9150  142.3820 O   0  0  0  0  0  0  0  0  0  0  0  0
  187.5150  177.5920  144.5570 C   0  0  2  0  0  0  0  0  0  0  0  0
  188.9390  178.6740  142.3610 C   0  0  0  0  0  0  0  0  0  0  0  0
  188.3450  177.8320  143.3420 N   0  0  0  0  0  0  0  0  0  0  0  0
  188.0710  176.4880  143.9410 C   0  0  0  0  0  2  0  0  0  0  0  0
  186.0640  177.8850  144.3020 C   0  0  0  0  0  0  0  0  0  0  0  0
  185.1930  178.3860  145.4070 C   0  0  0  0  0  1  0  0  0  0  0  0
  185.5820  177.6820  143.1980 O   0  0  0  0  0  0  0  0  0  0  0  0
  188.1990  178.1330  145.8140 C   0  0  0  0  0  2  0  0  0  0  0  0
  190.0160  176.8110  146.6950 O   0  0  0  0  0  1  0  0  0  0  0  0
  188.2780  177.3950  148.2310 C   0  0  0  0  0  1  0  0  0  0  0  0
  188.6450  177.0500  146.7990 C   0  0  1  0  0  3  0  0  0  0  0  0
  2  1  1  0  0  0  0
  2 38  1  1  0  0  0
  3 28  2  0  0  0  0
  3 12  2  0  0  0  0
  4  3  1  0  0  0  0
  5  9  1  0  0  0  0
  5 25  2  0  0  0  0
  6 17  1  0  0  0  0
  7  4  2  0  0  0  0
  8 25  1  0  0  0  0
  9 21  1  1  0  0  0
  9 32  1  0  0  0  0
 10 19  1  1  0  0  0
 11 23  2  0  0  0  0
 11 24  1  0  0  0  0
 13 27  1  1  0  0  0
 13  6  1  0  0  0  0
 13  3  1  0  0  0  0
 14 16  1  0  0  0  0
 15  7  1  0  0  0  0
 15  8  1  0  0  0  0
 17 16  1  0  0  0  0
 17 26  2  0  0  0  0
 18 29  1  6  0  0  0
 18 10  1  0  0  0  0
 18 20  1  0  0  0  0
 19  1  1  0  0  0  0
 20 22  1  0  0  0  0
 21 23  1  0  0  0  0
 22  2  1  0  0  0  0
 24 10  1  0  0  0  0
 25 11  1  0  0  0  0
 27 14  2  0  0  0  0
 29 26  1  0  0  0  0
 30 35  1  0  0  0  0
 31 30  1  0  0  0  0
 32 31  1  0  0  0  0
 33 32  1  0  0  0  0
 33 34  1  0  0  0  0
 34 35  1  0  0  0  0
 37 44  1  1  0  0  0
 38 36  2  0  0  0  0
 38 39  1  0  0  0  0
 39 40  1  0  0  0  0
 39 37  1  0  0  0  0
 40 37  1  0  0  0  0
 41 37  1  0  0  0  0
 41 42  1  0  0  0  0
 43 41  2  0  0  0  0
 44 47  1  0  0  0  0
 45 47  1  0  0  0  0
 47 46  1  1  0  0  0
M  END
>  <MODEL>
4

>  <REMARK>
 VINA RESULT:      -5.0      1.808      2.137
  Name = 
  5 active torsions:
  status: ('A' for Active; 'I' for Inactive)
    1  A    between atoms: C_4  and  C_18
    2  A    between atoms: C_5  and  C_11
    3  A    between atoms: C_11  and  C_36
    4  A    between atoms: C_16  and  N_29
    5  A    between atoms: C_36  and  C_47
                            x       y       z     vdW  Elec       q    Type
                         _______ _______ _______ _____ _____    ______ ____

>  <TORSDO>
F 5

$$$$
