=
 OpenBabel11032420523D

 44 50  0  0  1  0  0  0  0  0999 V2000
  186.1650  177.1280  144.2660 C   0  0  0  0  0  2  0  0  0  0  0  0
  186.5740  178.2250  146.9260 O   0  0  0  0  0  0  0  0  0  0  0  0
  188.9540  177.8770  146.7440 C   0  0  0  0  0  0  0  0  0  0  0  0
  185.3960  178.4270  144.1370 C   0  0  2  0  0  3  0  0  0  0  0  0
  187.6800  177.8190  146.1670 C   0  0  0  0  0  0  0  0  0  0  0  0
  184.6960  178.7170  145.4560 C   0  0  0  0  0  2  0  0  0  0  0  0
  190.0750  177.5190  146.0030 C   0  0  0  0  0  3  0  0  0  0  0  0
  189.1390  178.3480  148.1450 C   0  0  0  0  0  1  0  0  0  0  0  0
  187.5340  177.3470  144.8460 C   0  0  0  0  0  0  0  0  0  0  0  0
  189.9660  177.0790  144.6790 C   0  0  0  0  0  0  0  0  0  0  0  0
  185.6810  179.2430  146.4870 C   0  0  0  0  0  2  0  0  0  0  0  0
  188.6760  176.9820  144.0950 C   0  0  0  0  0  0  0  0  0  0  0  0
  191.5780  175.5240  143.8230 O   0  0  0  0  0  1  0  0  0  0  0  0
  191.2240  176.7230  143.9760 C   0  0  0  0  0  0  0  0  0  0  0  0
  192.0420  177.7270  143.4700 O   0  0  0  0  0  0  0  0  0  0  0  0
  184.3700  178.2730  143.0270 C   0  0  0  0  0  2  0  0  0  0  0  0
  184.9020  178.7910  141.7280 C   0  0  0  0  0  0  0  0  0  0  0  0
  184.3600  178.3390  140.4880 N   0  0  0  0  0  2  0  0  0  0  0  0
  185.8220  179.6500  141.7300 O   0  0  0  0  0  0  0  0  0  0  0  0
  183.3640  177.3540  140.4530 N   0  0  0  0  0  2  0  0  0  0  0  0
  183.0290  177.1350  139.0520 C   0  0  2  0  0  3  0  0  0  0  0  0
  181.6080  177.6530  138.7880 C   0  0  1  0  0  3  0  0  0  0  0  0
  180.9340  180.1790  140.0450 N   0  0  0  0  0  2  0  0  0  0  0  0
  180.8440  177.7670  140.0840 C   0  0  0  0  0  3  0  0  0  0  0  0
  181.7540  180.2410  138.8390 C   0  0  0  0  0  2  0  0  0  0  0  0
  181.6140  178.9720  138.0590 C   0  0  0  0  0  0  0  0  0  0  0  0
  180.5560  178.9400  140.6570 C   0  0  0  0  0  3  0  0  0  0  0  0
  181.5580  179.0040  136.8400 O   0  0  0  0  0  0  0  0  0  0  0  0
  184.0340  175.5530  137.6030 C   0  0  2  0  0  3  0  0  0  0  0  0
  182.5870  175.5090  137.3960 C   0  0  2  0  0  3  0  0  0  0  0  0
  183.4570  173.2930  136.9440 C   0  0  0  0  0  2  0  0  0  0  0  0
  184.5560  174.1280  137.5530 C   0  0  0  0  0  2  0  0  0  0  0  0
  183.1250  175.7080  138.7540 N   0  0  0  0  0  0  0  0  0  0  0  0
  182.1860  174.0560  137.2200 C   0  0  0  0  0  2  0  0  0  0  0  0
  188.4950  176.5150  142.6790 C   0  0  0  0  0  2  0  0  0  0  0  0
  188.7740  177.6580  141.7180 C   0  0  0  0  0  2  0  0  0  0  0  0
  190.0980  177.5440  139.6400 C   0  0  0  0  0  0  0  0  0  0  0  0
  189.9680  178.5670  138.6980 O   0  0  0  0  0  0  0  0  0  0  0  0
  190.8900  176.3740  139.1050 C   0  0  0  0  0  2  0  0  0  0  0  0
  187.8780  177.9470  139.4410 C   0  0  0  0  0  2  0  0  0  0  0  0
  188.6770  179.0020  138.8150 N   0  0  0  0  0  0  0  0  0  0  0  0
  191.4680  177.2530  140.2100 C   0  0  0  0  0  2  0  0  0  0  0  0
  188.8170  177.1430  140.2880 C   0  0  2  0  0  3  0  0  0  0  0  0
  188.0610  179.2150  137.2020 Cl  0  0  0  0  0  0  0  0  0  0  0  0
  1  9  1  0  0  0  0
  3  8  1  0  0  0  0
  4 16  1  6  0  0  0
  4  1  1  0  0  0  0
  4  6  1  0  0  0  0
  5  3  1  0  0  0  0
  5  2  1  0  0  0  0
  6 11  1  0  0  0  0
  7  3  2  0  0  0  0
  9  5  2  0  0  0  0
 10  7  1  0  0  0  0
 11  2  1  0  0  0  0
 12 10  2  0  0  0  0
 12  9  1  0  0  0  0
 13 14  1  0  0  0  0
 14 10  1  0  0  0  0
 15 14  2  0  0  0  0
 17 19  2  0  0  0  0
 17 16  1  0  0  0  0
 18 17  1  0  0  0  0
 20 18  1  0  0  0  0
 21 20  1  1  0  0  0
 22 21  1  1  0  0  0
 22 24  1  0  0  0  0
 23 27  1  0  0  0  0
 24 27  2  0  0  0  0
 25 23  1  0  0  0  0
 26 22  1  0  0  0  0
 26 25  1  0  0  0  0
 28 26  2  0  0  0  0
 29 32  1  1  0  0  0
 29 33  1  0  0  0  0
 30 34  1  1  0  0  0
 30 29  1  0  0  0  0
 30 33  1  0  0  0  0
 31 34  1  0  0  0  0
 31 32  1  0  0  0  0
 33 21  1  0  0  0  0
 35 12  1  0  0  0  0
 36 35  1  0  0  0  0
 37 42  1  0  0  0  0
 37 43  1  0  0  0  0
 38 41  1  0  0  0  0
 38 37  1  0  0  0  0
 39 37  1  0  0  0  0
 39 42  1  0  0  0  0
 40 43  1  0  0  0  0
 41 40  1  0  0  0  0
 43 36  1  1  0  0  0
 44 41  1  0  0  0  0
M  END
>  <MODEL>
1

>  <REMARK>
 VINA RESULT:     -10.0      0.000      0.000
  Name = 
  10 active torsions:
  status: ('A' for Active; 'I' for Inactive)
    1  A    between atoms: C_1  and  C_8
    2  A    between atoms: C_1  and  C_16
    3  A    between atoms: C_3  and  C_37
    4  A    between atoms: C_4  and  C_43
    5  A    between atoms: N_10  and  N_41
    6  A    between atoms: C_15  and  C_22
    7  A    between atoms: C_15  and  C_44
    8  A    between atoms: C_22  and  C_35
    9  A    between atoms: N_36  and  C_43
   10  A    between atoms: N_41  and  C_43
                            x       y       z     vdW  Elec       q    Type
                         _______ _______ _______ _____ _____    ______ ____

>  <TORSDO>
F 10

$$$$
=
 OpenBabel11032420523D

 44 50  0  0  1  0  0  0  0  0999 V2000
  186.2530  177.0560  144.1960 C   0  0  0  0  0  2  0  0  0  0  0  0
  186.6310  178.1400  146.8660 O   0  0  0  0  0  0  0  0  0  0  0  0
  189.0120  177.7910  146.7120 C   0  0  0  0  0  0  0  0  0  0  0  0
  185.4870  178.3570  144.0640 C   0  0  2  0  0  3  0  0  0  0  0  0
  187.7460  177.7370  146.1190 C   0  0  0  0  0  0  0  0  0  0  0  0
  184.7720  178.6410  145.3760 C   0  0  0  0  0  2  0  0  0  0  0  0
  190.1430  177.4350  145.9820 C   0  0  0  0  0  3  0  0  0  0  0  0
  189.1810  178.2550  148.1170 C   0  0  0  0  0  1  0  0  0  0  0  0
  187.6150  177.2710  144.7930 C   0  0  0  0  0  0  0  0  0  0  0  0
  190.0490  177.0030  144.6550 C   0  0  0  0  0  0  0  0  0  0  0  0
  185.7440  179.1610  146.4210 C   0  0  0  0  0  2  0  0  0  0  0  0
  188.7660  176.9100  144.0540 C   0  0  0  0  0  0  0  0  0  0  0  0
  192.0340  177.5240  143.4150 O   0  0  0  0  0  0  0  0  0  0  0  0
  191.3150  176.6490  143.9650 C   0  0  0  0  0  0  0  0  0  0  0  0
  191.7280  175.3220  143.9160 O   0  0  0  0  0  1  0  0  0  0  0  0
  184.4750  178.2090  142.9410 C   0  0  0  0  0  2  0  0  0  0  0  0
  184.9670  178.8540  141.6850 C   0  0  0  0  0  0  0  0  0  0  0  0
  184.3460  178.5740  140.4310 N   0  0  0  0  0  2  0  0  0  0  0  0
  185.9260  179.6670  141.7370 O   0  0  0  0  0  0  0  0  0  0  0  0
  183.3040  177.6430  140.3350 N   0  0  0  0  0  2  0  0  0  0  0  0
  182.1680  178.3320  139.7380 C   0  0  2  0  0  3  0  0  0  0  0  0
  182.6250  179.0380  138.4530 C   0  0  1  0  0  3  0  0  0  0  0  0
  180.7240  179.0210  136.2630 N   0  0  0  0  0  2  0  0  0  0  0  0
  182.6740  178.0560  137.3090 C   0  0  0  0  0  3  0  0  0  0  0  0
  180.4830  179.9790  137.3370 C   0  0  0  0  0  2  0  0  0  0  0  0
  181.7440  180.2100  138.1080 C   0  0  0  0  0  0  0  0  0  0  0  0
  181.7800  178.0530  136.3150 C   0  0  0  0  0  3  0  0  0  0  0  0
  182.0270  181.3310  138.4980 O   0  0  0  0  0  0  0  0  0  0  0  0
  181.0180  178.5330  141.7990 C   0  0  2  0  0  3  0  0  0  0  0  0
  180.1740  179.0990  140.7470 C   0  0  2  0  0  3  0  0  0  0  0  0
  179.6810  180.2910  142.7990 C   0  0  0  0  0  2  0  0  0  0  0  0
  180.8910  179.4190  143.0260 C   0  0  0  0  0  2  0  0  0  0  0  0
  181.6340  179.2950  140.6980 N   0  0  0  0  0  0  0  0  0  0  0  0
  179.5150  180.3480  141.3000 C   0  0  0  0  0  2  0  0  0  0  0  0
  188.6020  176.4500  142.6350 C   0  0  0  0  0  2  0  0  0  0  0  0
  188.8340  177.6120  141.6840 C   0  0  0  0  0  2  0  0  0  0  0  0
  190.1570  177.5120  139.6050 C   0  0  0  0  0  0  0  0  0  0  0  0
  190.0390  178.5490  138.6770 O   0  0  0  0  0  0  0  0  0  0  0  0
  190.9350  176.3400  139.0540 C   0  0  0  0  0  2  0  0  0  0  0  0
  187.9410  177.9440  139.4120 C   0  0  0  0  0  2  0  0  0  0  0  0
  188.7540  178.9980  138.8010 N   0  0  0  0  0  0  0  0  0  0  0  0
  191.5230  177.1950  140.1710 C   0  0  0  0  0  2  0  0  0  0  0  0
  188.8700  177.1170  140.2480 C   0  0  2  0  0  3  0  0  0  0  0  0
  188.1400  179.2400  137.1910 Cl  0  0  0  0  0  0  0  0  0  0  0  0
  1  9  1  0  0  0  0
  3  8  1  0  0  0  0
  4 16  1  6  0  0  0
  4  1  1  0  0  0  0
  4  6  1  0  0  0  0
  5  3  1  0  0  0  0
  5  2  1  0  0  0  0
  6 11  1  0  0  0  0
  7  3  2  0  0  0  0
  9  5  2  0  0  0  0
 10  7  1  0  0  0  0
 11  2  1  0  0  0  0
 12 10  2  0  0  0  0
 12  9  1  0  0  0  0
 13 14  2  0  0  0  0
 14 10  1  0  0  0  0
 15 14  1  0  0  0  0
 17 19  2  0  0  0  0
 17 16  1  0  0  0  0
 18 17  1  0  0  0  0
 20 18  1  0  0  0  0
 21 20  1  1  0  0  0
 21 33  1  0  0  0  0
 22 21  1  1  0  0  0
 23 27  1  0  0  0  0
 23 25  1  0  0  0  0
 24 22  1  0  0  0  0
 25 26  1  0  0  0  0
 26 22  1  0  0  0  0
 26 28  2  0  0  0  0
 27 24  2  0  0  0  0
 29 32  1  1  0  0  0
 30 34  1  1  0  0  0
 30 29  1  0  0  0  0
 31 32  1  0  0  0  0
 33 30  1  0  0  0  0
 33 29  1  0  0  0  0
 34 31  1  0  0  0  0
 35 12  1  0  0  0  0
 36 35  1  0  0  0  0
 37 42  1  0  0  0  0
 37 43  1  0  0  0  0
 38 41  1  0  0  0  0
 38 37  1  0  0  0  0
 39 37  1  0  0  0  0
 39 42  1  0  0  0  0
 40 43  1  0  0  0  0
 41 40  1  0  0  0  0
 43 36  1  1  0  0  0
 44 41  1  0  0  0  0
M  END
>  <MODEL>
2

>  <REMARK>
 VINA RESULT:      -9.9      1.498      2.997
  Name = 
  10 active torsions:
  status: ('A' for Active; 'I' for Inactive)
    1  A    between atoms: C_1  and  C_8
    2  A    between atoms: C_1  and  C_16
    3  A    between atoms: C_3  and  C_37
    4  A    between atoms: C_4  and  C_43
    5  A    between atoms: N_10  and  N_41
    6  A    between atoms: C_15  and  C_22
    7  A    between atoms: C_15  and  C_44
    8  A    between atoms: C_22  and  C_35
    9  A    between atoms: N_36  and  C_43
   10  A    between atoms: N_41  and  C_43
                            x       y       z     vdW  Elec       q    Type
                         _______ _______ _______ _____ _____    ______ ____

>  <TORSDO>
F 10

$$$$
=
 OpenBabel11032420523D

 44 50  0  0  1  0  0  0  0  0999 V2000
  186.2170  177.1030  144.2800 C   0  0  0  0  0  2  0  0  0  0  0  0
  186.6490  178.1810  146.9430 O   0  0  0  0  0  0  0  0  0  0  0  0
  189.0260  177.8240  146.7440 C   0  0  0  0  0  0  0  0  0  0  0  0
  185.4530  178.4070  144.1640 C   0  0  2  0  0  3  0  0  0  0  0  0
  187.7480  177.7750  146.1750 C   0  0  0  0  0  0  0  0  0  0  0  0
  184.7640  178.6910  145.4900 C   0  0  0  0  0  2  0  0  0  0  0  0
  190.1410  177.4660  145.9930 C   0  0  0  0  0  3  0  0  0  0  0  0
  189.2220  178.2850  148.1470 C   0  0  0  0  0  1  0  0  0  0  0  0
  187.5910  177.3120  144.8510 C   0  0  0  0  0  0  0  0  0  0  0  0
  190.0200  177.0350  144.6670 C   0  0  0  0  0  0  0  0  0  0  0  0
  185.7570  179.2060  146.5170 C   0  0  0  0  0  2  0  0  0  0  0  0
  188.7270  176.9480  144.0900 C   0  0  0  0  0  0  0  0  0  0  0  0
  191.6590  175.4840  143.8550 O   0  0  0  0  0  1  0  0  0  0  0  0
  191.2730  176.6780  143.9520 C   0  0  0  0  0  0  0  0  0  0  0  0
  192.0480  177.6770  143.3740 O   0  0  0  0  0  0  0  0  0  0  0  0
  184.4190  178.2640  143.0600 C   0  0  0  0  0  2  0  0  0  0  0  0
  184.7990  179.0730  141.8600 C   0  0  0  0  0  0  0  0  0  0  0  0
  183.8410  179.3600  140.8430 N   0  0  0  0  0  2  0  0  0  0  0  0
  185.9700  179.5210  141.7570 O   0  0  0  0  0  0  0  0  0  0  0  0
  182.5410  178.8400  140.9100 N   0  0  0  0  0  2  0  0  0  0  0  0
  182.2250  178.3100  139.5900 C   0  0  2  0  0  3  0  0  0  0  0  0
  183.2830  177.2700  139.1980 C   0  0  1  0  0  3  0  0  0  0  0  0
  182.7200  175.7420  136.7970 N   0  0  0  0  0  2  0  0  0  0  0  0
  182.6830  175.8850  139.2070 C   0  0  0  0  0  3  0  0  0  0  0  0
  183.2180  177.1010  136.6120 C   0  0  0  0  0  2  0  0  0  0  0  0
  183.9020  177.5700  137.8570 C   0  0  0  0  0  0  0  0  0  0  0  0
  182.4150  175.2020  138.0890 C   0  0  0  0  0  3  0  0  0  0  0  0
  184.9230  178.2340  137.7840 O   0  0  0  0  0  0  0  0  0  0  0  0
  181.1140  180.3270  139.0330 C   0  0  2  0  0  3  0  0  0  0  0  0
  180.8820  179.3640  137.9570 C   0  0  2  0  0  3  0  0  0  0  0  0
  180.8640  181.5780  136.9720 C   0  0  0  0  0  2  0  0  0  0  0  0
  181.3380  181.6890  138.4000 C   0  0  0  0  0  2  0  0  0  0  0  0
  182.1940  179.4080  138.6270 N   0  0  0  0  0  0  0  0  0  0  0  0
  180.9630  180.1100  136.6380 C   0  0  0  0  0  2  0  0  0  0  0  0
  188.5340  176.4910  142.6730 C   0  0  0  0  0  2  0  0  0  0  0  0
  188.8900  177.6140  141.7150 C   0  0  0  0  0  2  0  0  0  0  0  0
  190.2030  177.5130  139.6290 C   0  0  0  0  0  0  0  0  0  0  0  0
  190.0490  178.5280  138.6820 O   0  0  0  0  0  0  0  0  0  0  0  0
  191.0130  176.3550  139.0960 C   0  0  0  0  0  2  0  0  0  0  0  0
  187.9750  177.8760  139.4420 C   0  0  0  0  0  2  0  0  0  0  0  0
  188.7520  178.9410  138.8060 N   0  0  0  0  0  0  0  0  0  0  0  0
  191.5820  177.2490  140.1920 C   0  0  0  0  0  2  0  0  0  0  0  0
  188.9330  177.0930  140.2870 C   0  0  2  0  0  3  0  0  0  0  0  0
  188.1230  179.1350  137.1960 Cl  0  0  0  0  0  0  0  0  0  0  0  0
  1  9  1  0  0  0  0
  3  8  1  0  0  0  0
  4 16  1  6  0  0  0
  4  1  1  0  0  0  0
  4  6  1  0  0  0  0
  5  3  1  0  0  0  0
  5  2  1  0  0  0  0
  6 11  1  0  0  0  0
  7  3  2  0  0  0  0
  9  5  2  0  0  0  0
 10  7  1  0  0  0  0
 11  2  1  0  0  0  0
 12 10  2  0  0  0  0
 12  9  1  0  0  0  0
 13 14  1  0  0  0  0
 14 10  1  0  0  0  0
 15 14  2  0  0  0  0
 17 16  1  0  0  0  0
 18 20  1  0  0  0  0
 18 17  1  0  0  0  0
 19 17  2  0  0  0  0
 21 20  1  1  0  0  0
 22 24  1  0  0  0  0
 22 21  1  6  0  0  0
 23 27  1  0  0  0  0
 25 23  1  0  0  0  0
 25 26  1  0  0  0  0
 26 22  1  0  0  0  0
 27 24  2  0  0  0  0
 28 26  2  0  0  0  0
 29 32  1  6  0  0  0
 30 34  1  6  0  0  0
 30 33  1  0  0  0  0
 30 29  1  0  0  0  0
 31 32  1  0  0  0  0
 33 29  1  0  0  0  0
 33 21  1  0  0  0  0
 34 31  1  0  0  0  0
 35 12  1  0  0  0  0
 36 35  1  0  0  0  0
 37 42  1  0  0  0  0
 37 43  1  0  0  0  0
 38 41  1  0  0  0  0
 38 37  1  0  0  0  0
 39 37  1  0  0  0  0
 39 42  1  0  0  0  0
 40 43  1  0  0  0  0
 41 40  1  0  0  0  0
 43 36  1  1  0  0  0
 44 41  1  0  0  0  0
M  END
>  <MODEL>
3

>  <REMARK>
 VINA RESULT:      -9.5      1.099      2.863
  Name = 
  10 active torsions:
  status: ('A' for Active; 'I' for Inactive)
    1  A    between atoms: C_1  and  C_8
    2  A    between atoms: C_1  and  C_16
    3  A    between atoms: C_3  and  C_37
    4  A    between atoms: C_4  and  C_43
    5  A    between atoms: N_10  and  N_41
    6  A    between atoms: C_15  and  C_22
    7  A    between atoms: C_15  and  C_44
    8  A    between atoms: C_22  and  C_35
    9  A    between atoms: N_36  and  C_43
   10  A    between atoms: N_41  and  C_43
                            x       y       z     vdW  Elec       q    Type
                         _______ _______ _______ _____ _____    ______ ____

>  <TORSDO>
F 10

$$$$
=
 OpenBabel11032420523D

 44 50  0  0  1  0  0  0  0  0999 V2000
  186.0340  177.7870  143.5770 C   0  0  0  0  0  2  0  0  0  0  0  0
  186.1080  177.4130  146.4580 O   0  0  0  0  0  0  0  0  0  0  0  0
  188.5200  177.4230  146.4360 C   0  0  0  0  0  0  0  0  0  0  0  0
  185.0960  178.8960  144.0120 C   0  0  2  0  0  3  0  0  0  0  0  0
  187.3070  177.5510  145.7480 C   0  0  0  0  0  0  0  0  0  0  0  0
  184.2780  178.4100  145.1990 C   0  0  0  0  0  2  0  0  0  0  0  0
  189.7270  177.5950  145.7660 C   0  0  0  0  0  3  0  0  0  0  0  0
  188.5430  177.1310  147.8960 C   0  0  0  0  0  1  0  0  0  0  0  0
  187.3170  177.8050  144.3600 C   0  0  0  0  0  0  0  0  0  0  0  0
  189.7670  177.8820  144.3970 C   0  0  0  0  0  0  0  0  0  0  0  0
  185.1080  178.4260  146.4710 C   0  0  0  0  0  2  0  0  0  0  0  0
  188.5460  177.9780  143.6810 C   0  0  0  0  0  0  0  0  0  0  0  0
  191.6110  179.1870  143.5920 O   0  0  0  0  0  1  0  0  0  0  0  0
  191.1070  178.0480  143.7780 C   0  0  0  0  0  0  0  0  0  0  0  0
  191.8320  176.9280  143.3870 O   0  0  0  0  0  0  0  0  0  0  0  0
  184.1780  179.2350  142.8510 C   0  0  0  0  0  2  0  0  0  0  0  0
  184.8970  179.1190  141.5440 C   0  0  0  0  0  0  0  0  0  0  0  0
  184.4040  178.2630  140.5150 N   0  0  0  0  0  2  0  0  0  0  0  0
  185.9370  179.7990  141.3440 O   0  0  0  0  0  0  0  0  0  0  0  0
  183.2730  177.4630  140.7240 N   0  0  0  0  0  2  0  0  0  0  0  0
  182.6380  177.2730  139.4270 C   0  0  2  0  0  3  0  0  0  0  0  0
  181.1680  177.7070  139.5170 C   0  0  1  0  0  3  0  0  0  0  0  0
  180.6900  180.2880  140.7520 N   0  0  0  0  0  2  0  0  0  0  0  0
  180.7640  177.8840  140.9600 C   0  0  0  0  0  3  0  0  0  0  0  0
  181.1610  180.2950  139.3700 C   0  0  0  0  0  2  0  0  0  0  0  0
  180.9010  178.9660  138.7340 C   0  0  0  0  0  0  0  0  0  0  0  0
  180.5630  179.0830  141.5170 C   0  0  0  0  0  3  0  0  0  0  0  0
  180.5260  178.9040  137.5750 O   0  0  0  0  0  0  0  0  0  0  0  0
  183.5760  175.7970  137.8290 C   0  0  2  0  0  3  0  0  0  0  0  0
  182.1190  175.7310  137.7140 C   0  0  2  0  0  3  0  0  0  0  0  0
  183.0000  173.5630  137.0820 C   0  0  0  0  0  2  0  0  0  0  0  0
  184.1210  174.3890  137.6640 C   0  0  0  0  0  2  0  0  0  0  0  0
  182.7420  175.8680  139.0430 N   0  0  0  0  0  0  0  0  0  0  0  0
  181.7350  174.2810  137.4830 C   0  0  0  0  0  2  0  0  0  0  0  0
  188.5260  178.2810  142.2110 C   0  0  0  0  0  2  0  0  0  0  0  0
  189.0690  177.0960  141.4310 C   0  0  0  0  0  2  0  0  0  0  0  0
  189.1300  177.3740  138.9810 C   0  0  0  0  0  0  0  0  0  0  0  0
  189.6020  176.3230  138.1920 O   0  0  0  0  0  0  0  0  0  0  0  0
  188.9410  178.6440  138.1850 C   0  0  0  0  0  2  0  0  0  0  0  0
  191.0100  176.6140  139.9910 C   0  0  0  0  0  2  0  0  0  0  0  0
  190.5370  175.6880  138.9600 N   0  0  0  0  0  0  0  0  0  0  0  0
  187.7320  177.8960  138.7350 C   0  0  0  0  0  2  0  0  0  0  0  0
  189.8910  177.5780  140.2460 C   0  0  2  0  0  3  0  0  0  0  0  0
  191.8950  175.3430  137.9300 Cl  0  0  0  0  0  0  0  0  0  0  0  0
  1  4  1  0  0  0  0
  1  9  1  0  0  0  0
  2 11  1  0  0  0  0
  3  8  1  0  0  0  0
  4 16  1  6  0  0  0
  4  6  1  0  0  0  0
  5  3  2  0  0  0  0
  5  2  1  0  0  0  0
  6 11  1  0  0  0  0
  7  3  1  0  0  0  0
  9  5  1  0  0  0  0
 10  7  2  0  0  0  0
 12  9  2  0  0  0  0
 12 10  1  0  0  0  0
 13 14  1  0  0  0  0
 14 10  1  0  0  0  0
 15 14  2  0  0  0  0
 17 16  1  0  0  0  0
 18 20  1  0  0  0  0
 18 17  1  0  0  0  0
 19 17  2  0  0  0  0
 21 20  1  1  0  0  0
 22 21  1  1  0  0  0
 22 24  1  0  0  0  0
 23 27  1  0  0  0  0
 24 27  2  0  0  0  0
 25 23  1  0  0  0  0
 26 25  1  0  0  0  0
 26 22  1  0  0  0  0
 28 26  2  0  0  0  0
 29 32  1  1  0  0  0
 29 33  1  0  0  0  0
 30 34  1  1  0  0  0
 30 29  1  0  0  0  0
 30 33  1  0  0  0  0
 31 34  1  0  0  0  0
 31 32  1  0  0  0  0
 33 21  1  0  0  0  0
 35 12  1  0  0  0  0
 36 35  1  0  0  0  0
 37 43  1  0  0  0  0
 38 41  1  0  0  0  0
 38 37  1  0  0  0  0
 39 42  1  0  0  0  0
 39 37  1  0  0  0  0
 40 43  1  0  0  0  0
 41 40  1  0  0  0  0
 42 37  1  0  0  0  0
 43 36  1  1  0  0  0
 44 41  1  0  0  0  0
M  END
>  <MODEL>
4

>  <REMARK>
 VINA RESULT:      -9.3      1.354      1.716
  Name = 
  10 active torsions:
  status: ('A' for Active; 'I' for Inactive)
    1  A    between atoms: C_1  and  C_8
    2  A    between atoms: C_1  and  C_16
    3  A    between atoms: C_3  and  C_37
    4  A    between atoms: C_4  and  C_43
    5  A    between atoms: N_10  and  N_41
    6  A    between atoms: C_15  and  C_22
    7  A    between atoms: C_15  and  C_44
    8  A    between atoms: C_22  and  C_35
    9  A    between atoms: N_36  and  C_43
   10  A    between atoms: N_41  and  C_43
                            x       y       z     vdW  Elec       q    Type
                         _______ _______ _______ _____ _____    ______ ____

>  <TORSDO>
F 10

$$$$
=
 OpenBabel11032420523D

 44 50  0  0  1  0  0  0  0  0999 V2000
  186.0910  177.0690  144.0660 C   0  0  0  0  0  2  0  0  0  0  0  0
  186.4180  178.1990  146.7230 O   0  0  0  0  0  0  0  0  0  0  0  0
  188.8070  177.8930  146.6000 C   0  0  0  0  0  0  0  0  0  0  0  0
  185.3010  178.3530  143.9060 C   0  0  2  0  0  3  0  0  0  0  0  0
  187.5480  177.8060  145.9940 C   0  0  0  0  0  0  0  0  0  0  0  0
  184.5660  178.6420  145.2060 C   0  0  0  0  0  2  0  0  0  0  0  0
  189.9520  177.5490  145.8880 C   0  0  0  0  0  3  0  0  0  0  0  0
  188.9510  178.3810  148.0000 C   0  0  0  0  0  1  0  0  0  0  0  0
  187.4420  177.3190  144.6750 C   0  0  0  0  0  0  0  0  0  0  0  0
  189.8810  177.0950  144.5670 C   0  0  0  0  0  0  0  0  0  0  0  0
  185.5160  179.1960  146.2540 C   0  0  0  0  0  2  0  0  0  0  0  0
  188.6080  176.9690  143.9540 C   0  0  0  0  0  0  0  0  0  0  0  0
  191.8090  177.6120  143.2380 O   0  0  0  0  0  0  0  0  0  0  0  0
  191.1620  176.7560  143.8960 C   0  0  0  0  0  0  0  0  0  0  0  0
  191.6670  175.4640  143.9860 O   0  0  0  0  0  1  0  0  0  0  0  0
  184.3040  178.1690  142.7740 C   0  0  0  0  0  2  0  0  0  0  0  0
  184.6070  179.0910  141.6360 C   0  0  0  0  0  0  0  0  0  0  0  0
  183.6740  179.2620  140.5710 N   0  0  0  0  0  2  0  0  0  0  0  0
  185.6870  179.7370  141.6290 O   0  0  0  0  0  0  0  0  0  0  0  0
  182.4830  178.5260  140.5300 N   0  0  0  0  0  2  0  0  0  0  0  0
  181.4410  179.4240  140.0510 C   0  0  2  0  0  3  0  0  0  0  0  0
  180.1380  179.1330  140.8080 C   0  0  1  0  0  3  0  0  0  0  0  0
  180.4130  178.6790  143.6600 N   0  0  0  0  0  2  0  0  0  0  0  0
  180.1940  177.7620  141.4370 C   0  0  0  0  0  3  0  0  0  0  0  0
  180.4640  180.0640  143.2060 C   0  0  0  0  0  2  0  0  0  0  0  0
  179.8430  180.1820  141.8500 C   0  0  0  0  0  0  0  0  0  0  0  0
  180.3370  177.5710  142.7520 C   0  0  0  0  0  3  0  0  0  0  0  0
  179.1470  181.1460  141.5750 O   0  0  0  0  0  0  0  0  0  0  0  0
  180.9740  180.5440  138.0160 C   0  0  2  0  0  3  0  0  0  0  0  0
  179.8770  179.6160  138.2900 C   0  0  2  0  0  3  0  0  0  0  0  0
  180.0750  179.8220  135.8840 C   0  0  0  0  0  2  0  0  0  0  0  0
  181.2590  180.5010  136.5250 C   0  0  0  0  0  2  0  0  0  0  0  0
  181.2620  179.2270  138.6140 N   0  0  0  0  0  0  0  0  0  0  0  0
  179.4680  178.9760  136.9760 C   0  0  0  0  0  2  0  0  0  0  0  0
  188.4670  176.4850  142.5390 C   0  0  0  0  0  2  0  0  0  0  0  0
  188.7050  177.6340  141.5740 C   0  0  0  0  0  2  0  0  0  0  0  0
  189.9820  177.4890  139.4690 C   0  0  0  0  0  0  0  0  0  0  0  0
  189.8640  178.5200  138.5340 O   0  0  0  0  0  0  0  0  0  0  0  0
  190.7250  176.2980  138.9120 C   0  0  0  0  0  2  0  0  0  0  0  0
  187.7710  177.9640  139.3170 C   0  0  0  0  0  2  0  0  0  0  0  0
  188.5910  178.9960  138.6800 N   0  0  0  0  0  0  0  0  0  0  0  0
  191.3530  177.1510  140.0090 C   0  0  0  0  0  2  0  0  0  0  0  0
  188.7020  177.1250  140.1410 C   0  0  2  0  0  3  0  0  0  0  0  0
  187.9490  179.2360  137.0810 Cl  0  0  0  0  0  0  0  0  0  0  0  0
  1  9  1  0  0  0  0
  3  8  1  0  0  0  0
  4 16  1  6  0  0  0
  4  1  1  0  0  0  0
  4  6  1  0  0  0  0
  5  3  1  0  0  0  0
  5  2  1  0  0  0  0
  6 11  1  0  0  0  0
  7  3  2  0  0  0  0
  9  5  2  0  0  0  0
 10  7  1  0  0  0  0
 11  2  1  0  0  0  0
 12 10  2  0  0  0  0
 12  9  1  0  0  0  0
 13 14  2  0  0  0  0
 14 15  1  0  0  0  0
 14 10  1  0  0  0  0
 17 16  1  0  0  0  0
 18 17  1  0  0  0  0
 19 17  2  0  0  0  0
 20 18  1  0  0  0  0
 21 20  1  1  0  0  0
 22 21  1  1  0  0  0
 22 24  1  0  0  0  0
 22 26  1  0  0  0  0
 24 27  2  0  0  0  0
 25 23  1  0  0  0  0
 26 25  1  0  0  0  0
 27 23  1  0  0  0  0
 28 26  2  0  0  0  0
 29 32  1  6  0  0  0
 29 30  1  0  0  0  0
 29 33  1  0  0  0  0
 30 34  1  6  0  0  0
 30 33  1  0  0  0  0
 31 32  1  0  0  0  0
 31 34  1  0  0  0  0
 33 21  1  0  0  0  0
 35 12  1  0  0  0  0
 36 35  1  0  0  0  0
 37 42  1  0  0  0  0
 37 43  1  0  0  0  0
 38 41  1  0  0  0  0
 38 37  1  0  0  0  0
 39 37  1  0  0  0  0
 39 42  1  0  0  0  0
 40 43  1  0  0  0  0
 41 40  1  0  0  0  0
 43 36  1  1  0  0  0
 44 41  1  0  0  0  0
M  END
>  <MODEL>
5

>  <REMARK>
 VINA RESULT:      -8.9      2.252      2.795
  Name = 
  10 active torsions:
  status: ('A' for Active; 'I' for Inactive)
    1  A    between atoms: C_1  and  C_8
    2  A    between atoms: C_1  and  C_16
    3  A    between atoms: C_3  and  C_37
    4  A    between atoms: C_4  and  C_43
    5  A    between atoms: N_10  and  N_41
    6  A    between atoms: C_15  and  C_22
    7  A    between atoms: C_15  and  C_44
    8  A    between atoms: C_22  and  C_35
    9  A    between atoms: N_36  and  C_43
   10  A    between atoms: N_41  and  C_43
                            x       y       z     vdW  Elec       q    Type
                         _______ _______ _______ _____ _____    ______ ____

>  <TORSDO>
F 10

$$$$
=
 OpenBabel11032420523D

 44 50  0  0  1  0  0  0  0  0999 V2000
  185.5030  177.8570  141.3650 C   0  0  0  0  0  2  0  0  0  0  0  0
  182.6890  178.5660  141.2190 O   0  0  0  0  0  0  0  0  0  0  0  0
  182.6230  178.9520  143.5990 C   0  0  0  0  0  0  0  0  0  0  0  0
  185.5470  178.8830  140.2500 C   0  0  2  0  0  3  0  0  0  0  0  0
  183.3550  178.6280  142.4500 C   0  0  0  0  0  0  0  0  0  0  0  0
  184.2960  178.7350  139.3980 C   0  0  0  0  0  2  0  0  0  0  0  0
  183.2640  179.0610  144.8290 C   0  0  0  0  0  3  0  0  0  0  0  0
  181.1590  179.2160  143.5250 C   0  0  0  0  0  1  0  0  0  0  0  0
  184.7360  178.3610  142.5550 C   0  0  0  0  0  0  0  0  0  0  0  0
  184.6390  178.8360  144.9590 C   0  0  0  0  0  0  0  0  0  0  0  0
  183.0910  179.3420  140.0950 C   0  0  0  0  0  2  0  0  0  0  0  0
  185.3840  178.4710  143.8080 C   0  0  0  0  0  0  0  0  0  0  0  0
  185.9920  179.9350  146.6060 O   0  0  0  0  0  0  0  0  0  0  0  0
  185.2250  178.9790  146.3160 C   0  0  0  0  0  0  0  0  0  0  0  0
  184.9310  178.0410  147.2980 O   0  0  0  0  0  1  0  0  0  0  0  0
  186.7850  178.6280  139.4080 C   0  0  0  0  0  2  0  0  0  0  0  0
  188.0030  178.5000  140.2660 C   0  0  0  0  0  0  0  0  0  0  0  0
  188.9020  177.4060  140.0940 N   0  0  0  0  0  2  0  0  0  0  0  0
  188.2480  179.3770  141.1340 O   0  0  0  0  0  0  0  0  0  0  0  0
  188.6340  176.3920  139.1650 N   0  0  0  0  0  2  0  0  0  0  0  0
  189.5610  176.5740  138.0550 C   0  0  2  0  0  3  0  0  0  0  0  0
  188.8930  176.0930  136.7580 C   0  0  1  0  0  3  0  0  0  0  0  0
  186.2520  177.1680  136.2280 N   0  0  0  0  0  2  0  0  0  0  0  0
  187.6120  175.3600  137.0720 C   0  0  0  0  0  3  0  0  0  0  0  0
  187.3870  178.0410  135.9480 C   0  0  0  0  0  2  0  0  0  0  0  0
  188.6340  177.2280  135.8010 C   0  0  0  0  0  0  0  0  0  0  0  0
  186.4020  175.8780  136.8350 C   0  0  0  0  0  3  0  0  0  0  0  0
  189.4570  177.5150  134.9480 O   0  0  0  0  0  0  0  0  0  0  0  0
  191.9040  176.5540  137.7090 C   0  0  2  0  0  3  0  0  0  0  0  0
  191.3290  175.4000  137.0180 C   0  0  2  0  0  3  0  0  0  0  0  0
  193.5740  174.7980  137.7030 C   0  0  0  0  0  2  0  0  0  0  0  0
  193.2110  176.1140  138.3440 C   0  0  0  0  0  2  0  0  0  0  0  0
  190.7820  175.8180  138.3210 N   0  0  0  0  0  0  0  0  0  0  0  0
  192.2660  174.2240  137.2170 C   0  0  0  0  0  2  0  0  0  0  0  0
  186.8620  178.2150  143.8850 C   0  0  0  0  0  2  0  0  0  0  0  0
  187.1180  176.8500  144.5000 C   0  0  0  0  0  2  0  0  0  0  0  0
  189.0480  177.5180  145.8840 C   0  0  0  0  0  0  0  0  0  0  0  0
  189.8040  178.6280  145.4990 O   0  0  0  0  0  0  0  0  0  0  0  0
  189.7020  176.7430  147.0030 C   0  0  0  0  0  2  0  0  0  0  0  0
  189.3840  177.3180  143.6520 C   0  0  0  0  0  2  0  0  0  0  0  0
  189.7350  178.6550  144.1340 N   0  0  0  0  0  0  0  0  0  0  0  0
  188.4100  177.5130  147.2550 C   0  0  0  0  0  2  0  0  0  0  0  0
  188.6060  176.6570  144.7490 C   0  0  2  0  0  3  0  0  0  0  0  0
  191.3370  178.9990  143.5490 Cl  0  0  0  0  0  0  0  0  0  0  0  0
  1  9  1  0  0  0  0
  2  5  1  0  0  0  0
  3  7  1  0  0  0  0
  4 16  1  6  0  0  0
  4  1  1  0  0  0  0
  5  9  1  0  0  0  0
  5  3  2  0  0  0  0
  6 11  1  0  0  0  0
  6  4  1  0  0  0  0
  7 10  2  0  0  0  0
  8  3  1  0  0  0  0
  9 12  2  0  0  0  0
 10 14  1  0  0  0  0
 11  2  1  0  0  0  0
 12 35  1  0  0  0  0
 12 10  1  0  0  0  0
 14 13  2  0  0  0  0
 14 15  1  0  0  0  0
 16 17  1  0  0  0  0
 17 19  2  0  0  0  0
 18 17  1  0  0  0  0
 20 18  1  0  0  0  0
 21 33  1  0  0  0  0
 21 20  1  1  0  0  0
 22 24  1  0  0  0  0
 22 21  1  1  0  0  0
 23 27  1  0  0  0  0
 25 23  1  0  0  0  0
 26 25  1  0  0  0  0
 26 22  1  0  0  0  0
 27 24  2  0  0  0  0
 28 26  2  0  0  0  0
 29 33  1  0  0  0  0
 29 32  1  1  0  0  0
 30 34  1  1  0  0  0
 30 29  1  0  0  0  0
 30 33  1  0  0  0  0
 31 32  1  0  0  0  0
 34 31  1  0  0  0  0
 35 36  1  0  0  0  0
 37 39  1  0  0  0  0
 37 42  1  0  0  0  0
 38 37  1  0  0  0  0
 39 42  1  0  0  0  0
 40 41  1  0  0  0  0
 40 43  1  0  0  0  0
 41 38  1  0  0  0  0
 43 36  1  6  0  0  0
 43 37  1  0  0  0  0
 44 41  1  0  0  0  0
M  END
>  <MODEL>
6

>  <REMARK>
 VINA RESULT:      -7.9      2.928      6.697
  Name = 
  10 active torsions:
  status: ('A' for Active; 'I' for Inactive)
    1  A    between atoms: C_1  and  C_8
    2  A    between atoms: C_1  and  C_16
    3  A    between atoms: C_3  and  C_37
    4  A    between atoms: C_4  and  C_43
    5  A    between atoms: N_10  and  N_41
    6  A    between atoms: C_15  and  C_22
    7  A    between atoms: C_15  and  C_44
    8  A    between atoms: C_22  and  C_35
    9  A    between atoms: N_36  and  C_43
   10  A    between atoms: N_41  and  C_43
                            x       y       z     vdW  Elec       q    Type
                         _______ _______ _______ _____ _____    ______ ____

>  <TORSDO>
F 10

$$$$
=
 OpenBabel11032420523D

 44 50  0  0  1  0  0  0  0  0999 V2000
  186.2920  177.7960  143.2410 C   0  0  0  0  0  2  0  0  0  0  0  0
  186.1020  177.3670  146.1090 O   0  0  0  0  0  0  0  0  0  0  0  0
  188.5050  177.3780  146.3090 C   0  0  0  0  0  0  0  0  0  0  0  0
  185.3160  178.8960  143.6090 C   0  0  2  0  0  3  0  0  0  0  0  0
  187.3610  177.5190  145.5150 C   0  0  0  0  0  0  0  0  0  0  0  0
  184.3930  178.3870  144.7060 C   0  0  0  0  0  2  0  0  0  0  0  0
  189.7680  177.5640  145.7560 C   0  0  0  0  0  3  0  0  0  0  0  0
  188.3950  177.0590  147.7590 C   0  0  0  0  0  1  0  0  0  0  0  0
  187.4980  177.7990  144.1380 C   0  0  0  0  0  0  0  0  0  0  0  0
  189.9340  177.8770  144.4020 C   0  0  0  0  0  0  0  0  0  0  0  0
  185.1020  178.3790  146.0490 C   0  0  0  0  0  2  0  0  0  0  0  0
  188.7840  177.9860  143.5790 C   0  0  0  0  0  0  0  0  0  0  0  0
  191.9890  177.0930  143.4480 O   0  0  0  0  0  0  0  0  0  0  0  0
  191.3250  178.0560  143.9120 C   0  0  0  0  0  0  0  0  0  0  0  0
  191.9190  179.3120  143.9640 O   0  0  0  0  0  1  0  0  0  0  0  0
  184.5080  179.2570  142.3740 C   0  0  0  0  0  2  0  0  0  0  0  0
  185.3890  179.3830  141.1720 C   0  0  0  0  0  0  0  0  0  0  0  0
  184.8280  179.6120  139.8800 N   0  0  0  0  0  2  0  0  0  0  0  0
  186.6380  179.3070  141.3050 O   0  0  0  0  0  0  0  0  0  0  0  0
  183.4400  179.6610  139.6950 N   0  0  0  0  0  2  0  0  0  0  0  0
  183.0190  178.3310  139.2740 C   0  0  2  0  0  3  0  0  0  0  0  0
  183.4740  178.0920  137.8280 C   0  0  1  0  0  3  0  0  0  0  0  0
  182.7910  175.5080  136.7020 N   0  0  0  0  0  2  0  0  0  0  0  0
  184.4300  176.9250  137.7680 C   0  0  0  0  0  3  0  0  0  0  0  0
  181.7250  176.5020  136.7650 C   0  0  0  0  0  2  0  0  0  0  0  0
  182.3100  177.8720  136.8970 C   0  0  0  0  0  0  0  0  0  0  0  0
  184.0920  175.7360  137.2590 C   0  0  0  0  0  3  0  0  0  0  0  0
  181.8150  178.8120  136.2960 O   0  0  0  0  0  0  0  0  0  0  0  0
  181.2070  178.4730  140.7940 C   0  0  2  0  0  3  0  0  0  0  0  0
  181.2710  177.1030  140.2850 C   0  0  2  0  0  3  0  0  0  0  0  0
  178.9500  177.5870  140.7850 C   0  0  0  0  0  2  0  0  0  0  0  0
  179.7440  178.8660  140.8890 C   0  0  0  0  0  2  0  0  0  0  0  0
  181.5650  178.2320  139.3840 N   0  0  0  0  0  0  0  0  0  0  0  0
  179.8500  176.6260  140.0490 C   0  0  0  0  0  2  0  0  0  0  0  0
  188.8980  178.3170  142.1190 C   0  0  0  0  0  2  0  0  0  0  0  0
  189.4280  177.1150  141.3560 C   0  0  0  0  0  2  0  0  0  0  0  0
  189.3020  177.2260  138.8960 C   0  0  0  0  0  0  0  0  0  0  0  0
  189.7930  176.1550  138.1440 O   0  0  0  0  0  0  0  0  0  0  0  0
  188.9690  178.4210  138.0340 C   0  0  0  0  0  2  0  0  0  0  0  0
  191.2960  176.6650  139.8130 C   0  0  0  0  0  2  0  0  0  0  0  0
  190.8210  175.6400  138.8820 N   0  0  0  0  0  0  0  0  0  0  0  0
  187.8570  177.6350  138.7190 C   0  0  0  0  0  2  0  0  0  0  0  0
  190.1310  177.5680  140.0860 C   0  0  2  0  0  3  0  0  0  0  0  0
  192.1270  175.3140  137.7790 Cl  0  0  0  0  0  0  0  0  0  0  0  0
  1  4  1  0  0  0  0
  1  9  1  0  0  0  0
  3  8  1  0  0  0  0
  4 16  1  6  0  0  0
  4  6  1  0  0  0  0
  5  2  1  0  0  0  0
  5  3  2  0  0  0  0
  6 11  1  0  0  0  0
  7  3  1  0  0  0  0
  9  5  1  0  0  0  0
 10  7  2  0  0  0  0
 11  2  1  0  0  0  0
 12  9  2  0  0  0  0
 12 10  1  0  0  0  0
 13 14  2  0  0  0  0
 14 15  1  0  0  0  0
 14 10  1  0  0  0  0
 17 19  2  0  0  0  0
 17 16  1  0  0  0  0
 18 17  1  0  0  0  0
 20 18  1  0  0  0  0
 21 33  1  0  0  0  0
 21 20  1  6  0  0  0
 22 21  1  1  0  0  0
 23 25  1  0  0  0  0
 23 27  1  0  0  0  0
 24 22  1  0  0  0  0
 25 26  1  0  0  0  0
 26 22  1  0  0  0  0
 27 24  2  0  0  0  0
 28 26  2  0  0  0  0
 29 32  1  6  0  0  0
 30 34  1  6  0  0  0
 30 29  1  0  0  0  0
 31 32  1  0  0  0  0
 33 30  1  0  0  0  0
 33 29  1  0  0  0  0
 34 31  1  0  0  0  0
 35 12  1  0  0  0  0
 36 35  1  0  0  0  0
 37 43  1  0  0  0  0
 38 41  1  0  0  0  0
 38 37  1  0  0  0  0
 39 42  1  0  0  0  0
 39 37  1  0  0  0  0
 40 43  1  0  0  0  0
 41 40  1  0  0  0  0
 42 37  1  0  0  0  0
 43 36  1  1  0  0  0
 44 41  1  0  0  0  0
M  END
>  <MODEL>
7

>  <REMARK>
 VINA RESULT:      -7.7      1.719      3.115
  Name = 
  10 active torsions:
  status: ('A' for Active; 'I' for Inactive)
    1  A    between atoms: C_1  and  C_8
    2  A    between atoms: C_1  and  C_16
    3  A    between atoms: C_3  and  C_37
    4  A    between atoms: C_4  and  C_43
    5  A    between atoms: N_10  and  N_41
    6  A    between atoms: C_15  and  C_22
    7  A    between atoms: C_15  and  C_44
    8  A    between atoms: C_22  and  C_35
    9  A    between atoms: N_36  and  C_43
   10  A    between atoms: N_41  and  C_43
                            x       y       z     vdW  Elec       q    Type
                         _______ _______ _______ _____ _____    ______ ____

>  <TORSDO>
F 10

$$$$
=
 OpenBabel11032420523D

 44 50  0  0  1  0  0  0  0  0999 V2000
  190.6380  177.4330  140.0510 C   0  0  0  0  0  2  0  0  0  0  0  0
  188.1860  178.7630  139.2380 O   0  0  0  0  0  0  0  0  0  0  0  0
  188.4080  177.8880  137.0020 C   0  0  0  0  0  0  0  0  0  0  0  0
  189.7070  176.9670  141.1520 C   0  0  2  0  0  3  0  0  0  0  0  0
  188.8760  177.9620  138.3190 C   0  0  0  0  0  0  0  0  0  0  0  0
  188.7610  178.1030  141.5090 C   0  0  0  0  0  2  0  0  0  0  0  0
  189.0480  177.0690  136.0760 C   0  0  0  0  0  3  0  0  0  0  0  0
  187.2050  178.6550  136.5720 C   0  0  0  0  0  1  0  0  0  0  0  0
  190.0310  177.2420  138.6900 C   0  0  0  0  0  0  0  0  0  0  0  0
  190.1740  176.3160  136.4240 C   0  0  0  0  0  0  0  0  0  0  0  0
  187.6710  178.2500  140.4620 C   0  0  0  0  0  2  0  0  0  0  0  0
  190.6800  176.4110  137.7460 C   0  0  0  0  0  0  0  0  0  0  0  0
  190.3760  174.3030  135.1370 O   0  0  0  0  0  1  0  0  0  0  0  0
  190.7810  175.4730  135.3620 C   0  0  0  0  0  0  0  0  0  0  0  0
  191.8260  175.9750  134.5940 O   0  0  0  0  0  0  0  0  0  0  0  0
  190.5420  176.5840  142.3620 C   0  0  0  0  0  2  0  0  0  0  0  0
  190.7830  177.7670  143.2450 C   0  0  0  0  0  0  0  0  0  0  0  0
  190.0100  177.9600  144.4280 N   0  0  0  0  0  2  0  0  0  0  0  0
  191.6900  178.5880  142.9520 O   0  0  0  0  0  0  0  0  0  0  0  0
  188.9660  177.0860  144.7590 N   0  0  0  0  0  2  0  0  0  0  0  0
  188.2790  177.6560  145.9100 C   0  0  2  0  0  3  0  0  0  0  0  0
  188.7080  176.9020  147.1770 C   0  0  1  0  0  3  0  0  0  0  0  0
  191.3560  177.5310  148.1800 N   0  0  0  0  0  2  0  0  0  0  0  0
  189.9310  176.0640  146.8960 C   0  0  0  0  0  3  0  0  0  0  0  0
  190.2970  178.4920  148.4690 C   0  0  0  0  0  2  0  0  0  0  0  0
  188.9590  177.8360  148.3330 C   0  0  0  0  0  0  0  0  0  0  0  0
  191.1480  176.3780  147.3540 C   0  0  0  0  0  3  0  0  0  0  0  0
  188.0650  178.0960  149.1210 O   0  0  0  0  0  0  0  0  0  0  0  0
  186.4350  178.6330  144.7880 C   0  0  2  0  0  3  0  0  0  0  0  0
  186.2310  178.7900  146.2280 C   0  0  2  0  0  3  0  0  0  0  0  0
  184.0450  178.6310  145.1940 C   0  0  0  0  0  2  0  0  0  0  0  0
  185.0940  178.2990  144.1610 C   0  0  0  0  0  2  0  0  0  0  0  0
  186.8360  177.5510  145.7070 N   0  0  0  0  0  0  0  0  0  0  0  0
  184.7620  178.5510  146.5190 C   0  0  0  0  0  2  0  0  0  0  0  0
  191.8870  175.6290  138.1780 C   0  0  0  0  0  2  0  0  0  0  0  0
  193.1480  176.2890  137.6460 C   0  0  0  0  0  2  0  0  0  0  0  0
  194.7910  175.2160  136.1520 C   0  0  0  0  0  0  0  0  0  0  0  0
  194.4170  174.0700  135.4460 O   0  0  0  0  0  0  0  0  0  0  0  0
  196.2740  175.4870  136.0530 C   0  0  0  0  0  2  0  0  0  0  0  0
  193.6990  173.8880  137.6270 C   0  0  0  0  0  2  0  0  0  0  0  0
  193.5120  173.4330  136.2480 N   0  0  0  0  0  0  0  0  0  0  0  0
  195.2760  176.4200  135.3760 C   0  0  0  0  0  2  0  0  0  0  0  0
  194.2720  175.2700  137.5480 C   0  0  2  0  0  3  0  0  0  0  0  0
  193.9040  171.7390  136.2160 Cl  0  0  0  0  0  0  0  0  0  0  0  0
  1  4  1  0  0  0  0
  2 11  1  0  0  0  0
  3  5  1  0  0  0  0
  4  6  1  0  0  0  0
  4 16  1  1  0  0  0
  5  9  2  0  0  0  0
  5  2  1  0  0  0  0
  7 10  1  0  0  0  0
  7  3  2  0  0  0  0
  8  3  1  0  0  0  0
  9  1  1  0  0  0  0
 10 12  2  0  0  0  0
 11  6  1  0  0  0  0
 12 35  1  0  0  0  0
 12  9  1  0  0  0  0
 13 14  1  0  0  0  0
 14 10  1  0  0  0  0
 15 14  2  0  0  0  0
 16 17  1  0  0  0  0
 17 18  1  0  0  0  0
 18 20  1  0  0  0  0
 19 17  2  0  0  0  0
 21 20  1  6  0  0  0
 22 21  1  6  0  0  0
 22 26  1  0  0  0  0
 23 25  1  0  0  0  0
 24 22  1  0  0  0  0
 24 27  2  0  0  0  0
 26 25  1  0  0  0  0
 26 28  2  0  0  0  0
 27 23  1  0  0  0  0
 29 32  1  6  0  0  0
 29 33  1  0  0  0  0
 29 30  1  0  0  0  0
 30 34  1  6  0  0  0
 31 34  1  0  0  0  0
 32 31  1  0  0  0  0
 33 21  1  0  0  0  0
 33 30  1  0  0  0  0
 36 35  1  0  0  0  0
 37 43  1  0  0  0  0
 38 37  1  0  0  0  0
 38 41  1  0  0  0  0
 39 37  1  0  0  0  0
 41 40  1  0  0  0  0
 42 39  1  0  0  0  0
 42 37  1  0  0  0  0
 43 40  1  0  0  0  0
 43 36  1  6  0  0  0
 44 41  1  0  0  0  0
M  END
>  <MODEL>
8

>  <REMARK>
 VINA RESULT:      -7.6      4.347      8.783
  Name = 
  10 active torsions:
  status: ('A' for Active; 'I' for Inactive)
    1  A    between atoms: C_1  and  C_8
    2  A    between atoms: C_1  and  C_16
    3  A    between atoms: C_3  and  C_37
    4  A    between atoms: C_4  and  C_43
    5  A    between atoms: N_10  and  N_41
    6  A    between atoms: C_15  and  C_22
    7  A    between atoms: C_15  and  C_44
    8  A    between atoms: C_22  and  C_35
    9  A    between atoms: N_36  and  C_43
   10  A    between atoms: N_41  and  C_43
                            x       y       z     vdW  Elec       q    Type
                         _______ _______ _______ _____ _____    ______ ____

>  <TORSDO>
F 10

$$$$
=
 OpenBabel11032420523D

 44 50  0  0  1  0  0  0  0  0999 V2000
  186.2210  177.4740  143.3150 C   0  0  0  0  0  2  0  0  0  0  0  0
  186.1850  177.9720  146.1780 O   0  0  0  0  0  0  0  0  0  0  0  0
  188.5460  177.5030  146.3280 C   0  0  0  0  0  0  0  0  0  0  0  0
  185.5300  178.8230  143.3400 C   0  0  2  0  0  3  0  0  0  0  0  0
  187.3940  177.6540  145.5470 C   0  0  0  0  0  0  0  0  0  0  0  0
  184.6160  178.8840  144.5550 C   0  0  0  0  0  2  0  0  0  0  0  0
  189.7690  177.2280  145.7260 C   0  0  0  0  0  3  0  0  0  0  0  0
  188.4930  177.6630  147.8080 C   0  0  0  0  0  1  0  0  0  0  0  0
  187.4710  177.4740  144.1490 C   0  0  0  0  0  0  0  0  0  0  0  0
  189.8830  177.0780  144.3390 C   0  0  0  0  0  0  0  0  0  0  0  0
  185.4170  179.1170  145.8240 C   0  0  0  0  0  2  0  0  0  0  0  0
  188.7170  177.1920  143.5400 C   0  0  0  0  0  0  0  0  0  0  0  0
  191.6800  175.6110  143.7310 O   0  0  0  0  0  1  0  0  0  0  0  0
  191.2350  176.7860  143.7970 C   0  0  0  0  0  0  0  0  0  0  0  0
  192.0390  177.8290  143.3500 O   0  0  0  0  0  0  0  0  0  0  0  0
  184.7150  178.9710  142.0670 C   0  0  0  0  0  2  0  0  0  0  0  0
  183.2660  178.7010  142.3210 C   0  0  0  0  0  0  0  0  0  0  0  0
  182.4210  178.2210  141.2760 N   0  0  0  0  0  2  0  0  0  0  0  0
  182.7920  178.8790  143.4730 O   0  0  0  0  0  0  0  0  0  0  0  0
  182.9100  178.0530  139.9740 N   0  0  0  0  0  2  0  0  0  0  0  0
  181.8070  178.3300  139.0630 C   0  0  2  0  0  3  0  0  0  0  0  0
  182.1030  177.6850  137.7020 C   0  0  1  0  0  3  0  0  0  0  0  0
  183.4070  175.0950  137.7920 N   0  0  0  0  0  2  0  0  0  0  0  0
  183.5900  177.4880  137.5300 C   0  0  0  0  0  3  0  0  0  0  0  0
  181.9740  175.1210  138.0650 C   0  0  0  0  0  2  0  0  0  0  0  0
  181.3720  176.3790  137.5230 C   0  0  0  0  0  0  0  0  0  0  0  0
  184.1760  176.2880  137.5900 C   0  0  0  0  0  3  0  0  0  0  0  0
  180.2760  176.3540  136.9880 O   0  0  0  0  0  0  0  0  0  0  0  0
  180.2170  180.0850  139.1110 C   0  0  2  0  0  3  0  0  0  0  0  0
  180.7780  180.0120  137.7630 C   0  0  2  0  0  3  0  0  0  0  0  0
  180.1740  182.3220  138.1790 C   0  0  0  0  0  2  0  0  0  0  0  0
  180.0540  181.5510  139.4700 C   0  0  0  0  0  2  0  0  0  0  0  0
  181.6470  179.7750  138.9290 N   0  0  0  0  0  0  0  0  0  0  0  0
  180.9780  181.4310  137.2640 C   0  0  0  0  0  2  0  0  0  0  0  0
  188.7760  177.0390  142.0480 C   0  0  0  0  0  2  0  0  0  0  0  0
  188.5940  178.3930  141.3810 C   0  0  0  0  0  2  0  0  0  0  0  0
  188.6420  177.7720  138.9950 C   0  0  0  0  0  0  0  0  0  0  0  0
  189.1650  176.5300  138.6290 O   0  0  0  0  0  0  0  0  0  0  0  0
  188.3930  178.6600  137.7980 C   0  0  0  0  0  2  0  0  0  0  0  0
  190.5560  177.5130  140.1780 C   0  0  0  0  0  2  0  0  0  0  0  0
  190.1300  176.2580  139.5580 N   0  0  0  0  0  0  0  0  0  0  0  0
  187.2200  178.1060  138.6020 C   0  0  0  0  0  2  0  0  0  0  0  0
  189.3920  178.4530  140.0890 C   0  0  2  0  0  3  0  0  0  0  0  0
  191.5030  175.6260  138.6980 Cl  0  0  0  0  0  0  0  0  0  0  0  0
  1  4  1  0  0  0  0
  1  9  1  0  0  0  0
  3  8  1  0  0  0  0
  4 16  1  6  0  0  0
  4  6  1  0  0  0  0
  5  2  1  0  0  0  0
  5  3  2  0  0  0  0
  6 11  1  0  0  0  0
  7  3  1  0  0  0  0
  9  5  1  0  0  0  0
 10  7  2  0  0  0  0
 11  2  1  0  0  0  0
 12  9  2  0  0  0  0
 12 10  1  0  0  0  0
 13 14  1  0  0  0  0
 14 10  1  0  0  0  0
 15 14  2  0  0  0  0
 16 17  1  0  0  0  0
 17 19  2  0  0  0  0
 18 17  1  0  0  0  0
 20 18  1  0  0  0  0
 21 20  1  1  0  0  0
 22 21  1  1  0  0  0
 23 25  1  0  0  0  0
 24 27  2  0  0  0  0
 24 22  1  0  0  0  0
 26 22  1  0  0  0  0
 26 25  1  0  0  0  0
 27 23  1  0  0  0  0
 28 26  2  0  0  0  0
 29 32  1  1  0  0  0
 30 34  1  1  0  0  0
 30 33  1  0  0  0  0
 30 29  1  0  0  0  0
 31 32  1  0  0  0  0
 33 21  1  0  0  0  0
 33 29  1  0  0  0  0
 34 31  1  0  0  0  0
 35 12  1  0  0  0  0
 36 35  1  0  0  0  0
 37 43  1  0  0  0  0
 38 37  1  0  0  0  0
 38 41  1  0  0  0  0
 39 42  1  0  0  0  0
 39 37  1  0  0  0  0
 41 40  1  0  0  0  0
 42 37  1  0  0  0  0
 43 40  1  0  0  0  0
 43 36  1  1  0  0  0
 44 41  1  0  0  0  0
M  END
>  <MODEL>
9

>  <REMARK>
 VINA RESULT:      -7.6      1.635      3.557
  Name = 
  10 active torsions:
  status: ('A' for Active; 'I' for Inactive)
    1  A    between atoms: C_1  and  C_8
    2  A    between atoms: C_1  and  C_16
    3  A    between atoms: C_3  and  C_37
    4  A    between atoms: C_4  and  C_43
    5  A    between atoms: N_10  and  N_41
    6  A    between atoms: C_15  and  C_22
    7  A    between atoms: C_15  and  C_44
    8  A    between atoms: C_22  and  C_35
    9  A    between atoms: N_36  and  C_43
   10  A    between atoms: N_41  and  C_43
                            x       y       z     vdW  Elec       q    Type
                         _______ _______ _______ _____ _____    ______ ____

>  <TORSDO>
F 10

$$$$
