=
 OpenBabel11042412363D

 41 45  0  0  1  0  0  0  0  0999 V2000
  191.6150  176.2980  144.0750 N   0  0  0  0  0  1  0  0  0  0  0  0
  187.8400  177.5310  145.4220 C   0  0  0  0  0  3  0  0  0  0  0  0
  190.3210  176.7080  144.5080 C   0  0  0  0  0  0  0  0  0  0  0  0
  189.9980  178.0150  148.5040 C   0  0  0  0  0  1  0  0  0  0  0  0
  190.1560  177.1270  145.7900 N   0  0  0  0  0  0  0  0  0  0  0  0
  187.9580  177.0960  144.1020 C   0  0  0  0  0  0  0  0  0  0  0  0
  187.5600  178.4200  148.1830 C   0  0  0  0  0  1  0  0  0  0  0  0
  188.8350  177.9870  147.6310 N   0  0  0  0  0  0  0  0  0  0  0  0
  188.9530  177.5420  146.2700 C   0  0  0  0  0  0  0  0  0  0  0  0
  189.2280  176.6890  143.6220 C   0  0  0  0  0  0  0  0  0  0  0  0
  186.7680  177.1110  143.2980 N   0  0  0  0  0  2  0  0  0  0  0  0
  186.2230  178.2650  142.6010 C   0  0  0  0  0  2  0  0  0  0  0  0
  184.8150  178.4930  143.0360 C   0  0  0  0  0  0  0  0  0  0  0  0
  181.6230  178.3750  140.2070 C   0  0  0  0  0  2  0  0  0  0  0  0
  182.1910  179.0000  143.8910 C   0  0  0  0  0  3  0  0  0  0  0  0
  182.4590  178.8140  142.5330 C   0  0  0  0  0  0  0  0  0  0  0  0
  183.0020  178.8170  139.7160 C   0  0  0  0  0  2  0  0  0  0  0  0
  184.5390  178.6800  144.3960 C   0  0  0  0  0  3  0  0  0  0  0  0
  184.0240  178.4490  140.6920 N   0  0  0  0  0  2  0  0  0  0  0  0
  183.7740  178.5830  142.0970 C   0  0  0  0  0  0  0  0  0  0  0  0
  183.2320  178.9340  144.8220 C   0  0  0  0  0  3  0  0  0  0  0  0
  181.4000  178.8500  141.5710 N   0  0  0  0  0  2  0  0  0  0  0  0
  189.4630  176.3070  142.1890 C   0  0  0  0  0  2  0  0  0  0  0  0
  190.2860  177.3870  138.9360 C   0  0  1  0  0  3  0  0  0  0  0  0
  188.3700  178.8320  138.6300 O   0  0  0  0  0  0  0  0  0  0  0  0
  189.1440  178.2060  139.4000 C   0  0  0  0  0  0  0  0  0  0  0  0
  189.0080  178.2480  140.8030 N   0  0  0  0  0  2  0  0  0  0  0  0
  190.9400  176.9440  140.2430 C   0  0  1  0  0  3  0  0  0  0  0  0
  192.3250  177.5520  140.3490 C   0  0  0  0  0  1  0  0  0  0  0  0
  190.0690  177.4620  141.4000 C   0  0  2  0  0  3  0  0  0  0  0  0
  189.7940  176.1570  138.1880 C   0  0  0  0  0  2  0  0  0  0  0  0
  190.5890  175.9590  136.9120 C   0  0  0  0  0  2  0  0  0  0  0  0
  191.7960  175.3260  137.2140 O   0  0  0  0  0  0  0  0  0  0  0  0
  194.0120  172.6320  136.6430 C   0  0  0  0  0  2  0  0  0  0  0  0
  192.5650  175.4380  136.0480 C   0  0  1  0  0  3  0  0  0  0  0  0
  195.0380  174.8880  136.7040 C   0  0  0  0  0  2  0  0  0  0  0  0
  193.9610  176.9440  137.3270 O   0  0  0  0  0  1  0  0  0  0  0  0
  193.9880  175.9460  136.3510 C   0  0  2  0  0  3  0  0  0  0  0  0
  192.6080  172.8950  136.1130 C   0  0  0  0  0  2  0  0  0  0  0  0
  192.5360  174.1420  135.2310 C   0  0  0  0  0  2  0  0  0  0  0  0
  194.4980  173.7480  137.5530 C   0  0  0  0  0  2  0  0  0  0  0  0
  1  3  1  0  0  0  0
  2  9  1  0  0  0  0
  3  5  1  0  0  0  0
  5  9  2  0  0  0  0
  6  2  2  0  0  0  0
  8  7  1  0  0  0  0
  8  4  1  0  0  0  0
  9  8  1  0  0  0  0
 10  6  1  0  0  0  0
 10  3  2  0  0  0  0
 11  6  1  0  0  0  0
 12 13  1  0  0  0  0
 12 11  1  0  0  0  0
 13 18  1  0  0  0  0
 14 22  1  0  0  0  0
 15 21  1  0  0  0  0
 16 15  2  0  0  0  0
 17 14  1  0  0  0  0
 17 19  1  0  0  0  0
 18 21  2  0  0  0  0
 19 20  1  0  0  0  0
 20 16  1  0  0  0  0
 20 13  2  0  0  0  0
 22 16  1  0  0  0  0
 23 10  1  0  0  0  0
 24 31  1  1  0  0  0
 24 26  1  0  0  0  0
 24 28  1  0  0  0  0
 25 26  2  0  0  0  0
 26 27  1  0  0  0  0
 27 30  1  0  0  0  0
 28 29  1  1  0  0  0
 28 30  1  0  0  0  0
 30 23  1  6  0  0  0
 32 33  1  0  0  0  0
 32 31  1  0  0  0  0
 34 41  1  0  0  0  0
 35 38  1  0  0  0  0
 35 33  1  1  0  0  0
 36 41  1  0  0  0  0
 38 36  1  0  0  0  0
 38 37  1  1  0  0  0
 39 34  1  0  0  0  0
 40 35  1  0  0  0  0
 40 39  1  0  0  0  0
M  END
>  <MODEL>
1

>  <REMARK>
 VINA RESULT:      -9.3      0.000      0.000
  Name = 
  9 active torsions:
  status: ('A' for Active; 'I' for Inactive)
    1  A    between atoms: C_1  and  C_34
    2  A    between atoms: C_4  and  C_11
    3  A    between atoms: C_9  and  O_25
    4  A    between atoms: C_9  and  C_34
    5  A    between atoms: C_10  and  O_25
    6  A    between atoms: C_11  and  N_23
    7  A    between atoms: N_23  and  C_24
    8  A    between atoms: C_31  and  C_38
    9  A    between atoms: C_31  and  C_41
                            x       y       z     vdW  Elec       q    Type
                         _______ _______ _______ _____ _____    ______ ____

>  <TORSDO>
F 9

$$$$
=
 OpenBabel11042412363D

 41 45  0  0  1  0  0  0  0  0999 V2000
  191.6800  176.3140  144.0800 N   0  0  0  0  0  1  0  0  0  0  0  0
  187.9440  177.4980  145.5760 C   0  0  0  0  0  3  0  0  0  0  0  0
  190.3990  176.7070  144.5650 C   0  0  0  0  0  0  0  0  0  0  0  0
  190.2120  177.9920  148.5760 C   0  0  0  0  0  1  0  0  0  0  0  0
  190.2780  177.1190  145.8540 N   0  0  0  0  0  0  0  0  0  0  0  0
  188.0180  177.0710  144.2490 C   0  0  0  0  0  0  0  0  0  0  0  0
  187.7590  178.3710  148.3490 C   0  0  0  0  0  1  0  0  0  0  0  0
  189.0170  177.9550  147.7480 N   0  0  0  0  0  0  0  0  0  0  0  0
  189.0890  177.5180  146.3810 C   0  0  0  0  0  0  0  0  0  0  0  0
  189.2730  176.6800  143.7200 C   0  0  0  0  0  0  0  0  0  0  0  0
  186.7990  177.0750  143.4910 N   0  0  0  0  0  2  0  0  0  0  0  0
  186.2710  178.1970  142.7310 C   0  0  0  0  0  2  0  0  0  0  0  0
  184.8590  178.4570  143.1370 C   0  0  0  0  0  0  0  0  0  0  0  0
  181.7150  178.3470  140.2550 C   0  0  0  0  0  2  0  0  0  0  0  0
  182.2300  179.0220  143.9380 C   0  0  0  0  0  3  0  0  0  0  0  0
  182.5180  178.8100  142.5880 C   0  0  0  0  0  0  0  0  0  0  0  0
  183.1100  178.7580  139.7810 C   0  0  0  0  0  2  0  0  0  0  0  0
  184.5630  178.6700  144.4890 C   0  0  0  0  0  3  0  0  0  0  0  0
  184.1080  178.3890  140.7810 N   0  0  0  0  0  2  0  0  0  0  0  0
  183.8360  178.5490  142.1790 C   0  0  0  0  0  0  0  0  0  0  0  0
  183.2530  178.9530  144.8880 C   0  0  0  0  0  3  0  0  0  0  0  0
  181.4770  178.8490  141.6060 N   0  0  0  0  0  2  0  0  0  0  0  0
  189.4580  176.3080  142.2770 C   0  0  0  0  0  2  0  0  0  0  0  0
  190.3700  177.3370  139.0310 C   0  0  1  0  0  3  0  0  0  0  0  0
  188.4790  178.8010  138.6630 O   0  0  0  0  0  0  0  0  0  0  0  0
  189.2280  178.1750  139.4580 C   0  0  0  0  0  0  0  0  0  0  0  0
  189.0600  178.2360  140.8570 N   0  0  0  0  0  2  0  0  0  0  0  0
  190.9890  176.9020  140.3590 C   0  0  1  0  0  3  0  0  0  0  0  0
  192.3780  177.4950  140.4900 C   0  0  0  0  0  1  0  0  0  0  0  0
  190.0970  177.4450  141.4890 C   0  0  2  0  0  3  0  0  0  0  0  0
  189.8800  176.1030  138.2870 C   0  0  0  0  0  2  0  0  0  0  0  0
  189.2450  176.4980  136.9680 C   0  0  0  0  0  2  0  0  0  0  0  0
  187.9730  175.9310  136.8800 O   0  0  0  0  0  0  0  0  0  0  0  0
  184.4850  176.4660  137.0830 C   0  0  0  0  0  2  0  0  0  0  0  0
  187.4020  176.5000  135.7350 C   0  0  1  0  0  3  0  0  0  0  0  0
  185.2640  175.0990  135.1660 C   0  0  0  0  0  2  0  0  0  0  0  0
  187.4900  174.2700  134.8000 O   0  0  0  0  0  1  0  0  0  0  0  0
  186.7240  175.4370  134.8480 C   0  0  2  0  0  3  0  0  0  0  0  0
  185.6530  177.4080  137.3450 C   0  0  0  0  0  2  0  0  0  0  0  0
  186.4860  177.6770  136.0910 C   0  0  0  0  0  2  0  0  0  0  0  0
  184.9490  175.0840  136.6540 C   0  0  0  0  0  2  0  0  0  0  0  0
  1  3  1  0  0  0  0
  2  9  1  0  0  0  0
  3  5  1  0  0  0  0
  5  9  2  0  0  0  0
  6  2  2  0  0  0  0
  8  7  1  0  0  0  0
  8  4  1  0  0  0  0
  9  8  1  0  0  0  0
 10  6  1  0  0  0  0
 10  3  2  0  0  0  0
 11  6  1  0  0  0  0
 12 13  1  0  0  0  0
 12 11  1  0  0  0  0
 13 18  1  0  0  0  0
 14 22  1  0  0  0  0
 15 21  1  0  0  0  0
 16 15  2  0  0  0  0
 17 14  1  0  0  0  0
 17 19  1  0  0  0  0
 18 21  2  0  0  0  0
 19 20  1  0  0  0  0
 20 16  1  0  0  0  0
 20 13  2  0  0  0  0
 22 16  1  0  0  0  0
 23 10  1  0  0  0  0
 24 31  1  1  0  0  0
 24 26  1  0  0  0  0
 24 28  1  0  0  0  0
 25 26  2  0  0  0  0
 26 27  1  0  0  0  0
 27 30  1  0  0  0  0
 28 29  1  1  0  0  0
 28 30  1  0  0  0  0
 30 23  1  6  0  0  0
 32 31  1  0  0  0  0
 33 32  1  0  0  0  0
 34 39  1  0  0  0  0
 35 40  1  0  0  0  0
 35 33  1  1  0  0  0
 36 41  1  0  0  0  0
 38 37  1  1  0  0  0
 38 36  1  0  0  0  0
 38 35  1  0  0  0  0
 40 39  1  0  0  0  0
 41 34  1  0  0  0  0
M  END
>  <MODEL>
2

>  <REMARK>
 VINA RESULT:      -9.0      2.292      3.741
  Name = 
  9 active torsions:
  status: ('A' for Active; 'I' for Inactive)
    1  A    between atoms: C_1  and  C_34
    2  A    between atoms: C_4  and  C_11
    3  A    between atoms: C_9  and  O_25
    4  A    between atoms: C_9  and  C_34
    5  A    between atoms: C_10  and  O_25
    6  A    between atoms: C_11  and  N_23
    7  A    between atoms: N_23  and  C_24
    8  A    between atoms: C_31  and  C_38
    9  A    between atoms: C_31  and  C_41
                            x       y       z     vdW  Elec       q    Type
                         _______ _______ _______ _____ _____    ______ ____

>  <TORSDO>
F 9

$$$$
=
 OpenBabel11042412363D

 41 45  0  0  1  0  0  0  0  0999 V2000
  190.3900  176.6530  137.4780 N   0  0  0  0  0  1  0  0  0  0  0  0
  186.2250  177.1500  137.5310 C   0  0  0  0  0  3  0  0  0  0  0  0
  188.9780  176.8420  137.5160 C   0  0  0  0  0  0  0  0  0  0  0  0
  186.7240  174.8030  134.5940 C   0  0  0  0  0  1  0  0  0  0  0  0
  188.2030  176.2180  136.5900 N   0  0  0  0  0  0  0  0  0  0  0  0
  186.9810  177.8210  138.4940 C   0  0  0  0  0  0  0  0  0  0  0  0
  184.6260  175.7810  135.5170 C   0  0  0  0  0  1  0  0  0  0  0  0
  186.0740  175.6540  135.5770 N   0  0  0  0  0  0  0  0  0  0  0  0
  186.8480  176.3440  136.5720 C   0  0  0  0  0  0  0  0  0  0  0  0
  188.3880  177.6550  138.5030 C   0  0  0  0  0  0  0  0  0  0  0  0
  186.2670  178.6310  139.4400 N   0  0  0  0  0  2  0  0  0  0  0  0
  184.8230  178.6770  139.6060 C   0  0  0  0  0  2  0  0  0  0  0  0
  184.4880  178.7570  141.0570 C   0  0  0  0  0  0  0  0  0  0  0  0
  180.4330  178.5270  142.3660 C   0  0  0  0  0  2  0  0  0  0  0  0
  183.9040  178.9850  143.7920 C   0  0  0  0  0  3  0  0  0  0  0  0
  182.8660  178.9020  142.8610 C   0  0  0  0  0  0  0  0  0  0  0  0
  180.7090  179.1150  140.9810 C   0  0  0  0  0  2  0  0  0  0  0  0
  185.5240  178.8400  141.9960 C   0  0  0  0  0  3  0  0  0  0  0  0
  182.0660  178.7810  140.5560 N   0  0  0  0  0  2  0  0  0  0  0  0
  183.1530  178.8110  141.4890 C   0  0  0  0  0  0  0  0  0  0  0  0
  185.2330  178.9550  143.3580 C   0  0  0  0  0  3  0  0  0  0  0  0
  181.5010  178.9020  143.2910 N   0  0  0  0  0  2  0  0  0  0  0  0
  189.2640  178.2550  139.5650 C   0  0  0  0  0  2  0  0  0  0  0  0
  190.9670  177.3250  142.5080 C   0  0  1  0  0  3  0  0  0  0  0  0
  189.4300  175.5800  143.1780 O   0  0  0  0  0  0  0  0  0  0  0  0
  189.8980  176.3280  142.2790 C   0  0  0  0  0  0  0  0  0  0  0  0
  189.4560  176.2650  140.9420 N   0  0  0  0  0  2  0  0  0  0  0  0
  191.2270  177.8730  141.1060 C   0  0  1  0  0  3  0  0  0  0  0  0
  192.6320  177.5040  140.6700 C   0  0  0  0  0  1  0  0  0  0  0  0
  190.2120  177.2170  140.1530 C   0  0  2  0  0  3  0  0  0  0  0  0
  190.4640  178.4560  143.3930 C   0  0  0  0  0  2  0  0  0  0  0  0
  190.7880  178.1740  144.8480 C   0  0  0  0  0  2  0  0  0  0  0  0
  189.6560  178.4140  145.6280 O   0  0  0  0  0  0  0  0  0  0  0  0
  186.5550  178.4400  147.3250 C   0  0  0  0  0  2  0  0  0  0  0  0
  189.1270  177.1450  145.8980 C   0  0  1  0  0  3  0  0  0  0  0  0
  188.3730  177.1450  148.4050 C   0  0  0  0  0  2  0  0  0  0  0  0
  190.6840  177.0840  147.7480 O   0  0  0  0  0  1  0  0  0  0  0  0
  189.3980  176.7120  147.3520 C   0  0  2  0  0  3  0  0  0  0  0  0
  186.8760  178.3310  145.8390 C   0  0  0  0  0  2  0  0  0  0  0  0
  187.6500  177.0580  145.4960 C   0  0  0  0  0  2  0  0  0  0  0  0
  187.8110  178.5390  148.1760 C   0  0  0  0  0  2  0  0  0  0  0  0
  1  3  1  0  0  0  0
  2  6  1  0  0  0  0
  3 10  1  0  0  0  0
  4  8  1  0  0  0  0
  5  3  2  0  0  0  0
  6 10  2  0  0  0  0
  6 11  1  0  0  0  0
  7  8  1  0  0  0  0
  8  9  1  0  0  0  0
  9  5  1  0  0  0  0
  9  2  2  0  0  0  0
 10 23  1  0  0  0  0
 11 12  1  0  0  0  0
 12 13  1  0  0  0  0
 13 20  2  0  0  0  0
 13 18  1  0  0  0  0
 14 22  1  0  0  0  0
 16 22  1  0  0  0  0
 16 15  2  0  0  0  0
 17 14  1  0  0  0  0
 18 21  2  0  0  0  0
 19 17  1  0  0  0  0
 19 20  1  0  0  0  0
 20 16  1  0  0  0  0
 21 15  1  0  0  0  0
 24 31  1  1  0  0  0
 26 24  1  0  0  0  0
 26 25  2  0  0  0  0
 27 26  1  0  0  0  0
 28 29  1  6  0  0  0
 28 24  1  0  0  0  0
 30 23  1  1  0  0  0
 30 27  1  0  0  0  0
 30 28  1  0  0  0  0
 31 32  1  0  0  0  0
 32 33  1  0  0  0  0
 34 41  1  0  0  0  0
 35 33  1  1  0  0  0
 35 38  1  0  0  0  0
 38 37  1  1  0  0  0
 38 36  1  0  0  0  0
 39 34  1  0  0  0  0
 40 39  1  0  0  0  0
 40 35  1  0  0  0  0
 41 36  1  0  0  0  0
M  END
>  <MODEL>
3

>  <REMARK>
 VINA RESULT:      -8.5      3.372      7.856
  Name = 
  9 active torsions:
  status: ('A' for Active; 'I' for Inactive)
    1  A    between atoms: C_1  and  C_34
    2  A    between atoms: C_4  and  C_11
    3  A    between atoms: C_9  and  O_25
    4  A    between atoms: C_9  and  C_34
    5  A    between atoms: C_10  and  O_25
    6  A    between atoms: C_11  and  N_23
    7  A    between atoms: N_23  and  C_24
    8  A    between atoms: C_31  and  C_38
    9  A    between atoms: C_31  and  C_41
                            x       y       z     vdW  Elec       q    Type
                         _______ _______ _______ _____ _____    ______ ____

>  <TORSDO>
F 9

$$$$
=
 OpenBabel11042412363D

 41 45  0  0  1  0  0  0  0  0999 V2000
  186.5610  177.9620  136.2190 N   0  0  0  0  0  1  0  0  0  0  0  0
  188.5230  177.8800  139.9250 C   0  0  0  0  0  3  0  0  0  0  0  0
  187.2030  177.9390  137.4910 C   0  0  0  0  0  0  0  0  0  0  0  0
  191.2440  176.7360  137.5420 C   0  0  0  0  0  1  0  0  0  0  0  0
  188.5020  177.5480  137.5690 N   0  0  0  0  0  0  0  0  0  0  0  0
  187.1860  178.2770  139.8970 C   0  0  0  0  0  0  0  0  0  0  0  0
  191.3100  177.0320  140.0160 C   0  0  0  0  0  1  0  0  0  0  0  0
  190.5580  177.1010  138.7720 N   0  0  0  0  0  0  0  0  0  0  0  0
  189.1810  177.5120  138.7470 C   0  0  0  0  0  0  0  0  0  0  0  0
  186.5080  178.3250  138.6530 C   0  0  0  0  0  0  0  0  0  0  0  0
  186.5820  178.6350  141.1490 N   0  0  0  0  0  2  0  0  0  0  0  0
  186.7570  177.9350  142.4120 C   0  0  0  0  0  2  0  0  0  0  0  0
  185.6630  178.3170  143.3510 C   0  0  0  0  0  0  0  0  0  0  0  0
  186.4220  178.6830  147.5340 C   0  0  0  0  0  2  0  0  0  0  0  0
  183.5560  178.9670  145.0870 C   0  0  0  0  0  3  0  0  0  0  0  0
  184.8170  178.6650  145.6030 C   0  0  0  0  0  0  0  0  0  0  0  0
  187.2670  177.6910  146.7350 C   0  0  0  0  0  2  0  0  0  0  0  0
  184.3950  178.6230  142.8400 C   0  0  0  0  0  3  0  0  0  0  0  0
  187.1380  177.9590  145.3050 N   0  0  0  0  0  2  0  0  0  0  0  0
  185.8690  178.3160  144.7410 C   0  0  0  0  0  0  0  0  0  0  0  0
  183.3450  178.9450  143.7050 C   0  0  0  0  0  3  0  0  0  0  0  0
  185.0570  178.7110  147.0140 N   0  0  0  0  0  2  0  0  0  0  0  0
  185.1040  178.8390  138.5200 C   0  0  0  0  0  2  0  0  0  0  0  0
  181.8530  177.6870  137.7880 C   0  0  1  0  0  3  0  0  0  0  0  0
  182.5210  175.9000  136.3000 O   0  0  0  0  0  0  0  0  0  0  0  0
  182.8090  176.7120  137.2180 C   0  0  0  0  0  0  0  0  0  0  0  0
  184.0850  176.7510  137.8170 N   0  0  0  0  0  2  0  0  0  0  0  0
  182.6600  178.3380  138.9110 C   0  0  1  0  0  3  0  0  0  0  0  0
  182.0320  178.0010  140.2490 C   0  0  0  0  0  1  0  0  0  0  0  0
  184.0840  177.7580  138.8590 C   0  0  2  0  0  3  0  0  0  0  0  0
  181.4940  178.7490  136.7590 C   0  0  0  0  0  2  0  0  0  0  0  0
  180.3440  179.6020  137.2580 C   0  0  0  0  0  2  0  0  0  0  0  0
  180.6870  180.9510  137.1480 O   0  0  0  0  0  0  0  0  0  0  0  0
  180.9550  184.0740  135.5150 C   0  0  0  0  0  2  0  0  0  0  0  0
  179.4700  181.6200  136.9640 C   0  0  1  0  0  3  0  0  0  0  0  0
  179.8340  184.0970  137.7270 C   0  0  0  0  0  2  0  0  0  0  0  0
  179.6820  182.2730  139.2840 O   0  0  0  0  0  1  0  0  0  0  0  0
  179.2540  182.7130  138.0290 C   0  0  2  0  0  3  0  0  0  0  0  0
  180.6320  182.6890  134.9680 C   0  0  0  0  0  2  0  0  0  0  0  0
  179.3230  182.1270  135.5250 C   0  0  0  0  0  2  0  0  0  0  0  0
  181.1790  184.0570  137.0190 C   0  0  0  0  0  2  0  0  0  0  0  0
  1  3  1  0  0  0  0
  3  5  2  0  0  0  0
  3 10  1  0  0  0  0
  4  8  1  0  0  0  0
  5  9  1  0  0  0  0
  6  2  1  0  0  0  0
  6 11  1  0  0  0  0
  8  7  1  0  0  0  0
  9  8  1  0  0  0  0
  9  2  2  0  0  0  0
 10  6  2  0  0  0  0
 11 12  1  0  0  0  0
 12 13  1  0  0  0  0
 13 20  1  0  0  0  0
 15 16  1  0  0  0  0
 16 22  1  0  0  0  0
 17 14  1  0  0  0  0
 18 13  2  0  0  0  0
 18 21  1  0  0  0  0
 19 17  1  0  0  0  0
 20 19  1  0  0  0  0
 20 16  2  0  0  0  0
 21 15  2  0  0  0  0
 22 14  1  0  0  0  0
 23 10  1  0  0  0  0
 24 31  1  6  0  0  0
 24 28  1  0  0  0  0
 25 26  2  0  0  0  0
 26 24  1  0  0  0  0
 26 27  1  0  0  0  0
 27 30  1  0  0  0  0
 28 29  1  1  0  0  0
 30 23  1  6  0  0  0
 30 28  1  0  0  0  0
 31 32  1  0  0  0  0
 33 32  1  0  0  0  0
 34 41  1  0  0  0  0
 35 33  1  6  0  0  0
 35 38  1  0  0  0  0
 36 38  1  0  0  0  0
 38 37  1  1  0  0  0
 39 34  1  0  0  0  0
 39 40  1  0  0  0  0
 40 35  1  0  0  0  0
 41 36  1  0  0  0  0
M  END
>  <MODEL>
4

>  <REMARK>
 VINA RESULT:      -8.4      3.939      9.655
  Name = 
  9 active torsions:
  status: ('A' for Active; 'I' for Inactive)
    1  A    between atoms: C_1  and  C_34
    2  A    between atoms: C_4  and  C_11
    3  A    between atoms: C_9  and  O_25
    4  A    between atoms: C_9  and  C_34
    5  A    between atoms: C_10  and  O_25
    6  A    between atoms: C_11  and  N_23
    7  A    between atoms: N_23  and  C_24
    8  A    between atoms: C_31  and  C_38
    9  A    between atoms: C_31  and  C_41
                            x       y       z     vdW  Elec       q    Type
                         _______ _______ _______ _____ _____    ______ ____

>  <TORSDO>
F 9

$$$$
=
 OpenBabel11042412363D

 41 45  0  0  1  0  0  0  0  0999 V2000
  191.1640  175.9700  143.3960 N   0  0  0  0  0  1  0  0  0  0  0  0
  187.6750  177.6200  145.0390 C   0  0  0  0  0  3  0  0  0  0  0  0
  189.9650  176.5260  143.9300 C   0  0  0  0  0  0  0  0  0  0  0  0
  189.9990  177.4910  148.0340 C   0  0  0  0  0  1  0  0  0  0  0  0
  189.9160  176.8450  145.2490 N   0  0  0  0  0  0  0  0  0  0  0  0
  187.6740  177.2960  143.6810 C   0  0  0  0  0  0  0  0  0  0  0  0
  187.6410  178.2820  147.8760 C   0  0  0  0  0  1  0  0  0  0  0  0
  188.8130  177.7170  147.2240 N   0  0  0  0  0  0  0  0  0  0  0  0
  188.8090  177.3870  145.8250 C   0  0  0  0  0  0  0  0  0  0  0  0
  188.8480  176.7510  143.1030 C   0  0  0  0  0  0  0  0  0  0  0  0
  186.4710  177.5610  142.9450 N   0  0  0  0  0  2  0  0  0  0  0  0
  185.9270  178.8760  142.6440 C   0  0  0  0  0  2  0  0  0  0  0  0
  184.4370  178.8180  142.6680 C   0  0  0  0  0  0  0  0  0  0  0  0
  182.2380  178.0290  139.0970 C   0  0  0  0  0  2  0  0  0  0  0  0
  181.6320  178.7900  142.7490 C   0  0  0  0  0  3  0  0  0  0  0  0
  182.2960  178.6500  141.5290 C   0  0  0  0  0  0  0  0  0  0  0  0
  183.5860  178.7380  138.9680 C   0  0  0  0  0  2  0  0  0  0  0  0
  183.7640  178.9560  143.8880 C   0  0  0  0  0  3  0  0  0  0  0  0
  184.3490  178.5930  140.2050 N   0  0  0  0  0  2  0  0  0  0  0  0
  183.6990  178.6860  141.4790 C   0  0  0  0  0  0  0  0  0  0  0  0
  182.3670  178.9440  143.9290 C   0  0  0  0  0  3  0  0  0  0  0  0
  181.5590  178.4620  140.3160 N   0  0  0  0  0  2  0  0  0  0  0  0
  188.9670  176.4730  141.6320 C   0  0  0  0  0  2  0  0  0  0  0  0
  190.1650  177.5090  138.4830 C   0  0  1  0  0  3  0  0  0  0  0  0
  188.4580  179.1730  138.0700 O   0  0  0  0  0  0  0  0  0  0  0  0
  189.0920  178.4460  138.8800 C   0  0  0  0  0  0  0  0  0  0  0  0
  188.8500  178.4780  140.2690 N   0  0  0  0  0  2  0  0  0  0  0  0
  190.6580  176.9680  139.8240 C   0  0  1  0  0  3  0  0  0  0  0  0
  192.0910  177.4090  140.0530 C   0  0  0  0  0  1  0  0  0  0  0  0
  189.7630  177.5630  140.9240 C   0  0  2  0  0  3  0  0  0  0  0  0
  189.5960  176.3580  137.6660 C   0  0  0  0  0  2  0  0  0  0  0  0
  189.3770  176.7870  136.2280 C   0  0  0  0  0  2  0  0  0  0  0  0
  188.2820  176.0980  135.7030 O   0  0  0  0  0  0  0  0  0  0  0  0
  185.6190  173.8300  135.1940 C   0  0  0  0  0  2  0  0  0  0  0  0
  187.3530  176.0450  136.7490 C   0  0  1  0  0  3  0  0  0  0  0  0
  184.9720  176.1770  135.6680 C   0  0  0  0  0  2  0  0  0  0  0  0
  186.4390  178.0760  135.8030 O   0  0  0  0  0  1  0  0  0  0  0  0
  186.0950  176.8800  136.4360 C   0  0  2  0  0  3  0  0  0  0  0  0
  186.9360  173.6680  135.9430 C   0  0  0  0  0  2  0  0  0  0  0  0
  187.0450  174.5980  137.1510 C   0  0  0  0  0  2  0  0  0  0  0  0
  185.4700  175.2200  134.5960 C   0  0  0  0  0  2  0  0  0  0  0  0
  1  3  1  0  0  0  0
  2  9  1  0  0  0  0
  3  5  1  0  0  0  0
  5  9  2  0  0  0  0
  6  2  2  0  0  0  0
  8  7  1  0  0  0  0
  8  4  1  0  0  0  0
  9  8  1  0  0  0  0
 10  6  1  0  0  0  0
 10  3  2  0  0  0  0
 11  6  1  0  0  0  0
 12 13  1  0  0  0  0
 12 11  1  0  0  0  0
 13 18  1  0  0  0  0
 14 22  1  0  0  0  0
 15 21  1  0  0  0  0
 16 15  2  0  0  0  0
 17 14  1  0  0  0  0
 17 19  1  0  0  0  0
 18 21  2  0  0  0  0
 19 20  1  0  0  0  0
 20 16  1  0  0  0  0
 20 13  2  0  0  0  0
 22 16  1  0  0  0  0
 23 10  1  0  0  0  0
 24 31  1  6  0  0  0
 24 26  1  0  0  0  0
 24 28  1  0  0  0  0
 25 26  2  0  0  0  0
 26 27  1  0  0  0  0
 27 30  1  0  0  0  0
 28 29  1  1  0  0  0
 28 30  1  0  0  0  0
 30 23  1  6  0  0  0
 32 31  1  0  0  0  0
 33 32  1  0  0  0  0
 34 39  1  0  0  0  0
 35 33  1  6  0  0  0
 35 40  1  0  0  0  0
 36 38  1  0  0  0  0
 38 37  1  6  0  0  0
 38 35  1  0  0  0  0
 39 40  1  0  0  0  0
 41 34  1  0  0  0  0
 41 36  1  0  0  0  0
M  END
>  <MODEL>
5

>  <REMARK>
 VINA RESULT:      -8.3      2.356      3.578
  Name = 
  9 active torsions:
  status: ('A' for Active; 'I' for Inactive)
    1  A    between atoms: C_1  and  C_34
    2  A    between atoms: C_4  and  C_11
    3  A    between atoms: C_9  and  O_25
    4  A    between atoms: C_9  and  C_34
    5  A    between atoms: C_10  and  O_25
    6  A    between atoms: C_11  and  N_23
    7  A    between atoms: N_23  and  C_24
    8  A    between atoms: C_31  and  C_38
    9  A    between atoms: C_31  and  C_41
                            x       y       z     vdW  Elec       q    Type
                         _______ _______ _______ _____ _____    ______ ____

>  <TORSDO>
F 9

$$$$
=
 OpenBabel11042412363D

 41 45  0  0  1  0  0  0  0  0999 V2000
  184.3900  178.4080  137.4580 N   0  0  0  0  0  1  0  0  0  0  0  0
  187.0800  178.5440  140.6740 C   0  0  0  0  0  3  0  0  0  0  0  0
  185.2830  178.4580  138.5680 C   0  0  0  0  0  0  0  0  0  0  0  0
  189.3300  177.5810  137.7750 C   0  0  0  0  0  1  0  0  0  0  0  0
  186.5960  178.1720  138.3730 N   0  0  0  0  0  0  0  0  0  0  0  0
  185.7380  178.8320  140.9250 C   0  0  0  0  0  0  0  0  0  0  0  0
  189.8840  177.9220  140.1810 C   0  0  0  0  0  1  0  0  0  0  0  0
  188.8870  177.9100  139.1210 N   0  0  0  0  0  0  0  0  0  0  0  0
  187.5060  178.2100  139.3840 C   0  0  0  0  0  0  0  0  0  0  0  0
  184.8150  178.8070  139.8500 C   0  0  0  0  0  0  0  0  0  0  0  0
  185.3800  179.1620  142.2760 N   0  0  0  0  0  2  0  0  0  0  0  0
  184.7990  178.2530  143.2510 C   0  0  0  0  0  2  0  0  0  0  0  0
  185.5840  178.3080  144.5170 C   0  0  0  0  0  0  0  0  0  0  0  0
  189.6550  177.0310  144.6040 C   0  0  0  0  0  2  0  0  0  0  0  0
  186.9990  178.3640  146.9400 C   0  0  0  0  0  3  0  0  0  0  0  0
  187.5930  177.8250  145.7970 C   0  0  0  0  0  0  0  0  0  0  0  0
  188.7160  176.3710  143.5930 C   0  0  0  0  0  2  0  0  0  0  0  0
  184.9950  178.8490  145.6670 C   0  0  0  0  0  3  0  0  0  0  0  0
  187.4990  177.1650  143.4460 N   0  0  0  0  0  2  0  0  0  0  0  0
  186.8810  177.7730  144.5880 C   0  0  0  0  0  0  0  0  0  0  0  0
  185.6990  178.8750  146.8740 C   0  0  0  0  0  3  0  0  0  0  0  0
  188.9330  177.3240  145.8410 N   0  0  0  0  0  2  0  0  0  0  0  0
  183.3770  179.2050  140.0130 C   0  0  0  0  0  2  0  0  0  0  0  0
  180.2360  177.6450  140.3740 C   0  0  1  0  0  3  0  0  0  0  0  0
  180.8210  175.5810  139.2570 O   0  0  0  0  0  0  0  0  0  0  0  0
  181.1780  176.6310  139.8530 C   0  0  0  0  0  0  0  0  0  0  0  0
  182.5330  176.9300  140.1050 N   0  0  0  0  0  2  0  0  0  0  0  0
  181.1600  178.6370  141.0790 C   0  0  1  0  0  3  0  0  0  0  0  0
  180.8740  178.6260  142.5680 C   0  0  0  0  0  1  0  0  0  0  0  0
  182.6080  178.1790  140.8370 C   0  0  2  0  0  3  0  0  0  0  0  0
  179.5290  178.3580  139.2300 C   0  0  0  0  0  2  0  0  0  0  0  0
  179.6170  179.8610  139.4070 C   0  0  0  0  0  2  0  0  0  0  0  0
  179.5050  180.4800  138.1610 O   0  0  0  0  0  0  0  0  0  0  0  0
  180.4200  183.4280  136.4370 C   0  0  0  0  0  2  0  0  0  0  0  0
  180.8030  180.4700  137.6350 C   0  0  1  0  0  3  0  0  0  0  0  0
  180.6360  181.3120  135.1620 C   0  0  0  0  0  2  0  0  0  0  0  0
  179.8760  179.1360  135.8430 O   0  0  0  0  0  1  0  0  0  0  0  0
  180.8060  180.1370  136.1300 C   0  0  2  0  0  3  0  0  0  0  0  0
  180.6680  183.0000  137.8790 C   0  0  0  0  0  2  0  0  0  0  0  0
  181.5570  181.7600  137.9800 C   0  0  0  0  0  2  0  0  0  0  0  0
  179.6600  182.3720  135.6500 C   0  0  0  0  0  2  0  0  0  0  0  0
  1  3  1  0  0  0  0
  2  6  1  0  0  0  0
  3 10  1  0  0  0  0
  4  8  1  0  0  0  0
  5  3  2  0  0  0  0
  5  9  1  0  0  0  0
  6 11  1  0  0  0  0
  8  9  1  0  0  0  0
  8  7  1  0  0  0  0
  9  2  2  0  0  0  0
 10 23  1  0  0  0  0
 10  6  2  0  0  0  0
 11 12  1  0  0  0  0
 12 13  1  0  0  0  0
 13 20  2  0  0  0  0
 13 18  1  0  0  0  0
 14 22  1  0  0  0  0
 16 22  1  0  0  0  0
 16 15  2  0  0  0  0
 17 14  1  0  0  0  0
 18 21  2  0  0  0  0
 19 17  1  0  0  0  0
 19 20  1  0  0  0  0
 20 16  1  0  0  0  0
 21 15  1  0  0  0  0
 24 31  1  6  0  0  0
 24 28  1  0  0  0  0
 25 26  2  0  0  0  0
 26 27  1  0  0  0  0
 26 24  1  0  0  0  0
 27 30  1  0  0  0  0
 28 29  1  1  0  0  0
 30 23  1  6  0  0  0
 30 28  1  0  0  0  0
 31 32  1  0  0  0  0
 33 32  1  0  0  0  0
 34 39  1  0  0  0  0
 35 40  1  0  0  0  0
 35 33  1  6  0  0  0
 36 41  1  0  0  0  0
 36 38  1  0  0  0  0
 38 37  1  1  0  0  0
 38 35  1  0  0  0  0
 39 40  1  0  0  0  0
 41 34  1  0  0  0  0
M  END
>  <MODEL>
6

>  <REMARK>
 VINA RESULT:      -8.3      4.133      9.721
  Name = 
  9 active torsions:
  status: ('A' for Active; 'I' for Inactive)
    1  A    between atoms: C_1  and  C_34
    2  A    between atoms: C_4  and  C_11
    3  A    between atoms: C_9  and  O_25
    4  A    between atoms: C_9  and  C_34
    5  A    between atoms: C_10  and  O_25
    6  A    between atoms: C_11  and  N_23
    7  A    between atoms: N_23  and  C_24
    8  A    between atoms: C_31  and  C_38
    9  A    between atoms: C_31  and  C_41
                            x       y       z     vdW  Elec       q    Type
                         _______ _______ _______ _____ _____    ______ ____

>  <TORSDO>
F 9

$$$$
=
 OpenBabel11042412363D

 41 45  0  0  1  0  0  0  0  0999 V2000
  187.6600  178.3120  136.1030 N   0  0  0  0  0  1  0  0  0  0  0  0
  186.2910  178.2520  140.0670 C   0  0  0  0  0  3  0  0  0  0  0  0
  187.2210  178.2960  137.4580 C   0  0  0  0  0  0  0  0  0  0  0  0
  183.0530  178.2520  138.0900 C   0  0  0  0  0  1  0  0  0  0  0  0
  185.8880  178.2930  137.7210 N   0  0  0  0  0  0  0  0  0  0  0  0
  187.6680  178.2680  139.8460 C   0  0  0  0  0  0  0  0  0  0  0  0
  183.4180  178.2460  140.5560 C   0  0  0  0  0  1  0  0  0  0  0  0
  183.9780  178.2550  139.2120 N   0  0  0  0  0  0  0  0  0  0  0  0
  185.3980  178.2680  138.9900 C   0  0  0  0  0  0  0  0  0  0  0  0
  188.1520  178.2730  138.5140 C   0  0  0  0  0  0  0  0  0  0  0  0
  188.5180  178.2550  141.0040 N   0  0  0  0  0  2  0  0  0  0  0  0
  188.8920  177.0800  141.7750 C   0  0  0  0  0  2  0  0  0  0  0  0
  188.4530  177.2490  143.1900 C   0  0  0  0  0  0  0  0  0  0  0  0
  191.2920  177.1270  146.3730 C   0  0  0  0  0  2  0  0  0  0  0  0
  187.5690  177.5010  145.8410 C   0  0  0  0  0  3  0  0  0  0  0  0
  188.9140  177.2340  145.5760 C   0  0  0  0  0  0  0  0  0  0  0  0
  191.5920  176.3170  145.1110 C   0  0  0  0  0  2  0  0  0  0  0  0
  187.1060  177.5180  143.4620 C   0  0  0  0  0  3  0  0  0  0  0  0
  190.7330  176.7580  144.0160 N   0  0  0  0  0  2  0  0  0  0  0  0
  189.3570  177.0840  144.2520 C   0  0  0  0  0  0  0  0  0  0  0  0
  186.6650  177.6420  144.7830 C   0  0  0  0  0  3  0  0  0  0  0  0
  189.8570  177.1150  146.6460 N   0  0  0  0  0  2  0  0  0  0  0  0
  189.6160  178.1840  138.1880 C   0  0  0  0  0  2  0  0  0  0  0  0
  192.0650  175.8270  137.2550 C   0  0  1  0  0  3  0  0  0  0  0  0
  193.6330  176.3410  139.0250 O   0  0  0  0  0  0  0  0  0  0  0  0
  192.4600  176.3820  138.5680 C   0  0  0  0  0  0  0  0  0  0  0  0
  191.3900  176.9480  139.2910 N   0  0  0  0  0  2  0  0  0  0  0  0
  190.5530  176.0420  137.2360 C   0  0  1  0  0  3  0  0  0  0  0  0
  189.8500  174.6990  137.2270 C   0  0  0  0  0  1  0  0  0  0  0  0
  190.1740  176.8040  138.5170 C   0  0  2  0  0  3  0  0  0  0  0  0
  192.6920  176.6300  136.1240 C   0  0  0  0  0  2  0  0  0  0  0  0
  193.7880  175.8280  135.4490 C   0  0  0  0  0  2  0  0  0  0  0  0
  194.9070  175.7830  136.2810 O   0  0  0  0  0  0  0  0  0  0  0  0
  195.7820  173.1640  138.4880 C   0  0  0  0  0  2  0  0  0  0  0  0
  195.7340  174.8000  135.7220 C   0  0  1  0  0  3  0  0  0  0  0  0
  197.6730  174.3680  137.4270 C   0  0  0  0  0  2  0  0  0  0  0  0
  197.5430  176.3630  136.0930 O   0  0  0  0  0  1  0  0  0  0  0  0
  197.2100  175.0070  136.1150 C   0  0  2  0  0  3  0  0  0  0  0  0
  194.6720  173.2610  137.4480 C   0  0  0  0  0  2  0  0  0  0  0  0
  195.2100  173.3910  136.0230 C   0  0  0  0  0  2  0  0  0  0  0  0
  196.6330  174.4230  138.5350 C   0  0  0  0  0  2  0  0  0  0  0  0
  1  3  1  0  0  0  0
  3  5  2  0  0  0  0
  3 10  1  0  0  0  0
  4  8  1  0  0  0  0
  5  9  1  0  0  0  0
  6  2  1  0  0  0  0
  6 11  1  0  0  0  0
  8  7  1  0  0  0  0
  9  8  1  0  0  0  0
  9  2  2  0  0  0  0
 10  6  2  0  0  0  0
 11 12  1  0  0  0  0
 12 13  1  0  0  0  0
 13 18  2  0  0  0  0
 13 20  1  0  0  0  0
 14 22  1  0  0  0  0
 16 15  1  0  0  0  0
 16 22  1  0  0  0  0
 17 14  1  0  0  0  0
 18 21  1  0  0  0  0
 19 20  1  0  0  0  0
 19 17  1  0  0  0  0
 20 16  2  0  0  0  0
 21 15  2  0  0  0  0
 23 10  1  0  0  0  0
 24 31  1  6  0  0  0
 24 26  1  0  0  0  0
 26 25  2  0  0  0  0
 26 27  1  0  0  0  0
 28 29  1  1  0  0  0
 28 24  1  0  0  0  0
 28 30  1  0  0  0  0
 30 23  1  6  0  0  0
 30 27  1  0  0  0  0
 32 31  1  0  0  0  0
 32 33  1  0  0  0  0
 34 41  1  0  0  0  0
 35 40  1  0  0  0  0
 35 38  1  0  0  0  0
 35 33  1  1  0  0  0
 36 41  1  0  0  0  0
 38 37  1  1  0  0  0
 38 36  1  0  0  0  0
 39 34  1  0  0  0  0
 40 39  1  0  0  0  0
M  END
>  <MODEL>
7

>  <REMARK>
 VINA RESULT:      -8.2      2.064      6.098
  Name = 
  9 active torsions:
  status: ('A' for Active; 'I' for Inactive)
    1  A    between atoms: C_1  and  C_34
    2  A    between atoms: C_4  and  C_11
    3  A    between atoms: C_9  and  O_25
    4  A    between atoms: C_9  and  C_34
    5  A    between atoms: C_10  and  O_25
    6  A    between atoms: C_11  and  N_23
    7  A    between atoms: N_23  and  C_24
    8  A    between atoms: C_31  and  C_38
    9  A    between atoms: C_31  and  C_41
                            x       y       z     vdW  Elec       q    Type
                         _______ _______ _______ _____ _____    ______ ____

>  <TORSDO>
F 9

$$$$
=
 OpenBabel11042412363D

 41 45  0  0  1  0  0  0  0  0999 V2000
  191.6820  176.2300  144.4950 N   0  0  0  0  0  1  0  0  0  0  0  0
  187.7890  177.5680  145.3010 C   0  0  0  0  0  3  0  0  0  0  0  0
  190.3510  176.6750  144.7440 C   0  0  0  0  0  0  0  0  0  0  0  0
  189.5540  178.1720  148.6040 C   0  0  0  0  0  1  0  0  0  0  0  0
  190.0340  177.1560  145.9750 N   0  0  0  0  0  0  0  0  0  0  0  0
  188.0640  177.0700  144.0270 C   0  0  0  0  0  0  0  0  0  0  0  0
  187.1820  178.5890  147.9620 C   0  0  0  0  0  1  0  0  0  0  0  0
  188.5090  178.1160  147.5950 N   0  0  0  0  0  0  0  0  0  0  0  0
  188.7880  177.6060  146.2800 C   0  0  0  0  0  0  0  0  0  0  0  0
  189.3760  176.6260  143.7290 C   0  0  0  0  0  0  0  0  0  0  0  0
  186.9840  177.0600  143.0810 N   0  0  0  0  0  2  0  0  0  0  0  0
  186.3850  178.2290  142.4570 C   0  0  0  0  0  2  0  0  0  0  0  0
  185.0580  178.5040  143.0780 C   0  0  0  0  0  0  0  0  0  0  0  0
  181.5000  178.4220  140.7240 C   0  0  0  0  0  2  0  0  0  0  0  0
  182.5920  179.0970  144.2790 C   0  0  0  0  0  3  0  0  0  0  0  0
  182.6630  178.8800  142.9020 C   0  0  0  0  0  0  0  0  0  0  0  0
  182.8070  178.8180  140.0370 C   0  0  0  0  0  2  0  0  0  0  0  0
  184.9790  178.7220  144.4590 C   0  0  0  0  0  3  0  0  0  0  0  0
  183.9460  178.4400  140.8690 N   0  0  0  0  0  2  0  0  0  0  0  0
  183.8980  178.6050  142.2920 C   0  0  0  0  0  0  0  0  0  0  0  0
  183.7510  179.0190  145.0570 C   0  0  0  0  0  3  0  0  0  0  0  0
  181.4820  178.9280  142.0950 N   0  0  0  0  0  2  0  0  0  0  0  0
  189.7820  176.1750  142.3560 C   0  0  0  0  0  2  0  0  0  0  0  0
  190.1730  177.4020  139.0740 C   0  0  1  0  0  3  0  0  0  0  0  0
  188.3720  179.0140  139.1640 O   0  0  0  0  0  0  0  0  0  0  0  0
  189.1990  178.2770  139.7620 C   0  0  0  0  0  0  0  0  0  0  0  0
  189.2910  178.2350  141.1690 N   0  0  0  0  0  2  0  0  0  0  0  0
  190.9840  176.8200  140.2310 C   0  0  1  0  0  3  0  0  0  0  0  0
  192.4170  177.3050  140.1410 C   0  0  0  0  0  1  0  0  0  0  0  0
  190.3580  177.3280  141.5410 C   0  0  2  0  0  3  0  0  0  0  0  0
  189.4590  176.2680  138.3530 C   0  0  0  0  0  2  0  0  0  0  0  0
  190.4550  175.4130  137.5930 C   0  0  0  0  0  2  0  0  0  0  0  0
  189.7890  174.3350  137.0100 O   0  0  0  0  0  0  0  0  0  0  0  0
  187.4070  172.7650  134.9220 C   0  0  0  0  0  2  0  0  0  0  0  0
  190.0500  174.4470  135.6380 C   0  0  1  0  0  3  0  0  0  0  0  0
  189.7630  172.0590  134.6050 C   0  0  0  0  0  2  0  0  0  0  0  0
  191.6430  172.6570  135.9770 O   0  0  0  0  0  1  0  0  0  0  0  0
  190.7060  173.1690  135.0780 C   0  0  2  0  0  3  0  0  0  0  0  0
  187.5300  174.2140  135.3780 C   0  0  0  0  0  2  0  0  0  0  0  0
  188.8030  174.8870  134.8640 C   0  0  0  0  0  2  0  0  0  0  0  0
  188.5250  171.8950  135.4730 C   0  0  0  0  0  2  0  0  0  0  0  0
  1  3  1  0  0  0  0
  2  9  1  0  0  0  0
  3  5  1  0  0  0  0
  5  9  2  0  0  0  0
  6  2  2  0  0  0  0
  8  7  1  0  0  0  0
  8  4  1  0  0  0  0
  9  8  1  0  0  0  0
 10  6  1  0  0  0  0
 10  3  2  0  0  0  0
 11  6  1  0  0  0  0
 12 13  1  0  0  0  0
 12 11  1  0  0  0  0
 13 18  1  0  0  0  0
 14 22  1  0  0  0  0
 15 21  1  0  0  0  0
 16 15  2  0  0  0  0
 17 14  1  0  0  0  0
 17 19  1  0  0  0  0
 18 21  2  0  0  0  0
 19 20  1  0  0  0  0
 20 16  1  0  0  0  0
 20 13  2  0  0  0  0
 22 16  1  0  0  0  0
 23 10  1  0  0  0  0
 24 31  1  1  0  0  0
 24 26  1  0  0  0  0
 24 28  1  0  0  0  0
 25 26  2  0  0  0  0
 26 27  1  0  0  0  0
 27 30  1  0  0  0  0
 28 29  1  6  0  0  0
 28 30  1  0  0  0  0
 30 23  1  6  0  0  0
 32 31  1  0  0  0  0
 33 32  1  0  0  0  0
 34 39  1  0  0  0  0
 34 41  1  0  0  0  0
 35 33  1  1  0  0  0
 36 38  1  0  0  0  0
 36 41  1  0  0  0  0
 38 35  1  0  0  0  0
 38 37  1  1  0  0  0
 40 39  1  0  0  0  0
 40 35  1  0  0  0  0
M  END
>  <MODEL>
8

>  <REMARK>
 VINA RESULT:      -8.2      1.707      2.400
  Name = 
  9 active torsions:
  status: ('A' for Active; 'I' for Inactive)
    1  A    between atoms: C_1  and  C_34
    2  A    between atoms: C_4  and  C_11
    3  A    between atoms: C_9  and  O_25
    4  A    between atoms: C_9  and  C_34
    5  A    between atoms: C_10  and  O_25
    6  A    between atoms: C_11  and  N_23
    7  A    between atoms: N_23  and  C_24
    8  A    between atoms: C_31  and  C_38
    9  A    between atoms: C_31  and  C_41
                            x       y       z     vdW  Elec       q    Type
                         _______ _______ _______ _____ _____    ______ ____

>  <TORSDO>
F 9

$$$$
=
 OpenBabel11042412363D

 41 45  0  0  1  0  0  0  0  0999 V2000
  190.7410  176.2420  143.8810 N   0  0  0  0  0  1  0  0  0  0  0  0
  187.0920  177.8780  145.1480 C   0  0  0  0  0  3  0  0  0  0  0  0
  189.4900  176.7920  144.2860 C   0  0  0  0  0  0  0  0  0  0  0  0
  189.1420  177.8990  148.3400 C   0  0  0  0  0  1  0  0  0  0  0  0
  189.3180  177.1550  145.5840 N   0  0  0  0  0  0  0  0  0  0  0  0
  187.2180  177.5080  143.8090 C   0  0  0  0  0  0  0  0  0  0  0  0
  186.7940  178.6370  147.9450 C   0  0  0  0  0  1  0  0  0  0  0  0
  188.0290  178.0730  147.4200 N   0  0  0  0  0  0  0  0  0  0  0  0
  188.1550  177.6960  146.0390 C   0  0  0  0  0  0  0  0  0  0  0  0
  188.4470  176.9670  143.3570 C   0  0  0  0  0  0  0  0  0  0  0  0
  186.0810  177.7240  142.9590 N   0  0  0  0  0  2  0  0  0  0  0  0
  185.5300  179.0160  142.5830 C   0  0  0  0  0  2  0  0  0  0  0  0
  184.6240  178.8510  141.4100 C   0  0  0  0  0  0  0  0  0  0  0  0
  180.3990  179.2580  141.8550 C   0  0  0  0  0  2  0  0  0  0  0  0
  182.9550  178.4610  139.1870 C   0  0  0  0  0  3  0  0  0  0  0  0
  182.3980  178.6830  140.4480 C   0  0  0  0  0  0  0  0  0  0  0  0
  181.2030  178.7580  143.0560 C   0  0  0  0  0  2  0  0  0  0  0  0
  185.1760  178.6280  140.1420 C   0  0  0  0  0  3  0  0  0  0  0  0
  182.6240  179.0300  142.8560 N   0  0  0  0  0  2  0  0  0  0  0  0
  183.2280  178.8560  141.5680 C   0  0  0  0  0  0  0  0  0  0  0  0
  184.3450  178.4320  139.0360 C   0  0  0  0  0  3  0  0  0  0  0  0
  180.9780  178.7440  140.6160 N   0  0  0  0  0  2  0  0  0  0  0  0
  188.7020  176.6410  141.9130 C   0  0  0  0  0  2  0  0  0  0  0  0
  190.1530  177.5970  138.8460 C   0  0  1  0  0  3  0  0  0  0  0  0
  188.5070  179.2740  138.2710 O   0  0  0  0  0  0  0  0  0  0  0  0
  189.0660  178.5560  139.1410 C   0  0  0  0  0  0  0  0  0  0  0  0
  188.7190  178.6190  140.5060 N   0  0  0  0  0  2  0  0  0  0  0  0
  190.5340  177.0770  140.2310 C   0  0  1  0  0  3  0  0  0  0  0  0
  191.9510  177.5030  140.5610 C   0  0  0  0  0  1  0  0  0  0  0  0
  189.5650  177.7060  141.2480 C   0  0  2  0  0  3  0  0  0  0  0  0
  189.6320  176.4370  138.0100 C   0  0  0  0  0  2  0  0  0  0  0  0
  189.5220  176.8410  136.5520 C   0  0  0  0  0  2  0  0  0  0  0  0
  188.6660  175.9590  135.8910 O   0  0  0  0  0  0  0  0  0  0  0  0
  186.4430  173.4330  134.8110 C   0  0  0  0  0  2  0  0  0  0  0  0
  187.8240  175.4560  136.8910 C   0  0  1  0  0  3  0  0  0  0  0  0
  185.4020  175.4030  135.9000 C   0  0  0  0  0  2  0  0  0  0  0  0
  186.4980  177.4470  136.5300 O   0  0  0  0  0  1  0  0  0  0  0  0
  186.4180  176.0840  136.8210 C   0  0  2  0  0  3  0  0  0  0  0  0
  187.8080  173.3380  135.4810 C   0  0  0  0  0  2  0  0  0  0  0  0
  187.8120  173.9230  136.8930 C   0  0  0  0  0  2  0  0  0  0  0  0
  186.0050  174.8750  134.6070 C   0  0  0  0  0  2  0  0  0  0  0  0
  1  3  1  0  0  0  0
  2  9  1  0  0  0  0
  3  5  1  0  0  0  0
  5  9  2  0  0  0  0
  6  2  2  0  0  0  0
  8  7  1  0  0  0  0
  8  4  1  0  0  0  0
  9  8  1  0  0  0  0
 10  6  1  0  0  0  0
 10  3  2  0  0  0  0
 11  6  1  0  0  0  0
 12 11  1  0  0  0  0
 13 20  1  0  0  0  0
 13 12  1  0  0  0  0
 14 17  1  0  0  0  0
 15 16  1  0  0  0  0
 16 22  1  0  0  0  0
 16 20  2  0  0  0  0
 18 13  2  0  0  0  0
 19 17  1  0  0  0  0
 20 19  1  0  0  0  0
 21 15  2  0  0  0  0
 21 18  1  0  0  0  0
 22 14  1  0  0  0  0
 23 10  1  0  0  0  0
 24 31  1  6  0  0  0
 24 26  1  0  0  0  0
 24 28  1  0  0  0  0
 25 26  2  0  0  0  0
 26 27  1  0  0  0  0
 27 30  1  0  0  0  0
 28 29  1  1  0  0  0
 28 30  1  0  0  0  0
 30 23  1  6  0  0  0
 32 31  1  0  0  0  0
 33 32  1  0  0  0  0
 34 39  1  0  0  0  0
 35 33  1  6  0  0  0
 35 40  1  0  0  0  0
 36 38  1  0  0  0  0
 38 37  1  6  0  0  0
 38 35  1  0  0  0  0
 39 40  1  0  0  0  0
 41 34  1  0  0  0  0
 41 36  1  0  0  0  0
M  END
>  <MODEL>
9

>  <REMARK>
 VINA RESULT:      -7.9      2.483      3.699
  Name = 
  9 active torsions:
  status: ('A' for Active; 'I' for Inactive)
    1  A    between atoms: C_1  and  C_34
    2  A    between atoms: C_4  and  C_11
    3  A    between atoms: C_9  and  O_25
    4  A    between atoms: C_9  and  C_34
    5  A    between atoms: C_10  and  O_25
    6  A    between atoms: C_11  and  N_23
    7  A    between atoms: N_23  and  C_24
    8  A    between atoms: C_31  and  C_38
    9  A    between atoms: C_31  and  C_41
                            x       y       z     vdW  Elec       q    Type
                         _______ _______ _______ _____ _____    ______ ____

>  <TORSDO>
F 9

$$$$
