=
 OpenBabel11042410183D

 48 52  0  0  1  0  0  0  0  0999 V2000
  182.9950  178.2650  139.1000 C   0  0  1  0  0  0  0  0  0  0  0  0
  183.4200  177.2860  140.2320 C   0  0  0  0  0  2  0  0  0  0  0  0
  183.9130  177.9480  141.5540 C   0  0  1  0  0  3  0  0  0  0  0  0
  180.9210  179.1650  138.2860 N   0  0  0  0  0  0  0  0  0  0  0  0
  184.1530  179.2140  138.7200 C   0  0  0  0  0  2  0  0  0  0  0  0
  183.8770  179.7050  144.1950 C   0  0  2  0  0  3  0  0  0  0  0  0
  185.2230  178.7920  141.5280 C   0  0  1  0  0  3  0  0  0  0  0  0
  182.7500  179.5170  143.2240 C   0  0  0  0  0  3  0  0  0  0  0  0
  180.8290  181.7140  138.3530 C   0  0  0  0  0  1  0  0  0  0  0  0
  182.5520  177.4990  137.8500 C   0  0  0  0  0  2  0  0  0  0  0  0
  185.0880  180.1130  143.5830 O   0  0  0  0  0  0  0  0  0  0  0  0
  185.6780  178.9960  142.9730 C   0  0  0  0  0  2  0  0  0  0  0  0
  181.7590  179.0740  139.4750 C   0  0  0  0  0  2  0  0  0  0  0  0
  185.5570  178.5780  138.4500 C   0  0  1  0  0  3  0  0  0  0  0  0
  181.4210  178.3240  137.2180 C   0  0  1  0  0  3  0  0  0  0  0  0
  179.2060  180.3680  137.2510 O   0  0  0  0  0  0  0  0  0  0  0  0
  186.4740  178.3130  140.7020 C   0  0  2  0  0  3  0  0  0  0  0  0
  186.1140  177.6490  139.4520 N   0  0  0  0  0  2  0  0  0  0  0  0
  182.7720  178.7510  142.1240 C   0  0  0  0  0  3  0  0  0  0  0  0
  180.2320  180.3900  137.9680 C   0  0  0  0  0  0  0  0  0  0  0  0
  187.3120  177.9670  136.4270 C   0  0  2  0  0  3  0  0  0  0  0  0
  185.9280  178.3100  136.9550 C   0  0  1  0  0  3  0  0  0  0  0  0
  186.4050  176.9690  136.8090 O   0  0  0  0  0  0  0  0  0  0  0  0
  188.7720  177.9470  137.5410 P   0  0  0  0  0  0  0  0  0  0  0  0
  190.0870  177.8280  136.8130 O   0  0  0  0  0  0  0  0  0  0  0  0
  188.5750  176.6050  138.5390 O   0  0  0  0  0  1  0  0  0  0  0  0
  188.8650  179.3810  138.4700 O   0  0  0  0  0  1  0  0  0  0  0  0
  180.3030  176.1530  136.8730 C   0  0  0  0  0  3  0  0  0  0  0  0
  180.3360  177.4650  136.6200 C   0  0  0  0  0  3  0  0  0  0  0  0
  179.2220  175.2930  136.3170 C   0  0  0  0  0  2  0  0  0  0  0  0
  179.1950  172.8030  135.0780 O   0  0  0  0  0  0  0  0  0  0  0  0
  179.1940  172.7440  137.7030 O   0  0  0  0  0  1  0  0  0  0  0  0
  179.7540  173.5190  136.2960 P   0  0  0  0  0  0  0  0  0  0  0  0
  181.4530  173.4460  136.2540 O   0  0  0  0  0  1  0  0  0  0  0  0
  183.9610  178.5800  145.2310 C   0  0  0  0  0  2  0  0  0  0  0  0
  185.2450  178.7180  146.0160 C   0  0  0  0  0  2  0  0  0  0  0  0
  186.0640  177.4480  145.9240 C   0  0  0  0  0  2  0  0  0  0  0  0
  187.3920  177.8180  147.9780 C   0  0  0  0  0  3  0  0  0  0  0  0
  190.1940  176.9240  147.2990 C   0  0  0  0  0  2  0  0  0  0  0  0
  189.6840  177.0260  145.8530 C   0  0  0  0  0  2  0  0  0  0  0  0
  187.3670  177.6610  146.5440 N   0  0  0  0  0  0  0  0  0  0  0  0
  188.4900  177.9830  145.6520 C   0  0  0  0  0  2  0  0  0  0  0  0
  189.8890  178.1590  148.1290 C   0  0  0  0  0  2  0  0  0  0  0  0
  188.5050  178.0290  148.7080 C   0  0  0  0  0  3  0  0  0  0  0  0
  187.3560  177.4750  141.4390 O   0  0  0  0  0  0  0  0  0  0  0  0
  189.7200  177.0610  141.9860 C   0  0  0  0  0  1  0  0  0  0  0  0
  188.7720  179.2680  141.8440 O   0  0  0  0  0  1  0  0  0  0  0  0
  188.6810  177.9670  141.3480 C   0  0  2  0  0  3  0  0  0  0  0  0
  1 10  1  6  0  0  0
  1 13  1  0  0  0  0
  1  2  1  0  0  0  0
  3  2  1  6  0  0  0
  3 19  1  0  0  0  0
  4 13  1  0  0  0  0
  5  1  1  0  0  0  0
  6 35  1  6  0  0  0
  7  3  1  0  0  0  0
  7 12  1  1  0  0  0
  8  6  1  0  0  0  0
 11  6  1  0  0  0  0
 12 11  1  0  0  0  0
 14  5  1  6  0  0  0
 14 18  1  0  0  0  0
 15 29  1  1  0  0  0
 15 10  1  0  0  0  0
 15  4  1  0  0  0  0
 16 20  2  0  0  0  0
 17 45  1  1  0  0  0
 17  7  1  0  0  0  0
 18 17  1  0  0  0  0
 19  8  2  0  0  0  0
 20  4  1  0  0  0  0
 20  9  1  0  0  0  0
 21 23  1  0  0  0  0
 21 22  1  0  0  0  0
 21 24  1  1  0  0  0
 22 23  1  1  0  0  0
 22 14  1  0  0  0  0
 24 27  1  0  0  0  0
 24 26  1  0  0  0  0
 25 24  2  0  0  0  0
 29 28  2  0  0  0  0
 30 28  1  0  0  0  0
 31 33  2  0  0  0  0
 33 30  1  0  0  0  0
 33 32  1  0  0  0  0
 34 33  1  0  0  0  0
 35 36  1  0  0  0  0
 37 36  1  0  0  0  0
 37 41  1  0  0  0  0
 38 44  2  0  0  0  0
 39 43  1  0  0  0  0
 40 39  1  0  0  0  0
 41 38  1  0  0  0  0
 42 40  1  0  0  0  0
 42 41  1  0  0  0  0
 43 44  1  0  0  0  0
 48 45  1  0  0  0  0
 48 47  1  0  0  0  0
 48 46  1  1  0  0  0
M  END
>  <MODEL>
1

>  <REMARK>
 VINA RESULT:      -7.0      0.000      0.000
  Name = 
  11 active torsions:
  status: ('A' for Active; 'I' for Inactive)
    1  A    between atoms: C_1  and  C_21
    2  A    between atoms: C_7  and  C_15
    3  A    between atoms: C_7  and  C_30
    4  A    between atoms: P_12  and  C_14
    5  A    between atoms: C_21  and  P_22
    6  A    between atoms: N_25  and  C_40
    7  A    between atoms: C_30  and  C_40
    8  A    between atoms: C_32  and  C_37
    9  A    between atoms: C_33  and  C_45
   10  A    between atoms: O_34  and  C_36
   11  A    between atoms: O_34  and  C_39
                            x       y       z     vdW  Elec       q    Type
                         _______ _______ _______ _____ _____    ______ ____

>  <TORSDO>
F 11

$$$$
=
 OpenBabel11042410183D

 48 52  0  0  1  0  0  0  0  0999 V2000
  183.8700  178.7220  139.3260 C   0  0  1  0  0  0  0  0  0  0  0  0
  185.1490  179.4390  138.8040 C   0  0  0  0  0  2  0  0  0  0  0  0
  186.2890  178.5090  138.2930 C   0  0  1  0  0  3  0  0  0  0  0  0
  181.7090  178.1810  138.4290 N   0  0  0  0  0  0  0  0  0  0  0  0
  184.2070  177.7510  140.4800 C   0  0  0  0  0  2  0  0  0  0  0  0
  187.7890  176.3220  136.5540 C   0  0  2  0  0  3  0  0  0  0  0  0
  187.0000  177.5640  139.3080 C   0  0  1  0  0  3  0  0  0  0  0  0
  186.3720  176.7850  136.3900 C   0  0  0  0  0  3  0  0  0  0  0  0
  181.1980  175.6810  138.4560 C   0  0  0  0  0  1  0  0  0  0  0  0
  182.8350  179.7370  139.8200 C   0  0  0  0  0  2  0  0  0  0  0  0
  188.1030  175.9160  137.8740 O   0  0  0  0  0  0  0  0  0  0  0  0
  188.2910  177.0650  138.6590 C   0  0  0  0  0  2  0  0  0  0  0  0
  183.1360  177.9790  138.2170 C   0  0  0  0  0  2  0  0  0  0  0  0
  185.0970  178.2910  141.6490 C   0  0  1  0  0  3  0  0  0  0  0  0
  181.4580  179.1480  139.4770 C   0  0  1  0  0  3  0  0  0  0  0  0
  179.5760  177.3480  137.9590 O   0  0  0  0  0  0  0  0  0  0  0  0
  187.3620  178.0630  140.7560 C   0  0  2  0  0  3  0  0  0  0  0  0
  186.3640  178.9700  141.3150 N   0  0  0  0  0  2  0  0  0  0  0  0
  185.7590  177.7280  137.1180 C   0  0  0  0  0  3  0  0  0  0  0  0
  180.7770  177.1020  138.2140 C   0  0  0  0  0  0  0  0  0  0  0  0
  184.8520  178.6740  144.3580 C   0  0  2  0  0  3  0  0  0  0  0  0
  184.3460  178.7850  142.9280 C   0  0  1  0  0  3  0  0  0  0  0  0
  185.1120  179.8070  143.5730 O   0  0  0  0  0  0  0  0  0  0  0  0
  186.4230  177.8040  144.7410 P   0  0  0  0  0  0  0  0  0  0  0  0
  187.6560  178.6160  144.4320 O   0  0  0  0  0  1  0  0  0  0  0  0
  186.4290  176.4160  143.7900 O   0  0  0  0  0  0  0  0  0  0  0  0
  186.5200  177.3980  146.4010 O   0  0  0  0  0  1  0  0  0  0  0  0
  180.8320  181.1730  138.2160 C   0  0  0  0  0  3  0  0  0  0  0  0
  180.4630  180.1980  139.0520 C   0  0  0  0  0  3  0  0  0  0  0  0
  179.8570  182.2010  137.7600 C   0  0  0  0  0  2  0  0  0  0  0  0
  182.1040  183.8390  137.7390 O   0  0  0  0  0  1  0  0  0  0  0  0
  179.8170  185.0760  137.3710 O   0  0  0  0  0  1  0  0  0  0  0  0
  180.7430  183.6790  137.0820 P   0  0  0  0  0  0  0  0  0  0  0  0
  180.9540  183.4810  135.4050 O   0  0  0  0  0  0  0  0  0  0  0  0
  188.7950  177.2310  135.8420 C   0  0  0  0  0  2  0  0  0  0  0  0
  189.3080  176.5340  134.6020 C   0  0  0  0  0  2  0  0  0  0  0  0
  189.8600  175.1690  134.9500 C   0  0  0  0  0  2  0  0  0  0  0  0
  192.2390  175.8450  134.8790 C   0  0  0  0  0  3  0  0  0  0  0  0
  192.9950  176.4290  137.7430 C   0  0  0  0  0  2  0  0  0  0  0  0
  191.7090  175.6480  138.0540 C   0  0  0  0  0  2  0  0  0  0  0  0
  191.1340  175.3180  135.6440 N   0  0  0  0  0  0  0  0  0  0  0  0
  191.2660  174.6630  136.9530 C   0  0  0  0  0  2  0  0  0  0  0  0
  193.9110  175.7090  136.7670 C   0  0  0  0  0  2  0  0  0  0  0  0
  193.4820  176.0400  135.3620 C   0  0  0  0  0  3  0  0  0  0  0  0
  188.6460  178.6700  140.8450 O   0  0  0  0  0  0  0  0  0  0  0  0
  190.8650  177.6380  141.1040 C   0  0  0  0  0  1  0  0  0  0  0  0
  188.8660  176.7140  142.0740 O   0  0  0  0  0  1  0  0  0  0  0  0
  189.4870  177.9010  141.6870 C   0  0  2  0  0  3  0  0  0  0  0  0
  1 13  1  6  0  0  0
  1 10  1  0  0  0  0
  1  5  1  0  0  0  0
  2  1  1  0  0  0  0
  3 19  1  6  0  0  0
  3  2  1  0  0  0  0
  3  7  1  0  0  0  0
  4 15  1  0  0  0  0
  6 35  1  1  0  0  0
  6 11  1  0  0  0  0
  7 12  1  6  0  0  0
  7 17  1  0  0  0  0
  8  6  1  0  0  0  0
  8 19  2  0  0  0  0
 11 12  1  0  0  0  0
 13  4  1  0  0  0  0
 14  5  1  6  0  0  0
 14 22  1  0  0  0  0
 15 29  1  6  0  0  0
 15 10  1  0  0  0  0
 16 20  2  0  0  0  0
 17 45  1  6  0  0  0
 17 18  1  0  0  0  0
 18 14  1  0  0  0  0
 20  4  1  0  0  0  0
 20  9  1  0  0  0  0
 21 24  1  6  0  0  0
 22 23  1  6  0  0  0
 22 21  1  0  0  0  0
 23 21  1  0  0  0  0
 24 27  1  0  0  0  0
 25 24  1  0  0  0  0
 26 24  2  0  0  0  0
 28 29  2  0  0  0  0
 30 28  1  0  0  0  0
 33 32  1  0  0  0  0
 33 31  1  0  0  0  0
 33 30  1  0  0  0  0
 34 33  2  0  0  0  0
 36 37  1  0  0  0  0
 36 35  1  0  0  0  0
 37 41  1  0  0  0  0
 38 44  2  0  0  0  0
 38 41  1  0  0  0  0
 39 40  1  0  0  0  0
 41 42  1  0  0  0  0
 42 40  1  0  0  0  0
 43 39  1  0  0  0  0
 44 43  1  0  0  0  0
 45 48  1  0  0  0  0
 48 46  1  6  0  0  0
 48 47  1  0  0  0  0
M  END
>  <MODEL>
2

>  <REMARK>
 VINA RESULT:      -6.4      3.477      7.589
  Name = 
  11 active torsions:
  status: ('A' for Active; 'I' for Inactive)
    1  A    between atoms: C_1  and  C_21
    2  A    between atoms: C_7  and  C_15
    3  A    between atoms: C_7  and  C_30
    4  A    between atoms: P_12  and  C_14
    5  A    between atoms: C_21  and  P_22
    6  A    between atoms: N_25  and  C_40
    7  A    between atoms: C_30  and  C_40
    8  A    between atoms: C_32  and  C_37
    9  A    between atoms: C_33  and  C_45
   10  A    between atoms: O_34  and  C_36
   11  A    between atoms: O_34  and  C_39
                            x       y       z     vdW  Elec       q    Type
                         _______ _______ _______ _____ _____    ______ ____

>  <TORSDO>
F 11

$$$$
=
 OpenBabel11042410183D

 48 52  0  0  1  0  0  0  0  0999 V2000
  187.1100  176.2660  136.7180 C   0  0  1  0  0  0  0  0  0  0  0  0
  185.9940  177.0130  135.9310 C   0  0  0  0  0  2  0  0  0  0  0  0
  184.7560  177.4580  136.7650 C   0  0  1  0  0  3  0  0  0  0  0  0
  189.2110  176.8640  137.7170 N   0  0  0  0  0  0  0  0  0  0  0  0
  186.5550  174.9990  137.4050 C   0  0  0  0  0  2  0  0  0  0  0  0
  183.0420  178.9270  138.9920 C   0  0  2  0  0  3  0  0  0  0  0  0
  183.8440  176.3650  137.3980 C   0  0  1  0  0  3  0  0  0  0  0  0
  184.5210  179.0410  138.7750 C   0  0  0  0  0  3  0  0  0  0  0  0
  189.3200  176.3690  140.2180 C   0  0  0  0  0  1  0  0  0  0  0  0
  188.2590  175.8620  135.7900 C   0  0  0  0  0  2  0  0  0  0  0  0
  182.5870  177.5900  139.1030 O   0  0  0  0  0  0  0  0  0  0  0  0
  182.5340  177.0310  137.8170 C   0  0  0  0  0  2  0  0  0  0  0  0
  187.7850  177.1640  137.7470 C   0  0  0  0  0  2  0  0  0  0  0  0
  185.6900  174.0210  136.5410 C   0  0  1  0  0  3  0  0  0  0  0  0
  189.5450  175.9780  136.6220 C   0  0  1  0  0  3  0  0  0  0  0  0
  191.2110  176.9960  138.9190 O   0  0  0  0  0  0  0  0  0  0  0  0
  183.4770  175.0590  136.5990 C   0  0  2  0  0  3  0  0  0  0  0  0
  184.5680  174.5760  135.7590 N   0  0  0  0  0  2  0  0  0  0  0  0
  185.2290  178.4320  137.8130 C   0  0  0  0  0  3  0  0  0  0  0  0
  189.9730  176.8110  138.9400 C   0  0  0  0  0  0  0  0  0  0  0  0
  185.7950  171.4410  135.6050 C   0  0  2  0  0  3  0  0  0  0  0  0
  186.4290  172.7830  135.9370 C   0  0  1  0  0  3  0  0  0  0  0  0
  185.8760  172.4700  134.6550 O   0  0  0  0  0  0  0  0  0  0  0  0
  184.0370  171.0990  136.0090 P   0  0  0  0  0  0  0  0  0  0  0  0
  183.7030  169.6290  136.0600 O   0  0  0  0  0  1  0  0  0  0  0  0
  183.1300  171.8240  134.7900 O   0  0  0  0  0  0  0  0  0  0  0  0
  183.6140  171.7410  137.5380 O   0  0  0  0  0  1  0  0  0  0  0  0
  191.8110  175.7290  135.6820 C   0  0  0  0  0  3  0  0  0  0  0  0
  190.7170  176.4840  135.8210 C   0  0  0  0  0  3  0  0  0  0  0  0
  192.9660  176.1970  134.8690 C   0  0  0  0  0  2  0  0  0  0  0  0
  194.1810  176.1900  137.3700 O   0  0  0  0  0  1  0  0  0  0  0  0
  195.4140  177.6060  135.5350 O   0  0  0  0  0  1  0  0  0  0  0  0
  194.5130  176.2070  135.8880 P   0  0  0  0  0  0  0  0  0  0  0  0
  195.4390  174.8310  135.5080 O   0  0  0  0  0  0  0  0  0  0  0  0
  182.2370  179.8690  138.0920 C   0  0  0  0  0  2  0  0  0  0  0  0
  180.9060  180.1680  138.7440 C   0  0  0  0  0  2  0  0  0  0  0  0
  180.7720  181.6490  139.0260 C   0  0  0  0  0  2  0  0  0  0  0  0
  180.7400  183.7740  137.7610 C   0  0  0  0  0  3  0  0  0  0  0  0
  180.7500  182.9800  134.8490 C   0  0  0  0  0  2  0  0  0  0  0  0
  180.3410  181.6080  135.4060 C   0  0  0  0  0  2  0  0  0  0  0  0
  180.4690  182.3570  137.7880 N   0  0  0  0  0  0  0  0  0  0  0  0
  179.6570  181.6470  136.7890 C   0  0  0  0  0  2  0  0  0  0  0  0
  179.9140  184.1230  135.4010 C   0  0  0  0  0  2  0  0  0  0  0  0
  180.5130  184.5790  136.7050 C   0  0  0  0  0  3  0  0  0  0  0  0
  182.3010  175.1880  135.8080 O   0  0  0  0  0  0  0  0  0  0  0  0
  180.0930  174.2060  135.3410 C   0  0  0  0  0  1  0  0  0  0  0  0
  181.2590  173.8850  137.4210 O   0  0  0  0  0  1  0  0  0  0  0  0
  181.4310  174.0980  136.0540 C   0  0  2  0  0  3  0  0  0  0  0  0
  1 10  1  6  0  0  0
  1  5  1  0  0  0  0
  1 13  1  0  0  0  0
  2  1  1  0  0  0  0
  3  2  1  1  0  0  0
  3  7  1  0  0  0  0
  3 19  1  0  0  0  0
  4 13  1  0  0  0  0
  4 20  1  0  0  0  0
  6 35  1  6  0  0  0
  6 11  1  0  0  0  0
  7 12  1  6  0  0  0
  8  6  1  0  0  0  0
 10 15  1  0  0  0  0
 12 11  1  0  0  0  0
 14  5  1  6  0  0  0
 15 29  1  6  0  0  0
 15  4  1  0  0  0  0
 16 20  2  0  0  0  0
 17 45  1  6  0  0  0
 17  7  1  0  0  0  0
 18 14  1  0  0  0  0
 18 17  1  0  0  0  0
 19  8  2  0  0  0  0
 20  9  1  0  0  0  0
 21 22  1  0  0  0  0
 21 24  1  1  0  0  0
 22 23  1  6  0  0  0
 22 14  1  0  0  0  0
 23 21  1  0  0  0  0
 24 25  1  0  0  0  0
 24 27  1  0  0  0  0
 26 24  2  0  0  0  0
 28 29  2  0  0  0  0
 30 28  1  0  0  0  0
 30 33  1  0  0  0  0
 32 33  1  0  0  0  0
 33 31  1  0  0  0  0
 34 33  2  0  0  0  0
 35 36  1  0  0  0  0
 36 37  1  0  0  0  0
 38 41  1  0  0  0  0
 39 43  1  0  0  0  0
 39 40  1  0  0  0  0
 40 42  1  0  0  0  0
 41 37  1  0  0  0  0
 42 41  1  0  0  0  0
 43 44  1  0  0  0  0
 44 38  2  0  0  0  0
 45 48  1  0  0  0  0
 48 46  1  6  0  0  0
 48 47  1  0  0  0  0
M  END
>  <MODEL>
3

>  <REMARK>
 VINA RESULT:      -5.9      4.401     10.171
  Name = 
  11 active torsions:
  status: ('A' for Active; 'I' for Inactive)
    1  A    between atoms: C_1  and  C_21
    2  A    between atoms: C_7  and  C_15
    3  A    between atoms: C_7  and  C_30
    4  A    between atoms: P_12  and  C_14
    5  A    between atoms: C_21  and  P_22
    6  A    between atoms: N_25  and  C_40
    7  A    between atoms: C_30  and  C_40
    8  A    between atoms: C_32  and  C_37
    9  A    between atoms: C_33  and  C_45
   10  A    between atoms: O_34  and  C_36
   11  A    between atoms: O_34  and  C_39
                            x       y       z     vdW  Elec       q    Type
                         _______ _______ _______ _____ _____    ______ ____

>  <TORSDO>
F 11

$$$$
=
 OpenBabel11042410183D

 48 52  0  0  1  0  0  0  0  0999 V2000
  183.1540  177.5300  138.0410 C   0  0  1  0  0  0  0  0  0  0  0  0
  183.8210  176.6850  139.1650 C   0  0  0  0  0  2  0  0  0  0  0  0
  184.3730  177.4880  140.3810 C   0  0  1  0  0  3  0  0  0  0  0  0
  180.9070  178.1250  137.4330 N   0  0  0  0  0  0  0  0  0  0  0  0
  184.1360  178.5800  137.4750 C   0  0  0  0  0  2  0  0  0  0  0  0
  184.4170  179.4020  142.9090 C   0  0  2  0  0  3  0  0  0  0  0  0
  185.5580  178.4750  140.1540 C   0  0  1  0  0  3  0  0  0  0  0  0
  183.2200  179.0190  142.0920 C   0  0  0  0  0  3  0  0  0  0  0  0
  180.5080  180.6440  137.3740 C   0  0  0  0  0  1  0  0  0  0  0  0
  182.6730  176.6350  136.8950 C   0  0  0  0  0  2  0  0  0  0  0  0
  185.4920  179.9070  142.1370 O   0  0  0  0  0  0  0  0  0  0  0  0
  186.1430  178.8270  141.5210 C   0  0  0  0  0  2  0  0  0  0  0  0
  181.8780  178.2130  138.5160 C   0  0  0  0  0  2  0  0  0  0  0  0
  185.5690  178.0940  137.0740 C   0  0  1  0  0  3  0  0  0  0  0  0
  181.3840  177.2770  136.3600 C   0  0  1  0  0  3  0  0  0  0  0  0
  178.9510  179.0470  136.5480 O   0  0  0  0  0  0  0  0  0  0  0  0
  186.7580  178.0900  139.2110 C   0  0  2  0  0  3  0  0  0  0  0  0
  186.3460  177.3060  138.0510 N   0  0  0  0  0  2  0  0  0  0  0  0
  183.2130  178.1890  141.0390 C   0  0  0  0  0  3  0  0  0  0  0  0
  180.0400  179.2370  137.1350 C   0  0  0  0  0  0  0  0  0  0  0  0
  186.1620  176.4110  134.9860 C   0  0  2  0  0  3  0  0  0  0  0  0
  185.8000  177.7710  135.5620 C   0  0  1  0  0  3  0  0  0  0  0  0
  184.8270  176.8200  135.1180 O   0  0  0  0  0  0  0  0  0  0  0  0
  186.4890  174.9750  136.0820 P   0  0  0  0  0  0  0  0  0  0  0  0
  185.3800  174.7020  137.0680 O   0  0  0  0  0  1  0  0  0  0  0  0
  187.8950  175.3480  136.9290 O   0  0  0  0  0  1  0  0  0  0  0  0
  186.6930  173.5360  135.1780 O   0  0  0  0  0  0  0  0  0  0  0  0
  180.4210  175.0080  136.4050 C   0  0  0  0  0  3  0  0  0  0  0  0
  180.3540  176.2600  135.9420 C   0  0  0  0  0  3  0  0  0  0  0  0
  179.3960  173.9960  136.0290 C   0  0  0  0  0  2  0  0  0  0  0  0
  179.2130  171.5180  137.2770 O   0  0  0  0  0  1  0  0  0  0  0  0
  181.6580  172.3700  136.8420 O   0  0  0  0  0  1  0  0  0  0  0  0
  180.0570  172.2830  136.2730 P   0  0  0  0  0  0  0  0  0  0  0  0
  180.0340  171.4600  134.7840 O   0  0  0  0  0  0  0  0  0  0  0  0
  184.7540  178.3670  143.9870 C   0  0  0  0  0  2  0  0  0  0  0  0
  185.5690  179.0270  145.0760 C   0  0  0  0  0  2  0  0  0  0  0  0
  185.6050  178.1570  146.3140 C   0  0  0  0  0  2  0  0  0  0  0  0
  187.8800  177.6570  145.4820 C   0  0  0  0  0  3  0  0  0  0  0  0
  189.7180  178.1260  147.8310 C   0  0  0  0  0  2  0  0  0  0  0  0
  188.4120  178.0590  148.6370 C   0  0  0  0  0  2  0  0  0  0  0  0
  186.9820  177.7790  146.6060 N   0  0  0  0  0  0  0  0  0  0  0  0
  187.2690  177.2770  147.9570 C   0  0  0  0  0  2  0  0  0  0  0  0
  189.8810  176.9690  146.8600 C   0  0  0  0  0  2  0  0  0  0  0  0
  189.1790  177.3100  145.5720 C   0  0  0  0  0  3  0  0  0  0  0  0
  187.8140  177.4120  139.8820 O   0  0  0  0  0  0  0  0  0  0  0  0
  190.2580  177.4170  140.1670 C   0  0  0  0  0  1  0  0  0  0  0  0
  189.0800  179.1040  138.9210 O   0  0  0  0  0  1  0  0  0  0  0  0
  189.0580  177.7620  139.3020 C   0  0  2  0  0  3  0  0  0  0  0  0
  1 10  1  6  0  0  0
  1 13  1  0  0  0  0
  1  2  1  0  0  0  0
  3  2  1  6  0  0  0
  3 19  1  0  0  0  0
  4 13  1  0  0  0  0
  5  1  1  0  0  0  0
  6 35  1  6  0  0  0
  7  3  1  0  0  0  0
  7 12  1  1  0  0  0
  8  6  1  0  0  0  0
 11  6  1  0  0  0  0
 12 11  1  0  0  0  0
 14  5  1  1  0  0  0
 14 18  1  0  0  0  0
 15 29  1  1  0  0  0
 15 10  1  0  0  0  0
 15  4  1  0  0  0  0
 16 20  2  0  0  0  0
 17 45  1  1  0  0  0
 17  7  1  0  0  0  0
 18 17  1  0  0  0  0
 19  8  2  0  0  0  0
 20  9  1  0  0  0  0
 20  4  1  0  0  0  0
 21 23  1  0  0  0  0
 21 22  1  0  0  0  0
 21 24  1  1  0  0  0
 22 23  1  6  0  0  0
 22 14  1  0  0  0  0
 24 26  1  0  0  0  0
 24 25  1  0  0  0  0
 27 24  2  0  0  0  0
 29 28  2  0  0  0  0
 30 33  1  0  0  0  0
 30 28  1  0  0  0  0
 33 32  1  0  0  0  0
 33 31  1  0  0  0  0
 34 33  2  0  0  0  0
 35 36  1  0  0  0  0
 36 37  1  0  0  0  0
 37 41  1  0  0  0  0
 38 44  2  0  0  0  0
 38 41  1  0  0  0  0
 39 40  1  0  0  0  0
 41 42  1  0  0  0  0
 42 40  1  0  0  0  0
 43 39  1  0  0  0  0
 44 43  1  0  0  0  0
 47 48  1  0  0  0  0
 48 45  1  0  0  0  0
 48 46  1  1  0  0  0
M  END
>  <MODEL>
4

>  <REMARK>
 VINA RESULT:      -5.6      1.521      2.271
  Name = 
  11 active torsions:
  status: ('A' for Active; 'I' for Inactive)
    1  A    between atoms: C_1  and  C_21
    2  A    between atoms: C_7  and  C_15
    3  A    between atoms: C_7  and  C_30
    4  A    between atoms: P_12  and  C_14
    5  A    between atoms: C_21  and  P_22
    6  A    between atoms: N_25  and  C_40
    7  A    between atoms: C_30  and  C_40
    8  A    between atoms: C_32  and  C_37
    9  A    between atoms: C_33  and  C_45
   10  A    between atoms: O_34  and  C_36
   11  A    between atoms: O_34  and  C_39
                            x       y       z     vdW  Elec       q    Type
                         _______ _______ _______ _____ _____    ______ ____

>  <TORSDO>
F 11

$$$$
=
 OpenBabel11042410183D

 48 52  0  0  1  0  0  0  0  0999 V2000
  184.3270  177.3240  138.1670 C   0  0  1  0  0  0  0  0  0  0  0  0
  183.5220  176.1500  138.7960 C   0  0  0  0  0  2  0  0  0  0  0  0
  182.6670  175.3050  137.8060 C   0  0  1  0  0  3  0  0  0  0  0  0
  186.5890  177.6690  137.4350 N   0  0  0  0  0  0  0  0  0  0  0  0
  183.3910  178.3100  137.4310 C   0  0  0  0  0  2  0  0  0  0  0  0
  181.9430  173.4210  135.3590 C   0  0  2  0  0  3  0  0  0  0  0  0
  181.4700  175.9870  137.0760 C   0  0  1  0  0  3  0  0  0  0  0  0
  183.3090  173.8870  135.7620 C   0  0  0  0  0  3  0  0  0  0  0  0
  186.7680  178.3220  134.9750 C   0  0  0  0  0  1  0  0  0  0  0  0
  185.1070  178.0910  139.2390 C   0  0  0  0  0  2  0  0  0  0  0  0
  181.0060  174.4730  135.2090 O   0  0  0  0  0  0  0  0  0  0  0  0
  180.5920  174.8840  136.4850 C   0  0  0  0  0  2  0  0  0  0  0  0
  185.4150  176.8330  137.2210 C   0  0  0  0  0  2  0  0  0  0  0  0
  182.1180  178.8100  138.1910 C   0  0  1  0  0  3  0  0  0  0  0  0
  186.4160  178.5450  138.5750 C   0  0  1  0  0  3  0  0  0  0  0  0
  188.5950  178.4140  136.4960 O   0  0  0  0  0  0  0  0  0  0  0  0
  180.5250  176.9880  137.8380 C   0  0  2  0  0  3  0  0  0  0  0  0
  181.2320  177.8090  138.8170 N   0  0  0  0  0  2  0  0  0  0  0  0
  183.6030  174.6650  136.8140 C   0  0  0  0  0  3  0  0  0  0  0  0
  187.3970  178.0960  136.3200 C   0  0  0  0  0  0  0  0  0  0  0  0
  181.4420  181.4500  138.5370 C   0  0  2  0  0  3  0  0  0  0  0  0
  182.2280  180.1990  138.9000 C   0  0  1  0  0  3  0  0  0  0  0  0
  180.9710  180.5380  139.4930 O   0  0  0  0  0  0  0  0  0  0  0  0
  180.3180  181.4740  137.0860 P   0  0  0  0  0  0  0  0  0  0  0  0
  180.9960  181.1100  135.7890 O   0  0  0  0  0  0  0  0  0  0  0  0
  179.7340  183.0490  136.9760 O   0  0  0  0  0  1  0  0  0  0  0  0
  179.0280  180.3660  137.2810 O   0  0  0  0  0  1  0  0  0  0  0  0
  187.4720  178.9310  140.7690 C   0  0  0  0  0  3  0  0  0  0  0  0
  187.5950  178.4940  139.5120 C   0  0  0  0  0  3  0  0  0  0  0  0
  188.6160  178.8610  141.7200 C   0  0  0  0  0  2  0  0  0  0  0  0
  188.9700  177.8670  144.2930 O   0  0  0  0  0  1  0  0  0  0  0  0
  189.0550  176.0690  142.3810 O   0  0  0  0  0  0  0  0  0  0  0  0
  188.3480  177.5060  142.9550 P   0  0  0  0  0  0  0  0  0  0  0  0
  186.6760  177.2650  143.1640 O   0  0  0  0  0  1  0  0  0  0  0  0
  181.4860  172.1830  136.1380 C   0  0  0  0  0  2  0  0  0  0  0  0
  182.6960  171.3710  136.5400 C   0  0  0  0  0  2  0  0  0  0  0  0
  183.3160  170.7060  135.3300 C   0  0  0  0  0  2  0  0  0  0  0  0
  185.4950  169.7920  134.5980 C   0  0  0  0  0  3  0  0  0  0  0  0
  187.5510  171.8370  135.4400 C   0  0  0  0  0  2  0  0  0  0  0  0
  186.4100  172.3530  136.3310 C   0  0  0  0  0  2  0  0  0  0  0  0
  184.7660  170.6740  135.4790 N   0  0  0  0  0  0  0  0  0  0  0  0
  185.3330  171.3050  136.6790 C   0  0  0  0  0  2  0  0  0  0  0  0
  187.7670  170.3370  135.5560 C   0  0  0  0  0  2  0  0  0  0  0  0
  186.8330  169.6350  134.6060 C   0  0  0  0  0  3  0  0  0  0  0  0
  179.4190  176.3550  138.4710 O   0  0  0  0  0  0  0  0  0  0  0  0
  179.4460  174.7590  140.3440 C   0  0  0  0  0  1  0  0  0  0  0  0
  178.9990  177.1070  140.6260 O   0  0  0  0  0  1  0  0  0  0  0  0
  179.6880  176.1760  139.8500 C   0  0  2  0  0  3  0  0  0  0  0  0
  1 13  1  6  0  0  0
  1  2  1  0  0  0  0
  1 10  1  0  0  0  0
  3 19  1  6  0  0  0
  3  2  1  0  0  0  0
  4 15  1  0  0  0  0
  5  1  1  0  0  0  0
  6  8  1  0  0  0  0
  6 35  1  1  0  0  0
  7 12  1  1  0  0  0
  7  3  1  0  0  0  0
  7 17  1  0  0  0  0
  8 19  2  0  0  0  0
  9 20  1  0  0  0  0
 11  6  1  0  0  0  0
 11 12  1  0  0  0  0
 13  4  1  0  0  0  0
 14  5  1  1  0  0  0
 14 18  1  0  0  0  0
 14 22  1  0  0  0  0
 15 10  1  0  0  0  0
 15 29  1  1  0  0  0
 17 45  1  1  0  0  0
 17 18  1  0  0  0  0
 20 16  2  0  0  0  0
 20  4  1  0  0  0  0
 21 24  1  6  0  0  0
 21 22  1  0  0  0  0
 21 23  1  0  0  0  0
 22 23  1  1  0  0  0
 24 27  1  0  0  0  0
 25 24  2  0  0  0  0
 26 24  1  0  0  0  0
 28 30  1  0  0  0  0
 29 28  2  0  0  0  0
 30 33  1  0  0  0  0
 32 33  2  0  0  0  0
 33 34  1  0  0  0  0
 33 31  1  0  0  0  0
 35 36  1  0  0  0  0
 37 41  1  0  0  0  0
 37 36  1  0  0  0  0
 38 44  2  0  0  0  0
 38 41  1  0  0  0  0
 39 43  1  0  0  0  0
 39 40  1  0  0  0  0
 40 42  1  0  0  0  0
 41 42  1  0  0  0  0
 44 43  1  0  0  0  0
 45 48  1  0  0  0  0
 48 46  1  1  0  0  0
 48 47  1  0  0  0  0
M  END
>  <MODEL>
5

>  <REMARK>
 VINA RESULT:      -5.2      3.942      9.616
  Name = 
  11 active torsions:
  status: ('A' for Active; 'I' for Inactive)
    1  A    between atoms: C_1  and  C_21
    2  A    between atoms: C_7  and  C_15
    3  A    between atoms: C_7  and  C_30
    4  A    between atoms: P_12  and  C_14
    5  A    between atoms: C_21  and  P_22
    6  A    between atoms: N_25  and  C_40
    7  A    between atoms: C_30  and  C_40
    8  A    between atoms: C_32  and  C_37
    9  A    between atoms: C_33  and  C_45
   10  A    between atoms: O_34  and  C_36
   11  A    between atoms: O_34  and  C_39
                            x       y       z     vdW  Elec       q    Type
                         _______ _______ _______ _____ _____    ______ ____

>  <TORSDO>
F 11

$$$$
=
 OpenBabel11042410183D

 48 52  0  0  1  0  0  0  0  0999 V2000
  188.4980  177.3530  141.6670 C   0  0  1  0  0  0  0  0  0  0  0  0
  187.4020  176.6110  142.4860 C   0  0  0  0  0  2  0  0  0  0  0  0
  186.2600  177.5030  143.0580 C   0  0  1  0  0  3  0  0  0  0  0  0
  188.9470  177.7380  139.3380 N   0  0  0  0  0  0  0  0  0  0  0  0
  189.1720  178.4580  142.5110 C   0  0  0  0  0  2  0  0  0  0  0  0
  183.8060  179.5110  143.1290 C   0  0  2  0  0  3  0  0  0  0  0  0
  186.6100  178.5740  144.1340 C   0  0  1  0  0  3  0  0  0  0  0  0
  184.5150  178.9990  141.9110 C   0  0  0  0  0  3  0  0  0  0  0  0
  189.0560  180.2120  138.7230 C   0  0  0  0  0  1  0  0  0  0  0  0
  189.5720  176.3780  141.1780 C   0  0  0  0  0  2  0  0  0  0  0  0
  184.6760  180.0720  144.0960 O   0  0  0  0  0  0  0  0  0  0  0  0
  185.3050  179.0260  144.7880 C   0  0  0  0  0  2  0  0  0  0  0  0
  187.9460  177.9470  140.3770 C   0  0  0  0  0  2  0  0  0  0  0  0
  189.6680  178.0760  143.9460 C   0  0  1  0  0  3  0  0  0  0  0  0
  190.0260  176.8910  139.8030 C   0  0  1  0  0  3  0  0  0  0  0  0
  189.7060  178.4610  137.2500 O   0  0  0  0  0  0  0  0  0  0  0  0
  187.6320  178.2530  145.2880 C   0  0  2  0  0  3  0  0  0  0  0  0
  188.7300  177.3940  144.8570 N   0  0  0  0  0  2  0  0  0  0  0  0
  185.5360  178.1310  141.8950 C   0  0  0  0  0  3  0  0  0  0  0  0
  189.2120  178.7630  138.3600 C   0  0  0  0  0  0  0  0  0  0  0  0
  191.8690  177.2340  145.3580 C   0  0  2  0  0  3  0  0  0  0  0  0
  191.1830  177.7150  144.0880 C   0  0  1  0  0  3  0  0  0  0  0  0
  191.3180  176.3340  144.4350 O   0  0  0  0  0  0  0  0  0  0  0  0
  190.9570  177.1370  146.9480 P   0  0  0  0  0  0  0  0  0  0  0  0
  190.2740  178.4260  147.3340 O   0  0  0  0  0  1  0  0  0  0  0  0
  192.1040  176.7540  148.1200 O   0  0  0  0  0  1  0  0  0  0  0  0
  189.7310  175.9430  146.8910 O   0  0  0  0  0  0  0  0  0  0  0  0
  191.5650  175.6290  138.3470 C   0  0  0  0  0  3  0  0  0  0  0  0
  190.3290  175.7770  138.8340 C   0  0  0  0  0  3  0  0  0  0  0  0
  191.8920  174.5170  137.4140 C   0  0  0  0  0  2  0  0  0  0  0  0
  194.4420  173.4380  137.6690 O   0  0  0  0  0  1  0  0  0  0  0  0
  194.3550  176.0510  137.4270 O   0  0  0  0  0  1  0  0  0  0  0  0
  193.6890  174.5550  136.9670 P   0  0  0  0  0  0  0  0  0  0  0  0
  193.8490  174.3630  135.2830 O   0  0  0  0  0  0  0  0  0  0  0  0
  182.7250  178.5500  143.6330 C   0  0  0  0  0  2  0  0  0  0  0  0
  181.3670  179.1900  143.4600 C   0  0  0  0  0  2  0  0  0  0  0  0
  180.4670  178.3090  142.6220 C   0  0  0  0  0  2  0  0  0  0  0  0
  180.8180  179.7520  140.6440 C   0  0  0  0  0  3  0  0  0  0  0  0
  182.6910  178.2130  138.8450 C   0  0  0  0  0  2  0  0  0  0  0  0
  182.2800  177.0270  139.7320 C   0  0  0  0  0  2  0  0  0  0  0  0
  180.8370  178.4280  141.2170 N   0  0  0  0  0  0  0  0  0  0  0  0
  180.9160  177.1850  140.4360 C   0  0  0  0  0  2  0  0  0  0  0  0
  181.5070  179.0130  138.3300 C   0  0  0  0  0  2  0  0  0  0  0  0
  181.1240  180.0390  139.3630 C   0  0  0  0  0  3  0  0  0  0  0  0
  187.0240  177.6910  146.4450 O   0  0  0  0  0  0  0  0  0  0  0  0
  187.5560  177.8660  148.8420 C   0  0  0  0  0  1  0  0  0  0  0  0
  186.0540  179.3720  147.7170 O   0  0  0  0  0  1  0  0  0  0  0  0
  187.1800  178.5670  147.5470 C   0  0  2  0  0  3  0  0  0  0  0  0
  1 13  1  6  0  0  0
  1  2  1  0  0  0  0
  1  5  1  0  0  0  0
  2  3  1  0  0  0  0
  3 19  1  6  0  0  0
  3  7  1  0  0  0  0
  4 15  1  0  0  0  0
  4 13  1  0  0  0  0
  6 35  1  1  0  0  0
  6 11  1  0  0  0  0
  7 12  1  1  0  0  0
  7 17  1  0  0  0  0
  8  6  1  0  0  0  0
 10  1  1  0  0  0  0
 11 12  1  0  0  0  0
 14  5  1  6  0  0  0
 14 22  1  0  0  0  0
 14 18  1  0  0  0  0
 15 29  1  6  0  0  0
 15 10  1  0  0  0  0
 16 20  2  0  0  0  0
 17 45  1  1  0  0  0
 18 17  1  0  0  0  0
 19  8  2  0  0  0  0
 20  9  1  0  0  0  0
 20  4  1  0  0  0  0
 21 24  1  1  0  0  0
 22 23  1  6  0  0  0
 22 21  1  0  0  0  0
 23 21  1  0  0  0  0
 24 25  1  0  0  0  0
 24 26  1  0  0  0  0
 27 24  2  0  0  0  0
 28 29  2  0  0  0  0
 30 28  1  0  0  0  0
 33 30  1  0  0  0  0
 33 32  1  0  0  0  0
 33 31  1  0  0  0  0
 34 33  2  0  0  0  0
 36 35  1  0  0  0  0
 37 36  1  0  0  0  0
 38 41  1  0  0  0  0
 39 40  1  0  0  0  0
 40 42  1  0  0  0  0
 41 37  1  0  0  0  0
 42 41  1  0  0  0  0
 43 39  1  0  0  0  0
 43 44  1  0  0  0  0
 44 38  2  0  0  0  0
 45 48  1  0  0  0  0
 48 47  1  0  0  0  0
 48 46  1  1  0  0  0
M  END
>  <MODEL>
6

>  <REMARK>
 VINA RESULT:      -4.6      4.308      8.741
  Name = 
  11 active torsions:
  status: ('A' for Active; 'I' for Inactive)
    1  A    between atoms: C_1  and  C_21
    2  A    between atoms: C_7  and  C_15
    3  A    between atoms: C_7  and  C_30
    4  A    between atoms: P_12  and  C_14
    5  A    between atoms: C_21  and  P_22
    6  A    between atoms: N_25  and  C_40
    7  A    between atoms: C_30  and  C_40
    8  A    between atoms: C_32  and  C_37
    9  A    between atoms: C_33  and  C_45
   10  A    between atoms: O_34  and  C_36
   11  A    between atoms: O_34  and  C_39
                            x       y       z     vdW  Elec       q    Type
                         _______ _______ _______ _____ _____    ______ ____

>  <TORSDO>
F 11

$$$$
=
 OpenBabel11042410183D

 48 52  0  0  1  0  0  0  0  0999 V2000
  189.8740  175.8380  137.1500 C   0  0  1  0  0  0  0  0  0  0  0  0
  190.2530  175.0890  138.4610 C   0  0  0  0  0  2  0  0  0  0  0  0
  190.6200  175.9920  139.6770 C   0  0  1  0  0  3  0  0  0  0  0  0
  187.8330  176.4770  136.0570 N   0  0  0  0  0  0  0  0  0  0  0  0
  191.0200  176.7670  136.6880 C   0  0  0  0  0  2  0  0  0  0  0  0
  190.3200  178.1690  141.9640 C   0  0  2  0  0  3  0  0  0  0  0  0
  191.8940  176.8850  139.5920 C   0  0  1  0  0  3  0  0  0  0  0  0
  189.2760  177.7600  140.9690 C   0  0  0  0  0  3  0  0  0  0  0  0
  187.6350  178.9920  135.6730 C   0  0  0  0  0  1  0  0  0  0  0  0
  189.5570  174.8480  136.0260 C   0  0  0  0  0  2  0  0  0  0  0  0
  191.5550  178.5290  141.3730 O   0  0  0  0  0  0  0  0  0  0  0  0
  192.2320  177.3560  141.0070 C   0  0  0  0  0  2  0  0  0  0  0  0
  188.5840  176.6340  137.2960 C   0  0  0  0  0  2  0  0  0  0  0  0
  192.4640  176.1670  136.6270 C   0  0  1  0  0  3  0  0  0  0  0  0
  188.4430  175.4930  135.1870 C   0  0  1  0  0  3  0  0  0  0  0  0
  186.1530  177.3960  134.7170 O   0  0  0  0  0  0  0  0  0  0  0  0
  193.2210  176.3380  138.9460 C   0  0  2  0  0  3  0  0  0  0  0  0
  192.9810  175.4530  137.8100 N   0  0  0  0  0  2  0  0  0  0  0  0
  189.4090  176.8200  140.0220 C   0  0  0  0  0  3  0  0  0  0  0  0
  187.1220  177.5930  135.4860 C   0  0  0  0  0  0  0  0  0  0  0  0
  194.3270  175.9190  134.6230 C   0  0  2  0  0  3  0  0  0  0  0  0
  192.9540  175.6680  135.2290 C   0  0  1  0  0  3  0  0  0  0  0  0
  194.0630  174.7790  135.3960 O   0  0  0  0  0  0  0  0  0  0  0  0
  195.5570  176.9830  135.4760 P   0  0  0  0  0  0  0  0  0  0  0  0
  196.1060  178.0880  134.6080 O   0  0  0  0  0  0  0  0  0  0  0  0
  196.8180  175.9640  135.9280 O   0  0  0  0  0  1  0  0  0  0  0  0
  194.8750  177.7450  136.8490 O   0  0  0  0  0  1  0  0  0  0  0  0
  186.9850  173.5270  135.4830 C   0  0  0  0  0  3  0  0  0  0  0  0
  187.4410  174.4900  134.6760 C   0  0  0  0  0  3  0  0  0  0  0  0
  185.9720  172.5450  135.0070 C   0  0  0  0  0  2  0  0  0  0  0  0
  183.3700  173.3320  135.5950 O   0  0  0  0  0  0  0  0  0  0  0  0
  184.9740  173.1440  137.6660 O   0  0  0  0  0  1  0  0  0  0  0  0
  184.5180  172.5090  136.1550 P   0  0  0  0  0  0  0  0  0  0  0  0
  184.0050  170.8990  136.3530 O   0  0  0  0  0  1  0  0  0  0  0  0
  190.3700  177.2430  143.1830 C   0  0  0  0  0  2  0  0  0  0  0  0
  189.8560  177.9840  144.3960 C   0  0  0  0  0  2  0  0  0  0  0  0
  189.2120  177.0250  145.3730 C   0  0  0  0  0  2  0  0  0  0  0  0
  187.5620  177.9480  146.9680 C   0  0  0  0  0  3  0  0  0  0  0  0
  185.3730  179.1390  145.2650 C   0  0  0  0  0  2  0  0  0  0  0  0
  186.0140  178.2850  144.1600 C   0  0  0  0  0  2  0  0  0  0  0  0
  187.8430  177.4480  145.6440 N   0  0  0  0  0  0  0  0  0  0  0  0
  186.8160  177.0670  144.6640 C   0  0  0  0  0  2  0  0  0  0  0  0
  185.1080  178.3610  146.5430 C   0  0  0  0  0  2  0  0  0  0  0  0
  186.3540  178.3730  147.3880 C   0  0  0  0  0  3  0  0  0  0  0  0
  194.0780  175.6840  139.8750 O   0  0  0  0  0  0  0  0  0  0  0  0
  195.3240  173.7830  138.9310 C   0  0  0  0  0  1  0  0  0  0  0  0
  196.3980  175.6900  139.9300 O   0  0  0  0  0  1  0  0  0  0  0  0
  195.2680  175.2720  139.2270 C   0  0  2  0  0  3  0  0  0  0  0  0
  1 10  1  6  0  0  0
  1 13  1  0  0  0  0
  1  2  1  0  0  0  0
  3  2  1  6  0  0  0
  3 19  1  0  0  0  0
  4 13  1  0  0  0  0
  5  1  1  0  0  0  0
  6 35  1  1  0  0  0
  7  3  1  0  0  0  0
  7 12  1  1  0  0  0
  8  6  1  0  0  0  0
 11  6  1  0  0  0  0
 12 11  1  0  0  0  0
 14  5  1  6  0  0  0
 14 18  1  0  0  0  0
 15 29  1  1  0  0  0
 15 10  1  0  0  0  0
 15  4  1  0  0  0  0
 16 20  2  0  0  0  0
 17  7  1  0  0  0  0
 17 45  1  1  0  0  0
 18 17  1  0  0  0  0
 19  8  2  0  0  0  0
 20  9  1  0  0  0  0
 20  4  1  0  0  0  0
 21 22  1  0  0  0  0
 21 23  1  0  0  0  0
 21 24  1  1  0  0  0
 22 23  1  1  0  0  0
 22 14  1  0  0  0  0
 24 26  1  0  0  0  0
 24 27  1  0  0  0  0
 25 24  2  0  0  0  0
 29 28  2  0  0  0  0
 30 28  1  0  0  0  0
 30 33  1  0  0  0  0
 31 33  2  0  0  0  0
 33 34  1  0  0  0  0
 33 32  1  0  0  0  0
 35 36  1  0  0  0  0
 36 37  1  0  0  0  0
 37 41  1  0  0  0  0
 38 44  2  0  0  0  0
 39 43  1  0  0  0  0
 40 42  1  0  0  0  0
 40 39  1  0  0  0  0
 41 38  1  0  0  0  0
 42 41  1  0  0  0  0
 43 44  1  0  0  0  0
 48 46  1  1  0  0  0
 48 45  1  0  0  0  0
 48 47  1  0  0  0  0
M  END
>  <MODEL>
7

>  <REMARK>
 VINA RESULT:      -4.5      4.448      6.715
  Name = 
  11 active torsions:
  status: ('A' for Active; 'I' for Inactive)
    1  A    between atoms: C_1  and  C_21
    2  A    between atoms: C_7  and  C_15
    3  A    between atoms: C_7  and  C_30
    4  A    between atoms: P_12  and  C_14
    5  A    between atoms: C_21  and  P_22
    6  A    between atoms: N_25  and  C_40
    7  A    between atoms: C_30  and  C_40
    8  A    between atoms: C_32  and  C_37
    9  A    between atoms: C_33  and  C_45
   10  A    between atoms: O_34  and  C_36
   11  A    between atoms: O_34  and  C_39
                            x       y       z     vdW  Elec       q    Type
                         _______ _______ _______ _____ _____    ______ ____

>  <TORSDO>
F 11

$$$$
=
 OpenBabel11042410183D

 48 52  0  0  1  0  0  0  0  0999 V2000
  188.5800  177.2980  141.7850 C   0  0  1  0  0  0  0  0  0  0  0  0
  187.5250  176.5330  142.6370 C   0  0  0  0  0  2  0  0  0  0  0  0
  186.3730  177.3980  143.2290 C   0  0  1  0  0  3  0  0  0  0  0  0
  188.9620  177.6720  139.4430 N   0  0  0  0  0  0  0  0  0  0  0  0
  189.2430  178.4290  142.6030 C   0  0  0  0  0  2  0  0  0  0  0  0
  183.8650  179.3380  143.3410 C   0  0  2  0  0  3  0  0  0  0  0  0
  186.7180  178.4890  144.2860 C   0  0  1  0  0  3  0  0  0  0  0  0
  184.5590  178.8340  142.1110 C   0  0  0  0  0  3  0  0  0  0  0  0
  188.9870  180.1420  138.8040 C   0  0  0  0  0  1  0  0  0  0  0  0
  189.6690  176.3480  141.2800 C   0  0  0  0  0  2  0  0  0  0  0  0
  184.7420  179.9320  144.2820 O   0  0  0  0  0  0  0  0  0  0  0  0
  185.4170  178.9110  144.9680 C   0  0  0  0  0  2  0  0  0  0  0  0
  187.9810  177.8630  140.5040 C   0  0  0  0  0  2  0  0  0  0  0  0
  189.7840  178.0750  144.0290 C   0  0  1  0  0  3  0  0  0  0  0  0
  190.0750  176.8610  139.8900 C   0  0  1  0  0  3  0  0  0  0  0  0
  189.6500  178.3960  137.3310 O   0  0  0  0  0  0  0  0  0  0  0  0
  187.7760  178.2080  145.4180 C   0  0  2  0  0  3  0  0  0  0  0  0
  188.8870  177.3750  144.9690 N   0  0  0  0  0  2  0  0  0  0  0  0
  185.6040  177.9950  142.0780 C   0  0  0  0  0  3  0  0  0  0  0  0
  189.1750  178.6950  138.4500 C   0  0  0  0  0  0  0  0  0  0  0  0
  192.0080  177.1360  145.3390 C   0  0  2  0  0  3  0  0  0  0  0  0
  191.3100  177.7580  144.1380 C   0  0  1  0  0  3  0  0  0  0  0  0
  191.5000  176.3480  144.2960 O   0  0  0  0  0  0  0  0  0  0  0  0
  191.0920  176.7890  146.8910 P   0  0  0  0  0  0  0  0  0  0  0  0
  189.8920  175.8950  146.6980 O   0  0  0  0  0  0  0  0  0  0  0  0
  190.5740  178.2830  147.4690 O   0  0  0  0  0  1  0  0  0  0  0  0
  192.0910  176.0100  148.0420 O   0  0  0  0  0  1  0  0  0  0  0  0
  191.5980  175.6610  138.3650 C   0  0  0  0  0  3  0  0  0  0  0  0
  190.3860  175.7460  138.9240 C   0  0  0  0  0  3  0  0  0  0  0  0
  191.9350  174.5510  137.4330 C   0  0  0  0  0  2  0  0  0  0  0  0
  190.7820  176.0470  135.3920 O   0  0  0  0  0  1  0  0  0  0  0  0
  189.2990  174.0840  136.3120 O   0  0  0  0  0  1  0  0  0  0  0  0
  190.8640  174.6260  135.9230 P   0  0  0  0  0  0  0  0  0  0  0  0
  191.5250  173.6190  134.7210 O   0  0  0  0  0  0  0  0  0  0  0  0
  182.8250  178.3510  143.8800 C   0  0  0  0  0  2  0  0  0  0  0  0
  181.4890  179.0500  143.9980 C   0  0  0  0  0  2  0  0  0  0  0  0
  180.4420  178.3390  143.1690 C   0  0  0  0  0  2  0  0  0  0  0  0
  179.9650  180.1970  141.6080 C   0  0  0  0  0  3  0  0  0  0  0  0
  181.7620  179.7310  139.2280 C   0  0  0  0  0  2  0  0  0  0  0  0
  181.8840  178.3200  139.8220 C   0  0  0  0  0  2  0  0  0  0  0  0
  180.4620  178.8570  141.8070 N   0  0  0  0  0  0  0  0  0  0  0  0
  180.7080  177.8920  140.7250 C   0  0  0  0  0  2  0  0  0  0  0  0
  180.3250  180.2080  139.1090 C   0  0  0  0  0  2  0  0  0  0  0  0
  179.9050  180.8250  140.4170 C   0  0  0  0  0  3  0  0  0  0  0  0
  187.2120  177.6400  146.5950 O   0  0  0  0  0  0  0  0  0  0  0  0
  187.8330  177.7230  148.9750 C   0  0  0  0  0  1  0  0  0  0  0  0
  186.4140  179.3610  147.9310 O   0  0  0  0  0  1  0  0  0  0  0  0
  187.4690  178.4780  147.7070 C   0  0  2  0  0  3  0  0  0  0  0  0
  1 13  1  6  0  0  0
  1  5  1  0  0  0  0
  1  2  1  0  0  0  0
  2  3  1  0  0  0  0
  3 19  1  6  0  0  0
  3  7  1  0  0  0  0
  4 15  1  0  0  0  0
  4 13  1  0  0  0  0
  6 35  1  1  0  0  0
  6 11  1  0  0  0  0
  7 12  1  1  0  0  0
  7 17  1  0  0  0  0
  8  6  1  0  0  0  0
 10  1  1  0  0  0  0
 11 12  1  0  0  0  0
 14  5  1  6  0  0  0
 14 22  1  0  0  0  0
 14 18  1  0  0  0  0
 15 29  1  6  0  0  0
 15 10  1  0  0  0  0
 16 20  2  0  0  0  0
 17 45  1  1  0  0  0
 18 17  1  0  0  0  0
 19  8  2  0  0  0  0
 20  9  1  0  0  0  0
 20  4  1  0  0  0  0
 21 24  1  1  0  0  0
 22 23  1  6  0  0  0
 22 21  1  0  0  0  0
 23 21  1  0  0  0  0
 24 26  1  0  0  0  0
 24 27  1  0  0  0  0
 25 24  2  0  0  0  0
 28 29  2  0  0  0  0
 30 28  1  0  0  0  0
 31 33  1  0  0  0  0
 33 32  1  0  0  0  0
 33 30  1  0  0  0  0
 34 33  2  0  0  0  0
 35 36  1  0  0  0  0
 37 36  1  0  0  0  0
 38 41  1  0  0  0  0
 39 40  1  0  0  0  0
 40 42  1  0  0  0  0
 41 37  1  0  0  0  0
 42 41  1  0  0  0  0
 43 39  1  0  0  0  0
 43 44  1  0  0  0  0
 44 38  2  0  0  0  0
 45 48  1  0  0  0  0
 48 47  1  0  0  0  0
 48 46  1  1  0  0  0
M  END
>  <MODEL>
8

>  <REMARK>
 VINA RESULT:      -4.2      3.936      8.383
  Name = 
  11 active torsions:
  status: ('A' for Active; 'I' for Inactive)
    1  A    between atoms: C_1  and  C_21
    2  A    between atoms: C_7  and  C_15
    3  A    between atoms: C_7  and  C_30
    4  A    between atoms: P_12  and  C_14
    5  A    between atoms: C_21  and  P_22
    6  A    between atoms: N_25  and  C_40
    7  A    between atoms: C_30  and  C_40
    8  A    between atoms: C_32  and  C_37
    9  A    between atoms: C_33  and  C_45
   10  A    between atoms: O_34  and  C_36
   11  A    between atoms: O_34  and  C_39
                            x       y       z     vdW  Elec       q    Type
                         _______ _______ _______ _____ _____    ______ ____

>  <TORSDO>
F 11

$$$$
