=
 OpenBabel11042411563D

 37 41  0  0  1  0  0  0  0  0999 V2000
  190.5790  177.0550  140.4030 C   0  0  0  0  0  0  0  0  0  0  0  0
  191.6560  177.0150  145.0120 N   0  0  0  0  0  2  0  0  0  0  0  0
  192.3820  177.5590  141.8680 C   0  0  0  0  0  3  0  0  0  0  0  0
  192.0150  177.5410  140.3930 C   0  0  0  0  0  3  0  0  0  0  0  0
  191.2750  177.2410  142.5070 C   0  0  0  0  0  0  0  0  0  0  0  0
  189.6400  176.4200  143.8420 N   0  0  0  0  0  0  0  0  0  0  0  0
  190.2150  176.9450  141.6620 C   0  0  2  0  0  3  0  0  0  0  0  0
  189.0950  176.3740  142.4640 C   0  0  2  0  0  3  0  0  0  0  0  0
  190.8520  176.8970  143.8400 C   0  0  0  0  0  0  0  0  0  0  0  0
  184.0630  178.0220  144.5330 C   0  0  0  0  0  2  0  0  0  0  0  0
  187.8700  177.1750  142.3220 N   0  0  1  0  0  0  0  0  0  0  0  0
  185.4290  178.5340  144.9800 C   0  0  0  0  0  2  0  0  0  0  0  0
  185.8660  179.0430  142.4980 C   0  0  0  0  0  0  0  0  0  0  0  0
  183.5870  178.7910  143.3340 C   0  0  0  0  0  0  0  0  0  0  0  0
  187.2680  177.3150  143.6640 C   0  0  0  0  0  2  0  0  0  0  0  0
  182.2980  179.0560  143.1420 C   0  0  0  0  0  3  0  0  0  0  0  0
  186.8140  179.1750  141.3480 C   0  0  0  0  0  2  0  0  0  0  0  0
  188.1360  178.4830  141.6880 C   0  0  0  0  0  2  0  0  0  0  0  0
  186.4350  178.5950  143.8240 C   0  0  2  0  0  3  0  0  0  0  0  0
  184.5520  179.1370  142.2830 C   0  0  0  0  0  3  0  0  0  0  0  0
  179.0940  178.2320  144.6340 O   0  0  0  0  0  0  0  0  0  0  0  0
  179.4850  178.8470  142.4310 N   0  0  0  0  0  1  0  0  0  0  0  0
  179.9270  178.5810  143.7570 C   0  0  0  0  0  0  0  0  0  0  0  0
  181.3070  178.6940  144.1030 N   0  0  0  0  0  2  0  0  0  0  0  0
  189.3440  175.1740  137.4370 C   0  0  0  0  0  3  0  0  0  0  0  0
  189.7760  176.6810  139.2250 C   0  0  0  0  0  0  0  0  0  0  0  0
  190.0630  175.5460  138.5300 N   0  0  0  0  0  0  0  0  0  0  0  0
  188.7130  177.4920  138.8150 C   0  0  0  0  0  3  0  0  0  0  0  0
  188.2810  175.9650  136.9990 C   0  0  0  0  0  3  0  0  0  0  0  0
  187.9590  177.1400  137.6930 C   0  0  0  0  0  0  0  0  0  0  0  0
  186.9000  177.9790  137.3110 O   0  0  0  0  0  0  0  0  0  0  0  0
  185.6050  177.9630  137.8440 C   0  0  0  0  0  0  0  0  0  0  0  0
  184.7650  176.8660  137.6970 O   0  0  0  0  0  0  0  0  0  0  0  0
  185.1840  178.9790  138.4570 O   0  0  0  0  0  1  0  0  0  0  0  0
  191.1740  176.6680  146.2310 O   0  0  0  0  0  0  0  0  0  0  0  0
  191.9880  175.6190  146.6570 C   0  0  0  0  0  2  0  0  0  0  0  0
  192.5000  175.9090  148.0520 C   0  0  0  0  0  1  0  0  0  0  0  0
  2 35  1  0  0  0  0
  3  5  2  0  0  0  0
  4  1  2  0  0  0  0
  4  3  1  0  0  0  0
  5  9  1  0  0  0  0
  7  1  1  6  0  0  0
  7  8  1  0  0  0  0
  7  5  1  0  0  0  0
  8  6  1  1  0  0  0
  9  6  2  0  0  0  0
  9  2  1  0  0  0  0
 10 12  1  0  0  0  0
 11 18  1  1  0  0  0
 11  8  1  0  0  0  0
 11 15  1  0  0  0  0
 13 19  1  0  0  0  0
 14 10  1  0  0  0  0
 16 14  2  0  0  0  0
 16 24  1  0  0  0  0
 17 18  1  0  0  0  0
 17 13  1  0  0  0  0
 19 15  1  6  0  0  0
 19 12  1  0  0  0  0
 20 13  2  0  0  0  0
 20 14  1  0  0  0  0
 22 23  1  0  0  0  0
 23 24  1  0  0  0  0
 23 21  2  0  0  0  0
 25 27  1  0  0  0  0
 26  1  1  0  0  0  0
 27 26  2  0  0  0  0
 28 26  1  0  0  0  0
 29 25  2  0  0  0  0
 29 30  1  0  0  0  0
 30 28  2  0  0  0  0
 31 30  1  0  0  0  0
 31 32  1  0  0  0  0
 32 34  1  0  0  0  0
 33 32  2  0  0  0  0
 35 36  1  0  0  0  0
 36 37  1  0  0  0  0
M  END
>  <MODEL>
1

>  <REMARK>
 VINA RESULT:      -8.7      0.000      0.000
  Name = 
  7 active torsions:
  status: ('A' for Active; 'I' for Inactive)
    1  A    between atoms: C_1  and  C_13
    2  A    between atoms: N_4  and  C_36
    3  A    between atoms: C_8  and  O_21
    4  A    between atoms: O_9  and  C_22
    5  A    between atoms: O_9  and  C_33
    6  A    between atoms: N_12  and  O_21
    7  A    between atoms: C_20  and  N_25
                            x       y       z     vdW  Elec       q    Type
                         _______ _______ _______ _____ _____    ______ ____

>  <TORSDO>
F 7

$$$$
=
 OpenBabel11042411563D

 37 41  0  0  1  0  0  0  0  0999 V2000
  189.2180  177.5320  141.7330 C   0  0  0  0  0  0  0  0  0  0  0  0
  193.1570  176.9670  139.1680 N   0  0  0  0  0  2  0  0  0  0  0  0
  191.5320  177.0600  142.0070 C   0  0  0  0  0  3  0  0  0  0  0  0
  190.2550  177.2670  142.8060 C   0  0  0  0  0  2  0  0  0  0  0  0
  191.1640  177.1050  140.7440 C   0  0  0  0  0  0  0  0  0  0  0  0
  190.8900  177.4480  138.5220 N   0  0  0  0  0  0  0  0  0  0  0  0
  189.8140  177.3790  140.5710 C   0  0  0  0  0  0  0  0  0  0  0  0
  189.5500  177.6420  139.1270 C   0  0  2  0  0  3  0  0  0  0  0  0
  191.7690  177.1600  139.4380 C   0  0  0  0  0  0  0  0  0  0  0  0
  184.1920  176.5780  137.5530 C   0  0  0  0  0  2  0  0  0  0  0  0
  188.5530  176.7070  138.5850 N   0  0  1  0  0  0  0  0  0  0  0  0
  185.2250  177.3610  136.7490 C   0  0  0  0  0  2  0  0  0  0  0  0
  186.7580  175.3170  137.0410 C   0  0  0  0  0  0  0  0  0  0  0  0
  184.3390  175.1060  137.2940 C   0  0  0  0  0  0  0  0  0  0  0  0
  187.4140  177.5050  138.0860 C   0  0  0  0  0  2  0  0  0  0  0  0
  183.2880  174.2920  137.2790 C   0  0  0  0  0  3  0  0  0  0  0  0
  188.1280  174.7310  137.1770 C   0  0  0  0  0  2  0  0  0  0  0  0
  189.1260  175.8340  137.5390 C   0  0  0  0  0  2  0  0  0  0  0  0
  186.6480  176.8210  136.9450 C   0  0  2  0  0  3  0  0  0  0  0  0
  185.6880  174.5340  137.1950 C   0  0  0  0  0  3  0  0  0  0  0  0
  179.6830  174.3880  137.6880 O   0  0  0  0  0  0  0  0  0  0  0  0
  181.0090  172.4950  137.4740 N   0  0  0  0  0  1  0  0  0  0  0  0
  180.8360  173.9070  137.5320 C   0  0  0  0  0  0  0  0  0  0  0  0
  181.9570  174.7840  137.4260 N   0  0  0  0  0  2  0  0  0  0  0  0
  185.8770  179.0640  141.1420 C   0  0  0  0  0  3  0  0  0  0  0  0
  187.8300  177.9750  141.9510 C   0  0  0  0  0  0  0  0  0  0  0  0
  187.1570  178.6380  140.9710 N   0  0  0  0  0  0  0  0  0  0  0  0
  187.1950  177.7160  143.1710 C   0  0  0  0  0  3  0  0  0  0  0  0
  185.2180  178.8270  142.3490 C   0  0  0  0  0  3  0  0  0  0  0  0
  185.8820  178.1460  143.3800 C   0  0  0  0  0  0  0  0  0  0  0  0
  185.2780  177.8690  144.6160 O   0  0  0  0  0  0  0  0  0  0  0  0
  184.7870  178.8170  145.5230 C   0  0  0  0  0  0  0  0  0  0  0  0
  185.6020  179.3970  146.4880 O   0  0  0  0  0  1  0  0  0  0  0  0
  183.5710  179.1370  145.4740 O   0  0  0  0  0  0  0  0  0  0  0  0
  193.6410  177.0350  137.9040 O   0  0  0  0  0  0  0  0  0  0  0  0
  193.7180  175.7100  137.4750 C   0  0  0  0  0  2  0  0  0  0  0  0
  192.9400  175.5480  136.1860 C   0  0  0  0  0  1  0  0  0  0  0  0
  1 26  1  0  0  0  0
  1  4  1  0  0  0  0
  2  9  1  0  0  0  0
  3  4  1  0  0  0  0
  5  3  2  0  0  0  0
  6  9  2  0  0  0  0
  7  5  1  0  0  0  0
  7  1  2  0  0  0  0
  8  6  1  6  0  0  0
  8  7  1  0  0  0  0
  9  5  1  0  0  0  0
 11 18  1  6  0  0  0
 11  8  1  0  0  0  0
 12 10  1  0  0  0  0
 13 17  1  0  0  0  0
 13 20  2  0  0  0  0
 14 10  1  0  0  0  0
 15 11  1  0  0  0  0
 16 14  2  0  0  0  0
 16 24  1  0  0  0  0
 17 18  1  0  0  0  0
 19 12  1  1  0  0  0
 19 13  1  0  0  0  0
 19 15  1  0  0  0  0
 20 14  1  0  0  0  0
 22 23  1  0  0  0  0
 23 21  2  0  0  0  0
 24 23  1  0  0  0  0
 25 29  1  0  0  0  0
 26 28  2  0  0  0  0
 27 25  2  0  0  0  0
 27 26  1  0  0  0  0
 28 30  1  0  0  0  0
 29 30  2  0  0  0  0
 30 31  1  0  0  0  0
 31 32  1  0  0  0  0
 32 33  1  0  0  0  0
 34 32  2  0  0  0  0
 35  2  1  0  0  0  0
 36 35  1  0  0  0  0
 37 36  1  0  0  0  0
M  END
>  <MODEL>
2

>  <REMARK>
 VINA RESULT:      -8.1      3.479      6.561
  Name = 
  7 active torsions:
  status: ('A' for Active; 'I' for Inactive)
    1  A    between atoms: C_1  and  C_13
    2  A    between atoms: N_4  and  C_36
    3  A    between atoms: C_8  and  O_21
    4  A    between atoms: O_9  and  C_22
    5  A    between atoms: O_9  and  C_33
    6  A    between atoms: N_12  and  O_21
    7  A    between atoms: C_20  and  N_25
                            x       y       z     vdW  Elec       q    Type
                         _______ _______ _______ _____ _____    ______ ____

>  <TORSDO>
F 7

$$$$
=
 OpenBabel11042411563D

 37 41  0  0  1  0  0  0  0  0999 V2000
  190.8380  177.6380  142.3840 C   0  0  0  0  0  0  0  0  0  0  0  0
  189.3160  177.5530  146.8660 N   0  0  0  0  0  2  0  0  0  0  0  0
  191.5060  178.3240  144.5590 C   0  0  0  0  0  3  0  0  0  0  0  0
  191.9780  178.3180  143.1150 C   0  0  0  0  0  3  0  0  0  0  0  0
  190.2860  177.8300  144.5300 C   0  0  0  0  0  0  0  0  0  0  0  0
  188.3260  176.7350  144.8310 N   0  0  0  0  0  0  0  0  0  0  0  0
  189.8840  177.4260  143.2640 C   0  0  2  0  0  3  0  0  0  0  0  0
  188.6020  176.6720  143.3760 C   0  0  2  0  0  3  0  0  0  0  0  0
  189.2760  177.3740  145.4500 C   0  0  0  0  0  0  0  0  0  0  0  0
  183.1600  178.2270  142.8450 C   0  0  0  0  0  2  0  0  0  0  0  0
  187.5390  177.3010  142.5790 N   0  0  1  0  0  0  0  0  0  0  0  0
  184.2260  178.9530  143.6600 C   0  0  0  0  0  2  0  0  0  0  0  0
  185.6310  178.9600  141.5070 C   0  0  0  0  0  0  0  0  0  0  0  0
  183.2100  178.6730  141.4120 C   0  0  0  0  0  0  0  0  0  0  0  0
  186.4430  177.6650  143.5010 C   0  0  0  0  0  2  0  0  0  0  0  0
  182.1090  178.7630  140.6710 C   0  0  0  0  0  3  0  0  0  0  0  0
  186.9640  178.9350  140.8270 C   0  0  0  0  0  2  0  0  0  0  0  0
  188.0360  178.4630  141.8130 C   0  0  0  0  0  2  0  0  0  0  0  0
  185.6150  178.8630  143.0150 C   0  0  2  0  0  3  0  0  0  0  0  0
  184.5180  178.8780  140.7770 C   0  0  0  0  0  3  0  0  0  0  0  0
  178.9320  177.1740  141.4160 O   0  0  0  0  0  0  0  0  0  0  0  0
  180.5700  176.3970  139.9660 N   0  0  0  0  0  1  0  0  0  0  0  0
  180.0590  177.3570  140.8850 C   0  0  0  0  0  0  0  0  0  0  0  0
  180.8140  178.5210  141.2200 N   0  0  0  0  0  2  0  0  0  0  0  0
  189.6510  176.3870  139.0840 C   0  0  0  0  0  3  0  0  0  0  0  0
  190.8380  177.2060  140.9750 C   0  0  0  0  0  0  0  0  0  0  0  0
  189.6840  176.7960  140.3810 N   0  0  0  0  0  0  0  0  0  0  0  0
  192.0280  177.2150  140.2400 C   0  0  0  0  0  3  0  0  0  0  0  0
  190.8220  176.3790  138.3260 C   0  0  0  0  0  3  0  0  0  0  0  0
  192.0280  176.7960  138.9070 C   0  0  0  0  0  0  0  0  0  0  0  0
  193.2410  176.8180  138.2000 O   0  0  0  0  0  0  0  0  0  0  0  0
  193.8150  175.7390  137.5160 C   0  0  0  0  0  0  0  0  0  0  0  0
  193.5350  174.4220  137.8590 O   0  0  0  0  0  1  0  0  0  0  0  0
  194.6210  175.9710  136.5770 O   0  0  0  0  0  0  0  0  0  0  0  0
  188.3180  177.0920  147.6580 O   0  0  0  0  0  0  0  0  0  0  0  0
  187.6720  178.2360  148.1290 C   0  0  0  0  0  2  0  0  0  0  0  0
  186.4290  178.4920  147.3030 C   0  0  0  0  0  1  0  0  0  0  0  0
  1  4  2  0  0  0  0
  2 35  1  0  0  0  0
  4  3  1  0  0  0  0
  5  3  2  0  0  0  0
  5  9  1  0  0  0  0
  6  9  2  0  0  0  0
  7  1  1  1  0  0  0
  7  8  1  0  0  0  0
  7  5  1  0  0  0  0
  8  6  1  1  0  0  0
  9  2  1  0  0  0  0
 10 12  1  0  0  0  0
 11 18  1  1  0  0  0
 11  8  1  0  0  0  0
 11 15  1  0  0  0  0
 13 19  1  0  0  0  0
 14 10  1  0  0  0  0
 16 24  1  0  0  0  0
 16 14  2  0  0  0  0
 17 13  1  0  0  0  0
 17 18  1  0  0  0  0
 19 15  1  6  0  0  0
 19 12  1  0  0  0  0
 20 14  1  0  0  0  0
 20 13  2  0  0  0  0
 22 23  1  0  0  0  0
 23 24  1  0  0  0  0
 23 21  2  0  0  0  0
 25 27  1  0  0  0  0
 26  1  1  0  0  0  0
 27 26  2  0  0  0  0
 28 26  1  0  0  0  0
 29 30  1  0  0  0  0
 29 25  2  0  0  0  0
 30 28  2  0  0  0  0
 31 30  1  0  0  0  0
 32 33  1  0  0  0  0
 32 31  1  0  0  0  0
 34 32  2  0  0  0  0
 35 36  1  0  0  0  0
 37 36  1  0  0  0  0
M  END
>  <MODEL>
3

>  <REMARK>
 VINA RESULT:      -8.1      2.852      3.853
  Name = 
  7 active torsions:
  status: ('A' for Active; 'I' for Inactive)
    1  A    between atoms: C_1  and  C_13
    2  A    between atoms: N_4  and  C_36
    3  A    between atoms: C_8  and  O_21
    4  A    between atoms: O_9  and  C_22
    5  A    between atoms: O_9  and  C_33
    6  A    between atoms: N_12  and  O_21
    7  A    between atoms: C_20  and  N_25
                            x       y       z     vdW  Elec       q    Type
                         _______ _______ _______ _____ _____    ______ ____

>  <TORSDO>
F 7

$$$$
=
 OpenBabel11042411563D

 37 41  0  0  1  0  0  0  0  0999 V2000
  190.5730  177.0000  140.4390 C   0  0  0  0  0  0  0  0  0  0  0  0
  191.5930  176.9900  145.0620 N   0  0  0  0  0  2  0  0  0  0  0  0
  192.3520  177.5270  141.9240 C   0  0  0  0  0  3  0  0  0  0  0  0
  192.0030  177.5000  140.4460 C   0  0  0  0  0  3  0  0  0  0  0  0
  191.2410  177.2010  142.5510 C   0  0  0  0  0  0  0  0  0  0  0  0
  189.5970  176.3710  143.8700 N   0  0  0  0  0  0  0  0  0  0  0  0
  190.1940  176.8920  141.6940 C   0  0  2  0  0  3  0  0  0  0  0  0
  189.0690  176.3130  142.4850 C   0  0  2  0  0  3  0  0  0  0  0  0
  190.8040  176.8590  143.8800 C   0  0  0  0  0  0  0  0  0  0  0  0
  184.0900  178.0870  144.5780 C   0  0  0  0  0  2  0  0  0  0  0  0
  187.8390  177.1020  142.3240 N   0  0  1  0  0  0  0  0  0  0  0  0
  185.4660  178.6280  144.9530 C   0  0  0  0  0  2  0  0  0  0  0  0
  185.8350  178.9750  142.4320 C   0  0  0  0  0  0  0  0  0  0  0  0
  183.5800  178.7760  143.3450 C   0  0  0  0  0  0  0  0  0  0  0  0
  187.2720  177.3280  143.6700 C   0  0  0  0  0  2  0  0  0  0  0  0
  182.2850  179.0250  143.1700 C   0  0  0  0  0  3  0  0  0  0  0  0
  186.7510  179.0330  141.2500 C   0  0  0  0  0  2  0  0  0  0  0  0
  188.0840  178.3660  141.5990 C   0  0  0  0  0  2  0  0  0  0  0  0
  186.4410  178.6150  143.7680 C   0  0  2  0  0  3  0  0  0  0  0  0
  184.5150  179.0530  142.2470 C   0  0  0  0  0  3  0  0  0  0  0  0
  179.1790  178.0640  144.7810 O   0  0  0  0  0  0  0  0  0  0  0  0
  179.5570  178.2670  142.5010 N   0  0  0  0  0  1  0  0  0  0  0  0
  179.9850  178.3450  143.8560 C   0  0  0  0  0  0  0  0  0  0  0  0
  181.3220  178.7260  144.1800 N   0  0  0  0  0  2  0  0  0  0  0  0
  187.9550  177.0090  137.7920 C   0  0  0  0  0  3  0  0  0  0  0  0
  189.7880  176.6130  139.2540 C   0  0  0  0  0  0  0  0  0  0  0  0
  188.7010  177.3420  138.8780 N   0  0  0  0  0  0  0  0  0  0  0  0
  190.1580  175.4890  138.5060 C   0  0  0  0  0  3  0  0  0  0  0  0
  188.2930  175.8910  137.0290 C   0  0  0  0  0  3  0  0  0  0  0  0
  189.4070  175.1180  137.3870 C   0  0  0  0  0  0  0  0  0  0  0  0
  189.8070  173.9850  136.6610 O   0  0  0  0  0  0  0  0  0  0  0  0
  188.9680  172.9620  136.2030 C   0  0  0  0  0  0  0  0  0  0  0  0
  188.1080  172.2830  137.0580 O   0  0  0  0  0  1  0  0  0  0  0  0
  189.0080  172.6370  134.9880 O   0  0  0  0  0  0  0  0  0  0  0  0
  191.0980  176.6440  146.2760 O   0  0  0  0  0  0  0  0  0  0  0  0
  191.9160  175.6030  146.7160 C   0  0  0  0  0  2  0  0  0  0  0  0
  192.4630  175.9340  148.0880 C   0  0  0  0  0  1  0  0  0  0  0  0
  1  4  2  0  0  0  0
  2 35  1  0  0  0  0
  3  5  2  0  0  0  0
  4  3  1  0  0  0  0
  5  9  1  0  0  0  0
  6  9  2  0  0  0  0
  7  1  1  6  0  0  0
  7  8  1  0  0  0  0
  7  5  1  0  0  0  0
  8  6  1  1  0  0  0
  9  2  1  0  0  0  0
 10 12  1  0  0  0  0
 11 18  1  1  0  0  0
 11  8  1  0  0  0  0
 11 15  1  0  0  0  0
 13 19  1  0  0  0  0
 14 10  1  0  0  0  0
 16 14  2  0  0  0  0
 16 24  1  0  0  0  0
 17 18  1  0  0  0  0
 17 13  1  0  0  0  0
 19 15  1  6  0  0  0
 19 12  1  0  0  0  0
 20 13  2  0  0  0  0
 20 14  1  0  0  0  0
 22 23  1  0  0  0  0
 23 24  1  0  0  0  0
 23 21  2  0  0  0  0
 25 27  1  0  0  0  0
 26  1  1  0  0  0  0
 27 26  2  0  0  0  0
 28 26  1  0  0  0  0
 29 30  1  0  0  0  0
 29 25  2  0  0  0  0
 30 28  2  0  0  0  0
 31 30  1  0  0  0  0
 32 31  1  0  0  0  0
 32 33  1  0  0  0  0
 34 32  2  0  0  0  0
 35 36  1  0  0  0  0
 36 37  1  0  0  0  0
M  END
>  <MODEL>
4

>  <REMARK>
 VINA RESULT:      -7.9      1.809      2.249
  Name = 
  7 active torsions:
  status: ('A' for Active; 'I' for Inactive)
    1  A    between atoms: C_1  and  C_13
    2  A    between atoms: N_4  and  C_36
    3  A    between atoms: C_8  and  O_21
    4  A    between atoms: O_9  and  C_22
    5  A    between atoms: O_9  and  C_33
    6  A    between atoms: N_12  and  O_21
    7  A    between atoms: C_20  and  N_25
                            x       y       z     vdW  Elec       q    Type
                         _______ _______ _______ _____ _____    ______ ____

>  <TORSDO>
F 7

$$$$
=
 OpenBabel11042411563D

 37 41  0  0  1  0  0  0  0  0999 V2000
  190.8030  177.5790  142.1940 C   0  0  0  0  0  0  0  0  0  0  0  0
  189.5010  177.4300  146.7430 N   0  0  0  0  0  2  0  0  0  0  0  0
  191.5970  178.1940  144.3480 C   0  0  0  0  0  3  0  0  0  0  0  0
  191.9970  178.2090  142.8830 C   0  0  0  0  0  3  0  0  0  0  0  0
  190.3640  177.7350  144.3680 C   0  0  0  0  0  0  0  0  0  0  0  0
  188.3890  176.6880  144.7420 N   0  0  0  0  0  0  0  0  0  0  0  0
  189.8880  177.3720  143.1150 C   0  0  2  0  0  3  0  0  0  0  0  0
  188.5920  176.6520  143.2740 C   0  0  2  0  0  3  0  0  0  0  0  0
  189.3870  177.2860  145.3280 C   0  0  0  0  0  0  0  0  0  0  0  0
  183.1070  178.0970  142.9010 C   0  0  0  0  0  2  0  0  0  0  0  0
  187.5100  177.3290  142.5450 N   0  0  1  0  0  0  0  0  0  0  0  0
  184.1530  178.7660  143.7870 C   0  0  0  0  0  2  0  0  0  0  0  0
  185.5540  179.0350  141.6480 C   0  0  0  0  0  0  0  0  0  0  0  0
  183.1410  178.6890  141.5210 C   0  0  0  0  0  0  0  0  0  0  0  0
  186.4060  177.5650  143.4990 C   0  0  0  0  0  2  0  0  0  0  0  0
  182.0370  178.8240  140.7930 C   0  0  0  0  0  3  0  0  0  0  0  0
  186.8850  179.1170  140.9700 C   0  0  0  0  0  2  0  0  0  0  0  0
  187.9720  178.5770  141.9030 C   0  0  0  0  0  2  0  0  0  0  0  0
  185.5430  178.7830  143.1380 C   0  0  2  0  0  3  0  0  0  0  0  0
  184.4410  178.9960  140.9120 C   0  0  0  0  0  3  0  0  0  0  0  0
  178.9300  177.0500  141.4060 O   0  0  0  0  0  0  0  0  0  0  0  0
  180.6120  176.4400  139.9270 N   0  0  0  0  0  1  0  0  0  0  0  0
  180.0510  177.3170  140.8980 C   0  0  0  0  0  0  0  0  0  0  0  0
  180.7500  178.4900  141.3120 N   0  0  0  0  0  2  0  0  0  0  0  0
  191.7950  176.3930  138.8080 C   0  0  0  0  0  3  0  0  0  0  0  0
  190.7220  177.1800  140.7780 C   0  0  0  0  0  0  0  0  0  0  0  0
  191.8360  176.7630  140.1150 N   0  0  0  0  0  0  0  0  0  0  0  0
  189.4960  177.2290  140.1050 C   0  0  0  0  0  3  0  0  0  0  0  0
  190.5890  176.4360  138.1070 C   0  0  0  0  0  3  0  0  0  0  0  0
  189.4230  176.8600  138.7600 C   0  0  0  0  0  0  0  0  0  0  0  0
  188.1760  176.9220  138.1180 O   0  0  0  0  0  0  0  0  0  0  0  0
  187.7640  177.9090  137.2130 C   0  0  0  0  0  0  0  0  0  0  0  0
  187.0900  177.5910  136.0400 O   0  0  0  0  0  0  0  0  0  0  0  0
  188.0290  179.1150  137.4610 O   0  0  0  0  0  1  0  0  0  0  0  0
  188.5300  176.9780  147.5730 O   0  0  0  0  0  0  0  0  0  0  0  0
  187.9580  178.1280  148.1190 C   0  0  0  0  0  2  0  0  0  0  0  0
  186.6530  178.4280  147.4130 C   0  0  0  0  0  1  0  0  0  0  0  0
  1  4  2  0  0  0  0
  2 35  1  0  0  0  0
  3  5  2  0  0  0  0
  4  3  1  0  0  0  0
  5  9  1  0  0  0  0
  6  9  2  0  0  0  0
  7  1  1  1  0  0  0
  7  8  1  0  0  0  0
  7  5  1  0  0  0  0
  8  6  1  1  0  0  0
  9  2  1  0  0  0  0
 10 12  1  0  0  0  0
 11 18  1  1  0  0  0
 11  8  1  0  0  0  0
 11 15  1  0  0  0  0
 13 19  1  0  0  0  0
 14 10  1  0  0  0  0
 16 24  1  0  0  0  0
 16 14  2  0  0  0  0
 17 13  1  0  0  0  0
 17 18  1  0  0  0  0
 19 15  1  6  0  0  0
 19 12  1  0  0  0  0
 20 14  1  0  0  0  0
 20 13  2  0  0  0  0
 22 23  1  0  0  0  0
 23 24  1  0  0  0  0
 23 21  2  0  0  0  0
 25 27  1  0  0  0  0
 26  1  1  0  0  0  0
 27 26  2  0  0  0  0
 28 26  1  0  0  0  0
 29 30  1  0  0  0  0
 29 25  2  0  0  0  0
 30 28  2  0  0  0  0
 31 30  1  0  0  0  0
 32 34  1  0  0  0  0
 32 31  1  0  0  0  0
 33 32  2  0  0  0  0
 35 36  1  0  0  0  0
 37 36  1  0  0  0  0
M  END
>  <MODEL>
5

>  <REMARK>
 VINA RESULT:      -7.7      1.959      2.534
  Name = 
  7 active torsions:
  status: ('A' for Active; 'I' for Inactive)
    1  A    between atoms: C_1  and  C_13
    2  A    between atoms: N_4  and  C_36
    3  A    between atoms: C_8  and  O_21
    4  A    between atoms: O_9  and  C_22
    5  A    between atoms: O_9  and  C_33
    6  A    between atoms: N_12  and  O_21
    7  A    between atoms: C_20  and  N_25
                            x       y       z     vdW  Elec       q    Type
                         _______ _______ _______ _____ _____    ______ ____

>  <TORSDO>
F 7

$$$$
=
 OpenBabel11042411563D

 37 41  0  0  1  0  0  0  0  0999 V2000
  185.5260  176.7940  137.0520 C   0  0  0  0  0  0  0  0  0  0  0  0
  180.8070  176.8840  137.4140 N   0  0  0  0  0  2  0  0  0  0  0  0
  183.5980  175.7330  136.1520 C   0  0  0  0  0  3  0  0  0  0  0  0
  185.1140  175.7420  136.0420 C   0  0  0  0  0  3  0  0  0  0  0  0
  183.3150  176.5640  137.1330 C   0  0  0  0  0  0  0  0  0  0  0  0
  182.5150  178.1500  138.5390 N   0  0  0  0  0  0  0  0  0  0  0  0
  184.4330  177.1900  137.6680 C   0  0  2  0  0  3  0  0  0  0  0  0
  183.9920  178.2720  138.5940 C   0  0  2  0  0  3  0  0  0  0  0  0
  182.1640  177.2030  137.7170 C   0  0  0  0  0  0  0  0  0  0  0  0
  188.4480  177.8280  142.0960 C   0  0  0  0  0  2  0  0  0  0  0  0
  184.5180  178.0630  139.9510 N   0  0  1  0  0  0  0  0  0  0  0  0
  187.8650  179.1260  141.5440 C   0  0  0  0  0  2  0  0  0  0  0  0
  185.6060  178.3080  142.4600 C   0  0  0  0  0  0  0  0  0  0  0  0
  187.7020  177.4080  143.3300 C   0  0  0  0  0  0  0  0  0  0  0  0
  185.9020  178.5800  139.9800 C   0  0  0  0  0  2  0  0  0  0  0  0
  188.3120  176.7920  144.3380 C   0  0  0  0  0  3  0  0  0  0  0  0
  184.1140  178.2540  142.3730 C   0  0  0  0  0  2  0  0  0  0  0  0
  183.6630  178.6940  140.9780 C   0  0  0  0  0  2  0  0  0  0  0  0
  186.3420  179.0550  141.3730 C   0  0  2  0  0  3  0  0  0  0  0  0
  186.2410  177.5560  143.3620 C   0  0  0  0  0  3  0  0  0  0  0  0
  191.7500  176.5180  145.4680 O   0  0  0  0  0  0  0  0  0  0  0  0
  189.9210  177.1860  146.7300 N   0  0  0  0  0  1  0  0  0  0  0  0
  190.5140  176.7530  145.5110 C   0  0  0  0  0  0  0  0  0  0  0  0
  189.7220  176.5700  144.3380 N   0  0  0  0  0  2  0  0  0  0  0  0
  188.4560  179.0820  136.8550 C   0  0  0  0  0  3  0  0  0  0  0  0
  186.8810  177.3420  137.2380 C   0  0  0  0  0  0  0  0  0  0  0  0
  187.2140  178.5500  136.7050 N   0  0  0  0  0  0  0  0  0  0  0  0
  187.8340  176.6220  137.9660 C   0  0  0  0  0  3  0  0  0  0  0  0
  189.4310  178.3860  137.5700 C   0  0  0  0  0  3  0  0  0  0  0  0
  189.1210  177.1390  138.1330 C   0  0  0  0  0  0  0  0  0  0  0  0
  190.0520  176.3890  138.8690 O   0  0  0  0  0  0  0  0  0  0  0  0
  191.1530  175.7000  138.3450 C   0  0  0  0  0  0  0  0  0  0  0  0
  192.3980  176.3040  138.2110 O   0  0  0  0  0  1  0  0  0  0  0  0
  191.0060  174.5080  137.9680 O   0  0  0  0  0  0  0  0  0  0  0  0
  179.7820  177.5380  138.0150 O   0  0  0  0  0  0  0  0  0  0  0  0
  179.2240  176.6070  138.8910 C   0  0  0  0  0  2  0  0  0  0  0  0
  179.4990  177.0280  140.3200 C   0  0  0  0  0  1  0  0  0  0  0  0
  1 26  1  0  0  0  0
  2  9  1  0  0  0  0
  2 35  1  0  0  0  0
  3  5  2  0  0  0  0
  4  3  1  0  0  0  0
  4  1  2  0  0  0  0
  5  7  1  0  0  0  0
  5  9  1  0  0  0  0
  7  1  1  6  0  0  0
  7  8  1  0  0  0  0
  8  6  1  1  0  0  0
  8 11  1  0  0  0  0
  9  6  2  0  0  0  0
 10 14  1  0  0  0  0
 11 15  1  6  0  0  0
 11 18  1  0  0  0  0
 12 10  1  0  0  0  0
 13 20  2  0  0  0  0
 14 20  1  0  0  0  0
 14 16  2  0  0  0  0
 17 13  1  0  0  0  0
 18 17  1  0  0  0  0
 19 15  1  6  0  0  0
 19 12  1  0  0  0  0
 19 13  1  0  0  0  0
 21 23  2  0  0  0  0
 23 22  1  0  0  0  0
 24 16  1  0  0  0  0
 24 23  1  0  0  0  0
 25 29  1  0  0  0  0
 26 28  2  0  0  0  0
 27 25  2  0  0  0  0
 27 26  1  0  0  0  0
 28 30  1  0  0  0  0
 29 30  2  0  0  0  0
 30 31  1  0  0  0  0
 32 31  1  0  0  0  0
 33 32  1  0  0  0  0
 34 32  2  0  0  0  0
 35 36  1  0  0  0  0
 36 37  1  0  0  0  0
M  END
>  <MODEL>
6

>  <REMARK>
 VINA RESULT:      -7.6      2.956      7.926
  Name = 
  7 active torsions:
  status: ('A' for Active; 'I' for Inactive)
    1  A    between atoms: C_1  and  C_13
    2  A    between atoms: N_4  and  C_36
    3  A    between atoms: C_8  and  O_21
    4  A    between atoms: O_9  and  C_22
    5  A    between atoms: O_9  and  C_33
    6  A    between atoms: N_12  and  O_21
    7  A    between atoms: C_20  and  N_25
                            x       y       z     vdW  Elec       q    Type
                         _______ _______ _______ _____ _____    ______ ____

>  <TORSDO>
F 7

$$$$
=
 OpenBabel11042411563D

 37 41  0  0  1  0  0  0  0  0999 V2000
  183.5440  176.6030  137.3990 C   0  0  0  0  0  0  0  0  0  0  0  0
  180.1500  179.6990  138.5430 N   0  0  0  0  0  2  0  0  0  0  0  0
  181.2100  176.9530  137.1130 C   0  0  0  0  0  3  0  0  0  0  0  0
  182.3240  175.9880  136.7430 C   0  0  0  0  0  3  0  0  0  0  0  0
  181.7680  177.8380  137.9120 C   0  0  0  0  0  0  0  0  0  0  0  0
  182.5050  179.6630  139.0350 N   0  0  0  0  0  0  0  0  0  0  0  0
  183.1310  177.6450  138.0880 C   0  0  2  0  0  3  0  0  0  0  0  0
  183.7040  178.8210  138.8040 C   0  0  2  0  0  3  0  0  0  0  0  0
  181.4460  179.1020  138.5250 C   0  0  0  0  0  0  0  0  0  0  0  0
  188.4520  177.6070  141.6850 C   0  0  0  0  0  2  0  0  0  0  0  0
  184.3520  178.4190  140.0610 N   0  0  1  0  0  0  0  0  0  0  0  0
  187.9440  179.0040  141.3380 C   0  0  0  0  0  2  0  0  0  0  0  0
  185.7300  178.2900  142.4330 C   0  0  0  0  0  0  0  0  0  0  0  0
  187.8090  177.1210  142.9510 C   0  0  0  0  0  0  0  0  0  0  0  0
  185.7760  178.8070  139.9750 C   0  0  0  0  0  2  0  0  0  0  0  0
  188.4620  176.3470  143.8130 C   0  0  0  0  0  3  0  0  0  0  0  0
  184.2390  178.3760  142.5210 C   0  0  0  0  0  2  0  0  0  0  0  0
  183.6830  179.0040  141.2410 C   0  0  0  0  0  2  0  0  0  0  0  0
  186.4120  179.0850  141.3440 C   0  0  2  0  0  3  0  0  0  0  0  0
  186.3820  177.3910  143.1730 C   0  0  0  0  0  3  0  0  0  0  0  0
  192.0550  176.1470  144.2860 O   0  0  0  0  0  0  0  0  0  0  0  0
  190.5520  177.3780  145.5550 N   0  0  0  0  0  1  0  0  0  0  0  0
  190.8620  176.4990  144.4790 C   0  0  0  0  0  0  0  0  0  0  0  0
  189.8340  176.0040  143.6210 N   0  0  0  0  0  2  0  0  0  0  0  0
  186.5560  174.4310  137.1310 C   0  0  0  0  0  3  0  0  0  0  0  0
  184.9430  176.1760  137.2170 C   0  0  0  0  0  0  0  0  0  0  0  0
  185.2750  174.8580  137.2910 N   0  0  0  0  0  0  0  0  0  0  0  0
  185.9390  177.1260  136.9680 C   0  0  0  0  0  3  0  0  0  0  0  0
  187.5730  175.3540  136.8870 C   0  0  0  0  0  3  0  0  0  0  0  0
  187.2660  176.7200  136.8050 C   0  0  0  0  0  0  0  0  0  0  0  0
  188.2380  177.7010  136.5560 O   0  0  0  0  0  0  0  0  0  0  0  0
  189.0030  178.3670  137.5230 C   0  0  0  0  0  0  0  0  0  0  0  0
  189.0470  179.7540  137.5930 O   0  0  0  0  0  0  0  0  0  0  0  0
  189.6820  177.6890  138.3380 O   0  0  0  0  0  1  0  0  0  0  0  0
  179.9380  180.8940  139.1470 O   0  0  0  0  0  0  0  0  0  0  0  0
  179.6090  181.7680  138.1110 C   0  0  0  0  0  2  0  0  0  0  0  0
  180.7790  182.6880  137.8320 C   0  0  0  0  0  1  0  0  0  0  0  0
  2 35  1  0  0  0  0
  3  5  2  0  0  0  0
  4  3  1  0  0  0  0
  4  1  2  0  0  0  0
  5  7  1  0  0  0  0
  5  9  1  0  0  0  0
  7  1  1  6  0  0  0
  7  8  1  0  0  0  0
  8  6  1  1  0  0  0
  8 11  1  0  0  0  0
  9  2  1  0  0  0  0
  9  6  2  0  0  0  0
 10 14  1  0  0  0  0
 11 15  1  6  0  0  0
 11 18  1  0  0  0  0
 12 19  1  0  0  0  0
 12 10  1  0  0  0  0
 13 17  1  0  0  0  0
 13 20  2  0  0  0  0
 14 20  1  0  0  0  0
 14 16  2  0  0  0  0
 18 17  1  0  0  0  0
 19 15  1  6  0  0  0
 19 13  1  0  0  0  0
 21 23  2  0  0  0  0
 23 22  1  0  0  0  0
 24 16  1  0  0  0  0
 24 23  1  0  0  0  0
 25 27  1  0  0  0  0
 26 27  2  0  0  0  0
 26  1  1  0  0  0  0
 28 26  1  0  0  0  0
 29 25  2  0  0  0  0
 30 29  1  0  0  0  0
 30 28  2  0  0  0  0
 31 30  1  0  0  0  0
 31 32  1  0  0  0  0
 32 33  2  0  0  0  0
 32 34  1  0  0  0  0
 36 35  1  0  0  0  0
 37 36  1  0  0  0  0
M  END
>  <MODEL>
7

>  <REMARK>
 VINA RESULT:      -7.5      3.028      8.247
  Name = 
  7 active torsions:
  status: ('A' for Active; 'I' for Inactive)
    1  A    between atoms: C_1  and  C_13
    2  A    between atoms: N_4  and  C_36
    3  A    between atoms: C_8  and  O_21
    4  A    between atoms: O_9  and  C_22
    5  A    between atoms: O_9  and  C_33
    6  A    between atoms: N_12  and  O_21
    7  A    between atoms: C_20  and  N_25
                            x       y       z     vdW  Elec       q    Type
                         _______ _______ _______ _____ _____    ______ ____

>  <TORSDO>
F 7

$$$$
=
 OpenBabel11042411563D

 37 41  0  0  1  0  0  0  0  0999 V2000
  185.6030  178.2320  142.2370 C   0  0  0  0  0  0  0  0  0  0  0  0
  189.7590  178.1900  144.5030 N   0  0  0  0  0  2  0  0  0  0  0  0
  186.5010  177.8960  144.4120 C   0  0  0  0  0  3  0  0  0  0  0  0
  185.1800  177.9370  143.6620 C   0  0  0  0  0  2  0  0  0  0  0  0
  187.4300  178.0370  143.4900 C   0  0  0  0  0  0  0  0  0  0  0  0
  189.2080  178.5740  142.1930 N   0  0  0  0  0  0  0  0  0  0  0  0
  186.9180  178.2330  142.2150 C   0  0  0  0  0  0  0  0  0  0  0  0
  188.0280  178.6160  141.2950 C   0  0  2  0  0  3  0  0  0  0  0  0
  188.8500  178.2590  143.4050 C   0  0  0  0  0  0  0  0  0  0  0  0
  185.9000  176.4280  136.5000 C   0  0  0  0  0  2  0  0  0  0  0  0
  188.1470  177.6710  140.1750 N   0  0  1  0  0  0  0  0  0  0  0  0
  186.6240  177.7640  136.6330 C   0  0  0  0  0  2  0  0  0  0  0  0
  188.5210  176.4360  137.7510 C   0  0  0  0  0  0  0  0  0  0  0  0
  186.8920  175.3150  136.3200 C   0  0  0  0  0  0  0  0  0  0  0  0
  187.2600  178.1460  139.0930 C   0  0  0  0  0  2  0  0  0  0  0  0
  186.6230  174.2560  135.5630 C   0  0  0  0  0  3  0  0  0  0  0  0
  189.6500  176.3610  138.7300 C   0  0  0  0  0  2  0  0  0  0  0  0
  189.5460  177.5180  139.7270 C   0  0  0  0  0  2  0  0  0  0  0  0
  187.7320  177.7240  137.6940 C   0  0  2  0  0  3  0  0  0  0  0  0
  188.1300  175.3330  137.1100 C   0  0  0  0  0  3  0  0  0  0  0  0
  183.2260  173.3960  134.6180 O   0  0  0  0  0  0  0  0  0  0  0  0
  184.3350  172.7580  136.5540 N   0  0  0  0  0  1  0  0  0  0  0  0
  184.2830  173.4310  135.3020 C   0  0  0  0  0  0  0  0  0  0  0  0
  185.4110  174.1570  134.8150 N   0  0  0  0  0  2  0  0  0  0  0  0
  184.1520  179.9680  139.2800 C   0  0  0  0  0  3  0  0  0  0  0  0
  184.7100  178.5560  141.1100 C   0  0  0  0  0  0  0  0  0  0  0  0
  184.9580  179.6400  140.3240 N   0  0  0  0  0  0  0  0  0  0  0  0
  183.6000  177.7480  140.8410 C   0  0  0  0  0  3  0  0  0  0  0  0
  183.0340  179.1870  138.9900 C   0  0  0  0  0  3  0  0  0  0  0  0
  182.7490  178.0630  139.7790 C   0  0  0  0  0  0  0  0  0  0  0  0
  181.6450  177.2300  139.5390 O   0  0  0  0  0  0  0  0  0  0  0  0
  181.6900  175.9360  139.0030 C   0  0  0  0  0  0  0  0  0  0  0  0
  180.7350  174.9780  139.3220 O   0  0  0  0  0  1  0  0  0  0  0  0
  182.6320  175.6300  138.2260 O   0  0  0  0  0  0  0  0  0  0  0  0
  191.0850  178.4120  144.3310 O   0  0  0  0  0  0  0  0  0  0  0  0
  191.6810  177.1580  144.4590 C   0  0  0  0  0  2  0  0  0  0  0  0
  191.6170  176.7120  145.9050 C   0  0  0  0  0  1  0  0  0  0  0  0
  1  4  1  0  0  0  0
  4  3  1  0  0  0  0
  5  3  2  0  0  0  0
  6  9  2  0  0  0  0
  7  1  2  0  0  0  0
  7  5  1  0  0  0  0
  8  6  1  1  0  0  0
  8  7  1  0  0  0  0
  9  5  1  0  0  0  0
  9  2  1  0  0  0  0
 10 12  1  0  0  0  0
 11 15  1  6  0  0  0
 11  8  1  0  0  0  0
 13 17  1  0  0  0  0
 14 10  1  0  0  0  0
 14 20  1  0  0  0  0
 16 14  2  0  0  0  0
 17 18  1  0  0  0  0
 18 11  1  0  0  0  0
 19 12  1  6  0  0  0
 19 13  1  0  0  0  0
 19 15  1  0  0  0  0
 20 13  2  0  0  0  0
 21 23  2  0  0  0  0
 23 22  1  0  0  0  0
 24 23  1  0  0  0  0
 24 16  1  0  0  0  0
 25 27  1  0  0  0  0
 26  1  1  0  0  0  0
 27 26  2  0  0  0  0
 28 26  1  0  0  0  0
 29 25  2  0  0  0  0
 29 30  1  0  0  0  0
 30 28  2  0  0  0  0
 31 30  1  0  0  0  0
 32 33  1  0  0  0  0
 32 31  1  0  0  0  0
 34 32  2  0  0  0  0
 35 36  1  0  0  0  0
 35  2  1  0  0  0  0
 36 37  1  0  0  0  0
M  END
>  <MODEL>
8

>  <REMARK>
 VINA RESULT:      -7.5      2.856      6.391
  Name = 
  7 active torsions:
  status: ('A' for Active; 'I' for Inactive)
    1  A    between atoms: C_1  and  C_13
    2  A    between atoms: N_4  and  C_36
    3  A    between atoms: C_8  and  O_21
    4  A    between atoms: O_9  and  C_22
    5  A    between atoms: O_9  and  C_33
    6  A    between atoms: N_12  and  O_21
    7  A    between atoms: C_20  and  N_25
                            x       y       z     vdW  Elec       q    Type
                         _______ _______ _______ _____ _____    ______ ____

>  <TORSDO>
F 7

$$$$
=
 OpenBabel11042411563D

 37 41  0  0  1  0  0  0  0  0999 V2000
  189.2520  177.3970  146.2560 C   0  0  0  0  0  0  0  0  0  0  0  0
  185.1920  178.2450  143.9750 N   0  0  0  0  0  2  0  0  0  0  0  0
  187.2390  178.6360  146.4990 C   0  0  0  0  0  3  0  0  0  0  0  0
  188.5420  178.3280  147.2170 C   0  0  0  0  0  2  0  0  0  0  0  0
  187.3380  178.0430  145.3280 C   0  0  0  0  0  0  0  0  0  0  0  0
  187.0890  176.8830  143.3970 N   0  0  0  0  0  0  0  0  0  0  0  0
  188.5100  177.3160  145.1730 C   0  0  0  0  0  0  0  0  0  0  0  0
  188.4190  176.5000  143.9280 C   0  0  2  0  0  3  0  0  0  0  0  0
  186.5050  177.7320  144.1940 C   0  0  0  0  0  0  0  0  0  0  0  0
  190.6370  176.1750  138.7030 C   0  0  0  0  0  2  0  0  0  0  0  0
  189.5070  176.8250  142.9930 N   0  0  1  0  0  0  0  0  0  0  0  0
  189.5180  177.1120  139.1470 C   0  0  0  0  0  2  0  0  0  0  0  0
  191.1120  177.8600  141.0210 C   0  0  0  0  0  0  0  0  0  0  0  0
  191.9750  176.7840  139.0070 C   0  0  0  0  0  0  0  0  0  0  0  0
  188.9770  176.6810  141.6220 C   0  0  0  0  0  2  0  0  0  0  0  0
  193.0260  176.5870  138.2170 C   0  0  0  0  0  3  0  0  0  0  0  0
  191.3340  178.3710  142.4100 C   0  0  0  0  0  2  0  0  0  0  0  0
  190.0630  178.1720  143.2400 C   0  0  0  0  0  2  0  0  0  0  0  0
  189.6890  177.5780  140.5990 C   0  0  2  0  0  3  0  0  0  0  0  0
  192.1600  177.4960  140.2780 C   0  0  0  0  0  3  0  0  0  0  0  0
  193.6900  175.3930  134.8540 O   0  0  0  0  0  0  0  0  0  0  0  0
  194.8260  177.0730  135.9830 N   0  0  0  0  0  1  0  0  0  0  0  0
  193.8060  176.0830  135.9010 C   0  0  0  0  0  0  0  0  0  0  0  0
  192.9200  175.8550  136.9960 N   0  0  0  0  0  2  0  0  0  0  0  0
  192.1900  175.1620  145.7690 C   0  0  0  0  0  3  0  0  0  0  0  0
  190.4900  176.6430  146.5240 C   0  0  0  0  0  0  0  0  0  0  0  0
  191.0510  175.8720  145.5520 N   0  0  0  0  0  0  0  0  0  0  0  0
  191.0970  176.7180  147.7820 C   0  0  0  0  0  3  0  0  0  0  0  0
  192.8160  175.2100  147.0140 C   0  0  0  0  0  3  0  0  0  0  0  0
  192.2660  175.9960  148.0380 C   0  0  0  0  0  0  0  0  0  0  0  0
  192.8470  176.0950  149.3110 O   0  0  0  0  0  0  0  0  0  0  0  0
  193.4940  177.2220  149.8350 C   0  0  0  0  0  0  0  0  0  0  0  0
  192.8450  178.4430  149.9680 O   0  0  0  0  0  0  0  0  0  0  0  0
  194.7020  177.1290  150.1770 O   0  0  0  0  0  1  0  0  0  0  0  0
  184.4780  177.9000  142.8760 O   0  0  0  0  0  0  0  0  0  0  0  0
  183.3380  178.7020  142.9180 C   0  0  0  0  0  2  0  0  0  0  0  0
  182.9890  179.0110  144.3580 C   0  0  0  0  0  1  0  0  0  0  0  0
  1 26  1  0  0  0  0
  1  4  1  0  0  0  0
  2  9  1  0  0  0  0
  3  4  1  0  0  0  0
  5  3  2  0  0  0  0
  6  9  2  0  0  0  0
  7  5  1  0  0  0  0
  7  1  2  0  0  0  0
  8  6  1  6  0  0  0
  8  7  1  0  0  0  0
  9  5  1  0  0  0  0
 10 14  1  0  0  0  0
 10 12  1  0  0  0  0
 11 15  1  6  0  0  0
 11 18  1  0  0  0  0
 11  8  1  0  0  0  0
 13 17  1  0  0  0  0
 14 20  1  0  0  0  0
 16 14  2  0  0  0  0
 17 18  1  0  0  0  0
 19 12  1  6  0  0  0
 19 13  1  0  0  0  0
 19 15  1  0  0  0  0
 20 13  2  0  0  0  0
 21 23  2  0  0  0  0
 23 22  1  0  0  0  0
 23 24  1  0  0  0  0
 24 16  1  0  0  0  0
 25 29  1  0  0  0  0
 26 28  2  0  0  0  0
 27 25  2  0  0  0  0
 27 26  1  0  0  0  0
 28 30  1  0  0  0  0
 29 30  2  0  0  0  0
 30 31  1  0  0  0  0
 31 32  1  0  0  0  0
 32 33  2  0  0  0  0
 32 34  1  0  0  0  0
 35 36  1  0  0  0  0
 35  2  1  0  0  0  0
 36 37  1  0  0  0  0
M  END
>  <MODEL>
9

>  <REMARK>
 VINA RESULT:      -7.5      2.821      9.674
  Name = 
  7 active torsions:
  status: ('A' for Active; 'I' for Inactive)
    1  A    between atoms: C_1  and  C_13
    2  A    between atoms: N_4  and  C_36
    3  A    between atoms: C_8  and  O_21
    4  A    between atoms: O_9  and  C_22
    5  A    between atoms: O_9  and  C_33
    6  A    between atoms: N_12  and  O_21
    7  A    between atoms: C_20  and  N_25
                            x       y       z     vdW  Elec       q    Type
                         _______ _______ _______ _____ _____    ______ ____

>  <TORSDO>
F 7

$$$$
