=
 OpenBabel11042410243D

 29 35  0  0  1  0  0  0  0  0999 V2000
  185.3510  179.1000  140.2720 C   0  0  1  0  0  3  0  0  0  0  0  0
  187.1500  177.7970  139.8460 C   0  0  1  0  0  3  0  0  0  0  0  0
  189.1110  178.5190  142.6880 O   0  0  0  0  0  0  0  0  0  0  0  0
  187.0380  177.5620  143.5090 C   0  0  2  0  0  3  0  0  0  0  0  0
  183.7010  178.0900  142.3530 C   0  0  0  0  0  2  0  0  0  0  0  0
  185.8580  178.4300  143.0800 C   0  0  2  0  0  0  0  0  0  0  0  0
  184.9500  179.1590  144.0520 C   0  0  0  0  0  2  0  0  0  0  0  0
  185.0940  177.6870  142.1150 N   0  0  2  0  0  0  0  0  0  0  0  0
  187.3400  178.4460  141.2130 C   0  0  1  0  0  3  0  0  0  0  0  0
  187.6680  177.8610  144.8760 C   0  0  0  0  0  2  0  0  0  0  0  0
  185.9380  178.8550  141.6410 C   0  0  1  0  0  0  0  0  0  0  0  0
  189.3810  177.1650  142.4560 C   0  0  1  0  0  3  0  0  0  0  0  0
  189.0460  177.1850  145.0530 C   0  0  1  0  0  3  0  0  0  0  0  0
  189.5730  176.4310  143.8070 C   0  0  0  0  0  2  0  0  0  0  0  0
  188.0030  177.7050  142.3410 C   0  0  1  0  0  0  0  0  0  0  0  0
  185.9850  178.4800  139.3400 N   0  0  0  0  0  2  0  0  0  0  0  0
  183.5660  178.6900  143.7370 C   0  0  0  0  0  2  0  0  0  0  0  0
  189.9810  178.1490  145.4320 O   0  0  0  0  0  1  0  0  0  0  0  0
  181.7890  180.0240  138.9680 C   0  0  0  0  0  1  0  0  0  0  0  0
  184.1450  180.3360  138.6320 O   0  0  0  0  0  0  0  0  0  0  0  0
  184.1500  179.9660  139.9930 C   0  0  1  0  0  3  0  0  0  0  0  0
  183.3900  178.0590  138.3290 C   0  0  0  0  0  1  0  0  0  0  0  0
  183.1730  179.4000  139.0190 C   0  0  0  0  0  0  0  0  0  0  0  0
  188.8890  179.1830  138.9600 O   0  0  0  0  0  0  0  0  0  0  0  0
  190.2920  176.9110  137.8990 C   0  0  0  0  0  1  0  0  0  0  0  0
  188.3380  178.0450  138.9680 C   0  0  0  0  0  0  0  0  0  0  0  0
  188.8600  176.9920  138.1450 N   0  0  0  0  0  0  0  0  0  0  0  0
  187.9770  176.2180  137.2900 C   0  0  0  0  0  2  0  0  0  0  0  0
  187.1440  177.0570  136.5740 F   0  0  0  0  0  0  0  0  0  0  0  0
  1 16  1  1  0  0  0
  1 11  1  0  0  0  0
  2 26  1  6  0  0  0
  2  9  1  0  0  0  0
  4 10  1  1  0  0  0
  5 17  1  0  0  0  0
  6  4  1  0  0  0  0
  6  7  1  1  0  0  0
  8  5  1  1  0  0  0
  8  6  1  0  0  0  0
  9 11  1  0  0  0  0
  9 15  1  0  0  0  0
 10 13  1  0  0  0  0
 11  8  1  0  0  0  0
 11  6  1  0  0  0  0
 12  3  1  0  0  0  0
 12 14  1  0  0  0  0
 13 18  1  0  0  0  0
 14 13  1  0  0  0  0
 15 12  1  0  0  0  0
 15  3  1  0  0  0  0
 15  4  1  0  0  0  0
 16  2  1  0  0  0  0
 17  7  1  0  0  0  0
 19 23  1  0  0  0  0
 20 23  1  0  0  0  0
 20 21  1  0  0  0  0
 21  1  1  0  0  0  0
 22 23  1  0  0  0  0
 23 21  1  0  0  0  0
 24 26  2  0  0  0  0
 25 27  1  0  0  0  0
 27 26  1  0  0  0  0
 28 27  1  0  0  0  0
 29 28  1  0  0  0  0
M  END
>  <MODEL>
1

>  <REMARK>
 VINA RESULT:      -7.4      0.000      0.000
  Name = 
  3 active torsions:
  status: ('A' for Active; 'I' for Inactive)
    1  A    between atoms: C_1  and  C_21
    2  A    between atoms: C_2  and  C_13
    3  A    between atoms: C_8  and  N_25
                            x       y       z     vdW  Elec       q    Type
                         _______ _______ _______ _____ _____    ______ ____

>  <TORSDO>
F 3

$$$$
=
 OpenBabel11042410243D

 29 35  0  0  1  0  0  0  0  0999 V2000
  181.3270  179.2150  139.6790 C   0  0  1  0  0  3  0  0  0  0  0  0
  183.3740  178.2570  139.5650 C   0  0  1  0  0  3  0  0  0  0  0  0
  184.8650  179.6660  142.4340 O   0  0  0  0  0  0  0  0  0  0  0  0
  182.9370  178.4120  143.2080 C   0  0  2  0  0  3  0  0  0  0  0  0
  179.6950  178.1340  141.7390 C   0  0  0  0  0  2  0  0  0  0  0  0
  181.6650  178.9750  142.5810 C   0  0  2  0  0  0  0  0  0  0  0  0
  180.5420  179.6120  143.3780 C   0  0  0  0  0  2  0  0  0  0  0  0
  181.1560  177.9920  141.6630 N   0  0  2  0  0  0  0  0  0  0  0  0
  183.2990  179.0780  140.8480 C   0  0  1  0  0  3  0  0  0  0  0  0
  183.3580  178.9800  144.5700 C   0  0  0  0  0  2  0  0  0  0  0  0
  181.8090  179.2460  141.1090 C   0  0  1  0  0  0  0  0  0  0  0  0
  185.4080  178.3750  142.4010 C   0  0  1  0  0  3  0  0  0  0  0  0
  184.8130  178.6160  144.9400 C   0  0  1  0  0  3  0  0  0  0  0  0
  185.5960  177.8480  143.8450 C   0  0  0  0  0  2  0  0  0  0  0  0
  183.9720  178.6140  142.1100 C   0  0  1  0  0  0  0  0  0  0  0  0
  182.1580  178.6340  138.8870 N   0  0  0  0  0  2  0  0  0  0  0  0
  179.3100  178.8450  143.0190 C   0  0  0  0  0  2  0  0  0  0  0  0
  185.5070  179.7830  145.2630 O   0  0  0  0  0  1  0  0  0  0  0  0
  178.9310  181.5810  137.7050 C   0  0  0  0  0  1  0  0  0  0  0  0
  179.7580  180.9950  139.8810 O   0  0  0  0  0  0  0  0  0  0  0  0
  180.0200  179.7890  139.1990 C   0  0  1  0  0  3  0  0  0  0  0  0
  181.4410  181.8590  138.3760 C   0  0  0  0  0  1  0  0  0  0  0  0
  180.1190  181.1180  138.5300 C   0  0  0  0  0  0  0  0  0  0  0  0
  184.9850  179.8340  138.7610 O   0  0  0  0  0  0  0  0  0  0  0  0
  186.7170  177.7370  137.8340 C   0  0  0  0  0  1  0  0  0  0  0  0
  184.5760  178.6380  138.7580 C   0  0  0  0  0  0  0  0  0  0  0  0
  185.2720  177.6460  137.9900 N   0  0  0  0  0  0  0  0  0  0  0  0
  184.5460  176.7600  137.0960 C   0  0  0  0  0  2  0  0  0  0  0  0
  183.7720  177.4930  136.2170 F   0  0  0  0  0  0  0  0  0  0  0  0
  1 16  1  1  0  0  0
  1 11  1  0  0  0  0
  2 26  1  6  0  0  0
  2  9  1  0  0  0  0
  4 10  1  1  0  0  0
  5 17  1  0  0  0  0
  6  4  1  0  0  0  0
  6  7  1  1  0  0  0
  8  5  1  6  0  0  0
  8  6  1  0  0  0  0
  9 11  1  0  0  0  0
  9 15  1  0  0  0  0
 10 13  1  0  0  0  0
 11  8  1  0  0  0  0
 11  6  1  0  0  0  0
 12  3  1  0  0  0  0
 12 14  1  0  0  0  0
 13 18  1  0  0  0  0
 14 13  1  0  0  0  0
 15 12  1  0  0  0  0
 15  3  1  0  0  0  0
 15  4  1  0  0  0  0
 16  2  1  0  0  0  0
 17  7  1  0  0  0  0
 19 23  1  0  0  0  0
 21  1  1  0  0  0  0
 21 20  1  0  0  0  0
 22 23  1  0  0  0  0
 23 21  1  0  0  0  0
 23 20  1  0  0  0  0
 25 27  1  0  0  0  0
 26 24  2  0  0  0  0
 27 26  1  0  0  0  0
 28 27  1  0  0  0  0
 29 28  1  0  0  0  0
M  END
>  <MODEL>
2

>  <REMARK>
 VINA RESULT:      -7.1      2.696      4.086
  Name = 
  3 active torsions:
  status: ('A' for Active; 'I' for Inactive)
    1  A    between atoms: C_1  and  C_21
    2  A    between atoms: C_2  and  C_13
    3  A    between atoms: C_8  and  N_25
                            x       y       z     vdW  Elec       q    Type
                         _______ _______ _______ _____ _____    ______ ____

>  <TORSDO>
F 3

$$$$
=
 OpenBabel11042410243D

 29 35  0  0  1  0  0  0  0  0999 V2000
  189.1020  176.9730  143.5990 C   0  0  1  0  0  3  0  0  0  0  0  0
  188.1920  178.4730  142.1720 C   0  0  1  0  0  3  0  0  0  0  0  0
  184.7670  177.9270  142.8190 O   0  0  0  0  0  0  0  0  0  0  0  0
  185.7580  178.6360  144.9170 C   0  0  2  0  0  3  0  0  0  0  0  0
  188.9210  177.7620  146.3230 C   0  0  0  0  0  2  0  0  0  0  0  0
  186.8440  177.6500  145.3400 C   0  0  2  0  0  0  0  0  0  0  0  0
  186.7750  176.8100  146.6010 C   0  0  0  0  0  2  0  0  0  0  0  0
  188.1110  178.3200  145.2300 N   0  0  2  0  0  0  0  0  0  0  0  0
  187.0660  177.8270  142.9730 C   0  0  1  0  0  3  0  0  0  0  0  0
  184.3390  178.3870  145.4470 C   0  0  0  0  0  2  0  0  0  0  0  0
  187.7510  177.2590  144.2070 C   0  0  1  0  0  0  0  0  0  0  0  0
  184.8260  179.3060  142.5850 C   0  0  1  0  0  3  0  0  0  0  0  0
  183.2720  179.2080  144.6900 C   0  0  1  0  0  3  0  0  0  0  0  0
  183.8060  180.0360  143.4940 C   0  0  0  0  0  2  0  0  0  0  0  0
  185.8600  178.6190  143.3990 C   0  0  1  0  0  0  0  0  0  0  0  0
  189.3320  177.6740  142.5450 N   0  0  0  0  0  2  0  0  0  0  0  0
  188.0210  177.1290  147.3630 C   0  0  0  0  0  2  0  0  0  0  0  0
  182.2710  178.3470  144.2380 O   0  0  0  0  0  1  0  0  0  0  0  0
  192.2640  175.7150  145.5120 C   0  0  0  0  0  1  0  0  0  0  0  0
  191.2640  176.0050  143.3490 O   0  0  0  0  0  0  0  0  0  0  0  0
  190.1000  175.9840  144.1440 C   0  0  1  0  0  3  0  0  0  0  0  0
  191.6740  178.0680  144.5420 C   0  0  0  0  0  1  0  0  0  0  0  0
  191.3800  176.5760  144.6270 C   0  0  0  0  0  0  0  0  0  0  0  0
  186.7540  178.5390  140.2590 O   0  0  0  0  0  0  0  0  0  0  0  0
  188.9920  178.6870  138.4620 C   0  0  0  0  0  1  0  0  0  0  0  0
  187.9260  178.3710  140.7010 C   0  0  0  0  0  0  0  0  0  0  0  0
  189.0010  178.0940  139.7920 N   0  0  0  0  0  0  0  0  0  0  0  0
  189.9090  176.9880  140.0380 C   0  0  0  0  0  2  0  0  0  0  0  0
  191.2200  177.4230  139.9920 F   0  0  0  0  0  0  0  0  0  0  0  0
  1 16  1  1  0  0  0
  1 21  1  0  0  0  0
  1 11  1  0  0  0  0
  2 26  1  6  0  0  0
  2 16  1  0  0  0  0
  2  9  1  0  0  0  0
  3 15  1  0  0  0  0
  4  6  1  0  0  0  0
  4 10  1  6  0  0  0
  5 17  1  0  0  0  0
  6  7  1  1  0  0  0
  7 17  1  0  0  0  0
  8  6  1  0  0  0  0
  8  5  1  1  0  0  0
  9 15  1  0  0  0  0
  9 11  1  0  0  0  0
 11  8  1  0  0  0  0
 11  6  1  0  0  0  0
 12  3  1  0  0  0  0
 12 15  1  0  0  0  0
 12 14  1  0  0  0  0
 13 10  1  0  0  0  0
 14 13  1  0  0  0  0
 15  4  1  0  0  0  0
 18 13  1  0  0  0  0
 20 21  1  0  0  0  0
 20 23  1  0  0  0  0
 21 23  1  0  0  0  0
 22 23  1  0  0  0  0
 23 19  1  0  0  0  0
 24 26  2  0  0  0  0
 25 27  1  0  0  0  0
 27 28  1  0  0  0  0
 27 26  1  0  0  0  0
 29 28  1  0  0  0  0
M  END
>  <MODEL>
3

>  <REMARK>
 VINA RESULT:      -7.0      2.659      5.906
  Name = 
  3 active torsions:
  status: ('A' for Active; 'I' for Inactive)
    1  A    between atoms: C_1  and  C_21
    2  A    between atoms: C_2  and  C_13
    3  A    between atoms: C_8  and  N_25
                            x       y       z     vdW  Elec       q    Type
                         _______ _______ _______ _____ _____    ______ ____

>  <TORSDO>
F 3

$$$$
=
 OpenBabel11042410243D

 29 35  0  0  1  0  0  0  0  0999 V2000
  186.1520  178.7620  141.9510 C   0  0  1  0  0  3  0  0  0  0  0  0
  187.8910  177.3500  142.2690 C   0  0  1  0  0  3  0  0  0  0  0  0
  189.0220  178.4750  145.4150 O   0  0  0  0  0  0  0  0  0  0  0  0
  186.7330  177.7350  145.7330 C   0  0  2  0  0  3  0  0  0  0  0  0
  183.9090  178.1660  143.5910 C   0  0  0  0  0  2  0  0  0  0  0  0
  185.7940  178.5550  144.8530 C   0  0  2  0  0  0  0  0  0  0  0  0
  184.7080  179.4650  145.3970 C   0  0  0  0  0  2  0  0  0  0  0  0
  185.2770  177.6850  143.8310 N   0  0  2  0  0  0  0  0  0  0  0  0
  187.7380  178.2120  143.5170 C   0  0  1  0  0  3  0  0  0  0  0  0
  186.9740  178.2380  147.1630 C   0  0  0  0  0  2  0  0  0  0  0  0
  186.3090  178.7310  143.4520 C   0  0  1  0  0  0  0  0  0  0  0  0
  189.2390  177.0940  145.4800 C   0  0  1  0  0  3  0  0  0  0  0  0
  188.1880  177.5580  147.8330 C   0  0  1  0  0  3  0  0  0  0  0  0
  188.9850  176.5900  146.9220 C   0  0  0  0  0  2  0  0  0  0  0  0
  187.9970  177.6500  144.8890 C   0  0  1  0  0  0  0  0  0  0  0  0
  186.9730  177.9750  141.3490 N   0  0  0  0  0  2  0  0  0  0  0  0
  183.4370  178.9930  144.7680 C   0  0  0  0  0  2  0  0  0  0  0  0
  189.0510  178.5420  148.3170 O   0  0  0  0  0  1  0  0  0  0  0  0
  182.9240  179.5820  139.9170 C   0  0  0  0  0  1  0  0  0  0  0  0
  185.3160  179.4170  139.8200 O   0  0  0  0  0  0  0  0  0  0  0  0
  185.1510  179.6060  141.2080 C   0  0  1  0  0  3  0  0  0  0  0  0
  184.1920  177.3260  140.2790 C   0  0  0  0  0  1  0  0  0  0  0  0
  184.1660  178.8450  140.3870 C   0  0  0  0  0  0  0  0  0  0  0  0
  189.5380  178.0090  140.6610 O   0  0  0  0  0  0  0  0  0  0  0  0
  191.6860  177.4100  142.4730 C   0  0  0  0  0  1  0  0  0  0  0  0
  189.2940  177.4100  141.7480 C   0  0  0  0  0  0  0  0  0  0  0  0
  190.3640  176.8010  142.4840 N   0  0  0  0  0  0  0  0  0  0  0  0
  190.2490  175.4310  142.9550 C   0  0  0  0  0  2  0  0  0  0  0  0
  191.3780  175.0720  143.6670 F   0  0  0  0  0  0  0  0  0  0  0  0
  1 16  1  1  0  0  0
  1 11  1  0  0  0  0
  2 26  1  6  0  0  0
  2  9  1  0  0  0  0
  3 12  1  0  0  0  0
  4 10  1  1  0  0  0
  5 17  1  0  0  0  0
  6  7  1  1  0  0  0
  6  4  1  0  0  0  0
  8  5  1  6  0  0  0
  8  6  1  0  0  0  0
  9 15  1  0  0  0  0
 10 13  1  0  0  0  0
 11  9  1  0  0  0  0
 11  8  1  0  0  0  0
 11  6  1  0  0  0  0
 12 14  1  0  0  0  0
 13 18  1  0  0  0  0
 14 13  1  0  0  0  0
 15  3  1  0  0  0  0
 15 12  1  0  0  0  0
 15  4  1  0  0  0  0
 16  2  1  0  0  0  0
 17  7  1  0  0  0  0
 19 23  1  0  0  0  0
 20 23  1  0  0  0  0
 20 21  1  0  0  0  0
 21  1  1  0  0  0  0
 22 23  1  0  0  0  0
 23 21  1  0  0  0  0
 24 26  2  0  0  0  0
 25 27  1  0  0  0  0
 26 27  1  0  0  0  0
 27 28  1  0  0  0  0
 28 29  1  0  0  0  0
M  END
>  <MODEL>
4

>  <REMARK>
 VINA RESULT:      -7.0      2.526      3.119
  Name = 
  3 active torsions:
  status: ('A' for Active; 'I' for Inactive)
    1  A    between atoms: C_1  and  C_21
    2  A    between atoms: C_2  and  C_13
    3  A    between atoms: C_8  and  N_25
                            x       y       z     vdW  Elec       q    Type
                         _______ _______ _______ _____ _____    ______ ____

>  <TORSDO>
F 3

$$$$
=
 OpenBabel11042410243D

 29 35  0  0  1  0  0  0  0  0999 V2000
  188.6050  178.0130  144.0610 C   0  0  1  0  0  3  0  0  0  0  0  0
  186.7670  177.8730  142.7500 C   0  0  1  0  0  3  0  0  0  0  0  0
  188.1150  179.0040  139.6920 O   0  0  0  0  0  0  0  0  0  0  0  0
  189.3710  177.0200  140.3040 C   0  0  2  0  0  3  0  0  0  0  0  0
  190.5260  175.9900  143.5210 C   0  0  0  0  0  2  0  0  0  0  0  0
  190.0690  177.2390  141.6430 C   0  0  2  0  0  0  0  0  0  0  0  0
  191.5770  177.2470  141.8170 C   0  0  0  0  0  2  0  0  0  0  0  0
  189.4400  176.3820  142.6120 N   0  0  2  0  0  0  0  0  0  0  0  0
  187.9460  178.2970  141.8810 C   0  0  1  0  0  3  0  0  0  0  0  0
  190.1620  177.3670  139.0350 C   0  0  0  0  0  2  0  0  0  0  0  0
  189.1760  177.8750  142.6710 C   0  0  1  0  0  0  0  0  0  0  0  0
  187.1990  178.0250  139.2880 C   0  0  1  0  0  3  0  0  0  0  0  0
  189.2630  177.4520  137.7820 C   0  0  1  0  0  3  0  0  0  0  0  0
  187.7460  177.2760  138.0480 C   0  0  0  0  0  2  0  0  0  0  0  0
  188.0820  177.8150  140.4630 C   0  0  1  0  0  0  0  0  0  0  0  0
  187.3200  177.9540  144.0790 N   0  0  0  0  0  2  0  0  0  0  0  0
  191.8660  176.2070  142.8510 C   0  0  0  0  0  2  0  0  0  0  0  0
  189.4760  178.6770  137.1500 O   0  0  0  0  0  1  0  0  0  0  0  0
  189.8050  177.3550  147.7180 C   0  0  0  0  0  1  0  0  0  0  0  0
  188.6600  178.8930  146.2730 O   0  0  0  0  0  0  0  0  0  0  0  0
  189.4220  178.1950  145.3140 C   0  0  1  0  0  3  0  0  0  0  0  0
  187.5640  176.7520  146.5170 C   0  0  0  0  0  1  0  0  0  0  0  0
  188.8740  177.5290  146.5310 C   0  0  0  0  0  0  0  0  0  0  0  0
  185.6770  179.7420  141.7270 O   0  0  0  0  0  0  0  0  0  0  0  0
  183.1400  179.0030  142.8550 C   0  0  0  0  0  1  0  0  0  0  0  0
  185.6190  178.8210  142.5900 C   0  0  0  0  0  0  0  0  0  0  0  0
  184.4480  178.6790  143.4060 N   0  0  0  0  0  0  0  0  0  0  0  0
  184.5640  178.5470  144.8480 C   0  0  0  0  0  2  0  0  0  0  0  0
  183.4160  179.0030  145.4670 F   0  0  0  0  0  0  0  0  0  0  0  0
  1 16  1  1  0  0  0
  1 21  1  0  0  0  0
  2 26  1  1  0  0  0
  2 16  1  0  0  0  0
  3 15  1  0  0  0  0
  4 10  1  6  0  0  0
  4 15  1  0  0  0  0
  4  6  1  0  0  0  0
  6  7  1  1  0  0  0
  6  8  1  0  0  0  0
  6 11  1  0  0  0  0
  7 17  1  0  0  0  0
  8 11  1  0  0  0  0
  8  5  1  1  0  0  0
  9 11  1  0  0  0  0
  9  2  1  0  0  0  0
 11  1  1  0  0  0  0
 12  3  1  0  0  0  0
 12 15  1  0  0  0  0
 13 14  1  0  0  0  0
 13 10  1  0  0  0  0
 14 12  1  0  0  0  0
 15  9  1  0  0  0  0
 17  5  1  0  0  0  0
 18 13  1  0  0  0  0
 20 23  1  0  0  0  0
 21 20  1  0  0  0  0
 21 23  1  0  0  0  0
 22 23  1  0  0  0  0
 23 19  1  0  0  0  0
 24 26  2  0  0  0  0
 25 27  1  0  0  0  0
 26 27  1  0  0  0  0
 27 28  1  0  0  0  0
 28 29  1  0  0  0  0
M  END
>  <MODEL>
5

>  <REMARK>
 VINA RESULT:      -6.8      2.916      6.817
  Name = 
  3 active torsions:
  status: ('A' for Active; 'I' for Inactive)
    1  A    between atoms: C_1  and  C_21
    2  A    between atoms: C_2  and  C_13
    3  A    between atoms: C_8  and  N_25
                            x       y       z     vdW  Elec       q    Type
                         _______ _______ _______ _____ _____    ______ ____

>  <TORSDO>
F 3

$$$$
=
 OpenBabel11042410243D

 29 35  0  0  1  0  0  0  0  0999 V2000
  186.6210  177.8780  142.7210 C   0  0  1  0  0  3  0  0  0  0  0  0
  188.2740  176.4570  143.3260 C   0  0  1  0  0  3  0  0  0  0  0  0
  189.6290  178.2280  146.0590 O   0  0  0  0  0  0  0  0  0  0  0  0
  187.3130  177.7670  146.6200 C   0  0  2  0  0  3  0  0  0  0  0  0
  184.4240  177.8770  144.5240 C   0  0  0  0  0  2  0  0  0  0  0  0
  186.3900  178.4170  145.5930 C   0  0  2  0  0  0  0  0  0  0  0  0
  185.3960  179.5130  145.9270 C   0  0  0  0  0  2  0  0  0  0  0  0
  185.7670  177.3660  144.8350 N   0  0  2  0  0  0  0  0  0  0  0  0
  188.2400  177.6080  144.3260 C   0  0  1  0  0  3  0  0  0  0  0  0
  187.6560  178.5850  147.8720 C   0  0  0  0  0  2  0  0  0  0  0  0
  186.8480  178.2040  144.1770 C   0  0  1  0  0  0  0  0  0  0  0  0
  189.7560  176.8920  146.4580 C   0  0  1  0  0  3  0  0  0  0  0  0
  188.8540  177.9990  148.6530 C   0  0  1  0  0  3  0  0  0  0  0  0
  189.5380  176.7790  147.9870 C   0  0  0  0  0  2  0  0  0  0  0  0
  188.5260  177.3810  145.7850 C   0  0  1  0  0  0  0  0  0  0  0  0
  187.3560  176.9060  142.3090 N   0  0  0  0  0  2  0  0  0  0  0  0
  184.0670  179.0010  145.4740 C   0  0  0  0  0  2  0  0  0  0  0  0
  189.8030  179.0020  148.8510 O   0  0  0  0  0  1  0  0  0  0  0  0
  185.0270  179.1080  139.3770 C   0  0  0  0  0  1  0  0  0  0  0  0
  186.2280  179.7800  141.3440 O   0  0  0  0  0  0  0  0  0  0  0  0
  185.6430  178.5890  141.8220 C   0  0  1  0  0  3  0  0  0  0  0  0
  187.4380  178.2530  139.9120 C   0  0  0  0  0  1  0  0  0  0  0  0
  186.0840  178.7450  140.4060 C   0  0  0  0  0  0  0  0  0  0  0  0
  190.2250  175.1560  142.8440 O   0  0  0  0  0  0  0  0  0  0  0  0
  191.2000  177.1280  140.9950 C   0  0  0  0  0  1  0  0  0  0  0  0
  189.6510  176.2790  142.7640 C   0  0  0  0  0  0  0  0  0  0  0  0
  190.3150  177.3780  142.1240 N   0  0  0  0  0  0  0  0  0  0  0  0
  190.3920  178.6740  142.7750 C   0  0  0  0  0  2  0  0  0  0  0  0
  191.4970  178.7320  143.6030 F   0  0  0  0  0  0  0  0  0  0  0  0
  1 16  1  1  0  0  0
  1 11  1  0  0  0  0
  2 26  1  6  0  0  0
  2  9  1  0  0  0  0
  3 12  1  0  0  0  0
  4 10  1  1  0  0  0
  5 17  1  0  0  0  0
  6  7  1  1  0  0  0
  6  4  1  0  0  0  0
  8  5  1  6  0  0  0
  8  6  1  0  0  0  0
  9 15  1  0  0  0  0
 10 13  1  0  0  0  0
 11  9  1  0  0  0  0
 11  8  1  0  0  0  0
 11  6  1  0  0  0  0
 12 14  1  0  0  0  0
 13 18  1  0  0  0  0
 14 13  1  0  0  0  0
 15  3  1  0  0  0  0
 15 12  1  0  0  0  0
 15  4  1  0  0  0  0
 16  2  1  0  0  0  0
 17  7  1  0  0  0  0
 19 23  1  0  0  0  0
 20 21  1  0  0  0  0
 21  1  1  0  0  0  0
 22 23  1  0  0  0  0
 23 20  1  0  0  0  0
 23 21  1  0  0  0  0
 25 27  1  0  0  0  0
 26 24  2  0  0  0  0
 27 26  1  0  0  0  0
 27 28  1  0  0  0  0
 28 29  1  0  0  0  0
M  END
>  <MODEL>
6

>  <REMARK>
 VINA RESULT:      -6.7      2.691      3.901
  Name = 
  3 active torsions:
  status: ('A' for Active; 'I' for Inactive)
    1  A    between atoms: C_1  and  C_21
    2  A    between atoms: C_2  and  C_13
    3  A    between atoms: C_8  and  N_25
                            x       y       z     vdW  Elec       q    Type
                         _______ _______ _______ _____ _____    ______ ____

>  <TORSDO>
F 3

$$$$
=
 OpenBabel11042410243D

 29 35  0  0  1  0  0  0  0  0999 V2000
  188.5610  177.3080  141.1740 C   0  0  1  0  0  3  0  0  0  0  0  0
  186.8790  178.4770  142.1350 C   0  0  1  0  0  3  0  0  0  0  0  0
  186.8120  176.9450  145.3120 O   0  0  0  0  0  0  0  0  0  0  0  0
  189.0250  177.9090  145.0610 C   0  0  2  0  0  3  0  0  0  0  0  0
  191.1270  178.0020  142.1770 C   0  0  0  0  0  2  0  0  0  0  0  0
  189.7320  177.2860  143.8610 C   0  0  2  0  0  0  0  0  0  0  0  0
  191.0000  176.4590  143.9640 C   0  0  0  0  0  2  0  0  0  0  0  0
  189.8540  178.2990  142.8480 N   0  0  2  0  0  0  0  0  0  0  0  0
  187.4600  177.5270  143.1760 C   0  0  1  0  0  3  0  0  0  0  0  0
  189.2540  177.2520  146.4290 C   0  0  0  0  0  2  0  0  0  0  0  0
  188.8460  177.1820  142.6500 C   0  0  1  0  0  0  0  0  0  0  0  0
  186.5100  178.2810  145.6020 C   0  0  1  0  0  3  0  0  0  0  0  0
  188.2360  177.7240  147.4910 C   0  0  1  0  0  3  0  0  0  0  0  0
  187.1310  178.6750  146.9650 C   0  0  0  0  0  2  0  0  0  0  0  0
  187.5680  177.9270  144.6230 C   0  0  1  0  0  0  0  0  0  0  0  0
  187.5380  178.0490  140.9260 N   0  0  0  0  0  2  0  0  0  0  0  0
  191.9890  177.1290  143.0650 C   0  0  0  0  0  2  0  0  0  0  0  0
  187.6360  176.6080  148.0740 O   0  0  0  0  0  1  0  0  0  0  0  0
  190.7420  177.0720  137.9450 C   0  0  0  0  0  1  0  0  0  0  0  0
  188.5950  176.5880  138.9040 O   0  0  0  0  0  0  0  0  0  0  0  0
  189.3680  176.6550  140.0820 C   0  0  1  0  0  3  0  0  0  0  0  0
  189.1240  178.9450  138.7850 C   0  0  0  0  0  1  0  0  0  0  0  0
  189.6480  177.5180  138.8980 C   0  0  0  0  0  0  0  0  0  0  0  0
  184.7620  177.6990  142.9350 O   0  0  0  0  0  0  0  0  0  0  0  0
  183.3390  179.3530  141.0660 C   0  0  0  0  0  1  0  0  0  0  0  0
  185.3950  178.3060  142.0250 C   0  0  0  0  0  0  0  0  0  0  0  0
  184.6900  178.8380  140.8960 N   0  0  0  0  0  0  0  0  0  0  0  0
  185.1510  178.5710  139.5440 C   0  0  0  0  0  2  0  0  0  0  0  0
  184.6180  179.4930  138.6640 F   0  0  0  0  0  0  0  0  0  0  0  0
  1 16  1  6  0  0  0
  1 11  1  0  0  0  0
  2 26  1  6  0  0  0
  2  9  1  0  0  0  0
  3 12  1  0  0  0  0
  4 10  1  1  0  0  0
  5 17  1  0  0  0  0
  6  7  1  1  0  0  0
  6  4  1  0  0  0  0
  8  5  1  6  0  0  0
  8  6  1  0  0  0  0
  9 15  1  0  0  0  0
 10 13  1  0  0  0  0
 11  8  1  0  0  0  0
 11  9  1  0  0  0  0
 11  6  1  0  0  0  0
 12 14  1  0  0  0  0
 13 18  1  0  0  0  0
 14 13  1  0  0  0  0
 15  4  1  0  0  0  0
 15  3  1  0  0  0  0
 15 12  1  0  0  0  0
 16  2  1  0  0  0  0
 17  7  1  0  0  0  0
 19 23  1  0  0  0  0
 20 21  1  0  0  0  0
 21  1  1  0  0  0  0
 22 23  1  0  0  0  0
 23 20  1  0  0  0  0
 23 21  1  0  0  0  0
 26 24  2  0  0  0  0
 27 25  1  0  0  0  0
 27 26  1  0  0  0  0
 28 27  1  0  0  0  0
 29 28  1  0  0  0  0
M  END
>  <MODEL>
7

>  <REMARK>
 VINA RESULT:      -6.7      2.247      5.160
  Name = 
  3 active torsions:
  status: ('A' for Active; 'I' for Inactive)
    1  A    between atoms: C_1  and  C_21
    2  A    between atoms: C_2  and  C_13
    3  A    between atoms: C_8  and  N_25
                            x       y       z     vdW  Elec       q    Type
                         _______ _______ _______ _____ _____    ______ ____

>  <TORSDO>
F 3

$$$$
=
 OpenBabel11042410243D

 29 35  0  0  1  0  0  0  0  0999 V2000
  186.2490  178.3320  142.6450 C   0  0  1  0  0  3  0  0  0  0  0  0
  185.0600  179.1820  140.9180 C   0  0  1  0  0  3  0  0  0  0  0  0
  181.9020  177.7660  141.6000 O   0  0  0  0  0  0  0  0  0  0  0  0
  182.4710  179.1330  143.5220 C   0  0  2  0  0  3  0  0  0  0  0  0
  185.6280  179.5430  145.1390 C   0  0  0  0  0  2  0  0  0  0  0  0
  183.7580  178.6220  144.1620 C   0  0  2  0  0  0  0  0  0  0  0  0
  183.8360  178.0620  145.5700 C   0  0  0  0  0  2  0  0  0  0  0  0
  184.7810  179.6080  143.9390 N   0  0  2  0  0  0  0  0  0  0  0  0
  184.1100  178.3950  141.8150 C   0  0  1  0  0  3  0  0  0  0  0  0
  181.1480  178.5760  144.0660 C   0  0  0  0  0  2  0  0  0  0  0  0
  184.8290  178.3110  143.1540 C   0  0  1  0  0  0  0  0  0  0  0  0
  181.5760  179.0260  141.0840 C   0  0  1  0  0  3  0  0  0  0  0  0
  179.9530  178.8740  143.1340 C   0  0  1  0  0  3  0  0  0  0  0  0
  180.3170  179.5760  141.8010 C   0  0  0  0  0  2  0  0  0  0  0  0
  182.6960  178.8540  142.0430 C   0  0  1  0  0  0  0  0  0  0  0  0
  186.3500  178.8520  141.4720 N   0  0  0  0  0  2  0  0  0  0  0  0
  184.8700  178.8820  146.2720 C   0  0  0  0  0  2  0  0  0  0  0  0
  179.2850  177.6820  142.8530 O   0  0  0  0  0  1  0  0  0  0  0  0
  189.9450  177.2250  143.2430 C   0  0  0  0  0  1  0  0  0  0  0  0
  187.6740  176.4690  143.0540 O   0  0  0  0  0  0  0  0  0  0  0  0
  187.4440  177.8150  143.4040 C   0  0  1  0  0  3  0  0  0  0  0  0
  188.5640  177.4620  141.0370 C   0  0  0  0  0  1  0  0  0  0  0  0
  188.6010  177.4010  142.5580 C   0  0  0  0  0  0  0  0  0  0  0  0
  185.9080  178.0810  138.9690 O   0  0  0  0  0  0  0  0  0  0  0  0
  183.3080  178.0330  137.7470 C   0  0  0  0  0  1  0  0  0  0  0  0
  184.9550  178.7220  139.4970 C   0  0  0  0  0  0  0  0  0  0  0  0
  183.7710  178.9960  138.7360 N   0  0  0  0  0  0  0  0  0  0  0  0
  183.2200  180.3400  138.6860 C   0  0  0  0  0  2  0  0  0  0  0  0
  182.0250  180.3440  137.9920 F   0  0  0  0  0  0  0  0  0  0  0  0
  1 16  1  1  0  0  0
  1 11  1  0  0  0  0
  1 21  1  0  0  0  0
  2 26  1  6  0  0  0
  2 16  1  0  0  0  0
  2  9  1  0  0  0  0
  3 15  1  0  0  0  0
  4 10  1  1  0  0  0
  4  6  1  0  0  0  0
  5 17  1  0  0  0  0
  6  7  1  1  0  0  0
  7 17  1  0  0  0  0
  8  6  1  0  0  0  0
  8  5  1  1  0  0  0
  9 15  1  0  0  0  0
  9 11  1  0  0  0  0
 11  8  1  0  0  0  0
 11  6  1  0  0  0  0
 12  3  1  0  0  0  0
 12 14  1  0  0  0  0
 12 15  1  0  0  0  0
 13 10  1  0  0  0  0
 14 13  1  0  0  0  0
 15  4  1  0  0  0  0
 18 13  1  0  0  0  0
 20 21  1  0  0  0  0
 22 23  1  0  0  0  0
 23 20  1  0  0  0  0
 23 19  1  0  0  0  0
 23 21  1  0  0  0  0
 24 26  2  0  0  0  0
 25 27  1  0  0  0  0
 27 26  1  0  0  0  0
 28 27  1  0  0  0  0
 29 28  1  0  0  0  0
M  END
>  <MODEL>
8

>  <REMARK>
 VINA RESULT:      -6.6      2.603      5.960
  Name = 
  3 active torsions:
  status: ('A' for Active; 'I' for Inactive)
    1  A    between atoms: C_1  and  C_21
    2  A    between atoms: C_2  and  C_13
    3  A    between atoms: C_8  and  N_25
                            x       y       z     vdW  Elec       q    Type
                         _______ _______ _______ _____ _____    ______ ____

>  <TORSDO>
F 3

$$$$
=
 OpenBabel11042410243D

 29 35  0  0  1  0  0  0  0  0999 V2000
  188.7570  178.3590  141.7590 C   0  0  1  0  0  3  0  0  0  0  0  0
  186.5870  177.9770  141.2430 C   0  0  1  0  0  3  0  0  0  0  0  0
  186.5840  178.9630  137.8570 O   0  0  0  0  0  0  0  0  0  0  0  0
  188.1690  177.1350  138.0380 C   0  0  2  0  0  3  0  0  0  0  0  0
  190.5320  176.4520  140.6250 C   0  0  0  0  0  2  0  0  0  0  0  0
  189.2890  177.5110  139.0040 C   0  0  2  0  0  0  0  0  0  0  0  0
  190.7440  177.6480  138.5970 C   0  0  0  0  0  2  0  0  0  0  0  0
  189.1530  176.6880  140.1750 N   0  0  2  0  0  0  0  0  0  0  0  0
  187.3110  178.4200  139.9760 C   0  0  1  0  0  3  0  0  0  0  0  0
  188.3940  177.4400  136.5500 C   0  0  0  0  0  2  0  0  0  0  0  0
  188.7820  178.1570  140.2630 C   0  0  1  0  0  0  0  0  0  0  0  0
  185.6870  177.8890  137.8710 C   0  0  1  0  0  3  0  0  0  0  0  0
  187.0910  177.3570  135.7250 C   0  0  1  0  0  3  0  0  0  0  0  0
  185.8070  177.0880  136.5500 C   0  0  0  0  0  2  0  0  0  0  0  0
  186.9590  177.8390  138.6340 C   0  0  1  0  0  0  0  0  0  0  0  0
  187.5820  178.2040  142.2610 N   0  0  0  0  0  2  0  0  0  0  0  0
  191.4990  176.7180  139.4910 C   0  0  0  0  0  2  0  0  0  0  0  0
  186.9300  178.5420  135.0060 O   0  0  0  0  0  1  0  0  0  0  0  0
  191.6540  177.7960  144.3130 C   0  0  0  0  0  1  0  0  0  0  0  0
  189.5520  178.8930  143.9390 O   0  0  0  0  0  0  0  0  0  0  0  0
  189.9570  178.7010  142.6020 C   0  0  1  0  0  3  0  0  0  0  0  0
  189.4300  176.4780  143.9290 C   0  0  0  0  0  1  0  0  0  0  0  0
  190.2770  177.7190  143.6770 C   0  0  0  0  0  0  0  0  0  0  0  0
  185.1360  179.8130  140.7420 O   0  0  0  0  0  0  0  0  0  0  0  0
  183.0440  178.7350  142.3910 C   0  0  0  0  0  1  0  0  0  0  0  0
  185.3720  178.8190  141.4860 C   0  0  0  0  0  0  0  0  0  0  0  0
  184.4700  178.4930  142.5520 N   0  0  0  0  0  0  0  0  0  0  0  0
  184.9710  178.2470  143.8940 C   0  0  0  0  0  2  0  0  0  0  0  0
  184.0040  178.5560  144.8320 F   0  0  0  0  0  0  0  0  0  0  0  0
  1 16  1  1  0  0  0
  1 21  1  0  0  0  0
  2 26  1  1  0  0  0
  2 16  1  0  0  0  0
  3 12  1  0  0  0  0
  3 15  1  0  0  0  0
  4 10  1  6  0  0  0
  4 15  1  0  0  0  0
  4  6  1  0  0  0  0
  6  7  1  6  0  0  0
  6  8  1  0  0  0  0
  6 11  1  0  0  0  0
  7 17  1  0  0  0  0
  8 11  1  0  0  0  0
  8  5  1  1  0  0  0
  9 11  1  0  0  0  0
  9  2  1  0  0  0  0
 11  1  1  0  0  0  0
 12 15  1  0  0  0  0
 13 14  1  0  0  0  0
 13 10  1  0  0  0  0
 14 12  1  0  0  0  0
 15  9  1  0  0  0  0
 17  5  1  0  0  0  0
 18 13  1  0  0  0  0
 21 23  1  0  0  0  0
 21 20  1  0  0  0  0
 23 22  1  0  0  0  0
 23 20  1  0  0  0  0
 23 19  1  0  0  0  0
 24 26  2  0  0  0  0
 25 27  1  0  0  0  0
 26 27  1  0  0  0  0
 27 28  1  0  0  0  0
 28 29  1  0  0  0  0
M  END
>  <MODEL>
9

>  <REMARK>
 VINA RESULT:      -6.2      2.479      6.988
  Name = 
  3 active torsions:
  status: ('A' for Active; 'I' for Inactive)
    1  A    between atoms: C_1  and  C_21
    2  A    between atoms: C_2  and  C_13
    3  A    between atoms: C_8  and  N_25
                            x       y       z     vdW  Elec       q    Type
                         _______ _______ _______ _____ _____    ______ ____

>  <TORSDO>
F 3

$$$$
