=
 OpenBabel11042412473D

 58 62  0  0  1  0  0  0  0  0999 V2000
  188.3730  177.7040  141.8130 C   0  0  0  0  0  3  0  0  0  0  0  0
  187.4540  178.1200  142.7050 C   0  0  0  0  0  0  0  0  0  0  0  0
  186.2440  178.9150  142.2940 C   0  0  0  0  0  2  0  0  0  0  0  0
  185.0060  178.0280  142.2020 C   0  0  0  0  0  2  0  0  0  0  0  0
  184.2380  178.3240  140.9230 C   0  0  0  0  0  2  0  0  0  0  0  0
  182.9080  178.9940  141.2380 C   0  0  2  0  0  3  0  0  0  0  0  0
  182.5400  178.8070  142.7060 C   0  0  0  0  0  1  0  0  0  0  0  0
  181.8040  178.5080  140.2850 C   0  0  2  0  0  3  0  0  0  0  0  0
  181.6490  179.2540  137.7960 C   0  0  1  0  0  3  0  0  0  0  0  0
  181.3650  179.5810  139.2740 C   0  0  2  0  0  3  0  0  0  0  0  0
  182.5740  180.1740  138.5760 C   0  0  0  0  0  2  0  0  0  0  0  0
  182.0370  173.0330  137.0080 C   0  0  1  0  0  3  0  0  0  0  0  0
  183.2260  173.1510  136.2620 O   0  0  0  0  0  0  0  0  0  0  0  0
  183.4760  175.3970  137.1280 C   0  0  0  0  0  0  0  0  0  0  0  0
  181.4780  176.7670  137.3260 C   0  0  0  0  0  3  0  0  0  0  0  0
  184.2650  176.5240  137.4010 C   0  0  0  0  0  3  0  0  0  0  0  0
  182.2720  177.9030  137.5420 C   0  0  0  0  0  0  0  0  0  0  0  0
  182.0730  175.5180  137.1300 C   0  0  0  0  0  0  0  0  0  0  0  0
  184.0820  174.0120  136.9840 C   0  0  2  0  0  3  0  0  0  0  0  0
  181.2080  174.3180  136.8780 C   0  0  0  0  0  2  0  0  0  0  0  0
  183.6650  177.7700  137.6040 C   0  0  0  0  0  3  0  0  0  0  0  0
  186.6130  173.8900  137.0890 N   0  0  0  0  0  1  0  0  0  0  0  0
  185.4230  174.0440  136.3200 C   0  0  0  0  0  0  0  0  0  0  0  0
  185.4980  174.1960  135.0730 O   0  0  0  0  0  0  0  0  0  0  0  0
  180.2970  171.4520  137.5050 O   0  0  0  0  0  1  0  0  0  0  0  0
  181.2380  171.8240  136.5410 C   0  0  0  0  0  2  0  0  0  0  0  0
  180.6100  177.8310  140.9750 C   0  0  0  0  0  2  0  0  0  0  0  0
  179.3440  178.6720  140.9360 C   0  0  0  0  0  1  0  0  0  0  0  0
  188.2620  177.9620  140.3430 C   0  0  0  0  0  2  0  0  0  0  0  0
  189.2730  176.4600  138.6710 C   0  0  1  0  0  3  0  0  0  0  0  0
  189.5570  177.5710  139.6630 C   0  0  1  0  0  3  0  0  0  0  0  0
  189.4490  177.8810  138.1830 C   0  0  0  0  0  2  0  0  0  0  0  0
  190.7090  174.9480  137.2500 C   0  0  0  0  0  0  0  0  0  0  0  0
  189.8240  174.9030  136.3490 O   0  0  0  0  0  0  0  0  0  0  0  0
  190.4990  175.7140  138.4360 N   0  0  0  0  0  2  0  0  0  0  0  0
  193.0960  174.7670  137.9550 C   0  0  0  0  0  2  0  0  0  0  0  0
  193.3190  173.0700  135.5840 C   0  0  1  0  0  3  0  0  0  0  0  0
  194.4690  174.4350  137.3590 C   0  0  2  0  0  3  0  0  0  0  0  0
  191.9710  174.1660  137.1020 C   0  0  2  0  0  3  0  0  0  0  0  0
  192.3480  174.0970  135.7450 O   0  0  0  0  0  0  0  0  0  0  0  0
  194.4360  173.0860  136.6470 C   0  0  0  0  0  2  0  0  0  0  0  0
  191.4530  171.7410  134.5960 C   0  0  0  0  0  1  0  0  0  0  0  0
  192.6720  171.6910  135.4940 C   0  0  0  0  0  2  0  0  0  0  0  0
  195.5340  174.4270  138.4440 C   0  0  0  0  0  2  0  0  0  0  0  0
  199.0690  173.7840  137.7030 O   0  0  0  0  0  0  0  0  0  0  0  0
  198.1840  175.6060  138.7820 O   0  0  0  0  0  1  0  0  0  0  0  0
  198.0470  174.3790  138.1360 C   0  0  0  0  0  0  0  0  0  0  0  0
  196.7530  173.7910  137.9540 N   0  0  0  0  0  2  0  0  0  0  0  0
  187.6250  177.8200  144.1680 C   0  0  2  0  0  3  0  0  0  0  0  0
  188.6580  176.7080  144.3610 C   0  0  0  0  0  2  0  0  0  0  0  0
  189.6540  177.8400  146.2930 C   0  0  0  0  0  2  0  0  0  0  0  0
  189.8390  177.1630  145.1600 C   0  0  0  0  0  0  0  0  0  0  0  0
  191.1950  177.1150  144.5370 C   0  0  0  0  0  2  0  0  0  0  0  0
  191.2430  176.0720  143.4370 C   0  0  0  0  0  1  0  0  0  0  0  0
  186.2860  177.4700  144.8080 C   0  0  0  0  0  2  0  0  0  0  0  0
  186.3270  177.7350  146.3030 C   0  0  0  0  0  2  0  0  0  0  0  0
  184.2410  178.8990  145.5710 C   0  0  0  0  0  1  0  0  0  0  0  0
  185.0330  178.3840  146.7630 C   0  0  0  0  0  2  0  0  0  0  0  0
  1  2  2  0  0  0  0
  2 49  1  0  0  0  0
  3  2  1  0  0  0  0
  4  3  1  0  0  0  0
  5  6  1  0  0  0  0
  5  4  1  0  0  0  0
  6  7  1  1  0  0  0
  8 27  1  1  0  0  0
  8  6  1  0  0  0  0
  9 17  1  1  0  0  0
  9 11  1  0  0  0  0
  9 10  1  0  0  0  0
 10  8  1  1  0  0  0
 11 10  1  0  0  0  0
 12 26  1  6  0  0  0
 13 19  1  0  0  0  0
 13 12  1  0  0  0  0
 14 18  2  0  0  0  0
 14 16  1  0  0  0  0
 15 17  2  0  0  0  0
 16 21  2  0  0  0  0
 17 21  1  0  0  0  0
 18 15  1  0  0  0  0
 19 23  1  6  0  0  0
 19 14  1  0  0  0  0
 20 12  1  0  0  0  0
 20 18  1  0  0  0  0
 23 22  1  0  0  0  0
 24 23  2  0  0  0  0
 26 25  1  0  0  0  0
 28 27  1  0  0  0  0
 29  1  1  0  0  0  0
 30 35  1  6  0  0  0
 30 31  1  0  0  0  0
 31 29  1  1  0  0  0
 32 30  1  0  0  0  0
 32 31  1  0  0  0  0
 33 35  1  0  0  0  0
 34 33  2  0  0  0  0
 37 43  1  1  0  0  0
 37 40  1  0  0  0  0
 37 41  1  0  0  0  0
 38 36  1  0  0  0  0
 38 44  1  1  0  0  0
 39 33  1  6  0  0  0
 39 36  1  0  0  0  0
 40 39  1  0  0  0  0
 41 38  1  0  0  0  0
 42 43  1  0  0  0  0
 45 47  2  0  0  0  0
 47 46  1  0  0  0  0
 48 47  1  0  0  0  0
 48 44  1  0  0  0  0
 49 50  1  6  0  0  0
 49 55  1  0  0  0  0
 50 52  1  0  0  0  0
 52 51  2  0  0  0  0
 53 52  1  0  0  0  0
 54 53  1  0  0  0  0
 55 56  1  0  0  0  0
 56 58  1  0  0  0  0
 57 58  1  0  0  0  0
M  END
>  <MODEL>
1

>  <REMARK>
 VINA RESULT:      -7.2      0.000      0.000
  Name = 
  24 active torsions:
  status: ('A' for Active; 'I' for Inactive)
    1  A    between atoms: C_1  and  C_39
    2  A    between atoms: C_2  and  C_37
    3  A    between atoms: C_2  and  N_56
    4  A    between atoms: C_3  and  C_38
    5  A    between atoms: C_3  and  C_47
    6  A    between atoms: C_4  and  C_33
    7  A    between atoms: C_5  and  C_48
    8  A    between atoms: C_7  and  C_41
    9  A    between atoms: C_12  and  C_55
   10  A    between atoms: C_13  and  C_38
   11  A    between atoms: C_15  and  C_26
   12  A    between atoms: C_15  and  C_28
   13  A    between atoms: C_15  and  C_54
   14  A    between atoms: C_16  and  C_49
   15  A    between atoms: C_17  and  C_28
   16  A    between atoms: C_17  and  C_32
   17  A    between atoms: C_18  and  C_46
   18  A    between atoms: C_19  and  C_38
   19  A    between atoms: C_21  and  N_52
   20  A    between atoms: C_26  and  C_30
   21  A    between atoms: C_30  and  C_44
   22  A    between atoms: C_31  and  C_55
   23  A    between atoms: C_32  and  C_47
   24  A    between atoms: C_33  and  C_54
                            x       y       z     vdW  Elec       q    Type
                         _______ _______ _______ _____ _____    ______ ____

>  <TORSDO>
F 24

$$$$
=
 OpenBabel11042412473D

 58 62  0  0  1  0  0  0  0  0999 V2000
  184.5720  178.9870  139.4080 C   0  0  0  0  0  3  0  0  0  0  0  0
  183.3650  178.5080  139.7670 C   0  0  0  0  0  0  0  0  0  0  0  0
  183.1810  177.1000  140.2660 C   0  0  0  0  0  2  0  0  0  0  0  0
  182.6500  176.1880  139.1640 C   0  0  0  0  0  2  0  0  0  0  0  0
  181.4800  176.8470  138.4510 C   0  0  0  0  0  2  0  0  0  0  0  0
  180.2430  175.9620  138.5190 C   0  0  2  0  0  3  0  0  0  0  0  0
  179.8800  175.6470  139.9660 C   0  0  0  0  0  1  0  0  0  0  0  0
  180.4210  174.6970  137.6640 C   0  0  2  0  0  3  0  0  0  0  0  0
  180.6800  174.8830  135.0800 C   0  0  1  0  0  3  0  0  0  0  0  0
  179.7330  174.7950  136.2920 C   0  0  2  0  0  3  0  0  0  0  0  0
  180.0300  176.1350  135.6470 C   0  0  0  0  0  2  0  0  0  0  0  0
  186.5990  176.8130  135.9250 C   0  0  1  0  0  3  0  0  0  0  0  0
  186.8770  175.7420  136.7980 O   0  0  0  0  0  0  0  0  0  0  0  0
  184.9030  174.6240  135.9590 C   0  0  0  0  0  0  0  0  0  0  0  0
  182.9260  175.9730  135.5360 C   0  0  0  0  0  3  0  0  0  0  0  0
  184.1380  173.4630  135.7720 C   0  0  0  0  0  3  0  0  0  0  0  0
  182.1520  174.8100  135.4060 C   0  0  0  0  0  0  0  0  0  0  0  0
  184.2950  175.8850  135.8000 C   0  0  0  0  0  0  0  0  0  0  0  0
  186.4050  174.5670  136.1750 C   0  0  2  0  0  3  0  0  0  0  0  0
  185.1010  177.1400  135.9580 C   0  0  0  0  0  2  0  0  0  0  0  0
  182.7700  173.5570  135.5000 C   0  0  0  0  0  3  0  0  0  0  0  0
  188.0240  172.6800  136.6770 N   0  0  0  0  0  1  0  0  0  0  0  0
  186.8190  173.3780  136.9830 C   0  0  0  0  0  0  0  0  0  0  0  0
  186.1040  173.0010  137.9480 O   0  0  0  0  0  0  0  0  0  0  0  0
  188.7530  177.6690  136.5620 O   0  0  0  0  0  1  0  0  0  0  0  0
  187.4280  178.0330  136.3040 C   0  0  0  0  0  2  0  0  0  0  0  0
  180.0980  173.3810  138.3880 C   0  0  0  0  0  2  0  0  0  0  0  0
  180.2520  172.1570  137.4970 C   0  0  0  0  0  1  0  0  0  0  0  0
  185.8310  178.1850  139.5020 C   0  0  0  0  0  2  0  0  0  0  0  0
  187.7200  177.5810  140.9650 C   0  0  1  0  0  3  0  0  0  0  0  0
  186.5640  178.5440  140.7770 C   0  0  1  0  0  3  0  0  0  0  0  0
  187.9760  178.9730  140.4290 C   0  0  0  0  0  2  0  0  0  0  0  0
  189.2360  176.8600  142.8490 C   0  0  0  0  0  0  0  0  0  0  0  0
  190.0170  176.2830  142.0410 O   0  0  0  0  0  0  0  0  0  0  0  0
  188.0700  177.5340  142.3750 N   0  0  0  0  0  2  0  0  0  0  0  0
  188.2760  177.2730  145.1160 C   0  0  0  0  0  2  0  0  0  0  0  0
  191.0810  177.2420  145.9410 C   0  0  1  0  0  3  0  0  0  0  0  0
  188.6950  177.8390  146.4770 C   0  0  2  0  0  3  0  0  0  0  0  0
  189.5010  176.8090  144.3160 C   0  0  2  0  0  3  0  0  0  0  0  0
  190.6350  177.5860  144.6360 O   0  0  0  0  0  0  0  0  0  0  0  0
  189.9530  177.1420  146.9870 C   0  0  0  0  0  2  0  0  0  0  0  0
  192.2500  175.5470  147.3520 C   0  0  0  0  0  1  0  0  0  0  0  0
  191.9290  175.9740  145.9330 C   0  0  0  0  0  2  0  0  0  0  0  0
  187.5690  177.6900  147.4870 C   0  0  0  0  0  2  0  0  0  0  0  0
  184.3060  178.7870  146.2180 O   0  0  0  0  0  0  0  0  0  0  0  0
  185.7660  179.9870  147.5190 O   0  0  0  0  0  1  0  0  0  0  0  0
  185.4070  178.8320  146.8280 C   0  0  0  0  0  0  0  0  0  0  0  0
  186.2760  177.6930  146.8100 N   0  0  0  0  0  2  0  0  0  0  0  0
  182.1410  179.3710  139.6530 C   0  0  2  0  0  3  0  0  0  0  0  0
  182.4510  180.6200  138.8250 C   0  0  0  0  0  2  0  0  0  0  0  0
  180.5850  182.0530  138.1350 C   0  0  0  0  0  2  0  0  0  0  0  0
  181.3340  180.9760  137.8950 C   0  0  0  0  0  0  0  0  0  0  0  0
  180.8850  179.9700  136.8870 C   0  0  0  0  0  2  0  0  0  0  0  0
  179.5120  180.3230  136.3500 C   0  0  0  0  0  1  0  0  0  0  0  0
  181.5980  179.7240  141.0340 C   0  0  0  0  0  2  0  0  0  0  0  0
  180.3170  178.9560  141.3130 C   0  0  0  0  0  2  0  0  0  0  0  0
  181.0260  178.6400  143.6870 C   0  0  0  0  0  1  0  0  0  0  0  0
  179.9110  179.1120  142.7680 C   0  0  0  0  0  2  0  0  0  0  0  0
  1 29  1  0  0  0  0
  1  2  2  0  0  0  0
  2  3  1  0  0  0  0
  4  3  1  0  0  0  0
  5  6  1  0  0  0  0
  5  4  1  0  0  0  0
  6  7  1  1  0  0  0
  8 27  1  1  0  0  0
  8  6  1  0  0  0  0
  9 17  1  1  0  0  0
  9 11  1  0  0  0  0
  9 10  1  0  0  0  0
 10  8  1  1  0  0  0
 11 10  1  0  0  0  0
 12 20  1  0  0  0  0
 12 26  1  1  0  0  0
 12 13  1  0  0  0  0
 14 19  1  0  0  0  0
 15 18  2  0  0  0  0
 16 14  2  0  0  0  0
 17 21  2  0  0  0  0
 17 15  1  0  0  0  0
 18 20  1  0  0  0  0
 18 14  1  0  0  0  0
 19 13  1  0  0  0  0
 19 23  1  1  0  0  0
 21 16  1  0  0  0  0
 22 23  1  0  0  0  0
 23 24  2  0  0  0  0
 26 25  1  0  0  0  0
 28 27  1  0  0  0  0
 30 35  1  1  0  0  0
 31 29  1  6  0  0  0
 31 30  1  0  0  0  0
 32 31  1  0  0  0  0
 32 30  1  0  0  0  0
 34 33  2  0  0  0  0
 35 33  1  0  0  0  0
 36 38  1  0  0  0  0
 37 43  1  6  0  0  0
 37 41  1  0  0  0  0
 38 41  1  0  0  0  0
 38 44  1  1  0  0  0
 39 33  1  6  0  0  0
 39 40  1  0  0  0  0
 39 36  1  0  0  0  0
 40 37  1  0  0  0  0
 43 42  1  0  0  0  0
 45 47  2  0  0  0  0
 47 46  1  0  0  0  0
 48 47  1  0  0  0  0
 48 44  1  0  0  0  0
 49 50  1  1  0  0  0
 49  2  1  0  0  0  0
 49 55  1  0  0  0  0
 52 51  2  0  0  0  0
 52 50  1  0  0  0  0
 53 52  1  0  0  0  0
 54 53  1  0  0  0  0
 55 56  1  0  0  0  0
 56 58  1  0  0  0  0
 58 57  1  0  0  0  0
M  END
>  <MODEL>
2

>  <REMARK>
 VINA RESULT:      -7.0      4.061      8.245
  Name = 
  24 active torsions:
  status: ('A' for Active; 'I' for Inactive)
    1  A    between atoms: C_1  and  C_39
    2  A    between atoms: C_2  and  C_37
    3  A    between atoms: C_2  and  N_56
    4  A    between atoms: C_3  and  C_38
    5  A    between atoms: C_3  and  C_47
    6  A    between atoms: C_4  and  C_33
    7  A    between atoms: C_5  and  C_48
    8  A    between atoms: C_7  and  C_41
    9  A    between atoms: C_12  and  C_55
   10  A    between atoms: C_13  and  C_38
   11  A    between atoms: C_15  and  C_26
   12  A    between atoms: C_15  and  C_28
   13  A    between atoms: C_15  and  C_54
   14  A    between atoms: C_16  and  C_49
   15  A    between atoms: C_17  and  C_28
   16  A    between atoms: C_17  and  C_32
   17  A    between atoms: C_18  and  C_46
   18  A    between atoms: C_19  and  C_38
   19  A    between atoms: C_21  and  N_52
   20  A    between atoms: C_26  and  C_30
   21  A    between atoms: C_30  and  C_44
   22  A    between atoms: C_31  and  C_55
   23  A    between atoms: C_32  and  C_47
   24  A    between atoms: C_33  and  C_54
                            x       y       z     vdW  Elec       q    Type
                         _______ _______ _______ _____ _____    ______ ____

>  <TORSDO>
F 24

$$$$
=
 OpenBabel11042412473D

 58 62  0  0  1  0  0  0  0  0999 V2000
  188.3460  177.8300  141.2920 C   0  0  0  0  0  3  0  0  0  0  0  0
  187.5280  178.0870  142.3310 C   0  0  0  0  0  0  0  0  0  0  0  0
  186.2530  178.8700  142.1690 C   0  0  0  0  0  2  0  0  0  0  0  0
  185.0410  177.9460  142.1050 C   0  0  0  0  0  2  0  0  0  0  0  0
  184.2790  178.1610  140.8070 C   0  0  0  0  0  2  0  0  0  0  0  0
  182.9150  178.7780  141.0820 C   0  0  2  0  0  3  0  0  0  0  0  0
  182.6600  178.8850  142.5810 C   0  0  0  0  0  1  0  0  0  0  0  0
  181.8040  178.0110  140.3450 C   0  0  2  0  0  3  0  0  0  0  0  0
  181.1220  178.6790  137.9240 C   0  0  1  0  0  3  0  0  0  0  0  0
  180.9510  178.9110  139.4370 C   0  0  2  0  0  3  0  0  0  0  0  0
  181.8390  179.8260  138.6160 C   0  0  0  0  0  2  0  0  0  0  0  0
  186.0940  175.8280  135.3500 C   0  0  1  0  0  3  0  0  0  0  0  0
  186.0270  174.7660  136.2740 O   0  0  0  0  0  0  0  0  0  0  0  0
  183.7680  175.4520  136.8070 C   0  0  0  0  0  0  0  0  0  0  0  0
  183.3080  177.8340  136.9540 C   0  0  0  0  0  3  0  0  0  0  0  0
  182.5020  175.1830  137.3470 C   0  0  0  0  0  3  0  0  0  0  0  0
  182.0660  177.5640  137.5460 C   0  0  0  0  0  0  0  0  0  0  0  0
  184.1530  176.7870  136.5760 C   0  0  0  0  0  0  0  0  0  0  0  0
  184.6810  174.3410  136.3180 C   0  0  2  0  0  3  0  0  0  0  0  0
  185.4880  177.0960  135.9650 C   0  0  0  0  0  2  0  0  0  0  0  0
  181.6570  176.2340  137.7160 C   0  0  0  0  0  3  0  0  0  0  0  0
  183.8190  171.9890  136.7170 N   0  0  0  0  0  1  0  0  0  0  0  0
  184.5810  173.1080  137.1610 C   0  0  0  0  0  0  0  0  0  0  0  0
  185.1840  173.0580  138.2650 O   0  0  0  0  0  0  0  0  0  0  0  0
  187.7350  177.4120  134.5940 O   0  0  0  0  0  1  0  0  0  0  0  0
  187.5360  176.0680  134.9250 C   0  0  0  0  0  2  0  0  0  0  0  0
  180.9470  177.1030  141.2410 C   0  0  0  0  0  2  0  0  0  0  0  0
  179.9160  176.3000  140.4620 C   0  0  0  0  0  1  0  0  0  0  0  0
  188.0500  178.2640  139.8910 C   0  0  0  0  0  2  0  0  0  0  0  0
  189.0630  177.3240  137.8510 C   0  0  1  0  0  3  0  0  0  0  0  0
  189.3160  178.1980  139.0640 C   0  0  1  0  0  3  0  0  0  0  0  0
  189.0550  178.8310  137.7120 C   0  0  0  0  0  2  0  0  0  0  0  0
  190.5280  175.4190  137.0820 C   0  0  0  0  0  0  0  0  0  0  0  0
  189.5820  174.5940  137.2230 O   0  0  0  0  0  0  0  0  0  0  0  0
  190.3340  176.8030  137.3730 N   0  0  0  0  0  2  0  0  0  0  0  0
  192.8300  176.1300  136.4330 C   0  0  0  0  0  2  0  0  0  0  0  0
  192.9750  173.4440  135.2850 C   0  0  1  0  0  3  0  0  0  0  0  0
  193.9210  175.7730  135.4170 C   0  0  2  0  0  3  0  0  0  0  0  0
  191.8750  174.9480  136.6460 C   0  0  2  0  0  3  0  0  0  0  0  0
  191.7660  174.1690  135.4750 O   0  0  0  0  0  0  0  0  0  0  0  0
  194.2520  174.2850  135.4810 C   0  0  0  0  0  2  0  0  0  0  0  0
  194.2940  171.4100  135.8760 C   0  0  0  0  0  1  0  0  0  0  0  0
  193.0170  172.1830  136.1420 C   0  0  0  0  0  2  0  0  0  0  0  0
  195.1730  176.5990  135.6660 C   0  0  0  0  0  2  0  0  0  0  0  0
  198.4420  175.1670  134.8130 O   0  0  0  0  0  0  0  0  0  0  0  0
  197.6680  175.7190  136.9020 O   0  0  0  0  0  1  0  0  0  0  0  0
  197.5080  175.6300  135.5210 C   0  0  0  0  0  0  0  0  0  0  0  0
  196.2930  176.0660  134.8980 N   0  0  0  0  0  2  0  0  0  0  0  0
  187.8840  177.6150  143.7120 C   0  0  2  0  0  3  0  0  0  0  0  0
  189.2080  176.8490  143.6830 C   0  0  0  0  0  2  0  0  0  0  0  0
  190.2320  177.1640  145.8880 C   0  0  0  0  0  2  0  0  0  0  0  0
  190.2340  177.4570  144.5880 C   0  0  0  0  0  0  0  0  0  0  0  0
  191.0530  178.6000  144.0850 C   0  0  0  0  0  2  0  0  0  0  0  0
  191.8170  178.2050  142.8360 C   0  0  0  0  0  1  0  0  0  0  0  0
  186.7550  176.7770  144.3040 C   0  0  0  0  0  2  0  0  0  0  0  0
  186.5930  177.0750  145.7850 C   0  0  0  0  0  2  0  0  0  0  0  0
  185.2750  179.0590  146.5370 C   0  0  0  0  0  1  0  0  0  0  0  0
  186.6240  178.5730  146.0310 C   0  0  0  0  0  2  0  0  0  0  0  0
  1  2  2  0  0  0  0
  2 49  1  0  0  0  0
  3  2  1  0  0  0  0
  4  3  1  0  0  0  0
  5  6  1  0  0  0  0
  5  4  1  0  0  0  0
  6  7  1  1  0  0  0
  8  6  1  0  0  0  0
  8 27  1  1  0  0  0
  9 17  1  1  0  0  0
  9 11  1  0  0  0  0
  9 10  1  0  0  0  0
 10  8  1  1  0  0  0
 11 10  1  0  0  0  0
 12 26  1  1  0  0  0
 12 20  1  0  0  0  0
 12 13  1  0  0  0  0
 13 19  1  0  0  0  0
 14 16  1  0  0  0  0
 15 17  2  0  0  0  0
 16 21  2  0  0  0  0
 17 21  1  0  0  0  0
 18 14  2  0  0  0  0
 18 15  1  0  0  0  0
 19 14  1  0  0  0  0
 19 23  1  1  0  0  0
 20 18  1  0  0  0  0
 22 23  1  0  0  0  0
 23 24  2  0  0  0  0
 25 26  1  0  0  0  0
 28 27  1  0  0  0  0
 29  1  1  0  0  0  0
 30 35  1  6  0  0  0
 30 31  1  0  0  0  0
 31 29  1  1  0  0  0
 32 30  1  0  0  0  0
 32 31  1  0  0  0  0
 33 34  2  0  0  0  0
 33 35  1  0  0  0  0
 36 39  1  0  0  0  0
 37 40  1  0  0  0  0
 37 41  1  0  0  0  0
 37 43  1  1  0  0  0
 38 41  1  0  0  0  0
 38 44  1  1  0  0  0
 38 36  1  0  0  0  0
 39 33  1  6  0  0  0
 40 39  1  0  0  0  0
 42 43  1  0  0  0  0
 45 47  2  0  0  0  0
 47 46  1  0  0  0  0
 48 47  1  0  0  0  0
 48 44  1  0  0  0  0
 49 50  1  6  0  0  0
 49 55  1  0  0  0  0
 50 52  1  0  0  0  0
 52 51  2  0  0  0  0
 53 52  1  0  0  0  0
 54 53  1  0  0  0  0
 55 56  1  0  0  0  0
 56 58  1  0  0  0  0
 58 57  1  0  0  0  0
M  END
>  <MODEL>
3

>  <REMARK>
 VINA RESULT:      -6.9      1.670      2.569
  Name = 
  24 active torsions:
  status: ('A' for Active; 'I' for Inactive)
    1  A    between atoms: C_1  and  C_39
    2  A    between atoms: C_2  and  C_37
    3  A    between atoms: C_2  and  N_56
    4  A    between atoms: C_3  and  C_38
    5  A    between atoms: C_3  and  C_47
    6  A    between atoms: C_4  and  C_33
    7  A    between atoms: C_5  and  C_48
    8  A    between atoms: C_7  and  C_41
    9  A    between atoms: C_12  and  C_55
   10  A    between atoms: C_13  and  C_38
   11  A    between atoms: C_15  and  C_26
   12  A    between atoms: C_15  and  C_28
   13  A    between atoms: C_15  and  C_54
   14  A    between atoms: C_16  and  C_49
   15  A    between atoms: C_17  and  C_28
   16  A    between atoms: C_17  and  C_32
   17  A    between atoms: C_18  and  C_46
   18  A    between atoms: C_19  and  C_38
   19  A    between atoms: C_21  and  N_52
   20  A    between atoms: C_26  and  C_30
   21  A    between atoms: C_30  and  C_44
   22  A    between atoms: C_31  and  C_55
   23  A    between atoms: C_32  and  C_47
   24  A    between atoms: C_33  and  C_54
                            x       y       z     vdW  Elec       q    Type
                         _______ _______ _______ _____ _____    ______ ____

>  <TORSDO>
F 24

$$$$
=
 OpenBabel11042412473D

 58 62  0  0  1  0  0  0  0  0999 V2000
  188.2500  177.4700  141.1490 C   0  0  0  0  0  3  0  0  0  0  0  0
  187.4460  178.0520  142.0600 C   0  0  0  0  0  0  0  0  0  0  0  0
  186.2870  178.9250  141.6600 C   0  0  0  0  0  2  0  0  0  0  0  0
  184.9780  178.1400  141.6650 C   0  0  0  0  0  2  0  0  0  0  0  0
  184.0890  178.5890  140.5160 C   0  0  0  0  0  2  0  0  0  0  0  0
  182.7790  179.1580  141.0420 C   0  0  2  0  0  3  0  0  0  0  0  0
  182.5740  178.7850  142.5060 C   0  0  0  0  0  1  0  0  0  0  0  0
  181.5970  178.7370  140.1530 C   0  0  2  0  0  3  0  0  0  0  0  0
  180.9700  179.7540  137.8400 C   0  0  1  0  0  3  0  0  0  0  0  0
  180.9820  179.9110  139.3730 C   0  0  2  0  0  3  0  0  0  0  0  0
  182.0390  180.5910  138.5240 C   0  0  0  0  0  2  0  0  0  0  0  0
  185.2020  175.4720  136.0450 C   0  0  1  0  0  3  0  0  0  0  0  0
  184.3060  174.4110  136.2850 O   0  0  0  0  0  0  0  0  0  0  0  0
  182.4990  176.0200  136.2940 C   0  0  0  0  0  0  0  0  0  0  0  0
  182.8900  178.1630  137.3740 C   0  0  0  0  0  3  0  0  0  0  0  0
  181.1350  176.3320  136.1920 C   0  0  0  0  0  3  0  0  0  0  0  0
  181.5170  178.4460  137.3220 C   0  0  0  0  0  0  0  0  0  0  0  0
  183.3830  176.9620  136.8550 C   0  0  0  0  0  0  0  0  0  0  0  0
  183.0810  174.7610  135.6770 C   0  0  2  0  0  3  0  0  0  0  0  0
  184.8510  176.6660  136.9410 C   0  0  0  0  0  2  0  0  0  0  0  0
  180.6480  177.5370  136.7060 C   0  0  0  0  0  3  0  0  0  0  0  0
  181.8250  172.8420  134.5940 N   0  0  0  0  0  1  0  0  0  0  0  0
  182.1400  173.6000  135.7590 C   0  0  0  0  0  0  0  0  0  0  0  0
  181.6350  173.2850  136.8680 O   0  0  0  0  0  0  0  0  0  0  0  0
  187.1160  174.2960  135.1890 O   0  0  0  0  0  1  0  0  0  0  0  0
  186.6360  175.0170  136.2860 C   0  0  0  0  0  2  0  0  0  0  0  0
  180.5330  177.8830  140.8600 C   0  0  0  0  0  2  0  0  0  0  0  0
  180.3490  176.5140  140.2230 C   0  0  0  0  0  1  0  0  0  0  0  0
  188.0480  177.6060  139.6730 C   0  0  0  0  0  2  0  0  0  0  0  0
  189.3130  177.0260  137.6400 C   0  0  1  0  0  3  0  0  0  0  0  0
  189.3930  177.7170  138.9880 C   0  0  1  0  0  3  0  0  0  0  0  0
  189.2340  178.5350  137.7210 C   0  0  0  0  0  2  0  0  0  0  0  0
  190.9460  176.1880  135.9080 C   0  0  0  0  0  0  0  0  0  0  0  0
  190.0360  176.1280  135.0340 O   0  0  0  0  0  0  0  0  0  0  0  0
  190.6530  176.6350  137.2320 N   0  0  0  0  0  2  0  0  0  0  0  0
  192.5030  174.2410  135.7850 C   0  0  0  0  0  2  0  0  0  0  0  0
  194.5630  176.3170  135.7750 C   0  0  1  0  0  3  0  0  0  0  0  0
  193.9640  173.8920  136.0890 C   0  0  2  0  0  3  0  0  0  0  0  0
  192.3340  175.7520  135.5780 C   0  0  2  0  0  3  0  0  0  0  0  0
  193.2700  176.4750  136.3470 O   0  0  0  0  0  0  0  0  0  0  0  0
  194.9090  174.8650  135.3890 C   0  0  0  0  0  2  0  0  0  0  0  0
  196.1760  177.8430  134.6360 C   0  0  0  0  0  1  0  0  0  0  0  0
  194.7770  177.2600  134.5950 C   0  0  0  0  0  2  0  0  0  0  0  0
  194.2730  172.4660  135.6620 C   0  0  0  0  0  2  0  0  0  0  0  0
  195.1940  170.5850  138.6740 O   0  0  0  0  0  1  0  0  0  0  0  0
  196.5220  172.0180  137.4700 O   0  0  0  0  0  0  0  0  0  0  0  0
  195.3110  171.3650  137.6920 C   0  0  0  0  0  0  0  0  0  0  0  0
  194.2010  171.5670  136.8090 N   0  0  0  0  0  2  0  0  0  0  0  0
  187.7030  177.8670  143.5290 C   0  0  2  0  0  3  0  0  0  0  0  0
  188.6190  176.6630  143.7560 C   0  0  0  0  0  2  0  0  0  0  0  0
  190.2020  178.2180  144.7980 C   0  0  0  0  0  2  0  0  0  0  0  0
  190.0040  177.0690  144.1510 C   0  0  0  0  0  0  0  0  0  0  0  0
  191.1660  176.3400  143.5620 C   0  0  0  0  0  2  0  0  0  0  0  0
  191.7810  177.1360  142.4270 C   0  0  0  0  0  1  0  0  0  0  0  0
  186.3910  177.7370  144.2950 C   0  0  0  0  0  2  0  0  0  0  0  0
  186.6600  177.5010  145.7720 C   0  0  0  0  0  2  0  0  0  0  0  0
  184.5040  178.7610  145.8200 C   0  0  0  0  0  1  0  0  0  0  0  0
  185.7260  178.3430  146.6230 C   0  0  0  0  0  2  0  0  0  0  0  0
  1  2  2  0  0  0  0
  2 49  1  0  0  0  0
  3  4  1  0  0  0  0
  3  2  1  0  0  0  0
  5  6  1  0  0  0  0
  5  4  1  0  0  0  0
  6  7  1  1  0  0  0
  8 27  1  1  0  0  0
  8  6  1  0  0  0  0
  9 17  1  1  0  0  0
  9 11  1  0  0  0  0
  9 10  1  0  0  0  0
 10  8  1  1  0  0  0
 11 10  1  0  0  0  0
 12 13  1  0  0  0  0
 12 26  1  1  0  0  0
 12 20  1  0  0  0  0
 14 18  1  0  0  0  0
 16 14  2  0  0  0  0
 16 21  1  0  0  0  0
 17 15  1  0  0  0  0
 18 20  1  0  0  0  0
 18 15  2  0  0  0  0
 19 23  1  1  0  0  0
 19 13  1  0  0  0  0
 19 14  1  0  0  0  0
 21 17  2  0  0  0  0
 22 23  1  0  0  0  0
 23 24  2  0  0  0  0
 25 26  1  0  0  0  0
 28 27  1  0  0  0  0
 29  1  1  0  0  0  0
 30 35  1  6  0  0  0
 30 32  1  0  0  0  0
 30 31  1  0  0  0  0
 31 29  1  1  0  0  0
 32 31  1  0  0  0  0
 33 35  1  0  0  0  0
 34 33  2  0  0  0  0
 36 38  1  0  0  0  0
 37 43  1  6  0  0  0
 37 40  1  0  0  0  0
 38 44  1  6  0  0  0
 39 36  1  0  0  0  0
 39 33  1  1  0  0  0
 39 40  1  0  0  0  0
 41 37  1  0  0  0  0
 41 38  1  0  0  0  0
 43 42  1  0  0  0  0
 44 48  1  0  0  0  0
 46 47  2  0  0  0  0
 47 45  1  0  0  0  0
 48 47  1  0  0  0  0
 49 50  1  6  0  0  0
 49 55  1  0  0  0  0
 50 52  1  0  0  0  0
 52 51  2  0  0  0  0
 53 52  1  0  0  0  0
 54 53  1  0  0  0  0
 55 56  1  0  0  0  0
 56 58  1  0  0  0  0
 57 58  1  0  0  0  0
M  END
>  <MODEL>
4

>  <REMARK>
 VINA RESULT:      -6.6      1.848      2.889
  Name = 
  24 active torsions:
  status: ('A' for Active; 'I' for Inactive)
    1  A    between atoms: C_1  and  C_39
    2  A    between atoms: C_2  and  C_37
    3  A    between atoms: C_2  and  N_56
    4  A    between atoms: C_3  and  C_38
    5  A    between atoms: C_3  and  C_47
    6  A    between atoms: C_4  and  C_33
    7  A    between atoms: C_5  and  C_48
    8  A    between atoms: C_7  and  C_41
    9  A    between atoms: C_12  and  C_55
   10  A    between atoms: C_13  and  C_38
   11  A    between atoms: C_15  and  C_26
   12  A    between atoms: C_15  and  C_28
   13  A    between atoms: C_15  and  C_54
   14  A    between atoms: C_16  and  C_49
   15  A    between atoms: C_17  and  C_28
   16  A    between atoms: C_17  and  C_32
   17  A    between atoms: C_18  and  C_46
   18  A    between atoms: C_19  and  C_38
   19  A    between atoms: C_21  and  N_52
   20  A    between atoms: C_26  and  C_30
   21  A    between atoms: C_30  and  C_44
   22  A    between atoms: C_31  and  C_55
   23  A    between atoms: C_32  and  C_47
   24  A    between atoms: C_33  and  C_54
                            x       y       z     vdW  Elec       q    Type
                         _______ _______ _______ _____ _____    ______ ____

>  <TORSDO>
F 24

$$$$
=
 OpenBabel11042412473D

 58 62  0  0  1  0  0  0  0  0999 V2000
  188.9420  177.9450  142.2490 C   0  0  0  0  0  3  0  0  0  0  0  0
  187.9290  177.6840  143.0970 C   0  0  0  0  0  0  0  0  0  0  0  0
  186.5400  177.3690  142.6090 C   0  0  0  0  0  2  0  0  0  0  0  0
  186.1620  178.2440  141.4180 C   0  0  0  0  0  2  0  0  0  0  0  0
  185.4130  179.4820  141.8870 C   0  0  0  0  0  2  0  0  0  0  0  0
  183.9160  179.2140  141.9420 C   0  0  2  0  0  3  0  0  0  0  0  0
  183.5470  178.4560  143.2130 C   0  0  0  0  0  1  0  0  0  0  0  0
  183.4340  178.5020  140.6670 C   0  0  2  0  0  3  0  0  0  0  0  0
  182.8890  179.1540  138.2070 C   0  0  1  0  0  3  0  0  0  0  0  0
  182.6750  179.4320  139.7070 C   0  0  2  0  0  3  0  0  0  0  0  0
  183.6510  180.2710  138.9040 C   0  0  0  0  0  2  0  0  0  0  0  0
  184.5850  173.1700  137.3270 C   0  0  1  0  0  3  0  0  0  0  0  0
  185.6550  173.5430  136.4900 O   0  0  0  0  0  0  0  0  0  0  0  0
  185.4680  175.7950  137.3560 C   0  0  0  0  0  0  0  0  0  0  0  0
  183.2390  176.6880  137.7270 C   0  0  0  0  0  3  0  0  0  0  0  0
  186.0060  177.0710  137.5760 C   0  0  0  0  0  3  0  0  0  0  0  0
  183.7740  177.9740  137.8900 C   0  0  0  0  0  0  0  0  0  0  0  0
  184.0780  175.6010  137.4720 C   0  0  0  0  0  0  0  0  0  0  0  0
  186.3540  174.5780  137.1490 C   0  0  2  0  0  3  0  0  0  0  0  0
  183.4850  174.2360  137.2770 C   0  0  0  0  0  2  0  0  0  0  0  0
  185.1630  178.1540  137.8390 C   0  0  0  0  0  3  0  0  0  0  0  0
  188.8760  174.7890  136.9950 N   0  0  0  0  0  1  0  0  0  0  0  0
  187.5960  174.9030  136.3800 C   0  0  0  0  0  0  0  0  0  0  0  0
  187.5080  175.2660  135.1780 O   0  0  0  0  0  0  0  0  0  0  0  0
  183.8780  171.7430  135.5270 O   0  0  0  0  0  1  0  0  0  0  0  0
  184.0400  171.8090  136.9140 C   0  0  0  0  0  2  0  0  0  0  0  0
  182.6900  177.1800  140.9110 C   0  0  0  0  0  2  0  0  0  0  0  0
  181.1950  177.2800  140.6470 C   0  0  0  0  0  1  0  0  0  0  0  0
  188.7930  177.9140  140.7610 C   0  0  0  0  0  2  0  0  0  0  0  0
  190.8590  177.4870  139.4880 C   0  0  1  0  0  3  0  0  0  0  0  0
  189.6830  176.8330  140.1870 C   0  0  1  0  0  3  0  0  0  0  0  0
  191.0350  176.8950  140.8690 C   0  0  0  0  0  2  0  0  0  0  0  0
  192.7890  176.4390  138.2460 C   0  0  0  0  0  0  0  0  0  0  0  0
  193.6230  177.1280  138.8970 O   0  0  0  0  0  0  0  0  0  0  0  0
  191.3890  176.5650  138.4960 N   0  0  0  0  0  2  0  0  0  0  0  0
  194.7220  175.7790  136.8110 C   0  0  0  0  0  2  0  0  0  0  0  0
  192.6520  174.4980  135.1910 C   0  0  1  0  0  3  0  0  0  0  0  0
  195.0140  175.3480  135.3690 C   0  0  2  0  0  3  0  0  0  0  0  0
  193.2560  175.5100  137.1750 C   0  0  2  0  0  3  0  0  0  0  0  0
  192.4260  175.6170  136.0390 O   0  0  0  0  0  0  0  0  0  0  0  0
  194.1410  174.1620  134.9730 C   0  0  0  0  0  2  0  0  0  0  0  0
  192.8080  172.0740  135.7660 C   0  0  0  0  0  1  0  0  0  0  0  0
  191.8800  173.2680  135.6630 C   0  0  0  0  0  2  0  0  0  0  0  0
  196.4830  174.9940  135.2050 C   0  0  0  0  0  2  0  0  0  0  0  0
  198.5590  175.3390  138.2100 O   0  0  0  0  0  1  0  0  0  0  0  0
  197.7250  173.3990  137.3130 O   0  0  0  0  0  0  0  0  0  0  0  0
  197.8810  174.7830  137.3060 C   0  0  0  0  0  0  0  0  0  0  0  0
  197.2700  175.5810  136.2840 N   0  0  0  0  0  2  0  0  0  0  0  0
  188.1510  177.7250  144.5820 C   0  0  2  0  0  3  0  0  0  0  0  0
  187.1260  178.6500  145.2430 C   0  0  0  0  0  2  0  0  0  0  0  0
  185.1700  178.2530  146.6660 C   0  0  0  0  0  2  0  0  0  0  0  0
  186.4560  178.0070  146.4170 C   0  0  0  0  0  0  0  0  0  0  0  0
  187.2990  177.3440  147.4550 C   0  0  0  0  0  2  0  0  0  0  0  0
  187.9350  178.3740  148.3690 C   0  0  0  0  0  1  0  0  0  0  0  0
  189.5830  178.1400  144.9040 C   0  0  0  0  0  2  0  0  0  0  0  0
  190.2280  177.1350  145.8430 C   0  0  0  0  0  2  0  0  0  0  0  0
  191.5560  175.9590  144.0850 C   0  0  0  0  0  1  0  0  0  0  0  0
  191.6240  176.7810  145.3620 C   0  0  0  0  0  2  0  0  0  0  0  0
  1  2  2  0  0  0  0
  2 49  1  0  0  0  0
  3  2  1  0  0  0  0
  4  5  1  0  0  0  0
  4  3  1  0  0  0  0
  5  6  1  0  0  0  0
  6  7  1  1  0  0  0
  8 27  1  1  0  0  0
  8  6  1  0  0  0  0
  9 17  1  1  0  0  0
  9 11  1  0  0  0  0
  9 10  1  0  0  0  0
 10  8  1  1  0  0  0
 11 10  1  0  0  0  0
 12 26  1  6  0  0  0
 13 19  1  0  0  0  0
 13 12  1  0  0  0  0
 14 18  2  0  0  0  0
 14 16  1  0  0  0  0
 15 17  2  0  0  0  0
 16 21  2  0  0  0  0
 18 15  1  0  0  0  0
 19 23  1  6  0  0  0
 19 14  1  0  0  0  0
 20 12  1  0  0  0  0
 20 18  1  0  0  0  0
 21 17  1  0  0  0  0
 23 22  1  0  0  0  0
 24 23  2  0  0  0  0
 25 26  1  0  0  0  0
 28 27  1  0  0  0  0
 29  1  1  0  0  0  0
 30 35  1  6  0  0  0
 30 31  1  0  0  0  0
 30 32  1  0  0  0  0
 31 29  1  1  0  0  0
 31 32  1  0  0  0  0
 33 35  1  0  0  0  0
 33 34  2  0  0  0  0
 36 39  1  0  0  0  0
 37 43  1  1  0  0  0
 37 40  1  0  0  0  0
 38 44  1  1  0  0  0
 38 36  1  0  0  0  0
 39 33  1  1  0  0  0
 40 39  1  0  0  0  0
 41 37  1  0  0  0  0
 41 38  1  0  0  0  0
 43 42  1  0  0  0  0
 44 48  1  0  0  0  0
 47 46  2  0  0  0  0
 47 45  1  0  0  0  0
 48 47  1  0  0  0  0
 49 55  1  6  0  0  0
 49 50  1  0  0  0  0
 50 52  1  0  0  0  0
 52 51  2  0  0  0  0
 52 53  1  0  0  0  0
 53 54  1  0  0  0  0
 55 56  1  0  0  0  0
 57 58  1  0  0  0  0
 58 56  1  0  0  0  0
M  END
>  <MODEL>
5

>  <REMARK>
 VINA RESULT:      -6.5      1.572      2.845
  Name = 
  24 active torsions:
  status: ('A' for Active; 'I' for Inactive)
    1  A    between atoms: C_1  and  C_39
    2  A    between atoms: C_2  and  C_37
    3  A    between atoms: C_2  and  N_56
    4  A    between atoms: C_3  and  C_38
    5  A    between atoms: C_3  and  C_47
    6  A    between atoms: C_4  and  C_33
    7  A    between atoms: C_5  and  C_48
    8  A    between atoms: C_7  and  C_41
    9  A    between atoms: C_12  and  C_55
   10  A    between atoms: C_13  and  C_38
   11  A    between atoms: C_15  and  C_26
   12  A    between atoms: C_15  and  C_28
   13  A    between atoms: C_15  and  C_54
   14  A    between atoms: C_16  and  C_49
   15  A    between atoms: C_17  and  C_28
   16  A    between atoms: C_17  and  C_32
   17  A    between atoms: C_18  and  C_46
   18  A    between atoms: C_19  and  C_38
   19  A    between atoms: C_21  and  N_52
   20  A    between atoms: C_26  and  C_30
   21  A    between atoms: C_30  and  C_44
   22  A    between atoms: C_31  and  C_55
   23  A    between atoms: C_32  and  C_47
   24  A    between atoms: C_33  and  C_54
                            x       y       z     vdW  Elec       q    Type
                         _______ _______ _______ _____ _____    ______ ____

>  <TORSDO>
F 24

$$$$
=
 OpenBabel11042412473D

 58 62  0  0  1  0  0  0  0  0999 V2000
  189.9960  176.9250  141.3230 C   0  0  0  0  0  3  0  0  0  0  0  0
  189.2830  177.8650  141.9730 C   0  0  0  0  0  0  0  0  0  0  0  0
  188.1930  178.6510  141.2960 C   0  0  0  0  0  2  0  0  0  0  0  0
  186.8670  177.8970  141.3260 C   0  0  0  0  0  2  0  0  0  0  0  0
  185.8630  178.5540  140.3930 C   0  0  0  0  0  2  0  0  0  0  0  0
  184.5970  178.9340  141.1480 C   0  0  2  0  0  3  0  0  0  0  0  0
  184.6700  178.4680  142.5980 C   0  0  0  0  0  1  0  0  0  0  0  0
  183.3450  178.4160  140.4220 C   0  0  2  0  0  3  0  0  0  0  0  0
  182.4240  179.3320  138.1670 C   0  0  1  0  0  3  0  0  0  0  0  0
  182.5720  179.5240  139.6880 C   0  0  2  0  0  3  0  0  0  0  0  0
  183.4880  180.2590  138.7300 C   0  0  0  0  0  2  0  0  0  0  0  0
  186.7060  175.4170  135.7570 C   0  0  1  0  0  3  0  0  0  0  0  0
  186.0180  174.2860  136.2380 O   0  0  0  0  0  0  0  0  0  0  0  0
  184.0620  175.6800  136.5410 C   0  0  0  0  0  0  0  0  0  0  0  0
  184.3930  177.9320  137.3940 C   0  0  0  0  0  3  0  0  0  0  0  0
  182.6780  175.8280  136.7120 C   0  0  0  0  0  3  0  0  0  0  0  0
  183.0140  178.0560  137.6180 C   0  0  0  0  0  0  0  0  0  0  0  0
  184.9170  176.7560  136.8490 C   0  0  0  0  0  0  0  0  0  0  0  0
  184.6600  174.4470  135.8850 C   0  0  2  0  0  3  0  0  0  0  0  0
  186.3970  176.6330  136.6390 C   0  0  0  0  0  2  0  0  0  0  0  0
  182.1590  177.0090  137.2500 C   0  0  0  0  0  3  0  0  0  0  0  0
  183.1590  172.5100  135.2320 N   0  0  0  0  0  1  0  0  0  0  0  0
  183.9090  173.1990  136.2280 C   0  0  0  0  0  0  0  0  0  0  0  0
  183.9510  172.7500  137.4030 O   0  0  0  0  0  0  0  0  0  0  0  0
  188.5600  174.1920  136.6720 O   0  0  0  0  0  1  0  0  0  0  0  0
  188.2030  175.1460  135.7140 C   0  0  0  0  0  2  0  0  0  0  0  0
  182.4260  177.5300  141.2780 C   0  0  0  0  0  2  0  0  0  0  0  0
  181.3950  176.7720  140.4560 C   0  0  0  0  0  1  0  0  0  0  0  0
  189.7530  176.5560  139.8940 C   0  0  0  0  0  2  0  0  0  0  0  0
  190.9510  175.9570  137.8260 C   0  0  1  0  0  3  0  0  0  0  0  0
  191.0130  176.7930  139.0900 C   0  0  1  0  0  3  0  0  0  0  0  0
  190.6400  177.4370  137.7690 C   0  0  0  0  0  2  0  0  0  0  0  0
  192.6310  175.7400  135.9560 C   0  0  0  0  0  0  0  0  0  0  0  0
  191.7400  175.9600  135.0880 O   0  0  0  0  0  0  0  0  0  0  0  0
  192.3050  175.7300  137.3460 N   0  0  0  0  0  2  0  0  0  0  0  0
  194.3190  173.9390  135.5840 C   0  0  0  0  0  2  0  0  0  0  0  0
  196.2200  176.1570  135.7110 C   0  0  1  0  0  3  0  0  0  0  0  0
  195.8140  173.6740  135.8010 C   0  0  2  0  0  3  0  0  0  0  0  0
  194.0320  175.4460  135.5350 C   0  0  2  0  0  3  0  0  0  0  0  0
  194.9450  176.1600  136.3400 O   0  0  0  0  0  0  0  0  0  0  0  0
  196.6540  174.7800  135.1700 C   0  0  0  0  0  2  0  0  0  0  0  0
  196.1600  178.6050  135.2300 C   0  0  0  0  0  1  0  0  0  0  0  0
  196.3160  177.2240  134.6240 C   0  0  0  0  0  2  0  0  0  0  0  0
  196.2060  172.3250  135.2230 C   0  0  0  0  0  2  0  0  0  0  0  0
  195.6510  170.0490  138.0470 O   0  0  0  0  0  1  0  0  0  0  0  0
  194.0880  171.3440  136.9780 O   0  0  0  0  0  0  0  0  0  0  0  0
  195.3930  170.8860  137.1420 C   0  0  0  0  0  0  0  0  0  0  0  0
  196.4460  171.3640  136.2950 N   0  0  0  0  0  2  0  0  0  0  0  0
  189.5770  178.1810  143.4130 C   0  0  2  0  0  3  0  0  0  0  0  0
  191.0860  178.1430  143.6630 C   0  0  0  0  0  2  0  0  0  0  0  0
  191.6590  175.8210  144.2000 C   0  0  0  0  0  2  0  0  0  0  0  0
  191.4740  177.0690  144.6300 C   0  0  0  0  0  0  0  0  0  0  0  0
  191.3600  177.3400  146.0940 C   0  0  0  0  0  2  0  0  0  0  0  0
  191.9130  176.1800  146.9000 C   0  0  0  0  0  1  0  0  0  0  0  0
  188.8230  177.2330  144.3390 C   0  0  0  0  0  2  0  0  0  0  0  0
  187.5940  177.9180  144.9140 C   0  0  0  0  0  2  0  0  0  0  0  0
  187.8900  177.7580  147.3880 C   0  0  0  0  0  1  0  0  0  0  0  0
  187.1400  177.2170  146.1820 C   0  0  0  0  0  2  0  0  0  0  0  0
  1  2  2  0  0  0  0
  2 49  1  0  0  0  0
  3  4  1  0  0  0  0
  3  2  1  0  0  0  0
  5  6  1  0  0  0  0
  5  4  1  0  0  0  0
  6  7  1  1  0  0  0
  8  6  1  0  0  0  0
  8 27  1  1  0  0  0
  9 17  1  1  0  0  0
  9 11  1  0  0  0  0
  9 10  1  0  0  0  0
 10  8  1  1  0  0  0
 11 10  1  0  0  0  0
 12 26  1  1  0  0  0
 12 13  1  0  0  0  0
 12 20  1  0  0  0  0
 14 16  2  0  0  0  0
 14 18  1  0  0  0  0
 15 17  1  0  0  0  0
 16 21  1  0  0  0  0
 18 15  2  0  0  0  0
 19 23  1  1  0  0  0
 19 13  1  0  0  0  0
 19 14  1  0  0  0  0
 20 18  1  0  0  0  0
 21 17  2  0  0  0  0
 22 23  1  0  0  0  0
 23 24  2  0  0  0  0
 26 25  1  0  0  0  0
 28 27  1  0  0  0  0
 29  1  1  0  0  0  0
 30 35  1  6  0  0  0
 30 31  1  0  0  0  0
 31 29  1  1  0  0  0
 32 30  1  0  0  0  0
 32 31  1  0  0  0  0
 33 35  1  0  0  0  0
 34 33  2  0  0  0  0
 36 38  1  0  0  0  0
 37 43  1  6  0  0  0
 37 40  1  0  0  0  0
 38 44  1  6  0  0  0
 39 36  1  0  0  0  0
 39 33  1  1  0  0  0
 39 40  1  0  0  0  0
 41 37  1  0  0  0  0
 41 38  1  0  0  0  0
 43 42  1  0  0  0  0
 44 48  1  0  0  0  0
 46 47  2  0  0  0  0
 47 45  1  0  0  0  0
 48 47  1  0  0  0  0
 49 50  1  6  0  0  0
 49 55  1  0  0  0  0
 50 52  1  0  0  0  0
 51 52  2  0  0  0  0
 52 53  1  0  0  0  0
 53 54  1  0  0  0  0
 55 56  1  0  0  0  0
 56 58  1  0  0  0  0
 58 57  1  0  0  0  0
M  END
>  <MODEL>
6

>  <REMARK>
 VINA RESULT:      -5.6      2.076      3.477
  Name = 
  24 active torsions:
  status: ('A' for Active; 'I' for Inactive)
    1  A    between atoms: C_1  and  C_39
    2  A    between atoms: C_2  and  C_37
    3  A    between atoms: C_2  and  N_56
    4  A    between atoms: C_3  and  C_38
    5  A    between atoms: C_3  and  C_47
    6  A    between atoms: C_4  and  C_33
    7  A    between atoms: C_5  and  C_48
    8  A    between atoms: C_7  and  C_41
    9  A    between atoms: C_12  and  C_55
   10  A    between atoms: C_13  and  C_38
   11  A    between atoms: C_15  and  C_26
   12  A    between atoms: C_15  and  C_28
   13  A    between atoms: C_15  and  C_54
   14  A    between atoms: C_16  and  C_49
   15  A    between atoms: C_17  and  C_28
   16  A    between atoms: C_17  and  C_32
   17  A    between atoms: C_18  and  C_46
   18  A    between atoms: C_19  and  C_38
   19  A    between atoms: C_21  and  N_52
   20  A    between atoms: C_26  and  C_30
   21  A    between atoms: C_30  and  C_44
   22  A    between atoms: C_31  and  C_55
   23  A    between atoms: C_32  and  C_47
   24  A    between atoms: C_33  and  C_54
                            x       y       z     vdW  Elec       q    Type
                         _______ _______ _______ _____ _____    ______ ____

>  <TORSDO>
F 24

$$$$
=
 OpenBabel11042412473D

 58 62  0  0  1  0  0  0  0  0999 V2000
  188.7150  177.9510  142.1860 C   0  0  0  0  0  3  0  0  0  0  0  0
  187.6890  177.6300  142.9970 C   0  0  0  0  0  0  0  0  0  0  0  0
  186.3030  177.3730  142.4680 C   0  0  0  0  0  2  0  0  0  0  0  0
  185.9890  178.2760  141.2790 C   0  0  0  0  0  2  0  0  0  0  0  0
  185.2320  179.5120  141.7380 C   0  0  0  0  0  2  0  0  0  0  0  0
  183.7660  179.1830  141.9820 C   0  0  2  0  0  3  0  0  0  0  0  0
  183.6070  178.2860  143.2050 C   0  0  0  0  0  1  0  0  0  0  0  0
  183.1160  178.5870  140.7230 C   0  0  2  0  0  3  0  0  0  0  0  0
  182.4650  179.4340  138.3490 C   0  0  1  0  0  3  0  0  0  0  0  0
  182.3740  179.6320  139.8750 C   0  0  2  0  0  3  0  0  0  0  0  0
  183.3600  180.4410  139.0540 C   0  0  0  0  0  2  0  0  0  0  0  0
  187.3430  175.8840  136.5970 C   0  0  1  0  0  3  0  0  0  0  0  0
  186.6900  174.7010  136.9960 O   0  0  0  0  0  0  0  0  0  0  0  0
  184.6040  175.9280  137.0100 C   0  0  0  0  0  0  0  0  0  0  0  0
  184.6290  178.2010  137.8710 C   0  0  0  0  0  3  0  0  0  0  0  0
  183.2020  175.9620  136.9890 C   0  0  0  0  0  3  0  0  0  0  0  0
  183.2270  178.2110  137.9030 C   0  0  0  0  0  0  0  0  0  0  0  0
  185.3170  177.0720  137.4180 C   0  0  0  0  0  0  0  0  0  0  0  0
  185.3850  174.7480  136.4580 C   0  0  2  0  0  3  0  0  0  0  0  0
  186.8170  177.0720  137.4130 C   0  0  0  0  0  2  0  0  0  0  0  0
  182.5190  177.0960  137.4360 C   0  0  0  0  0  3  0  0  0  0  0  0
  184.8920  172.7520  137.9430 N   0  0  0  0  0  1  0  0  0  0  0  0
  184.6990  173.4430  136.7120 C   0  0  0  0  0  0  0  0  0  0  0  0
  183.9360  172.9590  135.8350 O   0  0  0  0  0  0  0  0  0  0  0  0
  189.1840  174.4230  137.0990 O   0  0  0  0  0  1  0  0  0  0  0  0
  188.8490  175.7380  136.7630 C   0  0  0  0  0  2  0  0  0  0  0  0
  182.2720  177.3270  140.9700 C   0  0  0  0  0  2  0  0  0  0  0  0
  180.7750  177.5980  140.9400 C   0  0  0  0  0  1  0  0  0  0  0  0
  188.5840  178.0480  140.6990 C   0  0  0  0  0  2  0  0  0  0  0  0
  190.7440  177.5670  139.6160 C   0  0  1  0  0  3  0  0  0  0  0  0
  189.4200  176.9680  140.0470 C   0  0  1  0  0  3  0  0  0  0  0  0
  190.6660  176.7400  140.8800 C   0  0  0  0  0  2  0  0  0  0  0  0
  192.7050  176.6660  138.3080 C   0  0  0  0  0  0  0  0  0  0  0  0
  193.5220  177.2880  139.0450 O   0  0  0  0  0  0  0  0  0  0  0  0
  191.3000  176.7580  138.5420 N   0  0  0  0  0  2  0  0  0  0  0  0
  194.5120  176.4300  136.6020 C   0  0  0  0  0  2  0  0  0  0  0  0
  192.5460  174.7460  135.2420 C   0  0  1  0  0  3  0  0  0  0  0  0
  194.6820  176.0720  135.1210 C   0  0  2  0  0  3  0  0  0  0  0  0
  193.1990  175.8580  137.1550 C   0  0  2  0  0  3  0  0  0  0  0  0
  192.2140  175.7910  136.1470 O   0  0  0  0  0  0  0  0  0  0  0  0
  194.0260  174.7300  134.8110 C   0  0  0  0  0  2  0  0  0  0  0  0
  193.3390  172.5390  136.0960 C   0  0  0  0  0  1  0  0  0  0  0  0
  192.1200  173.3810  135.7750 C   0  0  0  0  0  2  0  0  0  0  0  0
  196.1550  176.0340  134.7470 C   0  0  0  0  0  2  0  0  0  0  0  0
  197.8920  172.8540  135.3220 O   0  0  0  0  0  0  0  0  0  0  0  0
  198.0840  174.7840  136.5480 O   0  0  0  0  0  1  0  0  0  0  0  0
  197.5450  174.0530  135.4920 C   0  0  0  0  0  0  0  0  0  0  0  0
  196.6040  174.6540  134.5940 N   0  0  0  0  0  2  0  0  0  0  0  0
  187.8920  177.5430  144.4830 C   0  0  2  0  0  3  0  0  0  0  0  0
  186.5520  177.6770  145.2080 C   0  0  0  0  0  2  0  0  0  0  0  0
  186.0500  178.8270  147.3140 C   0  0  0  0  0  2  0  0  0  0  0  0
  186.7210  177.8630  146.6830 C   0  0  0  0  0  0  0  0  0  0  0  0
  187.8490  177.1710  147.3740 C   0  0  0  0  0  2  0  0  0  0  0  0
  188.2640  177.9300  148.6190 C   0  0  0  0  0  1  0  0  0  0  0  0
  188.9000  178.5870  144.9530 C   0  0  0  0  0  2  0  0  0  0  0  0
  190.3030  178.0040  144.9600 C   0  0  0  0  0  2  0  0  0  0  0  0
  191.7440  176.4830  146.3190 C   0  0  0  0  0  1  0  0  0  0  0  0
  190.3430  176.7280  145.7820 C   0  0  0  0  0  2  0  0  0  0  0  0
  1  2  2  0  0  0  0
  2 49  1  0  0  0  0
  3  2  1  0  0  0  0
  4  5  1  0  0  0  0
  4  3  1  0  0  0  0
  5  6  1  0  0  0  0
  6  7  1  1  0  0  0
  8 27  1  1  0  0  0
  8  6  1  0  0  0  0
  9 17  1  1  0  0  0
  9 11  1  0  0  0  0
  9 10  1  0  0  0  0
 10  8  1  1  0  0  0
 11 10  1  0  0  0  0
 12 26  1  1  0  0  0
 12 13  1  0  0  0  0
 12 20  1  0  0  0  0
 14 18  1  0  0  0  0
 15 17  1  0  0  0  0
 16 14  2  0  0  0  0
 16 21  1  0  0  0  0
 18 15  2  0  0  0  0
 19 23  1  1  0  0  0
 19 13  1  0  0  0  0
 19 14  1  0  0  0  0
 20 18  1  0  0  0  0
 21 17  2  0  0  0  0
 23 22  1  0  0  0  0
 24 23  2  0  0  0  0
 26 25  1  0  0  0  0
 28 27  1  0  0  0  0
 29  1  1  0  0  0  0
 30 35  1  6  0  0  0
 30 31  1  0  0  0  0
 30 32  1  0  0  0  0
 31 29  1  1  0  0  0
 31 32  1  0  0  0  0
 33 35  1  0  0  0  0
 33 34  2  0  0  0  0
 36 39  1  0  0  0  0
 37 43  1  1  0  0  0
 37 40  1  0  0  0  0
 38 44  1  1  0  0  0
 38 36  1  0  0  0  0
 39 33  1  1  0  0  0
 40 39  1  0  0  0  0
 41 38  1  0  0  0  0
 41 37  1  0  0  0  0
 43 42  1  0  0  0  0
 45 47  2  0  0  0  0
 47 46  1  0  0  0  0
 48 44  1  0  0  0  0
 48 47  1  0  0  0  0
 49 55  1  1  0  0  0
 49 50  1  0  0  0  0
 50 52  1  0  0  0  0
 52 51  2  0  0  0  0
 52 53  1  0  0  0  0
 53 54  1  0  0  0  0
 55 56  1  0  0  0  0
 56 58  1  0  0  0  0
 58 57  1  0  0  0  0
M  END
>  <MODEL>
7

>  <REMARK>
 VINA RESULT:      -5.4      1.743      3.409
  Name = 
  24 active torsions:
  status: ('A' for Active; 'I' for Inactive)
    1  A    between atoms: C_1  and  C_39
    2  A    between atoms: C_2  and  C_37
    3  A    between atoms: C_2  and  N_56
    4  A    between atoms: C_3  and  C_38
    5  A    between atoms: C_3  and  C_47
    6  A    between atoms: C_4  and  C_33
    7  A    between atoms: C_5  and  C_48
    8  A    between atoms: C_7  and  C_41
    9  A    between atoms: C_12  and  C_55
   10  A    between atoms: C_13  and  C_38
   11  A    between atoms: C_15  and  C_26
   12  A    between atoms: C_15  and  C_28
   13  A    between atoms: C_15  and  C_54
   14  A    between atoms: C_16  and  C_49
   15  A    between atoms: C_17  and  C_28
   16  A    between atoms: C_17  and  C_32
   17  A    between atoms: C_18  and  C_46
   18  A    between atoms: C_19  and  C_38
   19  A    between atoms: C_21  and  N_52
   20  A    between atoms: C_26  and  C_30
   21  A    between atoms: C_30  and  C_44
   22  A    between atoms: C_31  and  C_55
   23  A    between atoms: C_32  and  C_47
   24  A    between atoms: C_33  and  C_54
                            x       y       z     vdW  Elec       q    Type
                         _______ _______ _______ _____ _____    ______ ____

>  <TORSDO>
F 24

$$$$
=
 OpenBabel11042412473D

 58 62  0  0  1  0  0  0  0  0999 V2000
  183.9570  179.3000  139.9500 C   0  0  0  0  0  3  0  0  0  0  0  0
  182.8730  178.5910  140.3160 C   0  0  0  0  0  0  0  0  0  0  0  0
  182.8980  177.0890  140.4190 C   0  0  0  0  0  2  0  0  0  0  0  0
  182.8150  176.4400  139.0410 C   0  0  0  0  0  2  0  0  0  0  0  0
  181.5460  176.8780  138.3250 C   0  0  0  0  0  2  0  0  0  0  0  0
  180.5490  175.7300  138.2510 C   0  0  2  0  0  3  0  0  0  0  0  0
  180.4220  175.0330  139.6010 C   0  0  0  0  0  1  0  0  0  0  0  0
  180.9090  174.7590  137.1150 C   0  0  2  0  0  3  0  0  0  0  0  0
  181.2160  175.3820  134.6060 C   0  0  1  0  0  3  0  0  0  0  0  0
  180.2470  175.1240  135.7760 C   0  0  2  0  0  3  0  0  0  0  0  0
  180.6090  176.5420  135.3790 C   0  0  0  0  0  2  0  0  0  0  0  0
  186.6880  172.4130  135.4540 C   0  0  1  0  0  3  0  0  0  0  0  0
  187.4220  173.5930  135.2220 O   0  0  0  0  0  0  0  0  0  0  0  0
  185.3900  174.8570  135.5870 C   0  0  0  0  0  0  0  0  0  0  0  0
  183.3190  173.9650  134.6800 C   0  0  0  0  0  3  0  0  0  0  0  0
  184.7320  176.0600  135.8830 C   0  0  0  0  0  3  0  0  0  0  0  0
  182.6780  175.1890  134.9250 C   0  0  0  0  0  0  0  0  0  0  0  0
  184.6640  173.7930  135.0180 C   0  0  0  0  0  0  0  0  0  0  0  0
  186.8290  174.6090  136.0050 C   0  0  2  0  0  3  0  0  0  0  0  0
  185.3390  172.4850  134.7270 C   0  0  0  0  0  2  0  0  0  0  0  0
  183.3840  176.2240  135.5510 C   0  0  0  0  0  3  0  0  0  0  0  0
  188.2960  176.3690  137.0910 N   0  0  0  0  0  1  0  0  0  0  0  0
  187.6670  175.8460  135.9250 C   0  0  0  0  0  0  0  0  0  0  0  0
  187.8250  176.4200  134.8160 O   0  0  0  0  0  0  0  0  0  0  0  0
  188.8500  171.3900  135.2240 O   0  0  0  0  0  1  0  0  0  0  0  0
  187.4840  171.1980  134.9990 C   0  0  0  0  0  2  0  0  0  0  0  0
  180.7420  173.2710  137.4630 C   0  0  0  0  0  2  0  0  0  0  0  0
  179.4010  172.7030  137.0240 C   0  0  0  0  0  1  0  0  0  0  0  0
  185.2810  178.6740  139.6460 C   0  0  0  0  0  2  0  0  0  0  0  0
  187.1910  177.6870  140.8510 C   0  0  1  0  0  3  0  0  0  0  0  0
  186.2010  178.8360  140.8370 C   0  0  1  0  0  3  0  0  0  0  0  0
  187.6180  179.0460  140.3390 C   0  0  0  0  0  2  0  0  0  0  0  0
  189.0730  177.3670  142.5010 C   0  0  0  0  0  0  0  0  0  0  0  0
  189.9320  177.4090  141.5760 O   0  0  0  0  0  0  0  0  0  0  0  0
  187.6830  177.5060  142.2070 N   0  0  0  0  0  2  0  0  0  0  0  0
  188.4470  177.6520  144.9000 C   0  0  0  0  0  2  0  0  0  0  0  0
  191.3010  177.1980  145.3510 C   0  0  1  0  0  3  0  0  0  0  0  0
  189.0930  178.0180  146.2410 C   0  0  2  0  0  3  0  0  0  0  0  0
  189.4990  177.1320  143.9110 C   0  0  2  0  0  3  0  0  0  0  0  0
  190.7550  177.7280  144.1500 O   0  0  0  0  0  0  0  0  0  0  0  0
  190.2990  177.1260  146.5210 C   0  0  0  0  0  2  0  0  0  0  0  0
  192.3310  175.2060  146.4450 C   0  0  0  0  0  1  0  0  0  0  0  0
  191.9670  175.8450  145.1200 C   0  0  0  0  0  2  0  0  0  0  0  0
  188.0830  177.9010  147.3700 C   0  0  0  0  0  2  0  0  0  0  0  0
  184.5960  178.7190  146.5740 O   0  0  0  0  0  0  0  0  0  0  0  0
  186.0560  179.9480  147.8480 O   0  0  0  0  0  1  0  0  0  0  0  0
  185.7480  178.8350  147.0690 C   0  0  0  0  0  0  0  0  0  0  0  0
  186.7290  177.8160  146.8330 N   0  0  0  0  0  2  0  0  0  0  0  0
  181.5740  179.2860  140.6140 C   0  0  2  0  0  3  0  0  0  0  0  0
  180.6760  178.3840  141.4630 C   0  0  0  0  0  2  0  0  0  0  0  0
  181.0780  178.3560  143.8820 C   0  0  0  0  0  2  0  0  0  0  0  0
  180.4690  178.9270  142.8430 C   0  0  0  0  0  0  0  0  0  0  0  0
  179.3630  179.9030  143.0750 C   0  0  0  0  0  2  0  0  0  0  0  0
  178.9440  179.9030  144.5330 C   0  0  0  0  0  1  0  0  0  0  0  0
  180.8860  179.7230  139.3250 C   0  0  0  0  0  2  0  0  0  0  0  0
  179.9330  180.8740  139.5960 C   0  0  0  0  0  2  0  0  0  0  0  0
  180.5210  181.2980  137.2060 C   0  0  0  0  0  1  0  0  0  0  0  0
  180.0480  181.9260  138.5070 C   0  0  0  0  0  2  0  0  0  0  0  0
  1  2  2  0  0  0  0
  2  3  1  0  0  0  0
  2 49  1  0  0  0  0
  4  3  1  0  0  0  0
  5  4  1  0  0  0  0
  6  5  1  0  0  0  0
  6  7  1  1  0  0  0
  8 27  1  1  0  0  0
  8  6  1  0  0  0  0
  9 17  1  1  0  0  0
  9 11  1  0  0  0  0
  9 10  1  0  0  0  0
 10  8  1  1  0  0  0
 11 10  1  0  0  0  0
 12 26  1  6  0  0  0
 13 12  1  0  0  0  0
 13 19  1  0  0  0  0
 14 16  1  0  0  0  0
 14 19  1  0  0  0  0
 15 17  2  0  0  0  0
 15 18  1  0  0  0  0
 17 21  1  0  0  0  0
 18 14  2  0  0  0  0
 19 23  1  6  0  0  0
 20 18  1  0  0  0  0
 20 12  1  0  0  0  0
 21 16  2  0  0  0  0
 23 22  1  0  0  0  0
 24 23  2  0  0  0  0
 26 25  1  0  0  0  0
 28 27  1  0  0  0  0
 29  1  1  0  0  0  0
 30 35  1  1  0  0  0
 31 29  1  6  0  0  0
 31 30  1  0  0  0  0
 32 31  1  0  0  0  0
 32 30  1  0  0  0  0
 34 33  2  0  0  0  0
 35 33  1  0  0  0  0
 36 38  1  0  0  0  0
 37 43  1  6  0  0  0
 37 41  1  0  0  0  0
 38 41  1  0  0  0  0
 38 44  1  1  0  0  0
 39 33  1  6  0  0  0
 39 40  1  0  0  0  0
 39 36  1  0  0  0  0
 40 37  1  0  0  0  0
 43 42  1  0  0  0  0
 45 47  2  0  0  0  0
 47 46  1  0  0  0  0
 48 47  1  0  0  0  0
 48 44  1  0  0  0  0
 49 55  1  6  0  0  0
 49 50  1  0  0  0  0
 50 52  1  0  0  0  0
 52 53  1  0  0  0  0
 52 51  2  0  0  0  0
 53 54  1  0  0  0  0
 55 56  1  0  0  0  0
 57 58  1  0  0  0  0
 58 56  1  0  0  0  0
M  END
>  <MODEL>
8

>  <REMARK>
 VINA RESULT:      -5.4      3.945      8.057
  Name = 
  24 active torsions:
  status: ('A' for Active; 'I' for Inactive)
    1  A    between atoms: C_1  and  C_39
    2  A    between atoms: C_2  and  C_37
    3  A    between atoms: C_2  and  N_56
    4  A    between atoms: C_3  and  C_38
    5  A    between atoms: C_3  and  C_47
    6  A    between atoms: C_4  and  C_33
    7  A    between atoms: C_5  and  C_48
    8  A    between atoms: C_7  and  C_41
    9  A    between atoms: C_12  and  C_55
   10  A    between atoms: C_13  and  C_38
   11  A    between atoms: C_15  and  C_26
   12  A    between atoms: C_15  and  C_28
   13  A    between atoms: C_15  and  C_54
   14  A    between atoms: C_16  and  C_49
   15  A    between atoms: C_17  and  C_28
   16  A    between atoms: C_17  and  C_32
   17  A    between atoms: C_18  and  C_46
   18  A    between atoms: C_19  and  C_38
   19  A    between atoms: C_21  and  N_52
   20  A    between atoms: C_26  and  C_30
   21  A    between atoms: C_30  and  C_44
   22  A    between atoms: C_31  and  C_55
   23  A    between atoms: C_32  and  C_47
   24  A    between atoms: C_33  and  C_54
                            x       y       z     vdW  Elec       q    Type
                         _______ _______ _______ _____ _____    ______ ____

>  <TORSDO>
F 24

$$$$
=
 OpenBabel11042412473D

 58 62  0  0  1  0  0  0  0  0999 V2000
  189.1140  176.8140  142.3760 C   0  0  0  0  0  3  0  0  0  0  0  0
  188.3490  177.4990  143.2470 C   0  0  0  0  0  0  0  0  0  0  0  0
  187.5110  178.6750  142.8210 C   0  0  0  0  0  2  0  0  0  0  0  0
  186.1280  178.2290  142.3580 C   0  0  0  0  0  2  0  0  0  0  0  0
  185.6000  179.1690  141.2850 C   0  0  0  0  0  2  0  0  0  0  0  0
  184.2150  178.7350  140.8260 C   0  0  2  0  0  3  0  0  0  0  0  0
  183.8400  177.3870  141.4310 C   0  0  0  0  0  1  0  0  0  0  0  0
  184.1150  178.7440  139.2920 C   0  0  2  0  0  3  0  0  0  0  0  0
  185.7890  178.1620  137.3860 C   0  0  1  0  0  3  0  0  0  0  0  0
  185.4550  179.0470  138.6010 C   0  0  2  0  0  3  0  0  0  0  0  0
  186.4010  177.8710  138.7470 C   0  0  0  0  0  2  0  0  0  0  0  0
  183.1190  172.5650  136.3790 C   0  0  1  0  0  3  0  0  0  0  0  0
  181.8250  173.0930  136.5550 O   0  0  0  0  0  0  0  0  0  0  0  0
  182.7530  175.3070  136.2470 C   0  0  0  0  0  0  0  0  0  0  0  0
  184.9120  175.7850  137.2560 C   0  0  0  0  0  3  0  0  0  0  0  0
  182.5990  176.6700  135.9530 C   0  0  0  0  0  3  0  0  0  0  0  0
  184.7300  177.1540  137.0120 C   0  0  0  0  0  0  0  0  0  0  0  0
  183.9370  174.8620  136.8680 C   0  0  0  0  0  0  0  0  0  0  0  0
  181.7490  174.2690  135.7770 C   0  0  2  0  0  3  0  0  0  0  0  0
  184.1390  173.4040  137.1580 C   0  0  0  0  0  2  0  0  0  0  0  0
  183.5810  177.5870  136.3370 C   0  0  0  0  0  3  0  0  0  0  0  0
  179.6050  174.8180  137.0150 N   0  0  0  0  0  1  0  0  0  0  0  0
  180.3440  174.7850  135.7970 C   0  0  0  0  0  0  0  0  0  0  0  0
  179.8190  175.2020  134.7320 O   0  0  0  0  0  0  0  0  0  0  0  0
  184.1270  170.4000  136.1070 O   0  0  0  0  0  1  0  0  0  0  0  0
  183.1610  171.1100  136.8260 C   0  0  0  0  0  2  0  0  0  0  0  0
  182.9620  179.5900  138.7280 C   0  0  0  0  0  2  0  0  0  0  0  0
  181.8150  179.7650  139.7120 C   0  0  0  0  0  1  0  0  0  0  0  0
  189.1770  177.1310  140.9160 C   0  0  0  0  0  2  0  0  0  0  0  0
  190.2640  176.4650  138.8070 C   0  0  1  0  0  3  0  0  0  0  0  0
  190.4150  176.5020  140.3150 C   0  0  1  0  0  3  0  0  0  0  0  0
  191.1220  177.5300  139.4530 C   0  0  0  0  0  2  0  0  0  0  0  0
  191.1180  175.0640  136.8900 C   0  0  0  0  0  0  0  0  0  0  0  0
  190.3710  175.6720  136.0720 O   0  0  0  0  0  0  0  0  0  0  0  0
  191.1170  175.4150  138.2740 N   0  0  0  0  0  2  0  0  0  0  0  0
  193.3930  174.0450  137.0190 C   0  0  0  0  0  2  0  0  0  0  0  0
  192.5410  172.6520  134.5940 C   0  0  1  0  0  3  0  0  0  0  0  0
  194.4200  173.3600  136.1110 C   0  0  2  0  0  3  0  0  0  0  0  0
  191.9820  173.9400  136.4250 C   0  0  2  0  0  3  0  0  0  0  0  0
  192.0290  173.9100  135.0150 O   0  0  0  0  0  0  0  0  0  0  0  0
  193.7880  172.1850  135.3710 C   0  0  0  0  0  2  0  0  0  0  0  0
  192.0950  170.1960  134.5940 C   0  0  0  0  0  1  0  0  0  0  0  0
  191.4610  171.5730  134.5990 C   0  0  0  0  0  2  0  0  0  0  0  0
  195.6160  172.8860  136.9210 C   0  0  0  0  0  2  0  0  0  0  0  0
  198.5170  175.0430  137.5420 O   0  0  0  0  0  0  0  0  0  0  0  0
  197.2050  173.9950  139.1050 O   0  0  0  0  0  1  0  0  0  0  0  0
  197.5340  174.2950  137.7850 C   0  0  0  0  0  0  0  0  0  0  0  0
  196.7580  173.7660  136.7020 N   0  0  0  0  0  2  0  0  0  0  0  0
  188.3280  177.1210  144.7010 C   0  0  2  0  0  3  0  0  0  0  0  0
  186.8910  177.1260  145.2260 C   0  0  0  0  0  2  0  0  0  0  0  0
  187.1630  178.5050  147.2350 C   0  0  0  0  0  2  0  0  0  0  0  0
  186.5890  178.3440  146.0430 C   0  0  0  0  0  0  0  0  0  0  0  0
  185.4350  179.2080  145.6520 C   0  0  0  0  0  2  0  0  0  0  0  0
  184.3580  178.3870  144.9690 C   0  0  0  0  0  1  0  0  0  0  0  0
  189.2330  178.0430  145.5130 C   0  0  0  0  0  2  0  0  0  0  0  0
  190.5150  177.3230  145.8970 C   0  0  0  0  0  2  0  0  0  0  0  0
  191.6000  175.8200  147.5700 C   0  0  0  0  0  1  0  0  0  0  0  0
  190.3270  176.5630  147.1980 C   0  0  0  0  0  2  0  0  0  0  0  0
  1  2  2  0  0  0  0
  2 49  1  0  0  0  0
  3  2  1  0  0  0  0
  4  3  1  0  0  0  0
  5  4  1  0  0  0  0
  6  5  1  0  0  0  0
  6  7  1  6  0  0  0
  8 27  1  1  0  0  0
  8  6  1  0  0  0  0
  9 17  1  1  0  0  0
  9 10  1  0  0  0  0
  9 11  1  0  0  0  0
 10 11  1  0  0  0  0
 10  8  1  1  0  0  0
 12 13  1  0  0  0  0
 12 26  1  1  0  0  0
 12 20  1  0  0  0  0
 14 18  1  0  0  0  0
 16 14  2  0  0  0  0
 16 21  1  0  0  0  0
 17 15  1  0  0  0  0
 18 20  1  0  0  0  0
 18 15  2  0  0  0  0
 19 23  1  1  0  0  0
 19 14  1  0  0  0  0
 19 13  1  0  0  0  0
 21 17  2  0  0  0  0
 23 22  1  0  0  0  0
 24 23  2  0  0  0  0
 25 26  1  0  0  0  0
 27 28  1  0  0  0  0
 29  1  1  0  0  0  0
 30 35  1  6  0  0  0
 30 32  1  0  0  0  0
 30 31  1  0  0  0  0
 31 29  1  1  0  0  0
 32 31  1  0  0  0  0
 33 35  1  0  0  0  0
 34 33  2  0  0  0  0
 37 43  1  1  0  0  0
 37 40  1  0  0  0  0
 37 41  1  0  0  0  0
 38 44  1  1  0  0  0
 38 36  1  0  0  0  0
 39 33  1  6  0  0  0
 39 36  1  0  0  0  0
 40 39  1  0  0  0  0
 41 38  1  0  0  0  0
 42 43  1  0  0  0  0
 45 47  2  0  0  0  0
 47 46  1  0  0  0  0
 48 44  1  0  0  0  0
 48 47  1  0  0  0  0
 49 50  1  1  0  0  0
 49 55  1  0  0  0  0
 50 52  1  0  0  0  0
 52 51  2  0  0  0  0
 53 52  1  0  0  0  0
 54 53  1  0  0  0  0
 55 56  1  0  0  0  0
 56 58  1  0  0  0  0
 58 57  1  0  0  0  0
M  END
>  <MODEL>
9

>  <REMARK>
 VINA RESULT:      -5.3      1.719      3.134
  Name = 
  24 active torsions:
  status: ('A' for Active; 'I' for Inactive)
    1  A    between atoms: C_1  and  C_39
    2  A    between atoms: C_2  and  C_37
    3  A    between atoms: C_2  and  N_56
    4  A    between atoms: C_3  and  C_38
    5  A    between atoms: C_3  and  C_47
    6  A    between atoms: C_4  and  C_33
    7  A    between atoms: C_5  and  C_48
    8  A    between atoms: C_7  and  C_41
    9  A    between atoms: C_12  and  C_55
   10  A    between atoms: C_13  and  C_38
   11  A    between atoms: C_15  and  C_26
   12  A    between atoms: C_15  and  C_28
   13  A    between atoms: C_15  and  C_54
   14  A    between atoms: C_16  and  C_49
   15  A    between atoms: C_17  and  C_28
   16  A    between atoms: C_17  and  C_32
   17  A    between atoms: C_18  and  C_46
   18  A    between atoms: C_19  and  C_38
   19  A    between atoms: C_21  and  N_52
   20  A    between atoms: C_26  and  C_30
   21  A    between atoms: C_30  and  C_44
   22  A    between atoms: C_31  and  C_55
   23  A    between atoms: C_32  and  C_47
   24  A    between atoms: C_33  and  C_54
                            x       y       z     vdW  Elec       q    Type
                         _______ _______ _______ _____ _____    ______ ____

>  <TORSDO>
F 24

$$$$
