=
 OpenBabel11032421023D

 46 48  0  0  1  0  0  0  0  0999 V2000
  190.5720  176.1450  147.2120 O   0  0  0  0  0  1  0  0  0  0  0  0
  190.6510  176.9920  144.9130 C   0  0  0  0  0  3  0  0  0  0  0  0
  188.8090  176.0510  143.5520 C   0  0  0  0  0  2  0  0  0  0  0  0
  187.1300  177.3880  144.5240 C   0  0  2  0  0  3  0  0  0  0  0  0
  188.7190  177.3690  146.4330 C   0  0  0  0  0  0  0  0  0  0  0  0
  188.0020  178.2340  145.4450 C   0  0  0  0  0  2  0  0  0  0  0  0
  190.1700  176.6670  143.7090 C   0  0  0  0  0  0  0  0  0  0  0  0
  189.9300  176.8420  146.1950 C   0  0  0  0  0  0  0  0  0  0  0  0
  188.0950  177.1210  147.6500 O   0  0  0  0  0  1  0  0  0  0  0  0
  187.8320  177.0940  143.2790 N   0  0  0  0  0  2  0  0  0  0  0  0
  185.3800  179.8750  145.7270 O   0  0  0  0  0  1  0  0  0  0  0  0
  183.1240  178.7710  143.7660 C   0  0  0  0  0  0  0  0  0  0  0  0
  185.8360  178.0880  144.2310 C   0  0  0  0  0  0  0  0  0  0  0  0
  184.1370  179.0120  142.6770 C   0  0  0  0  0  2  0  0  0  0  0  0
  183.5280  178.5660  145.0330 C   0  0  0  0  0  3  0  0  0  0  0  0
  185.4240  178.2830  142.9640 C   0  0  0  0  0  3  0  0  0  0  0  0
  184.9950  178.5790  145.3860 C   0  0  2  0  0  3  0  0  0  0  0  0
  180.9070  178.5130  144.5450 F   0  0  0  0  0  0  0  0  0  0  0  0
  181.6670  178.8050  143.4260 C   0  0  1  0  0  3  0  0  0  0  0  0
  181.3140  180.0700  142.9280 O   0  0  0  0  0  0  0  0  0  0  0  0
  179.9460  178.6650  141.7220 F   0  0  0  0  0  0  0  0  0  0  0  0
  180.0840  180.8420  141.1880 F   0  0  0  0  0  0  0  0  0  0  0  0
  180.0910  179.9440  142.2390 C   0  0  0  0  0  0  0  0  0  0  0  0
  179.0210  180.2390  143.0730 F   0  0  0  0  0  0  0  0  0  0  0  0
  190.9710  176.9140  142.5890 O   0  0  0  0  0  0  0  0  0  0  0  0
  190.4680  177.5150  141.3990 C   0  0  0  0  0  2  0  0  0  0  0  0
  190.8170  176.6990  140.1560 C   0  0  1  0  0  3  0  0  0  0  0  0
  189.2120  178.7930  138.8660 O   0  0  0  0  0  0  0  0  0  0  0  0
  187.7260  177.2550  137.9320 N   0  0  0  0  0  2  0  0  0  0  0  0
  189.6590  176.5270  139.2770 N   0  0  0  0  0  2  0  0  0  0  0  0
  188.8790  177.5860  138.7040 C   0  0  0  0  0  0  0  0  0  0  0  0
  186.8450  178.2750  137.3840 C   0  0  0  0  0  2  0  0  0  0  0  0
  182.9280  176.9380  139.0670 C   0  0  0  0  0  0  0  0  0  0  0  0
  183.1990  178.3210  138.5480 C   0  0  2  0  0  3  0  0  0  0  0  0
  183.2440  175.8580  138.3500 C   0  0  0  0  0  3  0  0  0  0  0  0
  184.9090  176.7510  136.6660 C   0  0  0  0  0  0  0  0  0  0  0  0
  184.6620  178.5490  138.3730 C   0  0  0  0  0  3  0  0  0  0  0  0
  183.9670  175.8710  137.0640 C   0  0  0  0  0  3  0  0  0  0  0  0
  182.3010  176.7560  140.2960 O   0  0  0  0  0  1  0  0  0  0  0  0
  185.4230  177.8470  137.5310 C   0  0  0  0  0  0  0  0  0  0  0  0
  182.6240  179.3940  139.4550 C   0  0  0  0  0  1  0  0  0  0  0  0
  186.1830  175.4350  134.9820 C   0  0  0  0  0  1  0  0  0  0  0  0
  185.4970  176.6090  135.4010 O   0  0  0  0  0  0  0  0  0  0  0  0
  192.0360  177.2420  139.4150 C   0  0  0  0  0  2  0  0  0  0  0  0
  192.3960  176.3560  138.2340 C   0  0  0  0  0  2  0  0  0  0  0  0
  193.6430  175.7920  138.4270 F   0  0  0  0  0  0  0  0  0  0  0  0
  2  8  1  0  0  0  0
  3  7  1  0  0  0  0
  4 13  1  6  0  0  0
  4  6  1  0  0  0  0
  5  9  1  0  0  0  0
  6  5  1  0  0  0  0
  7  2  2  0  0  0  0
  8  5  2  0  0  0  0
  8  1  1  0  0  0  0
 10  3  1  0  0  0  0
 10  4  1  0  0  0  0
 12 15  2  0  0  0  0
 13 17  1  0  0  0  0
 14 16  1  0  0  0  0
 14 12  1  0  0  0  0
 15 17  1  0  0  0  0
 16 13  2  0  0  0  0
 17 11  1  6  0  0  0
 19 12  1  0  0  0  0
 19 18  1  1  0  0  0
 20 19  1  0  0  0  0
 21 23  1  0  0  0  0
 22 23  1  0  0  0  0
 23 20  1  0  0  0  0
 23 24  1  0  0  0  0
 25  7  1  0  0  0  0
 26 25  1  0  0  0  0
 27 44  1  6  0  0  0
 27 26  1  0  0  0  0
 29 31  1  0  0  0  0
 30 27  1  0  0  0  0
 31 28  2  0  0  0  0
 31 30  1  0  0  0  0
 32 40  1  0  0  0  0
 32 29  1  0  0  0  0
 33 39  1  0  0  0  0
 34 33  1  0  0  0  0
 34 41  1  1  0  0  0
 35 33  2  0  0  0  0
 36 38  2  0  0  0  0
 36 40  1  0  0  0  0
 37 34  1  0  0  0  0
 38 35  1  0  0  0  0
 40 37  2  0  0  0  0
 42 43  1  0  0  0  0
 43 36  1  0  0  0  0
 45 46  1  0  0  0  0
 45 44  1  0  0  0  0
M  END
>  <MODEL>
1

>  <REMARK>
 VINA RESULT:      -8.4      0.000      0.000
  Name = 
  13 active torsions:
  status: ('A' for Active; 'I' for Inactive)
    1  A    between atoms: C_2  and  C_5
    2  A    between atoms: C_2  and  C_8
    3  A    between atoms: C_5  and  N_31
    4  A    between atoms: C_5  and  C_37
    5  A    between atoms: C_6  and  C_17
    6  A    between atoms: O_11  and  C_28
    7  A    between atoms: C_16  and  C_45
    8  A    between atoms: C_18  and  O_43
    9  A    between atoms: O_21  and  C_36
   10  A    between atoms: O_21  and  C_37
   11  A    between atoms: C_25  and  N_27
   12  A    between atoms: C_25  and  C_40
   13  A    between atoms: O_43  and  C_45
                            x       y       z     vdW  Elec       q    Type
                         _______ _______ _______ _____ _____    ______ ____

>  <TORSDO>
F 13

$$$$
=
 OpenBabel11032421023D

 46 48  0  0  1  0  0  0  0  0999 V2000
  188.7050  176.9810  147.6010 O   0  0  0  0  0  1  0  0  0  0  0  0
  189.2960  177.5510  145.2910 C   0  0  0  0  0  3  0  0  0  0  0  0
  187.8520  176.3480  143.6780 C   0  0  0  0  0  2  0  0  0  0  0  0
  185.9540  177.6910  144.0590 C   0  0  2  0  0  3  0  0  0  0  0  0
  187.0510  177.9920  146.2660 C   0  0  0  0  0  0  0  0  0  0  0  0
  186.5620  178.6900  145.0370 C   0  0  0  0  0  2  0  0  0  0  0  0
  189.1200  177.0560  144.0620 C   0  0  0  0  0  0  0  0  0  0  0  0
  188.2990  177.5120  146.3830 C   0  0  0  0  0  0  0  0  0  0  0  0
  186.1670  177.8560  147.3310 O   0  0  0  0  0  1  0  0  0  0  0  0
  186.9360  177.2920  143.0570 N   0  0  0  0  0  2  0  0  0  0  0  0
  184.0650  180.3480  144.3280 O   0  0  0  0  0  1  0  0  0  0  0  0
  182.1700  178.7680  142.3100 C   0  0  0  0  0  0  0  0  0  0  0  0
  184.7450  178.2750  143.3890 C   0  0  0  0  0  0  0  0  0  0  0  0
  183.3640  178.7750  141.3900 C   0  0  0  0  0  2  0  0  0  0  0  0
  182.3410  178.8710  143.6410 C   0  0  0  0  0  3  0  0  0  0  0  0
  184.5670  178.1620  142.0590 C   0  0  0  0  0  3  0  0  0  0  0  0
  183.7230  178.9990  144.2340 C   0  0  2  0  0  3  0  0  0  0  0  0
  180.1560  179.9100  141.8360 F   0  0  0  0  0  0  0  0  0  0  0  0
  180.7970  178.6890  141.7210 C   0  0  1  0  0  3  0  0  0  0  0  0
  180.8700  178.3170  140.3680 O   0  0  0  0  0  0  0  0  0  0  0  0
  181.5080  176.1120  140.1820 F   0  0  0  0  0  0  0  0  0  0  0  0
  179.6900  176.8600  139.0950 F   0  0  0  0  0  0  0  0  0  0  0  0
  180.4300  176.9830  140.2570 C   0  0  0  0  0  0  0  0  0  0  0  0
  179.6200  176.6380  141.3290 F   0  0  0  0  0  0  0  0  0  0  0  0
  190.1530  177.2140  143.1320 O   0  0  0  0  0  0  0  0  0  0  0  0
  190.4800  176.2210  142.1650 C   0  0  0  0  0  2  0  0  0  0  0  0
  190.7480  176.8290  140.7900 C   0  0  1  0  0  3  0  0  0  0  0  0
  189.8480  176.9950  137.9990 O   0  0  0  0  0  0  0  0  0  0  0  0
  188.0650  178.4050  138.5250 N   0  0  0  0  0  2  0  0  0  0  0  0
  189.5720  177.5270  140.2670 N   0  0  0  0  0  2  0  0  0  0  0  0
  189.1970  177.6150  138.8850 C   0  0  0  0  0  0  0  0  0  0  0  0
  187.6700  178.6020  137.1390 C   0  0  0  0  0  2  0  0  0  0  0  0
  184.4880  175.4690  137.2820 C   0  0  0  0  0  0  0  0  0  0  0  0
  184.2500  176.9010  136.8940 C   0  0  2  0  0  3  0  0  0  0  0  0
  185.4750  174.7600  136.7320 C   0  0  0  0  0  3  0  0  0  0  0  0
  186.9960  176.5400  135.7680 C   0  0  0  0  0  0  0  0  0  0  0  0
  185.4150  177.7550  137.2640 C   0  0  0  0  0  3  0  0  0  0  0  0
  186.4870  175.2910  135.7980 C   0  0  0  0  0  3  0  0  0  0  0  0
  183.6510  174.8390  138.1990 O   0  0  0  0  0  1  0  0  0  0  0  0
  186.6400  177.5920  136.7590 C   0  0  0  0  0  0  0  0  0  0  0  0
  182.9890  177.4620  137.5270 C   0  0  0  0  0  1  0  0  0  0  0  0
  189.1630  176.1390  134.6150 C   0  0  0  0  0  1  0  0  0  0  0  0
  187.9580  176.8710  134.8040 O   0  0  0  0  0  0  0  0  0  0  0  0
  192.0020  177.6970  140.7610 C   0  0  0  0  0  2  0  0  0  0  0  0
  192.9700  177.2220  139.6900 C   0  0  0  0  0  2  0  0  0  0  0  0
  194.1700  176.8500  140.2670 F   0  0  0  0  0  0  0  0  0  0  0  0
  2  8  1  0  0  0  0
  3  7  1  0  0  0  0
  4 13  1  6  0  0  0
  4  6  1  0  0  0  0
  5  8  2  0  0  0  0
  5  9  1  0  0  0  0
  6  5  1  0  0  0  0
  7  2  2  0  0  0  0
  8  1  1  0  0  0  0
 10  3  1  0  0  0  0
 10  4  1  0  0  0  0
 12 15  2  0  0  0  0
 13 17  1  0  0  0  0
 14 16  1  0  0  0  0
 14 12  1  0  0  0  0
 15 17  1  0  0  0  0
 16 13  2  0  0  0  0
 17 11  1  6  0  0  0
 19 18  1  6  0  0  0
 19 12  1  0  0  0  0
 20 19  1  0  0  0  0
 21 23  1  0  0  0  0
 22 23  1  0  0  0  0
 23 20  1  0  0  0  0
 23 24  1  0  0  0  0
 25  7  1  0  0  0  0
 26 25  1  0  0  0  0
 27 44  1  1  0  0  0
 27 26  1  0  0  0  0
 28 31  2  0  0  0  0
 29 31  1  0  0  0  0
 30 27  1  0  0  0  0
 31 30  1  0  0  0  0
 32 29  1  0  0  0  0
 33 39  1  0  0  0  0
 34 37  1  0  0  0  0
 34 33  1  0  0  0  0
 34 41  1  1  0  0  0
 35 33  2  0  0  0  0
 36 38  2  0  0  0  0
 36 40  1  0  0  0  0
 38 35  1  0  0  0  0
 40 32  1  0  0  0  0
 40 37  2  0  0  0  0
 42 43  1  0  0  0  0
 43 36  1  0  0  0  0
 45 46  1  0  0  0  0
 45 44  1  0  0  0  0
M  END
>  <MODEL>
2

>  <REMARK>
 VINA RESULT:      -8.2      1.635      2.213
  Name = 
  13 active torsions:
  status: ('A' for Active; 'I' for Inactive)
    1  A    between atoms: C_2  and  C_5
    2  A    between atoms: C_2  and  C_8
    3  A    between atoms: C_5  and  N_31
    4  A    between atoms: C_5  and  C_37
    5  A    between atoms: C_6  and  C_17
    6  A    between atoms: O_11  and  C_28
    7  A    between atoms: C_16  and  C_45
    8  A    between atoms: C_18  and  O_43
    9  A    between atoms: O_21  and  C_36
   10  A    between atoms: O_21  and  C_37
   11  A    between atoms: C_25  and  N_27
   12  A    between atoms: C_25  and  C_40
   13  A    between atoms: O_43  and  C_45
                            x       y       z     vdW  Elec       q    Type
                         _______ _______ _______ _____ _____    ______ ____

>  <TORSDO>
F 13

$$$$
=
 OpenBabel11032421023D

 46 48  0  0  1  0  0  0  0  0999 V2000
  187.6730  177.9640  146.5470 O   0  0  0  0  0  1  0  0  0  0  0  0
  186.0930  177.5590  144.7170 C   0  0  0  0  0  3  0  0  0  0  0  0
  186.5330  179.0730  142.8070 C   0  0  0  0  0  2  0  0  0  0  0  0
  188.4580  177.9280  142.0740 C   0  0  2  0  0  3  0  0  0  0  0  0
  188.5530  177.2860  144.4720 C   0  0  0  0  0  0  0  0  0  0  0  0
  188.4420  176.7740  143.0710 C   0  0  0  0  0  2  0  0  0  0  0  0
  185.6390  178.1890  143.6290 C   0  0  0  0  0  0  0  0  0  0  0  0
  187.4840  177.6050  145.2180 C   0  0  0  0  0  0  0  0  0  0  0  0
  189.8260  177.4190  145.0150 O   0  0  0  0  0  1  0  0  0  0  0  0
  187.0980  178.3070  141.7070 N   0  0  0  0  0  2  0  0  0  0  0  0
  188.7610  178.9450  138.9810 O   0  0  0  0  0  1  0  0  0  0  0  0
  190.3980  176.2340  138.6240 C   0  0  0  0  0  0  0  0  0  0  0  0
  189.2370  177.5570  140.8480 C   0  0  0  0  0  0  0  0  0  0  0  0
  191.2970  176.7900  139.6980 C   0  0  0  0  0  2  0  0  0  0  0  0
  189.1190  176.6440  138.5340 C   0  0  0  0  0  3  0  0  0  0  0  0
  190.5120  177.1350  140.9370 C   0  0  0  0  0  3  0  0  0  0  0  0
  188.5660  177.6650  139.4980 C   0  0  2  0  0  3  0  0  0  0  0  0
  192.2870  174.9980  137.9250 F   0  0  0  0  0  0  0  0  0  0  0  0
  190.9580  175.2570  137.6390 C   0  0  1  0  0  3  0  0  0  0  0  0
  190.2230  174.0600  137.6710 O   0  0  0  0  0  0  0  0  0  0  0  0
  191.3440  173.0870  135.9110 F   0  0  0  0  0  0  0  0  0  0  0  0
  189.7440  174.6160  135.5270 F   0  0  0  0  0  0  0  0  0  0  0  0
  190.1210  173.5730  136.3530 C   0  0  0  0  0  0  0  0  0  0  0  0
  189.1600  172.5770  136.2660 F   0  0  0  0  0  0  0  0  0  0  0  0
  184.3000  178.0040  143.2690 O   0  0  0  0  0  0  0  0  0  0  0  0
  183.2650  178.9010  143.6610 C   0  0  0  0  0  2  0  0  0  0  0  0
  182.3690  179.2870  142.4860 C   0  0  1  0  0  3  0  0  0  0  0  0
  184.2570  179.6520  140.2660 O   0  0  0  0  0  0  0  0  0  0  0  0
  183.5140  177.7410  139.1530 N   0  0  0  0  0  2  0  0  0  0  0  0
  182.5780  178.4100  141.3330 N   0  0  0  0  0  2  0  0  0  0  0  0
  183.4850  178.6540  140.2490 C   0  0  0  0  0  0  0  0  0  0  0  0
  184.3520  177.9630  137.9850 C   0  0  0  0  0  2  0  0  0  0  0  0
  185.0290  173.6250  137.1590 C   0  0  0  0  0  0  0  0  0  0  0  0
  183.7960  174.3810  136.7550 C   0  0  2  0  0  3  0  0  0  0  0  0
  186.2480  174.0970  136.8870 C   0  0  0  0  0  3  0  0  0  0  0  0
  185.8260  176.5510  136.4300 C   0  0  0  0  0  0  0  0  0  0  0  0
  183.7230  175.6950  137.4560 C   0  0  0  0  0  3  0  0  0  0  0  0
  186.5360  175.4130  136.2850 C   0  0  0  0  0  3  0  0  0  0  0  0
  184.9240  172.3890  137.7900 O   0  0  0  0  0  1  0  0  0  0  0  0
  184.6300  176.6630  137.3080 C   0  0  0  0  0  0  0  0  0  0  0  0
  182.5280  173.5910  137.0260 C   0  0  0  0  0  1  0  0  0  0  0  0
  187.6210  178.0730  135.6220 C   0  0  0  0  0  1  0  0  0  0  0  0
  186.2520  177.7180  135.7810 O   0  0  0  0  0  0  0  0  0  0  0  0
  180.8980  179.3990  142.8750 C   0  0  0  0  0  2  0  0  0  0  0  0
  180.5590  178.4430  144.0070 C   0  0  0  0  0  2  0  0  0  0  0  0
  179.4040  178.8550  144.6450 F   0  0  0  0  0  0  0  0  0  0  0  0
  2  8  1  0  0  0  0
  3  7  1  0  0  0  0
  4 13  1  6  0  0  0
  4  6  1  0  0  0  0
  5  9  1  0  0  0  0
  5  8  2  0  0  0  0
  6  5  1  0  0  0  0
  7  2  2  0  0  0  0
  8  1  1  0  0  0  0
 10  4  1  0  0  0  0
 10  3  1  0  0  0  0
 12 14  1  0  0  0  0
 13 16  2  0  0  0  0
 14 16  1  0  0  0  0
 15 12  2  0  0  0  0
 15 17  1  0  0  0  0
 17 11  1  6  0  0  0
 17 13  1  0  0  0  0
 19 20  1  0  0  0  0
 19 18  1  1  0  0  0
 19 12  1  0  0  0  0
 21 23  1  0  0  0  0
 22 23  1  0  0  0  0
 23 20  1  0  0  0  0
 24 23  1  0  0  0  0
 25  7  1  0  0  0  0
 25 26  1  0  0  0  0
 27 44  1  1  0  0  0
 27 26  1  0  0  0  0
 29 31  1  0  0  0  0
 30 27  1  0  0  0  0
 31 28  2  0  0  0  0
 31 30  1  0  0  0  0
 32 29  1  0  0  0  0
 33 39  1  0  0  0  0
 34 41  1  1  0  0  0
 34 33  1  0  0  0  0
 34 37  1  0  0  0  0
 35 33  2  0  0  0  0
 36 40  1  0  0  0  0
 38 36  2  0  0  0  0
 38 35  1  0  0  0  0
 40 37  2  0  0  0  0
 40 32  1  0  0  0  0
 42 43  1  0  0  0  0
 43 36  1  0  0  0  0
 44 45  1  0  0  0  0
 45 46  1  0  0  0  0
M  END
>  <MODEL>
3

>  <REMARK>
 VINA RESULT:      -8.1      2.545      7.750
  Name = 
  13 active torsions:
  status: ('A' for Active; 'I' for Inactive)
    1  A    between atoms: C_2  and  C_5
    2  A    between atoms: C_2  and  C_8
    3  A    between atoms: C_5  and  N_31
    4  A    between atoms: C_5  and  C_37
    5  A    between atoms: C_6  and  C_17
    6  A    between atoms: O_11  and  C_28
    7  A    between atoms: C_16  and  C_45
    8  A    between atoms: C_18  and  O_43
    9  A    between atoms: O_21  and  C_36
   10  A    between atoms: O_21  and  C_37
   11  A    between atoms: C_25  and  N_27
   12  A    between atoms: C_25  and  C_40
   13  A    between atoms: O_43  and  C_45
                            x       y       z     vdW  Elec       q    Type
                         _______ _______ _______ _____ _____    ______ ____

>  <TORSDO>
F 13

$$$$
=
 OpenBabel11032421023D

 46 48  0  0  1  0  0  0  0  0999 V2000
  191.3680  176.2210  146.4280 O   0  0  0  0  0  1  0  0  0  0  0  0
  191.0290  176.5740  144.0260 C   0  0  0  0  0  3  0  0  0  0  0  0
  188.8740  175.6090  143.2780 C   0  0  0  0  0  2  0  0  0  0  0  0
  187.5460  177.3070  144.2300 C   0  0  2  0  0  3  0  0  0  0  0  0
  189.4940  177.4790  145.7610 C   0  0  0  0  0  0  0  0  0  0  0  0
  188.6560  178.2090  144.7590 C   0  0  0  0  0  2  0  0  0  0  0  0
  190.2820  176.0740  143.0360 C   0  0  0  0  0  0  0  0  0  0  0  0
  190.5840  176.7720  145.4220 C   0  0  0  0  0  0  0  0  0  0  0  0
  189.1230  177.5580  147.0980 O   0  0  0  0  0  1  0  0  0  0  0  0
  187.9460  176.6860  142.9710 N   0  0  0  0  0  2  0  0  0  0  0  0
  185.7390  179.4660  145.8940 O   0  0  0  0  0  1  0  0  0  0  0  0
  183.6060  178.9200  143.5900 C   0  0  0  0  0  0  0  0  0  0  0  0
  186.2790  178.0860  144.0380 C   0  0  0  0  0  0  0  0  0  0  0  0
  184.6880  179.3960  142.6560 C   0  0  0  0  0  2  0  0  0  0  0  0
  183.9270  178.4050  144.7910 C   0  0  0  0  0  3  0  0  0  0  0  0
  185.9500  178.5910  142.8340 C   0  0  0  0  0  3  0  0  0  0  0  0
  185.3680  178.3000  145.2250 C   0  0  2  0  0  3  0  0  0  0  0  0
  182.0000  178.6200  141.8830 F   0  0  0  0  0  0  0  0  0  0  0  0
  182.1740  179.0670  143.1810 C   0  0  1  0  0  3  0  0  0  0  0  0
  181.3430  178.3400  144.0500 O   0  0  0  0  0  0  0  0  0  0  0  0
  179.8840  180.0130  143.4370 F   0  0  0  0  0  0  0  0  0  0  0  0
  179.2300  178.4070  144.8650 F   0  0  0  0  0  0  0  0  0  0  0  0
  180.0050  178.6660  143.7500 C   0  0  0  0  0  0  0  0  0  0  0  0
  179.5320  177.8940  142.7000 F   0  0  0  0  0  0  0  0  0  0  0  0
  190.8460  175.9920  141.7590 O   0  0  0  0  0  0  0  0  0  0  0  0
  190.8360  177.0810  140.8400 C   0  0  0  0  0  2  0  0  0  0  0  0
  190.2850  176.6710  139.4760 C   0  0  1  0  0  3  0  0  0  0  0  0
  188.2280  175.9080  137.5240 O   0  0  0  0  0  0  0  0  0  0  0  0
  186.9680  177.8340  137.9090 N   0  0  0  0  0  2  0  0  0  0  0  0
  189.0450  177.3810  139.1560 N   0  0  0  0  0  2  0  0  0  0  0  0
  188.0900  176.9890  138.1600 C   0  0  0  0  0  0  0  0  0  0  0  0
  186.0000  177.5400  136.8630 C   0  0  0  0  0  2  0  0  0  0  0  0
  182.5660  174.7120  137.2870 C   0  0  0  0  0  0  0  0  0  0  0  0
  183.9700  174.4120  137.7300 C   0  0  2  0  0  3  0  0  0  0  0  0
  181.9620  175.8510  137.6330 C   0  0  0  0  0  3  0  0  0  0  0  0
  183.8910  177.3430  138.3130 C   0  0  0  0  0  0  0  0  0  0  0  0
  184.9320  175.3970  137.1560 C   0  0  0  0  0  3  0  0  0  0  0  0
  182.5980  176.9640  138.3660 C   0  0  0  0  0  3  0  0  0  0  0  0
  181.8490  173.7840  136.5380 O   0  0  0  0  0  1  0  0  0  0  0  0
  184.8950  176.7050  137.4190 C   0  0  0  0  0  0  0  0  0  0  0  0
  184.3990  173.0060  137.3530 C   0  0  0  0  0  1  0  0  0  0  0  0
  183.7040  179.7130  139.0450 C   0  0  0  0  0  1  0  0  0  0  0  0
  184.3230  178.4330  139.0820 O   0  0  0  0  0  0  0  0  0  0  0  0
  191.3230  176.7790  138.3620 C   0  0  0  0  0  2  0  0  0  0  0  0
  191.6040  175.4200  137.7450 C   0  0  0  0  0  2  0  0  0  0  0  0
  191.2940  175.4370  136.3970 F   0  0  0  0  0  0  0  0  0  0  0  0
  2  8  1  0  0  0  0
  4 13  1  6  0  0  0
  4  6  1  0  0  0  0
  5  9  1  0  0  0  0
  6  5  1  0  0  0  0
  7  3  1  0  0  0  0
  7  2  2  0  0  0  0
  8  5  2  0  0  0  0
  8  1  1  0  0  0  0
 10  3  1  0  0  0  0
 10  4  1  0  0  0  0
 12 15  2  0  0  0  0
 13 17  1  0  0  0  0
 14 16  1  0  0  0  0
 14 12  1  0  0  0  0
 15 17  1  0  0  0  0
 16 13  2  0  0  0  0
 17 11  1  6  0  0  0
 19 18  1  6  0  0  0
 19 12  1  0  0  0  0
 19 20  1  0  0  0  0
 21 23  1  0  0  0  0
 23 20  1  0  0  0  0
 23 22  1  0  0  0  0
 24 23  1  0  0  0  0
 25  7  1  0  0  0  0
 26 25  1  0  0  0  0
 27 44  1  6  0  0  0
 27 26  1  0  0  0  0
 28 31  2  0  0  0  0
 29 31  1  0  0  0  0
 30 27  1  0  0  0  0
 31 30  1  0  0  0  0
 32 40  1  0  0  0  0
 32 29  1  0  0  0  0
 33 35  2  0  0  0  0
 33 34  1  0  0  0  0
 34 41  1  6  0  0  0
 35 38  1  0  0  0  0
 36 38  2  0  0  0  0
 36 43  1  0  0  0  0
 37 40  2  0  0  0  0
 37 34  1  0  0  0  0
 39 33  1  0  0  0  0
 40 36  1  0  0  0  0
 42 43  1  0  0  0  0
 45 44  1  0  0  0  0
 46 45  1  0  0  0  0
M  END
>  <MODEL>
4

>  <REMARK>
 VINA RESULT:      -8.1      1.547      2.424
  Name = 
  13 active torsions:
  status: ('A' for Active; 'I' for Inactive)
    1  A    between atoms: C_2  and  C_5
    2  A    between atoms: C_2  and  C_8
    3  A    between atoms: C_5  and  N_31
    4  A    between atoms: C_5  and  C_37
    5  A    between atoms: C_6  and  C_17
    6  A    between atoms: O_11  and  C_28
    7  A    between atoms: C_16  and  C_45
    8  A    between atoms: C_18  and  O_43
    9  A    between atoms: O_21  and  C_36
   10  A    between atoms: O_21  and  C_37
   11  A    between atoms: C_25  and  N_27
   12  A    between atoms: C_25  and  C_40
   13  A    between atoms: O_43  and  C_45
                            x       y       z     vdW  Elec       q    Type
                         _______ _______ _______ _____ _____    ______ ____

>  <TORSDO>
F 13

$$$$
=
 OpenBabel11032421023D

 46 48  0  0  1  0  0  0  0  0999 V2000
  190.3910  176.3640  147.2510 O   0  0  0  0  0  1  0  0  0  0  0  0
  190.4200  177.3210  144.9950 C   0  0  0  0  0  3  0  0  0  0  0  0
  188.6090  176.3700  143.5990 C   0  0  0  0  0  2  0  0  0  0  0  0
  186.8820  177.5870  144.6410 C   0  0  2  0  0  3  0  0  0  0  0  0
  188.4830  177.5440  146.5400 C   0  0  0  0  0  0  0  0  0  0  0  0
  187.7250  178.4250  145.5980 C   0  0  0  0  0  2  0  0  0  0  0  0
  189.9450  177.0330  143.7790 C   0  0  0  0  0  0  0  0  0  0  0  0
  189.7140  177.0800  146.2720 C   0  0  0  0  0  0  0  0  0  0  0  0
  187.8790  177.2140  147.7470 O   0  0  0  0  0  1  0  0  0  0  0  0
  187.5880  177.3820  143.3810 N   0  0  0  0  0  2  0  0  0  0  0  0
  184.9300  179.7700  146.0970 O   0  0  0  0  0  1  0  0  0  0  0  0
  182.8290  178.8290  143.8940 C   0  0  0  0  0  0  0  0  0  0  0  0
  185.5590  178.2460  144.3880 C   0  0  0  0  0  0  0  0  0  0  0  0
  183.8660  179.2830  142.8990 C   0  0  0  0  0  2  0  0  0  0  0  0
  183.1950  178.4690  145.1370 C   0  0  0  0  0  3  0  0  0  0  0  0
  185.1860  178.5960  143.1420 C   0  0  0  0  0  3  0  0  0  0  0  0
  184.6430  178.5160  145.5590 C   0  0  2  0  0  3  0  0  0  0  0  0
  180.5780  178.8110  144.6140 F   0  0  0  0  0  0  0  0  0  0  0  0
  181.3870  178.8270  143.4920 C   0  0  1  0  0  3  0  0  0  0  0  0
  181.0980  179.9610  142.7130 O   0  0  0  0  0  0  0  0  0  0  0  0
  181.1940  178.5610  140.8880 F   0  0  0  0  0  0  0  0  0  0  0  0
  180.3090  180.6160  140.6930 F   0  0  0  0  0  0  0  0  0  0  0  0
  180.4470  179.5320  141.5400 C   0  0  0  0  0  0  0  0  0  0  0  0
  179.1830  179.0380  141.8280 F   0  0  0  0  0  0  0  0  0  0  0  0
  190.7270  177.3660  142.6680 O   0  0  0  0  0  0  0  0  0  0  0  0
  190.9370  176.4750  141.5770 C   0  0  0  0  0  2  0  0  0  0  0  0
  190.6790  177.1500  140.2310 C   0  0  1  0  0  3  0  0  0  0  0  0
  192.9420  177.0950  138.3600 O   0  0  0  0  0  0  0  0  0  0  0  0
  192.0250  175.3540  137.1050 N   0  0  0  0  0  2  0  0  0  0  0  0
  190.8950  176.2310  139.1130 N   0  0  0  0  0  2  0  0  0  0  0  0
  191.9990  176.2710  138.1980 C   0  0  0  0  0  0  0  0  0  0  0  0
  193.0730  175.3860  136.0960 C   0  0  0  0  0  2  0  0  0  0  0  0
  195.2760  171.9310  137.8760 C   0  0  0  0  0  0  0  0  0  0  0  0
  194.6970  171.9430  136.4900 C   0  0  2  0  0  3  0  0  0  0  0  0
  196.0420  172.9340  138.3120 C   0  0  0  0  0  3  0  0  0  0  0  0
  195.4980  174.8140  136.7070 C   0  0  0  0  0  0  0  0  0  0  0  0
  193.7510  173.0820  136.3170 C   0  0  0  0  0  3  0  0  0  0  0  0
  196.3180  174.1800  137.5710 C   0  0  0  0  0  3  0  0  0  0  0  0
  195.0590  170.8480  138.7230 O   0  0  0  0  0  1  0  0  0  0  0  0
  194.1110  174.3630  136.4130 C   0  0  0  0  0  0  0  0  0  0  0  0
  193.9910  170.6410  136.1560 C   0  0  0  0  0  1  0  0  0  0  0  0
  197.1320  176.0980  135.3390 C   0  0  0  0  0  1  0  0  0  0  0  0
  195.9280  175.9980  136.0910 O   0  0  0  0  0  0  0  0  0  0  0  0
  189.3190  177.8380  140.1650 C   0  0  0  0  0  2  0  0  0  0  0  0
  189.0440  178.3720  138.7700 C   0  0  0  0  0  2  0  0  0  0  0  0
  187.6900  178.3180  138.4990 F   0  0  0  0  0  0  0  0  0  0  0  0
  2  8  1  0  0  0  0
  3  7  1  0  0  0  0
  4 13  1  6  0  0  0
  4  6  1  0  0  0  0
  5  9  1  0  0  0  0
  6  5  1  0  0  0  0
  7  2  2  0  0  0  0
  8  5  2  0  0  0  0
  8  1  1  0  0  0  0
 10  3  1  0  0  0  0
 10  4  1  0  0  0  0
 12 15  2  0  0  0  0
 13 17  1  0  0  0  0
 14 16  1  0  0  0  0
 14 12  1  0  0  0  0
 15 17  1  0  0  0  0
 16 13  2  0  0  0  0
 17 11  1  6  0  0  0
 19 12  1  0  0  0  0
 19 18  1  1  0  0  0
 20 19  1  0  0  0  0
 21 23  1  0  0  0  0
 22 23  1  0  0  0  0
 23 24  1  0  0  0  0
 23 20  1  0  0  0  0
 25  7  1  0  0  0  0
 26 25  1  0  0  0  0
 27 44  1  1  0  0  0
 27 26  1  0  0  0  0
 29 31  1  0  0  0  0
 30 27  1  0  0  0  0
 31 28  2  0  0  0  0
 31 30  1  0  0  0  0
 32 40  1  0  0  0  0
 32 29  1  0  0  0  0
 33 35  2  0  0  0  0
 33 39  1  0  0  0  0
 34 41  1  1  0  0  0
 34 33  1  0  0  0  0
 36 38  2  0  0  0  0
 37 40  2  0  0  0  0
 37 34  1  0  0  0  0
 38 35  1  0  0  0  0
 40 36  1  0  0  0  0
 42 43  1  0  0  0  0
 43 36  1  0  0  0  0
 45 44  1  0  0  0  0
 46 45  1  0  0  0  0
M  END
>  <MODEL>
5

>  <REMARK>
 VINA RESULT:      -8.0      3.064      6.310
  Name = 
  13 active torsions:
  status: ('A' for Active; 'I' for Inactive)
    1  A    between atoms: C_2  and  C_5
    2  A    between atoms: C_2  and  C_8
    3  A    between atoms: C_5  and  N_31
    4  A    between atoms: C_5  and  C_37
    5  A    between atoms: C_6  and  C_17
    6  A    between atoms: O_11  and  C_28
    7  A    between atoms: C_16  and  C_45
    8  A    between atoms: C_18  and  O_43
    9  A    between atoms: O_21  and  C_36
   10  A    between atoms: O_21  and  C_37
   11  A    between atoms: C_25  and  N_27
   12  A    between atoms: C_25  and  C_40
   13  A    between atoms: O_43  and  C_45
                            x       y       z     vdW  Elec       q    Type
                         _______ _______ _______ _____ _____    ______ ____

>  <TORSDO>
F 13

$$$$
=
 OpenBabel11032421023D

 46 48  0  0  1  0  0  0  0  0999 V2000
  191.5130  176.2790  146.2220 O   0  0  0  0  0  1  0  0  0  0  0  0
  191.0920  176.8380  143.8730 C   0  0  0  0  0  3  0  0  0  0  0  0
  188.9880  175.8040  143.0730 C   0  0  0  0  0  2  0  0  0  0  0  0
  187.5730  177.3060  144.2100 C   0  0  2  0  0  3  0  0  0  0  0  0
  189.5420  177.4630  145.7160 C   0  0  0  0  0  0  0  0  0  0  0  0
  188.6340  178.2270  144.8060 C   0  0  0  0  0  2  0  0  0  0  0  0
  190.3560  176.3860  142.8530 C   0  0  0  0  0  0  0  0  0  0  0  0
  190.6680  176.8690  145.2900 C   0  0  0  0  0  0  0  0  0  0  0  0
  189.1990  177.3870  147.0610 O   0  0  0  0  0  1  0  0  0  0  0  0
  187.9830  176.8390  142.8900 N   0  0  0  0  0  2  0  0  0  0  0  0
  185.8290  179.4470  145.9620 O   0  0  0  0  0  1  0  0  0  0  0  0
  183.5070  178.6880  143.9150 C   0  0  0  0  0  0  0  0  0  0  0  0
  186.2530  178.0110  144.1190 C   0  0  0  0  0  0  0  0  0  0  0  0
  184.4620  179.1730  142.8550 C   0  0  0  0  0  2  0  0  0  0  0  0
  183.9750  178.2460  145.0970 C   0  0  0  0  0  3  0  0  0  0  0  0
  185.7770  178.4420  142.9350 C   0  0  0  0  0  3  0  0  0  0  0  0
  185.4560  178.2340  145.3830 C   0  0  2  0  0  3  0  0  0  0  0  0
  181.3310  178.6360  144.8360 F   0  0  0  0  0  0  0  0  0  0  0  0
  182.0350  178.7440  143.6500 C   0  0  1  0  0  3  0  0  0  0  0  0
  181.7030  179.9490  143.0080 O   0  0  0  0  0  0  0  0  0  0  0  0
  180.1960  178.3870  142.2390 F   0  0  0  0  0  0  0  0  0  0  0  0
  180.7900  180.1210  140.9420 F   0  0  0  0  0  0  0  0  0  0  0  0
  180.5390  179.7320  142.2440 C   0  0  0  0  0  0  0  0  0  0  0  0
  179.4810  180.4850  142.7300 F   0  0  0  0  0  0  0  0  0  0  0  0
  190.8930  176.4670  141.5640 O   0  0  0  0  0  0  0  0  0  0  0  0
  190.6270  177.5560  140.6850 C   0  0  0  0  0  2  0  0  0  0  0  0
  190.2450  177.0790  139.2850 C   0  0  1  0  0  3  0  0  0  0  0  0
  192.3040  176.6280  137.2390 O   0  0  0  0  0  0  0  0  0  0  0  0
  192.3720  174.3300  137.6340 N   0  0  0  0  0  2  0  0  0  0  0  0
  190.9070  175.8190  138.9410 N   0  0  0  0  0  2  0  0  0  0  0  0
  191.8790  175.6410  137.9010 C   0  0  0  0  0  0  0  0  0  0  0  0
  193.3010  174.0610  136.5470 C   0  0  0  0  0  2  0  0  0  0  0  0
  197.5090  174.2900  138.0320 C   0  0  0  0  0  0  0  0  0  0  0  0
  196.3090  174.1000  138.9150 C   0  0  2  0  0  3  0  0  0  0  0  0
  197.6950  173.5340  136.9480 C   0  0  0  0  0  3  0  0  0  0  0  0
  195.3930  172.5750  136.5120 C   0  0  0  0  0  0  0  0  0  0  0  0
  195.0500  174.3990  138.1740 C   0  0  0  0  0  3  0  0  0  0  0  0
  196.7390  172.5350  136.4320 C   0  0  0  0  0  3  0  0  0  0  0  0
  198.4780  175.2370  138.3520 O   0  0  0  0  0  1  0  0  0  0  0  0
  194.6420  173.7160  137.1020 C   0  0  0  0  0  0  0  0  0  0  0  0
  196.3780  174.9580  140.1650 C   0  0  0  0  0  1  0  0  0  0  0  0
  194.2910  170.3510  136.6740 C   0  0  0  0  0  1  0  0  0  0  0  0
  194.6370  171.5320  135.9600 O   0  0  0  0  0  0  0  0  0  0  0  0
  188.7360  177.0220  139.0700 C   0  0  0  0  0  2  0  0  0  0  0  0
  188.2680  178.1590  138.1770 C   0  0  0  0  0  2  0  0  0  0  0  0
  188.6130  177.9020  136.8630 F   0  0  0  0  0  0  0  0  0  0  0  0
  2  8  1  0  0  0  0
  4 13  1  6  0  0  0
  4  6  1  0  0  0  0
  5  9  1  0  0  0  0
  6  5  1  0  0  0  0
  7  3  1  0  0  0  0
  7  2  2  0  0  0  0
  8  5  2  0  0  0  0
  8  1  1  0  0  0  0
 10  3  1  0  0  0  0
 10  4  1  0  0  0  0
 12 15  2  0  0  0  0
 13 17  1  0  0  0  0
 14 16  1  0  0  0  0
 14 12  1  0  0  0  0
 15 17  1  0  0  0  0
 16 13  2  0  0  0  0
 17 11  1  6  0  0  0
 19 12  1  0  0  0  0
 19 18  1  1  0  0  0
 20 19  1  0  0  0  0
 21 23  1  0  0  0  0
 22 23  1  0  0  0  0
 23 24  1  0  0  0  0
 23 20  1  0  0  0  0
 25  7  1  0  0  0  0
 26 25  1  0  0  0  0
 27 44  1  1  0  0  0
 27 26  1  0  0  0  0
 28 31  2  0  0  0  0
 29 31  1  0  0  0  0
 30 27  1  0  0  0  0
 31 30  1  0  0  0  0
 32 40  1  0  0  0  0
 32 29  1  0  0  0  0
 33 39  1  0  0  0  0
 33 34  1  0  0  0  0
 34 41  1  1  0  0  0
 35 33  2  0  0  0  0
 36 40  1  0  0  0  0
 37 34  1  0  0  0  0
 38 36  2  0  0  0  0
 38 35  1  0  0  0  0
 40 37  2  0  0  0  0
 43 36  1  0  0  0  0
 43 42  1  0  0  0  0
 45 44  1  0  0  0  0
 46 45  1  0  0  0  0
M  END
>  <MODEL>
6

>  <REMARK>
 VINA RESULT:      -8.0      3.284      6.661
  Name = 
  13 active torsions:
  status: ('A' for Active; 'I' for Inactive)
    1  A    between atoms: C_2  and  C_5
    2  A    between atoms: C_2  and  C_8
    3  A    between atoms: C_5  and  N_31
    4  A    between atoms: C_5  and  C_37
    5  A    between atoms: C_6  and  C_17
    6  A    between atoms: O_11  and  C_28
    7  A    between atoms: C_16  and  C_45
    8  A    between atoms: C_18  and  O_43
    9  A    between atoms: O_21  and  C_36
   10  A    between atoms: O_21  and  C_37
   11  A    between atoms: C_25  and  N_27
   12  A    between atoms: C_25  and  C_40
   13  A    between atoms: O_43  and  C_45
                            x       y       z     vdW  Elec       q    Type
                         _______ _______ _______ _____ _____    ______ ____

>  <TORSDO>
F 13

$$$$
=
 OpenBabel11032421023D

 46 48  0  0  1  0  0  0  0  0999 V2000
  191.7040  176.2260  146.1580 O   0  0  0  0  0  1  0  0  0  0  0  0
  189.4500  176.8830  145.4540 C   0  0  0  0  0  3  0  0  0  0  0  0
  189.5330  178.7200  143.7950 C   0  0  0  0  0  2  0  0  0  0  0  0
  190.2410  177.3550  142.0100 C   0  0  2  0  0  3  0  0  0  0  0  0
  191.1610  176.0030  143.8780 C   0  0  0  0  0  0  0  0  0  0  0  0
  190.2170  176.0050  142.7180 C   0  0  0  0  0  2  0  0  0  0  0  0
  188.8470  177.9220  144.8670 C   0  0  0  0  0  0  0  0  0  0  0  0
  190.7940  176.3680  145.1170 C   0  0  0  0  0  0  0  0  0  0  0  0
  192.4680  175.5870  143.6500 O   0  0  0  0  0  1  0  0  0  0  0  0
  189.1560  178.2050  142.4880 N   0  0  0  0  0  2  0  0  0  0  0  0
  188.7750  178.8160  139.4770 O   0  0  0  0  0  1  0  0  0  0  0  0
  189.6910  176.2030  137.8980 C   0  0  0  0  0  0  0  0  0  0  0  0
  190.1360  177.1750  140.5250 C   0  0  0  0  0  0  0  0  0  0  0  0
  191.0850  176.6060  138.3040 C   0  0  0  0  0  2  0  0  0  0  0  0
  188.6320  176.6070  138.6230 C   0  0  0  0  0  3  0  0  0  0  0  0
  191.1910  176.7590  139.8000 C   0  0  0  0  0  3  0  0  0  0  0  0
  188.8190  177.4710  139.8460 C   0  0  2  0  0  3  0  0  0  0  0  0
  190.5020  175.6650  135.7450 F   0  0  0  0  0  0  0  0  0  0  0  0
  189.5020  175.3860  136.6590 C   0  0  1  0  0  3  0  0  0  0  0  0
  189.5140  174.0170  136.9740 O   0  0  0  0  0  0  0  0  0  0  0  0
  188.6900  172.1970  135.8280 F   0  0  0  0  0  0  0  0  0  0  0  0
  187.9060  174.2570  135.3960 F   0  0  0  0  0  0  0  0  0  0  0  0
  188.3740  173.4240  136.3950 C   0  0  0  0  0  0  0  0  0  0  0  0
  187.3680  173.2630  137.3360 F   0  0  0  0  0  0  0  0  0  0  0  0
  187.5520  178.2530  145.2780 O   0  0  0  0  0  0  0  0  0  0  0  0
  186.3930  177.5850  144.7890 C   0  0  0  0  0  2  0  0  0  0  0  0
  185.3290  178.5680  144.3050 C   0  0  1  0  0  3  0  0  0  0  0  0
  185.8930  179.7530  141.6770 O   0  0  0  0  0  0  0  0  0  0  0  0
  184.3700  178.3640  140.5830 N   0  0  0  0  0  2  0  0  0  0  0  0
  184.7780  178.1750  143.0070 N   0  0  0  0  0  2  0  0  0  0  0  0
  185.0520  178.8140  141.7520 C   0  0  0  0  0  0  0  0  0  0  0  0
  184.5410  179.0130  139.2920 C   0  0  0  0  0  2  0  0  0  0  0  0
  183.4070  175.3570  136.9860 C   0  0  0  0  0  0  0  0  0  0  0  0
  182.6800  176.6700  136.9040 C   0  0  2  0  0  3  0  0  0  0  0  0
  184.7350  175.2950  136.8650 C   0  0  0  0  0  3  0  0  0  0  0  0
  185.4660  177.6790  137.3040 C   0  0  0  0  0  0  0  0  0  0  0  0
  183.0820  177.5720  138.0210 C   0  0  0  0  0  3  0  0  0  0  0  0
  185.6350  176.4590  136.7530 C   0  0  0  0  0  3  0  0  0  0  0  0
  182.7010  174.1690  137.1490 O   0  0  0  0  0  1  0  0  0  0  0  0
  184.3260  178.0220  138.1970 C   0  0  0  0  0  0  0  0  0  0  0  0
  181.1730  176.4890  136.9150 C   0  0  0  0  0  1  0  0  0  0  0  0
  187.4050  178.6120  136.0570 C   0  0  0  0  0  1  0  0  0  0  0  0
  186.4320  178.6720  137.0920 O   0  0  0  0  0  0  0  0  0  0  0  0
  184.2430  178.8260  145.3450 C   0  0  0  0  0  2  0  0  0  0  0  0
  184.6360  178.2530  146.6970 C   0  0  0  0  0  2  0  0  0  0  0  0
  185.4630  179.1380  147.3640 F   0  0  0  0  0  0  0  0  0  0  0  0
  3  7  1  0  0  0  0
  4 13  1  6  0  0  0
  4 10  1  0  0  0  0
  4  6  1  0  0  0  0
  5  8  2  0  0  0  0
  6  5  1  0  0  0  0
  7 25  1  0  0  0  0
  7  2  2  0  0  0  0
  8  2  1  0  0  0  0
  8  1  1  0  0  0  0
  9  5  1  0  0  0  0
 10  3  1  0  0  0  0
 12 14  1  0  0  0  0
 12 15  2  0  0  0  0
 14 16  1  0  0  0  0
 15 17  1  0  0  0  0
 16 13  2  0  0  0  0
 17 11  1  6  0  0  0
 17 13  1  0  0  0  0
 19 18  1  6  0  0  0
 19 20  1  0  0  0  0
 19 12  1  0  0  0  0
 21 23  1  0  0  0  0
 22 23  1  0  0  0  0
 23 20  1  0  0  0  0
 23 24  1  0  0  0  0
 26 25  1  0  0  0  0
 27 26  1  1  0  0  0
 27 44  1  0  0  0  0
 28 31  2  0  0  0  0
 29 31  1  0  0  0  0
 30 27  1  0  0  0  0
 31 30  1  0  0  0  0
 32 29  1  0  0  0  0
 33 39  1  0  0  0  0
 34 41  1  1  0  0  0
 34 33  1  0  0  0  0
 34 37  1  0  0  0  0
 35 33  2  0  0  0  0
 36 40  1  0  0  0  0
 37 40  2  0  0  0  0
 38 35  1  0  0  0  0
 38 36  2  0  0  0  0
 40 32  1  0  0  0  0
 42 43  1  0  0  0  0
 43 36  1  0  0  0  0
 44 45  1  0  0  0  0
 45 46  1  0  0  0  0
M  END
>  <MODEL>
7

>  <REMARK>
 VINA RESULT:      -7.8      3.030      6.954
  Name = 
  13 active torsions:
  status: ('A' for Active; 'I' for Inactive)
    1  A    between atoms: C_2  and  C_5
    2  A    between atoms: C_2  and  C_8
    3  A    between atoms: C_5  and  N_31
    4  A    between atoms: C_5  and  C_37
    5  A    between atoms: C_6  and  C_17
    6  A    between atoms: O_11  and  C_28
    7  A    between atoms: C_16  and  C_45
    8  A    between atoms: C_18  and  O_43
    9  A    between atoms: O_21  and  C_36
   10  A    between atoms: O_21  and  C_37
   11  A    between atoms: C_25  and  N_27
   12  A    between atoms: C_25  and  C_40
   13  A    between atoms: O_43  and  C_45
                            x       y       z     vdW  Elec       q    Type
                         _______ _______ _______ _____ _____    ______ ____

>  <TORSDO>
F 13

$$$$
=
 OpenBabel11032421023D

 46 48  0  0  1  0  0  0  0  0999 V2000
  185.9880  174.2610  134.7180 O   0  0  0  0  0  1  0  0  0  0  0  0
  187.1170  175.4070  136.5680 C   0  0  0  0  0  3  0  0  0  0  0  0
  186.6390  177.8370  136.5350 C   0  0  0  0  0  2  0  0  0  0  0  0
  184.4360  177.6260  137.3430 C   0  0  2  0  0  3  0  0  0  0  0  0
  184.6450  175.3860  136.2900 C   0  0  0  0  0  0  0  0  0  0  0  0
  184.4100  176.1180  137.5730 C   0  0  0  0  0  2  0  0  0  0  0  0
  187.4820  176.6490  136.9010 C   0  0  0  0  0  0  0  0  0  0  0  0
  185.8690  175.0390  135.8630 C   0  0  0  0  0  0  0  0  0  0  0  0
  183.5350  175.0440  135.5260 O   0  0  0  0  0  1  0  0  0  0  0  0
  185.7570  178.1680  137.6430 N   0  0  0  0  0  2  0  0  0  0  0  0
  184.1350  180.3760  139.0880 O   0  0  0  0  0  1  0  0  0  0  0  0
  181.4620  178.9950  140.1390 C   0  0  0  0  0  0  0  0  0  0  0  0
  183.3980  178.3070  138.1850 C   0  0  0  0  0  0  0  0  0  0  0  0
  181.0600  178.9690  138.6860 C   0  0  0  0  0  2  0  0  0  0  0  0
  182.7630  179.0320  140.4800 C   0  0  0  0  0  3  0  0  0  0  0  0
  182.0940  178.2590  137.8510 C   0  0  0  0  0  3  0  0  0  0  0  0
  183.8380  179.0540  139.4220 C   0  0  2  0  0  3  0  0  0  0  0  0
  179.1860  178.6180  140.6510 F   0  0  0  0  0  0  0  0  0  0  0  0
  180.3960  179.0210  141.1890 C   0  0  1  0  0  3  0  0  0  0  0  0
  180.7460  178.1780  142.2570 O   0  0  0  0  0  0  0  0  0  0  0  0
  181.4420  178.6430  144.4020 F   0  0  0  0  0  0  0  0  0  0  0  0
  179.2610  178.3380  143.9610 F   0  0  0  0  0  0  0  0  0  0  0  0
  180.4440  178.8470  143.4600 C   0  0  0  0  0  0  0  0  0  0  0  0
  180.2760  180.2070  143.2400 F   0  0  0  0  0  0  0  0  0  0  0  0
  188.6790  176.8190  137.6060 O   0  0  0  0  0  0  0  0  0  0  0  0
  189.4580  175.7240  138.0780 C   0  0  0  0  0  2  0  0  0  0  0  0
  190.8500  176.1650  138.5250 C   0  0  1  0  0  3  0  0  0  0  0  0
  190.1910  178.2760  140.4580 O   0  0  0  0  0  0  0  0  0  0  0  0
  190.9650  177.0310  142.2730 N   0  0  0  0  0  2  0  0  0  0  0  0
  190.9920  176.1230  139.9810 N   0  0  0  0  0  2  0  0  0  0  0  0
  190.6950  177.2000  140.8820 C   0  0  0  0  0  0  0  0  0  0  0  0
  190.7610  178.1040  143.2340 C   0  0  0  0  0  2  0  0  0  0  0  0
  187.1840  178.1390  145.9110 C   0  0  0  0  0  0  0  0  0  0  0  0
  187.2630  177.3850  144.6140 C   0  0  2  0  0  3  0  0  0  0  0  0
  188.1480  178.0370  146.8280 C   0  0  0  0  0  3  0  0  0  0  0  0
  190.1020  177.1150  145.5090 C   0  0  0  0  0  0  0  0  0  0  0  0
  188.4330  177.8370  143.8060 C   0  0  0  0  0  3  0  0  0  0  0  0
  189.4140  177.2980  146.6540 C   0  0  0  0  0  3  0  0  0  0  0  0
  186.0760  178.9290  146.2020 O   0  0  0  0  0  1  0  0  0  0  0  0
  189.7000  177.7140  144.2080 C   0  0  0  0  0  0  0  0  0  0  0  0
  185.9940  177.5280  143.7930 C   0  0  0  0  0  1  0  0  0  0  0  0
  192.0510  176.1460  146.7130 C   0  0  0  0  0  1  0  0  0  0  0  0
  191.2970  176.3810  145.5310 O   0  0  0  0  0  0  0  0  0  0  0  0
  191.9680  175.4130  137.8090 C   0  0  0  0  0  2  0  0  0  0  0  0
  193.0220  176.3720  137.2820 C   0  0  0  0  0  2  0  0  0  0  0  0
  193.9030  175.7020  136.4540 F   0  0  0  0  0  0  0  0  0  0  0  0
  1  8  1  0  0  0  0
  2  7  2  0  0  0  0
  3  7  1  0  0  0  0
  3 10  1  0  0  0  0
  4  6  1  0  0  0  0
  4 10  1  0  0  0  0
  4 13  1  1  0  0  0
  5  6  1  0  0  0  0
  7 25  1  0  0  0  0
  8  5  2  0  0  0  0
  8  2  1  0  0  0  0
  9  5  1  0  0  0  0
 12 15  2  0  0  0  0
 12 19  1  0  0  0  0
 13 17  1  0  0  0  0
 14 12  1  0  0  0  0
 16 13  2  0  0  0  0
 16 14  1  0  0  0  0
 17 11  1  6  0  0  0
 17 15  1  0  0  0  0
 19 18  1  6  0  0  0
 19 20  1  0  0  0  0
 20 23  1  0  0  0  0
 23 22  1  0  0  0  0
 23 21  1  0  0  0  0
 24 23  1  0  0  0  0
 25 26  1  0  0  0  0
 26 27  1  0  0  0  0
 27 44  1  6  0  0  0
 27 30  1  0  0  0  0
 28 31  2  0  0  0  0
 29 32  1  0  0  0  0
 30 31  1  0  0  0  0
 31 29  1  0  0  0  0
 32 40  1  0  0  0  0
 33 39  1  0  0  0  0
 33 35  2  0  0  0  0
 34 41  1  6  0  0  0
 34 33  1  0  0  0  0
 36 43  1  0  0  0  0
 36 38  2  0  0  0  0
 37 40  2  0  0  0  0
 37 34  1  0  0  0  0
 38 35  1  0  0  0  0
 40 36  1  0  0  0  0
 43 42  1  0  0  0  0
 45 44  1  0  0  0  0
 46 45  1  0  0  0  0
M  END
>  <MODEL>
8

>  <REMARK>
 VINA RESULT:      -7.7      1.732      7.168
  Name = 
  13 active torsions:
  status: ('A' for Active; 'I' for Inactive)
    1  A    between atoms: C_2  and  C_5
    2  A    between atoms: C_2  and  C_8
    3  A    between atoms: C_5  and  N_31
    4  A    between atoms: C_5  and  C_37
    5  A    between atoms: C_6  and  C_17
    6  A    between atoms: O_11  and  C_28
    7  A    between atoms: C_16  and  C_45
    8  A    between atoms: C_18  and  O_43
    9  A    between atoms: O_21  and  C_36
   10  A    between atoms: O_21  and  C_37
   11  A    between atoms: C_25  and  N_27
   12  A    between atoms: C_25  and  C_40
   13  A    between atoms: O_43  and  C_45
                            x       y       z     vdW  Elec       q    Type
                         _______ _______ _______ _____ _____    ______ ____

>  <TORSDO>
F 13

$$$$
=
 OpenBabel11032421023D

 46 48  0  0  1  0  0  0  0  0999 V2000
  191.2520  175.4700  136.0470 O   0  0  0  0  0  1  0  0  0  0  0  0
  189.7100  177.3060  136.5600 C   0  0  0  0  0  3  0  0  0  0  0  0
  188.1040  176.6540  138.3280 C   0  0  0  0  0  2  0  0  0  0  0  0
  189.6630  176.7990  140.0890 C   0  0  2  0  0  3  0  0  0  0  0  0
  191.2540  176.3200  138.2430 C   0  0  0  0  0  0  0  0  0  0  0  0
  190.8660  177.3050  139.2990 C   0  0  0  0  0  2  0  0  0  0  0  0
  188.5210  177.4800  137.1450 C   0  0  0  0  0  0  0  0  0  0  0  0
  190.7510  176.3510  136.9980 C   0  0  0  0  0  0  0  0  0  0  0  0
  192.1880  175.3450  138.5750 O   0  0  0  0  0  1  0  0  0  0  0  0
  188.4270  177.3630  139.5560 N   0  0  0  0  0  2  0  0  0  0  0  0
  192.0530  177.5000  142.2090 O   0  0  0  0  0  1  0  0  0  0  0  0
  189.7380  177.1810  144.3760 C   0  0  0  0  0  0  0  0  0  0  0  0
  189.8010  177.1440  141.5410 C   0  0  0  0  0  0  0  0  0  0  0  0
  189.0510  178.2850  143.6130 C   0  0  0  0  0  2  0  0  0  0  0  0
  190.6410  176.3950  143.7620 C   0  0  0  0  0  3  0  0  0  0  0  0
  188.8910  177.9200  142.1600 C   0  0  0  0  0  3  0  0  0  0  0  0
  190.9870  176.6060  142.3090 C   0  0  2  0  0  3  0  0  0  0  0  0
  190.5580  176.5670  146.5050 F   0  0  0  0  0  0  0  0  0  0  0  0
  189.4310  177.0010  145.8300 C   0  0  1  0  0  3  0  0  0  0  0  0
  188.9810  178.2110  146.3840 O   0  0  0  0  0  0  0  0  0  0  0  0
  187.9510  176.6020  147.6700 F   0  0  0  0  0  0  0  0  0  0  0  0
  186.7230  178.1180  146.5570 F   0  0  0  0  0  0  0  0  0  0  0  0
  187.9050  177.9230  147.2470 C   0  0  0  0  0  0  0  0  0  0  0  0
  187.9130  178.7690  148.3470 F   0  0  0  0  0  0  0  0  0  0  0  0
  187.6670  178.4590  136.6270 O   0  0  0  0  0  0  0  0  0  0  0  0
  186.7950  178.2180  135.5260 C   0  0  0  0  0  2  0  0  0  0  0  0
  185.6660  177.2560  135.8920 C   0  0  1  0  0  3  0  0  0  0  0  0
  184.3780  176.0590  138.2440 O   0  0  0  0  0  0  0  0  0  0  0  0
  183.0720  177.9500  138.6480 N   0  0  0  0  0  2  0  0  0  0  0  0
  184.6960  177.8770  136.7960 N   0  0  0  0  0  2  0  0  0  0  0  0
  184.0610  177.2340  137.9100 C   0  0  0  0  0  0  0  0  0  0  0  0
  182.3320  177.3380  139.7420 C   0  0  0  0  0  2  0  0  0  0  0  0
  183.1020  178.7770  143.9010 C   0  0  0  0  0  0  0  0  0  0  0  0
  183.9430  179.1400  142.7100 C   0  0  2  0  0  3  0  0  0  0  0  0
  181.7730  178.8920  143.8670 C   0  0  0  0  0  3  0  0  0  0  0  0
  181.2660  178.9920  141.3890 C   0  0  0  0  0  0  0  0  0  0  0  0
  183.6390  178.2510  141.5520 C   0  0  0  0  0  3  0  0  0  0  0  0
  180.9800  179.2630  142.6790 C   0  0  0  0  0  3  0  0  0  0  0  0
  183.7000  178.3530  145.0840 O   0  0  0  0  0  1  0  0  0  0  0  0
  182.4430  178.1870  140.9640 C   0  0  0  0  0  0  0  0  0  0  0  0
  185.4280  179.0780  143.0210 C   0  0  0  0  0  1  0  0  0  0  0  0
  180.5500  180.6480  139.6770 C   0  0  0  0  0  1  0  0  0  0  0  0
  180.3910  179.4230  140.3820 O   0  0  0  0  0  0  0  0  0  0  0  0
  185.0050  176.6280  134.6690 C   0  0  0  0  0  2  0  0  0  0  0  0
  185.2700  175.1330  134.6130 C   0  0  0  0  0  2  0  0  0  0  0  0
  184.5340  174.4840  135.5870 F   0  0  0  0  0  0  0  0  0  0  0  0
  1  8  1  0  0  0  0
  2  8  1  0  0  0  0
  2  7  2  0  0  0  0
  3 10  1  0  0  0  0
  4 13  1  1  0  0  0
  5  9  1  0  0  0  0
  5  6  1  0  0  0  0
  6  4  1  0  0  0  0
  7  3  1  0  0  0  0
  8  5  2  0  0  0  0
 10  4  1  0  0  0  0
 12 19  1  0  0  0  0
 13 16  2  0  0  0  0
 13 17  1  0  0  0  0
 14 12  1  0  0  0  0
 15 12  2  0  0  0  0
 16 14  1  0  0  0  0
 17 11  1  1  0  0  0
 17 15  1  0  0  0  0
 19 20  1  0  0  0  0
 19 18  1  1  0  0  0
 20 23  1  0  0  0  0
 22 23  1  0  0  0  0
 23 21  1  0  0  0  0
 23 24  1  0  0  0  0
 25  7  1  0  0  0  0
 26 27  1  0  0  0  0
 26 25  1  0  0  0  0
 27 44  1  6  0  0  0
 27 30  1  0  0  0  0
 29 32  1  0  0  0  0
 30 31  1  0  0  0  0
 31 28  2  0  0  0  0
 31 29  1  0  0  0  0
 32 40  1  0  0  0  0
 33 39  1  0  0  0  0
 34 41  1  1  0  0  0
 34 33  1  0  0  0  0
 35 33  2  0  0  0  0
 36 38  2  0  0  0  0
 37 34  1  0  0  0  0
 38 35  1  0  0  0  0
 40 36  1  0  0  0  0
 40 37  2  0  0  0  0
 42 43  1  0  0  0  0
 43 36  1  0  0  0  0
 45 44  1  0  0  0  0
 45 46  1  0  0  0  0
M  END
>  <MODEL>
9

>  <REMARK>
 VINA RESULT:      -7.6      3.263      7.277
  Name = 
  13 active torsions:
  status: ('A' for Active; 'I' for Inactive)
    1  A    between atoms: C_2  and  C_5
    2  A    between atoms: C_2  and  C_8
    3  A    between atoms: C_5  and  N_31
    4  A    between atoms: C_5  and  C_37
    5  A    between atoms: C_6  and  C_17
    6  A    between atoms: O_11  and  C_28
    7  A    between atoms: C_16  and  C_45
    8  A    between atoms: C_18  and  O_43
    9  A    between atoms: O_21  and  C_36
   10  A    between atoms: O_21  and  C_37
   11  A    between atoms: C_25  and  N_27
   12  A    between atoms: C_25  and  C_40
   13  A    between atoms: O_43  and  C_45
                            x       y       z     vdW  Elec       q    Type
                         _______ _______ _______ _____ _____    ______ ____

>  <TORSDO>
F 13

$$$$
