=
 OpenBabel11032419583D

 52 54  0  0  1  0  0  0  0  0999 V2000
  183.2920  178.8800  144.9490 C   0  0  0  0  0  3  0  0  0  0  0  0
  184.6110  178.7990  144.4850 C   0  0  0  0  0  0  0  0  0  0  0  0
  186.2130  178.6870  142.5120 C   0  0  0  0  0  1  0  0  0  0  0  0
  182.4230  178.8380  142.6850 C   0  0  0  0  0  0  0  0  0  0  0  0
  182.2160  178.9030  144.0650 C   0  0  0  0  0  3  0  0  0  0  0  0
  183.7430  178.7640  142.1960 C   0  0  0  0  0  0  0  0  0  0  0  0
  184.8330  178.7440  143.0860 C   0  0  0  0  0  0  0  0  0  0  0  0
  183.9820  178.7300  140.8580 F   0  0  0  0  0  0  0  0  0  0  0  0
  181.2470  178.8380  141.7870 C   0  0  0  0  0  0  0  0  0  0  0  0
  181.1520  177.9020  140.7080 N   0  0  0  0  0  2  0  0  0  0  0  0
  180.3010  179.6460  141.9940 O   0  0  0  0  0  0  0  0  0  0  0  0
  180.0120  177.8630  139.8040 C   0  0  0  0  0  2  0  0  0  0  0  0
  179.9080  179.9850  138.5210 C   0  0  0  0  0  3  0  0  0  0  0  0
  180.9370  178.0620  137.4350 C   0  0  0  0  0  0  0  0  0  0  0  0
  180.7330  180.1860  136.2630 C   0  0  0  0  0  3  0  0  0  0  0  0
  180.3060  178.6440  138.5620 C   0  0  0  0  0  0  0  0  0  0  0  0
  180.1230  180.7680  137.3810 C   0  0  0  0  0  0  0  0  0  0  0  0
  181.1320  178.8500  136.2910 C   0  0  0  0  0  3  0  0  0  0  0  0
  180.6840  175.5400  137.0240 C   0  0  0  0  0  3  0  0  0  0  0  0
  181.4070  176.6520  137.4150 C   0  0  2  0  0  3  0  0  0  0  0  0
  181.4300  174.4270  137.1920 N   0  0  0  0  0  0  0  0  0  0  0  0
  182.6300  176.1760  137.8400 C   0  0  0  0  0  0  0  0  0  0  0  0
  182.6230  174.8060  137.6900 C   0  0  0  0  0  3  0  0  0  0  0  0
  183.6870  176.9540  138.3180 O   0  0  0  0  0  0  0  0  0  0  0  0
  184.5000  177.7470  137.4590 C   0  0  0  0  0  2  0  0  0  0  0  0
  186.4880  175.8430  136.6020 N   0  0  0  0  0  2  0  0  0  0  0  0
  186.8480  176.7920  137.4030 C   0  0  0  0  0  0  0  0  0  0  0  0
  185.8830  177.7170  137.9160 N   0  0  0  0  0  2  0  0  0  0  0  0
  188.7280  178.2950  137.9560 C   0  0  0  0  0  1  0  0  0  0  0  0
  188.2630  176.8530  137.8710 C   0  0  2  0  0  3  0  0  0  0  0  0
  189.0860  176.1480  136.9930 O   0  0  0  0  0  1  0  0  0  0  0  0
  179.8370  182.8770  136.2340 O   0  0  0  0  0  1  0  0  0  0  0  0
  179.1260  182.7740  138.5380 C   0  0  0  0  0  1  0  0  0  0  0  0
  179.7180  182.1470  137.3680 N   0  0  0  0  0  0  0  0  0  0  0  0
  185.7220  178.7330  145.4780 C   0  0  0  0  0  0  0  0  0  0  0  0
  185.8310  179.6390  146.3480 O   0  0  0  0  0  0  0  0  0  0  0  0
  186.7300  177.6480  145.4680 C   0  0  0  0  0  0  0  0  0  0  0  0
  186.3730  176.4380  145.4690 O   0  0  0  0  0  0  0  0  0  0  0  0
  188.1890  177.9880  145.4340 C   0  0  1  0  0  3  0  0  0  0  0  0
  188.7860  177.7890  146.7460 N   0  0  0  0  0  2  0  0  0  0  0  0
  189.5430  176.6690  146.6730 O   0  0  0  0  0  0  0  0  0  0  0  0
  190.6720  176.9580  147.4410 C   0  0  0  0  0  2  0  0  0  0  0  0
  191.8460  176.1420  146.9410 C   0  0  0  0  0  1  0  0  0  0  0  0
  188.8870  177.1270  144.3930 C   0  0  0  0  0  2  0  0  0  0  0  0
  189.8330  177.9670  143.5510 C   0  0  0  0  0  2  0  0  0  0  0  0
  189.7290  177.5790  142.0840 C   0  0  0  0  0  2  0  0  0  0  0  0
  193.5560  177.2390  139.9160 N   0  0  0  0  0  2  0  0  0  0  0  0
  191.0760  177.3190  141.4970 C   0  0  0  0  0  0  0  0  0  0  0  0
  192.3870  176.5530  137.9340 C   0  0  0  0  0  1  0  0  0  0  0  0
  192.0870  177.3060  142.2480 O   0  0  0  0  0  0  0  0  0  0  0  0
  192.4250  176.9300  139.3720 C   0  0  0  0  0  0  0  0  0  0  0  0
  191.1940  177.0540  140.0950 N   0  0  0  0  0  2  0  0  0  0  0  0
  2  1  1  0  0  0  0
  2 35  1  0  0  0  0
  3  7  1  0  0  0  0
  4  5  1  0  0  0  0
  5  1  2  0  0  0  0
  6  4  2  0  0  0  0
  6  7  1  0  0  0  0
  7  2  2  0  0  0  0
  8  6  1  0  0  0  0
  9 11  2  0  0  0  0
  9  4  1  0  0  0  0
 10  9  1  0  0  0  0
 12 10  1  0  0  0  0
 13 16  1  0  0  0  0
 14 16  2  0  0  0  0
 15 18  2  0  0  0  0
 15 17  1  0  0  0  0
 16 12  1  0  0  0  0
 17 13  2  0  0  0  0
 18 14  1  0  0  0  0
 19 21  2  0  0  0  0
 19 20  1  0  0  0  0
 20 14  1  1  0  0  0
 20 22  1  0  0  0  0
 21 23  1  0  0  0  0
 22 24  1  0  0  0  0
 23 22  2  0  0  0  0
 25 28  1  0  0  0  0
 25 24  1  0  0  0  0
 26 27  2  0  0  0  0
 27 30  1  0  0  0  0
 27 28  1  0  0  0  0
 30 29  1  6  0  0  0
 31 30  1  0  0  0  0
 32 34  1  0  0  0  0
 34 17  1  0  0  0  0
 34 33  1  0  0  0  0
 35 36  2  0  0  0  0
 37 38  2  0  0  0  0
 37 35  1  0  0  0  0
 39 44  1  6  0  0  0
 39 37  1  0  0  0  0
 39 40  1  0  0  0  0
 41 40  1  0  0  0  0
 41 42  1  0  0  0  0
 43 42  1  0  0  0  0
 45 44  1  0  0  0  0
 46 45  1  0  0  0  0
 48 46  1  0  0  0  0
 48 50  2  0  0  0  0
 49 51  1  0  0  0  0
 51 47  2  0  0  0  0
 51 52  1  0  0  0  0
 52 48  1  0  0  0  0
M  END
>  <MODEL>
1

>  <REMARK>
 VINA RESULT:      -7.4      0.000      0.000
  Name = 
  19 active torsions:
  status: ('A' for Active; 'I' for Inactive)
    1  A    between atoms: O_1  and  C_20
    2  A    between atoms: O_1  and  C_36
    3  A    between atoms: C_2  and  C_23
    4  A    between atoms: C_2  and  C_25
    5  A    between atoms: C_3  and  C_9
    6  A    between atoms: C_3  and  C_18
    7  A    between atoms: C_5  and  C_12
    8  A    between atoms: O_6  and  N_21
    9  A    between atoms: O_6  and  C_35
   10  A    between atoms: C_9  and  C_23
   11  A    between atoms: C_13  and  C_16
   12  A    between atoms: C_17  and  C_22
   13  A    between atoms: C_17  and  C_25
   14  A    between atoms: N_21  and  C_23
   15  A    between atoms: C_27  and  C_28
   16  A    between atoms: N_31  and  C_43
   17  A    between atoms: C_32  and  C_43
   18  A    between atoms: C_34  and  N_49
   19  A    between atoms: C_36  and  N_37
                            x       y       z     vdW  Elec       q    Type
                         _______ _______ _______ _____ _____    ______ ____

>  <TORSDO>
F 19

$$$$
=
 OpenBabel11032419583D

 52 54  0  0  1  0  0  0  0  0999 V2000
  187.7880  178.2970  142.1870 C   0  0  0  0  0  3  0  0  0  0  0  0
  189.0200  177.9560  141.6150 C   0  0  0  0  0  0  0  0  0  0  0  0
  190.3880  177.5070  139.5180 C   0  0  0  0  0  1  0  0  0  0  0  0
  186.7270  178.3890  140.0080 C   0  0  0  0  0  0  0  0  0  0  0  0
  186.6610  178.5130  141.3970 C   0  0  0  0  0  3  0  0  0  0  0  0
  187.9600  178.0540  139.4110 C   0  0  0  0  0  0  0  0  0  0  0  0
  189.1010  177.8380  140.2050 C   0  0  0  0  0  0  0  0  0  0  0  0
  188.0660  177.9550  138.0590 F   0  0  0  0  0  0  0  0  0  0  0  0
  185.4970  178.6010  139.2130 C   0  0  0  0  0  0  0  0  0  0  0  0
  184.9870  177.5670  138.3660 N   0  0  0  0  0  2  0  0  0  0  0  0
  184.8700  179.6920  139.3100 O   0  0  0  0  0  0  0  0  0  0  0  0
  183.7780  177.7310  137.5710 C   0  0  0  0  0  2  0  0  0  0  0  0
  182.2940  175.7890  137.1420 C   0  0  0  0  0  3  0  0  0  0  0  0
  184.3460  175.9470  135.8380 C   0  0  0  0  0  0  0  0  0  0  0  0
  182.8310  174.0640  135.5420 C   0  0  0  0  0  3  0  0  0  0  0  0
  183.4730  176.4720  136.8220 C   0  0  0  0  0  0  0  0  0  0  0  0
  181.9590  174.5890  136.5030 C   0  0  0  0  0  0  0  0  0  0  0  0
  184.0100  174.7350  135.2160 C   0  0  0  0  0  3  0  0  0  0  0  0
  185.7250  177.8960  134.8920 C   0  0  0  0  0  3  0  0  0  0  0  0
  185.6020  176.6290  135.4310 C   0  0  2  0  0  3  0  0  0  0  0  0
  187.0190  178.1490  134.6040 N   0  0  0  0  0  0  0  0  0  0  0  0
  186.8790  176.1060  135.4560 C   0  0  0  0  0  0  0  0  0  0  0  0
  187.7340  177.0600  134.9460 C   0  0  0  0  0  3  0  0  0  0  0  0
  187.2330  174.8410  135.9320 O   0  0  0  0  0  0  0  0  0  0  0  0
  187.8560  174.6500  137.1970 C   0  0  0  0  0  2  0  0  0  0  0  0
  189.7830  172.9230  135.9270 N   0  0  0  0  0  2  0  0  0  0  0  0
  190.1860  174.0600  136.3900 C   0  0  0  0  0  0  0  0  0  0  0  0
  189.2850  174.9200  137.0950 N   0  0  0  0  0  2  0  0  0  0  0  0
  192.2300  174.6440  137.6480 C   0  0  0  0  0  1  0  0  0  0  0  0
  191.6270  174.4260  136.2730 C   0  0  2  0  0  3  0  0  0  0  0  0
  191.7650  175.5870  135.5130 O   0  0  0  0  0  1  0  0  0  0  0  0
  179.5950  174.6200  137.0100 O   0  0  0  0  0  1  0  0  0  0  0  0
  180.6780  172.4640  136.9480 C   0  0  0  0  0  1  0  0  0  0  0  0
  180.7360  173.9120  136.8390 N   0  0  0  0  0  0  0  0  0  0  0  0
  190.1830  177.6930  142.5120 C   0  0  0  0  0  0  0  0  0  0  0  0
  191.1600  178.4890  142.5120 O   0  0  0  0  0  0  0  0  0  0  0  0
  190.2480  176.5060  143.3950 C   0  0  0  0  0  0  0  0  0  0  0  0
  190.3190  175.3440  142.9080 O   0  0  0  0  0  0  0  0  0  0  0  0
  190.2540  176.6840  144.8830 C   0  0  1  0  0  3  0  0  0  0  0  0
  191.6060  176.9460  145.3560 N   0  0  0  0  0  2  0  0  0  0  0  0
  192.0700  175.7920  145.8900 O   0  0  0  0  0  0  0  0  0  0  0  0
  191.6400  175.8220  147.2180 C   0  0  0  0  0  2  0  0  0  0  0  0
  192.8420  175.8290  148.1390 C   0  0  0  0  0  1  0  0  0  0  0  0
  189.3250  177.8270  145.2620 C   0  0  0  0  0  2  0  0  0  0  0  0
  187.8900  177.3380  145.3620 C   0  0  0  0  0  2  0  0  0  0  0  0
  187.2160  177.9080  146.6010 C   0  0  0  0  0  2  0  0  0  0  0  0
  183.2090  179.2620  145.3520 N   0  0  0  0  0  2  0  0  0  0  0  0
  185.9170  178.5550  146.2600 C   0  0  0  0  0  0  0  0  0  0  0  0
  183.7350  178.7540  143.0660 C   0  0  0  0  0  1  0  0  0  0  0  0
  185.3120  179.2300  147.1350 O   0  0  0  0  0  0  0  0  0  0  0  0
  184.0990  178.8670  144.5030 C   0  0  0  0  0  0  0  0  0  0  0  0
  185.3920  178.4260  144.9330 N   0  0  0  0  0  2  0  0  0  0  0  0
  2  1  1  0  0  0  0
  2 35  1  0  0  0  0
  3  7  1  0  0  0  0
  4  5  1  0  0  0  0
  5  1  2  0  0  0  0
  6  4  2  0  0  0  0
  6  7  1  0  0  0  0
  7  2  2  0  0  0  0
  8  6  1  0  0  0  0
  9 11  2  0  0  0  0
  9  4  1  0  0  0  0
 10  9  1  0  0  0  0
 12 10  1  0  0  0  0
 14 16  2  0  0  0  0
 15 17  1  0  0  0  0
 16 13  1  0  0  0  0
 16 12  1  0  0  0  0
 17 34  1  0  0  0  0
 17 13  2  0  0  0  0
 18 15  2  0  0  0  0
 18 14  1  0  0  0  0
 19 20  1  0  0  0  0
 20 22  1  0  0  0  0
 20 14  1  6  0  0  0
 21 19  2  0  0  0  0
 21 23  1  0  0  0  0
 22 24  1  0  0  0  0
 23 22  2  0  0  0  0
 24 25  1  0  0  0  0
 26 27  2  0  0  0  0
 27 28  1  0  0  0  0
 28 25  1  0  0  0  0
 30 27  1  0  0  0  0
 30 29  1  1  0  0  0
 31 30  1  0  0  0  0
 34 33  1  0  0  0  0
 34 32  1  0  0  0  0
 35 36  2  0  0  0  0
 35 37  1  0  0  0  0
 37 39  1  0  0  0  0
 38 37  2  0  0  0  0
 39 44  1  6  0  0  0
 39 40  1  0  0  0  0
 40 41  1  0  0  0  0
 41 42  1  0  0  0  0
 42 43  1  0  0  0  0
 44 45  1  0  0  0  0
 45 46  1  0  0  0  0
 48 46  1  0  0  0  0
 48 50  2  0  0  0  0
 49 51  1  0  0  0  0
 51 52  1  0  0  0  0
 51 47  2  0  0  0  0
 52 48  1  0  0  0  0
M  END
>  <MODEL>
2

>  <REMARK>
 VINA RESULT:      -7.2      3.060      5.834
  Name = 
  19 active torsions:
  status: ('A' for Active; 'I' for Inactive)
    1  A    between atoms: O_1  and  C_20
    2  A    between atoms: O_1  and  C_36
    3  A    between atoms: C_2  and  C_23
    4  A    between atoms: C_2  and  C_25
    5  A    between atoms: C_3  and  C_9
    6  A    between atoms: C_3  and  C_18
    7  A    between atoms: C_5  and  C_12
    8  A    between atoms: O_6  and  N_21
    9  A    between atoms: O_6  and  C_35
   10  A    between atoms: C_9  and  C_23
   11  A    between atoms: C_13  and  C_16
   12  A    between atoms: C_17  and  C_22
   13  A    between atoms: C_17  and  C_25
   14  A    between atoms: N_21  and  C_23
   15  A    between atoms: C_27  and  C_28
   16  A    between atoms: N_31  and  C_43
   17  A    between atoms: C_32  and  C_43
   18  A    between atoms: C_34  and  N_49
   19  A    between atoms: C_36  and  N_37
                            x       y       z     vdW  Elec       q    Type
                         _______ _______ _______ _____ _____    ______ ____

>  <TORSDO>
F 19

$$$$
=
 OpenBabel11032419583D

 52 54  0  0  1  0  0  0  0  0999 V2000
  188.5940  178.2650  141.9900 C   0  0  0  0  0  3  0  0  0  0  0  0
  189.9480  177.9470  141.8190 C   0  0  0  0  0  0  0  0  0  0  0  0
  191.8430  177.2960  140.2510 C   0  0  0  0  0  1  0  0  0  0  0  0
  188.1490  177.9200  139.6310 C   0  0  0  0  0  0  0  0  0  0  0  0
  187.7100  178.2550  140.9140 C   0  0  0  0  0  3  0  0  0  0  0  0
  189.5090  177.6060  139.4350 C   0  0  0  0  0  0  0  0  0  0  0  0
  190.4060  177.6170  140.5200 C   0  0  0  0  0  0  0  0  0  0  0  0
  189.9750  177.3050  138.1940 F   0  0  0  0  0  0  0  0  0  0  0  0
  187.1660  177.8980  138.5240 C   0  0  0  0  0  0  0  0  0  0  0  0
  186.9380  176.7000  137.7750 N   0  0  0  0  0  2  0  0  0  0  0  0
  186.4950  178.9330  138.2620 O   0  0  0  0  0  0  0  0  0  0  0  0
  185.9780  176.6320  136.6830 C   0  0  0  0  0  2  0  0  0  0  0  0
  184.8590  174.4700  136.1960 C   0  0  0  0  0  3  0  0  0  0  0  0
  187.1300  174.7740  135.3670 C   0  0  0  0  0  0  0  0  0  0  0  0
  185.9440  172.6810  134.9960 C   0  0  0  0  0  3  0  0  0  0  0  0
  185.9980  175.2720  136.0570 C   0  0  0  0  0  0  0  0  0  0  0  0
  184.8170  173.1770  135.6630 C   0  0  0  0  0  0  0  0  0  0  0  0
  187.0850  173.4700  134.8520 C   0  0  0  0  0  3  0  0  0  0  0  0
  188.4430  176.8790  134.7040 C   0  0  0  0  0  3  0  0  0  0  0  0
  188.3640  175.5770  135.1610 C   0  0  2  0  0  3  0  0  0  0  0  0
  189.7370  177.2510  134.5990 N   0  0  0  0  0  0  0  0  0  0  0  0
  189.6670  175.1560  135.3270 C   0  0  0  0  0  0  0  0  0  0  0  0
  190.4940  176.2030  134.9790 C   0  0  0  0  0  3  0  0  0  0  0  0
  190.0670  173.8980  135.7830 O   0  0  0  0  0  0  0  0  0  0  0  0
  190.4270  173.6580  137.1390 C   0  0  0  0  0  2  0  0  0  0  0  0
  193.1780  173.0000  136.5820 N   0  0  0  0  0  2  0  0  0  0  0  0
  192.9160  174.1380  137.1380 C   0  0  0  0  0  0  0  0  0  0  0  0
  191.5750  174.4790  137.5020 N   0  0  0  0  0  2  0  0  0  0  0  0
  194.8480  175.3960  136.2520 C   0  0  0  0  0  1  0  0  0  0  0  0
  194.0410  175.0530  137.4900 C   0  0  2  0  0  3  0  0  0  0  0  0
  194.8690  174.4480  138.4350 O   0  0  0  0  0  1  0  0  0  0  0  0
  183.5650  171.4320  136.7750 O   0  0  0  0  0  1  0  0  0  0  0  0
  182.4660  172.5920  134.9660 C   0  0  0  0  0  1  0  0  0  0  0  0
  183.6320  172.3770  135.8070 N   0  0  0  0  0  0  0  0  0  0  0  0
  190.8410  177.9300  143.0140 C   0  0  0  0  0  0  0  0  0  0  0  0
  191.5300  178.9490  143.2890 O   0  0  0  0  0  0  0  0  0  0  0  0
  190.9720  176.7410  143.8880 C   0  0  0  0  0  0  0  0  0  0  0  0
  191.4580  175.6650  143.4430 O   0  0  0  0  0  0  0  0  0  0  0  0
  190.5430  176.8200  145.3220 C   0  0  1  0  0  3  0  0  0  0  0  0
  191.6910  177.0790  146.1790 N   0  0  0  0  0  2  0  0  0  0  0  0
  191.7880  176.0370  147.0380 O   0  0  0  0  0  0  0  0  0  0  0  0
  192.1820  176.6150  148.2470 C   0  0  0  0  0  2  0  0  0  0  0  0
  193.2270  175.7410  148.9080 C   0  0  0  0  0  1  0  0  0  0  0  0
  189.5000  177.9150  145.4810 C   0  0  0  0  0  2  0  0  0  0  0  0
  188.1040  177.3170  145.5530 C   0  0  0  0  0  2  0  0  0  0  0  0
  187.3360  177.8930  146.7320 C   0  0  0  0  0  2  0  0  0  0  0  0
  183.4110  179.1430  145.1550 N   0  0  0  0  0  2  0  0  0  0  0  0
  186.0490  178.5030  146.2920 C   0  0  0  0  0  0  0  0  0  0  0  0
  184.1700  178.7440  142.9130 C   0  0  0  0  0  1  0  0  0  0  0  0
  185.3370  179.1210  147.1280 O   0  0  0  0  0  0  0  0  0  0  0  0
  184.3920  178.8140  144.3810 C   0  0  0  0  0  0  0  0  0  0  0  0
  185.6570  178.4060  144.9170 N   0  0  0  0  0  2  0  0  0  0  0  0
  2  1  1  0  0  0  0
  2 35  1  0  0  0  0
  3  7  1  0  0  0  0
  4  5  1  0  0  0  0
  5  1  2  0  0  0  0
  6  4  2  0  0  0  0
  6  7  1  0  0  0  0
  7  2  2  0  0  0  0
  8  6  1  0  0  0  0
  9  4  1  0  0  0  0
 10  9  1  0  0  0  0
 11  9  2  0  0  0  0
 12 10  1  0  0  0  0
 14 16  2  0  0  0  0
 15 17  1  0  0  0  0
 16 13  1  0  0  0  0
 16 12  1  0  0  0  0
 17 34  1  0  0  0  0
 17 13  2  0  0  0  0
 18 15  2  0  0  0  0
 18 14  1  0  0  0  0
 19 20  1  0  0  0  0
 20 22  1  0  0  0  0
 20 14  1  6  0  0  0
 21 19  2  0  0  0  0
 21 23  1  0  0  0  0
 22 24  1  0  0  0  0
 23 22  2  0  0  0  0
 24 25  1  0  0  0  0
 25 28  1  0  0  0  0
 26 27  2  0  0  0  0
 27 30  1  0  0  0  0
 27 28  1  0  0  0  0
 30 29  1  6  0  0  0
 30 31  1  0  0  0  0
 33 34  1  0  0  0  0
 34 32  1  0  0  0  0
 35 36  2  0  0  0  0
 35 37  1  0  0  0  0
 37 39  1  0  0  0  0
 38 37  2  0  0  0  0
 39 44  1  6  0  0  0
 39 40  1  0  0  0  0
 40 41  1  0  0  0  0
 41 42  1  0  0  0  0
 42 43  1  0  0  0  0
 44 45  1  0  0  0  0
 45 46  1  0  0  0  0
 48 46  1  0  0  0  0
 48 50  2  0  0  0  0
 49 51  1  0  0  0  0
 51 52  1  0  0  0  0
 51 47  2  0  0  0  0
 52 48  1  0  0  0  0
M  END
>  <MODEL>
3

>  <REMARK>
 VINA RESULT:      -7.1      3.881      7.204
  Name = 
  19 active torsions:
  status: ('A' for Active; 'I' for Inactive)
    1  A    between atoms: O_1  and  C_20
    2  A    between atoms: O_1  and  C_36
    3  A    between atoms: C_2  and  C_23
    4  A    between atoms: C_2  and  C_25
    5  A    between atoms: C_3  and  C_9
    6  A    between atoms: C_3  and  C_18
    7  A    between atoms: C_5  and  C_12
    8  A    between atoms: O_6  and  N_21
    9  A    between atoms: O_6  and  C_35
   10  A    between atoms: C_9  and  C_23
   11  A    between atoms: C_13  and  C_16
   12  A    between atoms: C_17  and  C_22
   13  A    between atoms: C_17  and  C_25
   14  A    between atoms: N_21  and  C_23
   15  A    between atoms: C_27  and  C_28
   16  A    between atoms: N_31  and  C_43
   17  A    between atoms: C_32  and  C_43
   18  A    between atoms: C_34  and  N_49
   19  A    between atoms: C_36  and  N_37
                            x       y       z     vdW  Elec       q    Type
                         _______ _______ _______ _____ _____    ______ ____

>  <TORSDO>
F 19

$$$$
=
 OpenBabel11032419583D

 52 54  0  0  1  0  0  0  0  0999 V2000
  190.4200  176.7090  137.9140 C   0  0  0  0  0  3  0  0  0  0  0  0
  191.7770  176.7370  138.2620 C   0  0  0  0  0  0  0  0  0  0  0  0
  193.5480  177.0670  140.0580 C   0  0  0  0  0  1  0  0  0  0  0  0
  189.7600  177.2980  140.1720 C   0  0  0  0  0  0  0  0  0  0  0  0
  189.4280  176.9810  138.8520 C   0  0  0  0  0  3  0  0  0  0  0  0
  191.1190  177.3240  140.5460 C   0  0  0  0  0  0  0  0  0  0  0  0
  192.1240  177.0460  139.6010 C   0  0  0  0  0  0  0  0  0  0  0  0
  191.4750  177.5990  141.8290 F   0  0  0  0  0  0  0  0  0  0  0  0
  188.6710  177.6070  141.1260 C   0  0  0  0  0  0  0  0  0  0  0  0
  188.4880  176.8150  142.3040 N   0  0  0  0  0  2  0  0  0  0  0  0
  187.9200  178.5980  140.9190 O   0  0  0  0  0  0  0  0  0  0  0  0
  187.4340  177.0860  143.2720 C   0  0  0  0  0  2  0  0  0  0  0  0
  189.3460  176.8930  144.8430 C   0  0  0  0  0  3  0  0  0  0  0  0
  187.2690  177.8290  145.7070 C   0  0  0  0  0  0  0  0  0  0  0  0
  189.1990  177.5450  147.1620 C   0  0  0  0  0  3  0  0  0  0  0  0
  188.0190  177.2880  144.6340 C   0  0  0  0  0  0  0  0  0  0  0  0
  189.9490  177.0250  146.1000 C   0  0  0  0  0  0  0  0  0  0  0  0
  187.8760  177.9400  146.9660 C   0  0  0  0  0  3  0  0  0  0  0  0
  184.8790  178.2970  146.5240 C   0  0  0  0  0  3  0  0  0  0  0  0
  185.8640  178.2890  145.5530 C   0  0  0  0  0  0  0  0  0  0  0  0
  183.7170  178.7380  145.9960 N   0  0  0  0  0  2  0  0  0  0  0  0
  185.2570  178.7380  144.3980 C   0  0  0  0  0  0  0  0  0  0  0  0
  183.9380  179.0120  144.6960 C   0  0  0  0  0  3  0  0  0  0  0  0
  185.8800  178.9000  143.1590 O   0  0  0  0  0  0  0  0  0  0  0  0
  185.2390  179.5430  142.0620 C   0  0  0  0  0  2  0  0  0  0  0  0
  184.5860  179.8140  139.2670 N   0  0  0  0  0  2  0  0  0  0  0  0
  184.2620  178.7190  139.8730 C   0  0  0  0  0  0  0  0  0  0  0  0
  184.4970  178.5660  141.2760 N   0  0  0  0  0  2  0  0  0  0  0  0
  182.6060  178.2690  138.0960 C   0  0  0  0  0  1  0  0  0  0  0  0
  183.5450  177.6520  139.1160 C   0  0  2  0  0  3  0  0  0  0  0  0
  182.8180  176.8500  139.9950 O   0  0  0  0  0  1  0  0  0  0  0  0
  191.9670  176.9490  147.4300 O   0  0  0  0  0  1  0  0  0  0  0  0
  192.0160  175.8270  145.2930 C   0  0  0  0  0  1  0  0  0  0  0  0
  191.3170  176.6260  146.2870 N   0  0  0  0  0  0  0  0  0  0  0  0
  192.7980  176.4810  137.2060 C   0  0  0  0  0  0  0  0  0  0  0  0
  193.9530  176.9710  137.3260 O   0  0  0  0  0  0  0  0  0  0  0  0
  192.5000  175.6850  135.9930 C   0  0  0  0  0  0  0  0  0  0  0  0
  191.9980  176.2310  134.9720 O   0  0  0  0  0  0  0  0  0  0  0  0
  192.8160  174.2200  135.9670 C   0  0  1  0  0  3  0  0  0  0  0  0
  194.1710  173.9870  136.4430 N   0  0  0  0  0  2  0  0  0  0  0  0
  194.1100  172.9710  137.3360 O   0  0  0  0  0  0  0  0  0  0  0  0
  194.9860  173.3470  138.3560 C   0  0  0  0  0  2  0  0  0  0  0  0
  196.3740  173.5460  137.7820 C   0  0  0  0  0  1  0  0  0  0  0  0
  191.8110  173.4680  136.8260 C   0  0  0  0  0  2  0  0  0  0  0  0
  190.6570  172.9600  135.9780 C   0  0  0  0  0  2  0  0  0  0  0  0
  189.3260  173.3930  136.5740 C   0  0  0  0  0  2  0  0  0  0  0  0
  187.4470  176.8790  134.6300 N   0  0  0  0  0  2  0  0  0  0  0  0
  188.6800  174.4500  135.7430 C   0  0  0  0  0  0  0  0  0  0  0  0
  185.6570  176.8210  136.2280 C   0  0  0  0  0  1  0  0  0  0  0  0
  189.1340  174.6980  134.5940 O   0  0  0  0  0  0  0  0  0  0  0  0
  186.9020  176.2710  135.6310 C   0  0  0  0  0  0  0  0  0  0  0  0
  187.5340  175.1440  136.2500 N   0  0  0  0  0  2  0  0  0  0  0  0
  1  2  2  0  0  0  0
  1  5  1  0  0  0  0
  2  7  1  0  0  0  0
  4  6  1  0  0  0  0
  4  9  1  0  0  0  0
  5  4  2  0  0  0  0
  6  8  1  0  0  0  0
  7  3  1  0  0  0  0
  7  6  2  0  0  0  0
  9 10  1  0  0  0  0
 10 12  1  0  0  0  0
 11  9  2  0  0  0  0
 12 16  1  0  0  0  0
 13 17  1  0  0  0  0
 14 18  2  0  0  0  0
 16 13  2  0  0  0  0
 16 14  1  0  0  0  0
 17 34  1  0  0  0  0
 17 15  2  0  0  0  0
 18 15  1  0  0  0  0
 20 14  1  0  0  0  0
 20 19  2  0  0  0  0
 21 19  1  0  0  0  0
 22 23  2  0  0  0  0
 22 20  1  0  0  0  0
 23 21  1  0  0  0  0
 24 22  1  0  0  0  0
 25 24  1  0  0  0  0
 26 27  2  0  0  0  0
 27 28  1  0  0  0  0
 28 25  1  0  0  0  0
 30 29  1  6  0  0  0
 30 27  1  0  0  0  0
 30 31  1  0  0  0  0
 33 34  1  0  0  0  0
 34 32  1  0  0  0  0
 35 36  2  0  0  0  0
 35  2  1  0  0  0  0
 37 35  1  0  0  0  0
 38 37  2  0  0  0  0
 39 37  1  0  0  0  0
 39 40  1  0  0  0  0
 39 44  1  1  0  0  0
 40 41  1  0  0  0  0
 41 42  1  0  0  0  0
 43 42  1  0  0  0  0
 45 46  1  0  0  0  0
 45 44  1  0  0  0  0
 47 51  2  0  0  0  0
 48 52  1  0  0  0  0
 48 46  1  0  0  0  0
 50 48  2  0  0  0  0
 51 49  1  0  0  0  0
 51 52  1  0  0  0  0
M  END
>  <MODEL>
4

>  <REMARK>
 VINA RESULT:      -7.1      3.138      9.691
  Name = 
  19 active torsions:
  status: ('A' for Active; 'I' for Inactive)
    1  A    between atoms: O_1  and  C_20
    2  A    between atoms: O_1  and  C_36
    3  A    between atoms: C_2  and  C_23
    4  A    between atoms: C_2  and  C_25
    5  A    between atoms: C_3  and  C_9
    6  A    between atoms: C_3  and  C_18
    7  A    between atoms: C_5  and  C_12
    8  A    between atoms: O_6  and  N_21
    9  A    between atoms: O_6  and  C_35
   10  A    between atoms: C_9  and  C_23
   11  A    between atoms: C_13  and  C_16
   12  A    between atoms: C_17  and  C_22
   13  A    between atoms: C_17  and  C_25
   14  A    between atoms: N_21  and  C_23
   15  A    between atoms: C_27  and  C_28
   16  A    between atoms: N_31  and  C_43
   17  A    between atoms: C_32  and  C_43
   18  A    between atoms: C_34  and  N_49
   19  A    between atoms: C_36  and  N_37
                            x       y       z     vdW  Elec       q    Type
                         _______ _______ _______ _____ _____    ______ ____

>  <TORSDO>
F 19

$$$$
=
 OpenBabel11032419583D

 52 54  0  0  1  0  0  0  0  0999 V2000
  186.2530  178.2250  142.5790 C   0  0  0  0  0  3  0  0  0  0  0  0
  187.4420  177.7820  141.9840 C   0  0  0  0  0  0  0  0  0  0  0  0
  188.8160  177.4500  139.8690 C   0  0  0  0  0  1  0  0  0  0  0  0
  185.3200  178.8250  140.4220 C   0  0  0  0  0  0  0  0  0  0  0  0
  185.2110  178.7410  141.8120 C   0  0  0  0  0  3  0  0  0  0  0  0
  186.5110  178.3930  139.8040 C   0  0  0  0  0  0  0  0  0  0  0  0
  187.5670  177.8740  140.5760 C   0  0  0  0  0  0  0  0  0  0  0  0
  186.6620  178.4890  138.4560 F   0  0  0  0  0  0  0  0  0  0  0  0
  184.1750  179.3550  139.6480 C   0  0  0  0  0  0  0  0  0  0  0  0
  182.9570  178.6110  139.5450 N   0  0  0  0  0  2  0  0  0  0  0  0
  184.2600  180.4890  139.1040 O   0  0  0  0  0  0  0  0  0  0  0  0
  181.8050  179.0960  138.7990 C   0  0  0  0  0  2  0  0  0  0  0  0
  180.5580  179.1340  140.9440 C   0  0  0  0  0  3  0  0  0  0  0  0
  180.1620  180.9590  139.3800 C   0  0  0  0  0  0  0  0  0  0  0  0
  178.9640  180.8580  141.4970 C   0  0  0  0  0  3  0  0  0  0  0  0
  180.8290  179.7570  139.7210 C   0  0  0  0  0  0  0  0  0  0  0  0
  179.6340  179.6790  141.8440 C   0  0  0  0  0  0  0  0  0  0  0  0
  179.2250  181.4880  140.2800 C   0  0  0  0  0  3  0  0  0  0  0  0
  181.1220  182.8660  137.9520 C   0  0  0  0  0  3  0  0  0  0  0  0
  180.4160  181.6870  138.1090 C   0  0  2  0  0  3  0  0  0  0  0  0
  181.0950  183.2470  136.6570 N   0  0  0  0  0  0  0  0  0  0  0  0
  179.9440  181.3610  136.8550 C   0  0  0  0  0  0  0  0  0  0  0  0
  180.3770  182.3320  135.9770 C   0  0  0  0  0  3  0  0  0  0  0  0
  179.1790  180.2360  136.5370 O   0  0  0  0  0  0  0  0  0  0  0  0
  179.6050  179.2700  135.5830 C   0  0  0  0  0  2  0  0  0  0  0  0
  181.7720  177.3830  135.3480 N   0  0  0  0  0  2  0  0  0  0  0  0
  180.7680  177.0770  136.1020 C   0  0  0  0  0  0  0  0  0  0  0  0
  179.6350  177.9460  136.1930 N   0  0  0  0  0  2  0  0  0  0  0  0
  179.9250  175.8410  138.0670 C   0  0  0  0  0  1  0  0  0  0  0  0
  180.7550  175.7590  136.8000 C   0  0  2  0  0  3  0  0  0  0  0  0
  182.0570  175.3760  137.1190 O   0  0  0  0  0  1  0  0  0  0  0  0
  179.6150  177.7010  143.2350 O   0  0  0  0  0  1  0  0  0  0  0  0
  178.9310  179.7750  144.2630 C   0  0  0  0  0  1  0  0  0  0  0  0
  179.3830  179.0290  143.1000 N   0  0  0  0  0  0  0  0  0  0  0  0
  188.5070  177.1980  142.8500 C   0  0  0  0  0  0  0  0  0  0  0  0
  188.3310  176.0650  143.3730 O   0  0  0  0  0  0  0  0  0  0  0  0
  189.7690  177.9150  143.1440 C   0  0  0  0  0  0  0  0  0  0  0  0
  189.7770  179.1670  143.3000 O   0  0  0  0  0  0  0  0  0  0  0  0
  191.0480  177.1460  143.2820 C   0  0  1  0  0  3  0  0  0  0  0  0
  192.0640  177.6900  142.3940 N   0  0  0  0  0  2  0  0  0  0  0  0
  191.6370  177.4800  141.1260 O   0  0  0  0  0  0  0  0  0  0  0  0
  192.8090  177.3920  140.3720 C   0  0  0  0  0  2  0  0  0  0  0  0
  192.5020  176.7510  139.0350 C   0  0  0  0  0  1  0  0  0  0  0  0
  191.5190  177.1960  144.7270 C   0  0  0  0  0  2  0  0  0  0  0  0
  192.0660  175.8460  145.1590 C   0  0  0  0  0  2  0  0  0  0  0  0
  191.8730  175.6440  146.6540 C   0  0  0  0  0  2  0  0  0  0  0  0
  188.8380  178.2840  148.4630 N   0  0  0  0  0  2  0  0  0  0  0  0
  190.9850  176.6950  147.2300 C   0  0  0  0  0  0  0  0  0  0  0  0
  187.2680  177.6730  146.7530 C   0  0  0  0  0  1  0  0  0  0  0  0
  191.4550  177.5170  148.0610 O   0  0  0  0  0  0  0  0  0  0  0  0
  188.6190  177.6300  147.3700 C   0  0  0  0  0  0  0  0  0  0  0  0
  189.6190  176.7740  146.8050 N   0  0  0  0  0  2  0  0  0  0  0  0
  2  1  1  0  0  0  0
  2 35  1  0  0  0  0
  3  7  1  0  0  0  0
  4  5  1  0  0  0  0
  5  1  2  0  0  0  0
  6  4  2  0  0  0  0
  6  7  1  0  0  0  0
  7  2  2  0  0  0  0
  8  6  1  0  0  0  0
  9  4  1  0  0  0  0
 10  9  1  0  0  0  0
 11  9  2  0  0  0  0
 12 10  1  0  0  0  0
 12 16  1  0  0  0  0
 13 17  1  0  0  0  0
 14 16  1  0  0  0  0
 14 18  2  0  0  0  0
 15 17  2  0  0  0  0
 16 13  2  0  0  0  0
 17 34  1  0  0  0  0
 18 15  1  0  0  0  0
 19 20  1  0  0  0  0
 20 14  1  1  0  0  0
 21 19  2  0  0  0  0
 22 20  1  0  0  0  0
 23 21  1  0  0  0  0
 23 22  2  0  0  0  0
 24 22  1  0  0  0  0
 25 28  1  0  0  0  0
 25 24  1  0  0  0  0
 26 27  2  0  0  0  0
 27 28  1  0  0  0  0
 27 30  1  0  0  0  0
 30 31  1  0  0  0  0
 30 29  1  1  0  0  0
 34 32  1  0  0  0  0
 34 33  1  0  0  0  0
 35 37  1  0  0  0  0
 35 36  2  0  0  0  0
 37 39  1  0  0  0  0
 37 38  2  0  0  0  0
 39 44  1  1  0  0  0
 40 39  1  0  0  0  0
 41 40  1  0  0  0  0
 42 41  1  0  0  0  0
 43 42  1  0  0  0  0
 44 45  1  0  0  0  0
 45 46  1  0  0  0  0
 46 48  1  0  0  0  0
 48 50  2  0  0  0  0
 49 51  1  0  0  0  0
 51 47  2  0  0  0  0
 52 48  1  0  0  0  0
 52 51  1  0  0  0  0
M  END
>  <MODEL>
5

>  <REMARK>
 VINA RESULT:      -6.6      2.379      5.838
  Name = 
  19 active torsions:
  status: ('A' for Active; 'I' for Inactive)
    1  A    between atoms: O_1  and  C_20
    2  A    between atoms: O_1  and  C_36
    3  A    between atoms: C_2  and  C_23
    4  A    between atoms: C_2  and  C_25
    5  A    between atoms: C_3  and  C_9
    6  A    between atoms: C_3  and  C_18
    7  A    between atoms: C_5  and  C_12
    8  A    between atoms: O_6  and  N_21
    9  A    between atoms: O_6  and  C_35
   10  A    between atoms: C_9  and  C_23
   11  A    between atoms: C_13  and  C_16
   12  A    between atoms: C_17  and  C_22
   13  A    between atoms: C_17  and  C_25
   14  A    between atoms: N_21  and  C_23
   15  A    between atoms: C_27  and  C_28
   16  A    between atoms: N_31  and  C_43
   17  A    between atoms: C_32  and  C_43
   18  A    between atoms: C_34  and  N_49
   19  A    between atoms: C_36  and  N_37
                            x       y       z     vdW  Elec       q    Type
                         _______ _______ _______ _____ _____    ______ ____

>  <TORSDO>
F 19

$$$$
=
 OpenBabel11032419583D

 52 54  0  0  1  0  0  0  0  0999 V2000
  183.2230  178.9690  140.5440 C   0  0  0  0  0  3  0  0  0  0  0  0
  182.8120  178.9580  141.8830 C   0  0  0  0  0  0  0  0  0  0  0  0
  183.4450  178.8790  144.3450 C   0  0  0  0  0  1  0  0  0  0  0  0
  185.5540  178.7850  141.1890 C   0  0  0  0  0  0  0  0  0  0  0  0
  184.5710  178.8870  140.2020 C   0  0  0  0  0  3  0  0  0  0  0  0
  185.1630  178.7810  142.5430 C   0  0  0  0  0  0  0  0  0  0  0  0
  183.8020  178.8660  142.8920 C   0  0  0  0  0  0  0  0  0  0  0  0
  186.0960  178.7130  143.5290 F   0  0  0  0  0  0  0  0  0  0  0  0
  186.9710  178.6740  140.7750 C   0  0  0  0  0  0  0  0  0  0  0  0
  187.3130  178.2670  139.4460 N   0  0  0  0  0  2  0  0  0  0  0  0
  187.8860  178.9730  141.5900 O   0  0  0  0  0  0  0  0  0  0  0  0
  188.6920  178.1490  138.9950 C   0  0  0  0  0  2  0  0  0  0  0  0
  187.8000  176.3390  137.5510 C   0  0  0  0  0  3  0  0  0  0  0  0
  190.1190  176.1600  138.2770 C   0  0  0  0  0  0  0  0  0  0  0  0
  189.1150  174.4250  136.8970 C   0  0  0  0  0  3  0  0  0  0  0  0
  188.8900  176.8630  138.2560 C   0  0  0  0  0  0  0  0  0  0  0  0
  187.9030  175.1250  136.8610 C   0  0  0  0  0  0  0  0  0  0  0  0
  190.2070  174.9360  137.5970 C   0  0  0  0  0  3  0  0  0  0  0  0
  192.5900  176.8370  138.4570 C   0  0  0  0  0  3  0  0  0  0  0  0
  191.3230  176.6670  138.9850 C   0  0  0  0  0  0  0  0  0  0  0  0
  193.4340  177.2690  139.4190 N   0  0  0  0  0  2  0  0  0  0  0  0
  191.4230  177.0060  140.3190 C   0  0  0  0  0  0  0  0  0  0  0  0
  192.7290  177.3760  140.5620 C   0  0  0  0  0  3  0  0  0  0  0  0
  190.3780  176.9890  141.2460 O   0  0  0  0  0  0  0  0  0  0  0  0
  190.3900  176.1470  142.3930 C   0  0  0  0  0  2  0  0  0  0  0  0
  190.9330  176.9260  145.1150 N   0  0  0  0  0  2  0  0  0  0  0  0
  189.7240  177.0400  144.6710 C   0  0  0  0  0  0  0  0  0  0  0  0
  189.3890  176.5970  143.3510 N   0  0  0  0  0  2  0  0  0  0  0  0
  189.0950  177.4160  147.0290 C   0  0  0  0  0  1  0  0  0  0  0  0
  188.6570  177.5440  145.5820 C   0  0  2  0  0  3  0  0  0  0  0  0
  187.4800  176.8210  145.3850 O   0  0  0  0  0  1  0  0  0  0  0  0
  186.8630  174.4200  134.7950 O   0  0  0  0  0  1  0  0  0  0  0  0
  185.5430  174.2410  136.8070 C   0  0  0  0  0  1  0  0  0  0  0  0
  186.7750  174.6130  136.1320 N   0  0  0  0  0  0  0  0  0  0  0  0
  181.3530  179.0030  142.1890 C   0  0  0  0  0  0  0  0  0  0  0  0
  180.8670  178.1870  143.0170 O   0  0  0  0  0  0  0  0  0  0  0  0
  180.4360  179.9640  141.5340 C   0  0  0  0  0  0  0  0  0  0  0  0
  179.9270  180.9160  142.1870 O   0  0  0  0  0  0  0  0  0  0  0  0
  180.1250  179.8190  140.0750 C   0  0  1  0  0  3  0  0  0  0  0  0
  178.9750  178.9470  139.8870 N   0  0  0  0  0  2  0  0  0  0  0  0
  179.2180  178.2010  138.7830 O   0  0  0  0  0  0  0  0  0  0  0  0
  178.9310  176.8920  139.1740 C   0  0  0  0  0  2  0  0  0  0  0  0
  180.1110  176.3200  139.9310 C   0  0  0  0  0  1  0  0  0  0  0  0
  179.8600  181.1900  139.4730 C   0  0  0  0  0  2  0  0  0  0  0  0
  180.7700  181.4360  138.2810 C   0  0  0  0  0  2  0  0  0  0  0  0
  180.0730  181.0490  136.9870 C   0  0  0  0  0  2  0  0  0  0  0  0
  182.1620  177.6700  135.0710 N   0  0  0  0  0  2  0  0  0  0  0  0
  180.8740  180.0540  136.2180 C   0  0  0  0  0  0  0  0  0  0  0  0
  183.1340  177.0590  137.1780 C   0  0  0  0  0  1  0  0  0  0  0  0
  180.9060  180.1220  134.9610 O   0  0  0  0  0  0  0  0  0  0  0  0
  182.3160  177.9560  136.3210 C   0  0  0  0  0  0  0  0  0  0  0  0
  181.6220  179.0560  136.9220 N   0  0  0  0  0  2  0  0  0  0  0  0
  1  2  1  0  0  0  0
  2 35  1  0  0  0  0
  2  7  2  0  0  0  0
  4  6  2  0  0  0  0
  5  1  2  0  0  0  0
  5  4  1  0  0  0  0
  6  7  1  0  0  0  0
  6  8  1  0  0  0  0
  7  3  1  0  0  0  0
  9  4  1  0  0  0  0
  9 11  2  0  0  0  0
 10  9  1  0  0  0  0
 12 10  1  0  0  0  0
 13 16  1  0  0  0  0
 14 20  1  0  0  0  0
 15 18  2  0  0  0  0
 16 14  2  0  0  0  0
 16 12  1  0  0  0  0
 17 15  1  0  0  0  0
 17 13  2  0  0  0  0
 18 14  1  0  0  0  0
 19 20  2  0  0  0  0
 19 21  1  0  0  0  0
 20 22  1  0  0  0  0
 21 23  1  0  0  0  0
 22 23  2  0  0  0  0
 22 24  1  0  0  0  0
 24 25  1  0  0  0  0
 25 28  1  0  0  0  0
 27 26  2  0  0  0  0
 27 30  1  0  0  0  0
 28 27  1  0  0  0  0
 30 29  1  1  0  0  0
 31 30  1  0  0  0  0
 32 34  1  0  0  0  0
 34 33  1  0  0  0  0
 34 17  1  0  0  0  0
 35 36  2  0  0  0  0
 37 38  2  0  0  0  0
 37 35  1  0  0  0  0
 39 44  1  1  0  0  0
 39 37  1  0  0  0  0
 40 39  1  0  0  0  0
 41 42  1  0  0  0  0
 41 40  1  0  0  0  0
 42 43  1  0  0  0  0
 45 44  1  0  0  0  0
 46 45  1  0  0  0  0
 47 51  2  0  0  0  0
 48 52  1  0  0  0  0
 48 46  1  0  0  0  0
 50 48  2  0  0  0  0
 51 52  1  0  0  0  0
 51 49  1  0  0  0  0
M  END
>  <MODEL>
6

>  <REMARK>
 VINA RESULT:      -6.5      2.068      9.283
  Name = 
  19 active torsions:
  status: ('A' for Active; 'I' for Inactive)
    1  A    between atoms: O_1  and  C_20
    2  A    between atoms: O_1  and  C_36
    3  A    between atoms: C_2  and  C_23
    4  A    between atoms: C_2  and  C_25
    5  A    between atoms: C_3  and  C_9
    6  A    between atoms: C_3  and  C_18
    7  A    between atoms: C_5  and  C_12
    8  A    between atoms: O_6  and  N_21
    9  A    between atoms: O_6  and  C_35
   10  A    between atoms: C_9  and  C_23
   11  A    between atoms: C_13  and  C_16
   12  A    between atoms: C_17  and  C_22
   13  A    between atoms: C_17  and  C_25
   14  A    between atoms: N_21  and  C_23
   15  A    between atoms: C_27  and  C_28
   16  A    between atoms: N_31  and  C_43
   17  A    between atoms: C_32  and  C_43
   18  A    between atoms: C_34  and  N_49
   19  A    between atoms: C_36  and  N_37
                            x       y       z     vdW  Elec       q    Type
                         _______ _______ _______ _____ _____    ______ ____

>  <TORSDO>
F 19

$$$$
=
 OpenBabel11032419583D

 52 54  0  0  1  0  0  0  0  0999 V2000
  182.4420  179.2920  143.7750 C   0  0  0  0  0  3  0  0  0  0  0  0
  183.8290  179.2980  143.5820 C   0  0  0  0  0  0  0  0  0  0  0  0
  185.8010  178.9680  142.0090 C   0  0  0  0  0  1  0  0  0  0  0  0
  182.0590  178.6000  141.4820 C   0  0  0  0  0  0  0  0  0  0  0  0
  181.5710  178.9520  142.7430 C   0  0  0  0  0  3  0  0  0  0  0  0
  183.4520  178.6090  141.2630 C   0  0  0  0  0  0  0  0  0  0  0  0
  184.3350  178.9540  142.3030 C   0  0  0  0  0  0  0  0  0  0  0  0
  183.9580  178.3010  140.0400 F   0  0  0  0  0  0  0  0  0  0  0  0
  181.0950  178.2210  140.4250 C   0  0  0  0  0  0  0  0  0  0  0  0
  180.9880  178.9910  139.2240 N   0  0  0  0  0  2  0  0  0  0  0  0
  180.3850  177.1880  140.5670 O   0  0  0  0  0  0  0  0  0  0  0  0
  180.0580  178.6510  138.1570 C   0  0  0  0  0  2  0  0  0  0  0  0
  180.1240  180.8460  137.0000 C   0  0  0  0  0  3  0  0  0  0  0  0
  180.8040  178.8830  135.7280 C   0  0  0  0  0  0  0  0  0  0  0  0
  180.7790  181.0860  134.6910 C   0  0  0  0  0  3  0  0  0  0  0  0
  180.3470  179.4660  136.9350 C   0  0  0  0  0  0  0  0  0  0  0  0
  180.3440  181.6670  135.8880 C   0  0  0  0  0  0  0  0  0  0  0  0
  181.0040  179.7110  134.6130 C   0  0  0  0  0  3  0  0  0  0  0  0
  180.1660  176.4240  135.3540 C   0  0  0  0  0  3  0  0  0  0  0  0
  181.0840  177.4300  135.5920 C   0  0  2  0  0  3  0  0  0  0  0  0
  180.7890  175.2260  135.3460 N   0  0  0  0  0  0  0  0  0  0  0  0
  182.3020  176.8000  135.7390 C   0  0  0  0  0  0  0  0  0  0  0  0
  182.0980  175.4460  135.5800 C   0  0  0  0  0  3  0  0  0  0  0  0
  183.5230  177.4320  135.9880 O   0  0  0  0  0  0  0  0  0  0  0  0
  184.7500  176.9610  135.4420 C   0  0  0  0  0  2  0  0  0  0  0  0
  186.7110  175.6640  137.1100 N   0  0  0  0  0  2  0  0  0  0  0  0
  186.8570  176.9220  136.8510 C   0  0  0  0  0  0  0  0  0  0  0  0
  185.8720  177.6280  136.0900 N   0  0  0  0  0  2  0  0  0  0  0  0
  188.3350  177.1190  138.8210 C   0  0  0  0  0  1  0  0  0  0  0  0
  188.0140  177.6580  137.4400 C   0  0  2  0  0  3  0  0  0  0  0  0
  187.7190  179.0190  137.5260 O   0  0  0  0  0  1  0  0  0  0  0  0
  179.8960  183.6550  137.1900 O   0  0  0  0  0  1  0  0  0  0  0  0
  180.1810  183.9400  134.8100 C   0  0  0  0  0  1  0  0  0  0  0  0
  180.1200  183.0830  135.9820 N   0  0  0  0  0  0  0  0  0  0  0  0
  184.7170  179.6270  144.7350 C   0  0  0  0  0  0  0  0  0  0  0  0
  185.2680  180.7590  144.7900 O   0  0  0  0  0  0  0  0  0  0  0  0
  185.0000  178.6570  145.8170 C   0  0  0  0  0  0  0  0  0  0  0  0
  184.0730  178.2310  146.5590 O   0  0  0  0  0  0  0  0  0  0  0  0
  186.3980  178.1580  146.0220 C   0  0  1  0  0  3  0  0  0  0  0  0
  186.5240  177.5260  147.3270 N   0  0  0  0  0  2  0  0  0  0  0  0
  187.8330  177.2300  147.5010 O   0  0  0  0  0  0  0  0  0  0  0  0
  188.2470  178.0650  148.5400 C   0  0  0  0  0  2  0  0  0  0  0  0
  189.7470  178.2570  148.4680 C   0  0  0  0  0  1  0  0  0  0  0  0
  186.7550  177.1760  144.9170 C   0  0  0  0  0  2  0  0  0  0  0  0
  187.8820  177.7250  144.0570 C   0  0  0  0  0  2  0  0  0  0  0  0
  188.3160  176.6960  143.0250 C   0  0  0  0  0  2  0  0  0  0  0  0
  192.1620  174.9950  144.3570 N   0  0  0  0  0  2  0  0  0  0  0  0
  189.6980  176.2060  143.2980 C   0  0  0  0  0  0  0  0  0  0  0  0
  192.0580  176.3020  146.3680 C   0  0  0  0  0  1  0  0  0  0  0  0
  190.3430  175.6290  142.3830 O   0  0  0  0  0  0  0  0  0  0  0  0
  191.5340  175.8970  145.0370 C   0  0  0  0  0  0  0  0  0  0  0  0
  190.2830  176.4300  144.5870 N   0  0  0  0  0  2  0  0  0  0  0  0
  2  1  1  0  0  0  0
  2 35  1  0  0  0  0
  3  7  1  0  0  0  0
  4  5  1  0  0  0  0
  5  1  2  0  0  0  0
  6  4  2  0  0  0  0
  6  7  1  0  0  0  0
  7  2  2  0  0  0  0
  8  6  1  0  0  0  0
  9 11  2  0  0  0  0
  9  4  1  0  0  0  0
 10  9  1  0  0  0  0
 12 10  1  0  0  0  0
 14 16  2  0  0  0  0
 15 17  1  0  0  0  0
 16 13  1  0  0  0  0
 16 12  1  0  0  0  0
 17 34  1  0  0  0  0
 17 13  2  0  0  0  0
 18 15  2  0  0  0  0
 18 14  1  0  0  0  0
 19 20  1  0  0  0  0
 20 14  1  1  0  0  0
 20 22  1  0  0  0  0
 21 19  2  0  0  0  0
 21 23  1  0  0  0  0
 22 24  1  0  0  0  0
 23 22  2  0  0  0  0
 25 24  1  0  0  0  0
 25 28  1  0  0  0  0
 27 26  2  0  0  0  0
 27 30  1  0  0  0  0
 28 27  1  0  0  0  0
 30 31  1  0  0  0  0
 30 29  1  1  0  0  0
 33 34  1  0  0  0  0
 34 32  1  0  0  0  0
 35 36  2  0  0  0  0
 35 37  1  0  0  0  0
 37 39  1  0  0  0  0
 37 38  2  0  0  0  0
 39 44  1  6  0  0  0
 39 40  1  0  0  0  0
 40 41  1  0  0  0  0
 41 42  1  0  0  0  0
 43 42  1  0  0  0  0
 45 44  1  0  0  0  0
 46 48  1  0  0  0  0
 46 45  1  0  0  0  0
 47 51  2  0  0  0  0
 48 52  1  0  0  0  0
 50 48  2  0  0  0  0
 51 49  1  0  0  0  0
 52 51  1  0  0  0  0
M  END
>  <MODEL>
7

>  <REMARK>
 VINA RESULT:      -6.5      2.043      2.595
  Name = 
  19 active torsions:
  status: ('A' for Active; 'I' for Inactive)
    1  A    between atoms: O_1  and  C_20
    2  A    between atoms: O_1  and  C_36
    3  A    between atoms: C_2  and  C_23
    4  A    between atoms: C_2  and  C_25
    5  A    between atoms: C_3  and  C_9
    6  A    between atoms: C_3  and  C_18
    7  A    between atoms: C_5  and  C_12
    8  A    between atoms: O_6  and  N_21
    9  A    between atoms: O_6  and  C_35
   10  A    between atoms: C_9  and  C_23
   11  A    between atoms: C_13  and  C_16
   12  A    between atoms: C_17  and  C_22
   13  A    between atoms: C_17  and  C_25
   14  A    between atoms: N_21  and  C_23
   15  A    between atoms: C_27  and  C_28
   16  A    between atoms: N_31  and  C_43
   17  A    between atoms: C_32  and  C_43
   18  A    between atoms: C_34  and  N_49
   19  A    between atoms: C_36  and  N_37
                            x       y       z     vdW  Elec       q    Type
                         _______ _______ _______ _____ _____    ______ ____

>  <TORSDO>
F 19

$$$$
=
 OpenBabel11032419583D

 52 54  0  0  1  0  0  0  0  0999 V2000
  183.3700  178.9530  140.6350 C   0  0  0  0  0  3  0  0  0  0  0  0
  182.9630  178.9390  141.9750 C   0  0  0  0  0  0  0  0  0  0  0  0
  183.6010  178.8410  144.4360 C   0  0  0  0  0  1  0  0  0  0  0  0
  185.7000  178.7380  141.2730 C   0  0  0  0  0  0  0  0  0  0  0  0
  184.7160  178.8570  140.2890 C   0  0  0  0  0  3  0  0  0  0  0  0
  185.3130  178.7310  142.6290 C   0  0  0  0  0  0  0  0  0  0  0  0
  183.9540  178.8310  142.9820 C   0  0  0  0  0  0  0  0  0  0  0  0
  186.2470  178.6470  143.6120 F   0  0  0  0  0  0  0  0  0  0  0  0
  187.1150  178.6110  140.8550 C   0  0  0  0  0  0  0  0  0  0  0  0
  187.4490  178.2790  139.5040 N   0  0  0  0  0  2  0  0  0  0  0  0
  188.0350  178.8330  141.6880 O   0  0  0  0  0  0  0  0  0  0  0  0
  188.8260  178.1500  139.0490 C   0  0  0  0  0  2  0  0  0  0  0  0
  187.9020  176.3510  137.6090 C   0  0  0  0  0  3  0  0  0  0  0  0
  190.2360  176.1660  138.2840 C   0  0  0  0  0  0  0  0  0  0  0  0
  189.2010  174.4420  136.9120 C   0  0  0  0  0  3  0  0  0  0  0  0
  189.0070  176.8700  138.2950 C   0  0  0  0  0  0  0  0  0  0  0  0
  187.9890  175.1430  136.9080 C   0  0  0  0  0  0  0  0  0  0  0  0
  190.3080  174.9480  137.5930 C   0  0  0  0  0  3  0  0  0  0  0  0
  192.7260  176.7750  138.4360 C   0  0  0  0  0  3  0  0  0  0  0  0
  191.4550  176.6670  138.9700 C   0  0  0  0  0  0  0  0  0  0  0  0
  193.5830  177.2230  139.3780 N   0  0  0  0  0  2  0  0  0  0  0  0
  191.5660  177.0610  140.2870 C   0  0  0  0  0  0  0  0  0  0  0  0
  192.8830  177.4020  140.5150 C   0  0  0  0  0  3  0  0  0  0  0  0
  190.5220  177.1180  141.2130 O   0  0  0  0  0  0  0  0  0  0  0  0
  190.1660  176.0090  142.0300 C   0  0  0  0  0  2  0  0  0  0  0  0
  191.9310  175.4860  144.2490 N   0  0  0  0  0  2  0  0  0  0  0  0
  190.8880  176.2240  144.4510 C   0  0  0  0  0  0  0  0  0  0  0  0
  189.9430  176.4510  143.4010 N   0  0  0  0  0  2  0  0  0  0  0  0
  189.3410  177.5620  145.8340 C   0  0  0  0  0  1  0  0  0  0  0  0
  190.6250  176.7540  145.8190 C   0  0  2  0  0  3  0  0  0  0  0  0
  191.6870  177.5580  146.2320 O   0  0  0  0  0  1  0  0  0  0  0  0
  186.4750  173.3430  136.3460 O   0  0  0  0  0  1  0  0  0  0  0  0
  186.0310  175.5010  135.3610 C   0  0  0  0  0  1  0  0  0  0  0  0
  186.8460  174.6370  136.2000 N   0  0  0  0  0  0  0  0  0  0  0  0
  181.5050  179.0010  142.2860 C   0  0  0  0  0  0  0  0  0  0  0  0
  181.0900  178.5890  143.4030 O   0  0  0  0  0  0  0  0  0  0  0  0
  180.5090  179.5080  141.3140 C   0  0  0  0  0  0  0  0  0  0  0  0
  180.0350  180.6720  141.4260 O   0  0  0  0  0  0  0  0  0  0  0  0
  180.0740  178.6390  140.1720 C   0  0  1  0  0  3  0  0  0  0  0  0
  179.0520  177.7010  140.6110 N   0  0  0  0  0  2  0  0  0  0  0  0
  179.1500  176.6080  139.8190 O   0  0  0  0  0  0  0  0  0  0  0  0
  180.4750  176.1900  139.9580 C   0  0  0  0  0  2  0  0  0  0  0  0
  180.7280  175.0010  139.0550 C   0  0  0  0  0  1  0  0  0  0  0  0
  179.5500  179.5110  139.0420 C   0  0  0  0  0  2  0  0  0  0  0  0
  180.6190  179.7120  137.9810 C   0  0  0  0  0  2  0  0  0  0  0  0
  181.3100  181.0540  138.1660 C   0  0  0  0  0  2  0  0  0  0  0  0
  180.2550  184.4120  135.5070 N   0  0  0  0  0  2  0  0  0  0  0  0
  180.7980  182.0630  137.1950 C   0  0  0  0  0  0  0  0  0  0  0  0
  179.8570  185.8140  137.4140 C   0  0  0  0  0  1  0  0  0  0  0  0
  180.5680  181.7180  136.0050 O   0  0  0  0  0  0  0  0  0  0  0  0
  180.1890  184.5050  136.7940 C   0  0  0  0  0  0  0  0  0  0  0  0
  180.5430  183.4020  137.6370 N   0  0  0  0  0  2  0  0  0  0  0  0
  1  2  1  0  0  0  0
  2 35  1  0  0  0  0
  2  7  2  0  0  0  0
  4  6  2  0  0  0  0
  5  1  2  0  0  0  0
  5  4  1  0  0  0  0
  6  7  1  0  0  0  0
  6  8  1  0  0  0  0
  7  3  1  0  0  0  0
  9  4  1  0  0  0  0
  9 11  2  0  0  0  0
 10  9  1  0  0  0  0
 12 10  1  0  0  0  0
 13 16  1  0  0  0  0
 14 16  2  0  0  0  0
 14 20  1  0  0  0  0
 15 18  2  0  0  0  0
 16 12  1  0  0  0  0
 17 15  1  0  0  0  0
 17 13  2  0  0  0  0
 18 14  1  0  0  0  0
 19 20  2  0  0  0  0
 19 21  1  0  0  0  0
 20 22  1  0  0  0  0
 21 23  1  0  0  0  0
 22 23  2  0  0  0  0
 22 24  1  0  0  0  0
 24 25  1  0  0  0  0
 25 28  1  0  0  0  0
 26 27  2  0  0  0  0
 27 30  1  0  0  0  0
 28 27  1  0  0  0  0
 30 29  1  6  0  0  0
 30 31  1  0  0  0  0
 33 34  1  0  0  0  0
 34 32  1  0  0  0  0
 34 17  1  0  0  0  0
 35 36  2  0  0  0  0
 37 38  2  0  0  0  0
 37 35  1  0  0  0  0
 39 44  1  6  0  0  0
 39 40  1  0  0  0  0
 39 37  1  0  0  0  0
 41 42  1  0  0  0  0
 41 40  1  0  0  0  0
 43 42  1  0  0  0  0
 45 46  1  0  0  0  0
 45 44  1  0  0  0  0
 47 51  2  0  0  0  0
 48 52  1  0  0  0  0
 48 46  1  0  0  0  0
 50 48  2  0  0  0  0
 51 49  1  0  0  0  0
 51 52  1  0  0  0  0
M  END
>  <MODEL>
8

>  <REMARK>
 VINA RESULT:      -6.4      2.280      9.635
  Name = 
  19 active torsions:
  status: ('A' for Active; 'I' for Inactive)
    1  A    between atoms: O_1  and  C_20
    2  A    between atoms: O_1  and  C_36
    3  A    between atoms: C_2  and  C_23
    4  A    between atoms: C_2  and  C_25
    5  A    between atoms: C_3  and  C_9
    6  A    between atoms: C_3  and  C_18
    7  A    between atoms: C_5  and  C_12
    8  A    between atoms: O_6  and  N_21
    9  A    between atoms: O_6  and  C_35
   10  A    between atoms: C_9  and  C_23
   11  A    between atoms: C_13  and  C_16
   12  A    between atoms: C_17  and  C_22
   13  A    between atoms: C_17  and  C_25
   14  A    between atoms: N_21  and  C_23
   15  A    between atoms: C_27  and  C_28
   16  A    between atoms: N_31  and  C_43
   17  A    between atoms: C_32  and  C_43
   18  A    between atoms: C_34  and  N_49
   19  A    between atoms: C_36  and  N_37
                            x       y       z     vdW  Elec       q    Type
                         _______ _______ _______ _____ _____    ______ ____

>  <TORSDO>
F 19

$$$$
=
 OpenBabel11032419583D

 52 54  0  0  1  0  0  0  0  0999 V2000
  188.5990  177.8690  137.3770 C   0  0  0  0  0  3  0  0  0  0  0  0
  188.7920  176.5490  136.9500 C   0  0  0  0  0  0  0  0  0  0  0  0
  187.7890  174.2730  136.4180 C   0  0  0  0  0  1  0  0  0  0  0  0
  186.2260  177.4870  137.7020 C   0  0  0  0  0  0  0  0  0  0  0  0
  187.3380  178.3320  137.7440 C   0  0  0  0  0  3  0  0  0  0  0  0
  186.3970  176.1570  137.2670 C   0  0  0  0  0  0  0  0  0  0  0  0
  187.6690  175.6870  136.8930 C   0  0  0  0  0  0  0  0  0  0  0  0
  185.3310  175.3170  137.1850 F   0  0  0  0  0  0  0  0  0  0  0  0
  184.9110  178.0170  138.1270 C   0  0  0  0  0  0  0  0  0  0  0  0
  184.7900  178.7950  139.3220 N   0  0  0  0  0  2  0  0  0  0  0  0
  183.8930  177.8120  137.4120 O   0  0  0  0  0  0  0  0  0  0  0  0
  183.5180  179.3400  139.7740 C   0  0  0  0  0  2  0  0  0  0  0  0
  184.4740  178.8440  142.0110 C   0  0  0  0  0  3  0  0  0  0  0  0
  182.0520  179.0420  141.8410 C   0  0  0  0  0  0  0  0  0  0  0  0
  183.1060  178.5120  143.9700 C   0  0  0  0  0  3  0  0  0  0  0  0
  183.3330  179.0820  141.2370 C   0  0  0  0  0  0  0  0  0  0  0  0
  184.3740  178.5660  143.3790 C   0  0  0  0  0  0  0  0  0  0  0  0
  181.9610  178.7450  143.2090 C   0  0  0  0  0  3  0  0  0  0  0  0
  180.0740  180.4840  141.0630 C   0  0  0  0  0  3  0  0  0  0  0  0
  180.7990  179.3070  141.0870 C   0  0  2  0  0  3  0  0  0  0  0  0
  178.9670  180.3260  140.3060 N   0  0  0  0  0  0  0  0  0  0  0  0
  180.0860  178.4100  140.3170 C   0  0  0  0  0  0  0  0  0  0  0  0
  178.9650  179.0600  139.8450 C   0  0  0  0  0  3  0  0  0  0  0  0
  180.4510  177.0880  140.0560 O   0  0  0  0  0  0  0  0  0  0  0  0
  180.1360  176.4390  138.8290 C   0  0  0  0  0  2  0  0  0  0  0  0
  180.0080  174.5620  136.6450 N   0  0  0  0  0  2  0  0  0  0  0  0
  181.0770  174.5900  137.3710 C   0  0  0  0  0  0  0  0  0  0  0  0
  181.1600  175.4510  138.5110 N   0  0  0  0  0  2  0  0  0  0  0  0
  182.7320  173.8920  135.6760 C   0  0  0  0  0  1  0  0  0  0  0  0
  182.1880  173.6420  137.0690 C   0  0  2  0  0  3  0  0  0  0  0  0
  181.7320  172.3280  137.1640 O   0  0  0  0  0  1  0  0  0  0  0  0
  186.5610  177.5740  143.6580 O   0  0  0  0  0  1  0  0  0  0  0  0
  185.7460  178.9610  145.4580 C   0  0  0  0  0  1  0  0  0  0  0  0
  185.5620  178.3390  144.1560 N   0  0  0  0  0  0  0  0  0  0  0  0
  190.1720  176.0950  136.6120 C   0  0  0  0  0  0  0  0  0  0  0  0
  190.6360  176.3200  135.4610 O   0  0  0  0  0  0  0  0  0  0  0  0
  191.0220  175.3600  137.5760 C   0  0  0  0  0  0  0  0  0  0  0  0
  190.9370  174.1050  137.6840 O   0  0  0  0  0  0  0  0  0  0  0  0
  192.0100  176.1080  138.4190 C   0  0  1  0  0  3  0  0  0  0  0  0
  193.0440  176.6980  137.5820 N   0  0  0  0  0  2  0  0  0  0  0  0
  194.2030  176.0640  137.8760 O   0  0  0  0  0  0  0  0  0  0  0  0
  194.5590  175.4160  136.6910 C   0  0  0  0  0  2  0  0  0  0  0  0
  195.7780  174.5500  136.9340 C   0  0  0  0  0  1  0  0  0  0  0  0
  191.2880  177.1840  139.2150 C   0  0  0  0  0  2  0  0  0  0  0  0
  191.6860  177.1220  140.6810 C   0  0  0  0  0  2  0  0  0  0  0  0
  190.4520  177.1360  141.5700 C   0  0  0  0  0  2  0  0  0  0  0  0
  191.2690  177.3040  145.9010 N   0  0  0  0  0  2  0  0  0  0  0  0
  190.8160  177.3820  142.9950 C   0  0  0  0  0  0  0  0  0  0  0  0
  188.9180  177.1550  146.3640 C   0  0  0  0  0  1  0  0  0  0  0  0
  191.9790  177.7740  143.2790 O   0  0  0  0  0  0  0  0  0  0  0  0
  190.0670  177.2620  145.4270 C   0  0  0  0  0  0  0  0  0  0  0  0
  189.8270  177.2030  144.0160 N   0  0  0  0  0  2  0  0  0  0  0  0
  1  5  1  0  0  0  0
  2  1  2  0  0  0  0
  3  7  1  0  0  0  0
  4  5  2  0  0  0  0
  4  9  1  0  0  0  0
  6  4  1  0  0  0  0
  7  2  1  0  0  0  0
  7  6  2  0  0  0  0
  8  6  1  0  0  0  0
  9 10  1  0  0  0  0
 10 12  1  0  0  0  0
 11  9  2  0  0  0  0
 12 16  1  0  0  0  0
 13 17  1  0  0  0  0
 14 18  2  0  0  0  0
 16 14  1  0  0  0  0
 16 13  2  0  0  0  0
 17 15  2  0  0  0  0
 17 34  1  0  0  0  0
 18 15  1  0  0  0  0
 19 20  1  0  0  0  0
 20 14  1  1  0  0  0
 21 19  2  0  0  0  0
 22 20  1  0  0  0  0
 23 21  1  0  0  0  0
 23 22  2  0  0  0  0
 24 22  1  0  0  0  0
 25 24  1  0  0  0  0
 26 27  2  0  0  0  0
 27 28  1  0  0  0  0
 28 25  1  0  0  0  0
 30 29  1  6  0  0  0
 30 31  1  0  0  0  0
 30 27  1  0  0  0  0
 32 34  1  0  0  0  0
 34 33  1  0  0  0  0
 35  2  1  0  0  0  0
 35 37  1  0  0  0  0
 36 35  2  0  0  0  0
 37 38  2  0  0  0  0
 37 39  1  0  0  0  0
 39 44  1  6  0  0  0
 40 41  1  0  0  0  0
 40 39  1  0  0  0  0
 42 43  1  0  0  0  0
 42 41  1  0  0  0  0
 44 45  1  0  0  0  0
 45 46  1  0  0  0  0
 46 48  1  0  0  0  0
 48 50  2  0  0  0  0
 48 52  1  0  0  0  0
 51 47  2  0  0  0  0
 51 49  1  0  0  0  0
 52 51  1  0  0  0  0
M  END
>  <MODEL>
9

>  <REMARK>
 VINA RESULT:      -6.4      2.436      7.339
  Name = 
  19 active torsions:
  status: ('A' for Active; 'I' for Inactive)
    1  A    between atoms: O_1  and  C_20
    2  A    between atoms: O_1  and  C_36
    3  A    between atoms: C_2  and  C_23
    4  A    between atoms: C_2  and  C_25
    5  A    between atoms: C_3  and  C_9
    6  A    between atoms: C_3  and  C_18
    7  A    between atoms: C_5  and  C_12
    8  A    between atoms: O_6  and  N_21
    9  A    between atoms: O_6  and  C_35
   10  A    between atoms: C_9  and  C_23
   11  A    between atoms: C_13  and  C_16
   12  A    between atoms: C_17  and  C_22
   13  A    between atoms: C_17  and  C_25
   14  A    between atoms: N_21  and  C_23
   15  A    between atoms: C_27  and  C_28
   16  A    between atoms: N_31  and  C_43
   17  A    between atoms: C_32  and  C_43
   18  A    between atoms: C_34  and  N_49
   19  A    between atoms: C_36  and  N_37
                            x       y       z     vdW  Elec       q    Type
                         _______ _______ _______ _____ _____    ______ ____

>  <TORSDO>
F 19

$$$$
