=
 OpenBabel11042412273D

 26 30  0  0  1  0  0  0  0  0999 V2000
  183.8680  179.2170  144.7160 C   0  0  0  0  0  1  0  0  0  0  0  0
  184.8840  178.2360  144.1570 C   0  0  1  0  0  3  0  0  0  0  0  0
  185.6740  177.9150  138.6570 N   0  0  0  0  0  0  0  0  0  0  0  0
  183.4820  177.5190  137.8090 N   0  0  0  0  0  2  0  0  0  0  0  0
  182.9500  178.5700  140.3230 C   0  0  0  0  0  0  0  0  0  0  0  0
  182.0970  177.6240  138.2890 C   0  0  0  0  0  2  0  0  0  0  0  0
  185.1250  179.2690  140.4580 N   0  0  0  0  0  0  0  0  0  0  0  0
  182.1010  177.7610  139.7540 N   0  0  0  0  0  0  0  0  0  0  0  0
  184.0130  179.2550  139.5370 C   0  0  1  0  0  3  0  0  0  0  0  0
  184.5990  178.8020  141.7060 C   0  0  0  0  0  0  0  0  0  0  0  0
  184.4570  178.3120  138.4920 C   0  0  0  0  0  0  0  0  0  0  0  0
  185.4020  178.7180  142.8850 N   0  0  0  0  0  2  0  0  0  0  0  0
  186.2530  178.6130  139.8020 C   0  0  0  0  0  2  0  0  0  0  0  0
  183.3670  178.3990  141.6690 N   0  0  0  0  0  0  0  0  0  0  0  0
  188.0160  177.7120  146.9200 C   0  0  0  0  0  0  0  0  0  0  0  0
  186.8270  178.1980  147.3460 N   0  0  0  0  0  0  0  0  0  0  0  0
  185.8400  178.3580  146.4540 N   0  0  0  0  0  0  0  0  0  0  0  0
  189.9710  177.0080  146.7190 C   0  0  0  0  0  0  0  0  0  0  0  0
  187.2330  177.5380  144.6690 C   0  0  0  0  0  3  0  0  0  0  0  0
  186.0030  178.0460  145.1250 C   0  0  0  0  0  0  0  0  0  0  0  0
  188.2250  177.3880  145.6260 C   0  0  0  0  0  0  0  0  0  0  0  0
  189.1100  177.4840  147.6610 N   0  0  0  0  0  0  0  0  0  0  0  0
  189.4470  176.9490  145.5020 O   0  0  0  0  0  0  0  0  0  0  0  0
  191.3460  176.5950  147.0230 C   0  0  0  0  0  0  0  0  0  0  0  0
  192.0580  175.6380  146.1320 C   0  0  0  0  0  1  0  0  0  0  0  0
  191.9470  177.0510  148.0720 N   0  0  0  0  0  2  0  0  0  0  0  0
  2  1  1  1  0  0  0
  2 20  1  0  0  0  0
  3 13  1  0  0  0  0
  4  6  1  0  0  0  0
  4 11  1  0  0  0  0
  5 14  1  0  0  0  0
  6  8  1  0  0  0  0
  7 10  1  0  0  0  0
  8  5  2  0  0  0  0
  9 11  1  6  0  0  0
  9  5  1  0  0  0  0
  9  7  1  0  0  0  0
 10 12  1  0  0  0  0
 11  3  2  0  0  0  0
 12  2  1  0  0  0  0
 13  7  1  0  0  0  0
 14 10  2  0  0  0  0
 15 16  1  0  0  0  0
 15 22  1  0  0  0  0
 17 16  2  0  0  0  0
 18 24  1  0  0  0  0
 18 22  2  0  0  0  0
 19 20  2  0  0  0  0
 19 21  1  0  0  0  0
 20 17  1  0  0  0  0
 21 15  2  0  0  0  0
 23 21  1  0  0  0  0
 23 18  1  0  0  0  0
 24 26  2  0  0  0  0
 25 24  1  0  0  0  0
M  END
>  <MODEL>
1

>  <REMARK>
 VINA RESULT:      -8.1      0.000      0.000
  Name = 
  3 active torsions:
  status: ('A' for Active; 'I' for Inactive)
    1  A    between atoms: C_1  and  C_14
    2  A    between atoms: C_18  and  C_22
    3  A    between atoms: N_21  and  C_22
                            x       y       z     vdW  Elec       q    Type
                         _______ _______ _______ _____ _____    ______ ____

>  <TORSDO>
F 3

$$$$
=
 OpenBabel11042412273D

 26 30  0  0  1  0  0  0  0  0999 V2000
  188.1400  178.1510  139.6780 C   0  0  0  0  0  1  0  0  0  0  0  0
  189.1100  177.0670  140.1140 C   0  0  1  0  0  3  0  0  0  0  0  0
  194.1320  175.4410  138.3500 N   0  0  0  0  0  0  0  0  0  0  0  0
  193.6480  173.5580  136.9700 N   0  0  0  0  0  2  0  0  0  0  0  0
  191.1960  174.8580  137.0600 C   0  0  0  0  0  0  0  0  0  0  0  0
  192.4740  172.9720  136.3070 C   0  0  0  0  0  2  0  0  0  0  0  0
  192.2420  176.7100  137.9070 N   0  0  0  0  0  0  0  0  0  0  0  0
  191.2520  173.5710  136.8670 N   0  0  0  0  0  0  0  0  0  0  0  0
  192.3910  175.7250  136.8610 C   0  0  1  0  0  3  0  0  0  0  0  0
  190.9480  176.4790  138.4740 C   0  0  0  0  0  0  0  0  0  0  0  0
  193.5680  174.9490  137.2990 C   0  0  0  0  0  0  0  0  0  0  0  0
  190.4200  177.2960  139.5210 N   0  0  0  0  0  2  0  0  0  0  0  0
  193.4560  176.6820  138.7170 C   0  0  0  0  0  2  0  0  0  0  0  0
  190.3220  175.4390  138.0170 N   0  0  0  0  0  0  0  0  0  0  0  0
  189.4630  176.9840  144.3080 C   0  0  0  0  0  0  0  0  0  0  0  0
  190.4600  176.4770  143.5460 N   0  0  0  0  0  0  0  0  0  0  0  0
  190.3320  176.5110  142.2130 N   0  0  0  0  0  0  0  0  0  0  0  0
  188.2080  177.6390  145.8420 C   0  0  0  0  0  0  0  0  0  0  0  0
  188.1780  177.5760  142.3820 C   0  0  0  0  0  3  0  0  0  0  0  0
  189.2210  177.0440  141.6020 C   0  0  0  0  0  0  0  0  0  0  0  0
  188.3530  177.5200  143.7560 C   0  0  0  0  0  0  0  0  0  0  0  0
  189.4140  177.0390  145.6470 N   0  0  0  0  0  0  0  0  0  0  0  0
  187.5700  177.9290  144.7160 O   0  0  0  0  0  0  0  0  0  0  0  0
  187.6660  177.9400  147.1730 C   0  0  0  0  0  0  0  0  0  0  0  0
  188.5100  177.7660  148.3850 C   0  0  0  0  0  1  0  0  0  0  0  0
  186.4470  178.3490  147.3030 N   0  0  0  0  0  2  0  0  0  0  0  0
  2  1  1  1  0  0  0
  2 20  1  0  0  0  0
  3 13  1  0  0  0  0
  4 11  1  0  0  0  0
  5 14  1  0  0  0  0
  6  8  1  0  0  0  0
  6  4  1  0  0  0  0
  7 10  1  0  0  0  0
  7 13  1  0  0  0  0
  8  5  2  0  0  0  0
  9  5  1  1  0  0  0
  9 11  1  0  0  0  0
  9  7  1  0  0  0  0
 10 12  1  0  0  0  0
 11  3  2  0  0  0  0
 12  2  1  0  0  0  0
 14 10  2  0  0  0  0
 15 22  1  0  0  0  0
 16 15  2  0  0  0  0
 17 16  1  0  0  0  0
 18 24  1  0  0  0  0
 19 21  2  0  0  0  0
 20 17  2  0  0  0  0
 20 19  1  0  0  0  0
 21 15  1  0  0  0  0
 21 23  1  0  0  0  0
 22 18  2  0  0  0  0
 23 18  1  0  0  0  0
 24 26  2  0  0  0  0
 24 25  1  0  0  0  0
M  END
>  <MODEL>
2

>  <REMARK>
 VINA RESULT:      -7.8      5.394      7.025
  Name = 
  3 active torsions:
  status: ('A' for Active; 'I' for Inactive)
    1  A    between atoms: C_1  and  C_14
    2  A    between atoms: C_18  and  C_22
    3  A    between atoms: N_21  and  C_22
                            x       y       z     vdW  Elec       q    Type
                         _______ _______ _______ _____ _____    ______ ____

>  <TORSDO>
F 3

$$$$
=
 OpenBabel11042412273D

 26 30  0  0  1  0  0  0  0  0999 V2000
  184.8130  179.2990  144.3410 C   0  0  0  0  0  1  0  0  0  0  0  0
  185.3080  178.2640  143.3460 C   0  0  1  0  0  3  0  0  0  0  0  0
  183.8800  178.0370  137.9710 N   0  0  0  0  0  0  0  0  0  0  0  0
  181.5690  177.4570  138.0400 N   0  0  0  0  0  2  0  0  0  0  0  0
  181.9950  178.4470  140.5990 C   0  0  0  0  0  0  0  0  0  0  0  0
  180.4830  177.4400  139.0300 C   0  0  0  0  0  2  0  0  0  0  0  0
  183.9850  179.3310  139.8930 N   0  0  0  0  0  0  0  0  0  0  0  0
  181.0560  177.5700  140.3800 N   0  0  0  0  0  0  0  0  0  0  0  0
  182.6040  179.2250  139.4840 C   0  0  1  0  0  3  0  0  0  0  0  0
  184.0340  178.8140  141.2280 C   0  0  0  0  0  0  0  0  0  0  0  0
  182.6700  178.3280  138.3140 C   0  0  0  0  0  0  0  0  0  0  0  0
  185.2410  178.7940  141.9920 N   0  0  0  0  0  2  0  0  0  0  0  0
  184.8080  178.7780  138.8210 C   0  0  0  0  0  2  0  0  0  0  0  0
  182.9220  178.3070  141.6640 N   0  0  0  0  0  0  0  0  0  0  0  0
  189.2700  177.1420  144.2170 C   0  0  0  0  0  0  0  0  0  0  0  0
  188.8710  177.2280  142.9260 N   0  0  0  0  0  0  0  0  0  0  0  0
  187.6070  177.5860  142.6660 N   0  0  0  0  0  0  0  0  0  0  0  0
  190.3020  176.8880  146.0140 C   0  0  0  0  0  0  0  0  0  0  0  0
  187.1110  177.7830  145.0150 C   0  0  0  0  0  3  0  0  0  0  0  0
  186.7090  177.8660  143.6700 C   0  0  0  0  0  0  0  0  0  0  0  0
  188.4270  177.4090  145.2370 C   0  0  0  0  0  0  0  0  0  0  0  0
  190.4870  176.8030  144.6670 N   0  0  0  0  0  0  0  0  0  0  0  0
  189.0730  177.2490  146.3600 O   0  0  0  0  0  0  0  0  0  0  0  0
  191.3620  176.6100  146.9900 C   0  0  0  0  0  0  0  0  0  0  0  0
  192.2650  175.4410  146.8070 C   0  0  0  0  0  1  0  0  0  0  0  0
  191.5120  177.3710  148.0240 N   0  0  0  0  0  2  0  0  0  0  0  0
  2 20  1  0  0  0  0
  2  1  1  1  0  0  0
  3 11  2  0  0  0  0
  3 13  1  0  0  0  0
  4 11  1  0  0  0  0
  4  6  1  0  0  0  0
  5 14  1  0  0  0  0
  6  8  1  0  0  0  0
  7 10  1  0  0  0  0
  8  5  2  0  0  0  0
  9 11  1  6  0  0  0
  9  7  1  0  0  0  0
  9  5  1  0  0  0  0
 10 14  2  0  0  0  0
 10 12  1  0  0  0  0
 12  2  1  0  0  0  0
 13  7  1  0  0  0  0
 15 22  1  0  0  0  0
 15 21  1  0  0  0  0
 16 15  2  0  0  0  0
 17 16  1  0  0  0  0
 17 20  2  0  0  0  0
 18 23  1  0  0  0  0
 18 24  1  0  0  0  0
 19 21  2  0  0  0  0
 20 19  1  0  0  0  0
 21 23  1  0  0  0  0
 22 18  2  0  0  0  0
 24 26  2  0  0  0  0
 25 24  1  0  0  0  0
M  END
>  <MODEL>
3

>  <REMARK>
 VINA RESULT:      -7.8      1.655      1.914
  Name = 
  3 active torsions:
  status: ('A' for Active; 'I' for Inactive)
    1  A    between atoms: C_1  and  C_14
    2  A    between atoms: C_18  and  C_22
    3  A    between atoms: N_21  and  C_22
                            x       y       z     vdW  Elec       q    Type
                         _______ _______ _______ _____ _____    ______ ____

>  <TORSDO>
F 3

$$$$
=
 OpenBabel11042412273D

 26 30  0  0  1  0  0  0  0  0999 V2000
  190.6080  176.9140  141.8380 C   0  0  0  0  0  1  0  0  0  0  0  0
  189.8980  177.4860  140.6230 C   0  0  1  0  0  3  0  0  0  0  0  0
  190.7510  175.5810  135.4640 N   0  0  0  0  0  0  0  0  0  0  0  0
  193.0690  175.9990  135.0990 N   0  0  0  0  0  2  0  0  0  0  0  0
  192.8940  176.0750  137.8690 C   0  0  0  0  0  0  0  0  0  0  0  0
  194.2540  176.3200  135.9070 C   0  0  0  0  0  2  0  0  0  0  0  0
  190.8200  175.1160  137.7350 N   0  0  0  0  0  0  0  0  0  0  0  0
  193.8250  176.7440  137.2490 N   0  0  0  0  0  0  0  0  0  0  0  0
  192.1520  174.9740  137.1950 C   0  0  1  0  0  3  0  0  0  0  0  0
  190.9260  176.1000  138.7710 C   0  0  0  0  0  0  0  0  0  0  0  0
  191.9830  175.3650  135.7820 C   0  0  0  0  0  0  0  0  0  0  0  0
  189.8070  176.4810  139.5730 N   0  0  0  0  0  2  0  0  0  0  0  0
  189.9010  175.2740  136.6110 C   0  0  0  0  0  2  0  0  0  0  0  0
  192.0890  176.6640  138.8790 N   0  0  0  0  0  0  0  0  0  0  0  0
  186.0380  178.8240  141.6400 C   0  0  0  0  0  0  0  0  0  0  0  0
  186.4930  179.0020  140.3780 N   0  0  0  0  0  0  0  0  0  0  0  0
  187.7240  178.5700  140.0700 N   0  0  0  0  0  0  0  0  0  0  0  0
  184.9460  178.7610  143.4180 C   0  0  0  0  0  0  0  0  0  0  0  0
  188.0710  177.7630  142.3130 C   0  0  0  0  0  3  0  0  0  0  0  0
  188.5320  177.9560  140.9980 C   0  0  0  0  0  0  0  0  0  0  0  0
  186.7930  178.2250  142.5860 C   0  0  0  0  0  0  0  0  0  0  0  0
  184.8430  179.1860  142.1280 N   0  0  0  0  0  0  0  0  0  0  0  0
  186.1090  178.1860  143.6970 O   0  0  0  0  0  0  0  0  0  0  0  0
  183.8720  178.9200  144.4060 C   0  0  0  0  0  0  0  0  0  0  0  0
  182.4540  179.0090  143.9650 C   0  0  0  0  0  1  0  0  0  0  0  0
  184.1510  178.9970  145.6650 N   0  0  0  0  0  2  0  0  0  0  0  0
  2 20  1  0  0  0  0
  2  1  1  1  0  0  0
  3 11  2  0  0  0  0
  3 13  1  0  0  0  0
  4 11  1  0  0  0  0
  4  6  1  0  0  0  0
  5 14  1  0  0  0  0
  6  8  1  0  0  0  0
  7 10  1  0  0  0  0
  8  5  2  0  0  0  0
  9 11  1  6  0  0  0
  9  7  1  0  0  0  0
  9  5  1  0  0  0  0
 10 14  2  0  0  0  0
 10 12  1  0  0  0  0
 12  2  1  0  0  0  0
 13  7  1  0  0  0  0
 15 22  1  0  0  0  0
 15 21  1  0  0  0  0
 16 15  2  0  0  0  0
 17 16  1  0  0  0  0
 17 20  2  0  0  0  0
 18 23  1  0  0  0  0
 18 24  1  0  0  0  0
 19 21  2  0  0  0  0
 20 19  1  0  0  0  0
 21 23  1  0  0  0  0
 22 18  2  0  0  0  0
 24 26  2  0  0  0  0
 25 24  1  0  0  0  0
M  END
>  <MODEL>
4

>  <REMARK>
 VINA RESULT:      -7.7      5.135      7.859
  Name = 
  3 active torsions:
  status: ('A' for Active; 'I' for Inactive)
    1  A    between atoms: C_1  and  C_14
    2  A    between atoms: C_18  and  C_22
    3  A    between atoms: N_21  and  C_22
                            x       y       z     vdW  Elec       q    Type
                         _______ _______ _______ _____ _____    ______ ____

>  <TORSDO>
F 3

$$$$
=
 OpenBabel11042412273D

 26 30  0  0  1  0  0  0  0  0999 V2000
  188.2500  178.2070  139.8970 C   0  0  0  0  0  1  0  0  0  0  0  0
  189.2240  177.1460  140.3790 C   0  0  1  0  0  3  0  0  0  0  0  0
  194.2460  175.5160  138.6150 N   0  0  0  0  0  0  0  0  0  0  0  0
  193.7530  173.6910  137.1640 N   0  0  0  0  0  2  0  0  0  0  0  0
  191.3170  175.0190  137.2720 C   0  0  0  0  0  0  0  0  0  0  0  0
  192.5800  173.1440  136.4670 C   0  0  0  0  0  2  0  0  0  0  0  0
  192.3770  176.8250  138.1960 N   0  0  0  0  0  0  0  0  0  0  0  0
  191.3590  173.7380  137.0340 N   0  0  0  0  0  0  0  0  0  0  0  0
  192.5250  175.8760  137.1180 C   0  0  1  0  0  3  0  0  0  0  0  0
  191.0730  176.5920  138.7400 C   0  0  0  0  0  0  0  0  0  0  0  0
  193.6870  175.0690  137.5410 C   0  0  0  0  0  0  0  0  0  0  0  0
  190.5440  177.3780  139.8090 N   0  0  0  0  0  2  0  0  0  0  0  0
  193.5810  176.7530  139.0190 C   0  0  0  0  0  2  0  0  0  0  0  0
  190.4400  175.5770  138.2390 N   0  0  0  0  0  0  0  0  0  0  0  0
  189.4030  177.1880  144.5840 C   0  0  0  0  0  0  0  0  0  0  0  0
  188.2500  177.5300  143.9630 N   0  0  0  0  0  0  0  0  0  0  0  0
  188.2100  177.5120  142.6250 N   0  0  0  0  0  0  0  0  0  0  0  0
  190.9300  176.7420  145.9360 C   0  0  0  0  0  0  0  0  0  0  0  0
  190.5060  176.7960  142.5010 C   0  0  0  0  0  3  0  0  0  0  0  0
  189.3030  177.1570  141.8690 C   0  0  0  0  0  0  0  0  0  0  0  0
  190.5020  176.8300  143.8870 C   0  0  0  0  0  0  0  0  0  0  0  0
  189.6300  177.1460  145.9050 N   0  0  0  0  0  0  0  0  0  0  0  0
  191.4560  176.5520  144.7330 O   0  0  0  0  0  0  0  0  0  0  0  0
  191.6780  176.5340  147.1810 C   0  0  0  0  0  0  0  0  0  0  0  0
  192.4310  175.2690  147.4030 C   0  0  0  0  0  1  0  0  0  0  0  0
  191.6800  177.4420  148.1000 N   0  0  0  0  0  2  0  0  0  0  0  0
  2  1  1  1  0  0  0
  2 20  1  0  0  0  0
  3 13  1  0  0  0  0
  4 11  1  0  0  0  0
  5 14  1  0  0  0  0
  6  8  1  0  0  0  0
  6  4  1  0  0  0  0
  7 10  1  0  0  0  0
  7 13  1  0  0  0  0
  8  5  2  0  0  0  0
  9  5  1  1  0  0  0
  9 11  1  0  0  0  0
  9  7  1  0  0  0  0
 10 12  1  0  0  0  0
 11  3  2  0  0  0  0
 12  2  1  0  0  0  0
 14 10  2  0  0  0  0
 15 22  1  0  0  0  0
 16 15  1  0  0  0  0
 17 16  2  0  0  0  0
 18 24  1  0  0  0  0
 19 21  1  0  0  0  0
 20 19  2  0  0  0  0
 20 17  1  0  0  0  0
 21 15  2  0  0  0  0
 21 23  1  0  0  0  0
 22 18  2  0  0  0  0
 23 18  1  0  0  0  0
 24 25  1  0  0  0  0
 24 26  2  0  0  0  0
M  END
>  <MODEL>
5

>  <REMARK>
 VINA RESULT:      -7.5      5.329      6.749
  Name = 
  3 active torsions:
  status: ('A' for Active; 'I' for Inactive)
    1  A    between atoms: C_1  and  C_14
    2  A    between atoms: C_18  and  C_22
    3  A    between atoms: N_21  and  C_22
                            x       y       z     vdW  Elec       q    Type
                         _______ _______ _______ _____ _____    ______ ____

>  <TORSDO>
F 3

$$$$
=
 OpenBabel11042412273D

 26 30  0  0  1  0  0  0  0  0999 V2000
  183.1960  179.7680  138.6930 C   0  0  0  0  0  1  0  0  0  0  0  0
  184.1190  178.7030  139.2600 C   0  0  1  0  0  3  0  0  0  0  0  0
  189.4130  177.1980  138.4250 N   0  0  0  0  0  0  0  0  0  0  0  0
  189.2180  175.1260  137.2630 N   0  0  0  0  0  2  0  0  0  0  0  0
  186.7200  176.2620  136.8450 C   0  0  0  0  0  0  0  0  0  0  0  0
  188.1800  174.3830  136.5350 C   0  0  0  0  0  2  0  0  0  0  0  0
  187.5460  178.2720  137.5630 N   0  0  0  0  0  0  0  0  0  0  0  0
  186.8630  174.9670  136.8380 N   0  0  0  0  0  0  0  0  0  0  0  0
  187.8880  177.1720  136.6910 C   0  0  1  0  0  3  0  0  0  0  0  0
  186.1970  178.0320  137.9770 C   0  0  0  0  0  0  0  0  0  0  0  0
  189.0270  176.5390  137.3850 C   0  0  0  0  0  0  0  0  0  0  0  0
  185.4880  178.9400  138.8230 N   0  0  0  0  0  2  0  0  0  0  0  0
  188.6330  178.4290  138.5250 C   0  0  0  0  0  2  0  0  0  0  0  0
  185.6930  176.9020  137.5870 N   0  0  0  0  0  0  0  0  0  0  0  0
  183.8880  178.7090  143.4630 C   0  0  0  0  0  0  0  0  0  0  0  0
  182.7600  178.8750  142.7340 N   0  0  0  0  0  0  0  0  0  0  0  0
  182.8510  178.8700  141.3980 N   0  0  0  0  0  0  0  0  0  0  0  0
  185.3320  178.4910  144.9560 C   0  0  0  0  0  0  0  0  0  0  0  0
  185.2330  178.5290  141.4960 C   0  0  0  0  0  3  0  0  0  0  0  0
  184.0530  178.7040  140.7510 C   0  0  0  0  0  0  0  0  0  0  0  0
  185.0920  178.5400  142.8750 C   0  0  0  0  0  0  0  0  0  0  0  0
  183.9930  178.6840  144.8000 N   0  0  0  0  0  0  0  0  0  0  0  0
  185.9930  178.4040  143.8090 O   0  0  0  0  0  0  0  0  0  0  0  0
  185.9820  178.3850  146.2670 C   0  0  0  0  0  0  0  0  0  0  0  0
  187.3700  177.8600  146.3780 C   0  0  0  0  0  1  0  0  0  0  0  0
  185.3500  178.7360  147.3380 N   0  0  0  0  0  2  0  0  0  0  0  0
  2  1  1  6  0  0  0
  2 20  1  0  0  0  0
  3 13  1  0  0  0  0
  4 11  1  0  0  0  0
  5 14  1  0  0  0  0
  6  8  1  0  0  0  0
  6  4  1  0  0  0  0
  7 10  1  0  0  0  0
  7 13  1  0  0  0  0
  8  5  2  0  0  0  0
  9  5  1  1  0  0  0
  9 11  1  0  0  0  0
  9  7  1  0  0  0  0
 10 12  1  0  0  0  0
 11  3  2  0  0  0  0
 12  2  1  0  0  0  0
 14 10  2  0  0  0  0
 15 22  1  0  0  0  0
 16 15  2  0  0  0  0
 17 16  1  0  0  0  0
 18 24  1  0  0  0  0
 19 21  2  0  0  0  0
 20 17  2  0  0  0  0
 20 19  1  0  0  0  0
 21 15  1  0  0  0  0
 21 23  1  0  0  0  0
 22 18  2  0  0  0  0
 23 18  1  0  0  0  0
 24 25  1  0  0  0  0
 24 26  2  0  0  0  0
M  END
>  <MODEL>
6

>  <REMARK>
 VINA RESULT:      -7.4      2.643      5.247
  Name = 
  3 active torsions:
  status: ('A' for Active; 'I' for Inactive)
    1  A    between atoms: C_1  and  C_14
    2  A    between atoms: C_18  and  C_22
    3  A    between atoms: N_21  and  C_22
                            x       y       z     vdW  Elec       q    Type
                         _______ _______ _______ _____ _____    ______ ____

>  <TORSDO>
F 3

$$$$
=
 OpenBabel11042412273D

 26 30  0  0  1  0  0  0  0  0999 V2000
  187.5180  178.5050  141.6030 C   0  0  0  0  0  1  0  0  0  0  0  0
  187.0530  177.8030  142.8670 C   0  0  1  0  0  3  0  0  0  0  0  0
  190.4150  176.7040  147.1650 N   0  0  0  0  0  0  0  0  0  0  0  0
  192.0320  175.2210  146.2330 N   0  0  0  0  0  2  0  0  0  0  0  0
  190.9890  176.4390  143.9670 C   0  0  0  0  0  0  0  0  0  0  0  0
  192.4840  174.8100  144.8960 C   0  0  0  0  0  2  0  0  0  0  0  0
  190.0250  178.0290  145.3020 N   0  0  0  0  0  0  0  0  0  0  0  0
  191.4960  175.2410  143.8950 N   0  0  0  0  0  0  0  0  0  0  0  0
  191.2790  177.3370  145.1190 C   0  0  1  0  0  3  0  0  0  0  0  0
  189.2100  177.6550  144.1850 C   0  0  0  0  0  0  0  0  0  0  0  0
  191.3670  176.4850  146.3220 C   0  0  0  0  0  0  0  0  0  0  0  0
  187.8960  178.1810  143.9930 N   0  0  0  0  0  2  0  0  0  0  0  0
  189.5930  177.8090  146.6800 C   0  0  0  0  0  2  0  0  0  0  0  0
  189.7250  176.7570  143.4030 N   0  0  0  0  0  0  0  0  0  0  0  0
  183.0510  178.7890  143.7230 C   0  0  0  0  0  0  0  0  0  0  0  0
  183.9520  178.7270  144.7310 N   0  0  0  0  0  0  0  0  0  0  0  0
  185.2210  178.4120  144.4420 N   0  0  0  0  0  0  0  0  0  0  0  0
  181.3610  179.0000  142.5150 C   0  0  0  0  0  0  0  0  0  0  0  0
  184.7060  178.2140  142.0980 C   0  0  0  0  0  3  0  0  0  0  0  0
  185.6310  178.1500  143.1560 C   0  0  0  0  0  0  0  0  0  0  0  0
  183.4050  178.5430  142.4430 C   0  0  0  0  0  0  0  0  0  0  0  0
  181.7470  179.0870  143.8190 N   0  0  0  0  0  0  0  0  0  0  0  0
  182.3470  178.6750  141.6900 O   0  0  0  0  0  0  0  0  0  0  0  0
  179.9860  179.2450  142.0660 C   0  0  0  0  0  0  0  0  0  0  0  0
  179.6840  180.3840  141.1570 C   0  0  0  0  0  1  0  0  0  0  0  0
  179.0230  178.4820  142.4670 N   0  0  0  0  0  2  0  0  0  0  0  0
  2  1  1  6  0  0  0
  2 20  1  0  0  0  0
  2 12  1  0  0  0  0
  4 11  1  0  0  0  0
  6  4  1  0  0  0  0
  7 13  1  0  0  0  0
  8  5  2  0  0  0  0
  8  6  1  0  0  0  0
  9  5  1  6  0  0  0
  9  7  1  0  0  0  0
  9 11  1  0  0  0  0
 10  7  1  0  0  0  0
 11  3  2  0  0  0  0
 12 10  1  0  0  0  0
 13  3  1  0  0  0  0
 14  5  1  0  0  0  0
 14 10  2  0  0  0  0
 15 22  1  0  0  0  0
 15 16  1  0  0  0  0
 17 16  2  0  0  0  0
 18 22  2  0  0  0  0
 19 21  1  0  0  0  0
 19 20  2  0  0  0  0
 20 17  1  0  0  0  0
 21 15  2  0  0  0  0
 23 21  1  0  0  0  0
 23 18  1  0  0  0  0
 24 26  2  0  0  0  0
 24 18  1  0  0  0  0
 25 24  1  0  0  0  0
M  END
>  <MODEL>
7

>  <REMARK>
 VINA RESULT:      -7.4      3.274      8.605
  Name = 
  3 active torsions:
  status: ('A' for Active; 'I' for Inactive)
    1  A    between atoms: C_1  and  C_14
    2  A    between atoms: C_18  and  C_22
    3  A    between atoms: N_21  and  C_22
                            x       y       z     vdW  Elec       q    Type
                         _______ _______ _______ _____ _____    ______ ____

>  <TORSDO>
F 3

$$$$
=
 OpenBabel11042412273D

 26 30  0  0  1  0  0  0  0  0999 V2000
  185.2110  178.2530  146.5660 C   0  0  0  0  0  1  0  0  0  0  0  0
  185.6360  178.5040  145.1290 C   0  0  1  0  0  3  0  0  0  0  0  0
  189.8900  176.3900  142.2290 N   0  0  0  0  0  0  0  0  0  0  0  0
  191.7350  177.7460  142.8910 N   0  0  0  0  0  2  0  0  0  0  0  0
  189.9280  178.1790  144.9540 C   0  0  0  0  0  0  0  0  0  0  0  0
  192.0540  178.6940  143.9690 C   0  0  0  0  0  2  0  0  0  0  0  0
  188.7150  176.3780  144.2290 N   0  0  0  0  0  0  0  0  0  0  0  0
  190.8120  179.0870  144.6520 N   0  0  0  0  0  0  0  0  0  0  0  0
  190.0790  176.7690  144.4990 C   0  0  1  0  0  3  0  0  0  0  0  0
  187.9020  177.4550  144.7090 C   0  0  0  0  0  0  0  0  0  0  0  0
  190.6870  176.8090  143.1540 C   0  0  0  0  0  0  0  0  0  0  0  0
  186.4750  177.4130  144.6540 N   0  0  0  0  0  2  0  0  0  0  0  0
  188.6510  175.9210  142.8430 C   0  0  0  0  0  2  0  0  0  0  0  0
  188.5550  178.4930  145.1310 N   0  0  0  0  0  0  0  0  0  0  0  0
  182.2260  178.9070  142.6950 C   0  0  0  0  0  0  0  0  0  0  0  0
  182.1090  179.0600  144.0350 N   0  0  0  0  0  0  0  0  0  0  0  0
  183.2040  178.9280  144.7950 N   0  0  0  0  0  0  0  0  0  0  0  0
  181.9400  178.7630  140.6320 C   0  0  0  0  0  0  0  0  0  0  0  0
  184.5720  178.4840  142.8630 C   0  0  0  0  0  3  0  0  0  0  0  0
  184.4360  178.6430  144.2540 C   0  0  0  0  0  0  0  0  0  0  0  0
  183.4130  178.6290  142.1160 C   0  0  0  0  0  0  0  0  0  0  0  0
  181.2490  179.0030  141.7810 N   0  0  0  0  0  0  0  0  0  0  0  0
  183.2330  178.5380  140.8260 O   0  0  0  0  0  0  0  0  0  0  0  0
  181.3150  178.7560  139.3040 C   0  0  0  0  0  0  0  0  0  0  0  0
  181.8300  179.6430  138.2260 C   0  0  0  0  0  1  0  0  0  0  0  0
  180.3040  177.9870  139.0640 N   0  0  0  0  0  2  0  0  0  0  0  0
  2  1  1  1  0  0  0
  3 13  1  0  0  0  0
  3 11  2  0  0  0  0
  4 11  1  0  0  0  0
  4  6  1  0  0  0  0
  5 14  1  0  0  0  0
  6  8  1  0  0  0  0
  7  9  1  0  0  0  0
  7 10  1  0  0  0  0
  8  5  2  0  0  0  0
  9 11  1  6  0  0  0
  9  5  1  0  0  0  0
 10 14  2  0  0  0  0
 12 10  1  0  0  0  0
 12  2  1  0  0  0  0
 13  7  1  0  0  0  0
 15 16  1  0  0  0  0
 16 17  2  0  0  0  0
 18 23  1  0  0  0  0
 18 22  2  0  0  0  0
 19 20  2  0  0  0  0
 20 17  1  0  0  0  0
 20  2  1  0  0  0  0
 21 15  2  0  0  0  0
 21 19  1  0  0  0  0
 22 15  1  0  0  0  0
 23 21  1  0  0  0  0
 24 18  1  0  0  0  0
 25 24  1  0  0  0  0
 26 24  2  0  0  0  0
M  END
>  <MODEL>
8

>  <REMARK>
 VINA RESULT:      -7.4      3.074      8.025
  Name = 
  3 active torsions:
  status: ('A' for Active; 'I' for Inactive)
    1  A    between atoms: C_1  and  C_14
    2  A    between atoms: C_18  and  C_22
    3  A    between atoms: N_21  and  C_22
                            x       y       z     vdW  Elec       q    Type
                         _______ _______ _______ _____ _____    ______ ____

>  <TORSDO>
F 3

$$$$
=
 OpenBabel11042412273D

 26 30  0  0  1  0  0  0  0  0999 V2000
  193.0550  177.3580  140.1040 C   0  0  0  0  0  1  0  0  0  0  0  0
  191.5610  177.4380  139.8410 C   0  0  1  0  0  3  0  0  0  0  0  0
  187.8320  174.6760  136.7680 N   0  0  0  0  0  0  0  0  0  0  0  0
  186.6620  176.4130  135.6300 N   0  0  0  0  0  2  0  0  0  0  0  0
  189.0110  177.6900  136.3780 C   0  0  0  0  0  0  0  0  0  0  0  0
  186.8520  177.8420  135.3420 C   0  0  0  0  0  2  0  0  0  0  0  0
  189.9360  175.6490  136.8460 N   0  0  0  0  0  0  0  0  0  0  0  0
  187.9150  178.3750  136.2100 N   0  0  0  0  0  0  0  0  0  0  0  0
  189.1590  176.3150  135.8270 C   0  0  1  0  0  3  0  0  0  0  0  0
  190.3310  176.6760  137.7630 C   0  0  0  0  0  0  0  0  0  0  0  0
  187.8400  175.6600  135.9330 C   0  0  0  0  0  0  0  0  0  0  0  0
  191.1590  176.4070  138.8960 N   0  0  0  0  0  2  0  0  0  0  0  0
  189.1850  174.4750  137.2800 C   0  0  0  0  0  2  0  0  0  0  0  0
  189.8280  177.8490  137.5280 N   0  0  0  0  0  0  0  0  0  0  0  0
  189.3900  176.9900  143.4200 C   0  0  0  0  0  0  0  0  0  0  0  0
  188.7430  176.9040  142.2340 N   0  0  0  0  0  0  0  0  0  0  0  0
  189.4490  177.0490  141.1040 N   0  0  0  0  0  0  0  0  0  0  0  0
  189.9560  177.0420  145.4290 C   0  0  0  0  0  0  0  0  0  0  0  0
  191.4890  177.3720  142.3430 C   0  0  0  0  0  3  0  0  0  0  0  0
  190.8040  177.2830  141.1180 C   0  0  0  0  0  0  0  0  0  0  0  0
  190.7200  177.2160  143.4860 C   0  0  0  0  0  0  0  0  0  0  0  0
  188.8560  176.8710  144.6440 N   0  0  0  0  0  0  0  0  0  0  0  0
  191.0720  177.2480  144.7420 O   0  0  0  0  0  0  0  0  0  0  0  0
  189.9120  176.9980  146.8950 C   0  0  0  0  0  0  0  0  0  0  0  0
  188.6200  177.1730  147.6140 C   0  0  0  0  0  1  0  0  0  0  0  0
  190.9960  176.8190  147.5750 N   0  0  0  0  0  2  0  0  0  0  0  0
  2  1  1  1  0  0  0
  2 20  1  0  0  0  0
  3 13  1  0  0  0  0
  4 11  1  0  0  0  0
  5 14  1  0  0  0  0
  6  4  1  0  0  0  0
  6  8  1  0  0  0  0
  7 13  1  0  0  0  0
  7 10  1  0  0  0  0
  8  5  2  0  0  0  0
  9 11  1  1  0  0  0
  9  5  1  0  0  0  0
  9  7  1  0  0  0  0
 10 12  1  0  0  0  0
 11  3  2  0  0  0  0
 12  2  1  0  0  0  0
 14 10  2  0  0  0  0
 15 21  1  0  0  0  0
 15 22  1  0  0  0  0
 16 15  2  0  0  0  0
 17 20  2  0  0  0  0
 17 16  1  0  0  0  0
 18 24  1  0  0  0  0
 19 21  2  0  0  0  0
 20 19  1  0  0  0  0
 21 23  1  0  0  0  0
 22 18  2  0  0  0  0
 23 18  1  0  0  0  0
 24 26  2  0  0  0  0
 24 25  1  0  0  0  0
M  END
>  <MODEL>
9

>  <REMARK>
 VINA RESULT:      -7.3      4.155      5.747
  Name = 
  3 active torsions:
  status: ('A' for Active; 'I' for Inactive)
    1  A    between atoms: C_1  and  C_14
    2  A    between atoms: C_18  and  C_22
    3  A    between atoms: N_21  and  C_22
                            x       y       z     vdW  Elec       q    Type
                         _______ _______ _______ _____ _____    ______ ____

>  <TORSDO>
F 3

$$$$
