=
 OpenBabel11042412023D

 28 31  0  0  1  0  0  0  0  0999 V2000
  184.4040  178.2720  138.3460 N   0  0  0  0  0  0  0  0  0  0  0  0
  183.6580  178.8760  139.4930 C   0  0  1  0  0  3  0  0  0  0  0  0
  182.9960  177.9280  138.7140 C   0  0  2  0  0  3  0  0  0  0  0  0
  181.1500  175.2340  138.9830 C   0  0  0  0  0  0  0  0  0  0  0  0
  181.6070  176.1840  139.7220 N   0  0  0  0  0  0  0  0  0  0  0  0
  182.0360  174.8010  137.9670 N   0  0  0  0  0  0  0  0  0  0  0  0
  182.9440  176.4880  139.2360 C   0  0  1  0  0  3  0  0  0  0  0  0
  183.0950  175.5270  138.0980 C   0  0  0  0  0  3  0  0  0  0  0  0
  179.8550  174.6760  139.1680 N   0  0  0  0  0  1  0  0  0  0  0  0
  185.2610  179.0440  141.3430 C   0  0  0  0  0  3  0  0  0  0  0  0
  184.2510  178.3930  140.7810 C   0  0  0  0  0  3  0  0  0  0  0  0
  185.8710  178.6230  142.5720 N   0  0  0  0  0  0  0  0  0  0  0  0
  188.4770  176.9090  145.8450 N   0  0  0  0  0  0  0  0  0  0  0  0
  185.4480  178.8160  143.8530 C   0  0  0  0  0  0  0  0  0  0  0  0
  185.3810  178.7170  147.0050 C   0  0  0  0  0  1  0  0  0  0  0  0
  186.4200  178.1360  146.1100 C   0  0  0  0  0  0  0  0  0  0  0  0
  187.3320  177.6780  143.9260 C   0  0  0  0  0  0  0  0  0  0  0  0
  188.4120  177.0050  144.4850 C   0  0  0  0  0  3  0  0  0  0  0  0
  186.3580  178.2310  144.7150 C   0  0  0  0  0  0  0  0  0  0  0  0
  187.0280  177.9220  142.6050 C   0  0  0  0  0  3  0  0  0  0  0  0
  187.5180  177.4510  146.6590 C   0  0  0  0  0  3  0  0  0  0  0  0
  184.2290  179.5840  144.2590 C   0  0  0  0  0  2  0  0  0  0  0  0
  183.0180  178.6710  144.2590 C   0  0  0  0  0  1  0  0  0  0  0  0
  186.6320  178.6910  137.8970 N   0  0  0  0  0  0  0  0  0  0  0  0
  185.5510  178.1170  137.5610 N   0  0  0  0  0  0  0  0  0  0  0  0
  188.8560  179.4560  137.2260 O   0  0  0  0  0  1  0  0  0  0  0  0
  187.8140  178.5430  137.1120 C   0  0  0  0  0  0  0  0  0  0  0  0
  187.9140  177.5790  136.3110 O   0  0  0  0  0  0  0  0  0  0  0  0
  1  2  1  0  0  0  0
  2 11  1  1  0  0  0
  3  1  1  6  0  0  0
  3  7  1  0  0  0  0
  3  2  1  0  0  0  0
  4  9  1  0  0  0  0
  4  5  2  0  0  0  0
  6  8  2  0  0  0  0
  6  4  1  0  0  0  0
  7  8  1  6  0  0  0
  7  5  1  0  0  0  0
 10 12  1  0  0  0  0
 11 10  2  0  0  0  0
 12 20  1  0  0  0  0
 12 14  1  0  0  0  0
 13 21  1  0  0  0  0
 14 22  1  0  0  0  0
 14 19  2  0  0  0  0
 16 21  2  0  0  0  0
 16 15  1  0  0  0  0
 17 18  1  0  0  0  0
 17 19  1  0  0  0  0
 18 13  2  0  0  0  0
 19 16  1  0  0  0  0
 20 17  2  0  0  0  0
 22 23  1  0  0  0  0
 25 24  2  0  0  0  0
 25  1  1  0  0  0  0
 27 26  1  0  0  0  0
 27 24  1  0  0  0  0
 28 27  2  0  0  0  0
M  END
>  <MODEL>
1

>  <REMARK>
 VINA RESULT:      -7.6      0.000      0.000
  Name = 
  6 active torsions:
  status: ('A' for Active; 'I' for Inactive)
    1  A    between atoms: C_1  and  C_9
    2  A    between atoms: N_4  and  C_8
    3  A    between atoms: C_12  and  C_28
    4  A    between atoms: C_13  and  N_15
    5  A    between atoms: N_16  and  N_17
    6  A    between atoms: C_20  and  C_23
                            x       y       z     vdW  Elec       q    Type
                         _______ _______ _______ _____ _____    ______ ____

>  <TORSDO>
F 6

$$$$
=
 OpenBabel11042412023D

 28 31  0  0  1  0  0  0  0  0999 V2000
  191.0920  176.1080  138.4000 N   0  0  0  0  0  0  0  0  0  0  0  0
  191.1730  177.3450  139.2370 C   0  0  1  0  0  3  0  0  0  0  0  0
  190.1400  177.2580  138.3030 C   0  0  2  0  0  3  0  0  0  0  0  0
  186.9280  177.9020  138.2370 C   0  0  0  0  0  0  0  0  0  0  0  0
  187.9260  177.9870  139.0470 N   0  0  0  0  0  0  0  0  0  0  0  0
  186.9480  176.7640  137.3950 N   0  0  0  0  0  0  0  0  0  0  0  0
  188.7610  176.8200  138.8070 C   0  0  1  0  0  3  0  0  0  0  0  0
  188.0180  176.1160  137.7140 C   0  0  0  0  0  3  0  0  0  0  0  0
  185.8980  178.8810  138.1870 N   0  0  0  0  0  1  0  0  0  0  0  0
  191.1780  177.8220  141.6430 C   0  0  0  0  0  3  0  0  0  0  0  0
  190.8280  177.0100  140.6540 C   0  0  0  0  0  3  0  0  0  0  0  0
  190.8780  177.5480  143.0200 N   0  0  0  0  0  0  0  0  0  0  0  0
  190.8790  176.3890  147.3890 N   0  0  0  0  0  0  0  0  0  0  0  0
  189.7080  177.7160  143.6950 C   0  0  0  0  0  0  0  0  0  0  0  0
  187.6160  177.7200  146.0570 C   0  0  0  0  0  1  0  0  0  0  0  0
  189.0370  177.2810  146.1170 C   0  0  0  0  0  0  0  0  0  0  0  0
  191.1900  176.8960  145.1030 C   0  0  0  0  0  0  0  0  0  0  0  0
  191.7060  176.4240  146.3040 C   0  0  0  0  0  3  0  0  0  0  0  0
  189.8890  177.3150  145.0070 C   0  0  0  0  0  0  0  0  0  0  0  0
  191.7970  177.0410  143.8740 C   0  0  0  0  0  3  0  0  0  0  0  0
  189.5740  176.8000  147.3240 C   0  0  0  0  0  3  0  0  0  0  0  0
  188.4500  178.2940  143.1250 C   0  0  0  0  0  2  0  0  0  0  0  0
  187.5740  177.1850  142.5740 C   0  0  0  0  0  1  0  0  0  0  0  0
  192.6090  174.7100  137.3570 N   0  0  0  0  0  0  0  0  0  0  0  0
  191.5380  174.8360  138.0270 N   0  0  0  0  0  0  0  0  0  0  0  0
  194.3100  172.9540  137.4250 O   0  0  0  0  0  1  0  0  0  0  0  0
  193.0820  173.4210  136.9700 C   0  0  0  0  0  0  0  0  0  0  0  0
  192.3820  172.7020  136.2120 O   0  0  0  0  0  0  0  0  0  0  0  0
  1  2  1  0  0  0  0
  2 11  1  1  0  0  0
  3  1  1  6  0  0  0
  3  7  1  0  0  0  0
  3  2  1  0  0  0  0
  4  5  2  0  0  0  0
  6  8  2  0  0  0  0
  6  4  1  0  0  0  0
  7  8  1  6  0  0  0
  7  5  1  0  0  0  0
  9  4  1  0  0  0  0
 10 12  1  0  0  0  0
 11 10  2  0  0  0  0
 12 14  1  0  0  0  0
 12 20  1  0  0  0  0
 14 19  2  0  0  0  0
 15 16  1  0  0  0  0
 16 21  2  0  0  0  0
 17 18  1  0  0  0  0
 18 13  2  0  0  0  0
 19 17  1  0  0  0  0
 19 16  1  0  0  0  0
 20 17  2  0  0  0  0
 21 13  1  0  0  0  0
 22 14  1  0  0  0  0
 23 22  1  0  0  0  0
 24 25  2  0  0  0  0
 25  1  1  0  0  0  0
 27 24  1  0  0  0  0
 27 26  1  0  0  0  0
 28 27  2  0  0  0  0
M  END
>  <MODEL>
2

>  <REMARK>
 VINA RESULT:      -7.5      4.011      5.756
  Name = 
  6 active torsions:
  status: ('A' for Active; 'I' for Inactive)
    1  A    between atoms: C_1  and  C_9
    2  A    between atoms: N_4  and  C_8
    3  A    between atoms: C_12  and  C_28
    4  A    between atoms: C_13  and  N_15
    5  A    between atoms: N_16  and  N_17
    6  A    between atoms: C_20  and  C_23
                            x       y       z     vdW  Elec       q    Type
                         _______ _______ _______ _____ _____    ______ ____

>  <TORSDO>
F 6

$$$$
=
 OpenBabel11042412023D

 28 31  0  0  1  0  0  0  0  0999 V2000
  189.9140  177.2190  138.2420 N   0  0  0  0  0  0  0  0  0  0  0  0
  189.2440  178.4940  138.6430 C   0  0  1  0  0  3  0  0  0  0  0  0
  188.6870  177.7700  137.5890 C   0  0  2  0  0  3  0  0  0  0  0  0
  185.7850  176.6850  136.5230 C   0  0  0  0  0  0  0  0  0  0  0  0
  186.2630  177.4730  137.4220 N   0  0  0  0  0  0  0  0  0  0  0  0
  186.5610  175.5260  136.2810 N   0  0  0  0  0  0  0  0  0  0  0  0
  187.4930  176.8620  137.9040 C   0  0  1  0  0  3  0  0  0  0  0  0
  187.5700  175.6130  137.0810 C   0  0  0  0  0  3  0  0  0  0  0  0
  184.5770  176.9650  135.8250 N   0  0  0  0  0  1  0  0  0  0  0  0
  189.3580  178.1190  141.0640 C   0  0  0  0  0  3  0  0  0  0  0  0
  188.6100  178.3210  139.9880 C   0  0  0  0  0  3  0  0  0  0  0  0
  188.8050  177.9410  142.3760 N   0  0  0  0  0  0  0  0  0  0  0  0
  186.1960  177.4750  146.0390 N   0  0  0  0  0  0  0  0  0  0  0  0
  189.4470  177.7550  143.5630 C   0  0  0  0  0  0  0  0  0  0  0  0
  189.9100  177.2930  146.6490 C   0  0  0  0  0  1  0  0  0  0  0  0
  188.6040  177.4250  145.9460 C   0  0  0  0  0  0  0  0  0  0  0  0
  187.2810  177.7550  143.9580 C   0  0  0  0  0  0  0  0  0  0  0  0
  186.1030  177.6760  144.6920 C   0  0  0  0  0  3  0  0  0  0  0  0
  188.5020  177.6320  144.5660 C   0  0  0  0  0  0  0  0  0  0  0  0
  187.4710  177.9450  142.6070 C   0  0  0  0  0  3  0  0  0  0  0  0
  187.4030  177.3500  146.6740 C   0  0  0  0  0  3  0  0  0  0  0  0
  190.9290  177.6460  143.7410 C   0  0  0  0  0  2  0  0  0  0  0  0
  191.5310  179.0240  143.9350 C   0  0  0  0  0  1  0  0  0  0  0  0
  192.0170  176.3690  137.7980 N   0  0  0  0  0  0  0  0  0  0  0  0
  190.9030  176.2410  138.3920 N   0  0  0  0  0  0  0  0  0  0  0  0
  194.2980  175.7370  138.4140 O   0  0  0  0  0  1  0  0  0  0  0  0
  193.0400  175.3840  137.9410 C   0  0  0  0  0  0  0  0  0  0  0  0
  192.8000  174.1880  137.6360 O   0  0  0  0  0  0  0  0  0  0  0  0
  1 25  1  0  0  0  0
  1  2  1  0  0  0  0
  2 11  1  1  0  0  0
  3  7  1  0  0  0  0
  3  1  1  1  0  0  0
  3  2  1  0  0  0  0
  4  5  2  0  0  0  0
  5  7  1  0  0  0  0
  6  4  1  0  0  0  0
  6  8  2  0  0  0  0
  7  8  1  6  0  0  0
  9  4  1  0  0  0  0
 10 12  1  0  0  0  0
 11 10  2  0  0  0  0
 12 20  1  0  0  0  0
 12 14  1  0  0  0  0
 13 21  1  0  0  0  0
 14 22  1  0  0  0  0
 14 19  2  0  0  0  0
 16 15  1  0  0  0  0
 16 21  2  0  0  0  0
 17 19  1  0  0  0  0
 17 18  1  0  0  0  0
 18 13  2  0  0  0  0
 19 16  1  0  0  0  0
 20 17  2  0  0  0  0
 22 23  1  0  0  0  0
 24 27  1  0  0  0  0
 24 25  2  0  0  0  0
 27 26  1  0  0  0  0
 28 27  2  0  0  0  0
M  END
>  <MODEL>
3

>  <REMARK>
 VINA RESULT:      -7.3      3.397      4.924
  Name = 
  6 active torsions:
  status: ('A' for Active; 'I' for Inactive)
    1  A    between atoms: C_1  and  C_9
    2  A    between atoms: N_4  and  C_8
    3  A    between atoms: C_12  and  C_28
    4  A    between atoms: C_13  and  N_15
    5  A    between atoms: N_16  and  N_17
    6  A    between atoms: C_20  and  C_23
                            x       y       z     vdW  Elec       q    Type
                         _______ _______ _______ _____ _____    ______ ____

>  <TORSDO>
F 6

$$$$
=
 OpenBabel11042412023D

 28 31  0  0  1  0  0  0  0  0999 V2000
  184.5970  178.0570  138.0750 N   0  0  0  0  0  0  0  0  0  0  0  0
  183.5330  178.6990  138.9070 C   0  0  1  0  0  3  0  0  0  0  0  0
  183.1670  177.6210  138.1010 C   0  0  2  0  0  3  0  0  0  0  0  0
  181.4620  174.8260  138.2340 C   0  0  0  0  0  0  0  0  0  0  0  0
  181.6700  175.8790  138.9450 N   0  0  0  0  0  0  0  0  0  0  0  0
  182.5920  174.3680  137.5150 N   0  0  0  0  0  0  0  0  0  0  0  0
  183.0680  176.2410  138.7590 C   0  0  1  0  0  3  0  0  0  0  0  0
  183.5450  175.1870  137.8100 C   0  0  0  0  0  3  0  0  0  0  0  0
  180.1940  174.1860  138.1690 N   0  0  0  0  0  1  0  0  0  0  0  0
  184.7390  179.0420  141.0150 C   0  0  0  0  0  3  0  0  0  0  0  0
  183.7850  178.4010  140.3530 C   0  0  0  0  0  3  0  0  0  0  0  0
  185.0280  178.7940  142.3990 N   0  0  0  0  0  0  0  0  0  0  0  0
  185.0470  178.4150  146.9040 N   0  0  0  0  0  0  0  0  0  0  0  0
  186.1390  178.2400  142.9600 C   0  0  0  0  0  0  0  0  0  0  0  0
  188.1280  177.1410  145.1480 C   0  0  0  0  0  1  0  0  0  0  0  0
  186.7830  177.7390  145.3760 C   0  0  0  0  0  0  0  0  0  0  0  0
  184.7430  178.7510  144.5850 C   0  0  0  0  0  0  0  0  0  0  0  0
  184.2600  178.8650  145.8830 C   0  0  0  0  0  3  0  0  0  0  0  0
  185.9730  178.2020  144.3330 C   0  0  0  0  0  0  0  0  0  0  0  0
  184.1630  179.1150  143.3890 C   0  0  0  0  0  3  0  0  0  0  0  0
  186.2810  177.8630  146.6830 C   0  0  0  0  0  3  0  0  0  0  0  0
  187.3190  177.7080  142.2080 C   0  0  0  0  0  2  0  0  0  0  0  0
  188.2140  178.8520  141.7710 C   0  0  0  0  0  1  0  0  0  0  0  0
  186.8640  178.4290  138.3320 N   0  0  0  0  0  0  0  0  0  0  0  0
  185.9210  177.9330  137.6420 N   0  0  0  0  0  0  0  0  0  0  0  0
  188.8010  177.0590  137.7390 O   0  0  0  0  0  1  0  0  0  0  0  0
  188.2210  178.3110  137.9100 C   0  0  0  0  0  0  0  0  0  0  0  0
  188.8980  179.3480  137.6890 O   0  0  0  0  0  0  0  0  0  0  0  0
  1  2  1  0  0  0  0
  2 11  1  1  0  0  0
  3  1  1  6  0  0  0
  3  7  1  0  0  0  0
  3  2  1  0  0  0  0
  4  5  2  0  0  0  0
  6  8  2  0  0  0  0
  6  4  1  0  0  0  0
  7  8  1  6  0  0  0
  7  5  1  0  0  0  0
  9  4  1  0  0  0  0
 10 12  1  0  0  0  0
 11 10  2  0  0  0  0
 12 14  1  0  0  0  0
 12 20  1  0  0  0  0
 14 19  2  0  0  0  0
 15 16  1  0  0  0  0
 16 21  2  0  0  0  0
 17 18  1  0  0  0  0
 18 13  2  0  0  0  0
 19 17  1  0  0  0  0
 19 16  1  0  0  0  0
 20 17  2  0  0  0  0
 21 13  1  0  0  0  0
 22 14  1  0  0  0  0
 23 22  1  0  0  0  0
 25  1  1  0  0  0  0
 25 24  2  0  0  0  0
 26 27  1  0  0  0  0
 27 24  1  0  0  0  0
 28 27  2  0  0  0  0
M  END
>  <MODEL>
4

>  <REMARK>
 VINA RESULT:      -7.3      1.165      2.275
  Name = 
  6 active torsions:
  status: ('A' for Active; 'I' for Inactive)
    1  A    between atoms: C_1  and  C_9
    2  A    between atoms: N_4  and  C_8
    3  A    between atoms: C_12  and  C_28
    4  A    between atoms: C_13  and  N_15
    5  A    between atoms: N_16  and  N_17
    6  A    between atoms: C_20  and  C_23
                            x       y       z     vdW  Elec       q    Type
                         _______ _______ _______ _____ _____    ______ ____

>  <TORSDO>
F 6

$$$$
=
 OpenBabel11042412023D

 28 31  0  0  1  0  0  0  0  0999 V2000
  192.6430  175.5970  137.8580 N   0  0  0  0  0  0  0  0  0  0  0  0
  191.8880  176.8090  138.3020 C   0  0  1  0  0  3  0  0  0  0  0  0
  191.3100  176.0060  137.3190 C   0  0  2  0  0  3  0  0  0  0  0  0
  188.3640  174.7360  136.6500 C   0  0  0  0  0  0  0  0  0  0  0  0
  188.9180  175.5220  137.5070 N   0  0  0  0  0  0  0  0  0  0  0  0
  189.1760  173.6560  136.2300 N   0  0  0  0  0  0  0  0  0  0  0  0
  190.2490  174.9920  137.7620 C   0  0  1  0  0  3  0  0  0  0  0  0
  190.2890  173.7900  136.8710 C   0  0  0  0  0  3  0  0  0  0  0  0
  187.0450  174.9480  136.1610 N   0  0  0  0  0  1  0  0  0  0  0  0
  191.2760  177.6400  140.5280 C   0  0  0  0  0  3  0  0  0  0  0  0
  191.4050  176.6070  139.7050 C   0  0  0  0  0  3  0  0  0  0  0  0
  190.8240  177.5050  141.8830 N   0  0  0  0  0  0  0  0  0  0  0  0
  190.3650  177.0920  146.3620 N   0  0  0  0  0  0  0  0  0  0  0  0
  189.5520  177.4130  142.3600 C   0  0  0  0  0  0  0  0  0  0  0  0
  187.1530  177.1480  144.3930 C   0  0  0  0  0  1  0  0  0  0  0  0
  188.6060  177.1760  144.7160 C   0  0  0  0  0  0  0  0  0  0  0  0
  190.9270  177.3090  144.0770 C   0  0  0  0  0  0  0  0  0  0  0  0
  191.3300  177.2080  145.4030 C   0  0  0  0  0  3  0  0  0  0  0  0
  189.5990  177.2940  143.7380 C   0  0  0  0  0  0  0  0  0  0  0  0
  191.6790  177.4400  142.9300 C   0  0  0  0  0  3  0  0  0  0  0  0
  189.0310  177.0730  146.0520 C   0  0  0  0  0  3  0  0  0  0  0  0
  188.3060  177.4870  141.5330 C   0  0  0  0  0  2  0  0  0  0  0  0
  187.9780  178.9340  141.2170 C   0  0  0  0  0  1  0  0  0  0  0  0
  194.8380  175.1290  138.4110 N   0  0  0  0  0  0  0  0  0  0  0  0
  193.7360  174.7260  137.9270 N   0  0  0  0  0  0  0  0  0  0  0  0
  197.2380  174.7180  138.1880 O   0  0  0  0  0  0  0  0  0  0  0  0
  195.9630  174.2560  138.4930 C   0  0  0  0  0  0  0  0  0  0  0  0
  195.8010  173.0600  138.8450 O   0  0  0  0  0  1  0  0  0  0  0  0
  1 25  1  0  0  0  0
  1  2  1  0  0  0  0
  2 11  1  1  0  0  0
  3  7  1  0  0  0  0
  3  1  1  1  0  0  0
  3  2  1  0  0  0  0
  4  5  2  0  0  0  0
  5  7  1  0  0  0  0
  6  4  1  0  0  0  0
  6  8  2  0  0  0  0
  7  8  1  6  0  0  0
  9  4  1  0  0  0  0
 10 12  1  0  0  0  0
 11 10  2  0  0  0  0
 12 14  1  0  0  0  0
 12 20  1  0  0  0  0
 14 19  2  0  0  0  0
 15 16  1  0  0  0  0
 16 21  2  0  0  0  0
 17 18  1  0  0  0  0
 18 13  2  0  0  0  0
 19 17  1  0  0  0  0
 19 16  1  0  0  0  0
 20 17  2  0  0  0  0
 21 13  1  0  0  0  0
 22 14  1  0  0  0  0
 23 22  1  0  0  0  0
 24 27  1  0  0  0  0
 25 24  2  0  0  0  0
 26 27  2  0  0  0  0
 27 28  1  0  0  0  0
M  END
>  <MODEL>
5

>  <REMARK>
 VINA RESULT:      -7.1      5.165      6.777
  Name = 
  6 active torsions:
  status: ('A' for Active; 'I' for Inactive)
    1  A    between atoms: C_1  and  C_9
    2  A    between atoms: N_4  and  C_8
    3  A    between atoms: C_12  and  C_28
    4  A    between atoms: C_13  and  N_15
    5  A    between atoms: N_16  and  N_17
    6  A    between atoms: C_20  and  C_23
                            x       y       z     vdW  Elec       q    Type
                         _______ _______ _______ _____ _____    ______ ____

>  <TORSDO>
F 6

$$$$
=
 OpenBabel11042412023D

 28 31  0  0  1  0  0  0  0  0999 V2000
  182.7640  177.2080  139.0690 N   0  0  0  0  0  0  0  0  0  0  0  0
  183.5880  178.3600  139.5500 C   0  0  1  0  0  3  0  0  0  0  0  0
  182.2000  178.4950  139.5800 C   0  0  2  0  0  3  0  0  0  0  0  0
  180.1030  179.7250  141.7770 C   0  0  0  0  0  0  0  0  0  0  0  0
  181.3640  179.4930  141.6520 N   0  0  0  0  0  0  0  0  0  0  0  0
  179.2630  178.7520  141.1830 N   0  0  0  0  0  0  0  0  0  0  0  0
  181.4890  178.2450  140.9140 C   0  0  1  0  0  3  0  0  0  0  0  0
  180.0590  177.8750  140.6700 C   0  0  0  0  0  3  0  0  0  0  0  0
  179.6000  180.8730  142.4500 N   0  0  0  0  0  1  0  0  0  0  0  0
  185.2410  178.7310  141.3240 C   0  0  0  0  0  3  0  0  0  0  0  0
  184.2550  177.9890  140.8380 C   0  0  0  0  0  3  0  0  0  0  0  0
  185.9190  178.4210  142.5500 N   0  0  0  0  0  0  0  0  0  0  0  0
  188.7070  176.9980  145.8130 N   0  0  0  0  0  0  0  0  0  0  0  0
  185.5690  178.7300  143.8290 C   0  0  0  0  0  0  0  0  0  0  0  0
  185.6790  178.9160  146.9770 C   0  0  0  0  0  1  0  0  0  0  0  0
  186.6670  178.2530  146.0810 C   0  0  0  0  0  0  0  0  0  0  0  0
  187.4550  177.5950  143.9000 C   0  0  0  0  0  0  0  0  0  0  0  0
  188.5660  176.9710  144.4550 C   0  0  0  0  0  3  0  0  0  0  0  0
  186.5270  178.2220  144.6890 C   0  0  0  0  0  0  0  0  0  0  0  0
  187.0770  177.7200  142.5810 C   0  0  0  0  0  3  0  0  0  0  0  0
  187.7940  177.6150  146.6270 C   0  0  0  0  0  3  0  0  0  0  0  0
  184.3740  179.5370  144.2320 C   0  0  0  0  0  2  0  0  0  0  0  0
  183.1870  178.6220  144.4670 C   0  0  0  0  0  1  0  0  0  0  0  0
  181.4950  175.5000  138.1660 N   0  0  0  0  0  0  0  0  0  0  0  0
  182.6270  175.9090  138.5680 N   0  0  0  0  0  0  0  0  0  0  0  0
  182.2840  173.6380  136.7900 O   0  0  0  0  0  0  0  0  0  0  0  0
  181.3340  174.1800  137.6490 C   0  0  0  0  0  0  0  0  0  0  0  0
  180.3270  173.5010  137.9740 O   0  0  0  0  0  1  0  0  0  0  0  0
  1  2  1  0  0  0  0
  2  3  1  0  0  0  0
  2 11  1  1  0  0  0
  3  1  1  6  0  0  0
  3  7  1  0  0  0  0
  4  9  1  0  0  0  0
  5  4  2  0  0  0  0
  6  4  1  0  0  0  0
  7  8  1  6  0  0  0
  7  5  1  0  0  0  0
  8  6  2  0  0  0  0
 10 12  1  0  0  0  0
 11 10  2  0  0  0  0
 12 20  1  0  0  0  0
 12 14  1  0  0  0  0
 13 21  1  0  0  0  0
 14 22  1  0  0  0  0
 14 19  2  0  0  0  0
 16 21  2  0  0  0  0
 16 15  1  0  0  0  0
 17 18  1  0  0  0  0
 17 19  1  0  0  0  0
 18 13  2  0  0  0  0
 19 16  1  0  0  0  0
 20 17  2  0  0  0  0
 22 23  1  0  0  0  0
 24 25  2  0  0  0  0
 25  1  1  0  0  0  0
 26 27  2  0  0  0  0
 27 28  1  0  0  0  0
 27 24  1  0  0  0  0
M  END
>  <MODEL>
6

>  <REMARK>
 VINA RESULT:      -7.0      2.879      3.918
  Name = 
  6 active torsions:
  status: ('A' for Active; 'I' for Inactive)
    1  A    between atoms: C_1  and  C_9
    2  A    between atoms: N_4  and  C_8
    3  A    between atoms: C_12  and  C_28
    4  A    between atoms: C_13  and  N_15
    5  A    between atoms: N_16  and  N_17
    6  A    between atoms: C_20  and  C_23
                            x       y       z     vdW  Elec       q    Type
                         _______ _______ _______ _____ _____    ______ ____

>  <TORSDO>
F 6

$$$$
=
 OpenBabel11042412023D

 28 31  0  0  1  0  0  0  0  0999 V2000
  190.4060  176.2400  138.6550 N   0  0  0  0  0  0  0  0  0  0  0  0
  190.9190  177.1590  139.7170 C   0  0  1  0  0  3  0  0  0  0  0  0
  190.4310  177.7300  138.5420 C   0  0  2  0  0  3  0  0  0  0  0  0
  187.7490  178.2620  136.7370 C   0  0  0  0  0  0  0  0  0  0  0  0
  188.7020  178.9280  137.2920 N   0  0  0  0  0  0  0  0  0  0  0  0
  187.3030  177.1420  137.4790 N   0  0  0  0  0  0  0  0  0  0  0  0
  188.9960  178.2660  138.5540 C   0  0  1  0  0  3  0  0  0  0  0  0
  188.0250  177.1260  138.5490 C   0  0  0  0  0  3  0  0  0  0  0  0
  187.1990  178.6220  135.4760 N   0  0  0  0  0  1  0  0  0  0  0  0
  190.3990  177.5370  142.0840 C   0  0  0  0  0  3  0  0  0  0  0  0
  189.9880  177.1340  140.8890 C   0  0  0  0  0  3  0  0  0  0  0  0
  189.5520  177.5300  143.2430 N   0  0  0  0  0  0  0  0  0  0  0  0
  186.1530  177.5150  146.2250 N   0  0  0  0  0  0  0  0  0  0  0  0
  189.8960  177.5230  144.5600 C   0  0  0  0  0  0  0  0  0  0  0  0
  189.6190  177.4990  147.7030 C   0  0  0  0  0  1  0  0  0  0  0  0
  188.5150  177.5050  146.7040 C   0  0  0  0  0  0  0  0  0  0  0  0
  187.6980  177.5300  144.4360 C   0  0  0  0  0  0  0  0  0  0  0  0
  186.3800  177.5280  144.8790 C   0  0  0  0  0  3  0  0  0  0  0  0
  188.7420  177.5180  145.3230 C   0  0  0  0  0  0  0  0  0  0  0  0
  188.2010  177.5370  143.1540 C   0  0  0  0  0  3  0  0  0  0  0  0
  187.1770  177.5050  147.1350 C   0  0  0  0  0  3  0  0  0  0  0  0
  191.2950  177.4710  145.0930 C   0  0  0  0  0  2  0  0  0  0  0  0
  191.7390  176.0280  145.2420 C   0  0  0  0  0  1  0  0  0  0  0  0
  190.1100  174.7470  136.9150 N   0  0  0  0  0  0  0  0  0  0  0  0
  190.0970  174.9660  138.1650 N   0  0  0  0  0  0  0  0  0  0  0  0
  190.6940  172.8010  135.5550 O   0  0  0  0  0  0  0  0  0  0  0  0
  189.8010  173.4550  136.3950 C   0  0  0  0  0  0  0  0  0  0  0  0
  188.7130  172.9040  136.7010 O   0  0  0  0  0  1  0  0  0  0  0  0
  1  2  1  0  0  0  0
  2 11  1  1  0  0  0
  3  7  1  0  0  0  0
  3  1  1  6  0  0  0
  3  2  1  0  0  0  0
  4  5  2  0  0  0  0
  4  6  1  0  0  0  0
  5  7  1  0  0  0  0
  6  8  2  0  0  0  0
  7  8  1  6  0  0  0
  9  4  1  0  0  0  0
 10 12  1  0  0  0  0
 11 10  2  0  0  0  0
 12 14  1  0  0  0  0
 13 21  1  0  0  0  0
 14 22  1  0  0  0  0
 14 19  2  0  0  0  0
 16 21  2  0  0  0  0
 16 15  1  0  0  0  0
 17 18  1  0  0  0  0
 17 19  1  0  0  0  0
 18 13  2  0  0  0  0
 19 16  1  0  0  0  0
 20 12  1  0  0  0  0
 20 17  2  0  0  0  0
 22 23  1  0  0  0  0
 24 25  2  0  0  0  0
 25  1  1  0  0  0  0
 26 27  2  0  0  0  0
 27 28  1  0  0  0  0
 27 24  1  0  0  0  0
M  END
>  <MODEL>
7

>  <REMARK>
 VINA RESULT:      -6.9      4.078      5.684
  Name = 
  6 active torsions:
  status: ('A' for Active; 'I' for Inactive)
    1  A    between atoms: C_1  and  C_9
    2  A    between atoms: N_4  and  C_8
    3  A    between atoms: C_12  and  C_28
    4  A    between atoms: C_13  and  N_15
    5  A    between atoms: N_16  and  N_17
    6  A    between atoms: C_20  and  C_23
                            x       y       z     vdW  Elec       q    Type
                         _______ _______ _______ _____ _____    ______ ____

>  <TORSDO>
F 6

$$$$
=
 OpenBabel11042412023D

 28 31  0  0  1  0  0  0  0  0999 V2000
  182.7140  177.1580  139.5410 N   0  0  0  0  0  0  0  0  0  0  0  0
  183.3860  178.3720  140.1000 C   0  0  1  0  0  3  0  0  0  0  0  0
  181.9920  178.3370  140.1100 C   0  0  2  0  0  3  0  0  0  0  0  0
  179.6530  179.1160  142.2680 C   0  0  0  0  0  0  0  0  0  0  0  0
  180.9370  179.1130  142.1780 N   0  0  0  0  0  0  0  0  0  0  0  0
  179.0140  178.0280  141.6260 N   0  0  0  0  0  0  0  0  0  0  0  0
  181.3000  177.9270  141.4150 C   0  0  1  0  0  3  0  0  0  0  0  0
  179.9650  177.3200  141.1170 C   0  0  0  0  0  3  0  0  0  0  0  0
  178.9370  180.1380  142.9510 N   0  0  0  0  0  1  0  0  0  0  0  0
  184.7670  178.9250  142.0500 C   0  0  0  0  0  3  0  0  0  0  0  0
  184.0770  178.0130  141.3780 C   0  0  0  0  0  3  0  0  0  0  0  0
  185.4540  178.6360  143.2760 N   0  0  0  0  0  0  0  0  0  0  0  0
  186.8200  178.1430  147.5580 N   0  0  0  0  0  0  0  0  0  0  0  0
  186.6670  178.0470  143.4660 C   0  0  0  0  0  0  0  0  0  0  0  0
  189.1940  176.8540  144.9300 C   0  0  0  0  0  1  0  0  0  0  0  0
  187.9960  177.4720  145.5640 C   0  0  0  0  0  0  0  0  0  0  0  0
  185.8400  178.5440  145.4450 C   0  0  0  0  0  0  0  0  0  0  0  0
  185.7750  178.6350  146.8310 C   0  0  0  0  0  3  0  0  0  0  0  0
  186.9220  177.9770  144.8240 C   0  0  0  0  0  0  0  0  0  0  0  0
  184.9370  178.9490  144.4870 C   0  0  0  0  0  3  0  0  0  0  0  0
  187.9150  177.5730  146.9640 C   0  0  0  0  0  3  0  0  0  0  0  0
  187.5510  177.5100  142.3830 C   0  0  0  0  0  2  0  0  0  0  0  0
  188.3990  178.6270  141.8060 C   0  0  0  0  0  1  0  0  0  0  0  0
  183.5600  175.6250  138.0320 N   0  0  0  0  0  0  0  0  0  0  0  0
  182.7430  175.8820  138.9680 N   0  0  0  0  0  0  0  0  0  0  0  0
  182.4380  173.6100  137.2190 O   0  0  0  0  0  1  0  0  0  0  0  0
  183.6070  174.3300  137.4360 C   0  0  0  0  0  0  0  0  0  0  0  0
  184.7150  173.8350  137.1040 O   0  0  0  0  0  0  0  0  0  0  0  0
  1  2  1  0  0  0  0
  2  3  1  0  0  0  0
  2 11  1  1  0  0  0
  3  1  1  6  0  0  0
  3  7  1  0  0  0  0
  4  9  1  0  0  0  0
  5  4  2  0  0  0  0
  6  4  1  0  0  0  0
  7  8  1  6  0  0  0
  7  5  1  0  0  0  0
  8  6  2  0  0  0  0
 10 12  1  0  0  0  0
 11 10  2  0  0  0  0
 12 14  1  0  0  0  0
 12 20  1  0  0  0  0
 14 19  2  0  0  0  0
 15 16  1  0  0  0  0
 16 21  2  0  0  0  0
 17 18  1  0  0  0  0
 18 13  2  0  0  0  0
 19 17  1  0  0  0  0
 19 16  1  0  0  0  0
 20 17  2  0  0  0  0
 21 13  1  0  0  0  0
 22 14  1  0  0  0  0
 23 22  1  0  0  0  0
 24 25  2  0  0  0  0
 25  1  1  0  0  0  0
 26 27  1  0  0  0  0
 27 24  1  0  0  0  0
 28 27  2  0  0  0  0
M  END
>  <MODEL>
8

>  <REMARK>
 VINA RESULT:      -6.9      2.671      4.020
  Name = 
  6 active torsions:
  status: ('A' for Active; 'I' for Inactive)
    1  A    between atoms: C_1  and  C_9
    2  A    between atoms: N_4  and  C_8
    3  A    between atoms: C_12  and  C_28
    4  A    between atoms: C_13  and  N_15
    5  A    between atoms: N_16  and  N_17
    6  A    between atoms: C_20  and  C_23
                            x       y       z     vdW  Elec       q    Type
                         _______ _______ _______ _____ _____    ______ ____

>  <TORSDO>
F 6

$$$$
=
 OpenBabel11042412023D

 28 31  0  0  1  0  0  0  0  0999 V2000
  182.2590  179.2790  140.2070 N   0  0  0  0  0  0  0  0  0  0  0  0
  182.4500  178.6010  141.5260 C   0  0  1  0  0  3  0  0  0  0  0  0
  181.8410  177.8740  140.5030 C   0  0  2  0  0  3  0  0  0  0  0  0
  181.8360  175.4690  138.2790 C   0  0  0  0  0  0  0  0  0  0  0  0
  182.0260  175.6320  139.5420 N   0  0  0  0  0  0  0  0  0  0  0  0
  182.3210  176.5240  137.4690 N   0  0  0  0  0  0  0  0  0  0  0  0
  182.7140  176.9040  139.7020 C   0  0  1  0  0  3  0  0  0  0  0  0
  182.8390  177.3770  138.2870 C   0  0  0  0  0  3  0  0  0  0  0  0
  181.1820  174.3240  137.7450 N   0  0  0  0  0  1  0  0  0  0  0  0
  184.4090  178.3360  142.9780 C   0  0  0  0  0  3  0  0  0  0  0  0
  183.9100  178.3520  141.7500 C   0  0  0  0  0  3  0  0  0  0  0  0
  185.7990  178.1080  143.2510 N   0  0  0  0  0  0  0  0  0  0  0  0
  190.2830  177.5410  143.1380 N   0  0  0  0  0  0  0  0  0  0  0  0
  186.4080  177.8190  144.4350 C   0  0  0  0  0  0  0  0  0  0  0  0
  188.6770  177.1620  146.5260 C   0  0  0  0  0  1  0  0  0  0  0  0
  188.8420  177.3970  145.0650 C   0  0  0  0  0  0  0  0  0  0  0  0
  187.9600  177.8850  142.8750 C   0  0  0  0  0  0  0  0  0  0  0  0
  189.2310  177.8180  142.3150 C   0  0  0  0  0  3  0  0  0  0  0  0
  187.7670  177.6810  144.2160 C   0  0  0  0  0  0  0  0  0  0  0  0
  186.7440  178.1480  142.2830 C   0  0  0  0  0  3  0  0  0  0  0  0
  190.1200  177.3310  144.4820 C   0  0  0  0  0  3  0  0  0  0  0  0
  185.7240  177.7250  145.7630 C   0  0  0  0  0  2  0  0  0  0  0  0
  185.6830  179.0900  146.4230 C   0  0  0  0  0  1  0  0  0  0  0  0
  181.3750  180.9280  138.8480 N   0  0  0  0  0  0  0  0  0  0  0  0
  182.4030  180.3720  139.3450 N   0  0  0  0  0  0  0  0  0  0  0  0
  180.7720  182.0980  136.7880 O   0  0  0  0  0  0  0  0  0  0  0  0
  181.5000  182.0450  137.9700 C   0  0  0  0  0  0  0  0  0  0  0  0
  182.2750  182.9900  138.2690 O   0  0  0  0  0  1  0  0  0  0  0  0
  1  2  1  0  0  0  0
  2 11  1  6  0  0  0
  3  1  1  6  0  0  0
  3  2  1  0  0  0  0
  4  5  2  0  0  0  0
  5  7  1  0  0  0  0
  6  4  1  0  0  0  0
  6  8  2  0  0  0  0
  7  8  1  6  0  0  0
  7  3  1  0  0  0  0
  9  4  1  0  0  0  0
 10 12  1  0  0  0  0
 11 10  2  0  0  0  0
 12 14  1  0  0  0  0
 13 21  1  0  0  0  0
 14 22  1  0  0  0  0
 16 15  1  0  0  0  0
 17 19  1  0  0  0  0
 18 17  1  0  0  0  0
 18 13  2  0  0  0  0
 19 14  2  0  0  0  0
 19 16  1  0  0  0  0
 20 17  2  0  0  0  0
 20 12  1  0  0  0  0
 21 16  2  0  0  0  0
 22 23  1  0  0  0  0
 24 25  2  0  0  0  0
 25  1  1  0  0  0  0
 26 27  2  0  0  0  0
 27 28  1  0  0  0  0
 27 24  1  0  0  0  0
M  END
>  <MODEL>
9

>  <REMARK>
 VINA RESULT:      -6.8      2.898      3.565
  Name = 
  6 active torsions:
  status: ('A' for Active; 'I' for Inactive)
    1  A    between atoms: C_1  and  C_9
    2  A    between atoms: N_4  and  C_8
    3  A    between atoms: C_12  and  C_28
    4  A    between atoms: C_13  and  N_15
    5  A    between atoms: N_16  and  N_17
    6  A    between atoms: C_20  and  C_23
                            x       y       z     vdW  Elec       q    Type
                         _______ _______ _______ _____ _____    ______ ____

>  <TORSDO>
F 6

$$$$
