=
 OpenBabel11042409503D

 33 35  0  0  0  0  0  0  0  0999 V2000
  184.1420  179.0670  140.5090 C   0  0  0  0  0  3  0  0  0  0  0  0
  186.4880  178.5360  140.1880 C   0  0  0  0  0  0  0  0  0  0  0  0
  183.8770  178.7700  139.1660 C   0  0  0  0  0  0  0  0  0  0  0  0
  184.9280  178.3450  138.3420 C   0  0  0  0  0  3  0  0  0  0  0  0
  185.4380  178.9600  141.0260 C   0  0  0  0  0  0  0  0  0  0  0  0
  186.2250  178.2350  138.8480 C   0  0  0  0  0  3  0  0  0  0  0  0
  182.6180  175.9340  139.1710 N   0  0  0  0  0  2  0  0  0  0  0  0
  181.4480  177.9970  139.1640 N   0  0  0  0  0  2  0  0  0  0  0  0
  181.6000  176.6290  139.5620 C   0  0  0  0  0  0  0  0  0  0  0  0
  182.4920  178.8390  138.6560 C   0  0  0  0  0  0  0  0  0  0  0  0
  182.2000  179.7000  137.7830 O   0  0  0  0  0  0  0  0  0  0  0  0
  179.6920  177.0070  141.0610 C   0  0  0  0  0  1  0  0  0  0  0  0
  180.5140  175.9650  140.3310 C   0  0  0  0  0  2  0  0  0  0  0  0
  185.6520  179.2350  142.4830 C   0  0  0  0  0  2  0  0  0  0  0  0
  185.4530  177.9760  143.3220 C   0  0  0  0  0  2  0  0  0  0  0  0
  186.5240  178.2700  146.8150 C   0  0  0  0  0  0  0  0  0  0  0  0
  183.4500  179.1580  145.3880 N   0  0  0  0  0  1  0  0  0  0  0  0
  187.4530  178.0590  147.8320 C   0  0  0  0  0  3  0  0  0  0  0  0
  188.6950  177.4990  147.4800 C   0  0  0  0  0  2  0  0  0  0  0  0
  188.0230  177.3840  145.1310 C   0  0  0  0  0  3  0  0  0  0  0  0
  184.7760  178.7450  145.6990 C   0  0  0  0  0  0  0  0  0  0  0  0
  185.2790  178.7660  146.9560 N   0  0  0  0  0  0  0  0  0  0  0  0
  188.9770  177.1630  146.1380 C   0  0  0  0  0  3  0  0  0  0  0  0
  185.6860  178.2490  144.7740 C   0  0  0  0  0  0  0  0  0  0  0  0
  186.8050  177.9440  145.5110 C   0  0  0  0  0  0  0  0  0  0  0  0
  187.8890  178.4140  140.6920 C   0  0  0  0  0  2  0  0  0  0  0  0
  188.8580  178.3580  139.5280 C   0  0  0  0  0  2  0  0  0  0  0  0
  189.9350  177.3280  139.8160 C   0  0  0  0  0  2  0  0  0  0  0  0
  191.1920  177.2070  141.8190 C   0  0  0  0  0  3  0  0  0  0  0  0
  190.0530  177.1140  141.2350 N   0  0  0  0  0  0  0  0  0  0  0  0
  191.3090  176.9870  143.2900 C   0  0  0  0  0  2  0  0  0  0  0  0
  191.8770  178.2210  143.9640 C   0  0  0  0  0  2  0  0  0  0  0  0
  190.8620  179.3430  143.9000 C   0  0  0  0  0  1  0  0  0  0  0  0
  1  5  1  0  0  0  0
  2 26  1  0  0  0  0
  2  5  2  0  0  0  0
  3  1  2  0  0  0  0
  4  6  2  0  0  0  0
  4  3  1  0  0  0  0
  5 14  1  0  0  0  0
  6  2  1  0  0  0  0
  7  9  2  0  0  0  0
  8  9  1  0  0  0  0
  9 13  1  0  0  0  0
 10  8  1  0  0  0  0
 10  3  1  0  0  0  0
 11 10  2  0  0  0  0
 13 12  1  0  0  0  0
 14 15  1  0  0  0  0
 15 24  1  0  0  0  0
 16 22  1  0  0  0  0
 16 18  2  0  0  0  0
 17 21  1  0  0  0  0
 19 18  1  0  0  0  0
 20 25  1  0  0  0  0
 20 23  2  0  0  0  0
 21 22  2  0  0  0  0
 23 19  1  0  0  0  0
 24 25  2  0  0  0  0
 24 21  1  0  0  0  0
 25 16  1  0  0  0  0
 27 28  1  0  0  0  0
 27 26  1  0  0  0  0
 28 30  1  0  0  0  0
 29 31  1  0  0  0  0
 30 29  2  0  0  0  0
 31 32  1  0  0  0  0
 33 32  1  0  0  0  0
M  END
>  <MODEL>
1

>  <REMARK>
 VINA RESULT:      -8.4      0.000      0.000
  Name = 
  11 active torsions:
  status: ('A' for Active; 'I' for Inactive)
    1  A    between atoms: C_1  and  C_10
    2  A    between atoms: C_1  and  N_26
    3  A    between atoms: C_6  and  C_8
    4  A    between atoms: C_7  and  C_15
    5  A    between atoms: C_7  and  C_25
    6  A    between atoms: C_8  and  C_10
    7  A    between atoms: C_11  and  C_19
    8  A    between atoms: C_12  and  C_16
    9  A    between atoms: C_15  and  C_32
   10  A    between atoms: C_17  and  C_29
   11  A    between atoms: C_21  and  C_29
                            x       y       z     vdW  Elec       q    Type
                         _______ _______ _______ _____ _____    ______ ____

>  <TORSDO>
F 11

$$$$
=
 OpenBabel11042409503D

 33 35  0  0  0  0  0  0  0  0999 V2000
  188.0130  177.9560  140.6780 C   0  0  0  0  0  3  0  0  0  0  0  0
  189.6940  176.6580  141.8530 C   0  0  0  0  0  0  0  0  0  0  0  0
  188.8620  178.0780  139.5720 C   0  0  0  0  0  0  0  0  0  0  0  0
  190.1250  177.4740  139.6120 C   0  0  0  0  0  3  0  0  0  0  0  0
  188.4190  177.2570  141.8210 C   0  0  0  0  0  0  0  0  0  0  0  0
  190.5410  176.7750  140.7460 C   0  0  0  0  0  3  0  0  0  0  0  0
  187.5140  176.0430  137.6550 N   0  0  0  0  0  2  0  0  0  0  0  0
  187.1880  178.3920  137.6740 N   0  0  0  0  0  2  0  0  0  0  0  0
  186.7160  177.0500  137.5060 C   0  0  0  0  0  0  0  0  0  0  0  0
  188.3910  178.7740  138.3550 C   0  0  0  0  0  0  0  0  0  0  0  0
  189.0330  179.7710  137.9300 O   0  0  0  0  0  0  0  0  0  0  0  0
  184.3810  177.7810  137.7210 C   0  0  0  0  0  1  0  0  0  0  0  0
  185.3250  176.8170  137.0330 C   0  0  0  0  0  2  0  0  0  0  0  0
  187.4490  177.1100  142.9530 C   0  0  0  0  0  2  0  0  0  0  0  0
  187.1400  178.4570  143.6000 C   0  0  0  0  0  2  0  0  0  0  0  0
  183.5100  178.7700  144.0030 C   0  0  0  0  0  0  0  0  0  0  0  0
  185.9990  178.8460  146.4680 N   0  0  0  0  0  1  0  0  0  0  0  0
  182.2240  178.8660  143.4760 C   0  0  0  0  0  3  0  0  0  0  0  0
  182.0760  178.7420  142.0820 C   0  0  0  0  0  3  0  0  0  0  0  0
  184.4890  178.4410  141.8120 C   0  0  0  0  0  3  0  0  0  0  0  0
  185.2030  178.7510  145.2920 C   0  0  0  0  0  0  0  0  0  0  0  0
  183.8560  178.8890  145.3000 N   0  0  0  0  0  2  0  0  0  0  0  0
  183.2020  178.5320  141.2560 C   0  0  0  0  0  3  0  0  0  0  0  0
  185.7050  178.5430  144.0140 C   0  0  0  0  0  0  0  0  0  0  0  0
  184.6010  178.5620  143.1960 C   0  0  0  0  0  0  0  0  0  0  0  0
  190.1750  175.9090  143.0530 C   0  0  0  0  0  2  0  0  0  0  0  0
  191.5560  176.3930  143.4490 C   0  0  0  0  0  2  0  0  0  0  0  0
  191.4270  177.6290  144.3200 C   0  0  0  0  0  2  0  0  0  0  0  0
  190.6040  176.9620  146.4380 C   0  0  0  0  0  3  0  0  0  0  0  0
  190.3660  177.4570  145.2770 N   0  0  0  0  0  0  0  0  0  0  0  0
  189.5010  176.7890  147.4280 C   0  0  0  0  0  2  0  0  0  0  0  0
  189.2880  178.0710  148.2090 C   0  0  0  0  0  2  0  0  0  0  0  0
  188.0140  177.9620  149.0190 C   0  0  0  0  0  1  0  0  0  0  0  0
  1  5  1  0  0  0  0
  2 26  1  0  0  0  0
  3  4  1  0  0  0  0
  3  1  2  0  0  0  0
  4  6  2  0  0  0  0
  5  2  2  0  0  0  0
  5 14  1  0  0  0  0
  6  2  1  0  0  0  0
  8 10  1  0  0  0  0
  9  7  2  0  0  0  0
  9  8  1  0  0  0  0
 10  3  1  0  0  0  0
 11 10  2  0  0  0  0
 13  9  1  0  0  0  0
 13 12  1  0  0  0  0
 14 15  1  0  0  0  0
 15 24  1  0  0  0  0
 16 22  1  0  0  0  0
 18 16  1  0  0  0  0
 19 18  2  0  0  0  0
 20 25  1  0  0  0  0
 21 22  1  0  0  0  0
 21 17  1  0  0  0  0
 23 20  2  0  0  0  0
 23 19  1  0  0  0  0
 24 21  2  0  0  0  0
 25 16  2  0  0  0  0
 25 24  1  0  0  0  0
 26 27  1  0  0  0  0
 27 28  1  0  0  0  0
 28 30  1  0  0  0  0
 29 31  1  0  0  0  0
 30 29  2  0  0  0  0
 31 32  1  0  0  0  0
 32 33  1  0  0  0  0
M  END
>  <MODEL>
2

>  <REMARK>
 VINA RESULT:      -8.4      2.493      4.955
  Name = 
  11 active torsions:
  status: ('A' for Active; 'I' for Inactive)
    1  A    between atoms: C_1  and  C_10
    2  A    between atoms: C_1  and  N_26
    3  A    between atoms: C_6  and  C_8
    4  A    between atoms: C_7  and  C_15
    5  A    between atoms: C_7  and  C_25
    6  A    between atoms: C_8  and  C_10
    7  A    between atoms: C_11  and  C_19
    8  A    between atoms: C_12  and  C_16
    9  A    between atoms: C_15  and  C_32
   10  A    between atoms: C_17  and  C_29
   11  A    between atoms: C_21  and  C_29
                            x       y       z     vdW  Elec       q    Type
                         _______ _______ _______ _____ _____    ______ ____

>  <TORSDO>
F 11

$$$$
=
 OpenBabel11042409503D

 33 35  0  0  0  0  0  0  0  0999 V2000
  183.8300  178.7420  140.8780 C   0  0  0  0  0  3  0  0  0  0  0  0
  186.0980  178.5490  140.0370 C   0  0  0  0  0  0  0  0  0  0  0  0
  183.3190  178.4390  139.6100 C   0  0  0  0  0  0  0  0  0  0  0  0
  184.2110  178.1810  138.5600 C   0  0  0  0  0  3  0  0  0  0  0  0
  185.2100  178.8060  141.1000 C   0  0  0  0  0  0  0  0  0  0  0  0
  185.5890  178.2420  138.7700 C   0  0  0  0  0  3  0  0  0  0  0  0
  182.1810  181.1500  138.6170 N   0  0  0  0  0  2  0  0  0  0  0  0
  181.1740  179.0170  138.3600 N   0  0  0  0  0  2  0  0  0  0  0  0
  181.4810  180.3370  137.8940 C   0  0  0  0  0  0  0  0  0  0  0  0
  181.8590  178.3240  139.4120 C   0  0  0  0  0  0  0  0  0  0  0  0
  181.1970  177.5510  140.1550 O   0  0  0  0  0  0  0  0  0  0  0  0
  180.8080  179.6810  135.6250 C   0  0  0  0  0  1  0  0  0  0  0  0
  180.8850  180.8200  136.6200 C   0  0  0  0  0  2  0  0  0  0  0  0
  185.7000  179.0780  142.4890 C   0  0  0  0  0  2  0  0  0  0  0  0
  185.5370  177.8550  143.3870 C   0  0  0  0  0  2  0  0  0  0  0  0
  186.5240  178.3420  146.8830 C   0  0  0  0  0  0  0  0  0  0  0  0
  183.4850  179.1470  145.3360 N   0  0  0  0  0  1  0  0  0  0  0  0
  187.4280  178.1880  147.9320 C   0  0  0  0  0  3  0  0  0  0  0  0
  188.6780  177.6100  147.6410 C   0  0  0  0  0  2  0  0  0  0  0  0
  188.0620  177.3650  145.2870 C   0  0  0  0  0  3  0  0  0  0  0  0
  184.8020  178.7530  145.7010 C   0  0  0  0  0  0  0  0  0  0  0  0
  185.2760  178.8440  146.9660 N   0  0  0  0  0  0  0  0  0  0  0  0
  188.9920  177.2010  146.3270 C   0  0  0  0  0  3  0  0  0  0  0  0
  185.7340  178.2080  144.8270 C   0  0  0  0  0  0  0  0  0  0  0  0
  186.8350  177.9450  145.6060 C   0  0  0  0  0  0  0  0  0  0  0  0
  187.5790  178.6130  140.2230 C   0  0  0  0  0  2  0  0  0  0  0  0
  188.2680  177.7020  139.2260 C   0  0  0  0  0  2  0  0  0  0  0  0
  189.7240  177.5330  139.6190 C   0  0  0  0  0  2  0  0  0  0  0  0
  190.8820  177.2740  141.6680 C   0  0  0  0  0  3  0  0  0  0  0  0
  189.8230  177.0600  140.9750 N   0  0  0  0  0  0  0  0  0  0  0  0
  190.9780  176.7840  143.0740 C   0  0  0  0  0  2  0  0  0  0  0  0
  191.7310  177.7830  143.9300 C   0  0  0  0  0  2  0  0  0  0  0  0
  191.0420  179.1290  143.8590 C   0  0  0  0  0  1  0  0  0  0  0  0
  1  5  1  0  0  0  0
  2 26  1  0  0  0  0
  2  5  2  0  0  0  0
  3  1  2  0  0  0  0
  4  6  2  0  0  0  0
  4  3  1  0  0  0  0
  5 14  1  0  0  0  0
  6  2  1  0  0  0  0
  8 10  1  0  0  0  0
  9  8  1  0  0  0  0
  9  7  2  0  0  0  0
 10  3  1  0  0  0  0
 10 11  2  0  0  0  0
 12 13  1  0  0  0  0
 13  9  1  0  0  0  0
 14 15  1  0  0  0  0
 15 24  1  0  0  0  0
 16 22  1  0  0  0  0
 16 18  2  0  0  0  0
 17 21  1  0  0  0  0
 19 18  1  0  0  0  0
 20 25  1  0  0  0  0
 20 23  2  0  0  0  0
 21 22  2  0  0  0  0
 23 19  1  0  0  0  0
 24 25  2  0  0  0  0
 24 21  1  0  0  0  0
 25 16  1  0  0  0  0
 27 28  1  0  0  0  0
 27 26  1  0  0  0  0
 28 30  1  0  0  0  0
 29 31  1  0  0  0  0
 30 29  2  0  0  0  0
 31 32  1  0  0  0  0
 33 32  1  0  0  0  0
M  END
>  <MODEL>
3

>  <REMARK>
 VINA RESULT:      -8.2      1.312      2.048
  Name = 
  11 active torsions:
  status: ('A' for Active; 'I' for Inactive)
    1  A    between atoms: C_1  and  C_10
    2  A    between atoms: C_1  and  N_26
    3  A    between atoms: C_6  and  C_8
    4  A    between atoms: C_7  and  C_15
    5  A    between atoms: C_7  and  C_25
    6  A    between atoms: C_8  and  C_10
    7  A    between atoms: C_11  and  C_19
    8  A    between atoms: C_12  and  C_16
    9  A    between atoms: C_15  and  C_32
   10  A    between atoms: C_17  and  C_29
   11  A    between atoms: C_21  and  C_29
                            x       y       z     vdW  Elec       q    Type
                         _______ _______ _______ _____ _____    ______ ____

>  <TORSDO>
F 11

$$$$
=
 OpenBabel11042409503D

 33 35  0  0  0  0  0  0  0  0999 V2000
  185.1720  177.8830  142.8570 C   0  0  0  0  0  3  0  0  0  0  0  0
  186.2800  178.1950  144.9930 C   0  0  0  0  0  0  0  0  0  0  0  0
  184.0300  178.5360  143.3390 C   0  0  0  0  0  0  0  0  0  0  0  0
  184.0290  179.0260  144.6510 C   0  0  0  0  0  3  0  0  0  0  0  0
  186.2940  177.7020  143.6730 C   0  0  0  0  0  0  0  0  0  0  0  0
  185.1420  178.8520  145.4740 C   0  0  0  0  0  3  0  0  0  0  0  0
  185.0240  179.6440  140.6160 N   0  0  0  0  0  2  0  0  0  0  0  0
  182.9590  178.5520  141.0250 N   0  0  0  0  0  2  0  0  0  0  0  0
  184.0960  178.8430  140.2040 C   0  0  0  0  0  0  0  0  0  0  0  0
  182.8770  178.7630  142.4410 C   0  0  0  0  0  0  0  0  0  0  0  0
  181.7700  179.0990  142.9370 O   0  0  0  0  0  0  0  0  0  0  0  0
  183.0030  177.3520  138.5870 C   0  0  0  0  0  1  0  0  0  0  0  0
  184.1480  178.3170  138.8140 C   0  0  0  0  0  2  0  0  0  0  0  0
  187.5070  177.0480  143.0880 C   0  0  0  0  0  2  0  0  0  0  0  0
  188.5220  178.0820  142.6100 C   0  0  0  0  0  2  0  0  0  0  0  0
  189.9640  176.9050  139.4520 C   0  0  0  0  0  0  0  0  0  0  0  0
  191.2030  176.5070  142.7050 N   0  0  0  0  0  1  0  0  0  0  0  0
  189.9080  176.7310  138.0710 C   0  0  0  0  0  3  0  0  0  0  0  0
  188.8150  177.2910  137.3830 C   0  0  0  0  0  3  0  0  0  0  0  0
  187.8920  178.1600  139.4760 C   0  0  0  0  0  3  0  0  0  0  0  0
  190.5030  176.8310  141.5100 C   0  0  0  0  0  0  0  0  0  0  0  0
  190.9090  176.4230  140.2830 N   0  0  0  0  0  2  0  0  0  0  0  0
  187.8140  178.0000  138.0820 C   0  0  0  0  0  3  0  0  0  0  0  0
  189.3240  177.5640  141.4590 C   0  0  0  0  0  0  0  0  0  0  0  0
  188.9890  177.5980  140.1260 C   0  0  0  0  0  0  0  0  0  0  0  0
  187.4500  178.0200  145.9050 C   0  0  0  0  0  2  0  0  0  0  0  0
  187.0020  178.1080  147.3500 C   0  0  0  0  0  2  0  0  0  0  0  0
  188.1450  177.6940  148.2590 C   0  0  0  0  0  2  0  0  0  0  0  0
  190.0720  176.7070  147.2990 C   0  0  0  0  0  3  0  0  0  0  0  0
  189.3970  177.7690  147.5530 N   0  0  0  0  0  0  0  0  0  0  0  0
  191.3670  176.7900  146.5630 C   0  0  0  0  0  2  0  0  0  0  0  0
  192.2410  175.5970  146.8980 C   0  0  0  0  0  2  0  0  0  0  0  0
  192.7640  175.7360  148.3110 C   0  0  0  0  0  1  0  0  0  0  0  0
  1  3  2  0  0  0  0
  1  5  1  0  0  0  0
  2  6  1  0  0  0  0
  2 26  1  0  0  0  0
  3  4  1  0  0  0  0
  4  6  2  0  0  0  0
  5  2  2  0  0  0  0
  8 10  1  0  0  0  0
  9  7  2  0  0  0  0
  9  8  1  0  0  0  0
 10 11  2  0  0  0  0
 10  3  1  0  0  0  0
 12 13  1  0  0  0  0
 13  9  1  0  0  0  0
 14  5  1  0  0  0  0
 15 14  1  0  0  0  0
 16 25  2  0  0  0  0
 16 22  1  0  0  0  0
 18 16  1  0  0  0  0
 19 18  2  0  0  0  0
 19 23  1  0  0  0  0
 20 25  1  0  0  0  0
 21 17  1  0  0  0  0
 22 21  1  0  0  0  0
 23 20  2  0  0  0  0
 24 21  2  0  0  0  0
 24 15  1  0  0  0  0
 25 24  1  0  0  0  0
 26 27  1  0  0  0  0
 27 28  1  0  0  0  0
 29 30  2  0  0  0  0
 30 28  1  0  0  0  0
 31 32  1  0  0  0  0
 31 29  1  0  0  0  0
 32 33  1  0  0  0  0
M  END
>  <MODEL>
4

>  <REMARK>
 VINA RESULT:      -8.1      2.208      6.093
  Name = 
  11 active torsions:
  status: ('A' for Active; 'I' for Inactive)
    1  A    between atoms: C_1  and  C_10
    2  A    between atoms: C_1  and  N_26
    3  A    between atoms: C_6  and  C_8
    4  A    between atoms: C_7  and  C_15
    5  A    between atoms: C_7  and  C_25
    6  A    between atoms: C_8  and  C_10
    7  A    between atoms: C_11  and  C_19
    8  A    between atoms: C_12  and  C_16
    9  A    between atoms: C_15  and  C_32
   10  A    between atoms: C_17  and  C_29
   11  A    between atoms: C_21  and  C_29
                            x       y       z     vdW  Elec       q    Type
                         _______ _______ _______ _____ _____    ______ ____

>  <TORSDO>
F 11

$$$$
=
 OpenBabel11042409503D

 33 35  0  0  0  0  0  0  0  0999 V2000
  185.5580  178.5130  141.1920 C   0  0  0  0  0  3  0  0  0  0  0  0
  185.3510  178.2570  143.5960 C   0  0  0  0  0  0  0  0  0  0  0  0
  184.2150  178.9000  141.1040 C   0  0  0  0  0  0  0  0  0  0  0  0
  183.4490  178.9730  142.2750 C   0  0  0  0  0  3  0  0  0  0  0  0
  186.1310  178.1850  142.4250 C   0  0  0  0  0  0  0  0  0  0  0  0
  184.0110  178.6490  143.5110 C   0  0  0  0  0  3  0  0  0  0  0  0
  182.8400  176.4530  139.7810 N   0  0  0  0  0  2  0  0  0  0  0  0
  182.4210  178.7370  139.3000 N   0  0  0  0  0  2  0  0  0  0  0  0
  181.9950  177.3800  139.4650 C   0  0  0  0  0  0  0  0  0  0  0  0
  183.6450  179.2930  139.7980 C   0  0  0  0  0  0  0  0  0  0  0  0
  184.2210  180.1860  139.1200 O   0  0  0  0  0  0  0  0  0  0  0  0
  179.7880  176.8980  140.4300 C   0  0  0  0  0  1  0  0  0  0  0  0
  180.5890  177.0100  139.1490 C   0  0  0  0  0  2  0  0  0  0  0  0
  187.5870  177.8330  142.4680 C   0  0  0  0  0  2  0  0  0  0  0  0
  188.3890  178.6640  141.4720 C   0  0  0  0  0  2  0  0  0  0  0  0
  189.6270  176.5620  138.7360 C   0  0  0  0  0  0  0  0  0  0  0  0
  190.9650  176.9840  141.9470 N   0  0  0  0  0  1  0  0  0  0  0  0
  189.5060  176.0190  137.4580 C   0  0  0  0  0  3  0  0  0  0  0  0
  188.4250  176.4470  136.6640 C   0  0  0  0  0  3  0  0  0  0  0  0
  187.6430  177.9220  138.4520 C   0  0  0  0  0  3  0  0  0  0  0  0
  190.2410  177.0170  140.7220 C   0  0  0  0  0  0  0  0  0  0  0  0
  190.5710  176.2590  139.6490 N   0  0  0  0  0  2  0  0  0  0  0  0
  187.5010  177.3920  137.1590 C   0  0  0  0  0  3  0  0  0  0  0  0
  189.1110  177.7920  140.4940 C   0  0  0  0  0  0  0  0  0  0  0  0
  188.7260  177.4820  139.2110 C   0  0  0  0  0  0  0  0  0  0  0  0
  185.9170  177.9100  144.9350 C   0  0  0  0  0  2  0  0  0  0  0  0
  185.1280  178.6030  146.0280 C   0  0  0  0  0  2  0  0  0  0  0  0
  185.9420  178.6120  147.3100 C   0  0  0  0  0  2  0  0  0  0  0  0
  188.2210  178.1790  147.7850 C   0  0  0  0  0  3  0  0  0  0  0  0
  187.1610  177.8680  147.1310 N   0  0  0  0  0  0  0  0  0  0  0  0
  189.4810  177.4030  147.5990 C   0  0  0  0  0  2  0  0  0  0  0  0
  189.6020  176.9320  146.1620 C   0  0  0  0  0  2  0  0  0  0  0  0
  190.0240  178.0920  145.2860 C   0  0  0  0  0  1  0  0  0  0  0  0
  1  5  1  0  0  0  0
  2 26  1  0  0  0  0
  3  1  2  0  0  0  0
  3  4  1  0  0  0  0
  4  6  2  0  0  0  0
  5 14  1  0  0  0  0
  5  2  2  0  0  0  0
  6  2  1  0  0  0  0
  8  9  1  0  0  0  0
  8 10  1  0  0  0  0
  9  7  2  0  0  0  0
 10  3  1  0  0  0  0
 11 10  2  0  0  0  0
 13  9  1  0  0  0  0
 13 12  1  0  0  0  0
 15 14  1  0  0  0  0
 16 25  2  0  0  0  0
 16 22  1  0  0  0  0
 18 16  1  0  0  0  0
 19 23  1  0  0  0  0
 19 18  2  0  0  0  0
 20 25  1  0  0  0  0
 21 17  1  0  0  0  0
 22 21  1  0  0  0  0
 23 20  2  0  0  0  0
 24 21  2  0  0  0  0
 24 15  1  0  0  0  0
 25 24  1  0  0  0  0
 26 27  1  0  0  0  0
 27 28  1  0  0  0  0
 30 28  1  0  0  0  0
 30 29  2  0  0  0  0
 31 29  1  0  0  0  0
 32 31  1  0  0  0  0
 33 32  1  0  0  0  0
M  END
>  <MODEL>
5

>  <REMARK>
 VINA RESULT:      -8.0      1.542      5.804
  Name = 
  11 active torsions:
  status: ('A' for Active; 'I' for Inactive)
    1  A    between atoms: C_1  and  C_10
    2  A    between atoms: C_1  and  N_26
    3  A    between atoms: C_6  and  C_8
    4  A    between atoms: C_7  and  C_15
    5  A    between atoms: C_7  and  C_25
    6  A    between atoms: C_8  and  C_10
    7  A    between atoms: C_11  and  C_19
    8  A    between atoms: C_12  and  C_16
    9  A    between atoms: C_15  and  C_32
   10  A    between atoms: C_17  and  C_29
   11  A    between atoms: C_21  and  C_29
                            x       y       z     vdW  Elec       q    Type
                         _______ _______ _______ _____ _____    ______ ____

>  <TORSDO>
F 11

$$$$
=
 OpenBabel11042409503D

 33 35  0  0  0  0  0  0  0  0999 V2000
  188.1420  178.1060  140.1440 C   0  0  0  0  0  3  0  0  0  0  0  0
  189.9190  176.8830  141.2560 C   0  0  0  0  0  0  0  0  0  0  0  0
  188.8730  178.1100  138.9510 C   0  0  0  0  0  0  0  0  0  0  0  0
  190.1270  177.4850  138.9170 C   0  0  0  0  0  3  0  0  0  0  0  0
  188.6550  177.5050  141.2990 C   0  0  0  0  0  0  0  0  0  0  0  0
  190.6480  176.8810  140.0630 C   0  0  0  0  0  3  0  0  0  0  0  0
  187.6050  175.8810  137.2050 N   0  0  0  0  0  2  0  0  0  0  0  0
  187.0890  178.1950  137.1320 N   0  0  0  0  0  2  0  0  0  0  0  0
  186.7210  176.8120  137.0510 C   0  0  0  0  0  0  0  0  0  0  0  0
  188.2880  178.7040  137.7300 C   0  0  0  0  0  0  0  0  0  0  0  0
  188.8250  179.7260  137.2250 O   0  0  0  0  0  0  0  0  0  0  0  0
  184.3650  177.4960  137.1700 C   0  0  0  0  0  1  0  0  0  0  0  0
  185.3320  176.4460  136.6640 C   0  0  0  0  0  2  0  0  0  0  0  0
  187.8050  177.4810  142.5330 C   0  0  0  0  0  2  0  0  0  0  0  0
  186.4100  178.0320  142.2580 C   0  0  0  0  0  2  0  0  0  0  0  0
  185.1690  178.6210  145.6560 C   0  0  0  0  0  0  0  0  0  0  0  0
  183.4660  178.9740  142.6150 N   0  0  0  0  0  1  0  0  0  0  0  0
  185.3310  178.5940  147.0400 C   0  0  0  0  0  3  0  0  0  0  0  0
  186.5890  178.2160  147.5450 C   0  0  0  0  0  2  0  0  0  0  0  0
  187.4530  177.9080  145.2780 C   0  0  0  0  0  3  0  0  0  0  0  0
  184.3840  178.7800  143.6850 C   0  0  0  0  0  0  0  0  0  0  0  0
  184.0410  178.9260  144.9870 N   0  0  0  0  0  0  0  0  0  0  0  0
  187.6430  177.8750  146.6690 C   0  0  0  0  0  3  0  0  0  0  0  0
  185.7080  178.3930  143.5280 C   0  0  0  0  0  0  0  0  0  0  0  0
  186.1980  178.2910  144.8090 C   0  0  0  0  0  0  0  0  0  0  0  0
  190.5110  176.2340  142.4640 C   0  0  0  0  0  2  0  0  0  0  0  0
  191.7900  176.9450  142.8620 C   0  0  0  0  0  2  0  0  0  0  0  0
  191.4450  178.2280  143.5980 C   0  0  0  0  0  2  0  0  0  0  0  0
  191.5440  177.0330  145.6400 C   0  0  0  0  0  3  0  0  0  0  0  0
  190.9700  177.9300  144.9240 N   0  0  0  0  0  0  0  0  0  0  0  0
  191.0490  176.7310  147.0150 C   0  0  0  0  0  2  0  0  0  0  0  0
  191.7750  175.5270  147.5830 C   0  0  0  0  0  2  0  0  0  0  0  0
  192.9090  175.9940  148.4700 C   0  0  0  0  0  1  0  0  0  0  0  0
  1  5  1  0  0  0  0
  2  5  2  0  0  0  0
  2 26  1  0  0  0  0
  3  1  2  0  0  0  0
  4  3  1  0  0  0  0
  4  6  2  0  0  0  0
  5 14  1  0  0  0  0
  6  2  1  0  0  0  0
  8 10  1  0  0  0  0
  9  8  1  0  0  0  0
  9  7  2  0  0  0  0
 10  3  1  0  0  0  0
 11 10  2  0  0  0  0
 13  9  1  0  0  0  0
 13 12  1  0  0  0  0
 15 14  1  0  0  0  0
 15 24  1  0  0  0  0
 16 18  2  0  0  0  0
 17 21  1  0  0  0  0
 18 19  1  0  0  0  0
 20 23  2  0  0  0  0
 21 22  2  0  0  0  0
 22 16  1  0  0  0  0
 23 19  1  0  0  0  0
 24 21  1  0  0  0  0
 24 25  2  0  0  0  0
 25 20  1  0  0  0  0
 25 16  1  0  0  0  0
 26 27  1  0  0  0  0
 27 28  1  0  0  0  0
 28 30  1  0  0  0  0
 29 31  1  0  0  0  0
 30 29  2  0  0  0  0
 31 32  1  0  0  0  0
 32 33  1  0  0  0  0
M  END
>  <MODEL>
6

>  <REMARK>
 VINA RESULT:      -8.0      2.635      4.166
  Name = 
  11 active torsions:
  status: ('A' for Active; 'I' for Inactive)
    1  A    between atoms: C_1  and  C_10
    2  A    between atoms: C_1  and  N_26
    3  A    between atoms: C_6  and  C_8
    4  A    between atoms: C_7  and  C_15
    5  A    between atoms: C_7  and  C_25
    6  A    between atoms: C_8  and  C_10
    7  A    between atoms: C_11  and  C_19
    8  A    between atoms: C_12  and  C_16
    9  A    between atoms: C_15  and  C_32
   10  A    between atoms: C_17  and  C_29
   11  A    between atoms: C_21  and  C_29
                            x       y       z     vdW  Elec       q    Type
                         _______ _______ _______ _____ _____    ______ ____

>  <TORSDO>
F 11

$$$$
=
 OpenBabel11042409503D

 33 35  0  0  0  0  0  0  0  0999 V2000
  183.4130  178.7050  141.3020 C   0  0  0  0  0  3  0  0  0  0  0  0
  183.8260  179.1660  143.6490 C   0  0  0  0  0  0  0  0  0  0  0  0
  182.0580  178.4770  141.5720 C   0  0  0  0  0  0  0  0  0  0  0  0
  181.5930  178.6080  142.8870 C   0  0  0  0  0  3  0  0  0  0  0  0
  184.3020  179.0420  142.3290 C   0  0  0  0  0  0  0  0  0  0  0  0
  182.4720  178.9440  143.9190 C   0  0  0  0  0  3  0  0  0  0  0  0
  180.0920  180.8450  141.1800 N   0  0  0  0  0  2  0  0  0  0  0  0
  180.6440  179.1890  139.5740 N   0  0  0  0  0  2  0  0  0  0  0  0
  180.3120  180.5330  139.9450 C   0  0  0  0  0  0  0  0  0  0  0  0
  181.1270  178.1740  140.4640 C   0  0  0  0  0  0  0  0  0  0  0  0
  180.7860  176.9790  140.2570 O   0  0  0  0  0  0  0  0  0  0  0  0
  181.4320  182.0110  138.3340 C   0  0  0  0  0  1  0  0  0  0  0  0
  180.0970  181.5530  138.8830 C   0  0  0  0  0  2  0  0  0  0  0  0
  185.7290  179.3300  141.9740 C   0  0  0  0  0  2  0  0  0  0  0  0
  186.1340  178.6280  140.6810 C   0  0  0  0  0  2  0  0  0  0  0  0
  189.5160  177.4420  141.4470 C   0  0  0  0  0  0  0  0  0  0  0  0
  188.3170  178.8650  138.4780 N   0  0  0  0  0  1  0  0  0  0  0  0
  190.4610  176.9230  142.3310 C   0  0  0  0  0  3  0  0  0  0  0  0
  190.0260  176.5740  143.6230 C   0  0  0  0  0  2  0  0  0  0  0  0
  187.7450  177.2780  143.0910 C   0  0  0  0  0  3  0  0  0  0  0  0
  188.5320  178.2970  139.7650 C   0  0  0  0  0  0  0  0  0  0  0  0
  189.7430  177.8580  140.1860 N   0  0  0  0  0  0  0  0  0  0  0  0
  188.6770  176.7500  144.0000 C   0  0  0  0  0  3  0  0  0  0  0  0
  187.5530  178.1580  140.7400 C   0  0  0  0  0  0  0  0  0  0  0  0
  188.2050  177.6090  141.8180 C   0  0  0  0  0  0  0  0  0  0  0  0
  184.7380  179.5170  144.7790 C   0  0  0  0  0  2  0  0  0  0  0  0
  185.2970  178.2560  145.4070 C   0  0  0  0  0  2  0  0  0  0  0  0
  185.6900  178.5400  146.8460 C   0  0  0  0  0  2  0  0  0  0  0  0
  187.7000  178.4740  148.0950 C   0  0  0  0  0  3  0  0  0  0  0  0
  187.0050  178.0210  147.1150 N   0  0  0  0  0  0  0  0  0  0  0  0
  189.0620  177.9300  148.3720 C   0  0  0  0  0  2  0  0  0  0  0  0
  189.4120  176.8500  147.3660 C   0  0  0  0  0  2  0  0  0  0  0  0
  190.9180  176.7430  147.2460 C   0  0  0  0  0  1  0  0  0  0  0  0
  1  3  2  0  0  0  0
  1  5  1  0  0  0  0
  2  6  1  0  0  0  0
  2 26  1  0  0  0  0
  3  4  1  0  0  0  0
  4  6  2  0  0  0  0
  5  2  2  0  0  0  0
  8  9  1  0  0  0  0
  8 10  1  0  0  0  0
  9  7  2  0  0  0  0
 10  3  1  0  0  0  0
 11 10  2  0  0  0  0
 12 13  1  0  0  0  0
 13  9  1  0  0  0  0
 14  5  1  0  0  0  0
 15 24  1  0  0  0  0
 15 14  1  0  0  0  0
 16 25  1  0  0  0  0
 16 18  2  0  0  0  0
 17 21  1  0  0  0  0
 18 19  1  0  0  0  0
 19 23  1  0  0  0  0
 20 23  2  0  0  0  0
 21 22  2  0  0  0  0
 21 24  1  0  0  0  0
 22 16  1  0  0  0  0
 24 25  2  0  0  0  0
 25 20  1  0  0  0  0
 26 27  1  0  0  0  0
 27 28  1  0  0  0  0
 28 30  1  0  0  0  0
 29 31  1  0  0  0  0
 30 29  2  0  0  0  0
 32 31  1  0  0  0  0
 33 32  1  0  0  0  0
M  END
>  <MODEL>
7

>  <REMARK>
 VINA RESULT:      -8.0      2.092      5.213
  Name = 
  11 active torsions:
  status: ('A' for Active; 'I' for Inactive)
    1  A    between atoms: C_1  and  C_10
    2  A    between atoms: C_1  and  N_26
    3  A    between atoms: C_6  and  C_8
    4  A    between atoms: C_7  and  C_15
    5  A    between atoms: C_7  and  C_25
    6  A    between atoms: C_8  and  C_10
    7  A    between atoms: C_11  and  C_19
    8  A    between atoms: C_12  and  C_16
    9  A    between atoms: C_15  and  C_32
   10  A    between atoms: C_17  and  C_29
   11  A    between atoms: C_21  and  C_29
                            x       y       z     vdW  Elec       q    Type
                         _______ _______ _______ _____ _____    ______ ____

>  <TORSDO>
F 11

$$$$
=
 OpenBabel11042409503D

 33 35  0  0  0  0  0  0  0  0999 V2000
  189.7770  177.4710  140.9960 C   0  0  0  0  0  3  0  0  0  0  0  0
  187.6720  178.2780  140.0970 C   0  0  0  0  0  0  0  0  0  0  0  0
  190.3520  177.5090  139.7200 C   0  0  0  0  0  0  0  0  0  0  0  0
  189.5780  177.9460  138.6360 C   0  0  0  0  0  3  0  0  0  0  0  0
  188.4430  177.8450  141.1940 C   0  0  0  0  0  0  0  0  0  0  0  0
  188.2460  178.3210  138.8220 C   0  0  0  0  0  3  0  0  0  0  0  0
  190.5930  174.8520  138.1360 N   0  0  0  0  0  2  0  0  0  0  0  0
  192.2660  176.5190  138.3580 N   0  0  0  0  0  2  0  0  0  0  0  0
  191.5720  175.5130  137.6100 C   0  0  0  0  0  0  0  0  0  0  0  0
  191.7780  177.1610  139.5430 C   0  0  0  0  0  0  0  0  0  0  0  0
  192.6050  177.4860  140.4370 O   0  0  0  0  0  0  0  0  0  0  0  0
  191.1230  175.6880  135.2010 C   0  0  0  0  0  1  0  0  0  0  0  0
  192.0630  175.1400  136.2560 C   0  0  0  0  0  2  0  0  0  0  0  0
  187.8970  177.8390  142.5890 C   0  0  0  0  0  2  0  0  0  0  0  0
  188.2460  176.5450  143.3180 C   0  0  0  0  0  2  0  0  0  0  0  0
  189.3910  177.5220  146.6600 C   0  0  0  0  0  0  0  0  0  0  0  0
  191.2820  176.3260  143.9630 N   0  0  0  0  0  1  0  0  0  0  0  0
  189.1570  178.0490  147.9280 C   0  0  0  0  0  3  0  0  0  0  0  0
  187.8300  178.3720  148.2690 C   0  0  0  0  0  2  0  0  0  0  0  0
  187.0440  177.6360  146.0730 C   0  0  0  0  0  3  0  0  0  0  0  0
  190.2920  176.7560  144.8900 C   0  0  0  0  0  0  0  0  0  0  0  0
  190.5870  177.1800  146.1420 N   0  0  0  0  0  0  0  0  0  0  0  0
  186.7820  178.1670  147.3470 C   0  0  0  0  0  3  0  0  0  0  0  0
  188.9310  176.8220  144.6180 C   0  0  0  0  0  0  0  0  0  0  0  0
  188.3670  177.3220  145.7670 C   0  0  0  0  0  0  0  0  0  0  0  0
  186.2420  178.6800  140.2570 C   0  0  0  0  0  2  0  0  0  0  0  0
  185.4770  178.4030  138.9780 C   0  0  0  0  0  2  0  0  0  0  0  0
  183.9910  178.3480  139.2810 C   0  0  0  0  0  2  0  0  0  0  0  0
  182.9690  178.3440  141.4170 C   0  0  0  0  0  3  0  0  0  0  0  0
  183.7210  178.9410  140.5650 N   0  0  0  0  0  0  0  0  0  0  0  0
  182.6960  178.9620  142.7480 C   0  0  0  0  0  2  0  0  0  0  0  0
  183.7690  178.5640  143.7430 C   0  0  0  0  0  2  0  0  0  0  0  0
  184.8040  179.6640  143.8350 C   0  0  0  0  0  1  0  0  0  0  0  0
  1  5  1  0  0  0  0
  2 26  1  0  0  0  0
  2  5  2  0  0  0  0
  3  1  2  0  0  0  0
  4  6  2  0  0  0  0
  4  3  1  0  0  0  0
  5 14  1  0  0  0  0
  6  2  1  0  0  0  0
  8 10  1  0  0  0  0
  9  7  2  0  0  0  0
  9  8  1  0  0  0  0
 10  3  1  0  0  0  0
 10 11  2  0  0  0  0
 12 13  1  0  0  0  0
 13  9  1  0  0  0  0
 14 15  1  0  0  0  0
 15 24  1  0  0  0  0
 16 18  2  0  0  0  0
 17 21  1  0  0  0  0
 18 19  1  0  0  0  0
 20 23  2  0  0  0  0
 21 22  2  0  0  0  0
 22 16  1  0  0  0  0
 23 19  1  0  0  0  0
 24 21  1  0  0  0  0
 24 25  2  0  0  0  0
 25 20  1  0  0  0  0
 25 16  1  0  0  0  0
 27 28  1  0  0  0  0
 27 26  1  0  0  0  0
 28 30  1  0  0  0  0
 29 31  1  0  0  0  0
 30 29  2  0  0  0  0
 31 32  1  0  0  0  0
 32 33  1  0  0  0  0
M  END
>  <MODEL>
8

>  <REMARK>
 VINA RESULT:      -8.0      2.967      6.680
  Name = 
  11 active torsions:
  status: ('A' for Active; 'I' for Inactive)
    1  A    between atoms: C_1  and  C_10
    2  A    between atoms: C_1  and  N_26
    3  A    between atoms: C_6  and  C_8
    4  A    between atoms: C_7  and  C_15
    5  A    between atoms: C_7  and  C_25
    6  A    between atoms: C_8  and  C_10
    7  A    between atoms: C_11  and  C_19
    8  A    between atoms: C_12  and  C_16
    9  A    between atoms: C_15  and  C_32
   10  A    between atoms: C_17  and  C_29
   11  A    between atoms: C_21  and  C_29
                            x       y       z     vdW  Elec       q    Type
                         _______ _______ _______ _____ _____    ______ ____

>  <TORSDO>
F 11

$$$$
=
 OpenBabel11042409503D

 33 35  0  0  0  0  0  0  0  0999 V2000
  190.5650  176.7200  141.3540 C   0  0  0  0  0  3  0  0  0  0  0  0
  188.3240  177.6510  141.3900 C   0  0  0  0  0  0  0  0  0  0  0  0
  190.7870  177.2710  140.0860 C   0  0  0  0  0  0  0  0  0  0  0  0
  189.7710  178.0230  139.4810 C   0  0  0  0  0  3  0  0  0  0  0  0
  189.3410  176.8970  142.0080 C   0  0  0  0  0  0  0  0  0  0  0  0
  188.5470  178.2060  140.1260 C   0  0  0  0  0  3  0  0  0  0  0  0
  190.6820  174.9380  138.0430 N   0  0  0  0  0  2  0  0  0  0  0  0
  192.2410  176.7250  138.0640 N   0  0  0  0  0  2  0  0  0  0  0  0
  191.4100  175.7780  137.3820 C   0  0  0  0  0  0  0  0  0  0  0  0
  192.1070  177.1160  139.4370 C   0  0  0  0  0  0  0  0  0  0  0  0
  193.1490  177.3880  140.0900 O   0  0  0  0  0  0  0  0  0  0  0  0
  190.2490  176.3170  135.2850 C   0  0  0  0  0  1  0  0  0  0  0  0
  191.4780  175.6780  135.9000 C   0  0  0  0  0  2  0  0  0  0  0  0
  189.1780  176.3330  143.3870 C   0  0  0  0  0  2  0  0  0  0  0  0
  190.2310  176.8850  144.3420 C   0  0  0  0  0  2  0  0  0  0  0  0
  188.3390  177.8020  147.3440 C   0  0  0  0  0  0  0  0  0  0  0  0
  191.6760  176.7640  147.0940 N   0  0  0  0  0  1  0  0  0  0  0  0
  187.1870  178.2800  147.9670 C   0  0  0  0  0  3  0  0  0  0  0  0
  186.0650  178.5400  147.1580 C   0  0  0  0  0  3  0  0  0  0  0  0
  187.2920  177.8430  145.1600 C   0  0  0  0  0  3  0  0  0  0  0  0
  190.3110  177.1260  146.9180 C   0  0  0  0  0  0  0  0  0  0  0  0
  189.5150  177.5220  147.9390 N   0  0  0  0  0  2  0  0  0  0  0  0
  186.1180  178.3240  145.7640 C   0  0  0  0  0  3  0  0  0  0  0  0
  189.6520  177.1490  145.6960 C   0  0  0  0  0  0  0  0  0  0  0  0
  188.3840  177.5900  145.9880 C   0  0  0  0  0  0  0  0  0  0  0  0
  186.9980  177.8620  142.0460 C   0  0  0  0  0  2  0  0  0  0  0  0
  186.2660  179.0110  141.3820 C   0  0  0  0  0  2  0  0  0  0  0  0
  184.7980  178.6540  141.2300 C   0  0  0  0  0  2  0  0  0  0  0  0
  182.8820  178.7230  142.6190 C   0  0  0  0  0  3  0  0  0  0  0  0
  184.1570  178.6200  142.5190 N   0  0  0  0  0  0  0  0  0  0  0  0
  182.2220  178.6840  143.9570 C   0  0  0  0  0  2  0  0  0  0  0  0
  180.7170  178.7830  143.8050 C   0  0  0  0  0  2  0  0  0  0  0  0
  180.3620  178.8640  142.3360 C   0  0  0  0  0  1  0  0  0  0  0  0
  1  5  1  0  0  0  0
  2  5  2  0  0  0  0
  2 26  1  0  0  0  0
  3  1  2  0  0  0  0
  4  3  1  0  0  0  0
  4  6  2  0  0  0  0
  5 14  1  0  0  0  0
  6  2  1  0  0  0  0
  8 10  1  0  0  0  0
  9  7  2  0  0  0  0
  9  8  1  0  0  0  0
 10  3  1  0  0  0  0
 10 11  2  0  0  0  0
 12 13  1  0  0  0  0
 13  9  1  0  0  0  0
 14 15  1  0  0  0  0
 15 24  1  0  0  0  0
 16 22  1  0  0  0  0
 16 18  1  0  0  0  0
 19 18  2  0  0  0  0
 20 23  2  0  0  0  0
 20 25  1  0  0  0  0
 21 17  1  0  0  0  0
 21 22  1  0  0  0  0
 23 19  1  0  0  0  0
 24 25  1  0  0  0  0
 24 21  2  0  0  0  0
 25 16  2  0  0  0  0
 27 26  1  0  0  0  0
 28 27  1  0  0  0  0
 28 30  1  0  0  0  0
 29 31  1  0  0  0  0
 30 29  2  0  0  0  0
 32 31  1  0  0  0  0
 33 32  1  0  0  0  0
M  END
>  <MODEL>
9

>  <REMARK>
 VINA RESULT:      -7.9      3.221      7.083
  Name = 
  11 active torsions:
  status: ('A' for Active; 'I' for Inactive)
    1  A    between atoms: C_1  and  C_10
    2  A    between atoms: C_1  and  N_26
    3  A    between atoms: C_6  and  C_8
    4  A    between atoms: C_7  and  C_15
    5  A    between atoms: C_7  and  C_25
    6  A    between atoms: C_8  and  C_10
    7  A    between atoms: C_11  and  C_19
    8  A    between atoms: C_12  and  C_16
    9  A    between atoms: C_15  and  C_32
   10  A    between atoms: C_17  and  C_29
   11  A    between atoms: C_21  and  C_29
                            x       y       z     vdW  Elec       q    Type
                         _______ _______ _______ _____ _____    ______ ____

>  <TORSDO>
F 11

$$$$
