=
 OpenBabel11042411543D

 35 42  0  0  1  0  0  0  0  0999 V2000
  185.2020  179.4660  138.6850 O   0  0  0  0  0  0  0  0  0  0  0  0
  187.2070  177.2330  144.4020 C   0  0  0  0  0  2  0  0  0  0  0  0
  188.6300  177.8360  140.3670 C   0  0  0  0  0  0  0  0  0  0  0  0
  186.8320  178.2300  141.4330 C   0  0  0  0  0  0  0  0  0  0  0  0
  183.2410  179.5170  143.9590 C   0  0  0  0  0  2  0  0  0  0  0  0
  184.5790  180.0820  144.4450 C   0  0  0  0  0  2  0  0  0  0  0  0
  186.7660  177.9290  146.7340 C   0  0  0  0  0  2  0  0  0  0  0  0
  185.8030  178.2760  142.5130 C   0  0  0  0  0  0  0  0  0  0  0  0
  185.1420  178.3100  139.4580 C   0  0  2  0  0  0  0  0  0  0  0  0
  184.1500  179.3320  139.5520 C   0  0  1  0  0  0  0  0  0  0  0  0
  186.5460  178.2650  140.0630 C   0  0  0  0  0  0  0  0  0  0  0  0
  185.8900  178.9330  146.2240 O   0  0  0  0  0  0  0  0  0  0  0  0
  186.1770  178.2370  143.9520 C   0  0  0  0  0  0  0  0  0  0  0  0
  188.1390  177.9670  141.6190 N   0  0  0  0  0  0  0  0  0  0  0  0
  187.8620  177.6420  145.7190 C   0  0  0  0  0  2  0  0  0  0  0  0
  183.3570  178.2820  143.0580 C   0  0  0  0  0  2  0  0  0  0  0  0
  184.3260  178.4320  140.7140 N   0  0  0  0  0  0  0  0  0  0  0  0
  184.5190  178.3450  142.1150 C   0  0  0  0  0  0  0  0  0  0  0  0
  187.6970  178.0160  139.3970 N   0  0  0  0  0  0  0  0  0  0  0  0
  185.5620  179.0270  144.8640 C   0  0  0  0  0  0  0  0  0  0  0  0
  182.8820  178.9820  138.8160 C   0  0  0  0  0  0  0  0  0  0  0  0
  181.6630  179.3390  139.4030 C   0  0  0  0  0  3  0  0  0  0  0  0
  180.4550  179.0430  138.7650 C   0  0  0  0  0  3  0  0  0  0  0  0
  180.4560  178.3890  137.5310 C   0  0  0  0  0  0  0  0  0  0  0  0
  181.6670  178.0380  136.9300 C   0  0  0  0  0  3  0  0  0  0  0  0
  182.8760  178.3310  137.5670 C   0  0  0  0  0  3  0  0  0  0  0  0
  179.2550  178.0970  136.8990 O   0  0  0  0  0  1  0  0  0  0  0  0
  187.8510  177.6360  137.9860 C   0  0  2  0  0  3  0  0  0  0  0  0
  188.9760  179.8060  137.9270 O   0  0  0  0  0  1  0  0  0  0  0  0
  188.6500  178.6730  137.1800 C   0  0  2  0  0  3  0  0  0  0  0  0
  187.1490  178.6030  137.0490 C   0  0  0  0  0  2  0  0  0  0  0  0
  190.0270  177.3810  140.1080 C   0  0  0  0  0  2  0  0  0  0  0  0
  190.5730  176.6390  141.3170 C   0  0  0  0  0  2  0  0  0  0  0  0
  191.6630  177.4290  141.9620 C   0  0  0  0  0  3  0  0  0  0  0  0
  191.5200  177.8860  143.1510 N   0  0  0  0  0  2  0  0  0  0  0  0
  1 10  1  0  0  0  0
  2 15  1  0  0  0  0
  3 14  2  0  0  0  0
  4 14  1  0  0  0  0
  4  8  1  0  0  0  0
  5  6  1  0  0  0  0
  6 20  1  0  0  0  0
  8 13  1  0  0  0  0
  9  1  1  6  0  0  0
  9 10  1  0  0  0  0
  9 11  1  0  0  0  0
  9 17  1  0  0  0  0
 10 21  1  6  0  0  0
 10 17  1  0  0  0  0
 11  4  2  0  0  0  0
 12  7  1  0  0  0  0
 13  2  1  0  0  0  0
 13 20  2  0  0  0  0
 15  7  1  0  0  0  0
 16  5  1  0  0  0  0
 17 18  1  0  0  0  0
 18  8  2  0  0  0  0
 18 16  1  0  0  0  0
 19 11  1  0  0  0  0
 19  3  1  0  0  0  0
 20 12  1  0  0  0  0
 21 22  1  0  0  0  0
 23 22  2  0  0  0  0
 24 23  1  0  0  0  0
 25 24  2  0  0  0  0
 25 26  1  0  0  0  0
 26 21  2  0  0  0  0
 27 24  1  0  0  0  0
 28 31  1  6  0  0  0
 28 19  1  0  0  0  0
 30 29  1  1  0  0  0
 30 28  1  0  0  0  0
 31 30  1  0  0  0  0
 32  3  1  0  0  0  0
 32 33  1  0  0  0  0
 33 34  1  0  0  0  0
 34 35  2  0  0  0  0
M  END
>  <MODEL>
1

>  <REMARK>
 VINA RESULT:      -8.9      0.000      0.000
  Name = 
  5 active torsions:
  status: ('A' for Active; 'I' for Inactive)
    1  A    between atoms: C_3  and  C_16
    2  A    between atoms: C_4  and  C_32
    3  A    between atoms: C_5  and  N_29
    4  A    between atoms: C_23  and  C_34
    5  A    between atoms: C_32  and  C_34
                            x       y       z     vdW  Elec       q    Type
                         _______ _______ _______ _____ _____    ______ ____

>  <TORSDO>
F 5

$$$$
=
 OpenBabel11042411543D

 35 42  0  0  1  0  0  0  0  0999 V2000
  186.3950  179.2360  140.5130 O   0  0  0  0  0  0  0  0  0  0  0  0
  190.7550  175.4810  143.4420 C   0  0  0  0  0  2  0  0  0  0  0  0
  189.7530  177.0040  139.5250 C   0  0  0  0  0  0  0  0  0  0  0  0
  188.9920  177.2290  141.4970 C   0  0  0  0  0  0  0  0  0  0  0  0
  187.7950  178.0600  145.8350 C   0  0  0  0  0  2  0  0  0  0  0  0
  189.2570  178.3910  145.5180 C   0  0  0  0  0  2  0  0  0  0  0  0
  191.8540  175.5820  145.6560 C   0  0  0  0  0  2  0  0  0  0  0  0
  188.7820  177.0650  142.9660 C   0  0  0  0  0  0  0  0  0  0  0  0
  186.5440  177.9270  140.9610 C   0  0  2  0  0  0  0  0  0  0  0  0
  186.0110  178.9540  141.7970 C   0  0  1  0  0  0  0  0  0  0  0  0
  188.0000  177.6350  140.5960 C   0  0  0  0  0  0  0  0  0  0  0  0
  191.0710  176.7390  145.9440 O   0  0  0  0  0  0  0  0  0  0  0  0
  189.8820  176.6330  143.8690 C   0  0  0  0  0  0  0  0  0  0  0  0
  190.0900  176.8420  140.8230 N   0  0  0  0  0  0  0  0  0  0  0  0
  192.1040  175.4920  144.1570 C   0  0  0  0  0  2  0  0  0  0  0  0
  187.1280  177.0940  144.8490 C   0  0  0  0  0  2  0  0  0  0  0  0
  186.6200  177.7760  142.4550 N   0  0  0  0  0  0  0  0  0  0  0  0
  187.5440  177.3200  143.4270 C   0  0  0  0  0  0  0  0  0  0  0  0
  188.4980  177.4890  139.3470 N   0  0  0  0  0  0  0  0  0  0  0  0
  190.0640  177.2010  145.0850 C   0  0  0  0  0  0  0  0  0  0  0  0
  184.5100  178.8910  141.9120 C   0  0  0  0  0  0  0  0  0  0  0  0
  183.9470  178.9550  143.1920 C   0  0  0  0  0  3  0  0  0  0  0  0
  182.5600  178.9040  143.3600 C   0  0  0  0  0  3  0  0  0  0  0  0
  181.7230  178.7900  142.2480 C   0  0  0  0  0  0  0  0  0  0  0  0
  182.2730  178.7350  140.9650 C   0  0  0  0  0  3  0  0  0  0  0  0
  183.6590  178.7840  140.7950 C   0  0  0  0  0  3  0  0  0  0  0  0
  180.3460  178.7400  142.4170 O   0  0  0  0  0  1  0  0  0  0  0  0
  187.7510  177.4750  138.0810 C   0  0  2  0  0  3  0  0  0  0  0  0
  188.9590  179.5820  137.7940 O   0  0  0  0  0  1  0  0  0  0  0  0
  188.0900  178.6750  137.1830 C   0  0  2  0  0  3  0  0  0  0  0  0
  186.7980  178.6520  137.9610 C   0  0  0  0  0  2  0  0  0  0  0  0
  190.6350  176.5390  138.4140 C   0  0  0  0  0  2  0  0  0  0  0  0
  192.0960  176.7030  138.7960 C   0  0  0  0  0  2  0  0  0  0  0  0
  192.9720  175.9840  137.8240 C   0  0  0  0  0  3  0  0  0  0  0  0
  193.8270  176.6270  137.1190 N   0  0  0  0  0  2  0  0  0  0  0  0
  1 10  1  0  0  0  0
  2 13  1  0  0  0  0
  2 15  1  0  0  0  0
  3 14  2  0  0  0  0
  4  8  1  0  0  0  0
  6  5  1  0  0  0  0
  7 12  1  0  0  0  0
  8 18  2  0  0  0  0
  8 13  1  0  0  0  0
  9  1  1  6  0  0  0
  9 10  1  0  0  0  0
  9 17  1  0  0  0  0
 10 21  1  1  0  0  0
 10 17  1  0  0  0  0
 11  9  1  0  0  0  0
 11  4  2  0  0  0  0
 13 20  2  0  0  0  0
 14  4  1  0  0  0  0
 15  7  1  0  0  0  0
 16  5  1  0  0  0  0
 17 18  1  0  0  0  0
 18 16  1  0  0  0  0
 19  3  1  0  0  0  0
 19 11  1  0  0  0  0
 20  6  1  0  0  0  0
 20 12  1  0  0  0  0
 21 22  1  0  0  0  0
 22 23  2  0  0  0  0
 24 27  1  0  0  0  0
 24 23  1  0  0  0  0
 25 24  2  0  0  0  0
 26 25  1  0  0  0  0
 26 21  2  0  0  0  0
 28 31  1  1  0  0  0
 28 19  1  0  0  0  0
 30 29  1  1  0  0  0
 30 31  1  0  0  0  0
 30 28  1  0  0  0  0
 32 33  1  0  0  0  0
 32  3  1  0  0  0  0
 34 33  1  0  0  0  0
 35 34  2  0  0  0  0
M  END
>  <MODEL>
2

>  <REMARK>
 VINA RESULT:      -8.8      2.492      3.795
  Name = 
  5 active torsions:
  status: ('A' for Active; 'I' for Inactive)
    1  A    between atoms: C_3  and  C_16
    2  A    between atoms: C_4  and  C_32
    3  A    between atoms: C_5  and  N_29
    4  A    between atoms: C_23  and  C_34
    5  A    between atoms: C_32  and  C_34
                            x       y       z     vdW  Elec       q    Type
                         _______ _______ _______ _____ _____    ______ ____

>  <TORSDO>
F 5

$$$$
=
 OpenBabel11042411543D

 35 42  0  0  1  0  0  0  0  0999 V2000
  188.3750  176.6330  142.3220 O   0  0  0  0  0  0  0  0  0  0  0  0
  184.0180  180.1490  139.1040 C   0  0  0  0  0  2  0  0  0  0  0  0
  187.8730  178.2790  138.5440 C   0  0  0  0  0  0  0  0  0  0  0  0
  186.4440  178.4040  140.1140 C   0  0  0  0  0  0  0  0  0  0  0  0
  183.0680  178.2890  143.2010 C   0  0  0  0  0  2  0  0  0  0  0  0
  182.6750  177.7380  141.8270 C   0  0  0  0  0  2  0  0  0  0  0  0
  181.5440  180.1910  139.1130 C   0  0  0  0  0  2  0  0  0  0  0  0
  185.2390  178.7790  140.9100 C   0  0  0  0  0  0  0  0  0  0  0  0
  187.9830  177.9600  142.1630 C   0  0  2  0  0  0  0  0  0  0  0  0
  187.4190  177.1220  143.1720 C   0  0  1  0  0  0  0  0  0  0  0  0
  187.6710  178.0170  140.6670 C   0  0  0  0  0  0  0  0  0  0  0  0
  181.5730  179.1890  140.1270 O   0  0  0  0  0  0  0  0  0  0  0  0
  183.9630  179.1790  140.2580 C   0  0  0  0  0  0  0  0  0  0  0  0
  186.5730  178.5610  138.7840 N   0  0  0  0  0  0  0  0  0  0  0  0
  182.7730  180.0570  138.2250 C   0  0  0  0  0  2  0  0  0  0  0  0
  184.3030  179.1990  143.1970 C   0  0  0  0  0  2  0  0  0  0  0  0
  186.6260  178.2880  142.7200 N   0  0  0  0  0  0  0  0  0  0  0  0
  185.3700  178.7430  142.2490 C   0  0  0  0  0  0  0  0  0  0  0  0
  188.5680  177.9390  139.6580 N   0  0  0  0  0  0  0  0  0  0  0  0
  182.7660  178.7530  140.7230 C   0  0  0  0  0  0  0  0  0  0  0  0
  187.9950  177.3900  144.5390 C   0  0  0  0  0  0  0  0  0  0  0  0
  187.1120  177.7400  145.5670 C   0  0  0  0  0  3  0  0  0  0  0  0
  187.5880  177.9970  146.8550 C   0  0  0  0  0  3  0  0  0  0  0  0
  188.9550  177.9020  147.1290 C   0  0  0  0  0  0  0  0  0  0  0  0
  189.8450  177.5420  146.1140 C   0  0  0  0  0  3  0  0  0  0  0  0
  189.3700  177.2880  144.8240 C   0  0  0  0  0  3  0  0  0  0  0  0
  189.4260  178.1560  148.4090 O   0  0  0  0  0  1  0  0  0  0  0  0
  190.0330  177.8850  139.7660 C   0  0  2  0  0  3  0  0  0  0  0  0
  189.6480  175.7290  138.6800 O   0  0  0  0  0  1  0  0  0  0  0  0
  190.6260  176.6160  139.1340 C   0  0  2  0  0  3  0  0  0  0  0  0
  190.5060  176.7320  140.6330 C   0  0  0  0  0  2  0  0  0  0  0  0
  188.4930  178.4850  137.2020 C   0  0  0  0  0  2  0  0  0  0  0  0
  187.5470  178.0200  136.1070 C   0  0  0  0  0  2  0  0  0  0  0  0
  187.7520  176.5690  135.8240 C   0  0  0  0  0  3  0  0  0  0  0  0
  186.8960  175.7010  136.2200 N   0  0  0  0  0  2  0  0  0  0  0  0
  1 10  1  0  0  0  0
  2 13  1  0  0  0  0
  3 14  2  0  0  0  0
  3 19  1  0  0  0  0
  4 11  2  0  0  0  0
  4  8  1  0  0  0  0
  6  5  1  0  0  0  0
  7 12  1  0  0  0  0
  8 18  2  0  0  0  0
  9 11  1  6  0  0  0
  9  1  1  0  0  0  0
  9 17  1  0  0  0  0
  9 10  1  0  0  0  0
 10 21  1  1  0  0  0
 12 20  1  0  0  0  0
 13 20  2  0  0  0  0
 13  8  1  0  0  0  0
 14  4  1  0  0  0  0
 15  2  1  0  0  0  0
 15  7  1  0  0  0  0
 16  5  1  0  0  0  0
 17 10  1  0  0  0  0
 18 17  1  0  0  0  0
 18 16  1  0  0  0  0
 19 11  1  0  0  0  0
 20  6  1  0  0  0  0
 21 26  2  0  0  0  0
 21 22  1  0  0  0  0
 22 23  2  0  0  0  0
 23 24  1  0  0  0  0
 24 27  1  0  0  0  0
 25 24  2  0  0  0  0
 26 25  1  0  0  0  0
 28 19  1  6  0  0  0
 28 31  1  0  0  0  0
 30 29  1  6  0  0  0
 30 28  1  0  0  0  0
 30 31  1  0  0  0  0
 32  3  1  0  0  0  0
 33 32  1  0  0  0  0
 34 33  1  0  0  0  0
 34 35  2  0  0  0  0
M  END
>  <MODEL>
3

>  <REMARK>
 VINA RESULT:      -8.7      2.080      6.748
  Name = 
  5 active torsions:
  status: ('A' for Active; 'I' for Inactive)
    1  A    between atoms: C_3  and  C_16
    2  A    between atoms: C_4  and  C_32
    3  A    between atoms: C_5  and  N_29
    4  A    between atoms: C_23  and  C_34
    5  A    between atoms: C_32  and  C_34
                            x       y       z     vdW  Elec       q    Type
                         _______ _______ _______ _____ _____    ______ ____

>  <TORSDO>
F 5

$$$$
=
 OpenBabel11042411543D

 35 42  0  0  1  0  0  0  0  0999 V2000
  185.1450  179.5340  138.5600 O   0  0  0  0  0  0  0  0  0  0  0  0
  187.3170  177.2360  144.1900 C   0  0  0  0  0  2  0  0  0  0  0  0
  188.6540  177.9880  140.1500 C   0  0  0  0  0  0  0  0  0  0  0  0
  186.8610  178.2910  141.2520 C   0  0  0  0  0  0  0  0  0  0  0  0
  183.2650  179.3850  143.8630 C   0  0  0  0  0  2  0  0  0  0  0  0
  184.5890  179.9860  144.3430 C   0  0  0  0  0  2  0  0  0  0  0  0
  186.8880  177.8590  146.5450 C   0  0  0  0  0  2  0  0  0  0  0  0
  185.8470  178.2730  142.3480 C   0  0  0  0  0  0  0  0  0  0  0  0
  185.1380  178.3580  139.3050 C   0  0  2  0  0  0  0  0  0  0  0  0
  184.1120  179.3410  139.4390 C   0  0  1  0  0  0  0  0  0  0  0  0
  186.5520  178.3490  139.8880 C   0  0  0  0  0  0  0  0  0  0  0  0
  185.9690  178.8420  146.0730 O   0  0  0  0  0  0  0  0  0  0  0  0
  186.2440  178.2130  143.7800 C   0  0  0  0  0  0  0  0  0  0  0  0
  188.1780  178.0710  141.4120 N   0  0  0  0  0  0  0  0  0  0  0  0
  187.9780  177.6360  145.5070 C   0  0  0  0  0  2  0  0  0  0  0  0
  183.4110  178.1780  142.9290 C   0  0  0  0  0  2  0  0  0  0  0  0
  184.3380  178.4200  140.5750 N   0  0  0  0  0  0  0  0  0  0  0  0
  184.5560  178.3060  141.9710 C   0  0  0  0  0  0  0  0  0  0  0  0
  187.7000  178.1580  139.2000 N   0  0  0  0  0  0  0  0  0  0  0  0
  185.6160  178.9570  144.7210 C   0  0  0  0  0  0  0  0  0  0  0  0
  182.8460  178.9630  138.7130 C   0  0  0  0  0  0  0  0  0  0  0  0
  182.0280  179.9960  138.2390 C   0  0  0  0  0  3  0  0  0  0  0  0
  180.8430  179.7070  137.5560 C   0  0  0  0  0  3  0  0  0  0  0  0
  180.4670  178.3800  137.3380 C   0  0  0  0  0  0  0  0  0  0  0  0
  181.2800  177.3400  137.7970 C   0  0  0  0  0  3  0  0  0  0  0  0
  182.4640  177.6280  138.4820 C   0  0  0  0  0  3  0  0  0  0  0  0
  179.2910  178.0940  136.6590 O   0  0  0  0  0  1  0  0  0  0  0  0
  187.8450  177.8190  137.7770 C   0  0  2  0  0  3  0  0  0  0  0  0
  189.0250  179.9600  137.7850 O   0  0  0  0  0  1  0  0  0  0  0  0
  188.6710  178.8590  137.0030 C   0  0  2  0  0  3  0  0  0  0  0  0
  187.1680  178.8320  136.8700 C   0  0  0  0  0  2  0  0  0  0  0  0
  190.0630  177.5900  139.8600 C   0  0  0  0  0  2  0  0  0  0  0  0
  190.1150  176.1510  139.3740 C   0  0  0  0  0  2  0  0  0  0  0  0
  191.1880  175.9870  138.3500 C   0  0  0  0  0  3  0  0  0  0  0  0
  191.5830  174.8180  138.0020 N   0  0  0  0  0  2  0  0  0  0  0  0
  1 10  1  0  0  0  0
  2 15  1  0  0  0  0
  3 14  2  0  0  0  0
  4 14  1  0  0  0  0
  4  8  1  0  0  0  0
  5  6  1  0  0  0  0
  6 20  1  0  0  0  0
  8 13  1  0  0  0  0
  9  1  1  6  0  0  0
  9 10  1  0  0  0  0
  9 11  1  0  0  0  0
  9 17  1  0  0  0  0
 10 21  1  6  0  0  0
 10 17  1  0  0  0  0
 11  4  2  0  0  0  0
 12  7  1  0  0  0  0
 13  2  1  0  0  0  0
 13 20  2  0  0  0  0
 15  7  1  0  0  0  0
 16  5  1  0  0  0  0
 17 18  1  0  0  0  0
 18  8  2  0  0  0  0
 18 16  1  0  0  0  0
 19 11  1  0  0  0  0
 19  3  1  0  0  0  0
 20 12  1  0  0  0  0
 22 21  2  0  0  0  0
 23 22  1  0  0  0  0
 24 23  2  0  0  0  0
 24 25  1  0  0  0  0
 25 26  2  0  0  0  0
 26 21  1  0  0  0  0
 27 24  1  0  0  0  0
 28 31  1  6  0  0  0
 28 19  1  0  0  0  0
 30 28  1  0  0  0  0
 30 29  1  1  0  0  0
 31 30  1  0  0  0  0
 32  3  1  0  0  0  0
 33 32  1  0  0  0  0
 34 33  1  0  0  0  0
 35 34  2  0  0  0  0
M  END
>  <MODEL>
4

>  <REMARK>
 VINA RESULT:      -8.2      1.117      1.348
  Name = 
  5 active torsions:
  status: ('A' for Active; 'I' for Inactive)
    1  A    between atoms: C_3  and  C_16
    2  A    between atoms: C_4  and  C_32
    3  A    between atoms: C_5  and  N_29
    4  A    between atoms: C_23  and  C_34
    5  A    between atoms: C_32  and  C_34
                            x       y       z     vdW  Elec       q    Type
                         _______ _______ _______ _____ _____    ______ ____

>  <TORSDO>
F 5

$$$$
=
 OpenBabel11042411543D

 35 42  0  0  1  0  0  0  0  0999 V2000
  188.5130  176.4710  143.0650 O   0  0  0  0  0  0  0  0  0  0  0  0
  188.7290  178.7640  137.0330 C   0  0  0  0  0  2  0  0  0  0  0  0
  191.3220  177.1360  140.0810 C   0  0  0  0  0  0  0  0  0  0  0  0
  189.2380  177.5100  139.8820 C   0  0  0  0  0  0  0  0  0  0  0  0
  184.7380  177.8500  139.1250 C   0  0  0  0  0  2  0  0  0  0  0  0
  185.4740  176.9610  138.1180 C   0  0  0  0  0  2  0  0  0  0  0  0
  187.1790  178.6060  135.1110 C   0  0  0  0  0  2  0  0  0  0  0  0
  187.9220  177.9620  139.3420 C   0  0  0  0  0  0  0  0  0  0  0  0
  188.5670  177.6870  142.3890 C   0  0  2  0  0  0  0  0  0  0  0  0
  187.3270  177.0670  142.7270 C   0  0  1  0  0  0  0  0  0  0  0  0
  189.5290  177.3650  141.2440 C   0  0  0  0  0  0  0  0  0  0  0  0
  186.2840  177.8760  135.9470 O   0  0  0  0  0  0  0  0  0  0  0  0
  187.6790  178.0920  137.8810 C   0  0  0  0  0  0  0  0  0  0  0  0
  190.3620  177.3600  139.1570 N   0  0  0  0  0  0  0  0  0  0  0  0
  188.6130  178.3680  135.5630 C   0  0  0  0  0  2  0  0  0  0  0  0
  185.6350  178.8300  139.8890 C   0  0  0  0  0  2  0  0  0  0  0  0
  187.3340  178.0250  141.5990 N   0  0  0  0  0  0  0  0  0  0  0  0
  186.9700  178.2530  140.2480 C   0  0  0  0  0  0  0  0  0  0  0  0
  190.8550  177.1250  141.3560 N   0  0  0  0  0  0  0  0  0  0  0  0
  186.5140  177.6910  137.3180 C   0  0  0  0  0  0  0  0  0  0  0  0
  186.6730  177.6950  143.9320 C   0  0  0  0  0  0  0  0  0  0  0  0
  187.2770  177.5040  145.1800 C   0  0  0  0  0  3  0  0  0  0  0  0
  186.7170  178.0640  146.3320 C   0  0  0  0  0  3  0  0  0  0  0  0
  185.5490  178.8240  146.2460 C   0  0  0  0  0  0  0  0  0  0  0  0
  184.9420  179.0300  145.0040 C   0  0  0  0  0  3  0  0  0  0  0  0
  185.4990  178.4690  143.8510 C   0  0  0  0  0  3  0  0  0  0  0  0
  184.9950  179.3800  147.3900 O   0  0  0  0  0  1  0  0  0  0  0  0
  191.6820  177.2180  142.5670 C   0  0  2  0  0  3  0  0  0  0  0  0
  190.8170  174.9510  142.8650 O   0  0  0  0  0  1  0  0  0  0  0  0
  191.6810  175.9170  143.3850 C   0  0  2  0  0  3  0  0  0  0  0  0
  190.8600  177.0980  143.8380 C   0  0  0  0  0  2  0  0  0  0  0  0
  192.7680  177.0700  139.7210 C   0  0  0  0  0  2  0  0  0  0  0  0
  192.9300  176.7540  138.2430 C   0  0  0  0  0  2  0  0  0  0  0  0
  193.5690  175.4170  138.0640 C   0  0  0  0  0  3  0  0  0  0  0  0
  194.8150  175.2530  138.3140 N   0  0  0  0  0  2  0  0  0  0  0  0
  2 13  1  0  0  0  0
  3 19  1  0  0  0  0
  4 11  2  0  0  0  0
  5 16  1  0  0  0  0
  6  5  1  0  0  0  0
  7 15  1  0  0  0  0
  7 12  1  0  0  0  0
  8  4  1  0  0  0  0
  8 18  2  0  0  0  0
  9 11  1  6  0  0  0
  9 10  1  0  0  0  0
  9  1  1  0  0  0  0
 10  1  1  0  0  0  0
 10 21  1  1  0  0  0
 11 19  1  0  0  0  0
 12 20  1  0  0  0  0
 13  8  1  0  0  0  0
 14  4  1  0  0  0  0
 14  3  2  0  0  0  0
 15  2  1  0  0  0  0
 16 18  1  0  0  0  0
 17  9  1  0  0  0  0
 17 10  1  0  0  0  0
 18 17  1  0  0  0  0
 20 13  2  0  0  0  0
 20  6  1  0  0  0  0
 21 22  1  0  0  0  0
 22 23  2  0  0  0  0
 24 23  1  0  0  0  0
 24 27  1  0  0  0  0
 25 24  2  0  0  0  0
 26 21  2  0  0  0  0
 26 25  1  0  0  0  0
 28 19  1  6  0  0  0
 28 30  1  0  0  0  0
 28 31  1  0  0  0  0
 30 29  1  6  0  0  0
 30 31  1  0  0  0  0
 32  3  1  0  0  0  0
 33 32  1  0  0  0  0
 34 33  1  0  0  0  0
 34 35  2  0  0  0  0
M  END
>  <MODEL>
5

>  <REMARK>
 VINA RESULT:      -7.4      2.505      6.848
  Name = 
  5 active torsions:
  status: ('A' for Active; 'I' for Inactive)
    1  A    between atoms: C_3  and  C_16
    2  A    between atoms: C_4  and  C_32
    3  A    between atoms: C_5  and  N_29
    4  A    between atoms: C_23  and  C_34
    5  A    between atoms: C_32  and  C_34
                            x       y       z     vdW  Elec       q    Type
                         _______ _______ _______ _____ _____    ______ ____

>  <TORSDO>
F 5

$$$$
=
 OpenBabel11042411543D

 35 42  0  0  1  0  0  0  0  0999 V2000
  188.8860  176.6720  140.4470 O   0  0  0  0  0  0  0  0  0  0  0  0
  183.7170  180.1740  138.7980 C   0  0  0  0  0  2  0  0  0  0  0  0
  187.1900  178.3090  137.0290 C   0  0  0  0  0  0  0  0  0  0  0  0
  186.3430  178.4350  138.9750 C   0  0  0  0  0  0  0  0  0  0  0  0
  184.1410  178.3220  142.9850 C   0  0  0  0  0  2  0  0  0  0  0  0
  183.3270  177.7670  141.8110 C   0  0  0  0  0  2  0  0  0  0  0  0
  181.3780  180.2130  139.6030 C   0  0  0  0  0  2  0  0  0  0  0  0
  185.4570  178.8100  140.1170 C   0  0  0  0  0  0  0  0  0  0  0  0
  188.4600  177.9980  140.4210 C   0  0  2  0  0  0  0  0  0  0  0  0
  188.2530  177.1620  141.5590 C   0  0  1  0  0  0  0  0  0  0  0  0
  187.6830  178.0510  139.1050 C   0  0  0  0  0  0  0  0  0  0  0  0
  181.7340  179.2120  140.5550 O   0  0  0  0  0  0  0  0  0  0  0  0
  184.0390  179.2070  139.9090 C   0  0  0  0  0  0  0  0  0  0  0  0
  186.0370  178.5900  137.6740 N   0  0  0  0  0  0  0  0  0  0  0  0
  182.2560  180.0790  138.3670 C   0  0  0  0  0  2  0  0  0  0  0  0
  185.3060  179.2330  142.5830 C   0  0  0  0  0  2  0  0  0  0  0  0
  187.3540  178.3250  141.3850 N   0  0  0  0  0  0  0  0  0  0  0  0
  186.0130  178.7770  141.3420 C   0  0  0  0  0  0  0  0  0  0  0  0
  188.2080  177.9720  137.8610 N   0  0  0  0  0  0  0  0  0  0  0  0
  183.0560  178.7790  140.7360 C   0  0  0  0  0  0  0  0  0  0  0  0
  189.2380  177.4330  142.6670 C   0  0  0  0  0  0  0  0  0  0  0  0
  188.7350  177.6330  143.9580 C   0  0  0  0  0  3  0  0  0  0  0  0
  189.6010  177.8850  145.0260 C   0  0  0  0  0  3  0  0  0  0  0  0
  190.9800  177.9370  144.8130 C   0  0  0  0  0  0  0  0  0  0  0  0
  191.4950  177.7280  143.5300 C   0  0  0  0  0  3  0  0  0  0  0  0
  190.6310  177.4780  142.4610 C   0  0  0  0  0  3  0  0  0  0  0  0
  191.8390  178.1870  145.8740 O   0  0  0  0  0  1  0  0  0  0  0  0
  189.6300  177.9220  137.4910 C   0  0  2  0  0  3  0  0  0  0  0  0
  189.0090  175.6200  136.9490 O   0  0  0  0  0  1  0  0  0  0  0  0
  190.0410  176.5590  136.9120 C   0  0  2  0  0  3  0  0  0  0  0  0
  190.4090  176.9220  138.3290 C   0  0  0  0  0  2  0  0  0  0  0  0
  187.3450  178.5130  135.5590 C   0  0  0  0  0  2  0  0  0  0  0  0
  186.2450  177.7830  134.8060 C   0  0  0  0  0  2  0  0  0  0  0  0
  186.6020  176.3450  134.6280 C   0  0  0  0  0  3  0  0  0  0  0  0
  185.6990  175.4380  134.6830 N   0  0  0  0  0  2  0  0  0  0  0  0
  1 10  1  0  0  0  0
  2 13  1  0  0  0  0
  3 14  2  0  0  0  0
  3 19  1  0  0  0  0
  4 11  2  0  0  0  0
  4  8  1  0  0  0  0
  6  5  1  0  0  0  0
  7 12  1  0  0  0  0
  8 18  2  0  0  0  0
  9 11  1  6  0  0  0
  9  1  1  0  0  0  0
  9 17  1  0  0  0  0
  9 10  1  0  0  0  0
 10 21  1  1  0  0  0
 12 20  1  0  0  0  0
 13  8  1  0  0  0  0
 13 20  2  0  0  0  0
 14  4  1  0  0  0  0
 15  2  1  0  0  0  0
 15  7  1  0  0  0  0
 16  5  1  0  0  0  0
 17 10  1  0  0  0  0
 18 17  1  0  0  0  0
 18 16  1  0  0  0  0
 19 11  1  0  0  0  0
 20  6  1  0  0  0  0
 21 22  1  0  0  0  0
 22 23  2  0  0  0  0
 24 23  1  0  0  0  0
 24 27  1  0  0  0  0
 25 24  2  0  0  0  0
 26 21  2  0  0  0  0
 26 25  1  0  0  0  0
 28 19  1  1  0  0  0
 28 31  1  0  0  0  0
 30 29  1  1  0  0  0
 30 28  1  0  0  0  0
 30 31  1  0  0  0  0
 32  3  1  0  0  0  0
 33 32  1  0  0  0  0
 34 35  2  0  0  0  0
 34 33  1  0  0  0  0
M  END
>  <MODEL>
6

>  <REMARK>
 VINA RESULT:      -7.3      2.396      6.933
  Name = 
  5 active torsions:
  status: ('A' for Active; 'I' for Inactive)
    1  A    between atoms: C_3  and  C_16
    2  A    between atoms: C_4  and  C_32
    3  A    between atoms: C_5  and  N_29
    4  A    between atoms: C_23  and  C_34
    5  A    between atoms: C_32  and  C_34
                            x       y       z     vdW  Elec       q    Type
                         _______ _______ _______ _____ _____    ______ ____

>  <TORSDO>
F 5

$$$$
=
 OpenBabel11042411543D

 35 42  0  0  1  0  0  0  0  0999 V2000
  184.2050  177.9350  141.9490 O   0  0  0  0  0  0  0  0  0  0  0  0
  190.2530  177.8780  139.6860 C   0  0  0  0  0  2  0  0  0  0  0  0
  188.0860  177.9790  143.4230 C   0  0  0  0  0  0  0  0  0  0  0  0
  187.5800  177.8620  141.3610 C   0  0  0  0  0  0  0  0  0  0  0  0
  186.6460  177.0620  136.9540 C   0  0  0  0  0  2  0  0  0  0  0  0
  187.5700  176.0210  137.5930 C   0  0  0  0  0  2  0  0  0  0  0  0
  191.3250  176.7480  137.7640 C   0  0  0  0  0  2  0  0  0  0  0  0
  187.6850  177.8340  139.8730 C   0  0  0  0  0  0  0  0  0  0  0  0
  185.1590  178.8090  141.4340 C   0  0  2  0  0  0  0  0  0  0  0  0
  184.2210  178.1360  140.5940 C   0  0  1  0  0  0  0  0  0  0  0  0
  186.4450  178.2770  142.0680 C   0  0  0  0  0  0  0  0  0  0  0  0
  190.0470  176.2190  137.4170 O   0  0  0  0  0  0  0  0  0  0  0  0
  188.9220  177.3770  139.1840 C   0  0  0  0  0  0  0  0  0  0  0  0
  188.6030  177.6700  142.2140 N   0  0  0  0  0  0  0  0  0  0  0  0
  191.4000  176.9600  139.2690 C   0  0  0  0  0  2  0  0  0  0  0  0
  186.5780  178.4010  137.6970 C   0  0  0  0  0  2  0  0  0  0  0  0
  185.4850  178.6020  139.9820 N   0  0  0  0  0  0  0  0  0  0  0  0
  186.6050  178.2530  139.1870 C   0  0  0  0  0  0  0  0  0  0  0  0
  186.7800  178.3450  143.3770 N   0  0  0  0  0  0  0  0  0  0  0  0
  188.8700  176.5900  138.0840 C   0  0  0  0  0  0  0  0  0  0  0  0
  183.0820  179.0250  140.1660 C   0  0  0  0  0  0  0  0  0  0  0  0
  181.8860  178.9540  140.8900 C   0  0  0  0  0  3  0  0  0  0  0  0
  180.7960  179.7570  140.5400 C   0  0  0  0  0  3  0  0  0  0  0  0
  180.8930  180.6400  139.4630 C   0  0  0  0  0  0  0  0  0  0  0  0
  182.0860  180.7280  138.7390 C   0  0  0  0  0  3  0  0  0  0  0  0
  183.1750  179.9240  139.0860 C   0  0  0  0  0  3  0  0  0  0  0  0
  179.8110  181.4370  139.1180 O   0  0  0  0  0  1  0  0  0  0  0  0
  186.0460  179.0240  144.4540 C   0  0  2  0  0  3  0  0  0  0  0  0
  186.1560  176.7790  145.4170 O   0  0  0  0  0  1  0  0  0  0  0  0
  185.7550  178.0970  145.6450 C   0  0  2  0  0  3  0  0  0  0  0  0
  184.6610  178.4400  144.6650 C   0  0  0  0  0  2  0  0  0  0  0  0
  188.9330  178.0570  144.6500 C   0  0  0  0  0  2  0  0  0  0  0  0
  190.3950  178.2220  144.2730 C   0  0  0  0  0  2  0  0  0  0  0  0
  191.2020  177.0850  144.8070 C   0  0  0  0  0  3  0  0  0  0  0  0
  191.6810  177.1280  145.9940 N   0  0  0  0  0  2  0  0  0  0  0  0
  3 32  1  0  0  0  0
  4 11  2  0  0  0  0
  4 14  1  0  0  0  0
  5  6  1  0  0  0  0
  5 16  1  0  0  0  0
  6 20  1  0  0  0  0
  7 15  1  0  0  0  0
  8  4  1  0  0  0  0
  9  1  1  1  0  0  0
  9 11  1  0  0  0  0
 10 21  1  6  0  0  0
 10  9  1  0  0  0  0
 10  1  1  0  0  0  0
 11 19  1  0  0  0  0
 12  7  1  0  0  0  0
 12 20  1  0  0  0  0
 13  2  1  0  0  0  0
 13  8  1  0  0  0  0
 14  3  2  0  0  0  0
 15  2  1  0  0  0  0
 16 18  1  0  0  0  0
 17 10  1  0  0  0  0
 17  9  1  0  0  0  0
 18  8  2  0  0  0  0
 18 17  1  0  0  0  0
 19  3  1  0  0  0  0
 20 13  2  0  0  0  0
 21 22  1  0  0  0  0
 23 22  2  0  0  0  0
 24 23  1  0  0  0  0
 25 26  1  0  0  0  0
 25 24  2  0  0  0  0
 26 21  2  0  0  0  0
 27 24  1  0  0  0  0
 28 19  1  6  0  0  0
 28 31  1  0  0  0  0
 28 30  1  0  0  0  0
 30 29  1  6  0  0  0
 31 30  1  0  0  0  0
 33 32  1  0  0  0  0
 33 34  1  0  0  0  0
 34 35  2  0  0  0  0
M  END
>  <MODEL>
7

>  <REMARK>
 VINA RESULT:      -7.2      2.031      5.361
  Name = 
  5 active torsions:
  status: ('A' for Active; 'I' for Inactive)
    1  A    between atoms: C_3  and  C_16
    2  A    between atoms: C_4  and  C_32
    3  A    between atoms: C_5  and  N_29
    4  A    between atoms: C_23  and  C_34
    5  A    between atoms: C_32  and  C_34
                            x       y       z     vdW  Elec       q    Type
                         _______ _______ _______ _____ _____    ______ ____

>  <TORSDO>
F 5

$$$$
=
 OpenBabel11042411543D

 35 42  0  0  1  0  0  0  0  0999 V2000
  188.0780  176.3810  138.1820 O   0  0  0  0  0  0  0  0  0  0  0  0
  185.5000  179.6840  143.0950 C   0  0  0  0  0  2  0  0  0  0  0  0
  184.7260  178.7040  138.9590 C   0  0  0  0  0  0  0  0  0  0  0  0
  186.2190  178.2220  140.3940 C   0  0  0  0  0  0  0  0  0  0  0  0
  189.0500  176.8270  143.7070 C   0  0  0  0  0  2  0  0  0  0  0  0
  187.5720  176.5320  143.9850 C   0  0  0  0  0  2  0  0  0  0  0  0
  185.4050  179.2820  145.5340 C   0  0  0  0  0  2  0  0  0  0  0  0
  187.0210  178.1900  141.6520 C   0  0  0  0  0  0  0  0  0  0  0  0
  188.1920  177.6180  138.8110 C   0  0  2  0  0  0  0  0  0  0  0  0
  188.9690  176.4910  139.2170 C   0  0  1  0  0  0  0  0  0  0  0  0
  186.7310  177.9470  139.1200 C   0  0  0  0  0  0  0  0  0  0  0  0
  186.1780  178.1010  145.3260 O   0  0  0  0  0  0  0  0  0  0  0  0
  186.4130  178.4900  142.9760 C   0  0  0  0  0  0  0  0  0  0  0  0
  184.9610  178.6890  140.2890 N   0  0  0  0  0  0  0  0  0  0  0  0
  184.5660  179.5690  144.2970 C   0  0  0  0  0  2  0  0  0  0  0  0
  189.2990  177.9200  142.6620 C   0  0  0  0  0  2  0  0  0  0  0  0
  188.7440  177.5670  140.2080 N   0  0  0  0  0  0  0  0  0  0  0  0
  188.3250  177.8840  141.5240 C   0  0  0  0  0  0  0  0  0  0  0  0
  185.7720  178.2550  138.2180 N   0  0  0  0  0  0  0  0  0  0  0  0
  186.7190  177.7640  144.0770 C   0  0  0  0  0  0  0  0  0  0  0  0
  190.3860  176.5480  138.7070 C   0  0  0  0  0  0  0  0  0  0  0  0
  190.6230  176.1670  137.3810 C   0  0  0  0  0  3  0  0  0  0  0  0
  191.9160  176.2020  136.8520 C   0  0  0  0  0  3  0  0  0  0  0  0
  192.9860  176.6220  137.6450 C   0  0  0  0  0  0  0  0  0  0  0  0
  192.7610  177.0160  138.9670 C   0  0  0  0  0  3  0  0  0  0  0  0
  191.4690  176.9790  139.4980 C   0  0  0  0  0  3  0  0  0  0  0  0
  194.2700  176.6570  137.1180 O   0  0  0  0  0  1  0  0  0  0  0  0
  185.9320  178.4420  136.7690 C   0  0  2  0  0  3  0  0  0  0  0  0
  184.6790  176.3430  136.7510 O   0  0  0  0  0  1  0  0  0  0  0  0
  185.2340  177.3440  135.9510 C   0  0  2  0  0  3  0  0  0  0  0  0
  186.7310  177.3220  136.1280 C   0  0  0  0  0  2  0  0  0  0  0  0
  183.4900  179.3080  138.3800 C   0  0  0  0  0  2  0  0  0  0  0  0
  182.2870  178.4240  138.6640 C   0  0  0  0  0  2  0  0  0  0  0  0
  181.3870  179.0750  139.6610 C   0  0  0  0  0  3  0  0  0  0  0  0
  181.4620  178.7700  140.9030 N   0  0  0  0  0  2  0  0  0  0  0  0
  1 10  1  0  0  0  0
  2 15  1  0  0  0  0
  3 14  2  0  0  0  0
  4  8  1  0  0  0  0
  5  6  1  0  0  0  0
  6 20  1  0  0  0  0
  8 13  1  0  0  0  0
  9  1  1  6  0  0  0
  9 11  1  0  0  0  0
  9 10  1  0  0  0  0
  9 17  1  0  0  0  0
 10 21  1  6  0  0  0
 10 17  1  0  0  0  0
 11  4  2  0  0  0  0
 12  7  1  0  0  0  0
 13  2  1  0  0  0  0
 13 20  2  0  0  0  0
 14  4  1  0  0  0  0
 15  7  1  0  0  0  0
 16  5  1  0  0  0  0
 17 18  1  0  0  0  0
 18  8  2  0  0  0  0
 18 16  1  0  0  0  0
 19  3  1  0  0  0  0
 19 11  1  0  0  0  0
 20 12  1  0  0  0  0
 21 26  1  0  0  0  0
 22 21  2  0  0  0  0
 23 22  1  0  0  0  0
 23 24  2  0  0  0  0
 24 25  1  0  0  0  0
 25 26  2  0  0  0  0
 27 24  1  0  0  0  0
 28 31  1  1  0  0  0
 28 19  1  0  0  0  0
 30 31  1  0  0  0  0
 30 29  1  1  0  0  0
 30 28  1  0  0  0  0
 32 33  1  0  0  0  0
 32  3  1  0  0  0  0
 33 34  1  0  0  0  0
 34 35  2  0  0  0  0
M  END
>  <MODEL>
8

>  <REMARK>
 VINA RESULT:      -7.0      2.208      6.701
  Name = 
  5 active torsions:
  status: ('A' for Active; 'I' for Inactive)
    1  A    between atoms: C_3  and  C_16
    2  A    between atoms: C_4  and  C_32
    3  A    between atoms: C_5  and  N_29
    4  A    between atoms: C_23  and  C_34
    5  A    between atoms: C_32  and  C_34
                            x       y       z     vdW  Elec       q    Type
                         _______ _______ _______ _____ _____    ______ ____

>  <TORSDO>
F 5

$$$$
=
 OpenBabel11042411543D

 35 42  0  0  1  0  0  0  0  0999 V2000
  187.9880  178.7480  143.7040 O   0  0  0  0  0  0  0  0  0  0  0  0
  185.9990  177.3180  137.7290 C   0  0  0  0  0  2  0  0  0  0  0  0
  184.4310  178.4980  141.5790 C   0  0  0  0  0  0  0  0  0  0  0  0
  186.3590  178.1610  140.7470 C   0  0  0  0  0  0  0  0  0  0  0  0
  190.4480  177.9430  138.7060 C   0  0  0  0  0  2  0  0  0  0  0  0
  189.4920  178.9620  138.0780 C   0  0  0  0  0  2  0  0  0  0  0  0
  186.9490  177.7460  135.4860 C   0  0  0  0  0  2  0  0  0  0  0  0
  187.4520  177.7930  139.8010 C   0  0  0  0  0  0  0  0  0  0  0  0
  187.7010  177.6390  142.9130 C   0  0  2  0  0  0  0  0  0  0  0  0
  189.0090  178.2090  142.9660 C   0  0  1  0  0  0  0  0  0  0  0  0
  186.4680  178.1150  142.1420 C   0  0  0  0  0  0  0  0  0  0  0  0
  188.0700  178.3550  136.1240 O   0  0  0  0  0  0  0  0  0  0  0  0
  187.2690  177.8680  138.3270 C   0  0  0  0  0  0  0  0  0  0  0  0
  185.0830  178.4080  140.3990 N   0  0  0  0  0  0  0  0  0  0  0  0
  185.7110  177.9150  136.3540 C   0  0  0  0  0  2  0  0  0  0  0  0
  189.7670  176.8630  139.5540 C   0  0  0  0  0  2  0  0  0  0  0  0
  188.6490  177.4170  141.7680 N   0  0  0  0  0  0  0  0  0  0  0  0
  188.6090  177.3800  140.3520 C   0  0  0  0  0  0  0  0  0  0  0  0
  185.2370  178.3320  142.6580 N   0  0  0  0  0  0  0  0  0  0  0  0
  188.2420  178.3470  137.5160 C   0  0  0  0  0  0  0  0  0  0  0  0
  189.9510  177.4210  143.8400 C   0  0  0  0  0  0  0  0  0  0  0  0
  189.9310  177.6690  145.2170 C   0  0  0  0  0  3  0  0  0  0  0  0
  190.7810  176.9680  146.0770 C   0  0  0  0  0  3  0  0  0  0  0  0
  191.6580  176.0090  145.5670 C   0  0  0  0  0  0  0  0  0  0  0  0
  191.6800  175.7440  144.1950 C   0  0  0  0  0  3  0  0  0  0  0  0
  190.8330  176.4470  143.3330 C   0  0  0  0  0  3  0  0  0  0  0  0
  192.5000  175.3120  146.4220 O   0  0  0  0  0  1  0  0  0  0  0  0
  184.7820  178.0690  144.0300 C   0  0  2  0  0  3  0  0  0  0  0  0
  184.6200  180.5090  144.0310 O   0  0  0  0  0  1  0  0  0  0  0  0
  184.3770  179.3510  144.7740 C   0  0  2  0  0  3  0  0  0  0  0  0
  185.6980  178.6880  145.0710 C   0  0  0  0  0  2  0  0  0  0  0  0
  182.9440  178.6090  141.6560 C   0  0  0  0  0  2  0  0  0  0  0  0
  182.3500  178.7100  140.2610 C   0  0  0  0  0  2  0  0  0  0  0  0
  181.5760  177.4760  139.9350 C   0  0  0  0  0  3  0  0  0  0  0  0
  182.1790  176.3650  139.7300 N   0  0  0  0  0  2  0  0  0  0  0  0
  2 13  1  0  0  0  0
  3 32  1  0  0  0  0
  3 19  1  0  0  0  0
  4 11  2  0  0  0  0
  5 16  1  0  0  0  0
  6  5  1  0  0  0  0
  7 12  1  0  0  0  0
  7 15  1  0  0  0  0
  8 18  2  0  0  0  0
  8  4  1  0  0  0  0
  9 11  1  6  0  0  0
  9 10  1  0  0  0  0
  9  1  1  0  0  0  0
 10  1  1  0  0  0  0
 10 21  1  1  0  0  0
 11 19  1  0  0  0  0
 12 20  1  0  0  0  0
 13  8  1  0  0  0  0
 14  4  1  0  0  0  0
 14  3  2  0  0  0  0
 15  2  1  0  0  0  0
 16 18  1  0  0  0  0
 17  9  1  0  0  0  0
 17 10  1  0  0  0  0
 18 17  1  0  0  0  0
 20  6  1  0  0  0  0
 20 13  2  0  0  0  0
 21 22  1  0  0  0  0
 22 23  2  0  0  0  0
 24 23  1  0  0  0  0
 24 27  1  0  0  0  0
 25 24  2  0  0  0  0
 26 21  2  0  0  0  0
 26 25  1  0  0  0  0
 28 19  1  6  0  0  0
 28 30  1  0  0  0  0
 28 31  1  0  0  0  0
 30 29  1  6  0  0  0
 30 31  1  0  0  0  0
 33 32  1  0  0  0  0
 34 33  1  0  0  0  0
 35 34  2  0  0  0  0
M  END
>  <MODEL>
9

>  <REMARK>
 VINA RESULT:      -7.0      2.393      8.482
  Name = 
  5 active torsions:
  status: ('A' for Active; 'I' for Inactive)
    1  A    between atoms: C_3  and  C_16
    2  A    between atoms: C_4  and  C_32
    3  A    between atoms: C_5  and  N_29
    4  A    between atoms: C_23  and  C_34
    5  A    between atoms: C_32  and  C_34
                            x       y       z     vdW  Elec       q    Type
                         _______ _______ _______ _____ _____    ______ ____

>  <TORSDO>
F 5

$$$$
