=
 OpenBabel11032419213D

 25 27  0  0  1  0  0  0  0  0999 V2000
  188.0540  177.1080  144.4330 C   0  0  0  0  0  0  0  0  0  0  0  0
  187.7370  176.8270  143.2160 N   0  0  0  0  0  2  0  0  0  0  0  0
  188.9620  176.4180  142.5280 C   0  0  2  0  0  3  0  0  0  0  0  0
  189.4050  176.9320  144.6800 C   0  0  0  0  0  0  0  0  0  0  0  0
  187.1680  177.5480  145.4470 C   0  0  0  0  0  0  0  0  0  0  0  0
  189.9760  177.1690  145.9390 C   0  0  0  0  0  3  0  0  0  0  0  0
  189.0920  177.5940  146.9350 C   0  0  0  0  0  0  0  0  0  0  0  0
  187.7500  177.7740  146.7020 C   0  0  0  0  0  0  0  0  0  0  0  0
  190.0240  176.5250  143.5880 C   0  0  0  0  0  2  0  0  0  0  0  0
  189.3320  177.9050  148.2550 C   0  0  0  0  0  3  0  0  0  0  0  0
  187.1600  178.1750  147.7950 O   0  0  0  0  0  0  0  0  0  0  0  0
  188.0740  178.2650  148.7470 C   0  0  0  0  0  3  0  0  0  0  0  0
  188.4530  178.2850  141.1440 O   0  0  0  0  0  0  0  0  0  0  0  0
  189.2530  177.3440  141.3900 C   0  0  0  0  0  0  0  0  0  0  0  0
  190.4080  177.3010  139.3010 C   0  0  0  0  0  2  0  0  0  0  0  0
  190.4210  177.1470  140.5840 N   0  0  0  0  0  0  0  0  0  0  0  0
  185.7930  177.7590  145.2700 O   0  0  0  0  0  0  0  0  0  0  0  0
  185.2210  178.9720  144.7900 C   0  0  0  0  0  2  0  0  0  0  0  0
  183.7140  178.9820  145.0140 C   0  0  0  0  0  2  0  0  0  0  0  0
  182.9600  178.8120  143.7050 C   0  0  0  0  0  2  0  0  0  0  0  0
  183.9290  178.6810  142.5420 C   0  0  0  0  0  2  0  0  0  0  0  0
  183.1760  178.3930  141.2530 C   0  0  0  0  0  2  0  0  0  0  0  0
  183.9910  178.8050  140.0360 C   0  0  1  0  0  3  0  0  0  0  0  0
  183.1860  179.7280  139.1410 C   0  0  0  0  0  1  0  0  0  0  0  0
  185.1900  179.4940  140.4730 N   0  0  0  0  0  1  0  0  0  0  0  0
  1  4  2  0  0  0  0
  1  5  1  0  0  0  0
  2  1  1  0  0  0  0
  3 14  1  6  0  0  0
  3  2  1  0  0  0  0
  3  9  1  0  0  0  0
  4  6  1  0  0  0  0
  5  8  2  0  0  0  0
  6  7  2  0  0  0  0
  7 10  1  0  0  0  0
  8  7  1  0  0  0  0
  8 11  1  0  0  0  0
  9  4  1  0  0  0  0
 10 12  2  0  0  0  0
 11 12  1  0  0  0  0
 13 14  2  0  0  0  0
 15 16  2  0  0  0  0
 16 14  1  0  0  0  0
 17  5  1  0  0  0  0
 18 19  1  0  0  0  0
 18 17  1  0  0  0  0
 20 19  1  0  0  0  0
 21 20  1  0  0  0  0
 22 21  1  0  0  0  0
 23 24  1  6  0  0  0
 23 25  1  0  0  0  0
 23 22  1  0  0  0  0
M  END
>  <MODEL>
1

>  <REMARK>
 VINA RESULT:      -7.8      0.000      0.000
  Name = 
  9 active torsions:
  status: ('A' for Active; 'I' for Inactive)
    1  A    between atoms: C_2  and  C_5
    2  A    between atoms: C_4  and  C_13
    3  A    between atoms: C_4  and  C_23
    4  A    between atoms: C_5  and  C_10
    5  A    between atoms: C_7  and  C_8
    6  A    between atoms: C_8  and  N_12
    7  A    between atoms: C_10  and  C_23
    8  A    between atoms: C_13  and  O_16
    9  A    between atoms: C_14  and  O_16
                            x       y       z     vdW  Elec       q    Type
                         _______ _______ _______ _____ _____    ______ ____

>  <TORSDO>
F 9

$$$$
=
 OpenBabel11032419213D

 25 27  0  0  1  0  0  0  0  0999 V2000
  188.8080  176.8570  144.2090 C   0  0  0  0  0  0  0  0  0  0  0  0
  188.7370  176.5110  142.9700 N   0  0  0  0  0  2  0  0  0  0  0  0
  190.1000  176.2370  142.5130 C   0  0  2  0  0  3  0  0  0  0  0  0
  190.1080  176.8510  144.6840 C   0  0  0  0  0  0  0  0  0  0  0  0
  187.7180  177.2120  145.0410 C   0  0  0  0  0  0  0  0  0  0  0  0
  190.4260  177.1860  146.0100 C   0  0  0  0  0  3  0  0  0  0  0  0
  189.3420  177.5250  146.8250 C   0  0  0  0  0  0  0  0  0  0  0  0
  188.0470  177.5360  146.3640 C   0  0  0  0  0  0  0  0  0  0  0  0
  190.9470  176.4960  143.7300 C   0  0  0  0  0  2  0  0  0  0  0  0
  189.3170  177.8940  148.1510 C   0  0  0  0  0  3  0  0  0  0  0  0
  187.2380  177.8890  147.3250 O   0  0  0  0  0  0  0  0  0  0  0  0
  187.9600  178.1110  148.4110 C   0  0  0  0  0  3  0  0  0  0  0  0
  191.6770  177.5110  141.2680 O   0  0  0  0  0  0  0  0  0  0  0  0
  190.4730  177.1630  141.4000 C   0  0  0  0  0  0  0  0  0  0  0  0
  189.2520  177.1320  139.3480 C   0  0  0  0  0  2  0  0  0  0  0  0
  189.4670  177.6590  140.5090 N   0  0  0  0  0  0  0  0  0  0  0  0
  186.3780  177.2520  144.6280 O   0  0  0  0  0  0  0  0  0  0  0  0
  185.7750  178.3560  143.9620 C   0  0  0  0  0  2  0  0  0  0  0  0
  185.0080  179.2270  144.9500 C   0  0  0  0  0  2  0  0  0  0  0  0
  183.5410  178.8330  145.0120 C   0  0  0  0  0  2  0  0  0  0  0  0
  182.8860  178.9940  143.6500 C   0  0  0  0  0  2  0  0  0  0  0  0
  181.3710  178.9910  143.7860 C   0  0  0  0  0  2  0  0  0  0  0  0
  180.7010  179.3890  142.4800 C   0  0  1  0  0  3  0  0  0  0  0  0
  179.7630  178.2950  142.0050 C   0  0  0  0  0  1  0  0  0  0  0  0
  179.9420  180.6090  142.6840 N   0  0  0  0  0  1  0  0  0  0  0  0
  1  4  2  0  0  0  0
  1  5  1  0  0  0  0
  2  1  1  0  0  0  0
  3 14  1  6  0  0  0
  3  2  1  0  0  0  0
  3  9  1  0  0  0  0
  4  6  1  0  0  0  0
  5  8  2  0  0  0  0
  6  7  2  0  0  0  0
  7 10  1  0  0  0  0
  8  7  1  0  0  0  0
  8 11  1  0  0  0  0
  9  4  1  0  0  0  0
 10 12  2  0  0  0  0
 11 12  1  0  0  0  0
 13 14  2  0  0  0  0
 15 16  2  0  0  0  0
 16 14  1  0  0  0  0
 17  5  1  0  0  0  0
 18 17  1  0  0  0  0
 18 19  1  0  0  0  0
 19 20  1  0  0  0  0
 21 22  1  0  0  0  0
 21 20  1  0  0  0  0
 23 24  1  1  0  0  0
 23 25  1  0  0  0  0
 23 22  1  0  0  0  0
M  END
>  <MODEL>
2

>  <REMARK>
 VINA RESULT:      -7.7      1.836      2.123
  Name = 
  9 active torsions:
  status: ('A' for Active; 'I' for Inactive)
    1  A    between atoms: C_2  and  C_5
    2  A    between atoms: C_4  and  C_13
    3  A    between atoms: C_4  and  C_23
    4  A    between atoms: C_5  and  C_10
    5  A    between atoms: C_7  and  C_8
    6  A    between atoms: C_8  and  N_12
    7  A    between atoms: C_10  and  C_23
    8  A    between atoms: C_13  and  O_16
    9  A    between atoms: C_14  and  O_16
                            x       y       z     vdW  Elec       q    Type
                         _______ _______ _______ _____ _____    ______ ____

>  <TORSDO>
F 9

$$$$
=
 OpenBabel11032419213D

 25 27  0  0  1  0  0  0  0  0999 V2000
  189.6490  177.8210  142.9820 C   0  0  0  0  0  0  0  0  0  0  0  0
  189.3760  178.1270  144.2040 N   0  0  0  0  0  2  0  0  0  0  0  0
  190.6440  178.2020  144.9300 C   0  0  2  0  0  3  0  0  0  0  0  0
  191.0090  177.6730  142.7670 C   0  0  0  0  0  0  0  0  0  0  0  0
  188.7110  177.6440  141.9360 C   0  0  0  0  0  0  0  0  0  0  0  0
  191.5400  177.3500  141.5100 C   0  0  0  0  0  3  0  0  0  0  0  0
  190.6070  177.1870  140.4810 C   0  0  0  0  0  0  0  0  0  0  0  0
  189.2550  177.3280  140.6830 C   0  0  0  0  0  0  0  0  0  0  0  0
  191.6780  177.8790  143.8860 C   0  0  0  0  0  2  0  0  0  0  0  0
  190.8010  176.8740  139.1550 C   0  0  0  0  0  3  0  0  0  0  0  0
  188.6160  177.1210  139.5640 O   0  0  0  0  0  0  0  0  0  0  0  0
  189.5070  176.8460  138.6260 C   0  0  0  0  0  3  0  0  0  0  0  0
  189.5850  176.7630  146.5000 O   0  0  0  0  0  0  0  0  0  0  0  0
  190.6730  177.1940  146.0340 C   0  0  0  0  0  0  0  0  0  0  0  0
  192.0210  175.6880  147.3060 C   0  0  0  0  0  2  0  0  0  0  0  0
  191.9250  176.7400  146.5610 N   0  0  0  0  0  0  0  0  0  0  0  0
  187.3220  177.7650  142.0800 O   0  0  0  0  0  0  0  0  0  0  0  0
  186.5260  178.7390  141.4130 C   0  0  0  0  0  2  0  0  0  0  0  0
  185.5420  179.3850  142.3810 C   0  0  0  0  0  2  0  0  0  0  0  0
  184.2760  178.5550  142.5170 C   0  0  0  0  0  2  0  0  0  0  0  0
  183.7740  178.5770  143.9520 C   0  0  0  0  0  2  0  0  0  0  0  0
  184.7490  179.3280  144.8440 C   0  0  0  0  0  2  0  0  0  0  0  0
  185.1750  178.4780  146.0320 C   0  0  1  0  0  3  0  0  0  0  0  0
  186.3170  177.5560  145.6470 C   0  0  0  0  0  1  0  0  0  0  0  0
  185.6080  179.3460  147.1120 N   0  0  0  0  0  1  0  0  0  0  0  0
  1  2  1  0  0  0  0
  2  3  1  0  0  0  0
  3 14  1  1  0  0  0
  4  1  1  0  0  0  0
  4  9  1  0  0  0  0
  5 17  1  0  0  0  0
  5  1  2  0  0  0  0
  6  4  2  0  0  0  0
  7  8  2  0  0  0  0
  7  6  1  0  0  0  0
  8  5  1  0  0  0  0
  9  3  1  0  0  0  0
 10  7  1  0  0  0  0
 11  8  1  0  0  0  0
 12 10  2  0  0  0  0
 12 11  1  0  0  0  0
 14 13  2  0  0  0  0
 14 16  1  0  0  0  0
 16 15  2  0  0  0  0
 18 17  1  0  0  0  0
 18 19  1  0  0  0  0
 19 20  1  0  0  0  0
 20 21  1  0  0  0  0
 21 22  1  0  0  0  0
 22 23  1  0  0  0  0
 23 24  1  6  0  0  0
 23 25  1  0  0  0  0
M  END
>  <MODEL>
3

>  <REMARK>
 VINA RESULT:      -7.5      2.409      5.573
  Name = 
  9 active torsions:
  status: ('A' for Active; 'I' for Inactive)
    1  A    between atoms: C_2  and  C_5
    2  A    between atoms: C_4  and  C_13
    3  A    between atoms: C_4  and  C_23
    4  A    between atoms: C_5  and  C_10
    5  A    between atoms: C_7  and  C_8
    6  A    between atoms: C_8  and  N_12
    7  A    between atoms: C_10  and  C_23
    8  A    between atoms: C_13  and  O_16
    9  A    between atoms: C_14  and  O_16
                            x       y       z     vdW  Elec       q    Type
                         _______ _______ _______ _____ _____    ______ ____

>  <TORSDO>
F 9

$$$$
=
 OpenBabel11032419213D

 25 27  0  0  1  0  0  0  0  0999 V2000
  187.3560  177.9480  142.8810 C   0  0  0  0  0  0  0  0  0  0  0  0
  188.5700  177.6440  143.1920 N   0  0  0  0  0  2  0  0  0  0  0  0
  189.3960  177.8740  142.0060 C   0  0  2  0  0  3  0  0  0  0  0  0
  187.2400  178.3820  141.5710 C   0  0  0  0  0  0  0  0  0  0  0  0
  186.2300  177.8700  143.7360 C   0  0  0  0  0  0  0  0  0  0  0  0
  186.0140  178.7750  141.0150 C   0  0  0  0  0  3  0  0  0  0  0  0
  184.9100  178.7040  141.8710 C   0  0  0  0  0  0  0  0  0  0  0  0
  185.0130  178.2730  143.1720 C   0  0  0  0  0  0  0  0  0  0  0  0
  188.4160  178.3620  140.9730 C   0  0  0  0  0  2  0  0  0  0  0  0
  183.5900  179.0140  141.6360 C   0  0  0  0  0  3  0  0  0  0  0  0
  183.8390  178.3020  143.7420 O   0  0  0  0  0  0  0  0  0  0  0  0
  182.9610  178.7400  142.8550 C   0  0  0  0  0  3  0  0  0  0  0  0
  190.2190  175.6780  142.4060 O   0  0  0  0  0  0  0  0  0  0  0  0
  190.0400  176.5990  141.5640 C   0  0  0  0  0  0  0  0  0  0  0  0
  191.4940  177.0490  139.7240 C   0  0  0  0  0  2  0  0  0  0  0  0
  190.4600  176.4390  140.2040 N   0  0  0  0  0  0  0  0  0  0  0  0
  186.2680  177.4310  145.0680 O   0  0  0  0  0  0  0  0  0  0  0  0
  186.6040  178.2570  146.1780 C   0  0  0  0  0  2  0  0  0  0  0  0
  187.3580  177.4580  147.2350 C   0  0  0  0  0  2  0  0  0  0  0  0
  188.1100  178.3740  148.1870 C   0  0  0  0  0  2  0  0  0  0  0  0
  189.5570  177.9310  148.3240 C   0  0  0  0  0  2  0  0  0  0  0  0
  189.8690  176.8220  147.3310 C   0  0  0  0  0  2  0  0  0  0  0  0
  191.3180  176.8850  146.8730 C   0  0  1  0  0  3  0  0  0  0  0  0
  192.0900  175.6780  147.3740 C   0  0  0  0  0  1  0  0  0  0  0  0
  191.3620  176.9080  145.4230 N   0  0  0  0  0  1  0  0  0  0  0  0
  1  2  1  0  0  0  0
  1  5  1  0  0  0  0
  3 14  1  6  0  0  0
  3  2  1  0  0  0  0
  4  1  2  0  0  0  0
  5 17  1  0  0  0  0
  6  4  1  0  0  0  0
  6  7  2  0  0  0  0
  7  8  1  0  0  0  0
  8  5  2  0  0  0  0
  8 11  1  0  0  0  0
  9  4  1  0  0  0  0
  9  3  1  0  0  0  0
 10  7  1  0  0  0  0
 10 12  2  0  0  0  0
 12 11  1  0  0  0  0
 14 13  2  0  0  0  0
 15 16  2  0  0  0  0
 16 14  1  0  0  0  0
 17 18  1  0  0  0  0
 18 19  1  0  0  0  0
 19 20  1  0  0  0  0
 20 21  1  0  0  0  0
 22 21  1  0  0  0  0
 23 22  1  0  0  0  0
 23 24  1  6  0  0  0
 25 23  1  0  0  0  0
M  END
>  <MODEL>
4

>  <REMARK>
 VINA RESULT:      -7.3      1.901      5.960
  Name = 
  9 active torsions:
  status: ('A' for Active; 'I' for Inactive)
    1  A    between atoms: C_2  and  C_5
    2  A    between atoms: C_4  and  C_13
    3  A    between atoms: C_4  and  C_23
    4  A    between atoms: C_5  and  C_10
    5  A    between atoms: C_7  and  C_8
    6  A    between atoms: C_8  and  N_12
    7  A    between atoms: C_10  and  C_23
    8  A    between atoms: C_13  and  O_16
    9  A    between atoms: C_14  and  O_16
                            x       y       z     vdW  Elec       q    Type
                         _______ _______ _______ _____ _____    ______ ____

>  <TORSDO>
F 9

$$$$
=
 OpenBabel11032419213D

 25 27  0  0  1  0  0  0  0  0999 V2000
  189.5100  178.0410  141.9490 C   0  0  0  0  0  0  0  0  0  0  0  0
  189.8220  178.1910  143.1900 N   0  0  0  0  0  2  0  0  0  0  0  0
  191.2060  177.7450  143.3510 C   0  0  2  0  0  3  0  0  0  0  0  0
  190.5570  177.5270  141.2020 C   0  0  0  0  0  0  0  0  0  0  0  0
  188.2610  178.3500  141.3570 C   0  0  0  0  0  0  0  0  0  0  0  0
  190.4500  177.2880  139.8230 C   0  0  0  0  0  3  0  0  0  0  0  0
  189.2160  177.6050  139.2470 C   0  0  0  0  0  0  0  0  0  0  0  0
  188.1690  178.1140  139.9790 C   0  0  0  0  0  0  0  0  0  0  0  0
  191.6100  177.3150  141.9670 C   0  0  0  0  0  2  0  0  0  0  0  0
  188.7960  177.4910  137.9420 C   0  0  0  0  0  3  0  0  0  0  0  0
  187.1410  178.3160  139.2010 O   0  0  0  0  0  0  0  0  0  0  0  0
  187.4770  177.9560  137.9740 C   0  0  0  0  0  3  0  0  0  0  0  0
  191.7600  175.5000  143.9130 O   0  0  0  0  0  0  0  0  0  0  0  0
  191.2740  176.5950  144.3050 C   0  0  0  0  0  0  0  0  0  0  0  0
  191.5480  176.6580  146.6760 C   0  0  0  0  0  2  0  0  0  0  0  0
  190.7780  176.7380  145.6410 N   0  0  0  0  0  0  0  0  0  0  0  0
  187.1550  178.8610  142.0510 O   0  0  0  0  0  0  0  0  0  0  0  0
  185.9560  178.1340  142.3010 C   0  0  0  0  0  2  0  0  0  0  0  0
  184.8540  179.0660  142.7900 C   0  0  0  0  0  2  0  0  0  0  0  0
  184.3140  178.6220  144.1400 C   0  0  0  0  0  2  0  0  0  0  0  0
  185.0810  179.2900  145.2700 C   0  0  0  0  0  2  0  0  0  0  0  0
  185.5900  178.2480  146.2540 C   0  0  0  0  0  2  0  0  0  0  0  0
  187.0940  178.0590  146.1260 C   0  0  1  0  0  3  0  0  0  0  0  0
  187.7030  177.6980  147.4680 C   0  0  0  0  0  1  0  0  0  0  0  0
  187.3630  176.9920  145.1800 N   0  0  0  0  0  1  0  0  0  0  0  0
  1  2  1  0  0  0  0
  2  3  1  0  0  0  0
  3 14  1  1  0  0  0
  4  1  2  0  0  0  0
  4  9  1  0  0  0  0
  5  1  1  0  0  0  0
  5 17  1  0  0  0  0
  6  4  1  0  0  0  0
  7  6  2  0  0  0  0
  7  8  1  0  0  0  0
  8  5  2  0  0  0  0
  9  3  1  0  0  0  0
 10 12  2  0  0  0  0
 10  7  1  0  0  0  0
 11  8  1  0  0  0  0
 12 11  1  0  0  0  0
 13 14  2  0  0  0  0
 14 16  1  0  0  0  0
 16 15  2  0  0  0  0
 17 18  1  0  0  0  0
 18 19  1  0  0  0  0
 19 20  1  0  0  0  0
 20 21  1  0  0  0  0
 21 22  1  0  0  0  0
 23 22  1  0  0  0  0
 23 24  1  1  0  0  0
 25 23  1  0  0  0  0
M  END
>  <MODEL>
5

>  <REMARK>
 VINA RESULT:      -7.1      2.490      5.883
  Name = 
  9 active torsions:
  status: ('A' for Active; 'I' for Inactive)
    1  A    between atoms: C_2  and  C_5
    2  A    between atoms: C_4  and  C_13
    3  A    between atoms: C_4  and  C_23
    4  A    between atoms: C_5  and  C_10
    5  A    between atoms: C_7  and  C_8
    6  A    between atoms: C_8  and  N_12
    7  A    between atoms: C_10  and  C_23
    8  A    between atoms: C_13  and  O_16
    9  A    between atoms: C_14  and  O_16
                            x       y       z     vdW  Elec       q    Type
                         _______ _______ _______ _____ _____    ______ ____

>  <TORSDO>
F 9

$$$$
=
 OpenBabel11032419213D

 25 27  0  0  1  0  0  0  0  0999 V2000
  184.8520  178.3020  142.8280 C   0  0  0  0  0  0  0  0  0  0  0  0
  184.6290  178.2660  141.5590 N   0  0  0  0  0  2  0  0  0  0  0  0
  183.2760  178.7750  141.3370 C   0  0  2  0  0  3  0  0  0  0  0  0
  183.7720  178.7990  143.5380 C   0  0  0  0  0  0  0  0  0  0  0  0
  186.0420  177.8970  143.4800 C   0  0  0  0  0  0  0  0  0  0  0  0
  183.7900  178.9390  144.9340 C   0  0  0  0  0  3  0  0  0  0  0  0
  184.9730  178.5450  145.5670 C   0  0  0  0  0  0  0  0  0  0  0  0
  186.0510  178.0480  144.8730 C   0  0  0  0  0  0  0  0  0  0  0  0
  182.7820  179.1020  142.7200 C   0  0  0  0  0  2  0  0  0  0  0  0
  185.3060  178.5570  146.9020 C   0  0  0  0  0  3  0  0  0  0  0  0
  187.0160  177.7580  145.7020 O   0  0  0  0  0  0  0  0  0  0  0  0
  186.6090  178.0480  146.9260 C   0  0  0  0  0  3  0  0  0  0  0  0
  182.9690  176.8160  140.0240 O   0  0  0  0  0  0  0  0  0  0  0  0
  182.4210  177.7240  140.7040 C   0  0  0  0  0  0  0  0  0  0  0  0
  180.1910  177.7150  139.8490 C   0  0  0  0  0  2  0  0  0  0  0  0
  180.9980  177.7650  140.8580 N   0  0  0  0  0  0  0  0  0  0  0  0
  187.1700  177.3750  142.8300 O   0  0  0  0  0  0  0  0  0  0  0  0
  188.2130  178.1660  142.2700 C   0  0  0  0  0  2  0  0  0  0  0  0
  189.5500  177.4400  142.3660 C   0  0  0  0  0  2  0  0  0  0  0  0
  190.5090  178.1710  143.2920 C   0  0  0  0  0  2  0  0  0  0  0  0
  190.3160  177.7170  144.7290 C   0  0  0  0  0  2  0  0  0  0  0  0
  191.5620  177.0070  145.2340 C   0  0  0  0  0  2  0  0  0  0  0  0
  191.5100  176.8100  146.7420 C   0  0  1  0  0  3  0  0  0  0  0  0
  190.0730  176.7650  147.2260 C   0  0  0  0  0  1  0  0  0  0  0  0
  192.1660  175.5610  147.0840 N   0  0  0  0  0  1  0  0  0  0  0  0
  1  5  2  0  0  0  0
  1  4  1  0  0  0  0
  2  1  1  0  0  0  0
  3 14  1  1  0  0  0
  3  2  1  0  0  0  0
  3  9  1  0  0  0  0
  4  6  2  0  0  0  0
  5  8  1  0  0  0  0
  6  7  1  0  0  0  0
  7 10  1  0  0  0  0
  8  7  2  0  0  0  0
  8 11  1  0  0  0  0
  9  4  1  0  0  0  0
 10 12  2  0  0  0  0
 11 12  1  0  0  0  0
 13 14  2  0  0  0  0
 14 16  1  0  0  0  0
 15 16  2  0  0  0  0
 17  5  1  0  0  0  0
 18 19  1  0  0  0  0
 18 17  1  0  0  0  0
 19 20  1  0  0  0  0
 20 21  1  0  0  0  0
 21 22  1  0  0  0  0
 22 23  1  0  0  0  0
 23 25  1  0  0  0  0
 23 24  1  6  0  0  0
M  END
>  <MODEL>
6

>  <REMARK>
 VINA RESULT:      -7.1      2.400      6.741
  Name = 
  9 active torsions:
  status: ('A' for Active; 'I' for Inactive)
    1  A    between atoms: C_2  and  C_5
    2  A    between atoms: C_4  and  C_13
    3  A    between atoms: C_4  and  C_23
    4  A    between atoms: C_5  and  C_10
    5  A    between atoms: C_7  and  C_8
    6  A    between atoms: C_8  and  N_12
    7  A    between atoms: C_10  and  C_23
    8  A    between atoms: C_13  and  O_16
    9  A    between atoms: C_14  and  O_16
                            x       y       z     vdW  Elec       q    Type
                         _______ _______ _______ _____ _____    ______ ____

>  <TORSDO>
F 9

$$$$
=
 OpenBabel11032419213D

 25 27  0  0  1  0  0  0  0  0999 V2000
  187.5430  177.4480  144.4530 C   0  0  0  0  0  0  0  0  0  0  0  0
  188.7020  176.9000  144.3190 N   0  0  0  0  0  2  0  0  0  0  0  0
  189.2380  176.6750  145.6620 C   0  0  2  0  0  3  0  0  0  0  0  0
  187.1990  177.6330  145.7820 C   0  0  0  0  0  0  0  0  0  0  0  0
  186.6760  177.8360  143.4040 C   0  0  0  0  0  0  0  0  0  0  0  0
  185.9780  178.2060  146.1690 C   0  0  0  0  0  3  0  0  0  0  0  0
  185.1250  178.5760  145.1260 C   0  0  0  0  0  0  0  0  0  0  0  0
  185.4560  178.3990  143.8030 C   0  0  0  0  0  0  0  0  0  0  0  0
  188.1640  177.2020  146.5730 C   0  0  0  0  0  2  0  0  0  0  0  0
  183.8760  179.1530  145.1690 C   0  0  0  0  0  3  0  0  0  0  0  0
  184.4880  178.8310  143.0420 O   0  0  0  0  0  0  0  0  0  0  0  0
  183.5240  179.2900  143.8220 C   0  0  0  0  0  3  0  0  0  0  0  0
  190.8160  178.3350  145.0180 O   0  0  0  0  0  0  0  0  0  0  0  0
  190.5120  177.4370  145.8470 C   0  0  0  0  0  0  0  0  0  0  0  0
  192.0570  176.0370  147.0110 C   0  0  0  0  0  2  0  0  0  0  0  0
  191.3770  177.1350  146.9480 N   0  0  0  0  0  0  0  0  0  0  0  0
  186.9600  177.6900  142.0380 O   0  0  0  0  0  0  0  0  0  0  0  0
  187.6990  178.6300  141.2650 C   0  0  0  0  0  2  0  0  0  0  0  0
  188.6140  177.9150  140.2780 C   0  0  0  0  0  2  0  0  0  0  0  0
  189.8640  177.3900  140.9650 C   0  0  0  0  0  2  0  0  0  0  0  0
  190.9650  177.1300  139.9490 C   0  0  0  0  0  2  0  0  0  0  0  0
  190.3730  176.6190  138.6450 C   0  0  0  0  0  2  0  0  0  0  0  0
  191.4320  175.9440  137.7870 C   0  0  1  0  0  3  0  0  0  0  0  0
  192.8220  176.3820  138.2110 C   0  0  0  0  0  1  0  0  0  0  0  0
  191.3220  174.5040  137.9350 N   0  0  0  0  0  1  0  0  0  0  0  0
  1  4  1  0  0  0  0
  2  1  1  0  0  0  0
  2  3  1  0  0  0  0
  3 14  1  6  0  0  0
  3  9  1  0  0  0  0
  4  6  2  0  0  0  0
  4  9  1  0  0  0  0
  5  8  1  0  0  0  0
  5  1  2  0  0  0  0
  7 10  1  0  0  0  0
  7  6  1  0  0  0  0
  8  7  2  0  0  0  0
 11  8  1  0  0  0  0
 11 12  1  0  0  0  0
 12 10  2  0  0  0  0
 13 14  2  0  0  0  0
 14 16  1  0  0  0  0
 16 15  2  0  0  0  0
 17  5  1  0  0  0  0
 18 17  1  0  0  0  0
 19 20  1  0  0  0  0
 19 18  1  0  0  0  0
 21 20  1  0  0  0  0
 22 21  1  0  0  0  0
 23 25  1  0  0  0  0
 23 24  1  1  0  0  0
 23 22  1  0  0  0  0
M  END
>  <MODEL>
7

>  <REMARK>
 VINA RESULT:      -7.1      2.493      5.831
  Name = 
  9 active torsions:
  status: ('A' for Active; 'I' for Inactive)
    1  A    between atoms: C_2  and  C_5
    2  A    between atoms: C_4  and  C_13
    3  A    between atoms: C_4  and  C_23
    4  A    between atoms: C_5  and  C_10
    5  A    between atoms: C_7  and  C_8
    6  A    between atoms: C_8  and  N_12
    7  A    between atoms: C_10  and  C_23
    8  A    between atoms: C_13  and  O_16
    9  A    between atoms: C_14  and  O_16
                            x       y       z     vdW  Elec       q    Type
                         _______ _______ _______ _____ _____    ______ ____

>  <TORSDO>
F 9

$$$$
=
 OpenBabel11032419213D

 25 27  0  0  1  0  0  0  0  0999 V2000
  187.6080  177.4070  144.6220 C   0  0  0  0  0  0  0  0  0  0  0  0
  188.7560  176.8960  144.3360 N   0  0  0  0  0  2  0  0  0  0  0  0
  189.4810  176.7150  145.5940 C   0  0  2  0  0  3  0  0  0  0  0  0
  187.4450  177.6060  145.9830 C   0  0  0  0  0  0  0  0  0  0  0  0
  186.5900  177.7470  143.6980 C   0  0  0  0  0  0  0  0  0  0  0  0
  186.2700  178.1450  146.5280 C   0  0  0  0  0  3  0  0  0  0  0  0
  185.2680  178.4680  145.6080 C   0  0  0  0  0  0  0  0  0  0  0  0
  185.4180  178.2760  144.2560 C   0  0  0  0  0  0  0  0  0  0  0  0
  188.5240  177.2230  146.6380 C   0  0  0  0  0  2  0  0  0  0  0  0
  184.0170  179.0030  145.8170 C   0  0  0  0  0  3  0  0  0  0  0  0
  184.3400  178.6620  143.6300 O   0  0  0  0  0  0  0  0  0  0  0  0
  183.4770  179.1020  144.5310 C   0  0  0  0  0  3  0  0  0  0  0  0
  191.6910  177.1780  146.3400 O   0  0  0  0  0  0  0  0  0  0  0  0
  190.7390  177.5220  145.5900 C   0  0  0  0  0  0  0  0  0  0  0  0
  191.6780  178.7400  143.7620 C   0  0  0  0  0  2  0  0  0  0  0  0
  190.8490  178.6800  144.7530 N   0  0  0  0  0  0  0  0  0  0  0  0
  186.6870  177.5850  142.3080 O   0  0  0  0  0  0  0  0  0  0  0  0
  187.0680  178.6160  141.4030 C   0  0  0  0  0  2  0  0  0  0  0  0
  188.5790  178.6280  141.2050 C   0  0  0  0  0  2  0  0  0  0  0  0
  189.1040  177.2390  140.8830 C   0  0  0  0  0  2  0  0  0  0  0  0
  189.7610  177.2190  139.5120 C   0  0  0  0  0  2  0  0  0  0  0  0
  188.7130  177.0490  138.4240 C   0  0  0  0  0  2  0  0  0  0  0  0
  188.4950  178.3480  137.6620 C   0  0  1  0  0  3  0  0  0  0  0  0
  189.0540  178.2420  136.2550 C   0  0  0  0  0  1  0  0  0  0  0  0
  187.0730  178.6280  137.5890 N   0  0  0  0  0  1  0  0  0  0  0  0
  1  4  1  0  0  0  0
  2  1  1  0  0  0  0
  2  3  1  0  0  0  0
  3 14  1  6  0  0  0
  3  9  1  0  0  0  0
  4  6  2  0  0  0  0
  4  9  1  0  0  0  0
  5  8  1  0  0  0  0
  5  1  2  0  0  0  0
  7 10  1  0  0  0  0
  7  6  1  0  0  0  0
  8  7  2  0  0  0  0
 11  8  1  0  0  0  0
 11 12  1  0  0  0  0
 12 10  2  0  0  0  0
 14 13  2  0  0  0  0
 15 16  2  0  0  0  0
 16 14  1  0  0  0  0
 17  5  1  0  0  0  0
 18 17  1  0  0  0  0
 19 18  1  0  0  0  0
 20 19  1  0  0  0  0
 21 20  1  0  0  0  0
 22 21  1  0  0  0  0
 23 24  1  6  0  0  0
 23 22  1  0  0  0  0
 25 23  1  0  0  0  0
M  END
>  <MODEL>
8

>  <REMARK>
 VINA RESULT:      -7.0      2.349      4.737
  Name = 
  9 active torsions:
  status: ('A' for Active; 'I' for Inactive)
    1  A    between atoms: C_2  and  C_5
    2  A    between atoms: C_4  and  C_13
    3  A    between atoms: C_4  and  C_23
    4  A    between atoms: C_5  and  C_10
    5  A    between atoms: C_7  and  C_8
    6  A    between atoms: C_8  and  N_12
    7  A    between atoms: C_10  and  C_23
    8  A    between atoms: C_13  and  O_16
    9  A    between atoms: C_14  and  O_16
                            x       y       z     vdW  Elec       q    Type
                         _______ _______ _______ _____ _____    ______ ____

>  <TORSDO>
F 9

$$$$
=
 OpenBabel11032419213D

 25 27  0  0  1  0  0  0  0  0999 V2000
  189.9540  176.8570  140.7690 C   0  0  0  0  0  0  0  0  0  0  0  0
  191.0510  176.3860  140.2840 N   0  0  0  0  0  2  0  0  0  0  0  0
  191.1450  176.8370  138.8960 C   0  0  2  0  0  3  0  0  0  0  0  0
  189.2520  177.6130  139.8450 C   0  0  0  0  0  0  0  0  0  0  0  0
  189.4690  176.6610  142.0850 C   0  0  0  0  0  0  0  0  0  0  0  0
  188.0310  178.2330  140.1540 C   0  0  0  0  0  3  0  0  0  0  0  0
  187.5670  178.0410  141.4580 C   0  0  0  0  0  0  0  0  0  0  0  0
  188.2540  177.2910  142.3830 C   0  0  0  0  0  0  0  0  0  0  0  0
  189.8940  177.6470  138.6930 C   0  0  0  0  0  2  0  0  0  0  0  0
  186.4230  178.5080  142.0660 C   0  0  0  0  0  3  0  0  0  0  0  0
  187.6000  177.2730  143.5130 O   0  0  0  0  0  0  0  0  0  0  0  0
  186.4990  177.9910  143.3630 C   0  0  0  0  0  3  0  0  0  0  0  0
  190.1610  174.9170  137.8930 O   0  0  0  0  0  0  0  0  0  0  0  0
  191.1730  175.6640  137.9680 C   0  0  0  0  0  0  0  0  0  0  0  0
  193.2990  176.2510  137.0520 C   0  0  0  0  0  2  0  0  0  0  0  0
  192.3440  175.3900  137.1900 N   0  0  0  0  0  0  0  0  0  0  0  0
  190.1180  175.9010  143.0700 O   0  0  0  0  0  0  0  0  0  0  0  0
  191.3560  176.2590  143.6760 C   0  0  0  0  0  2  0  0  0  0  0  0
  191.1300  177.2370  144.8230 C   0  0  0  0  0  2  0  0  0  0  0  0
  191.4870  176.6110  146.1610 C   0  0  0  0  0  2  0  0  0  0  0  0
  190.3860  176.8580  147.1790 C   0  0  0  0  0  2  0  0  0  0  0  0
  189.0890  177.2290  146.4780 C   0  0  0  0  0  2  0  0  0  0  0  0
  187.9440  177.3600  147.4710 C   0  0  1  0  0  3  0  0  0  0  0  0
  188.4180  178.0280  148.7480 C   0  0  0  0  0  1  0  0  0  0  0  0
  186.8870  178.1600  146.8810 N   0  0  0  0  0  1  0  0  0  0  0  0
  1  5  1  0  0  0  0
  2  1  1  0  0  0  0
  3 14  1  6  0  0  0
  3  2  1  0  0  0  0
  4  6  1  0  0  0  0
  4  1  2  0  0  0  0
  5  8  2  0  0  0  0
  5 17  1  0  0  0  0
  6  7  2  0  0  0  0
  7 10  1  0  0  0  0
  7  8  1  0  0  0  0
  8 11  1  0  0  0  0
  9  3  1  0  0  0  0
  9  4  1  0  0  0  0
 10 12  2  0  0  0  0
 12 11  1  0  0  0  0
 13 14  2  0  0  0  0
 15 16  2  0  0  0  0
 16 14  1  0  0  0  0
 17 18  1  0  0  0  0
 18 19  1  0  0  0  0
 19 20  1  0  0  0  0
 20 21  1  0  0  0  0
 22 21  1  0  0  0  0
 22 23  1  0  0  0  0
 23 24  1  1  0  0  0
 25 23  1  0  0  0  0
M  END
>  <MODEL>
9

>  <REMARK>
 VINA RESULT:      -7.0      2.770      6.235
  Name = 
  9 active torsions:
  status: ('A' for Active; 'I' for Inactive)
    1  A    between atoms: C_2  and  C_5
    2  A    between atoms: C_4  and  C_13
    3  A    between atoms: C_4  and  C_23
    4  A    between atoms: C_5  and  C_10
    5  A    between atoms: C_7  and  C_8
    6  A    between atoms: C_8  and  N_12
    7  A    between atoms: C_10  and  C_23
    8  A    between atoms: C_13  and  O_16
    9  A    between atoms: C_14  and  O_16
                            x       y       z     vdW  Elec       q    Type
                         _______ _______ _______ _____ _____    ______ ____

>  <TORSDO>
F 9

$$$$
