=
 OpenBabel11032420343D

 69 77  0  0  1  0  0  0  0  0999 V2000
  189.6300  176.4660  139.7560 C   0  0  2  0  0  3  0  0  0  0  0  0
  184.0790  179.5360  139.3260 C   0  0  0  0  0  2  0  0  0  0  0  0
  187.0090  179.1370  141.0730 S   0  0  0  0  0  0  0  0  0  0  0  0
  188.4070  177.2830  140.0360 C   0  0  0  0  0  0  0  0  0  0  0  0
  187.2340  177.3450  139.2820 C   0  0  0  0  0  0  0  0  0  0  0  0
  188.4220  178.2110  141.0600 C   0  0  0  0  0  0  0  0  0  0  0  0
  185.6620  176.7570  137.5240 C   0  0  0  0  0  3  0  0  0  0  0  0
  186.8980  176.5420  138.1750 C   0  0  0  0  0  3  0  0  0  0  0  0
  185.1560  178.5460  139.0860 C   0  0  0  0  0  0  0  0  0  0  0  0
  186.3620  178.3370  139.7350 C   0  0  0  0  0  0  0  0  0  0  0  0
  181.9070  179.8060  137.9650 N   0  0  0  0  0  2  0  0  0  0  0  0
  184.8170  177.7670  138.0070 C   0  0  0  0  0  0  0  0  0  0  0  0
  190.4900  176.4470  140.9100 O   0  0  0  0  0  0  0  0  0  0  0  0
  190.4740  177.4310  141.9180 C   0  0  0  0  0  0  0  0  0  0  0  0
  183.1430  179.1330  138.2140 C   0  0  0  0  0  0  0  0  0  0  0  0
  183.5580  178.1400  137.4830 N   0  0  0  0  0  0  0  0  0  0  0  0
  189.4930  178.2850  141.9990 N   0  0  0  0  0  0  0  0  0  0  0  0
  180.9570  179.3590  136.9530 C   0  0  2  0  0  3  0  0  0  0  0  0
  180.3660  180.5710  136.2430 C   0  0  0  0  0  1  0  0  0  0  0  0
  179.9090  176.8530  139.4000 C   0  0  0  0  0  2  0  0  0  0  0  0
  179.8470  177.0630  137.0020 C   0  0  0  0  0  2  0  0  0  0  0  0
  180.2680  176.1270  138.1190 C   0  0  0  0  0  2  0  0  0  0  0  0
  180.0970  178.3240  139.0940 C   0  0  0  0  0  2  0  0  0  0  0  0
  179.8810  178.4700  137.5940 C   0  0  0  0  0  3  0  0  0  0  0  0
  191.5700  177.4730  142.9270 C   0  0  0  0  0  2  0  0  0  0  0  0
  191.3300  178.6140  143.8990 C   0  0  0  0  0  2  0  0  0  0  0  0
  191.6520  178.1460  145.3110 C   0  0  0  0  0  2  0  0  0  0  0  0
  191.3190  176.6670  145.4710 C   0  0  0  0  0  2  0  0  0  0  0  0
  190.8790  176.3370  146.8910 C   0  0  0  0  0  2  0  0  0  0  0  0
  189.9820  177.3690  147.3850 N   0  0  0  0  0  2  0  0  0  0  0  0
  188.6880  176.7400  147.6070 C   0  0  0  0  0  2  0  0  0  0  0  0
  187.9220  178.9370  148.1460 O   0  0  0  0  0  1  0  0  0  0  0  0
  187.5630  177.7620  147.4780 C   0  0  1  0  0  3  0  0  0  0  0  0
  187.2450  178.0540  146.0080 C   0  0  2  0  0  3  0  0  0  0  0  0
  185.6130  179.4110  147.1410 O   0  0  0  0  0  1  0  0  0  0  0  0
  186.0410  178.9920  145.8760 C   0  0  2  0  0  3  0  0  0  0  0  0
  183.5710  178.9320  145.4990 C   0  0  0  0  0  2  0  0  0  0  0  0
  183.0180  179.5640  144.3150 N   0  0  0  0  0  0  0  0  0  0  0  0
  185.0620  178.5070  143.6870 N   0  0  0  0  0  2  0  0  0  0  0  0
  181.9190  178.7220  143.8650 C   0  0  0  0  0  1  0  0  0  0  0  0
  184.9000  178.3160  145.1190 C   0  0  1  0  0  3  0  0  0  0  0  0
  184.0600  179.4960  143.2970 C   0  0  0  0  0  2  0  0  0  0  0  0
  187.8960  176.8370  144.3560 O   0  0  0  0  0  1  0  0  0  0  0  0
  186.9980  176.8610  145.3200 O   0  0  0  0  0  0  0  0  0  0  0  0
  190.3630  177.0940  138.5740 C   0  0  0  0  0  2  0  0  0  0  0  0
  194.2870  175.2520  137.3200 C   0  0  1  0  0  3  0  0  0  0  0  0
  193.8060  176.5960  136.8000 C   0  0  0  0  0  2  0  0  0  0  0  0
  190.3080  175.6590  135.0230 C   0  0  0  0  0  2  0  0  0  0  0  0
  190.7270  176.1140  137.4650 C   0  0  1  0  0  3  0  0  0  0  0  0
  192.8750  175.3990  136.7500 C   0  0  1  0  0  0  0  0  0  0  0  0
  190.6130  176.7360  136.0680 C   0  0  0  0  0  2  0  0  0  0  0  0
  191.1970  174.4870  135.0520 N   0  0  0  0  0  0  0  0  0  0  0  0
  192.6070  174.7810  135.3540 C   0  0  0  0  0  2  0  0  0  0  0  0
  191.8930  175.3510  137.7690 O   0  0  0  0  0  0  0  0  0  0  0  0
  190.6710  173.4550  135.9330 C   0  0  0  0  0  2  0  0  0  0  0  0
  188.9500  172.5210  134.5940 O   0  0  0  0  0  0  0  0  0  0  0  0
  188.2280  173.7160  136.4850 N   0  0  0  0  0  2  0  0  0  0  0  0
  189.2420  173.2110  135.6060 C   0  0  0  0  0  0  0  0  0  0  0  0
  186.1900  172.9240  137.5590 C   0  0  0  0  0  3  0  0  0  0  0  0
  184.7200  173.3020  135.2150 C   0  0  0  0  0  3  0  0  0  0  0  0
  184.8300  172.6070  137.5280 C   0  0  0  0  0  3  0  0  0  0  0  0
  186.0820  173.6120  135.2450 C   0  0  0  0  0  3  0  0  0  0  0  0
  186.8260  173.4250  136.4200 C   0  0  0  0  0  0  0  0  0  0  0  0
  184.0960  172.7980  136.3560 C   0  0  0  0  0  3  0  0  0  0  0  0
  195.2870  174.6670  136.3330 C   0  0  0  0  0  2  0  0  0  0  0  0
  196.6120  175.1990  136.6060 N   0  0  0  0  0  2  0  0  0  0  0  0
  196.7720  173.9560  138.7070 O   0  0  0  0  0  1  0  0  0  0  0  0
  198.5170  175.2340  137.9380 O   0  0  0  0  0  0  0  0  0  0  0  0
  197.3440  174.8070  137.7650 C   0  0  0  0  0  0  0  0  0  0  0  0
  1 45  1  6  0  0  0
  1  4  1  0  0  0  0
  1 13  1  0  0  0  0
  4  6  2  0  0  0  0
  5 10  1  0  0  0  0
  5  4  1  0  0  0  0
  6  3  1  0  0  0  0
  6 17  1  0  0  0  0
  7 12  2  0  0  0  0
  7  8  1  0  0  0  0
  8  5  2  0  0  0  0
  9  2  1  0  0  0  0
  9 10  2  0  0  0  0
 10  3  1  0  0  0  0
 11 15  1  0  0  0  0
 12  9  1  0  0  0  0
 13 14  1  0  0  0  0
 14 17  2  0  0  0  0
 14 25  1  0  0  0  0
 15  2  1  0  0  0  0
 16 12  1  0  0  0  0
 16 15  2  0  0  0  0
 18 19  1  1  0  0  0
 18 24  1  0  0  0  0
 18 11  1  0  0  0  0
 21 24  1  0  0  0  0
 21 22  1  0  0  0  0
 22 20  1  0  0  0  0
 23 20  1  0  0  0  0
 24 23  1  0  0  0  0
 25 26  1  0  0  0  0
 26 27  1  0  0  0  0
 27 28  1  0  0  0  0
 28 29  1  0  0  0  0
 29 30  1  0  0  0  0
 30 31  1  0  0  0  0
 33 31  1  0  0  0  0
 33 32  1  1  0  0  0
 34 44  1  6  0  0  0
 34 33  1  0  0  0  0
 36 34  1  0  0  0  0
 36 35  1  1  0  0  0
 38 37  1  0  0  0  0
 39 41  1  0  0  0  0
 40 38  1  0  0  0  0
 41 37  1  0  0  0  0
 41 36  1  1  0  0  0
 42 39  1  0  0  0  0
 42 38  1  0  0  0  0
 43 44  1  0  0  0  0
 46 65  1  6  0  0  0
 47 46  1  0  0  0  0
 48 52  1  0  0  0  0
 48 51  1  0  0  0  0
 49 54  1  0  0  0  0
 49 45  1  1  0  0  0
 50 53  1  6  0  0  0
 50 47  1  0  0  0  0
 50 46  1  0  0  0  0
 50 54  1  0  0  0  0
 51 49  1  0  0  0  0
 52 53  1  0  0  0  0
 52 55  1  0  0  0  0
 56 58  2  0  0  0  0
 58 55  1  0  0  0  0
 58 57  1  0  0  0  0
 60 62  2  0  0  0  0
 60 64  1  0  0  0  0
 61 59  1  0  0  0  0
 62 63  1  0  0  0  0
 63 57  1  0  0  0  0
 63 59  2  0  0  0  0
 64 61  2  0  0  0  0
 65 66  1  0  0  0  0
 66 69  1  0  0  0  0
 69 68  2  0  0  0  0
 69 67  1  0  0  0  0
M  END
>  <MODEL>
1

>  <REMARK>
 VINA RESULT:      -6.8      0.000      0.000
  Name = 
  21 active torsions:
  status: ('A' for Active; 'I' for Inactive)
    1  A    between atoms: C_1  and  C_32
    2  A    between atoms: C_2  and  C_8
    3  A    between atoms: C_8  and  N_16
    4  A    between atoms: C_12  and  C_35
    5  A    between atoms: C_12  and  O_58
    6  A    between atoms: C_12  and  C_61
    7  A    between atoms: C_15  and  C_32
    8  A    between atoms: N_25  and  C_49
    9  A    between atoms: C_28  and  N_50
   10  A    between atoms: C_28  and  C_52
   11  A    between atoms: C_29  and  N_46
   12  A    between atoms: C_29  and  C_61
   13  A    between atoms: C_33  and  N_44
   14  A    between atoms: C_33  and  C_67
   15  A    between atoms: C_34  and  C_40
   16  A    between atoms: C_34  and  N_46
   17  A    between atoms: C_35  and  C_59
   18  A    between atoms: C_40  and  C_56
   19  A    between atoms: C_55  and  C_62
   20  A    between atoms: C_56  and  C_69
   21  A    between atoms: C_62  and  C_69
                            x       y       z     vdW  Elec       q    Type
                         _______ _______ _______ _____ _____    ______ ____

>  <TORSDO>
F 21

$$$$
=
 OpenBabel11032420343D

 69 77  0  0  1  0  0  0  0  0999 V2000
  190.7480  176.3400  137.6970 C   0  0  2  0  0  3  0  0  0  0  0  0
  191.5220  177.8330  143.8290 C   0  0  0  0  0  2  0  0  0  0  0  0
  193.0160  177.4360  140.7620 S   0  0  0  0  0  0  0  0  0  0  0  0
  191.3160  176.6270  139.0520 C   0  0  0  0  0  0  0  0  0  0  0  0
  190.6260  176.7240  140.2610 C   0  0  0  0  0  0  0  0  0  0  0  0
  192.6450  176.9840  139.1770 C   0  0  0  0  0  0  0  0  0  0  0  0
  188.7340  176.6020  141.7820 C   0  0  0  0  0  3  0  0  0  0  0  0
  189.2670  176.4320  140.4840 C   0  0  0  0  0  3  0  0  0  0  0  0
  190.9070  177.3430  142.5720 C   0  0  0  0  0  0  0  0  0  0  0  0
  191.4390  177.1720  141.3040 C   0  0  0  0  0  0  0  0  0  0  0  0
  190.3440  178.1320  146.1010 N   0  0  0  0  0  2  0  0  0  0  0  0
  189.5840  177.0590  142.8010 C   0  0  0  0  0  0  0  0  0  0  0  0
  191.8040  176.0280  136.7710 O   0  0  0  0  0  0  0  0  0  0  0  0
  193.1430  176.4340  136.9400 C   0  0  0  0  0  0  0  0  0  0  0  0
  190.3130  177.7420  144.7270 C   0  0  0  0  0  0  0  0  0  0  0  0
  189.2330  177.3040  144.1490 N   0  0  0  0  0  0  0  0  0  0  0  0
  193.5580  176.8990  138.0850 N   0  0  0  0  0  0  0  0  0  0  0  0
  189.2040  177.9570  146.9950 C   0  0  2  0  0  3  0  0  0  0  0  0
  189.0540  176.4800  147.3410 C   0  0  0  0  0  1  0  0  0  0  0  0
  185.6890  178.9450  147.1730 C   0  0  0  0  0  2  0  0  0  0  0  0
  187.0060  177.4710  145.7970 C   0  0  0  0  0  2  0  0  0  0  0  0
  185.7450  177.5280  146.6390 C   0  0  0  0  0  2  0  0  0  0  0  0
  187.1330  179.3600  147.3610 C   0  0  0  0  0  2  0  0  0  0  0  0
  187.9360  178.5440  146.3570 C   0  0  0  0  0  3  0  0  0  0  0  0
  194.1050  176.2950  135.8100 C   0  0  0  0  0  2  0  0  0  0  0  0
  193.4650  175.5020  134.6850 C   0  0  0  0  0  2  0  0  0  0  0  0
  193.9330  174.0560  134.7600 C   0  0  0  0  0  2  0  0  0  0  0  0
  192.7420  173.1170  134.9090 C   0  0  0  0  0  2  0  0  0  0  0  0
  193.1800  171.6930  135.2220 C   0  0  0  0  0  2  0  0  0  0  0  0
  194.5880  171.5250  134.9010 N   0  0  0  0  0  2  0  0  0  0  0  0
  195.1770  170.7250  135.9650 C   0  0  0  0  0  2  0  0  0  0  0  0
  195.1030  170.8050  138.3510 O   0  0  0  0  0  1  0  0  0  0  0  0
  195.3950  171.5690  137.2170 C   0  0  1  0  0  3  0  0  0  0  0  0
  196.8280  172.1070  137.2810 C   0  0  2  0  0  3  0  0  0  0  0  0
  198.1860  173.5810  135.9520 O   0  0  0  0  0  1  0  0  0  0  0  0
  196.9430  173.4650  136.5840 C   0  0  2  0  0  3  0  0  0  0  0  0
  196.4290  174.0690  138.9540 C   0  0  0  0  0  2  0  0  0  0  0  0
  197.5110  174.4610  139.8380 N   0  0  0  0  0  0  0  0  0  0  0  0
  197.9490  175.4020  137.6900 N   0  0  0  0  0  2  0  0  0  0  0  0
  196.9900  175.5180  140.6940 C   0  0  0  0  0  1  0  0  0  0  0  0
  196.7360  174.6100  137.5750 C   0  0  1  0  0  3  0  0  0  0  0  0
  198.5310  175.0600  138.9850 C   0  0  0  0  0  2  0  0  0  0  0  0
  198.7070  171.0940  137.5600 O   0  0  0  0  0  1  0  0  0  0  0  0
  197.7140  171.1930  136.7000 O   0  0  0  0  0  0  0  0  0  0  0  0
  189.9940  177.5800  137.2240 C   0  0  0  0  0  2  0  0  0  0  0  0
  187.6440  173.8690  136.1900 C   0  0  1  0  0  3  0  0  0  0  0  0
  188.3280  174.7290  135.1400 C   0  0  0  0  0  2  0  0  0  0  0  0
  186.5780  178.3260  135.6610 C   0  0  0  0  0  2  0  0  0  0  0  0
  188.5140  177.3490  136.9430 C   0  0  1  0  0  3  0  0  0  0  0  0
  187.4300  175.3840  136.1720 C   0  0  1  0  0  0  0  0  0  0  0  0
  188.0650  177.9630  135.6120 C   0  0  0  0  0  2  0  0  0  0  0  0
  185.6850  177.2510  136.1210 N   0  0  0  0  0  0  0  0  0  0  0  0
  186.0540  175.8980  135.6750 C   0  0  0  0  0  2  0  0  0  0  0  0
  188.1000  176.0180  137.2460 O   0  0  0  0  0  0  0  0  0  0  0  0
  185.5090  177.3010  137.5660 C   0  0  0  0  0  2  0  0  0  0  0  0
  183.1590  176.9770  137.6030 O   0  0  0  0  0  0  0  0  0  0  0  0
  183.9200  178.9960  138.5370 N   0  0  0  0  0  2  0  0  0  0  0  0
  184.1240  177.7390  137.8770 C   0  0  0  0  0  0  0  0  0  0  0  0
  182.0540  180.5580  138.4270 C   0  0  0  0  0  3  0  0  0  0  0  0
  180.8910  179.4450  140.7090 C   0  0  0  0  0  3  0  0  0  0  0  0
  180.8570  181.0770  138.9250 C   0  0  0  0  0  3  0  0  0  0  0  0
  182.0920  178.9310  140.2140 C   0  0  0  0  0  3  0  0  0  0  0  0
  182.6800  179.4850  139.0660 C   0  0  0  0  0  0  0  0  0  0  0  0
  180.2760  180.5180  140.0650 C   0  0  0  0  0  3  0  0  0  0  0  0
  186.5180  173.0840  135.5310 C   0  0  0  0  0  2  0  0  0  0  0  0
  185.7640  172.3680  136.5460 N   0  0  0  0  0  2  0  0  0  0  0  0
  183.6300  173.0520  135.5660 O   0  0  0  0  0  0  0  0  0  0  0  0
  183.7160  171.6460  137.3790 O   0  0  0  0  0  1  0  0  0  0  0  0
  184.3380  172.3330  136.5240 C   0  0  0  0  0  0  0  0  0  0  0  0
  1 45  1  6  0  0  0
  1  4  1  0  0  0  0
  2 15  1  0  0  0  0
  3 10  1  0  0  0  0
  4  6  2  0  0  0  0
  4  5  1  0  0  0  0
  5  8  2  0  0  0  0
  5 10  1  0  0  0  0
  6  3  1  0  0  0  0
  7 12  2  0  0  0  0
  8  7  1  0  0  0  0
  9 12  1  0  0  0  0
  9  2  1  0  0  0  0
 10  9  2  0  0  0  0
 11 18  1  0  0  0  0
 12 16  1  0  0  0  0
 13 14  1  0  0  0  0
 13  1  1  0  0  0  0
 14 17  2  0  0  0  0
 15 11  1  0  0  0  0
 16 15  2  0  0  0  0
 17  6  1  0  0  0  0
 18 19  1  6  0  0  0
 20 23  1  0  0  0  0
 21 24  1  0  0  0  0
 21 22  1  0  0  0  0
 22 20  1  0  0  0  0
 24 18  1  0  0  0  0
 24 23  1  0  0  0  0
 25 14  1  0  0  0  0
 26 27  1  0  0  0  0
 26 25  1  0  0  0  0
 27 28  1  0  0  0  0
 28 29  1  0  0  0  0
 30 29  1  0  0  0  0
 30 31  1  0  0  0  0
 31 33  1  0  0  0  0
 33 34  1  0  0  0  0
 33 32  1  1  0  0  0
 34 44  1  6  0  0  0
 36 35  1  1  0  0  0
 36 34  1  0  0  0  0
 37 38  1  0  0  0  0
 38 40  1  0  0  0  0
 39 42  1  0  0  0  0
 41 36  1  6  0  0  0
 41 39  1  0  0  0  0
 41 37  1  0  0  0  0
 42 38  1  0  0  0  0
 44 43  1  0  0  0  0
 46 65  1  6  0  0  0
 47 46  1  0  0  0  0
 48 52  1  0  0  0  0
 49 45  1  6  0  0  0
 49 54  1  0  0  0  0
 50 47  1  6  0  0  0
 50 46  1  0  0  0  0
 50 54  1  0  0  0  0
 51 48  1  0  0  0  0
 51 49  1  0  0  0  0
 52 55  1  0  0  0  0
 53 52  1  0  0  0  0
 53 50  1  0  0  0  0
 55 58  1  0  0  0  0
 56 58  2  0  0  0  0
 57 63  1  0  0  0  0
 58 57  1  0  0  0  0
 59 61  2  0  0  0  0
 59 63  1  0  0  0  0
 61 64  1  0  0  0  0
 62 60  1  0  0  0  0
 63 62  2  0  0  0  0
 64 60  2  0  0  0  0
 65 66  1  0  0  0  0
 67 69  2  0  0  0  0
 69 66  1  0  0  0  0
 69 68  1  0  0  0  0
M  END
>  <MODEL>
2

>  <REMARK>
 VINA RESULT:      -5.8      3.255     10.380
  Name = 
  21 active torsions:
  status: ('A' for Active; 'I' for Inactive)
    1  A    between atoms: C_1  and  C_32
    2  A    between atoms: C_2  and  C_8
    3  A    between atoms: C_8  and  N_16
    4  A    between atoms: C_12  and  C_35
    5  A    between atoms: C_12  and  O_58
    6  A    between atoms: C_12  and  C_61
    7  A    between atoms: C_15  and  C_32
    8  A    between atoms: N_25  and  C_49
    9  A    between atoms: C_28  and  N_50
   10  A    between atoms: C_28  and  C_52
   11  A    between atoms: C_29  and  N_46
   12  A    between atoms: C_29  and  C_61
   13  A    between atoms: C_33  and  N_44
   14  A    between atoms: C_33  and  C_67
   15  A    between atoms: C_34  and  C_40
   16  A    between atoms: C_34  and  N_46
   17  A    between atoms: C_35  and  C_59
   18  A    between atoms: C_40  and  C_56
   19  A    between atoms: C_55  and  C_62
   20  A    between atoms: C_56  and  C_69
   21  A    between atoms: C_62  and  C_69
                            x       y       z     vdW  Elec       q    Type
                         _______ _______ _______ _____ _____    ______ ____

>  <TORSDO>
F 21

$$$$
=
 OpenBabel11032420343D

 69 77  0  0  1  0  0  0  0  0999 V2000
  184.6730  179.0100  140.1280 C   0  0  2  0  0  3  0  0  0  0  0  0
  190.3440  176.7100  138.4030 C   0  0  0  0  0  2  0  0  0  0  0  0
  188.4110  177.9670  140.9490 S   0  0  0  0  0  0  0  0  0  0  0  0
  186.1210  178.6360  140.0680 C   0  0  0  0  0  0  0  0  0  0  0  0
  186.8360  178.1730  138.9620 C   0  0  0  0  0  0  0  0  0  0  0  0
  186.8650  178.5850  141.2320 C   0  0  0  0  0  0  0  0  0  0  0  0
  187.2450  177.5850  136.6400 C   0  0  0  0  0  3  0  0  0  0  0  0
  186.3790  178.0950  137.6330 C   0  0  0  0  0  3  0  0  0  0  0  0
  188.9670  177.2500  138.3200 C   0  0  0  0  0  0  0  0  0  0  0  0
  188.1260  177.7570  139.2980 C   0  0  0  0  0  0  0  0  0  0  0  0
  191.7420  175.7570  136.4590 N   0  0  0  0  0  2  0  0  0  0  0  0
  188.5310  177.1720  137.0200 C   0  0  0  0  0  0  0  0  0  0  0  0
  184.3910  179.7150  141.3490 O   0  0  0  0  0  0  0  0  0  0  0  0
  185.1760  179.6120  142.5150 C   0  0  0  0  0  0  0  0  0  0  0  0
  190.5420  176.3590  136.9490 C   0  0  0  0  0  0  0  0  0  0  0  0
  189.5280  176.6240  136.1800 N   0  0  0  0  0  0  0  0  0  0  0  0
  186.3600  179.0680  142.4750 N   0  0  0  0  0  0  0  0  0  0  0  0
  191.9730  175.5030  135.0420 C   0  0  2  0  0  3  0  0  0  0  0  0
  191.1290  174.3150  134.5950 C   0  0  0  0  0  1  0  0  0  0  0  0
  195.1870  173.9720  135.8680 C   0  0  0  0  0  2  0  0  0  0  0  0
  194.3540  176.2170  135.6140 C   0  0  0  0  0  2  0  0  0  0  0  0
  195.1240  175.3170  136.5630 C   0  0  0  0  0  2  0  0  0  0  0  0
  193.8960  173.8630  135.0850 C   0  0  0  0  0  2  0  0  0  0  0  0
  193.4710  175.2930  134.7790 C   0  0  0  0  0  3  0  0  0  0  0  0
  184.6640  180.1640  143.8010 C   0  0  0  0  0  2  0  0  0  0  0  0
  183.7750  179.1390  144.4830 C   0  0  0  0  0  2  0  0  0  0  0  0
  184.5510  177.8430  144.6640 C   0  0  0  0  0  2  0  0  0  0  0  0
  185.0670  177.7250  146.0930 C   0  0  0  0  0  2  0  0  0  0  0  0
  185.2320  179.0890  146.7500 C   0  0  0  0  0  2  0  0  0  0  0  0
  186.6370  179.3420  147.0230 N   0  0  0  0  0  2  0  0  0  0  0  0
  187.3230  178.0590  146.9570 C   0  0  0  0  0  2  0  0  0  0  0  0
  188.7520  178.9210  148.6650 O   0  0  0  0  0  1  0  0  0  0  0  0
  188.7510  178.1850  147.4760 C   0  0  1  0  0  3  0  0  0  0  0  0
  189.3860  176.8070  147.6940 C   0  0  2  0  0  3  0  0  0  0  0  0
  191.7580  176.9980  147.3410 O   0  0  0  0  0  1  0  0  0  0  0  0
  190.5640  176.5820  146.7410 C   0  0  2  0  0  3  0  0  0  0  0  0
  191.6700  177.7030  144.8000 C   0  0  0  0  0  2  0  0  0  0  0  0
  191.8090  176.9820  143.5490 N   0  0  0  0  0  0  0  0  0  0  0  0
  189.6750  176.4400  144.4660 N   0  0  0  0  0  2  0  0  0  0  0  0
  191.6080  177.9510  142.4810 C   0  0  0  0  0  1  0  0  0  0  0  0
  190.3450  177.3120  145.4170 C   0  0  1  0  0  3  0  0  0  0  0  0
  190.6930  176.0440  143.4970 C   0  0  0  0  0  2  0  0  0  0  0  0
  188.5560  175.0280  148.5780 O   0  0  0  0  0  1  0  0  0  0  0  0
  188.4290  175.8010  147.5180 O   0  0  0  0  0  0  0  0  0  0  0  0
  183.8470  177.7280  140.0670 C   0  0  0  0  0  2  0  0  0  0  0  0
  181.3620  180.6860  137.7350 C   0  0  1  0  0  3  0  0  0  0  0  0
  180.8180  179.9100  138.9230 C   0  0  0  0  0  2  0  0  0  0  0  0
  181.2740  176.0740  137.7620 C   0  0  0  0  0  2  0  0  0  0  0  0
  182.9930  177.5850  138.8120 C   0  0  1  0  0  3  0  0  0  0  0  0
  181.5340  179.1680  137.8120 C   0  0  1  0  0  0  0  0  0  0  0  0
  181.7240  176.7610  139.0540 C   0  0  0  0  0  2  0  0  0  0  0  0
  181.1650  176.9540  136.5880 N   0  0  0  0  0  0  0  0  0  0  0  0
  180.6570  178.3070  136.8670 C   0  0  0  0  0  2  0  0  0  0  0  0
  182.8760  178.8080  138.0880 O   0  0  0  0  0  0  0  0  0  0  0  0
  182.4210  177.0020  135.8540 C   0  0  0  0  0  2  0  0  0  0  0  0
  182.3800  174.7490  135.1140 O   0  0  0  0  0  0  0  0  0  0  0  0
  184.2610  175.3660  136.3820 N   0  0  0  0  0  2  0  0  0  0  0  0
  182.9930  175.6340  135.7680 C   0  0  0  0  0  0  0  0  0  0  0  0
  186.4270  174.2630  136.2230 C   0  0  0  0  0  3  0  0  0  0  0  0
  185.2170  171.7590  135.9720 C   0  0  0  0  0  3  0  0  0  0  0  0
  187.2130  173.1190  136.0700 C   0  0  0  0  0  3  0  0  0  0  0  0
  184.4310  172.9050  136.1180 C   0  0  0  0  0  3  0  0  0  0  0  0
  185.0340  174.1660  136.2460 C   0  0  0  0  0  0  0  0  0  0  0  0
  186.6070  171.8680  135.9460 C   0  0  0  0  0  3  0  0  0  0  0  0
  180.2000  181.1260  136.8560 C   0  0  0  0  0  2  0  0  0  0  0  0
  180.6420  182.1740  135.9510 N   0  0  0  0  0  2  0  0  0  0  0  0
  180.1150  183.9210  137.5800 O   0  0  0  0  0  1  0  0  0  0  0  0
  181.0800  184.4230  135.5590 O   0  0  0  0  0  0  0  0  0  0  0  0
  180.6270  183.5460  136.3420 C   0  0  0  0  0  0  0  0  0  0  0  0
  1 45  1  1  0  0  0
  1 13  1  0  0  0  0
  3  6  1  0  0  0  0
  4  1  1  0  0  0  0
  4  6  2  0  0  0  0
  5 10  1  0  0  0  0
  5  4  1  0  0  0  0
  6 17  1  0  0  0  0
  7 12  2  0  0  0  0
  7  8  1  0  0  0  0
  8  5  2  0  0  0  0
  9  2  1  0  0  0  0
  9 10  2  0  0  0  0
 10  3  1  0  0  0  0
 11 15  1  0  0  0  0
 12  9  1  0  0  0  0
 13 14  1  0  0  0  0
 14 25  1  0  0  0  0
 15  2  1  0  0  0  0
 16 15  2  0  0  0  0
 16 12  1  0  0  0  0
 17 14  2  0  0  0  0
 18 19  1  1  0  0  0
 18 11  1  0  0  0  0
 20 22  1  0  0  0  0
 21 22  1  0  0  0  0
 23 20  1  0  0  0  0
 24 18  1  0  0  0  0
 24 23  1  0  0  0  0
 24 21  1  0  0  0  0
 25 26  1  0  0  0  0
 26 27  1  0  0  0  0
 27 28  1  0  0  0  0
 28 29  1  0  0  0  0
 29 30  1  0  0  0  0
 31 30  1  0  0  0  0
 31 33  1  0  0  0  0
 33 34  1  0  0  0  0
 33 32  1  1  0  0  0
 34 44  1  6  0  0  0
 36 35  1  1  0  0  0
 36 34  1  0  0  0  0
 37 41  1  0  0  0  0
 38 37  1  0  0  0  0
 39 41  1  0  0  0  0
 40 38  1  0  0  0  0
 41 36  1  1  0  0  0
 42 38  1  0  0  0  0
 42 39  1  0  0  0  0
 44 43  1  0  0  0  0
 46 65  1  6  0  0  0
 46 50  1  0  0  0  0
 46 47  1  0  0  0  0
 48 51  1  0  0  0  0
 49 51  1  0  0  0  0
 49 45  1  1  0  0  0
 50 53  1  6  0  0  0
 50 54  1  0  0  0  0
 50 47  1  0  0  0  0
 52 53  1  0  0  0  0
 52 48  1  0  0  0  0
 54 49  1  0  0  0  0
 55 52  1  0  0  0  0
 56 58  2  0  0  0  0
 58 55  1  0  0  0  0
 58 57  1  0  0  0  0
 59 63  1  0  0  0  0
 60 62  1  0  0  0  0
 61 59  2  0  0  0  0
 62 63  2  0  0  0  0
 63 57  1  0  0  0  0
 64 60  2  0  0  0  0
 64 61  1  0  0  0  0
 66 69  1  0  0  0  0
 66 65  1  0  0  0  0
 68 69  2  0  0  0  0
 69 67  1  0  0  0  0
M  END
>  <MODEL>
3

>  <REMARK>
 VINA RESULT:      -5.5      3.165      9.088
  Name = 
  21 active torsions:
  status: ('A' for Active; 'I' for Inactive)
    1  A    between atoms: C_1  and  C_32
    2  A    between atoms: C_2  and  C_8
    3  A    between atoms: C_8  and  N_16
    4  A    between atoms: C_12  and  C_35
    5  A    between atoms: C_12  and  O_58
    6  A    between atoms: C_12  and  C_61
    7  A    between atoms: C_15  and  C_32
    8  A    between atoms: N_25  and  C_49
    9  A    between atoms: C_28  and  N_50
   10  A    between atoms: C_28  and  C_52
   11  A    between atoms: C_29  and  N_46
   12  A    between atoms: C_29  and  C_61
   13  A    between atoms: C_33  and  N_44
   14  A    between atoms: C_33  and  C_67
   15  A    between atoms: C_34  and  C_40
   16  A    between atoms: C_34  and  N_46
   17  A    between atoms: C_35  and  C_59
   18  A    between atoms: C_40  and  C_56
   19  A    between atoms: C_55  and  C_62
   20  A    between atoms: C_56  and  C_69
   21  A    between atoms: C_62  and  C_69
                            x       y       z     vdW  Elec       q    Type
                         _______ _______ _______ _____ _____    ______ ____

>  <TORSDO>
F 21

$$$$
=
 OpenBabel11032420343D

 69 77  0  0  1  0  0  0  0  0999 V2000
  186.8620  177.7350  135.9980 C   0  0  2  0  0  3  0  0  0  0  0  0
  192.2590  175.1420  138.1360 C   0  0  0  0  0  2  0  0  0  0  0  0
  189.2600  176.6050  138.9500 S   0  0  0  0  0  0  0  0  0  0  0  0
  188.0230  177.3070  136.8410 C   0  0  0  0  0  0  0  0  0  0  0  0
  189.2320  176.7590  136.4100 C   0  0  0  0  0  0  0  0  0  0  0  0
  187.9010  177.2920  138.2180 C   0  0  0  0  0  0  0  0  0  0  0  0
  190.9300  176.0300  134.8320 C   0  0  0  0  0  3  0  0  0  0  0  0
  189.6720  176.6250  135.0800 C   0  0  0  0  0  3  0  0  0  0  0  0
  191.2520  175.7260  137.2190 C   0  0  0  0  0  0  0  0  0  0  0  0
  190.0230  176.3150  137.4720 C   0  0  0  0  0  0  0  0  0  0  0  0
  194.4880  174.0340  137.4680 N   0  0  0  0  0  2  0  0  0  0  0  0
  191.6920  175.5930  135.9260 C   0  0  0  0  0  0  0  0  0  0  0  0
  185.9410  178.5160  136.7790 O   0  0  0  0  0  0  0  0  0  0  0  0
  185.8480  178.4480  138.1840 C   0  0  0  0  0  0  0  0  0  0  0  0
  193.2770  174.7050  137.1120 C   0  0  0  0  0  0  0  0  0  0  0  0
  192.9570  174.9640  135.8780 N   0  0  0  0  0  0  0  0  0  0  0  0
  186.7760  177.8600  138.8850 N   0  0  0  0  0  0  0  0  0  0  0  0
  195.5160  173.6960  136.4900 C   0  0  2  0  0  3  0  0  0  0  0  0
  195.3360  172.2490  136.0460 C   0  0  0  0  0  1  0  0  0  0  0  0
  198.9850  174.7940  136.1370 C   0  0  0  0  0  2  0  0  0  0  0  0
  197.8700  172.7910  136.8750 C   0  0  0  0  0  2  0  0  0  0  0  0
  198.9530  173.2920  135.9380 C   0  0  0  0  0  2  0  0  0  0  0  0
  197.5560  175.1890  136.4460 C   0  0  0  0  0  2  0  0  0  0  0  0
  196.9110  173.9620  137.0760 C   0  0  0  0  0  3  0  0  0  0  0  0
  184.6950  179.0880  138.8790 C   0  0  0  0  0  2  0  0  0  0  0  0
  184.7800  178.8170  140.3710 C   0  0  0  0  0  2  0  0  0  0  0  0
  183.5940  177.9630  140.7940 C   0  0  0  0  0  2  0  0  0  0  0  0
  183.2690  178.1930  142.2650 C   0  0  0  0  0  2  0  0  0  0  0  0
  184.0700  179.3520  142.8460 C   0  0  0  0  0  2  0  0  0  0  0  0
  184.0430  179.2940  144.2980 N   0  0  0  0  0  2  0  0  0  0  0  0
  185.4100  179.4900  144.7590 C   0  0  0  0  0  2  0  0  0  0  0  0
  186.5300  177.6910  143.6590 O   0  0  0  0  0  1  0  0  0  0  0  0
  186.1240  178.1510  144.9150 C   0  0  1  0  0  3  0  0  0  0  0  0
  187.3230  178.2680  145.8610 C   0  0  2  0  0  3  0  0  0  0  0  0
  188.4040  176.4470  144.7190 O   0  0  0  0  0  1  0  0  0  0  0  0
  188.6030  177.7450  145.2010 C   0  0  2  0  0  3  0  0  0  0  0  0
  189.9750  176.4250  146.8210 C   0  0  0  0  0  2  0  0  0  0  0  0
  191.2720  175.9220  146.4080 N   0  0  0  0  0  0  0  0  0  0  0  0
  191.0080  178.1020  145.4760 N   0  0  0  0  0  2  0  0  0  0  0  0
  192.1510  176.0300  147.5640 C   0  0  0  0  0  1  0  0  0  0  0  0
  189.7770  177.7810  146.1790 C   0  0  1  0  0  3  0  0  0  0  0  0
  191.7650  176.8560  145.4010 C   0  0  0  0  0  2  0  0  0  0  0  0
  187.2820  178.4450  148.0060 O   0  0  0  0  0  1  0  0  0  0  0  0
  187.0750  177.5670  147.0460 O   0  0  0  0  0  0  0  0  0  0  0  0
  186.1660  176.4830  135.4740 C   0  0  0  0  0  2  0  0  0  0  0  0
  183.5820  173.0520  136.8580 C   0  0  1  0  0  3  0  0  0  0  0  0
  183.8340  173.3510  135.3900 C   0  0  0  0  0  2  0  0  0  0  0  0
  182.4170  177.1070  134.9950 C   0  0  0  0  0  2  0  0  0  0  0  0
  184.6850  176.3910  135.8240 C   0  0  1  0  0  3  0  0  0  0  0  0
  183.3830  174.4670  136.3130 C   0  0  1  0  0  0  0  0  0  0  0  0
  183.7790  176.5320  134.5960 C   0  0  0  0  0  2  0  0  0  0  0  0
  181.7510  176.4250  136.1160 N   0  0  0  0  0  0  0  0  0  0  0  0
  181.9240  174.9630  136.1480 C   0  0  0  0  0  2  0  0  0  0  0  0
  184.4050  175.3430  136.7510 O   0  0  0  0  0  0  0  0  0  0  0  0
  182.1210  177.0280  137.3880 C   0  0  0  0  0  2  0  0  0  0  0  0
  180.3800  178.1380  138.5560 O   0  0  0  0  0  0  0  0  0  0  0  0
  181.4560  179.4070  136.8950 N   0  0  0  0  0  2  0  0  0  0  0  0
  181.2490  178.2030  137.6470 C   0  0  0  0  0  0  0  0  0  0  0  0
  179.5610  180.9100  136.6070 C   0  0  0  0  0  3  0  0  0  0  0  0
  180.8380  182.9190  138.0690 C   0  0  0  0  0  3  0  0  0  0  0  0
  178.9310  182.1410  136.8010 C   0  0  0  0  0  3  0  0  0  0  0  0
  181.4700  181.6890  137.8680 C   0  0  0  0  0  3  0  0  0  0  0  0
  180.8330  180.6760  137.1350 C   0  0  0  0  0  0  0  0  0  0  0  0
  179.5690  183.1440  137.5340 C   0  0  0  0  0  3  0  0  0  0  0  0
  182.2890  172.2590  136.9870 C   0  0  0  0  0  2  0  0  0  0  0  0
  182.3090  171.1370  136.0640 N   0  0  0  0  0  2  0  0  0  0  0  0
  179.8670  171.0070  136.0320 O   0  0  0  0  0  1  0  0  0  0  0  0
  181.1540  169.6290  134.7220 O   0  0  0  0  0  0  0  0  0  0  0  0
  181.1010  170.5570  135.5750 C   0  0  0  0  0  0  0  0  0  0  0  0
  1 45  1  1  0  0  0
  1 13  1  0  0  0  0
  1  4  1  0  0  0  0
  4  6  2  0  0  0  0
  5  4  1  0  0  0  0
  5 10  1  0  0  0  0
  6 17  1  0  0  0  0
  6  3  1  0  0  0  0
  7  8  1  0  0  0  0
  7 12  2  0  0  0  0
  8  5  2  0  0  0  0
  9 10  2  0  0  0  0
  9  2  1  0  0  0  0
 10  3  1  0  0  0  0
 12  9  1  0  0  0  0
 13 14  1  0  0  0  0
 14 25  1  0  0  0  0
 14 17  2  0  0  0  0
 15 11  1  0  0  0  0
 15  2  1  0  0  0  0
 16 12  1  0  0  0  0
 16 15  2  0  0  0  0
 18 19  1  1  0  0  0
 18 24  1  0  0  0  0
 18 11  1  0  0  0  0
 20 23  1  0  0  0  0
 21 24  1  0  0  0  0
 22 20  1  0  0  0  0
 22 21  1  0  0  0  0
 23 24  1  0  0  0  0
 25 26  1  0  0  0  0
 26 27  1  0  0  0  0
 27 28  1  0  0  0  0
 28 29  1  0  0  0  0
 29 30  1  0  0  0  0
 30 31  1  0  0  0  0
 31 33  1  0  0  0  0
 33 32  1  6  0  0  0
 33 34  1  0  0  0  0
 34 44  1  1  0  0  0
 36 35  1  1  0  0  0
 36 34  1  0  0  0  0
 38 37  1  0  0  0  0
 38 40  1  0  0  0  0
 39 41  1  0  0  0  0
 41 36  1  6  0  0  0
 41 37  1  0  0  0  0
 42 39  1  0  0  0  0
 42 38  1  0  0  0  0
 44 43  1  0  0  0  0
 46 65  1  6  0  0  0
 47 46  1  0  0  0  0
 48 52  1  0  0  0  0
 49 45  1  6  0  0  0
 49 54  1  0  0  0  0
 50 47  1  6  0  0  0
 50 54  1  0  0  0  0
 50 46  1  0  0  0  0
 51 48  1  0  0  0  0
 51 49  1  0  0  0  0
 52 53  1  0  0  0  0
 52 55  1  0  0  0  0
 53 50  1  0  0  0  0
 55 58  1  0  0  0  0
 57 63  1  0  0  0  0
 57 58  1  0  0  0  0
 58 56  2  0  0  0  0
 59 61  2  0  0  0  0
 59 63  1  0  0  0  0
 61 64  1  0  0  0  0
 62 60  1  0  0  0  0
 63 62  2  0  0  0  0
 64 60  2  0  0  0  0
 66 65  1  0  0  0  0
 68 69  2  0  0  0  0
 69 67  1  0  0  0  0
 69 66  1  0  0  0  0
M  END
>  <MODEL>
4

>  <REMARK>
 VINA RESULT:      -5.4      2.976     10.182
  Name = 
  21 active torsions:
  status: ('A' for Active; 'I' for Inactive)
    1  A    between atoms: C_1  and  C_32
    2  A    between atoms: C_2  and  C_8
    3  A    between atoms: C_8  and  N_16
    4  A    between atoms: C_12  and  C_35
    5  A    between atoms: C_12  and  O_58
    6  A    between atoms: C_12  and  C_61
    7  A    between atoms: C_15  and  C_32
    8  A    between atoms: N_25  and  C_49
    9  A    between atoms: C_28  and  N_50
   10  A    between atoms: C_28  and  C_52
   11  A    between atoms: C_29  and  N_46
   12  A    between atoms: C_29  and  C_61
   13  A    between atoms: C_33  and  N_44
   14  A    between atoms: C_33  and  C_67
   15  A    between atoms: C_34  and  C_40
   16  A    between atoms: C_34  and  N_46
   17  A    between atoms: C_35  and  C_59
   18  A    between atoms: C_40  and  C_56
   19  A    between atoms: C_55  and  C_62
   20  A    between atoms: C_56  and  C_69
   21  A    between atoms: C_62  and  C_69
                            x       y       z     vdW  Elec       q    Type
                         _______ _______ _______ _____ _____    ______ ____

>  <TORSDO>
F 21

$$$$
=
 OpenBabel11032420343D

 69 77  0  0  1  0  0  0  0  0999 V2000
  184.9170  178.9050  139.1190 C   0  0  2  0  0  3  0  0  0  0  0  0
  185.5530  178.0100  145.3820 C   0  0  0  0  0  2  0  0  0  0  0  0
  183.4120  178.6900  142.7840 S   0  0  0  0  0  0  0  0  0  0  0  0
  184.7050  178.8680  140.6010 C   0  0  0  0  0  0  0  0  0  0  0  0
  185.6580  178.6250  141.5910 C   0  0  0  0  0  0  0  0  0  0  0  0
  183.4230  178.9330  141.1120 C   0  0  0  0  0  0  0  0  0  0  0  0
  187.8630  178.2440  142.5390 C   0  0  0  0  0  3  0  0  0  0  0  0
  187.0500  178.5040  141.4130 C   0  0  0  0  0  3  0  0  0  0  0  0
  185.8920  178.2300  143.9560 C   0  0  0  0  0  0  0  0  0  0  0  0
  185.0870  178.4930  142.8590 C   0  0  0  0  0  0  0  0  0  0  0  0
  187.2020  177.4780  147.2890 N   0  0  0  0  0  2  0  0  0  0  0  0
  187.2500  178.1140  143.7940 C   0  0  0  0  0  0  0  0  0  0  0  0
  183.7680  179.4750  138.4670 O   0  0  0  0  0  0  0  0  0  0  0  0
  182.4770  179.5000  139.0290 C   0  0  0  0  0  0  0  0  0  0  0  0
  186.9450  177.7750  145.9150 C   0  0  0  0  0  0  0  0  0  0  0  0
  187.8900  177.8390  145.0250 N   0  0  0  0  0  0  0  0  0  0  0  0
  182.2950  179.2370  140.2930 N   0  0  0  0  0  0  0  0  0  0  0  0
  188.5520  177.3450  147.8260 C   0  0  2  0  0  3  0  0  0  0  0  0
  189.1570  178.7300  148.0250 C   0  0  0  0  0  1  0  0  0  0  0  0
  191.5150  175.3030  147.1830 C   0  0  0  0  0  2  0  0  0  0  0  0
  190.4950  177.2380  146.1760 C   0  0  0  0  0  2  0  0  0  0  0  0
  191.8140  176.7120  146.7110 C   0  0  0  0  0  2  0  0  0  0  0  0
  190.0860  175.3400  147.6800 C   0  0  0  0  0  2  0  0  0  0  0  0
  189.4030  176.4580  146.9040 C   0  0  0  0  0  3  0  0  0  0  0  0
  181.3090  179.8670  138.1800 C   0  0  0  0  0  2  0  0  0  0  0  0
  181.2450  178.9530  136.9690 C   0  0  0  0  0  2  0  0  0  0  0  0
  181.0070  177.5230  137.4320 C   0  0  0  0  0  2  0  0  0  0  0  0
  179.7250  177.4340  138.2510 C   0  0  0  0  0  2  0  0  0  0  0  0
  179.4150  176.0010  138.6630 C   0  0  0  0  0  2  0  0  0  0  0  0
  180.1310  175.0720  137.8050 N   0  0  0  0  0  2  0  0  0  0  0  0
  179.5280  173.7610  137.9960 C   0  0  0  0  0  2  0  0  0  0  0  0
  179.9710  173.8020  135.6500 O   0  0  0  0  0  1  0  0  0  0  0  0
  179.4740  172.9950  136.6780 C   0  0  1  0  0  3  0  0  0  0  0  0
  180.2630  171.6850  136.7640 C   0  0  2  0  0  3  0  0  0  0  0  0
  182.0030  170.4950  135.6040 O   0  0  0  0  0  1  0  0  0  0  0  0
  181.5750  171.7730  135.9800 C   0  0  2  0  0  3  0  0  0  0  0  0
  183.9600  171.7210  136.7290 C   0  0  0  0  0  2  0  0  0  0  0  0
  184.9330  172.5620  136.0580 N   0  0  0  0  0  0  0  0  0  0  0  0
  182.9080  173.8070  136.2530 N   0  0  0  0  0  2  0  0  0  0  0  0
  185.8530  173.0360  137.0820 C   0  0  0  0  0  1  0  0  0  0  0  0
  182.6540  172.4830  136.7960 C   0  0  1  0  0  3  0  0  0  0  0  0
  184.1950  173.7220  135.5700 C   0  0  0  0  0  2  0  0  0  0  0  0
  179.2390  170.9290  135.0270 O   0  0  0  0  0  1  0  0  0  0  0  0
  179.4890  170.6220  136.2840 O   0  0  0  0  0  0  0  0  0  0  0  0
  185.1310  177.4750  138.6330 C   0  0  0  0  0  2  0  0  0  0  0  0
  189.5530  177.2760  139.5110 C   0  0  1  0  0  3  0  0  0  0  0  0
  188.8210  178.5850  139.2690 C   0  0  0  0  0  2  0  0  0  0  0  0
  187.3260  178.0920  135.5550 C   0  0  0  0  0  2  0  0  0  0  0  0
  186.3480  177.2900  137.7330 C   0  0  1  0  0  3  0  0  0  0  0  0
  188.6510  177.4420  138.2860 C   0  0  1  0  0  0  0  0  0  0  0  0
  186.6140  178.5100  136.8440 C   0  0  0  0  0  2  0  0  0  0  0  0
  188.5200  177.2530  135.7410 N   0  0  0  0  0  0  0  0  0  0  0  0
  189.3470  177.5940  136.9100 C   0  0  0  0  0  2  0  0  0  0  0  0
  187.4510  176.7010  138.4180 O   0  0  0  0  0  0  0  0  0  0  0  0
  188.1720  175.8390  135.7350 C   0  0  0  0  0  2  0  0  0  0  0  0
  189.3770  173.8440  135.2950 O   0  0  0  0  0  0  0  0  0  0  0  0
  190.6460  175.6260  136.1560 N   0  0  0  0  0  2  0  0  0  0  0  0
  189.4160  175.0270  135.7270 C   0  0  0  0  0  0  0  0  0  0  0  0
  192.5500  174.9750  134.7840 C   0  0  0  0  0  3  0  0  0  0  0  0
  193.9100  173.9830  137.0130 C   0  0  0  0  0  3  0  0  0  0  0  0
  193.8150  174.4020  134.6340 C   0  0  0  0  0  3  0  0  0  0  0  0
  192.6420  174.5500  137.1620 C   0  0  0  0  0  3  0  0  0  0  0  0
  191.9540  175.0510  136.0460 C   0  0  0  0  0  0  0  0  0  0  0  0
  194.4940  173.9080  135.7490 C   0  0  0  0  0  3  0  0  0  0  0  0
  191.0330  177.4730  139.2110 C   0  0  0  0  0  2  0  0  0  0  0  0
  191.7710  177.5940  140.4570 N   0  0  0  0  0  2  0  0  0  0  0  0
  190.2640  176.0450  141.6020 O   0  0  0  0  0  0  0  0  0  0  0  0
  192.1000  176.9280  142.6600 O   0  0  0  0  0  1  0  0  0  0  0  0
  191.3980  176.8510  141.6160 C   0  0  0  0  0  0  0  0  0  0  0  0
  1 45  1  6  0  0  0
  1  4  1  0  0  0  0
  2 15  1  0  0  0  0
  3 10  1  0  0  0  0
  4  6  2  0  0  0  0
  4  5  1  0  0  0  0
  5 10  1  0  0  0  0
  6  3  1  0  0  0  0
  7 12  2  0  0  0  0
  8  5  2  0  0  0  0
  8  7  1  0  0  0  0
  9  2  1  0  0  0  0
 10  9  2  0  0  0  0
 11 18  1  0  0  0  0
 12  9  1  0  0  0  0
 12 16  1  0  0  0  0
 13 14  1  0  0  0  0
 13  1  1  0  0  0  0
 14 17  2  0  0  0  0
 15 11  1  0  0  0  0
 16 15  2  0  0  0  0
 17  6  1  0  0  0  0
 18 19  1  6  0  0  0
 20 23  1  0  0  0  0
 21 22  1  0  0  0  0
 21 24  1  0  0  0  0
 22 20  1  0  0  0  0
 24 23  1  0  0  0  0
 24 18  1  0  0  0  0
 25 14  1  0  0  0  0
 26 27  1  0  0  0  0
 26 25  1  0  0  0  0
 27 28  1  0  0  0  0
 28 29  1  0  0  0  0
 30 31  1  0  0  0  0
 30 29  1  0  0  0  0
 33 32  1  6  0  0  0
 33 34  1  0  0  0  0
 33 31  1  0  0  0  0
 34 44  1  6  0  0  0
 36 35  1  1  0  0  0
 36 34  1  0  0  0  0
 37 41  1  0  0  0  0
 38 37  1  0  0  0  0
 38 40  1  0  0  0  0
 39 41  1  0  0  0  0
 41 36  1  6  0  0  0
 42 38  1  0  0  0  0
 42 39  1  0  0  0  0
 43 44  1  0  0  0  0
 46 65  1  6  0  0  0
 47 46  1  0  0  0  0
 48 52  1  0  0  0  0
 48 51  1  0  0  0  0
 49 54  1  0  0  0  0
 49 45  1  1  0  0  0
 50 53  1  6  0  0  0
 50 54  1  0  0  0  0
 50 47  1  0  0  0  0
 50 46  1  0  0  0  0
 51 49  1  0  0  0  0
 52 53  1  0  0  0  0
 55 52  1  0  0  0  0
 56 58  2  0  0  0  0
 58 55  1  0  0  0  0
 58 57  1  0  0  0  0
 59 63  1  0  0  0  0
 60 62  1  0  0  0  0
 61 59  2  0  0  0  0
 61 64  1  0  0  0  0
 63 57  1  0  0  0  0
 63 62  2  0  0  0  0
 64 60  2  0  0  0  0
 65 66  1  0  0  0  0
 66 69  1  0  0  0  0
 67 69  2  0  0  0  0
 69 68  1  0  0  0  0
M  END
>  <MODEL>
5

>  <REMARK>
 VINA RESULT:      -5.0      3.100      9.532
  Name = 
  21 active torsions:
  status: ('A' for Active; 'I' for Inactive)
    1  A    between atoms: C_1  and  C_32
    2  A    between atoms: C_2  and  C_8
    3  A    between atoms: C_8  and  N_16
    4  A    between atoms: C_12  and  C_35
    5  A    between atoms: C_12  and  O_58
    6  A    between atoms: C_12  and  C_61
    7  A    between atoms: C_15  and  C_32
    8  A    between atoms: N_25  and  C_49
    9  A    between atoms: C_28  and  N_50
   10  A    between atoms: C_28  and  C_52
   11  A    between atoms: C_29  and  N_46
   12  A    between atoms: C_29  and  C_61
   13  A    between atoms: C_33  and  N_44
   14  A    between atoms: C_33  and  C_67
   15  A    between atoms: C_34  and  C_40
   16  A    between atoms: C_34  and  N_46
   17  A    between atoms: C_35  and  C_59
   18  A    between atoms: C_40  and  C_56
   19  A    between atoms: C_55  and  C_62
   20  A    between atoms: C_56  and  C_69
   21  A    between atoms: C_62  and  C_69
                            x       y       z     vdW  Elec       q    Type
                         _______ _______ _______ _____ _____    ______ ____

>  <TORSDO>
F 21

$$$$
=
 OpenBabel11032420343D

 69 77  0  0  1  0  0  0  0  0999 V2000
  187.1120  177.8400  135.9040 C   0  0  2  0  0  3  0  0  0  0  0  0
  192.5080  175.0730  137.8150 C   0  0  0  0  0  2  0  0  0  0  0  0
  189.5140  176.4740  138.7500 S   0  0  0  0  0  0  0  0  0  0  0  0
  188.2730  177.3430  136.7080 C   0  0  0  0  0  0  0  0  0  0  0  0
  189.4800  176.8290  136.2320 C   0  0  0  0  0  0  0  0  0  0  0  0
  188.1560  177.2200  138.0790 C   0  0  0  0  0  0  0  0  0  0  0  0
  191.1720  176.2230  134.5950 C   0  0  0  0  0  3  0  0  0  0  0  0
  189.9170  176.7990  134.8930 C   0  0  0  0  0  3  0  0  0  0  0  0
  191.5000  175.7300  136.9500 C   0  0  0  0  0  0  0  0  0  0  0  0
  190.2730  176.3000  137.2520 C   0  0  0  0  0  0  0  0  0  0  0  0
  194.7320  174.0160  137.0550 N   0  0  0  0  0  2  0  0  0  0  0  0
  191.9360  175.6990  135.6490 C   0  0  0  0  0  0  0  0  0  0  0  0
  186.1940  178.5590  136.7480 O   0  0  0  0  0  0  0  0  0  0  0  0
  186.1050  178.3800  138.1430 C   0  0  0  0  0  0  0  0  0  0  0  0
  193.5220  174.7160  136.7570 C   0  0  0  0  0  0  0  0  0  0  0  0
  193.1990  175.0720  135.5480 N   0  0  0  0  0  0  0  0  0  0  0  0
  187.0340  177.7370  138.7930 N   0  0  0  0  0  0  0  0  0  0  0  0
  195.7570  173.7540  136.0510 C   0  0  2  0  0  3  0  0  0  0  0  0
  195.8450  174.9380  135.0950 C   0  0  0  0  0  1  0  0  0  0  0  0
  194.9250  170.1940  136.0830 C   0  0  0  0  0  2  0  0  0  0  0  0
  196.6960  171.5500  135.1750 C   0  0  0  0  0  2  0  0  0  0  0  0
  196.4340  170.3150  136.0180 C   0  0  0  0  0  2  0  0  0  0  0  0
  194.4060  171.6160  136.0590 C   0  0  0  0  0  2  0  0  0  0  0  0
  195.4600  172.4330  135.3240 C   0  0  0  0  0  3  0  0  0  0  0  0
  184.9560  178.9660  138.8900 C   0  0  0  0  0  2  0  0  0  0  0  0
  185.2850  179.0280  140.3710 C   0  0  0  0  0  2  0  0  0  0  0  0
  184.3180  178.1370  141.1380 C   0  0  0  0  0  2  0  0  0  0  0  0
  184.1620  178.6300  142.5720 C   0  0  0  0  0  2  0  0  0  0  0  0
  185.4180  179.3360  143.0670 C   0  0  0  0  0  2  0  0  0  0  0  0
  185.5080  179.2300  144.5140 N   0  0  0  0  0  2  0  0  0  0  0  0
  186.4970  178.2030  144.8070 C   0  0  0  0  0  2  0  0  0  0  0  0
  186.0790  176.8110  146.7020 O   0  0  0  0  0  1  0  0  0  0  0  0
  186.6580  178.0230  146.3130 C   0  0  1  0  0  3  0  0  0  0  0  0
  188.1330  178.0730  146.7240 C   0  0  2  0  0  3  0  0  0  0  0  0
  189.7660  176.3090  146.8120 O   0  0  0  0  0  1  0  0  0  0  0  0
  188.9620  177.0520  145.9400 C   0  0  2  0  0  3  0  0  0  0  0  0
  191.1620  177.0580  144.7520 C   0  0  0  0  0  2  0  0  0  0  0  0
  191.2510  176.4880  143.4210 N   0  0  0  0  0  0  0  0  0  0  0  0
  189.1730  177.6490  143.5770 N   0  0  0  0  0  2  0  0  0  0  0  0
  192.1770  177.3220  142.6690 C   0  0  0  0  0  1  0  0  0  0  0  0
  189.8170  177.7400  144.8770 C   0  0  1  0  0  3  0  0  0  0  0  0
  189.9320  176.6570  142.8210 C   0  0  0  0  0  2  0  0  0  0  0  0
  189.2610  178.6100  148.4770 O   0  0  0  0  0  1  0  0  0  0  0  0
  188.2600  177.8410  148.0970 O   0  0  0  0  0  0  0  0  0  0  0  0
  186.4110  176.6350  135.2850 C   0  0  0  0  0  2  0  0  0  0  0  0
  183.9920  172.9710  136.3270 C   0  0  1  0  0  3  0  0  0  0  0  0
  184.1280  173.4890  134.9060 C   0  0  0  0  0  2  0  0  0  0  0  0
  182.6280  177.2230  135.1750 C   0  0  0  0  0  2  0  0  0  0  0  0
  184.9620  176.4530  135.7240 C   0  0  1  0  0  3  0  0  0  0  0  0
  183.7310  174.4450  136.0140 C   0  0  1  0  0  0  0  0  0  0  0  0
  183.9640  176.7490  134.5980 C   0  0  0  0  0  2  0  0  0  0  0  0
  182.0590  176.3660  136.2280 N   0  0  0  0  0  0  0  0  0  0  0  0
  182.2550  174.9210  136.0300 C   0  0  0  0  0  2  0  0  0  0  0  0
  184.7690  175.2740  136.5030 O   0  0  0  0  0  0  0  0  0  0  0  0
  182.5140  176.7860  137.5450 C   0  0  0  0  0  2  0  0  0  0  0  0
  180.2420  177.4160  137.8150 O   0  0  0  0  0  0  0  0  0  0  0  0
  181.7450  178.3500  139.3640 N   0  0  0  0  0  2  0  0  0  0  0  0
  181.4280  177.5410  138.2230 C   0  0  0  0  0  0  0  0  0  0  0  0
  180.1110  178.2190  141.1650 C   0  0  0  0  0  3  0  0  0  0  0  0
  179.6220  180.9650  141.0220 C   0  0  0  0  0  3  0  0  0  0  0  0
  179.1730  178.8070  142.0160 C   0  0  0  0  0  3  0  0  0  0  0  0
  180.5560  180.3740  140.1660 C   0  0  0  0  0  3  0  0  0  0  0  0
  180.8060  178.9950  140.2350 C   0  0  0  0  0  0  0  0  0  0  0  0
  178.9300  180.1800  141.9440 C   0  0  0  0  0  3  0  0  0  0  0  0
  182.7250  172.1330  136.4310 C   0  0  0  0  0  2  0  0  0  0  0  0
  182.0110  172.4750  137.6500 N   0  0  0  0  0  2  0  0  0  0  0  0
  179.8420  172.2760  136.5390 O   0  0  0  0  0  0  0  0  0  0  0  0
  179.9980  172.7370  138.7830 O   0  0  0  0  0  1  0  0  0  0  0  0
  180.5860  172.5030  137.6920 C   0  0  0  0  0  0  0  0  0  0  0  0
  1 45  1  1  0  0  0
  1  4  1  0  0  0  0
  1 13  1  0  0  0  0
  4  6  2  0  0  0  0
  5  4  1  0  0  0  0
  5 10  1  0  0  0  0
  6  3  1  0  0  0  0
  6 17  1  0  0  0  0
  7  8  1  0  0  0  0
  7 12  2  0  0  0  0
  8  5  2  0  0  0  0
  9 10  2  0  0  0  0
  9  2  1  0  0  0  0
 10  3  1  0  0  0  0
 12  9  1  0  0  0  0
 13 14  1  0  0  0  0
 14 17  2  0  0  0  0
 14 25  1  0  0  0  0
 15 11  1  0  0  0  0
 15  2  1  0  0  0  0
 16 12  1  0  0  0  0
 16 15  2  0  0  0  0
 18 19  1  6  0  0  0
 18 11  1  0  0  0  0
 21 24  1  0  0  0  0
 21 22  1  0  0  0  0
 22 20  1  0  0  0  0
 23 20  1  0  0  0  0
 24 18  1  0  0  0  0
 24 23  1  0  0  0  0
 25 26  1  0  0  0  0
 26 27  1  0  0  0  0
 27 28  1  0  0  0  0
 28 29  1  0  0  0  0
 29 30  1  0  0  0  0
 30 31  1  0  0  0  0
 31 33  1  0  0  0  0
 33 32  1  6  0  0  0
 33 34  1  0  0  0  0
 34 44  1  1  0  0  0
 36 34  1  0  0  0  0
 36 35  1  1  0  0  0
 37 41  1  0  0  0  0
 38 37  1  0  0  0  0
 39 41  1  0  0  0  0
 40 38  1  0  0  0  0
 41 36  1  1  0  0  0
 42 38  1  0  0  0  0
 42 39  1  0  0  0  0
 44 43  1  0  0  0  0
 46 65  1  6  0  0  0
 47 46  1  0  0  0  0
 48 52  1  0  0  0  0
 49 45  1  6  0  0  0
 49 54  1  0  0  0  0
 50 47  1  6  0  0  0
 50 53  1  0  0  0  0
 50 46  1  0  0  0  0
 50 54  1  0  0  0  0
 51 48  1  0  0  0  0
 51 49  1  0  0  0  0
 52 55  1  0  0  0  0
 53 52  1  0  0  0  0
 55 58  1  0  0  0  0
 56 58  2  0  0  0  0
 57 63  1  0  0  0  0
 58 57  1  0  0  0  0
 59 61  1  0  0  0  0
 60 64  1  0  0  0  0
 62 63  1  0  0  0  0
 62 60  2  0  0  0  0
 63 59  2  0  0  0  0
 64 61  2  0  0  0  0
 65 66  1  0  0  0  0
 66 69  1  0  0  0  0
 67 69  2  0  0  0  0
 69 68  1  0  0  0  0
M  END
>  <MODEL>
6

>  <REMARK>
 VINA RESULT:      -4.7      3.195      9.776
  Name = 
  21 active torsions:
  status: ('A' for Active; 'I' for Inactive)
    1  A    between atoms: C_1  and  C_32
    2  A    between atoms: C_2  and  C_8
    3  A    between atoms: C_8  and  N_16
    4  A    between atoms: C_12  and  C_35
    5  A    between atoms: C_12  and  O_58
    6  A    between atoms: C_12  and  C_61
    7  A    between atoms: C_15  and  C_32
    8  A    between atoms: N_25  and  C_49
    9  A    between atoms: C_28  and  N_50
   10  A    between atoms: C_28  and  C_52
   11  A    between atoms: C_29  and  N_46
   12  A    between atoms: C_29  and  C_61
   13  A    between atoms: C_33  and  N_44
   14  A    between atoms: C_33  and  C_67
   15  A    between atoms: C_34  and  C_40
   16  A    between atoms: C_34  and  N_46
   17  A    between atoms: C_35  and  C_59
   18  A    between atoms: C_40  and  C_56
   19  A    between atoms: C_55  and  C_62
   20  A    between atoms: C_56  and  C_69
   21  A    between atoms: C_62  and  C_69
                            x       y       z     vdW  Elec       q    Type
                         _______ _______ _______ _____ _____    ______ ____

>  <TORSDO>
F 21

$$$$
=
 OpenBabel11032420343D

 69 77  0  0  1  0  0  0  0  0999 V2000
  190.7450  176.4290  137.8980 C   0  0  2  0  0  3  0  0  0  0  0  0
  191.3130  177.8050  144.0800 C   0  0  0  0  0  2  0  0  0  0  0  0
  192.9290  177.3220  141.0880 S   0  0  0  0  0  0  0  0  0  0  0  0
  191.2630  176.6590  139.2840 C   0  0  0  0  0  0  0  0  0  0  0  0
  190.5210  176.7990  140.4580 C   0  0  0  0  0  0  0  0  0  0  0  0
  192.6070  176.9130  139.4800 C   0  0  0  0  0  0  0  0  0  0  0  0
  188.5490  176.8090  141.8780 C   0  0  0  0  0  3  0  0  0  0  0  0
  189.1330  176.6100  140.6070 C   0  0  0  0  0  3  0  0  0  0  0  0
  190.7290  177.3750  142.7880 C   0  0  0  0  0  0  0  0  0  0  0  0
  191.3110  177.1740  141.5460 C   0  0  0  0  0  0  0  0  0  0  0  0
  190.0460  178.1740  146.2930 N   0  0  0  0  0  2  0  0  0  0  0  0
  189.3770  177.1900  142.9450 C   0  0  0  0  0  0  0  0  0  0  0  0
  191.8210  176.0450  137.0230 O   0  0  0  0  0  0  0  0  0  0  0  0
  193.1760  176.3460  137.2650 C   0  0  0  0  0  0  0  0  0  0  0  0
  190.0560  177.8000  144.9140 C   0  0  0  0  0  0  0  0  0  0  0  0
  188.9780  177.4500  144.2760 N   0  0  0  0  0  0  0  0  0  0  0  0
  193.5660  176.7680  138.4350 N   0  0  0  0  0  0  0  0  0  0  0  0
  188.8520  178.0790  147.1250 C   0  0  2  0  0  3  0  0  0  0  0  0
  188.6570  176.6340  147.5680 C   0  0  0  0  0  1  0  0  0  0  0  0
  185.3250  179.0310  146.9900 C   0  0  0  0  0  2  0  0  0  0  0  0
  186.7620  177.5340  145.7690 C   0  0  0  0  0  2  0  0  0  0  0  0
  185.4360  177.6010  146.5040 C   0  0  0  0  0  2  0  0  0  0  0  0
  186.7450  179.4690  147.2800 C   0  0  0  0  0  2  0  0  0  0  0  0
  187.6340  178.6330  146.3700 C   0  0  0  0  0  3  0  0  0  0  0  0
  194.1820  176.1440  136.1840 C   0  0  0  0  0  2  0  0  0  0  0  0
  194.4200  177.4530  135.4520 C   0  0  0  0  0  2  0  0  0  0  0  0
  195.7560  177.3860  134.7260 C   0  0  0  0  0  2  0  0  0  0  0  0
  196.2590  175.9490  134.6660 C   0  0  0  0  0  2  0  0  0  0  0  0
  197.7480  175.8580  134.9720 C   0  0  0  0  0  2  0  0  0  0  0  0
  197.9480  175.3190  136.3080 N   0  0  0  0  0  2  0  0  0  0  0  0
  197.0760  174.1610  136.4360 C   0  0  0  0  0  2  0  0  0  0  0  0
  198.8470  173.3580  137.8220 O   0  0  0  0  0  1  0  0  0  0  0  0
  197.8610  172.9460  136.9200 C   0  0  1  0  0  3  0  0  0  0  0  0
  196.9370  171.9090  137.5670 C   0  0  2  0  0  3  0  0  0  0  0  0
  196.5950  171.4700  135.2260 O   0  0  0  0  0  1  0  0  0  0  0  0
  196.1520  171.1290  136.5080 C   0  0  2  0  0  3  0  0  0  0  0  0
  194.1310  172.1440  135.4440 C   0  0  0  0  0  2  0  0  0  0  0  0
  193.1910  171.2870  134.7450 N   0  0  0  0  0  0  0  0  0  0  0  0
  193.9300  170.1200  136.6900 N   0  0  0  0  0  2  0  0  0  0  0  0
  191.8610  171.8150  135.0150 C   0  0  0  0  0  1  0  0  0  0  0  0
  194.6510  171.3810  136.6430 C   0  0  1  0  0  3  0  0  0  0  0  0
  193.2770  169.9820  135.3910 C   0  0  0  0  0  2  0  0  0  0  0  0
  195.3670  171.5490  138.9960 O   0  0  0  0  0  1  0  0  0  0  0  0
  196.0540  172.5340  138.4530 O   0  0  0  0  0  0  0  0  0  0  0  0
  190.1130  177.7260  137.4030 C   0  0  0  0  0  2  0  0  0  0  0  0
  187.0260  174.5270  136.6300 C   0  0  1  0  0  3  0  0  0  0  0  0
  187.6070  175.3940  135.5260 C   0  0  0  0  0  2  0  0  0  0  0  0
  186.6140  179.1200  136.7080 C   0  0  0  0  0  2  0  0  0  0  0  0
  188.5890  177.7410  137.4430 C   0  0  1  0  0  3  0  0  0  0  0  0
  187.0620  176.0490  136.7810 C   0  0  1  0  0  0  0  0  0  0  0  0
  187.9790  178.5580  136.2990 C   0  0  0  0  0  2  0  0  0  0  0  0
  185.6730  178.1380  137.2700 N   0  0  0  0  0  0  0  0  0  0  0  0
  185.7160  176.8050  136.6460 C   0  0  0  0  0  2  0  0  0  0  0  0
  188.0370  176.4570  137.7240 O   0  0  0  0  0  0  0  0  0  0  0  0
  185.8140  178.0490  138.7160 C   0  0  0  0  0  2  0  0  0  0  0  0
  184.5590  179.7820  139.7420 O   0  0  0  0  0  0  0  0  0  0  0  0
  183.4370  177.7320  139.4860 N   0  0  0  0  0  2  0  0  0  0  0  0
  184.5860  178.5810  139.3620 C   0  0  0  0  0  0  0  0  0  0  0  0
  181.1420  178.3500  138.9490 C   0  0  0  0  0  3  0  0  0  0  0  0
  180.5350  178.7280  141.6490 C   0  0  0  0  0  3  0  0  0  0  0  0
  179.8620  178.7620  139.3260 C   0  0  0  0  0  3  0  0  0  0  0  0
  181.8170  178.3240  141.2690 C   0  0  0  0  0  3  0  0  0  0  0  0
  182.1280  178.1310  139.9150 C   0  0  0  0  0  0  0  0  0  0  0  0
  179.5590  178.9480  140.6760 C   0  0  0  0  0  3  0  0  0  0  0  0
  185.6750  173.9890  136.1800 C   0  0  0  0  0  2  0  0  0  0  0  0
  185.8560  172.7120  135.5110 N   0  0  0  0  0  2  0  0  0  0  0  0
  183.7140  171.8740  136.3410 O   0  0  0  0  0  1  0  0  0  0  0  0
  185.0170  170.6240  134.9230 O   0  0  0  0  0  0  0  0  0  0  0  0
  184.8590  171.6940  135.5720 C   0  0  0  0  0  0  0  0  0  0  0  0
  1 45  1  6  0  0  0
  1  4  1  0  0  0  0
  2 15  1  0  0  0  0
  3 10  1  0  0  0  0
  4  6  2  0  0  0  0
  4  5  1  0  0  0  0
  5  8  2  0  0  0  0
  5 10  1  0  0  0  0
  6  3  1  0  0  0  0
  7 12  2  0  0  0  0
  8  7  1  0  0  0  0
  9 12  1  0  0  0  0
  9  2  1  0  0  0  0
 10  9  2  0  0  0  0
 11 18  1  0  0  0  0
 12 16  1  0  0  0  0
 13 14  1  0  0  0  0
 13  1  1  0  0  0  0
 14 17  2  0  0  0  0
 15 11  1  0  0  0  0
 16 15  2  0  0  0  0
 17  6  1  0  0  0  0
 18 19  1  6  0  0  0
 20 23  1  0  0  0  0
 21 24  1  0  0  0  0
 21 22  1  0  0  0  0
 22 20  1  0  0  0  0
 24 18  1  0  0  0  0
 24 23  1  0  0  0  0
 25 14  1  0  0  0  0
 26 25  1  0  0  0  0
 27 26  1  0  0  0  0
 28 27  1  0  0  0  0
 28 29  1  0  0  0  0
 29 30  1  0  0  0  0
 30 31  1  0  0  0  0
 31 33  1  0  0  0  0
 33 34  1  0  0  0  0
 33 32  1  1  0  0  0
 34 44  1  1  0  0  0
 36 35  1  6  0  0  0
 36 34  1  0  0  0  0
 37 41  1  0  0  0  0
 38 40  1  0  0  0  0
 38 42  1  0  0  0  0
 38 37  1  0  0  0  0
 41 36  1  6  0  0  0
 41 39  1  0  0  0  0
 42 39  1  0  0  0  0
 44 43  1  0  0  0  0
 46 65  1  6  0  0  0
 46 50  1  0  0  0  0
 47 46  1  0  0  0  0
 48 52  1  0  0  0  0
 49 45  1  6  0  0  0
 49 54  1  0  0  0  0
 50 47  1  6  0  0  0
 50 54  1  0  0  0  0
 51 48  1  0  0  0  0
 51 49  1  0  0  0  0
 52 55  1  0  0  0  0
 53 50  1  0  0  0  0
 53 52  1  0  0  0  0
 55 58  1  0  0  0  0
 57 63  1  0  0  0  0
 58 57  1  0  0  0  0
 58 56  2  0  0  0  0
 59 61  2  0  0  0  0
 59 63  1  0  0  0  0
 61 64  1  0  0  0  0
 62 60  1  0  0  0  0
 63 62  2  0  0  0  0
 64 60  2  0  0  0  0
 66 69  1  0  0  0  0
 66 65  1  0  0  0  0
 68 69  2  0  0  0  0
 69 67  1  0  0  0  0
M  END
>  <MODEL>
7

>  <REMARK>
 VINA RESULT:      -4.6      2.820     10.315
  Name = 
  21 active torsions:
  status: ('A' for Active; 'I' for Inactive)
    1  A    between atoms: C_1  and  C_32
    2  A    between atoms: C_2  and  C_8
    3  A    between atoms: C_8  and  N_16
    4  A    between atoms: C_12  and  C_35
    5  A    between atoms: C_12  and  O_58
    6  A    between atoms: C_12  and  C_61
    7  A    between atoms: C_15  and  C_32
    8  A    between atoms: N_25  and  C_49
    9  A    between atoms: C_28  and  N_50
   10  A    between atoms: C_28  and  C_52
   11  A    between atoms: C_29  and  N_46
   12  A    between atoms: C_29  and  C_61
   13  A    between atoms: C_33  and  N_44
   14  A    between atoms: C_33  and  C_67
   15  A    between atoms: C_34  and  C_40
   16  A    between atoms: C_34  and  N_46
   17  A    between atoms: C_35  and  C_59
   18  A    between atoms: C_40  and  C_56
   19  A    between atoms: C_55  and  C_62
   20  A    between atoms: C_56  and  C_69
   21  A    between atoms: C_62  and  C_69
                            x       y       z     vdW  Elec       q    Type
                         _______ _______ _______ _____ _____    ______ ____

>  <TORSDO>
F 21

$$$$
=
 OpenBabel11032420343D

 69 77  0  0  1  0  0  0  0  0999 V2000
  189.6400  177.0320  138.0610 C   0  0  2  0  0  3  0  0  0  0  0  0
  187.4500  177.6720  143.9960 C   0  0  0  0  0  2  0  0  0  0  0  0
  186.8860  178.2290  140.6540 S   0  0  0  0  0  0  0  0  0  0  0  0
  188.8810  177.4480  139.2820 C   0  0  0  0  0  0  0  0  0  0  0  0
  189.2180  177.2120  140.6160 C   0  0  0  0  0  0  0  0  0  0  0  0
  187.6250  178.0110  139.1500 C   0  0  0  0  0  0  0  0  0  0  0  0
  190.5790  176.4780  142.4910 C   0  0  0  0  0  3  0  0  0  0  0  0
  190.4180  176.6550  141.0980 C   0  0  0  0  0  3  0  0  0  0  0  0
  188.3640  177.4030  142.8610 C   0  0  0  0  0  0  0  0  0  0  0  0
  188.2010  177.5870  141.4970 C   0  0  0  0  0  0  0  0  0  0  0  0
  187.9190  177.2110  146.4880 N   0  0  0  0  0  2  0  0  0  0  0  0
  189.5320  176.8640  143.3410 C   0  0  0  0  0  0  0  0  0  0  0  0
  189.1310  177.7150  136.9020 O   0  0  0  0  0  0  0  0  0  0  0  0
  187.8330  178.2560  136.8160 C   0  0  0  0  0  0  0  0  0  0  0  0
  188.3360  177.1970  145.1210 C   0  0  0  0  0  0  0  0  0  0  0  0
  189.5000  176.7510  144.7500 N   0  0  0  0  0  0  0  0  0  0  0  0
  187.0980  178.3980  137.8830 N   0  0  0  0  0  0  0  0  0  0  0  0
  188.8050  176.8430  147.5860 C   0  0  2  0  0  3  0  0  0  0  0  0
  188.4680  177.6810  148.8130 C   0  0  0  0  0  1  0  0  0  0  0  0
  192.3070  175.8010  147.7120 C   0  0  0  0  0  2  0  0  0  0  0  0
  191.0900  177.8370  148.1300 C   0  0  0  0  0  2  0  0  0  0  0  0
  192.1130  176.8970  148.7400 C   0  0  0  0  0  2  0  0  0  0  0  0
  190.9610  175.6420  147.0370 C   0  0  0  0  0  2  0  0  0  0  0  0
  190.2720  176.9940  147.1550 C   0  0  0  0  0  3  0  0  0  0  0  0
  187.3060  178.7060  135.4960 C   0  0  0  0  0  2  0  0  0  0  0  0
  187.0850  177.5050  134.5940 C   0  0  0  0  0  2  0  0  0  0  0  0
  185.6660  176.9890  134.7840 C   0  0  0  0  0  2  0  0  0  0  0  0
  185.6150  175.9750  135.9220 C   0  0  0  0  0  2  0  0  0  0  0  0
  184.2810  175.2410  135.9660 C   0  0  0  0  0  2  0  0  0  0  0  0
  183.2810  176.0670  136.6220 N   0  0  0  0  0  2  0  0  0  0  0  0
  183.3380  175.7580  138.0440 C   0  0  0  0  0  2  0  0  0  0  0  0
  183.5470  178.1110  138.3940 O   0  0  0  0  0  1  0  0  0  0  0  0
  182.9090  176.9630  138.8750 C   0  0  1  0  0  3  0  0  0  0  0  0
  181.3880  177.1410  138.8520 C   0  0  2  0  0  3  0  0  0  0  0  0
  179.8220  178.4120  140.1640 O   0  0  0  0  0  1  0  0  0  0  0  0
  180.9820  178.5170  139.3880 C   0  0  2  0  0  3  0  0  0  0  0  0
  179.5920  180.4100  138.5300 C   0  0  0  0  0  2  0  0  0  0  0  0
  180.0860  181.7680  138.6600 N   0  0  0  0  0  0  0  0  0  0  0  0
  181.9400  180.3700  138.1100 N   0  0  0  0  0  2  0  0  0  0  0  0
  179.6840  182.4770  137.4530 C   0  0  0  0  0  1  0  0  0  0  0  0
  180.7750  179.5100  138.2460 C   0  0  1  0  0  3  0  0  0  0  0  0
  181.5420  181.6720  138.6390 C   0  0  0  0  0  2  0  0  0  0  0  0
  179.6300  175.9050  138.9870 O   0  0  0  0  0  1  0  0  0  0  0  0
  180.7720  176.1340  139.6030 O   0  0  0  0  0  0  0  0  0  0  0  0
  189.4750  175.5250  137.8880 C   0  0  0  0  0  2  0  0  0  0  0  0
  193.9120  175.4210  138.7040 C   0  0  1  0  0  3  0  0  0  0  0  0
  193.2530  176.5110  137.8760 C   0  0  0  0  0  2  0  0  0  0  0  0
  191.5560  174.4360  134.8620 C   0  0  0  0  0  2  0  0  0  0  0  0
  190.6340  174.8410  137.1700 C   0  0  1  0  0  3  0  0  0  0  0  0
  192.9650  175.0570  137.5590 C   0  0  1  0  0  0  0  0  0  0  0  0
  190.9340  175.4700  135.8050 C   0  0  0  0  0  2  0  0  0  0  0  0
  192.7030  173.6950  135.4110 N   0  0  0  0  0  0  0  0  0  0  0  0
  193.6040  174.4840  136.2670 C   0  0  0  0  0  2  0  0  0  0  0  0
  191.7290  174.5630  138.0410 O   0  0  0  0  0  0  0  0  0  0  0  0
  192.2650  172.4800  136.0830 C   0  0  0  0  0  2  0  0  0  0  0  0
  191.0480  171.0870  134.5980 O   0  0  0  0  0  0  0  0  0  0  0  0
  189.7540  172.5530  135.9030 N   0  0  0  0  0  2  0  0  0  0  0  0
  191.0030  172.0020  135.4620 C   0  0  0  0  0  0  0  0  0  0  0  0
  187.5470  172.9880  134.9690 C   0  0  0  0  0  3  0  0  0  0  0  0
  186.7550  170.3480  135.4220 C   0  0  0  0  0  3  0  0  0  0  0  0
  186.2570  172.5770  134.6270 C   0  0  0  0  0  3  0  0  0  0  0  0
  188.0430  170.7620  135.7710 C   0  0  0  0  0  3  0  0  0  0  0  0
  188.4470  172.0870  135.5440 C   0  0  0  0  0  0  0  0  0  0  0  0
  185.8630  171.2560  134.8520 C   0  0  0  0  0  3  0  0  0  0  0  0
  195.3850  175.3360  138.3300 C   0  0  0  0  0  2  0  0  0  0  0  0
  196.1260  174.6990  139.4060 N   0  0  0  0  0  2  0  0  0  0  0  0
  198.1950  175.8380  138.7710 O   0  0  0  0  0  0  0  0  0  0  0  0
  198.1000  174.4710  140.6140 O   0  0  0  0  0  1  0  0  0  0  0  0
  197.5040  174.9890  139.6300 C   0  0  0  0  0  0  0  0  0  0  0  0
  1 45  1  6  0  0  0
  1  4  1  0  0  0  0
  2 15  1  0  0  0  0
  3 10  1  0  0  0  0
  4  5  1  0  0  0  0
  5  8  2  0  0  0  0
  5 10  1  0  0  0  0
  6  4  2  0  0  0  0
  6  3  1  0  0  0  0
  7 12  2  0  0  0  0
  8  7  1  0  0  0  0
  9 12  1  0  0  0  0
  9  2  1  0  0  0  0
 10  9  2  0  0  0  0
 11 18  1  0  0  0  0
 12 16  1  0  0  0  0
 13  1  1  0  0  0  0
 14 13  1  0  0  0  0
 14 17  2  0  0  0  0
 15 11  1  0  0  0  0
 16 15  2  0  0  0  0
 17  6  1  0  0  0  0
 18 19  1  1  0  0  0
 20 22  1  0  0  0  0
 21 22  1  0  0  0  0
 23 24  1  0  0  0  0
 23 20  1  0  0  0  0
 24 18  1  0  0  0  0
 24 21  1  0  0  0  0
 25 14  1  0  0  0  0
 26 27  1  0  0  0  0
 26 25  1  0  0  0  0
 27 28  1  0  0  0  0
 28 29  1  0  0  0  0
 29 30  1  0  0  0  0
 30 31  1  0  0  0  0
 31 33  1  0  0  0  0
 33 32  1  6  0  0  0
 34 33  1  0  0  0  0
 34 36  1  0  0  0  0
 34 44  1  1  0  0  0
 36 35  1  6  0  0  0
 37 38  1  0  0  0  0
 39 41  1  0  0  0  0
 39 42  1  0  0  0  0
 40 38  1  0  0  0  0
 41 37  1  0  0  0  0
 41 36  1  1  0  0  0
 42 38  1  0  0  0  0
 43 44  1  0  0  0  0
 46 65  1  6  0  0  0
 47 46  1  0  0  0  0
 48 52  1  0  0  0  0
 48 51  1  0  0  0  0
 49 45  1  1  0  0  0
 49 54  1  0  0  0  0
 50 53  1  6  0  0  0
 50 47  1  0  0  0  0
 50 54  1  0  0  0  0
 50 46  1  0  0  0  0
 51 49  1  0  0  0  0
 52 55  1  0  0  0  0
 52 53  1  0  0  0  0
 56 58  2  0  0  0  0
 58 57  1  0  0  0  0
 58 55  1  0  0  0  0
 59 63  1  0  0  0  0
 60 62  1  0  0  0  0
 61 64  1  0  0  0  0
 61 59  2  0  0  0  0
 63 62  2  0  0  0  0
 63 57  1  0  0  0  0
 64 60  2  0  0  0  0
 65 66  1  0  0  0  0
 66 69  1  0  0  0  0
 67 69  2  0  0  0  0
 69 68  1  0  0  0  0
M  END
>  <MODEL>
8

>  <REMARK>
 VINA RESULT:      -4.6      3.045      7.668
  Name = 
  21 active torsions:
  status: ('A' for Active; 'I' for Inactive)
    1  A    between atoms: C_1  and  C_32
    2  A    between atoms: C_2  and  C_8
    3  A    between atoms: C_8  and  N_16
    4  A    between atoms: C_12  and  C_35
    5  A    between atoms: C_12  and  O_58
    6  A    between atoms: C_12  and  C_61
    7  A    between atoms: C_15  and  C_32
    8  A    between atoms: N_25  and  C_49
    9  A    between atoms: C_28  and  N_50
   10  A    between atoms: C_28  and  C_52
   11  A    between atoms: C_29  and  N_46
   12  A    between atoms: C_29  and  C_61
   13  A    between atoms: C_33  and  N_44
   14  A    between atoms: C_33  and  C_67
   15  A    between atoms: C_34  and  C_40
   16  A    between atoms: C_34  and  N_46
   17  A    between atoms: C_35  and  C_59
   18  A    between atoms: C_40  and  C_56
   19  A    between atoms: C_55  and  C_62
   20  A    between atoms: C_56  and  C_69
   21  A    between atoms: C_62  and  C_69
                            x       y       z     vdW  Elec       q    Type
                         _______ _______ _______ _____ _____    ______ ____

>  <TORSDO>
F 21

$$$$
=
 OpenBabel11032420343D

 69 77  0  0  1  0  0  0  0  0999 V2000
  184.2390  178.9630  141.5080 C   0  0  2  0  0  3  0  0  0  0  0  0
  189.6650  177.0090  138.8300 C   0  0  0  0  0  2  0  0  0  0  0  0
  188.0070  177.7440  141.7470 S   0  0  0  0  0  0  0  0  0  0  0  0
  185.6660  178.5960  141.2380 C   0  0  0  0  0  0  0  0  0  0  0  0
  186.2640  178.3600  140.0000 C   0  0  0  0  0  0  0  0  0  0  0  0
  186.5100  178.3060  142.2930 C   0  0  0  0  0  0  0  0  0  0  0  0
  186.4430  178.2470  137.5790 C   0  0  0  0  0  3  0  0  0  0  0  0
  185.6850  178.5540  138.7310 C   0  0  0  0  0  3  0  0  0  0  0  0
  188.3010  177.5660  138.9870 C   0  0  0  0  0  0  0  0  0  0  0  0
  187.5670  177.8730  140.1220 C   0  0  0  0  0  0  0  0  0  0  0  0
  190.8530  176.4540  136.6120 N   0  0  0  0  0  2  0  0  0  0  0  0
  187.7470  177.7560  137.7450 C   0  0  0  0  0  0  0  0  0  0  0  0
  184.0890  179.4100  142.8670 O   0  0  0  0  0  0  0  0  0  0  0  0
  184.9740  179.0680  143.9090 C   0  0  0  0  0  0  0  0  0  0  0  0
  189.7200  176.9560  137.3230 C   0  0  0  0  0  0  0  0  0  0  0  0
  188.6470  177.3790  136.7220 N   0  0  0  0  0  0  0  0  0  0  0  0
  186.1340  178.5330  143.6490 N   0  0  0  0  0  0  0  0  0  0  0  0
  190.9470  176.4900  135.1570 C   0  0  2  0  0  3  0  0  0  0  0  0
  189.7890  177.3060  134.5940 C   0  0  0  0  0  1  0  0  0  0  0  0
  190.8960  172.8630  135.6120 C   0  0  0  0  0  2  0  0  0  0  0  0
  192.3910  174.4600  134.6060 C   0  0  0  0  0  2  0  0  0  0  0  0
  192.3450  173.3050  135.5890 C   0  0  0  0  0  2  0  0  0  0  0  0
  190.0870  174.1230  135.3870 C   0  0  0  0  0  2  0  0  0  0  0  0
  190.9880  175.0610  134.5940 C   0  0  0  0  0  3  0  0  0  0  0  0
  184.5970  179.3550  145.3220 C   0  0  0  0  0  2  0  0  0  0  0  0
  184.9650  178.1730  146.2020 C   0  0  0  0  0  2  0  0  0  0  0  0
  186.2950  177.5970  145.7390 C   0  0  0  0  0  2  0  0  0  0  0  0
  187.2000  177.3190  146.9330 C   0  0  0  0  0  2  0  0  0  0  0  0
  187.2690  178.5100  147.8800 C   0  0  0  0  0  2  0  0  0  0  0  0
  188.6500  178.7660  148.2550 N   0  0  0  0  0  2  0  0  0  0  0  0
  189.3830  177.5220  148.0620 C   0  0  0  0  0  2  0  0  0  0  0  0
  191.4940  177.7410  149.1560 O   0  0  0  0  0  1  0  0  0  0  0  0
  190.8750  177.7950  147.9030 C   0  0  1  0  0  3  0  0  0  0  0  0
  191.5220  176.7970  146.9370 C   0  0  2  0  0  3  0  0  0  0  0  0
  190.1210  175.6980  145.3190 O   0  0  0  0  0  1  0  0  0  0  0  0
  190.8660  176.8590  145.5540 C   0  0  2  0  0  3  0  0  0  0  0  0
  191.4320  176.4690  143.1510 C   0  0  0  0  0  2  0  0  0  0  0  0
  191.2850  177.5560  142.2020 N   0  0  0  0  0  0  0  0  0  0  0  0
  192.1410  178.4740  144.2310 N   0  0  0  0  0  2  0  0  0  0  0  0
  192.3880  177.4420  141.2590 C   0  0  0  0  0  1  0  0  0  0  0  0
  191.9130  177.0570  144.4600 C   0  0  1  0  0  3  0  0  0  0  0  0
  191.4900  178.7850  142.9600 C   0  0  0  0  0  2  0  0  0  0  0  0
  192.6190  175.2640  147.9770 O   0  0  0  0  0  1  0  0  0  0  0  0
  191.4330  175.4990  147.4510 O   0  0  0  0  0  0  0  0  0  0  0  0
  183.3770  177.7260  141.2720 C   0  0  0  0  0  2  0  0  0  0  0  0
  180.9250  180.9830  139.3360 C   0  0  1  0  0  3  0  0  0  0  0  0
  180.3590  180.0390  140.3830 C   0  0  0  0  0  2  0  0  0  0  0  0
  180.8750  176.4170  138.6840 C   0  0  0  0  0  2  0  0  0  0  0  0
  182.5550  177.7650  139.9880 C   0  0  1  0  0  3  0  0  0  0  0  0
  181.1080  179.4710  139.1930 C   0  0  1  0  0  0  0  0  0  0  0  0
  181.2870  176.9090  140.0740 C   0  0  0  0  0  2  0  0  0  0  0  0
  180.7880  177.4590  137.6490 N   0  0  0  0  0  0  0  0  0  0  0  0
  180.2610  178.7540  138.1110 C   0  0  0  0  0  2  0  0  0  0  0  0
  182.4460  179.0810  139.4480 O   0  0  0  0  0  0  0  0  0  0  0  0
  182.0610  177.6210  136.9620 C   0  0  0  0  0  2  0  0  0  0  0  0
  182.5160  176.0610  135.2340 O   0  0  0  0  0  0  0  0  0  0  0  0
  183.0300  175.3390  137.4120 N   0  0  0  0  0  2  0  0  0  0  0  0
  182.5250  176.2970  136.4710 C   0  0  0  0  0  0  0  0  0  0  0  0
  183.1120  173.2770  136.1180 C   0  0  0  0  0  3  0  0  0  0  0  0
  185.4390  172.4600  137.4300 C   0  0  0  0  0  3  0  0  0  0  0  0
  183.7000  172.0510  135.7990 C   0  0  0  0  0  3  0  0  0  0  0  0
  184.8450  173.6830  137.7530 C   0  0  0  0  0  3  0  0  0  0  0  0
  183.6760  174.0990  137.0970 C   0  0  0  0  0  0  0  0  0  0  0  0
  184.8650  171.6450  136.4550 C   0  0  0  0  0  3  0  0  0  0  0  0
  179.7820  181.5420  138.5010 C   0  0  0  0  0  2  0  0  0  0  0  0
  180.3060  182.0990  137.2650 N   0  0  0  0  0  2  0  0  0  0  0  0
  179.8380  184.3850  137.9950 O   0  0  0  0  0  1  0  0  0  0  0  0
  180.8830  183.9600  135.9960 O   0  0  0  0  0  0  0  0  0  0  0  0
  180.3590  183.5080  137.0510 C   0  0  0  0  0  0  0  0  0  0  0  0
  1 45  1  1  0  0  0
  1 13  1  0  0  0  0
  2  9  1  0  0  0  0
  3  6  1  0  0  0  0
  4  1  1  0  0  0  0
  4  6  2  0  0  0  0
  5 10  1  0  0  0  0
  5  4  1  0  0  0  0
  6 17  1  0  0  0  0
  7 12  2  0  0  0  0
  7  8  1  0  0  0  0
  8  5  2  0  0  0  0
  9 10  2  0  0  0  0
 10  3  1  0  0  0  0
 11 15  1  0  0  0  0
 12  9  1  0  0  0  0
 13 14  1  0  0  0  0
 14 25  1  0  0  0  0
 15  2  1  0  0  0  0
 16 15  2  0  0  0  0
 16 12  1  0  0  0  0
 17 14  2  0  0  0  0
 18 19  1  6  0  0  0
 18 11  1  0  0  0  0
 21 22  1  0  0  0  0
 22 20  1  0  0  0  0
 23 20  1  0  0  0  0
 24 21  1  0  0  0  0
 24 18  1  0  0  0  0
 24 23  1  0  0  0  0
 25 26  1  0  0  0  0
 27 26  1  0  0  0  0
 27 28  1  0  0  0  0
 28 29  1  0  0  0  0
 29 30  1  0  0  0  0
 31 30  1  0  0  0  0
 33 31  1  0  0  0  0
 33 32  1  1  0  0  0
 34 44  1  1  0  0  0
 34 33  1  0  0  0  0
 36 35  1  6  0  0  0
 36 34  1  0  0  0  0
 37 41  1  0  0  0  0
 38 42  1  0  0  0  0
 38 37  1  0  0  0  0
 39 41  1  0  0  0  0
 40 38  1  0  0  0  0
 41 36  1  1  0  0  0
 42 39  1  0  0  0  0
 44 43  1  0  0  0  0
 46 65  1  6  0  0  0
 46 47  1  0  0  0  0
 48 51  1  0  0  0  0
 49 51  1  0  0  0  0
 49 45  1  1  0  0  0
 50 53  1  6  0  0  0
 50 46  1  0  0  0  0
 50 54  1  0  0  0  0
 50 47  1  0  0  0  0
 52 53  1  0  0  0  0
 52 48  1  0  0  0  0
 54 49  1  0  0  0  0
 55 52  1  0  0  0  0
 56 58  2  0  0  0  0
 58 55  1  0  0  0  0
 58 57  1  0  0  0  0
 59 63  1  0  0  0  0
 60 62  1  0  0  0  0
 61 59  2  0  0  0  0
 61 64  1  0  0  0  0
 63 57  1  0  0  0  0
 63 62  2  0  0  0  0
 64 60  2  0  0  0  0
 66 65  1  0  0  0  0
 68 69  2  0  0  0  0
 69 66  1  0  0  0  0
 69 67  1  0  0  0  0
M  END
>  <MODEL>
9

>  <REMARK>
 VINA RESULT:      -4.5      3.209      8.936
  Name = 
  21 active torsions:
  status: ('A' for Active; 'I' for Inactive)
    1  A    between atoms: C_1  and  C_32
    2  A    between atoms: C_2  and  C_8
    3  A    between atoms: C_8  and  N_16
    4  A    between atoms: C_12  and  C_35
    5  A    between atoms: C_12  and  O_58
    6  A    between atoms: C_12  and  C_61
    7  A    between atoms: C_15  and  C_32
    8  A    between atoms: N_25  and  C_49
    9  A    between atoms: C_28  and  N_50
   10  A    between atoms: C_28  and  C_52
   11  A    between atoms: C_29  and  N_46
   12  A    between atoms: C_29  and  C_61
   13  A    between atoms: C_33  and  N_44
   14  A    between atoms: C_33  and  C_67
   15  A    between atoms: C_34  and  C_40
   16  A    between atoms: C_34  and  N_46
   17  A    between atoms: C_35  and  C_59
   18  A    between atoms: C_40  and  C_56
   19  A    between atoms: C_55  and  C_62
   20  A    between atoms: C_56  and  C_69
   21  A    between atoms: C_62  and  C_69
                            x       y       z     vdW  Elec       q    Type
                         _______ _______ _______ _____ _____    ______ ____

>  <TORSDO>
F 21

$$$$
