=
 OpenBabel11032420583D

 39 45  0  0  1  0  0  0  0  0999 V2000
  188.5630  177.1040  136.9320 C   0  0  2  0  0  3  0  0  0  0  0  0
  189.8870  177.0760  137.5580 N   0  0  0  0  0  0  0  0  0  0  0  0
  192.1930  174.9170  136.1230 N   0  0  0  0  0  0  0  0  0  0  0  0
  187.5990  177.8450  137.8460 C   0  0  1  0  0  3  0  0  0  0  0  0
  191.2700  175.7630  135.9000 N   0  0  0  0  0  0  0  0  0  0  0  0
  186.1410  178.5310  137.1310 Cl  0  0  0  0  0  0  0  0  0  0  0  0
  191.3600  176.4280  139.3640 C   0  0  0  0  0  3  0  0  0  0  0  0
  187.8140  177.9340  139.1820 C   0  0  0  0  0  0  0  0  0  0  0  0
  192.7240  175.0510  137.4810 C   0  0  2  0  0  3  0  0  0  0  0  0
  191.1130  176.5670  137.0540 C   0  0  0  0  0  0  0  0  0  0  0  0
  191.9480  176.2150  138.0010 C   0  0  0  0  0  0  0  0  0  0  0  0
  189.0690  177.4050  139.7750 C   0  0  0  0  0  3  0  0  0  0  0  0
  190.0440  177.0100  138.9660 C   0  0  0  0  0  0  0  0  0  0  0  0
  186.7760  175.6990  135.8900 C   0  0  1  0  0  3  0  0  0  0  0  0
  188.0570  175.6800  136.7180 C   0  0  1  0  0  3  0  0  0  0  0  0
  188.2760  173.9340  135.1210 O   0  0  0  0  0  1  0  0  0  0  0  0
  188.1140  175.3170  135.2470 C   0  0  1  0  0  3  0  0  0  0  0  0
  184.1230  172.4340  136.8210 C   0  0  0  0  0  3  0  0  0  0  0  0
  184.9020  174.1440  135.2910 C   0  0  0  0  0  3  0  0  0  0  0  0
  185.0870  172.8320  137.7530 C   0  0  0  0  0  3  0  0  0  0  0  0
  184.0280  173.0910  135.5920 C   0  0  0  0  0  3  0  0  0  0  0  0
  185.8830  174.5320  136.2120 C   0  0  0  0  0  0  0  0  0  0  0  0
  185.9600  173.8830  137.4520 C   0  0  0  0  0  3  0  0  0  0  0  0
  186.7950  178.5780  141.4430 C   0  0  0  0  0  0  0  0  0  0  0  0
  186.8200  178.5570  140.0110 N   0  0  0  0  0  2  0  0  0  0  0  0
  187.7460  178.0970  142.1170 O   0  0  0  0  0  0  0  0  0  0  0  0
  185.6590  178.9800  143.4630 O   0  0  0  0  0  0  0  0  0  0  0  0
  185.6350  179.2300  142.1280 C   0  0  2  0  0  3  0  0  0  0  0  0
  184.7780  178.2190  142.7060 N   0  0  2  0  0  0  0  0  0  0  0  0
  182.4200  178.7230  141.7310 C   0  0  0  0  0  1  0  0  0  0  0  0
  183.2990  179.7780  143.7790 O   0  0  0  0  0  0  0  0  0  0  0  0
  182.8720  178.5080  144.1470 N   0  0  0  0  0  2  0  0  0  0  0  0
  183.4380  178.7920  142.8570 C   0  0  2  0  0  0  0  0  0  0  0  0
  194.1970  175.3370  137.4400 C   0  0  0  0  0  0  0  0  0  0  0  0
  194.6460  176.1860  136.6790 O   0  0  0  0  0  0  0  0  0  0  0  0
  195.3900  175.2660  139.4960 O   0  0  0  0  0  1  0  0  0  0  0  0
  195.1150  174.5530  138.3280 C   0  0  2  0  0  3  0  0  0  0  0  0
  196.4070  174.1630  137.6190 C   0  0  0  0  0  2  0  0  0  0  0  0
  197.4500  175.0260  137.9700 O   0  0  0  0  0  1  0  0  0  0  0  0
  1  2  1  1  0  0  0
  1  4  1  0  0  0  0
  2 13  1  0  0  0  0
  3  9  1  0  0  0  0
  4  6  1  1  0  0  0
  4  8  1  0  0  0  0
  5  3  2  0  0  0  0
  5 10  1  0  0  0  0
  8 12  2  0  0  0  0
  8 25  1  0  0  0  0
  9 34  1  6  0  0  0
  9 11  1  0  0  0  0
 10  2  1  0  0  0  0
 10 11  2  0  0  0  0
 11  7  1  0  0  0  0
 13  7  2  0  0  0  0
 13 12  1  0  0  0  0
 14 22  1  1  0  0  0
 14 15  1  0  0  0  0
 15  1  1  6  0  0  0
 17 16  1  1  0  0  0
 17 14  1  0  0  0  0
 17 15  1  0  0  0  0
 18 20  1  0  0  0  0
 19 21  1  0  0  0  0
 19 22  2  0  0  0  0
 21 18  2  0  0  0  0
 22 23  1  0  0  0  0
 23 20  2  0  0  0  0
 24 26  2  0  0  0  0
 25 24  1  0  0  0  0
 28 24  1  6  0  0  0
 28 29  1  0  0  0  0
 28 27  1  0  0  0  0
 29 33  1  0  0  0  0
 29 27  1  1  0  0  0
 31 32  1  0  0  0  0
 33 30  1  6  0  0  0
 33 31  1  0  0  0  0
 33 32  1  0  0  0  0
 34 37  1  0  0  0  0
 35 34  2  0  0  0  0
 37 36  1  1  0  0  0
 38 39  1  0  0  0  0
 38 37  1  0  0  0  0
M  END
>  <MODEL>
1

>  <REMARK>
 VINA RESULT:      -7.4      0.000      0.000
  Name = 
  8 active torsions:
  status: ('A' for Active; 'I' for Inactive)
    1  A    between atoms: C_1  and  C_35
    2  A    between atoms: C_3  and  C_29
    3  A    between atoms: C_4  and  C_8
    4  A    between atoms: C_10  and  C_11
    5  A    between atoms: C_13  and  C_30
    6  A    between atoms: C_13  and  C_35
    7  A    between atoms: N_14  and  C_28
    8  A    between atoms: C_34  and  N_36
                            x       y       z     vdW  Elec       q    Type
                         _______ _______ _______ _____ _____    ______ ____

>  <TORSDO>
F 8

$$$$
=
 OpenBabel11032420583D

 39 45  0  0  1  0  0  0  0  0999 V2000
  189.8260  177.5200  138.6500 C   0  0  2  0  0  3  0  0  0  0  0  0
  188.8910  176.9810  137.6600 N   0  0  0  0  0  0  0  0  0  0  0  0
  185.5580  177.8360  138.1030 N   0  0  0  0  0  0  0  0  0  0  0  0
  191.1660  176.8160  138.5020 C   0  0  1  0  0  3  0  0  0  0  0  0
  186.7600  178.2490  138.1420 N   0  0  0  0  0  0  0  0  0  0  0  0
  192.6020  177.6260  139.1250 Cl  0  0  0  0  0  0  0  0  0  0  0  0
  187.6330  175.1400  136.7210 C   0  0  0  0  0  3  0  0  0  0  0  0
  191.2600  175.5770  137.9590 C   0  0  0  0  0  0  0  0  0  0  0  0
  185.4420  176.6040  137.3190 C   0  0  2  0  0  3  0  0  0  0  0  0
  187.5590  177.3740  137.3680 C   0  0  0  0  0  0  0  0  0  0  0  0
  186.8430  176.4090  136.8450 C   0  0  0  0  0  0  0  0  0  0  0  0
  190.0590  174.9190  137.3830 C   0  0  0  0  0  3  0  0  0  0  0  0
  188.9440  175.6250  137.2480 C   0  0  0  0  0  0  0  0  0  0  0  0
  189.9270  178.2650  141.0350 C   0  0  1  0  0  3  0  0  0  0  0  0
  189.2880  177.2840  140.0590 C   0  0  1  0  0  3  0  0  0  0  0  0
  187.5300  178.0720  141.4500 O   0  0  0  0  0  1  0  0  0  0  0  0
  188.4970  178.4880  140.5290 C   0  0  1  0  0  3  0  0  0  0  0  0
  190.2930  176.6900  145.0290 C   0  0  0  0  0  3  0  0  0  0  0  0
  189.9720  178.5620  143.5250 C   0  0  0  0  0  3  0  0  0  0  0  0
  190.3600  175.8240  143.9330 C   0  0  0  0  0  3  0  0  0  0  0  0
  190.1020  178.0580  144.8260 C   0  0  0  0  0  3  0  0  0  0  0  0
  190.0160  177.6970  142.4250 C   0  0  0  0  0  0  0  0  0  0  0  0
  190.2300  176.3270  142.6340 C   0  0  0  0  0  3  0  0  0  0  0  0
  193.5950  175.1370  136.9970 C   0  0  0  0  0  0  0  0  0  0  0  0
  192.5360  174.9170  137.9360 N   0  0  0  0  0  2  0  0  0  0  0  0
  193.5090  176.0420  136.1230 O   0  0  0  0  0  0  0  0  0  0  0  0
  194.9460  173.7680  138.3500 O   0  0  0  0  0  0  0  0  0  0  0  0
  194.8310  174.3020  137.1060 C   0  0  2  0  0  3  0  0  0  0  0  0
  195.7290  174.8820  138.0800 N   0  0  2  0  0  0  0  0  0  0  0  0
  197.3770  172.9600  137.4890 C   0  0  0  0  0  1  0  0  0  0  0  0
  198.1050  175.1940  138.2350 O   0  0  0  0  0  0  0  0  0  0  0  0
  197.7750  175.3200  136.8910 N   0  0  0  0  0  2  0  0  0  0  0  0
  197.0870  174.4220  137.7770 C   0  0  2  0  0  0  0  0  0  0  0  0
  184.4890  176.8000  136.1760 C   0  0  0  0  0  0  0  0  0  0  0  0
  184.9000  177.1520  135.0770 O   0  0  0  0  0  0  0  0  0  0  0  0
  182.3880  177.7920  136.6810 O   0  0  0  0  0  1  0  0  0  0  0  0
  183.0240  176.5810  136.4050 C   0  0  2  0  0  3  0  0  0  0  0  0
  182.7600  175.5690  137.5140 C   0  0  0  0  0  2  0  0  0  0  0  0
  182.7590  174.2640  137.0100 O   0  0  0  0  0  1  0  0  0  0  0  0
  1  2  1  6  0  0  0
  3  5  2  0  0  0  0
  4  1  1  0  0  0  0
  4  6  1  1  0  0  0
  7 11  1  0  0  0  0
  7 13  2  0  0  0  0
  8  4  1  0  0  0  0
  9 34  1  6  0  0  0
  9  3  1  0  0  0  0
 10  2  1  0  0  0  0
 10  5  1  0  0  0  0
 11  9  1  0  0  0  0
 11 10  2  0  0  0  0
 12  8  2  0  0  0  0
 13 12  1  0  0  0  0
 13  2  1  0  0  0  0
 14 22  1  1  0  0  0
 15  1  1  6  0  0  0
 15 17  1  0  0  0  0
 15 14  1  0  0  0  0
 17 14  1  0  0  0  0
 17 16  1  1  0  0  0
 19 21  2  0  0  0  0
 20 18  2  0  0  0  0
 21 18  1  0  0  0  0
 22 23  2  0  0  0  0
 22 19  1  0  0  0  0
 23 20  1  0  0  0  0
 24 25  1  0  0  0  0
 25  8  1  0  0  0  0
 26 24  2  0  0  0  0
 28 24  1  1  0  0  0
 28 29  1  0  0  0  0
 28 27  1  0  0  0  0
 29 27  1  1  0  0  0
 32 33  1  0  0  0  0
 32 31  1  0  0  0  0
 33 30  1  6  0  0  0
 33 29  1  0  0  0  0
 33 31  1  0  0  0  0
 34 37  1  0  0  0  0
 35 34  2  0  0  0  0
 37 36  1  1  0  0  0
 37 38  1  0  0  0  0
 39 38  1  0  0  0  0
M  END
>  <MODEL>
2

>  <REMARK>
 VINA RESULT:      -7.2      3.130      9.700
  Name = 
  8 active torsions:
  status: ('A' for Active; 'I' for Inactive)
    1  A    between atoms: C_1  and  C_35
    2  A    between atoms: C_3  and  C_29
    3  A    between atoms: C_4  and  C_8
    4  A    between atoms: C_10  and  C_11
    5  A    between atoms: C_13  and  C_30
    6  A    between atoms: C_13  and  C_35
    7  A    between atoms: N_14  and  C_28
    8  A    between atoms: C_34  and  N_36
                            x       y       z     vdW  Elec       q    Type
                         _______ _______ _______ _____ _____    ______ ____

>  <TORSDO>
F 8

$$$$
=
 OpenBabel11032420583D

 39 45  0  0  1  0  0  0  0  0999 V2000
  189.4660  178.0380  139.2120 C   0  0  2  0  0  3  0  0  0  0  0  0
  189.3460  178.1290  140.6680 N   0  0  0  0  0  0  0  0  0  0  0  0
  191.9470  176.7350  142.4930 N   0  0  0  0  0  0  0  0  0  0  0  0
  188.1320  178.4050  138.5800 C   0  0  1  0  0  3  0  0  0  0  0  0
  191.6360  177.4270  141.4720 N   0  0  0  0  0  0  0  0  0  0  0  0
  188.1300  178.9420  136.9010 Cl  0  0  0  0  0  0  0  0  0  0  0  0
  188.3500  177.4240  142.7570 C   0  0  0  0  0  3  0  0  0  0  0  0
  186.9660  178.2750  139.2590 C   0  0  0  0  0  0  0  0  0  0  0  0
  190.8550  176.7000  143.4670 C   0  0  2  0  0  3  0  0  0  0  0  0
  190.3370  177.9540  141.6690 C   0  0  0  0  0  0  0  0  0  0  0  0
  189.8400  177.5840  142.8230 C   0  0  0  0  0  0  0  0  0  0  0  0
  186.9730  177.8760  140.6900 C   0  0  0  0  0  3  0  0  0  0  0  0
  188.1320  177.8250  141.3360 C   0  0  0  0  0  0  0  0  0  0  0  0
  190.1320  176.5540  137.3120 C   0  0  1  0  0  3  0  0  0  0  0  0
  189.8380  176.6140  138.8070 C   0  0  1  0  0  3  0  0  0  0  0  0
  191.7920  175.2820  138.5700 O   0  0  0  0  0  1  0  0  0  0  0  0
  191.2760  176.5600  138.3320 C   0  0  1  0  0  3  0  0  0  0  0  0
  189.1920  172.7360  135.5500 C   0  0  0  0  0  3  0  0  0  0  0  0
  190.5350  174.7510  135.6160 C   0  0  0  0  0  3  0  0  0  0  0  0
  188.4600  173.1910  136.6510 C   0  0  0  0  0  3  0  0  0  0  0  0
  190.2270  173.5160  135.0310 C   0  0  0  0  0  3  0  0  0  0  0  0
  189.8200  175.2020  136.7320 C   0  0  0  0  0  0  0  0  0  0  0  0
  188.7670  174.4240  137.2360 C   0  0  0  0  0  3  0  0  0  0  0  0
  184.5880  179.2200  139.1180 C   0  0  0  0  0  0  0  0  0  0  0  0
  185.7270  178.5380  138.5810 N   0  0  0  0  0  2  0  0  0  0  0  0
  184.6260  179.7440  140.2650 O   0  0  0  0  0  0  0  0  0  0  0  0
  182.2720  179.6190  139.0320 O   0  0  0  0  0  0  0  0  0  0  0  0
  183.3620  179.3430  138.2690 C   0  0  2  0  0  3  0  0  0  0  0  0
  182.4200  178.3020  138.6180 N   0  0  2  0  0  0  0  0  0  0  0  0
  182.0990  177.7590  136.0950 C   0  0  0  0  0  1  0  0  0  0  0  0
  180.3050  178.6470  137.5340 O   0  0  0  0  0  0  0  0  0  0  0  0
  180.3920  177.2870  137.8130 N   0  0  0  0  0  2  0  0  0  0  0  0
  181.5390  178.0840  137.4690 C   0  0  2  0  0  0  0  0  0  0  0  0
  191.3140  177.2480  144.7870 C   0  0  0  0  0  0  0  0  0  0  0  0
  192.0850  178.2000  144.8310 O   0  0  0  0  0  0  0  0  0  0  0  0
  189.9840  177.4600  146.7470 O   0  0  0  0  0  1  0  0  0  0  0  0
  190.8350  176.6000  146.0510 C   0  0  2  0  0  3  0  0  0  0  0  0
  191.9890  176.1500  146.9390 C   0  0  0  0  0  2  0  0  0  0  0  0
  192.1060  176.9750  148.0630 O   0  0  0  0  0  1  0  0  0  0  0  0
  1  2  1  1  0  0  0
  2 13  1  0  0  0  0
  2 10  1  0  0  0  0
  3  9  1  0  0  0  0
  4  6  1  6  0  0  0
  4  1  1  0  0  0  0
  4  8  1  0  0  0  0
  5 10  1  0  0  0  0
  5  3  2  0  0  0  0
  7 11  1  0  0  0  0
  8 12  2  0  0  0  0
  9 34  1  1  0  0  0
 10 11  2  0  0  0  0
 11  9  1  0  0  0  0
 12 13  1  0  0  0  0
 13  7  2  0  0  0  0
 14 22  1  1  0  0  0
 14 17  1  0  0  0  0
 14 15  1  0  0  0  0
 15  1  1  6  0  0  0
 17 16  1  1  0  0  0
 17 15  1  0  0  0  0
 18 20  1  0  0  0  0
 19 22  2  0  0  0  0
 20 23  2  0  0  0  0
 21 18  2  0  0  0  0
 21 19  1  0  0  0  0
 22 23  1  0  0  0  0
 24 26  2  0  0  0  0
 25 24  1  0  0  0  0
 25  8  1  0  0  0  0
 28 29  1  0  0  0  0
 28 27  1  0  0  0  0
 28 24  1  1  0  0  0
 29 27  1  1  0  0  0
 31 32  1  0  0  0  0
 33 30  1  6  0  0  0
 33 31  1  0  0  0  0
 33 32  1  0  0  0  0
 33 29  1  0  0  0  0
 34 35  2  0  0  0  0
 34 37  1  0  0  0  0
 37 36  1  1  0  0  0
 37 38  1  0  0  0  0
 38 39  1  0  0  0  0
M  END
>  <MODEL>
3

>  <REMARK>
 VINA RESULT:      -7.1      3.942      5.690
  Name = 
  8 active torsions:
  status: ('A' for Active; 'I' for Inactive)
    1  A    between atoms: C_1  and  C_35
    2  A    between atoms: C_3  and  C_29
    3  A    between atoms: C_4  and  C_8
    4  A    between atoms: C_10  and  C_11
    5  A    between atoms: C_13  and  C_30
    6  A    between atoms: C_13  and  C_35
    7  A    between atoms: N_14  and  C_28
    8  A    between atoms: C_34  and  N_36
                            x       y       z     vdW  Elec       q    Type
                         _______ _______ _______ _____ _____    ______ ____

>  <TORSDO>
F 8

$$$$
=
 OpenBabel11032420583D

 39 45  0  0  1  0  0  0  0  0999 V2000
  189.2250  177.0900  137.5010 C   0  0  2  0  0  3  0  0  0  0  0  0
  190.6800  176.9470  137.5740 N   0  0  0  0  0  0  0  0  0  0  0  0
  192.2180  175.6590  134.7430 N   0  0  0  0  0  0  0  0  0  0  0  0
  188.6830  177.3640  138.8960 C   0  0  1  0  0  3  0  0  0  0  0  0
  191.3220  176.4470  135.1820 N   0  0  0  0  0  0  0  0  0  0  0  0
  187.1050  178.1380  139.0350 Cl  0  0  0  0  0  0  0  0  0  0  0  0
  192.6570  175.8140  138.3850 C   0  0  0  0  0  3  0  0  0  0  0  0
  189.3580  176.9800  140.0070 C   0  0  0  0  0  0  0  0  0  0  0  0
  193.1980  175.3340  135.7820 C   0  0  2  0  0  3  0  0  0  0  0  0
  191.6230  176.7600  136.5290 C   0  0  0  0  0  0  0  0  0  0  0  0
  192.7170  176.1600  136.9280 C   0  0  0  0  0  0  0  0  0  0  0  0
  190.7110  176.3780  139.8910 C   0  0  0  0  0  3  0  0  0  0  0  0
  191.3180  176.3880  138.7110 C   0  0  0  0  0  0  0  0  0  0  0  0
  187.1740  176.0700  136.4970 C   0  0  1  0  0  3  0  0  0  0  0  0
  188.6000  175.8040  136.9650 C   0  0  1  0  0  3  0  0  0  0  0  0
  188.3630  174.6700  134.8900 O   0  0  0  0  0  1  0  0  0  0  0  0
  188.3160  175.9360  135.4820 C   0  0  1  0  0  3  0  0  0  0  0  0
  184.6040  172.6380  136.9250 C   0  0  0  0  0  3  0  0  0  0  0  0
  185.0650  174.8190  135.9730 C   0  0  0  0  0  3  0  0  0  0  0  0
  185.8320  172.6730  137.5930 C   0  0  0  0  0  3  0  0  0  0  0  0
  184.2190  173.7110  136.1170 C   0  0  0  0  0  3  0  0  0  0  0  0
  186.3050  174.8490  136.6230 C   0  0  0  0  0  0  0  0  0  0  0  0
  186.6770  173.7790  137.4490 C   0  0  0  0  0  3  0  0  0  0  0  0
  189.0680  176.4660  142.5020 C   0  0  0  0  0  0  0  0  0  0  0  0
  188.7530  177.1720  141.2960 N   0  0  0  0  0  2  0  0  0  0  0  0
  190.0150  175.6340  142.5380 O   0  0  0  0  0  0  0  0  0  0  0  0
  187.7720  178.0300  143.6850 O   0  0  0  0  0  0  0  0  0  0  0  0
  188.2790  176.7710  143.7360 C   0  0  2  0  0  3  0  0  0  0  0  0
  188.9080  177.8520  144.4620 N   0  0  2  0  0  0  0  0  0  0  0  0
  187.0260  177.8180  146.2560 C   0  0  0  0  0  1  0  0  0  0  0  0
  189.4130  178.1150  146.7960 O   0  0  0  0  0  0  0  0  0  0  0  0
  189.2280  176.7540  146.5800 N   0  0  0  0  0  2  0  0  0  0  0  0
  188.4920  177.7600  145.8640 C   0  0  2  0  0  0  0  0  0  0  0  0
  194.5760  175.7380  135.3440 C   0  0  0  0  0  0  0  0  0  0  0  0
  194.7970  176.8790  134.9550 O   0  0  0  0  0  0  0  0  0  0  0  0
  195.1430  173.4290  135.3190 O   0  0  0  0  0  1  0  0  0  0  0  0
  195.6750  174.7180  135.3680 C   0  0  2  0  0  3  0  0  0  0  0  0
  196.5840  174.8810  136.5810 C   0  0  0  0  0  2  0  0  0  0  0  0
  197.5580  175.8570  136.3480 O   0  0  0  0  0  1  0  0  0  0  0  0
  1  2  1  1  0  0  0
  1  4  1  0  0  0  0
  2 13  1  0  0  0  0
  3  5  2  0  0  0  0
  3  9  1  0  0  0  0
  4  6  1  6  0  0  0
  4  8  1  0  0  0  0
  5 10  1  0  0  0  0
  7 13  2  0  0  0  0
  8 25  1  0  0  0  0
  9 34  1  6  0  0  0
  9 11  1  0  0  0  0
 10 11  2  0  0  0  0
 10  2  1  0  0  0  0
 11  7  1  0  0  0  0
 12  8  2  0  0  0  0
 13 12  1  0  0  0  0
 14 22  1  6  0  0  0
 14 15  1  0  0  0  0
 15  1  1  1  0  0  0
 17 16  1  6  0  0  0
 17 14  1  0  0  0  0
 17 15  1  0  0  0  0
 18 20  1  0  0  0  0
 19 21  1  0  0  0  0
 19 22  2  0  0  0  0
 21 18  2  0  0  0  0
 22 23  1  0  0  0  0
 23 20  2  0  0  0  0
 24 26  2  0  0  0  0
 25 24  1  0  0  0  0
 27 28  1  0  0  0  0
 28 24  1  6  0  0  0
 28 29  1  0  0  0  0
 29 27  1  6  0  0  0
 29 33  1  0  0  0  0
 32 31  1  0  0  0  0
 33 30  1  1  0  0  0
 33 32  1  0  0  0  0
 33 31  1  0  0  0  0
 34 37  1  0  0  0  0
 35 34  2  0  0  0  0
 37 36  1  1  0  0  0
 37 38  1  0  0  0  0
 39 38  1  0  0  0  0
M  END
>  <MODEL>
4

>  <REMARK>
 VINA RESULT:      -6.8      2.500      2.894
  Name = 
  8 active torsions:
  status: ('A' for Active; 'I' for Inactive)
    1  A    between atoms: C_1  and  C_35
    2  A    between atoms: C_3  and  C_29
    3  A    between atoms: C_4  and  C_8
    4  A    between atoms: C_10  and  C_11
    5  A    between atoms: C_13  and  C_30
    6  A    between atoms: C_13  and  C_35
    7  A    between atoms: N_14  and  C_28
    8  A    between atoms: C_34  and  N_36
                            x       y       z     vdW  Elec       q    Type
                         _______ _______ _______ _____ _____    ______ ____

>  <TORSDO>
F 8

$$$$
=
 OpenBabel11032420583D

 39 45  0  0  1  0  0  0  0  0999 V2000
  188.6390  177.9640  138.7370 C   0  0  2  0  0  3  0  0  0  0  0  0
  188.7460  178.2990  140.1580 N   0  0  0  0  0  0  0  0  0  0  0  0
  191.4490  176.9190  141.8400 N   0  0  0  0  0  0  0  0  0  0  0  0
  187.2660  178.3790  138.2310 C   0  0  1  0  0  3  0  0  0  0  0  0
  191.0550  177.4710  140.7640 N   0  0  0  0  0  0  0  0  0  0  0  0
  187.0630  178.6380  136.4990 Cl  0  0  0  0  0  0  0  0  0  0  0  0
  188.0120  178.0570  142.4500 C   0  0  0  0  0  3  0  0  0  0  0  0
  186.2070  178.4960  139.0700 C   0  0  0  0  0  0  0  0  0  0  0  0
  190.5160  177.1670  142.9400 C   0  0  2  0  0  3  0  0  0  0  0  0
  189.8550  178.1710  141.0350 C   0  0  0  0  0  0  0  0  0  0  0  0
  189.5030  178.0500  142.2910 C   0  0  0  0  0  0  0  0  0  0  0  0
  186.3910  178.3330  140.5350 C   0  0  0  0  0  3  0  0  0  0  0  0
  187.6220  178.2500  141.0210 C   0  0  0  0  0  0  0  0  0  0  0  0
  188.8480  176.1260  137.0530 C   0  0  1  0  0  3  0  0  0  0  0  0
  188.8120  176.4600  138.5410 C   0  0  1  0  0  3  0  0  0  0  0  0
  190.5750  174.8910  138.2580 O   0  0  0  0  0  1  0  0  0  0  0  0
  190.1410  176.1650  137.8760 C   0  0  1  0  0  3  0  0  0  0  0  0
  187.3200  172.2010  136.1450 C   0  0  0  0  0  3  0  0  0  0  0  0
  188.9810  173.9380  135.8350 C   0  0  0  0  0  3  0  0  0  0  0  0
  186.6510  173.0090  137.0690 C   0  0  0  0  0  3  0  0  0  0  0  0
  188.4830  172.6650  135.5260 C   0  0  0  0  0  3  0  0  0  0  0  0
  188.3260  174.7420  136.7760 C   0  0  0  0  0  0  0  0  0  0  0  0
  187.1480  174.2800  137.3780 C   0  0  0  0  0  3  0  0  0  0  0  0
  183.9520  177.8440  138.0410 C   0  0  0  0  0  0  0  0  0  0  0  0
  184.9110  178.7910  138.5250 N   0  0  0  0  0  2  0  0  0  0  0  0
  184.1560  176.6030  138.1440 O   0  0  0  0  0  0  0  0  0  0  0  0
  182.3020  179.5190  138.0460 O   0  0  0  0  0  0  0  0  0  0  0  0
  182.6760  178.3560  137.4520 C   0  0  2  0  0  3  0  0  0  0  0  0
  181.6420  178.3710  138.4630 N   0  0  2  0  0  0  0  0  0  0  0  0
  179.9520  179.3630  136.7540 C   0  0  0  0  0  1  0  0  0  0  0  0
  179.3480  177.6600  138.4320 O   0  0  0  0  0  0  0  0  0  0  0  0
  179.9880  176.9820  137.4010 N   0  0  0  0  0  2  0  0  0  0  0  0
  180.3440  178.3210  137.7870 C   0  0  2  0  0  0  0  0  0  0  0  0
  191.2160  177.8620  144.0720 C   0  0  0  0  0  0  0  0  0  0  0  0
  191.8310  178.9040  143.8780 O   0  0  0  0  0  0  0  0  0  0  0  0
  191.8570  176.0320  145.4500 O   0  0  0  0  0  1  0  0  0  0  0  0
  191.1730  177.2490  145.4400 C   0  0  2  0  0  3  0  0  0  0  0  0
  189.7450  177.0680  145.9440 C   0  0  0  0  0  2  0  0  0  0  0  0
  189.7360  176.6720  147.2850 O   0  0  0  0  0  1  0  0  0  0  0  0
  1  2  1  1  0  0  0
  2 13  1  0  0  0  0
  2 10  1  0  0  0  0
  3  9  1  0  0  0  0
  4  6  1  6  0  0  0
  4  1  1  0  0  0  0
  4  8  1  0  0  0  0
  5 10  1  0  0  0  0
  5  3  2  0  0  0  0
  8 12  2  0  0  0  0
  9 34  1  1  0  0  0
 10 11  2  0  0  0  0
 11  7  1  0  0  0  0
 11  9  1  0  0  0  0
 12 13  1  0  0  0  0
 13  7  2  0  0  0  0
 14 22  1  1  0  0  0
 14 17  1  0  0  0  0
 14 15  1  0  0  0  0
 15  1  1  6  0  0  0
 17 16  1  1  0  0  0
 17 15  1  0  0  0  0
 18 20  1  0  0  0  0
 19 22  2  0  0  0  0
 20 23  2  0  0  0  0
 21 19  1  0  0  0  0
 21 18  2  0  0  0  0
 22 23  1  0  0  0  0
 24 26  2  0  0  0  0
 24 25  1  0  0  0  0
 25  8  1  0  0  0  0
 28 24  1  1  0  0  0
 28 27  1  0  0  0  0
 28 29  1  0  0  0  0
 29 27  1  6  0  0  0
 32 33  1  0  0  0  0
 32 31  1  0  0  0  0
 33 30  1  6  0  0  0
 33 31  1  0  0  0  0
 33 29  1  0  0  0  0
 34 37  1  0  0  0  0
 35 34  2  0  0  0  0
 37 36  1  6  0  0  0
 37 38  1  0  0  0  0
 38 39  1  0  0  0  0
M  END
>  <MODEL>
5

>  <REMARK>
 VINA RESULT:      -6.8      3.821      5.448
  Name = 
  8 active torsions:
  status: ('A' for Active; 'I' for Inactive)
    1  A    between atoms: C_1  and  C_35
    2  A    between atoms: C_3  and  C_29
    3  A    between atoms: C_4  and  C_8
    4  A    between atoms: C_10  and  C_11
    5  A    between atoms: C_13  and  C_30
    6  A    between atoms: C_13  and  C_35
    7  A    between atoms: N_14  and  C_28
    8  A    between atoms: C_34  and  N_36
                            x       y       z     vdW  Elec       q    Type
                         _______ _______ _______ _____ _____    ______ ____

>  <TORSDO>
F 8

$$$$
=
 OpenBabel11032420583D

 39 45  0  0  1  0  0  0  0  0999 V2000
  189.1880  177.2770  137.4320 C   0  0  2  0  0  3  0  0  0  0  0  0
  190.6250  177.1200  137.6630 N   0  0  0  0  0  0  0  0  0  0  0  0
  192.3690  175.3720  135.2260 N   0  0  0  0  0  0  0  0  0  0  0  0
  188.5310  177.7780  138.7100 C   0  0  1  0  0  3  0  0  0  0  0  0
  191.4630  176.2360  135.4500 N   0  0  0  0  0  0  0  0  0  0  0  0
  186.9750  178.5940  138.5770 Cl  0  0  0  0  0  0  0  0  0  0  0  0
  192.4820  176.0910  138.8250 C   0  0  0  0  0  3  0  0  0  0  0  0
  189.0900  177.5610  139.9260 C   0  0  0  0  0  0  0  0  0  0  0  0
  193.2390  175.1970  136.3900 C   0  0  2  0  0  3  0  0  0  0  0  0
  191.6510  176.7530  136.7540 C   0  0  0  0  0  0  0  0  0  0  0  0
  192.6840  176.2020  137.3430 C   0  0  0  0  0  0  0  0  0  0  0  0
  190.4270  176.9230  140.0330 C   0  0  0  0  0  3  0  0  0  0  0  0
  191.1380  176.7350  138.9290 C   0  0  0  0  0  0  0  0  0  0  0  0
  187.1350  176.1340  136.5750 C   0  0  1  0  0  3  0  0  0  0  0  0
  188.5710  175.9350  137.0460 C   0  0  1  0  0  3  0  0  0  0  0  0
  188.3180  174.5830  135.1070 O   0  0  0  0  0  1  0  0  0  0  0  0
  188.2630  175.9050  135.5620 C   0  0  1  0  0  3  0  0  0  0  0  0
  184.6510  172.7230  137.4460 C   0  0  0  0  0  3  0  0  0  0  0  0
  184.8920  175.0220  136.7200 C   0  0  0  0  0  3  0  0  0  0  0  0
  186.0380  172.6260  137.5920 C   0  0  0  0  0  3  0  0  0  0  0  0
  184.0770  173.9200  137.0130 C   0  0  0  0  0  3  0  0  0  0  0  0
  186.2830  174.9230  136.8440 C   0  0  0  0  0  0  0  0  0  0  0  0
  186.8520  173.7260  137.2990 C   0  0  0  0  0  3  0  0  0  0  0  0
  188.3940  177.3120  142.3800 C   0  0  0  0  0  0  0  0  0  0  0  0
  188.3780  177.9660  141.1060 N   0  0  0  0  0  2  0  0  0  0  0  0
  189.1470  176.3230  142.5930 O   0  0  0  0  0  0  0  0  0  0  0  0
  187.0950  176.8600  144.2880 O   0  0  0  0  0  0  0  0  0  0  0  0
  187.5320  177.8570  143.4750 C   0  0  2  0  0  3  0  0  0  0  0  0
  186.1900  177.3330  143.3470 N   0  0  2  0  0  0  0  0  0  0  0  0
  185.4670  178.6350  145.4790 C   0  0  0  0  0  1  0  0  0  0  0  0
  184.0280  178.3680  143.4950 O   0  0  0  0  0  0  0  0  0  0  0  0
  184.9320  179.3780  143.1880 N   0  0  0  0  0  2  0  0  0  0  0  0
  185.2750  178.2570  144.0200 C   0  0  2  0  0  0  0  0  0  0  0  0
  194.6640  175.5010  136.0280 C   0  0  0  0  0  0  0  0  0  0  0  0
  194.9830  176.6180  135.6410 O   0  0  0  0  0  0  0  0  0  0  0  0
  195.0760  173.1580  136.0170 O   0  0  0  0  0  1  0  0  0  0  0  0
  195.6870  174.4090  136.1230 C   0  0  2  0  0  3  0  0  0  0  0  0
  196.5080  174.5000  137.4040 C   0  0  0  0  0  2  0  0  0  0  0  0
  197.6680  175.2550  137.2010 O   0  0  0  0  0  1  0  0  0  0  0  0
  1  2  1  1  0  0  0
  1  4  1  0  0  0  0
  2 13  1  0  0  0  0
  3  5  2  0  0  0  0
  3  9  1  0  0  0  0
  4  6  1  1  0  0  0
  4  8  1  0  0  0  0
  5 10  1  0  0  0  0
  7 13  2  0  0  0  0
  8 12  2  0  0  0  0
  8 25  1  0  0  0  0
  9 34  1  6  0  0  0
  9 11  1  0  0  0  0
 10 11  2  0  0  0  0
 10  2  1  0  0  0  0
 11  7  1  0  0  0  0
 13 12  1  0  0  0  0
 14 22  1  1  0  0  0
 14 15  1  0  0  0  0
 15  1  1  6  0  0  0
 17 16  1  1  0  0  0
 17 14  1  0  0  0  0
 17 15  1  0  0  0  0
 18 20  1  0  0  0  0
 19 22  2  0  0  0  0
 19 21  1  0  0  0  0
 21 18  2  0  0  0  0
 22 23  1  0  0  0  0
 23 20  2  0  0  0  0
 24 26  2  0  0  0  0
 25 24  1  0  0  0  0
 28 24  1  6  0  0  0
 28 27  1  0  0  0  0
 29 28  1  0  0  0  0
 29 33  1  0  0  0  0
 29 27  1  1  0  0  0
 31 33  1  0  0  0  0
 32 31  1  0  0  0  0
 32 33  1  0  0  0  0
 33 30  1  1  0  0  0
 34 37  1  0  0  0  0
 35 34  2  0  0  0  0
 37 36  1  1  0  0  0
 37 38  1  0  0  0  0
 39 38  1  0  0  0  0
M  END
>  <MODEL>
6

>  <REMARK>
 VINA RESULT:      -6.7      1.526      1.780
  Name = 
  8 active torsions:
  status: ('A' for Active; 'I' for Inactive)
    1  A    between atoms: C_1  and  C_35
    2  A    between atoms: C_3  and  C_29
    3  A    between atoms: C_4  and  C_8
    4  A    between atoms: C_10  and  C_11
    5  A    between atoms: C_13  and  C_30
    6  A    between atoms: C_13  and  C_35
    7  A    between atoms: N_14  and  C_28
    8  A    between atoms: C_34  and  N_36
                            x       y       z     vdW  Elec       q    Type
                         _______ _______ _______ _____ _____    ______ ____

>  <TORSDO>
F 8

$$$$
=
 OpenBabel11032420583D

 39 45  0  0  1  0  0  0  0  0999 V2000
  187.2150  177.2690  137.4870 C   0  0  2  0  0  3  0  0  0  0  0  0
  187.8830  177.7720  138.6890 N   0  0  0  0  0  0  0  0  0  0  0  0
  190.8580  176.2030  139.5380 N   0  0  0  0  0  0  0  0  0  0  0  0
  185.8040  177.8350  137.4300 C   0  0  1  0  0  3  0  0  0  0  0  0
  190.1500  176.6610  138.5870 N   0  0  0  0  0  0  0  0  0  0  0  0
  184.9940  177.8850  135.8650 Cl  0  0  0  0  0  0  0  0  0  0  0  0
  188.0420  177.9710  141.0950 C   0  0  0  0  0  3  0  0  0  0  0  0
  185.1560  178.2390  138.5500 C   0  0  0  0  0  0  0  0  0  0  0  0
  190.4380  176.7510  140.8290 C   0  0  2  0  0  3  0  0  0  0  0  0
  189.2200  177.5820  139.1260 C   0  0  0  0  0  0  0  0  0  0  0  0
  189.3550  177.6940  140.4250 C   0  0  0  0  0  0  0  0  0  0  0  0
  185.8580  178.2490  139.8590 C   0  0  0  0  0  3  0  0  0  0  0  0
  187.1670  178.0290  139.8860 C   0  0  0  0  0  0  0  0  0  0  0  0
  186.6880  175.2040  136.1780 C   0  0  1  0  0  3  0  0  0  0  0  0
  187.1430  175.7450  137.5290 C   0  0  1  0  0  3  0  0  0  0  0  0
  188.5410  173.8820  137.0580 O   0  0  0  0  0  1  0  0  0  0  0  0
  188.1650  175.1430  136.5850 C   0  0  1  0  0  3  0  0  0  0  0  0
  184.4910  171.5100  136.4830 C   0  0  0  0  0  3  0  0  0  0  0  0
  185.9820  172.9790  135.2620 C   0  0  0  0  0  3  0  0  0  0  0  0
  184.4370  172.4380  137.5280 C   0  0  0  0  0  3  0  0  0  0  0  0
  185.2610  171.7810  135.3500 C   0  0  0  0  0  3  0  0  0  0  0  0
  185.9480  173.9010  136.3150 C   0  0  0  0  0  0  0  0  0  0  0  0
  185.1570  173.6340  137.4410 C   0  0  0  0  0  3  0  0  0  0  0  0
  183.2780  179.9700  138.7680 C   0  0  0  0  0  0  0  0  0  0  0  0
  183.7890  178.6700  138.4510 N   0  0  0  0  0  2  0  0  0  0  0  0
  184.0530  180.9110  139.0920 O   0  0  0  0  0  0  0  0  0  0  0  0
  181.2160  179.2350  137.9100 O   0  0  0  0  0  0  0  0  0  0  0  0
  181.8050  180.2050  138.6560 C   0  0  2  0  0  3  0  0  0  0  0  0
  181.4520  180.4470  137.2750 N   0  0  2  0  0  0  0  0  0  0  0  0
  180.0150  182.4570  138.0880 C   0  0  0  0  0  1  0  0  0  0  0  0
  179.0830  180.5160  136.8870 O   0  0  0  0  0  0  0  0  0  0  0  0
  179.6670  181.3280  135.9220 N   0  0  0  0  0  2  0  0  0  0  0  0
  180.1960  181.2010  137.2520 C   0  0  2  0  0  0  0  0  0  0  0  0
  191.5810  177.4670  141.4890 C   0  0  0  0  0  0  0  0  0  0  0  0
  192.4370  178.0270  140.8150 O   0  0  0  0  0  0  0  0  0  0  0  0
  191.1260  176.2910  143.5060 O   0  0  0  0  0  1  0  0  0  0  0  0
  191.6730  177.4650  142.9850 C   0  0  2  0  0  3  0  0  0  0  0  0
  191.0080  178.6890  143.6040 C   0  0  0  0  0  2  0  0  0  0  0  0
  189.7780  178.3520  144.1790 O   0  0  0  0  0  1  0  0  0  0  0  0
  1  2  1  1  0  0  0
  2 10  1  0  0  0  0
  2 13  1  0  0  0  0
  3  9  1  0  0  0  0
  4  6  1  1  0  0  0
  4  1  1  0  0  0  0
  4  8  1  0  0  0  0
  5 10  1  0  0  0  0
  5  3  2  0  0  0  0
  8 12  2  0  0  0  0
  9 34  1  6  0  0  0
 10 11  2  0  0  0  0
 11  9  1  0  0  0  0
 11  7  1  0  0  0  0
 12 13  1  0  0  0  0
 13  7  2  0  0  0  0
 14 22  1  1  0  0  0
 14 17  1  0  0  0  0
 14 15  1  0  0  0  0
 15  1  1  6  0  0  0
 17 16  1  1  0  0  0
 17 15  1  0  0  0  0
 18 20  1  0  0  0  0
 19 21  1  0  0  0  0
 19 22  2  0  0  0  0
 21 18  2  0  0  0  0
 22 23  1  0  0  0  0
 23 20  2  0  0  0  0
 24 26  2  0  0  0  0
 25  8  1  0  0  0  0
 25 24  1  0  0  0  0
 27 28  1  0  0  0  0
 28 24  1  6  0  0  0
 29 27  1  6  0  0  0
 29 28  1  0  0  0  0
 31 33  1  0  0  0  0
 32 31  1  0  0  0  0
 32 33  1  0  0  0  0
 33 29  1  0  0  0  0
 33 30  1  1  0  0  0
 34 37  1  0  0  0  0
 35 34  2  0  0  0  0
 37 36  1  1  0  0  0
 37 38  1  0  0  0  0
 38 39  1  0  0  0  0
M  END
>  <MODEL>
7

>  <REMARK>
 VINA RESULT:      -6.6      3.493      4.771
  Name = 
  8 active torsions:
  status: ('A' for Active; 'I' for Inactive)
    1  A    between atoms: C_1  and  C_35
    2  A    between atoms: C_3  and  C_29
    3  A    between atoms: C_4  and  C_8
    4  A    between atoms: C_10  and  C_11
    5  A    between atoms: C_13  and  C_30
    6  A    between atoms: C_13  and  C_35
    7  A    between atoms: N_14  and  C_28
    8  A    between atoms: C_34  and  N_36
                            x       y       z     vdW  Elec       q    Type
                         _______ _______ _______ _____ _____    ______ ____

>  <TORSDO>
F 8

$$$$
=
 OpenBabel11032420583D

 39 45  0  0  1  0  0  0  0  0999 V2000
  187.5160  178.3610  138.7930 C   0  0  2  0  0  3  0  0  0  0  0  0
  186.1580  178.1450  138.2900 N   0  0  0  0  0  0  0  0  0  0  0  0
  183.5860  179.0160  140.4490 N   0  0  0  0  0  0  0  0  0  0  0  0
  188.5040  177.6550  137.8760 C   0  0  1  0  0  3  0  0  0  0  0  0
  184.7250  179.3460  139.9880 N   0  0  0  0  0  0  0  0  0  0  0  0
  190.1790  178.2040  137.8820 Cl  0  0  0  0  0  0  0  0  0  0  0  0
  184.3230  176.6760  137.7170 C   0  0  0  0  0  3  0  0  0  0  0  0
  188.1320  176.5980  137.1130 C   0  0  0  0  0  0  0  0  0  0  0  0
  182.9230  178.0380  139.5840 C   0  0  2  0  0  3  0  0  0  0  0  0
  184.9260  178.6640  138.7640 C   0  0  0  0  0  0  0  0  0  0  0  0
  183.9010  177.9060  138.4640 C   0  0  0  0  0  0  0  0  0  0  0  0
  186.7100  176.1720  137.0660 C   0  0  0  0  0  3  0  0  0  0  0  0
  185.7900  176.9420  137.6340 C   0  0  0  0  0  0  0  0  0  0  0  0
  188.6200  178.6350  141.0200 C   0  0  1  0  0  3  0  0  0  0  0  0
  187.6470  177.7920  140.2030 C   0  0  1  0  0  3  0  0  0  0  0  0
  186.6440  178.0770  142.3390 O   0  0  0  0  0  1  0  0  0  0  0  0
  187.1070  178.7770  141.2210 C   0  0  1  0  0  3  0  0  0  0  0  0
  190.7190  176.3600  144.0190 C   0  0  0  0  0  3  0  0  0  0  0  0
  189.8320  178.4650  143.2100 C   0  0  0  0  0  3  0  0  0  0  0  0
  190.2240  175.7170  142.8790 C   0  0  0  0  0  3  0  0  0  0  0  0
  190.5250  177.7330  144.1830 C   0  0  0  0  0  3  0  0  0  0  0  0
  189.3160  177.8220  142.0780 C   0  0  0  0  0  0  0  0  0  0  0  0
  189.5310  176.4470  141.9080 C   0  0  0  0  0  3  0  0  0  0  0  0
  190.0820  174.9570  136.8370 C   0  0  0  0  0  0  0  0  0  0  0  0
  189.1280  175.9050  136.3440 N   0  0  0  0  0  2  0  0  0  0  0  0
  190.0570  174.5770  138.0390 O   0  0  0  0  0  0  0  0  0  0  0  0
  191.4520  173.1350  136.2600 O   0  0  0  0  0  0  0  0  0  0  0  0
  191.0820  174.3870  135.8820 C   0  0  2  0  0  3  0  0  0  0  0  0
  192.3360  174.1610  136.5650 N   0  0  2  0  0  0  0  0  0  0  0  0
  193.5840  175.3090  134.5940 C   0  0  0  0  0  1  0  0  0  0  0  0
  193.8880  172.9390  135.2000 O   0  0  0  0  0  0  0  0  0  0  0  0
  194.6470  173.6730  136.1030 N   0  0  0  0  0  2  0  0  0  0  0  0
  193.4050  174.1540  135.5630 C   0  0  2  0  0  0  0  0  0  0  0  0
  181.6020  178.5720  139.1090 C   0  0  0  0  0  0  0  0  0  0  0  0
  181.0010  178.0220  138.1940 O   0  0  0  0  0  0  0  0  0  0  0  0
  179.7960  179.5270  140.3250 O   0  0  0  0  0  1  0  0  0  0  0  0
  181.0400  179.8020  139.7560 C   0  0  2  0  0  3  0  0  0  0  0  0
  180.9400  180.9690  138.7810 C   0  0  0  0  0  2  0  0  0  0  0  0
  182.2060  181.4970  138.5020 O   0  0  0  0  0  1  0  0  0  0  0  0
  1  2  1  6  0  0  0
  2 10  1  0  0  0  0
  4  6  1  1  0  0  0
  4  1  1  0  0  0  0
  5  3  2  0  0  0  0
  7 11  1  0  0  0  0
  8  4  1  0  0  0  0
  9 34  1  6  0  0  0
  9  3  1  0  0  0  0
 10  5  1  0  0  0  0
 11 10  2  0  0  0  0
 11  9  1  0  0  0  0
 12  8  2  0  0  0  0
 12 13  1  0  0  0  0
 13  7  2  0  0  0  0
 13  2  1  0  0  0  0
 14 17  1  0  0  0  0
 14 22  1  1  0  0  0
 15  1  1  6  0  0  0
 15 14  1  0  0  0  0
 15 17  1  0  0  0  0
 17 16  1  1  0  0  0
 18 21  1  0  0  0  0
 19 21  2  0  0  0  0
 20 18  2  0  0  0  0
 22 19  1  0  0  0  0
 23 22  2  0  0  0  0
 23 20  1  0  0  0  0
 24 26  2  0  0  0  0
 25 24  1  0  0  0  0
 25  8  1  0  0  0  0
 28 27  1  0  0  0  0
 28 29  1  0  0  0  0
 28 24  1  1  0  0  0
 29 27  1  6  0  0  0
 31 33  1  0  0  0  0
 31 32  1  0  0  0  0
 33 30  1  6  0  0  0
 33 32  1  0  0  0  0
 33 29  1  0  0  0  0
 34 37  1  0  0  0  0
 35 34  2  0  0  0  0
 37 36  1  6  0  0  0
 38 37  1  0  0  0  0
 39 38  1  0  0  0  0
M  END
>  <MODEL>
8

>  <REMARK>
 VINA RESULT:      -6.4      3.047      9.984
  Name = 
  8 active torsions:
  status: ('A' for Active; 'I' for Inactive)
    1  A    between atoms: C_1  and  C_35
    2  A    between atoms: C_3  and  C_29
    3  A    between atoms: C_4  and  C_8
    4  A    between atoms: C_10  and  C_11
    5  A    between atoms: C_13  and  C_30
    6  A    between atoms: C_13  and  C_35
    7  A    between atoms: N_14  and  C_28
    8  A    between atoms: C_34  and  N_36
                            x       y       z     vdW  Elec       q    Type
                         _______ _______ _______ _____ _____    ______ ____

>  <TORSDO>
F 8

$$$$
=
 OpenBabel11032420583D

 39 45  0  0  1  0  0  0  0  0999 V2000
  188.8010  176.0050  135.7070 C   0  0  2  0  0  3  0  0  0  0  0  0
  188.0080  174.7910  135.9090 N   0  0  0  0  0  0  0  0  0  0  0  0
  184.6750  175.2780  136.7410 N   0  0  0  0  0  0  0  0  0  0  0  0
  190.2750  175.6330  135.6590 C   0  0  1  0  0  3  0  0  0  0  0  0
  185.6410  175.6680  136.0110 N   0  0  0  0  0  0  0  0  0  0  0  0
  191.3860  176.7510  134.8680 Cl  0  0  0  0  0  0  0  0  0  0  0  0
  187.3950  172.8600  137.2300 C   0  0  0  0  0  3  0  0  0  0  0  0
  190.7420  174.5070  136.2510 C   0  0  0  0  0  0  0  0  0  0  0  0
  184.9160  173.9350  137.2720 C   0  0  2  0  0  3  0  0  0  0  0  0
  186.5990  174.6270  135.9440 C   0  0  0  0  0  0  0  0  0  0  0  0
  186.2210  173.5840  136.6400 C   0  0  0  0  0  0  0  0  0  0  0  0
  189.7990  173.5390  136.8680 C   0  0  0  0  0  3  0  0  0  0  0  0
  188.4960  173.7020  136.6760 C   0  0  0  0  0  0  0  0  0  0  0  0
  189.8390  177.1260  137.6870 C   0  0  1  0  0  3  0  0  0  0  0  0
  188.5670  176.9780  136.8600 C   0  0  1  0  0  3  0  0  0  0  0  0
  188.8010  179.3010  137.3050 O   0  0  0  0  0  1  0  0  0  0  0  0
  189.4280  178.2140  136.6890 C   0  0  1  0  0  3  0  0  0  0  0  0
  188.9840  177.9420  141.8310 C   0  0  0  0  0  3  0  0  0  0  0  0
  190.5270  177.2510  140.0950 C   0  0  0  0  0  3  0  0  0  0  0  0
  187.9860  178.1240  140.8680 C   0  0  0  0  0  3  0  0  0  0  0  0
  190.2520  177.5040  141.4460 C   0  0  0  0  0  3  0  0  0  0  0  0
  189.5390  177.4530  139.1250 C   0  0  0  0  0  0  0  0  0  0  0  0
  188.2600  177.8730  139.5190 C   0  0  0  0  0  3  0  0  0  0  0  0
  193.0850  174.6500  137.2810 C   0  0  0  0  0  0  0  0  0  0  0  0
  192.1570  174.2570  136.2630 N   0  0  0  0  0  2  0  0  0  0  0  0
  192.6880  175.2030  138.3430 O   0  0  0  0  0  0  0  0  0  0  0  0
  195.2900  174.9310  138.0480 O   0  0  0  0  0  0  0  0  0  0  0  0
  194.5360  174.3470  137.0800 C   0  0  2  0  0  3  0  0  0  0  0  0
  195.2590  175.5720  136.8170 N   0  0  2  0  0  0  0  0  0  0  0  0
  196.4800  174.2060  134.9720 C   0  0  0  0  0  1  0  0  0  0  0  0
  197.6560  175.4510  136.7450 O   0  0  0  0  0  0  0  0  0  0  0  0
  197.2780  176.3910  135.7930 N   0  0  0  0  0  2  0  0  0  0  0  0
  196.4860  175.2290  136.0940 C   0  0  2  0  0  0  0  0  0  0  0  0
  183.8210  173.0000  136.8450 C   0  0  0  0  0  0  0  0  0  0  0  0
  183.8190  171.8330  137.2170 O   0  0  0  0  0  0  0  0  0  0  0  0
  181.5740  173.7550  136.6590 O   0  0  0  0  0  1  0  0  0  0  0  0
  182.7430  173.5100  135.9370 C   0  0  2  0  0  3  0  0  0  0  0  0
  182.4700  172.5580  134.7780 C   0  0  0  0  0  2  0  0  0  0  0  0
  181.3000  171.8240  134.9990 O   0  0  0  0  0  1  0  0  0  0  0  0
  1  2  1  1  0  0  0
  2 10  1  0  0  0  0
  2 13  1  0  0  0  0
  3  9  1  0  0  0  0
  4  6  1  1  0  0  0
  4  1  1  0  0  0  0
  4  8  1  0  0  0  0
  5  3  2  0  0  0  0
  8 25  1  0  0  0  0
  8 12  2  0  0  0  0
  9 34  1  6  0  0  0
 10  5  1  0  0  0  0
 10 11  2  0  0  0  0
 11  7  1  0  0  0  0
 11  9  1  0  0  0  0
 13 12  1  0  0  0  0
 13  7  2  0  0  0  0
 14 22  1  1  0  0  0
 15  1  1  6  0  0  0
 15 14  1  0  0  0  0
 17 15  1  0  0  0  0
 17 16  1  1  0  0  0
 17 14  1  0  0  0  0
 19 21  2  0  0  0  0
 20 18  2  0  0  0  0
 21 18  1  0  0  0  0
 22 23  2  0  0  0  0
 22 19  1  0  0  0  0
 23 20  1  0  0  0  0
 24 26  2  0  0  0  0
 25 24  1  0  0  0  0
 28 24  1  1  0  0  0
 28 27  1  0  0  0  0
 29 28  1  0  0  0  0
 29 27  1  1  0  0  0
 32 33  1  0  0  0  0
 32 31  1  0  0  0  0
 33 30  1  6  0  0  0
 33 31  1  0  0  0  0
 33 29  1  0  0  0  0
 34 35  2  0  0  0  0
 37 36  1  1  0  0  0
 37 34  1  0  0  0  0
 38 39  1  0  0  0  0
 38 37  1  0  0  0  0
M  END
>  <MODEL>
9

>  <REMARK>
 VINA RESULT:      -6.4      3.477      9.518
  Name = 
  8 active torsions:
  status: ('A' for Active; 'I' for Inactive)
    1  A    between atoms: C_1  and  C_35
    2  A    between atoms: C_3  and  C_29
    3  A    between atoms: C_4  and  C_8
    4  A    between atoms: C_10  and  C_11
    5  A    between atoms: C_13  and  C_30
    6  A    between atoms: C_13  and  C_35
    7  A    between atoms: N_14  and  C_28
    8  A    between atoms: C_34  and  N_36
                            x       y       z     vdW  Elec       q    Type
                         _______ _______ _______ _____ _____    ______ ____

>  <TORSDO>
F 8

$$$$
