=
 OpenBabel11042413053D

 40 43  0  0  1  0  0  0  0  0999 V2000
  183.8560  178.0900  140.7080 C   0  0  0  0  0  2  0  0  0  0  0  0
  184.6390  178.2220  138.4370 C   0  0  0  0  0  0  0  0  0  0  0  0
  183.9280  178.7720  139.3790 C   0  0  0  0  0  0  0  0  0  0  0  0
  185.3720  177.6700  137.4950 C   0  0  0  0  0  0  0  0  0  0  0  0
  184.7310  176.7440  136.4970 C   0  0  0  0  0  3  0  0  0  0  0  0
  183.6440  177.4480  135.7060 C   0  0  0  0  0  1  0  0  0  0  0  0
  184.1780  175.4940  137.1600 C   0  0  0  0  0  1  0  0  0  0  0  0
  186.8170  177.9920  137.3700 C   0  0  0  0  0  0  0  0  0  0  0  0
  187.3100  178.5780  136.2810 C   0  0  0  0  0  2  0  0  0  0  0  0
  187.7630  177.6510  138.4800 C   0  0  0  0  0  2  0  0  0  0  0  0
  188.7820  176.6060  138.0410 C   0  0  0  0  0  2  0  0  0  0  0  0
  189.8780  177.7310  139.7750 C   0  0  0  0  0  1  0  0  0  0  0  0
  189.8480  176.4880  139.0240 N   0  0  0  0  0  2  0  0  0  0  0  0
  183.3620  180.0700  139.1490 N   0  0  0  0  0  2  0  0  0  0  0  0
  181.6820  181.7030  138.4630 C   0  0  0  0  0  3  0  0  0  0  0  0
  180.5210  182.0270  137.8320 N   0  0  0  0  0  0  0  0  0  0  0  0
  181.3560  179.3990  137.8480 C   0  0  0  0  0  3  0  0  0  0  0  0
  180.1670  179.7490  137.2070 C   0  0  0  0  0  3  0  0  0  0  0  0
  179.7610  181.0850  137.2120 C   0  0  0  0  0  3  0  0  0  0  0  0
  182.1240  180.3770  138.4930 C   0  0  0  0  0  0  0  0  0  0  0  0
  184.2440  179.0510  141.8200 C   0  0  2  0  0  3  0  0  0  0  0  0
  185.5540  179.4920  141.6200 O   0  0  0  0  0  1  0  0  0  0  0  0
  184.1260  178.3460  143.1630 C   0  0  0  0  0  2  0  0  0  0  0  0
  183.9630  179.3540  144.2890 C   0  0  0  0  0  2  0  0  0  0  0  0
  185.2860  179.5500  145.0020 C   0  0  0  0  0  2  0  0  0  0  0  0
  185.5830  178.3450  145.8700 C   0  0  0  0  0  2  0  0  0  0  0  0
  191.6650  176.5470  145.1950 N   0  0  0  0  0  0  0  0  0  0  0  0
  188.2000  176.9270  143.6800 C   0  0  0  0  0  3  0  0  0  0  0  0
  189.5280  177.7840  148.1120 C   0  0  0  0  0  2  0  0  0  0  0  0
  186.8450  177.7470  145.4630 N   0  0  0  0  0  0  0  0  0  0  0  0
  188.0400  178.0640  147.7410 C   0  0  1  0  0  3  0  0  0  0  0  0
  191.0240  176.1070  142.8440 C   0  0  0  0  0  1  0  0  0  0  0  0
  190.1010  177.2220  146.8480 C   0  0  0  0  0  0  0  0  0  0  0  0
  191.4150  176.9280  146.4870 C   0  0  0  0  0  3  0  0  0  0  0  0
  187.0470  177.3760  144.1120 N   0  0  0  0  0  0  0  0  0  0  0  0
  187.8880  177.5440  146.3840 N   0  0  0  0  0  0  0  0  0  0  0  0
  190.6760  176.4810  144.2450 C   0  0  0  0  0  0  0  0  0  0  0  0
  187.2010  177.3650  148.6080 O   0  0  0  0  0  1  0  0  0  0  0  0
  189.1260  177.1170  145.9220 C   0  0  0  0  0  0  0  0  0  0  0  0
  189.3530  176.8020  144.6030 C   0  0  0  0  0  0  0  0  0  0  0  0
  1 21  1  0  0  0  0
  2  3  2  0  0  0  0
  3  1  1  0  0  0  0
  4  2  2  0  0  0  0
  5  7  1  0  0  0  0
  5  4  1  0  0  0  0
  6  5  1  0  0  0  0
  8  4  1  0  0  0  0
  8 10  1  0  0  0  0
  9  8  2  0  0  0  0
 11 10  1  0  0  0  0
 11 13  1  0  0  0  0
 13 12  1  0  0  0  0
 14  3  1  0  0  0  0
 15 20  1  0  0  0  0
 16 15  2  0  0  0  0
 17 20  2  0  0  0  0
 18 19  2  0  0  0  0
 18 17  1  0  0  0  0
 19 16  1  0  0  0  0
 20 14  1  0  0  0  0
 21 22  1  6  0  0  0
 21 23  1  0  0  0  0
 23 24  1  0  0  0  0
 24 25  1  0  0  0  0
 25 26  1  0  0  0  0
 27 34  1  0  0  0  0
 28 35  2  0  0  0  0
 28 40  1  0  0  0  0
 30 26  1  0  0  0  0
 30 36  1  0  0  0  0
 31 29  1  0  0  0  0
 31 38  1  1  0  0  0
 32 37  1  0  0  0  0
 33 29  1  0  0  0  0
 34 33  2  0  0  0  0
 35 30  1  0  0  0  0
 36 31  1  0  0  0  0
 37 40  1  0  0  0  0
 37 27  2  0  0  0  0
 39 36  1  0  0  0  0
 39 33  1  0  0  0  0
 40 39  2  0  0  0  0
M  END
>  <MODEL>
1

>  <REMARK>
 VINA RESULT:      -7.6      0.000      0.000
  Name = 
  14 active torsions:
  status: ('A' for Active; 'I' for Inactive)
    1  A    between atoms: C_2  and  C_39
    2  A    between atoms: C_7  and  C_8
    3  A    between atoms: C_7  and  C_31
    4  A    between atoms: C_8  and  C_40
    5  A    between atoms: C_9  and  N_11
    6  A    between atoms: C_9  and  C_37
    7  A    between atoms: C_13  and  C_37
    8  A    between atoms: C_13  and  C_39
    9  A    between atoms: C_14  and  C_30
   10  A    between atoms: C_14  and  C_38
   11  A    between atoms: N_16  and  C_30
   12  A    between atoms: N_20  and  C_31
   13  A    between atoms: N_20  and  C_34
   14  A    between atoms: C_38  and  C_40
                            x       y       z     vdW  Elec       q    Type
                         _______ _______ _______ _____ _____    ______ ____

>  <TORSDO>
F 14

$$$$
=
 OpenBabel11042413053D

 40 43  0  0  1  0  0  0  0  0999 V2000
  189.3690  178.4240  139.1740 C   0  0  0  0  0  2  0  0  0  0  0  0
  190.7340  176.4610  138.8930 C   0  0  0  0  0  0  0  0  0  0  0  0
  189.9790  177.1600  139.6920 C   0  0  0  0  0  0  0  0  0  0  0  0
  191.4820  175.7530  138.0770 C   0  0  0  0  0  0  0  0  0  0  0  0
  192.9730  175.9530  138.0660 C   0  0  0  0  0  3  0  0  0  0  0  0
  193.4160  176.8740  139.1880 C   0  0  0  0  0  1  0  0  0  0  0  0
  193.4630  176.4780  136.7270 C   0  0  0  0  0  1  0  0  0  0  0  0
  190.8780  174.7160  137.2010 C   0  0  0  0  0  0  0  0  0  0  0  0
  191.5530  173.6260  136.8410 C   0  0  0  0  0  2  0  0  0  0  0  0
  189.4800  174.8820  136.6900 C   0  0  0  0  0  2  0  0  0  0  0  0
  188.6790  173.5930  136.8270 C   0  0  0  0  0  2  0  0  0  0  0  0
  186.5270  172.6850  136.9650 C   0  0  0  0  0  1  0  0  0  0  0  0
  187.2900  173.8120  136.4550 N   0  0  0  0  0  2  0  0  0  0  0  0
  189.6510  176.6190  140.9810 N   0  0  0  0  0  2  0  0  0  0  0  0
  190.3240  178.2610  142.6570 C   0  0  0  0  0  3  0  0  0  0  0  0
  190.8880  178.5830  143.8520 N   0  0  0  0  0  0  0  0  0  0  0  0
  190.7930  175.9390  143.0780 C   0  0  0  0  0  3  0  0  0  0  0  0
  191.3680  176.2870  144.3010 C   0  0  0  0  0  3  0  0  0  0  0  0
  191.4070  177.6320  144.6740 C   0  0  0  0  0  3  0  0  0  0  0  0
  190.2700  176.9290  142.2370 C   0  0  0  0  0  0  0  0  0  0  0  0
  188.7160  178.1840  137.8230 C   0  0  2  0  0  3  0  0  0  0  0  0
  188.5360  179.4040  137.1680 O   0  0  0  0  0  1  0  0  0  0  0  0
  187.3760  177.4920  138.0240 C   0  0  0  0  0  2  0  0  0  0  0  0
  186.2290  178.4720  137.8320 C   0  0  0  0  0  2  0  0  0  0  0  0
  185.0160  178.0060  138.6120 C   0  0  0  0  0  2  0  0  0  0  0  0
  184.5790  179.0900  139.5750 C   0  0  0  0  0  2  0  0  0  0  0  0
  185.1790  178.3900  145.8870 N   0  0  0  0  0  0  0  0  0  0  0  0
  186.7550  178.2180  142.4330 C   0  0  0  0  0  3  0  0  0  0  0  0
  182.2720  179.1440  143.5220 C   0  0  0  0  0  2  0  0  0  0  0  0
  184.9780  178.7320  140.9270 N   0  0  0  0  0  0  0  0  0  0  0  0
  182.6660  179.1740  142.0140 C   0  0  1  0  0  3  0  0  0  0  0  0
  187.5550  177.9250  145.3690 C   0  0  0  0  0  1  0  0  0  0  0  0
  183.5400  178.7310  144.2030 C   0  0  0  0  0  0  0  0  0  0  0  0
  183.8810  178.6800  145.5540 C   0  0  0  0  0  3  0  0  0  0  0  0
  186.3350  178.4470  141.2120 N   0  0  0  0  0  0  0  0  0  0  0  0
  184.0410  178.6820  141.9750 N   0  0  0  0  0  0  0  0  0  0  0  0
  186.1510  178.1860  144.9390 C   0  0  0  0  0  0  0  0  0  0  0  0
  181.8380  178.3130  141.2950 O   0  0  0  0  0  1  0  0  0  0  0  0
  184.4890  178.4890  143.2760 C   0  0  0  0  0  0  0  0  0  0  0  0
  185.8120  178.2630  143.5750 C   0  0  0  0  0  0  0  0  0  0  0  0
  1  3  1  0  0  0  0
  2  3  2  0  0  0  0
  3 14  1  0  0  0  0
  4  2  2  0  0  0  0
  5  4  1  0  0  0  0
  5  6  1  0  0  0  0
  7  5  1  0  0  0  0
  8  4  1  0  0  0  0
  9  8  2  0  0  0  0
 10 11  1  0  0  0  0
 10  8  1  0  0  0  0
 13 11  1  0  0  0  0
 13 12  1  0  0  0  0
 14 20  1  0  0  0  0
 15 16  1  0  0  0  0
 16 19  2  0  0  0  0
 17 18  2  0  0  0  0
 18 19  1  0  0  0  0
 20 15  2  0  0  0  0
 20 17  1  0  0  0  0
 21 22  1  1  0  0  0
 21 23  1  0  0  0  0
 21  1  1  0  0  0  0
 24 23  1  0  0  0  0
 24 25  1  0  0  0  0
 25 26  1  0  0  0  0
 26 30  1  0  0  0  0
 28 40  1  0  0  0  0
 29 33  1  0  0  0  0
 30 35  1  0  0  0  0
 30 36  1  0  0  0  0
 31 38  1  6  0  0  0
 31 29  1  0  0  0  0
 33 34  2  0  0  0  0
 34 27  1  0  0  0  0
 35 28  2  0  0  0  0
 36 31  1  0  0  0  0
 36 39  1  0  0  0  0
 37 32  1  0  0  0  0
 37 27  2  0  0  0  0
 39 40  2  0  0  0  0
 39 33  1  0  0  0  0
 40 37  1  0  0  0  0
M  END
>  <MODEL>
2

>  <REMARK>
 VINA RESULT:      -7.6      2.997      7.565
  Name = 
  14 active torsions:
  status: ('A' for Active; 'I' for Inactive)
    1  A    between atoms: C_2  and  C_39
    2  A    between atoms: C_7  and  C_8
    3  A    between atoms: C_7  and  C_31
    4  A    between atoms: C_8  and  C_40
    5  A    between atoms: C_9  and  N_11
    6  A    between atoms: C_9  and  C_37
    7  A    between atoms: C_13  and  C_37
    8  A    between atoms: C_13  and  C_39
    9  A    between atoms: C_14  and  C_30
   10  A    between atoms: C_14  and  C_38
   11  A    between atoms: N_16  and  C_30
   12  A    between atoms: N_20  and  C_31
   13  A    between atoms: N_20  and  C_34
   14  A    between atoms: C_38  and  C_40
                            x       y       z     vdW  Elec       q    Type
                         _______ _______ _______ _____ _____    ______ ____

>  <TORSDO>
F 14

$$$$
=
 OpenBabel11042413053D

 40 43  0  0  1  0  0  0  0  0999 V2000
  191.6250  175.7060  138.3340 C   0  0  0  0  0  2  0  0  0  0  0  0
  189.8720  176.1160  136.7370 C   0  0  0  0  0  0  0  0  0  0  0  0
  191.1510  175.9760  136.9410 C   0  0  0  0  0  0  0  0  0  0  0  0
  188.5790  176.2420  136.5350 C   0  0  0  0  0  0  0  0  0  0  0  0
  187.9500  177.6080  136.5480 C   0  0  0  0  0  3  0  0  0  0  0  0
  187.2050  177.8870  135.2550 C   0  0  0  0  0  1  0  0  0  0  0  0
  188.9730  178.6990  136.8150 C   0  0  0  0  0  1  0  0  0  0  0  0
  187.7390  175.0530  136.2390 C   0  0  0  0  0  0  0  0  0  0  0  0
  187.9830  174.2690  135.1900 C   0  0  0  0  0  2  0  0  0  0  0  0
  186.5760  174.7130  137.1200 C   0  0  0  0  0  2  0  0  0  0  0  0
  186.3010  173.2140  137.1260 C   0  0  0  0  0  2  0  0  0  0  0  0
  184.1850  174.0490  137.6740 C   0  0  0  0  0  1  0  0  0  0  0  0
  185.0820  172.9210  137.8640 N   0  0  0  0  0  2  0  0  0  0  0  0
  192.0320  175.9460  135.8090 N   0  0  0  0  0  2  0  0  0  0  0  0
  194.4060  176.5090  135.7370 C   0  0  0  0  0  3  0  0  0  0  0  0
  195.7180  176.1500  135.7330 N   0  0  0  0  0  0  0  0  0  0  0  0
  193.7850  174.1870  135.8500 C   0  0  0  0  0  3  0  0  0  0  0  0
  195.1350  173.8360  135.8440 C   0  0  0  0  0  3  0  0  0  0  0  0
  196.0980  174.8450  135.7840 C   0  0  0  0  0  3  0  0  0  0  0  0
  193.4060  175.5340  135.7870 C   0  0  0  0  0  0  0  0  0  0  0  0
  192.2170  176.9640  138.9480 C   0  0  2  0  0  3  0  0  0  0  0  0
  193.5860  176.7840  139.1520 O   0  0  0  0  0  1  0  0  0  0  0  0
  191.5220  177.2580  140.2690 C   0  0  0  0  0  2  0  0  0  0  0  0
  190.1320  177.8270  140.0330 C   0  0  0  0  0  2  0  0  0  0  0  0
  189.1010  176.9910  140.7640 C   0  0  0  0  0  2  0  0  0  0  0  0
  189.6750  176.5030  142.0780 C   0  0  0  0  0  2  0  0  0  0  0  0
  187.1940  178.0470  147.7470 N   0  0  0  0  0  0  0  0  0  0  0  0
  186.7470  177.7010  143.9890 C   0  0  0  0  0  3  0  0  0  0  0  0
  190.6700  177.0540  146.5070 C   0  0  0  0  0  2  0  0  0  0  0  0
  188.8900  177.0330  143.1820 N   0  0  0  0  0  0  0  0  0  0  0  0
  190.7540  176.8070  144.9690 C   0  0  1  0  0  3  0  0  0  0  0  0
  185.0970  178.3720  146.4720 C   0  0  0  0  0  1  0  0  0  0  0  0
  189.2620  177.5220  146.7060 C   0  0  0  0  0  0  0  0  0  0  0  0
  188.5260  177.7490  147.8680 C   0  0  0  0  0  3  0  0  0  0  0  0
  187.5160  177.3180  142.9980 N   0  0  0  0  0  0  0  0  0  0  0  0
  189.4640  177.2520  144.4470 N   0  0  0  0  0  0  0  0  0  0  0  0
  186.5590  178.0920  146.5300 C   0  0  0  0  0  0  0  0  0  0  0  0
  191.7750  177.5830  144.4240 O   0  0  0  0  0  1  0  0  0  0  0  0
  188.6440  177.6090  145.5100 C   0  0  0  0  0  0  0  0  0  0  0  0
  187.2970  177.8390  145.3580 C   0  0  0  0  0  0  0  0  0  0  0  0
  1 21  1  0  0  0  0
  2  3  2  0  0  0  0
  3  1  1  0  0  0  0
  4  5  1  0  0  0  0
  4  2  2  0  0  0  0
  5  7  1  0  0  0  0
  6  5  1  0  0  0  0
  8  4  1  0  0  0  0
  8 10  1  0  0  0  0
  9  8  2  0  0  0  0
 10 11  1  0  0  0  0
 11 13  1  0  0  0  0
 12 13  1  0  0  0  0
 14  3  1  0  0  0  0
 15 20  1  0  0  0  0
 16 15  2  0  0  0  0
 16 19  1  0  0  0  0
 18 17  1  0  0  0  0
 19 18  2  0  0  0  0
 20 14  1  0  0  0  0
 20 17  2  0  0  0  0
 21 22  1  1  0  0  0
 21 23  1  0  0  0  0
 24 23  1  0  0  0  0
 24 25  1  0  0  0  0
 25 26  1  0  0  0  0
 26 30  1  0  0  0  0
 27 34  1  0  0  0  0
 28 40  1  0  0  0  0
 29 33  1  0  0  0  0
 30 36  1  0  0  0  0
 31 38  1  6  0  0  0
 31 29  1  0  0  0  0
 32 37  1  0  0  0  0
 33 34  2  0  0  0  0
 35 30  1  0  0  0  0
 35 28  2  0  0  0  0
 36 31  1  0  0  0  0
 36 39  1  0  0  0  0
 37 27  2  0  0  0  0
 39 33  1  0  0  0  0
 40 39  2  0  0  0  0
 40 37  1  0  0  0  0
M  END
>  <MODEL>
3

>  <REMARK>
 VINA RESULT:      -7.5      4.040      7.793
  Name = 
  14 active torsions:
  status: ('A' for Active; 'I' for Inactive)
    1  A    between atoms: C_2  and  C_39
    2  A    between atoms: C_7  and  C_8
    3  A    between atoms: C_7  and  C_31
    4  A    between atoms: C_8  and  C_40
    5  A    between atoms: C_9  and  N_11
    6  A    between atoms: C_9  and  C_37
    7  A    between atoms: C_13  and  C_37
    8  A    between atoms: C_13  and  C_39
    9  A    between atoms: C_14  and  C_30
   10  A    between atoms: C_14  and  C_38
   11  A    between atoms: N_16  and  C_30
   12  A    between atoms: N_20  and  C_31
   13  A    between atoms: N_20  and  C_34
   14  A    between atoms: C_38  and  C_40
                            x       y       z     vdW  Elec       q    Type
                         _______ _______ _______ _____ _____    ______ ____

>  <TORSDO>
F 14

$$$$
=
 OpenBabel11042413053D

 40 43  0  0  1  0  0  0  0  0999 V2000
  189.0290  178.6790  139.3220 C   0  0  0  0  0  2  0  0  0  0  0  0
  189.3660  177.5590  141.4250 C   0  0  0  0  0  0  0  0  0  0  0  0
  189.3800  177.4670  140.1260 C   0  0  0  0  0  0  0  0  0  0  0  0
  189.3670  177.6630  142.7350 C   0  0  0  0  0  0  0  0  0  0  0  0
  188.1360  177.2870  143.5150 C   0  0  0  0  0  3  0  0  0  0  0  0
  188.1770  177.8530  144.9220 C   0  0  0  0  0  1  0  0  0  0  0  0
  187.9300  175.7820  143.5550 C   0  0  0  0  0  1  0  0  0  0  0  0
  190.5880  178.0950  143.4620 C   0  0  0  0  0  0  0  0  0  0  0  0
  190.9250  179.3800  143.5590 C   0  0  0  0  0  2  0  0  0  0  0  0
  191.4840  177.0790  144.1000 C   0  0  0  0  0  2  0  0  0  0  0  0
  191.7350  177.4010  145.5690 C   0  0  0  0  0  2  0  0  0  0  0  0
  192.1680  175.7100  147.1260 C   0  0  0  0  0  1  0  0  0  0  0  0
  191.1040  176.4090  146.4250 N   0  0  0  0  0  2  0  0  0  0  0  0
  189.8640  176.2580  139.5230 N   0  0  0  0  0  2  0  0  0  0  0  0
  192.1930  176.8670  139.1210 C   0  0  0  0  0  3  0  0  0  0  0  0
  193.3710  176.7060  138.4590 N   0  0  0  0  0  0  0  0  0  0  0  0
  191.2220  175.1140  137.7880 C   0  0  0  0  0  3  0  0  0  0  0  0
  192.4380  174.9630  137.1200 C   0  0  0  0  0  3  0  0  0  0  0  0
  193.5130  175.7790  137.4740 C   0  0  0  0  0  3  0  0  0  0  0  0
  191.0860  176.0780  138.7940 C   0  0  0  0  0  0  0  0  0  0  0  0
  188.6430  178.2840  137.9060 C   0  0  2  0  0  3  0  0  0  0  0  0
  189.4660  178.9480  136.9940 O   0  0  0  0  0  1  0  0  0  0  0  0
  187.1850  178.6460  137.6580 C   0  0  0  0  0  2  0  0  0  0  0  0
  186.3700  177.4050  137.3330 C   0  0  0  0  0  2  0  0  0  0  0  0
  184.9610  177.5570  137.8730 C   0  0  0  0  0  2  0  0  0  0  0  0
  184.8000  178.9260  138.5020 C   0  0  0  0  0  2  0  0  0  0  0  0
  182.1890  178.8940  144.3220 N   0  0  0  0  0  0  0  0  0  0  0  0
  185.3140  178.8190  142.1600 C   0  0  0  0  0  3  0  0  0  0  0  0
  180.8240  178.7550  140.7540 C   0  0  0  0  0  2  0  0  0  0  0  0
  184.5020  178.7810  139.9180 N   0  0  0  0  0  0  0  0  0  0  0  0
  181.9240  178.7550  139.6480 C   0  0  1  0  0  3  0  0  0  0  0  0
  184.5340  178.9580  145.1130 C   0  0  0  0  0  1  0  0  0  0  0  0
  181.6120  178.7060  142.0260 C   0  0  0  0  0  0  0  0  0  0  0  0
  181.2170  178.8450  143.3560 C   0  0  0  0  0  3  0  0  0  0  0  0
  185.5470  178.8440  140.8700 N   0  0  0  0  0  0  0  0  0  0  0  0
  183.1830  178.5970  140.3720 N   0  0  0  0  0  0  0  0  0  0  0  0
  183.5270  178.8480  144.0190 C   0  0  0  0  0  0  0  0  0  0  0  0
  181.7320  177.6700  138.7950 O   0  0  0  0  0  1  0  0  0  0  0  0
  182.9270  178.6200  141.7370 C   0  0  0  0  0  0  0  0  0  0  0  0
  183.9260  178.7330  142.6740 C   0  0  0  0  0  0  0  0  0  0  0  0
  1  3  1  0  0  0  0
  2  4  2  0  0  0  0
  3  2  2  0  0  0  0
  4  8  1  0  0  0  0
  4  5  1  0  0  0  0
  5  7  1  0  0  0  0
  5  6  1  0  0  0  0
  8  9  2  0  0  0  0
  8 10  1  0  0  0  0
 10 11  1  0  0  0  0
 11 13  1  0  0  0  0
 13 12  1  0  0  0  0
 14  3  1  0  0  0  0
 16 15  2  0  0  0  0
 17 20  2  0  0  0  0
 18 19  2  0  0  0  0
 18 17  1  0  0  0  0
 19 16  1  0  0  0  0
 20 15  1  0  0  0  0
 20 14  1  0  0  0  0
 21 22  1  6  0  0  0
 21  1  1  0  0  0  0
 23 21  1  0  0  0  0
 24 23  1  0  0  0  0
 24 25  1  0  0  0  0
 25 26  1  0  0  0  0
 26 30  1  0  0  0  0
 28 40  1  0  0  0  0
 29 33  1  0  0  0  0
 30 36  1  0  0  0  0
 30 35  1  0  0  0  0
 31 38  1  6  0  0  0
 31 36  1  0  0  0  0
 31 29  1  0  0  0  0
 33 34  1  0  0  0  0
 34 27  2  0  0  0  0
 35 28  2  0  0  0  0
 36 39  1  0  0  0  0
 37 27  1  0  0  0  0
 37 32  1  0  0  0  0
 39 33  2  0  0  0  0
 39 40  1  0  0  0  0
 40 37  2  0  0  0  0
M  END
>  <MODEL>
4

>  <REMARK>
 VINA RESULT:      -7.4      2.915      8.636
  Name = 
  14 active torsions:
  status: ('A' for Active; 'I' for Inactive)
    1  A    between atoms: C_2  and  C_39
    2  A    between atoms: C_7  and  C_8
    3  A    between atoms: C_7  and  C_31
    4  A    between atoms: C_8  and  C_40
    5  A    between atoms: C_9  and  N_11
    6  A    between atoms: C_9  and  C_37
    7  A    between atoms: C_13  and  C_37
    8  A    between atoms: C_13  and  C_39
    9  A    between atoms: C_14  and  C_30
   10  A    between atoms: C_14  and  C_38
   11  A    between atoms: N_16  and  C_30
   12  A    between atoms: N_20  and  C_31
   13  A    between atoms: N_20  and  C_34
   14  A    between atoms: C_38  and  C_40
                            x       y       z     vdW  Elec       q    Type
                         _______ _______ _______ _____ _____    ______ ____

>  <TORSDO>
F 14

$$$$
=
 OpenBabel11042413053D

 40 43  0  0  1  0  0  0  0  0999 V2000
  184.6770  178.1800  138.8290 C   0  0  0  0  0  2  0  0  0  0  0  0
  183.3650  177.3320  136.9990 C   0  0  0  0  0  0  0  0  0  0  0  0
  184.5550  177.5900  137.4590 C   0  0  0  0  0  0  0  0  0  0  0  0
  182.1620  177.0590  136.5450 C   0  0  0  0  0  0  0  0  0  0  0  0
  181.4340  178.0690  135.7010 C   0  0  0  0  0  3  0  0  0  0  0  0
  180.9700  179.2530  136.5300 C   0  0  0  0  0  1  0  0  0  0  0  0
  180.2600  177.4480  134.9630 C   0  0  0  0  0  1  0  0  0  0  0  0
  181.5320  175.7390  136.8120 C   0  0  0  0  0  0  0  0  0  0  0  0
  180.7940  175.5250  137.8990 C   0  0  0  0  0  2  0  0  0  0  0  0
  181.7260  174.6050  135.8540 C   0  0  0  0  0  2  0  0  0  0  0  0
  182.6160  173.5200  136.4480 C   0  0  0  0  0  2  0  0  0  0  0  0
  184.6540  173.8100  137.5600 C   0  0  0  0  0  1  0  0  0  0  0  0
  184.0200  173.8470  136.2530 N   0  0  0  0  0  2  0  0  0  0  0  0
  185.6970  177.1710  136.6980 N   0  0  0  0  0  2  0  0  0  0  0  0
  187.8190  176.3440  137.5760 C   0  0  0  0  0  3  0  0  0  0  0  0
  189.1370  176.5140  137.8670 N   0  0  0  0  0  0  0  0  0  0  0  0
  187.7280  178.6000  136.7410 C   0  0  0  0  0  3  0  0  0  0  0  0
  189.0800  178.7560  137.0480 C   0  0  0  0  0  3  0  0  0  0  0  0
  189.7760  177.6890  137.6180 C   0  0  0  0  0  3  0  0  0  0  0  0
  187.0800  177.3880  137.0120 C   0  0  0  0  0  0  0  0  0  0  0  0
  183.6350  179.2670  139.0350 C   0  0  2  0  0  3  0  0  0  0  0  0
  184.2530  180.5190  138.9980 O   0  0  0  0  0  1  0  0  0  0  0  0
  182.9450  179.0600  140.3750 C   0  0  0  0  0  2  0  0  0  0  0  0
  183.7410  178.1050  141.2500 C   0  0  0  0  0  2  0  0  0  0  0  0
  183.5320  178.4490  142.7110 C   0  0  0  0  0  2  0  0  0  0  0  0
  184.6230  179.3920  143.1760 C   0  0  0  0  0  2  0  0  0  0  0  0
  189.7240  176.8980  146.0820 N   0  0  0  0  0  0  0  0  0  0  0  0
  187.7910  177.5150  142.8670 C   0  0  0  0  0  3  0  0  0  0  0  0
  186.5160  178.6090  147.2630 C   0  0  0  0  0  2  0  0  0  0  0  0
  185.7990  178.6290  143.5610 N   0  0  0  0  0  0  0  0  0  0  0  0
  185.5450  179.0130  146.1120 C   0  0  1  0  0  3  0  0  0  0  0  0
  190.4540  176.3260  143.7860 C   0  0  0  0  0  1  0  0  0  0  0  0
  187.6140  177.8800  146.5510 C   0  0  0  0  0  0  0  0  0  0  0  0
  188.8490  177.4160  147.0010 C   0  0  0  0  0  3  0  0  0  0  0  0
  186.6690  178.1220  142.5650 N   0  0  0  0  0  0  0  0  0  0  0  0
  186.1090  178.3960  144.9130 N   0  0  0  0  0  0  0  0  0  0  0  0
  189.4370  176.8560  144.7390 C   0  0  0  0  0  0  0  0  0  0  0  0
  184.2790  178.4870  146.3600 O   0  0  0  0  0  1  0  0  0  0  0  0
  187.3200  177.7990  145.2370 C   0  0  0  0  0  0  0  0  0  0  0  0
  188.2000  177.3480  144.2830 C   0  0  0  0  0  0  0  0  0  0  0  0
  1 21  1  0  0  0  0
  2  3  2  0  0  0  0
  3  1  1  0  0  0  0
  4  8  1  0  0  0  0
  4  2  2  0  0  0  0
  5  6  1  0  0  0  0
  5  4  1  0  0  0  0
  7  5  1  0  0  0  0
  8  9  2  0  0  0  0
 10 11  1  0  0  0  0
 10  8  1  0  0  0  0
 13 11  1  0  0  0  0
 13 12  1  0  0  0  0
 14 20  1  0  0  0  0
 14  3  1  0  0  0  0
 15 16  1  0  0  0  0
 17 20  1  0  0  0  0
 17 18  2  0  0  0  0
 18 19  1  0  0  0  0
 19 16  2  0  0  0  0
 20 15  2  0  0  0  0
 21 22  1  1  0  0  0
 21 23  1  0  0  0  0
 23 24  1  0  0  0  0
 24 25  1  0  0  0  0
 25 26  1  0  0  0  0
 26 30  1  0  0  0  0
 27 34  1  0  0  0  0
 28 40  1  0  0  0  0
 30 36  1  0  0  0  0
 31 38  1  1  0  0  0
 31 29  1  0  0  0  0
 32 37  1  0  0  0  0
 33 34  2  0  0  0  0
 33 29  1  0  0  0  0
 35 28  2  0  0  0  0
 35 30  1  0  0  0  0
 36 39  1  0  0  0  0
 36 31  1  0  0  0  0
 37 27  2  0  0  0  0
 39 33  1  0  0  0  0
 40 37  1  0  0  0  0
 40 39  2  0  0  0  0
M  END
>  <MODEL>
5

>  <REMARK>
 VINA RESULT:      -7.3      2.183      4.895
  Name = 
  14 active torsions:
  status: ('A' for Active; 'I' for Inactive)
    1  A    between atoms: C_2  and  C_39
    2  A    between atoms: C_7  and  C_8
    3  A    between atoms: C_7  and  C_31
    4  A    between atoms: C_8  and  C_40
    5  A    between atoms: C_9  and  N_11
    6  A    between atoms: C_9  and  C_37
    7  A    between atoms: C_13  and  C_37
    8  A    between atoms: C_13  and  C_39
    9  A    between atoms: C_14  and  C_30
   10  A    between atoms: C_14  and  C_38
   11  A    between atoms: N_16  and  C_30
   12  A    between atoms: N_20  and  C_31
   13  A    between atoms: N_20  and  C_34
   14  A    between atoms: C_38  and  C_40
                            x       y       z     vdW  Elec       q    Type
                         _______ _______ _______ _____ _____    ______ ____

>  <TORSDO>
F 14

$$$$
=
 OpenBabel11042413053D

 40 43  0  0  1  0  0  0  0  0999 V2000
  183.4250  177.7810  141.6410 C   0  0  0  0  0  2  0  0  0  0  0  0
  182.9630  178.5800  139.4180 C   0  0  0  0  0  0  0  0  0  0  0  0
  183.7740  178.5980  140.4370 C   0  0  0  0  0  0  0  0  0  0  0  0
  182.1480  178.5440  138.3870 C   0  0  0  0  0  0  0  0  0  0  0  0
  181.0750  179.5900  138.2460 C   0  0  0  0  0  3  0  0  0  0  0  0
  181.5850  180.9640  138.6410 C   0  0  0  0  0  1  0  0  0  0  0  0
  179.8340  179.2360  139.0480 C   0  0  0  0  0  1  0  0  0  0  0  0
  182.3100  177.5150  137.3280 C   0  0  0  0  0  0  0  0  0  0  0  0
  182.8220  177.8140  136.1350 C   0  0  0  0  0  2  0  0  0  0  0  0
  181.8830  176.1020  137.5800 C   0  0  0  0  0  2  0  0  0  0  0  0
  183.0820  175.1950  137.8320 C   0  0  0  0  0  2  0  0  0  0  0  0
  183.5540  174.1630  135.7870 C   0  0  0  0  0  1  0  0  0  0  0  0
  182.9480  173.9510  137.0900 N   0  0  0  0  0  2  0  0  0  0  0  0
  185.0280  179.2840  140.3100 N   0  0  0  0  0  2  0  0  0  0  0  0
  187.3200  178.6280  140.8300 C   0  0  0  0  0  3  0  0  0  0  0  0
  188.5180  178.0890  140.4730 N   0  0  0  0  0  0  0  0  0  0  0  0
  186.5020  178.2530  138.5980 C   0  0  0  0  0  3  0  0  0  0  0  0
  187.7370  177.7050  138.2490 C   0  0  0  0  0  3  0  0  0  0  0  0
  188.7440  177.6320  139.2130 C   0  0  0  0  0  3  0  0  0  0  0  0
  186.2850  178.7300  139.8970 C   0  0  0  0  0  0  0  0  0  0  0  0
  182.6890  178.6290  142.6640 C   0  0  2  0  0  3  0  0  0  0  0  0
  181.7880  179.4730  142.0110 O   0  0  0  0  0  1  0  0  0  0  0  0
  183.6940  179.4480  143.4610 C   0  0  0  0  0  2  0  0  0  0  0  0
  183.7220  179.0030  144.9140 C   0  0  0  0  0  2  0  0  0  0  0  0
  185.0490  179.3760  145.5440 C   0  0  0  0  0  2  0  0  0  0  0  0
  185.5320  178.2440  146.4270 C   0  0  0  0  0  2  0  0  0  0  0  0
  191.5100  176.5860  144.9430 N   0  0  0  0  0  0  0  0  0  0  0  0
  187.8530  176.8120  143.9330 C   0  0  0  0  0  3  0  0  0  0  0  0
  189.7740  177.8790  148.0940 C   0  0  0  0  0  2  0  0  0  0  0  0
  186.7410  177.6640  145.8630 N   0  0  0  0  0  0  0  0  0  0  0  0
  188.2390  178.1020  147.9320 C   0  0  1  0  0  3  0  0  0  0  0  0
  190.5530  176.0370  142.7270 C   0  0  0  0  0  1  0  0  0  0  0  0
  190.1770  177.2830  146.7810 C   0  0  0  0  0  0  0  0  0  0  0  0
  191.4360  177.0100  146.2440 C   0  0  0  0  0  3  0  0  0  0  0  0
  186.7590  177.2460  144.5110 N   0  0  0  0  0  0  0  0  0  0  0  0
  187.9120  177.5260  146.6300 N   0  0  0  0  0  0  0  0  0  0  0  0
  190.3970  176.4550  144.1490 C   0  0  0  0  0  0  0  0  0  0  0  0
  187.5570  177.4160  148.9350 O   0  0  0  0  0  1  0  0  0  0  0  0
  189.0840  177.1140  146.0100 C   0  0  0  0  0  0  0  0  0  0  0  0
  189.1300  176.7550  144.6830 C   0  0  0  0  0  0  0  0  0  0  0  0
  1 21  1  0  0  0  0
  2  3  2  0  0  0  0
  3  1  1  0  0  0  0
  4  2  2  0  0  0  0
  5  4  1  0  0  0  0
  5  6  1  0  0  0  0
  5  7  1  0  0  0  0
  8 10  1  0  0  0  0
  8  4  1  0  0  0  0
  9  8  2  0  0  0  0
 10 11  1  0  0  0  0
 12 13  1  0  0  0  0
 13 11  1  0  0  0  0
 14  3  1  0  0  0  0
 16 15  1  0  0  0  0
 17 20  1  0  0  0  0
 18 17  2  0  0  0  0
 18 19  1  0  0  0  0
 19 16  2  0  0  0  0
 20 14  1  0  0  0  0
 20 15  2  0  0  0  0
 21 22  1  6  0  0  0
 21 23  1  0  0  0  0
 23 24  1  0  0  0  0
 24 25  1  0  0  0  0
 25 26  1  0  0  0  0
 27 34  1  0  0  0  0
 28 35  2  0  0  0  0
 28 40  1  0  0  0  0
 30 26  1  0  0  0  0
 30 36  1  0  0  0  0
 31 29  1  0  0  0  0
 31 38  1  1  0  0  0
 32 37  1  0  0  0  0
 33 29  1  0  0  0  0
 34 33  2  0  0  0  0
 35 30  1  0  0  0  0
 36 31  1  0  0  0  0
 37 40  1  0  0  0  0
 37 27  2  0  0  0  0
 39 36  1  0  0  0  0
 39 33  1  0  0  0  0
 40 39  2  0  0  0  0
M  END
>  <MODEL>
6

>  <REMARK>
 VINA RESULT:      -7.2      1.690      4.225
  Name = 
  14 active torsions:
  status: ('A' for Active; 'I' for Inactive)
    1  A    between atoms: C_2  and  C_39
    2  A    between atoms: C_7  and  C_8
    3  A    between atoms: C_7  and  C_31
    4  A    between atoms: C_8  and  C_40
    5  A    between atoms: C_9  and  N_11
    6  A    between atoms: C_9  and  C_37
    7  A    between atoms: C_13  and  C_37
    8  A    between atoms: C_13  and  C_39
    9  A    between atoms: C_14  and  C_30
   10  A    between atoms: C_14  and  C_38
   11  A    between atoms: N_16  and  C_30
   12  A    between atoms: N_20  and  C_31
   13  A    between atoms: N_20  and  C_34
   14  A    between atoms: C_38  and  C_40
                            x       y       z     vdW  Elec       q    Type
                         _______ _______ _______ _____ _____    ______ ____

>  <TORSDO>
F 14

$$$$
=
 OpenBabel11042413053D

 40 43  0  0  1  0  0  0  0  0999 V2000
  184.1520  177.5900  139.2720 C   0  0  0  0  0  2  0  0  0  0  0  0
  182.9730  177.0550  137.2430 C   0  0  0  0  0  0  0  0  0  0  0  0
  184.1260  177.1540  137.8410 C   0  0  0  0  0  0  0  0  0  0  0  0
  181.8050  176.9420  136.6490 C   0  0  0  0  0  0  0  0  0  0  0  0
  181.2570  178.0950  135.8540 C   0  0  0  0  0  3  0  0  0  0  0  0
  182.0720  178.3390  134.5970 C   0  0  0  0  0  1  0  0  0  0  0  0
  181.1730  179.3650  136.6840 C   0  0  0  0  0  1  0  0  0  0  0  0
  181.0440  175.6670  136.7090 C   0  0  0  0  0  0  0  0  0  0  0  0
  181.3380  174.6410  135.9130 C   0  0  0  0  0  2  0  0  0  0  0  0
  179.9080  175.5130  137.6730 C   0  0  0  0  0  2  0  0  0  0  0  0
  180.3160  174.6880  138.8870 C   0  0  0  0  0  2  0  0  0  0  0  0
  180.2910  176.6500  140.1620 C   0  0  0  0  0  1  0  0  0  0  0  0
  181.0980  175.4930  139.8130 N   0  0  0  0  0  2  0  0  0  0  0  0
  185.3030  176.7080  137.1510 N   0  0  0  0  0  2  0  0  0  0  0  0
  186.8260  178.6100  137.0040 C   0  0  0  0  0  3  0  0  0  0  0  0
  188.0680  179.1550  137.1100 N   0  0  0  0  0  0  0  0  0  0  0  0
  187.7280  176.4680  137.6250 C   0  0  0  0  0  3  0  0  0  0  0  0
  188.9950  177.0430  137.7280 C   0  0  0  0  0  3  0  0  0  0  0  0
  189.1460  178.4050  137.4630 C   0  0  0  0  0  3  0  0  0  0  0  0
  186.6280  177.2490  137.2520 C   0  0  0  0  0  0  0  0  0  0  0  0
  183.5950  178.9970  139.4090 C   0  0  2  0  0  3  0  0  0  0  0  0
  184.6310  179.9240  139.2840 O   0  0  0  0  0  1  0  0  0  0  0  0
  182.9180  179.1440  140.7640 C   0  0  0  0  0  2  0  0  0  0  0  0
  183.4050  178.0760  141.7290 C   0  0  0  0  0  2  0  0  0  0  0  0
  184.3810  178.6800  142.7180 C   0  0  0  0  0  2  0  0  0  0  0  0
  185.7640  178.1080  142.4860 C   0  0  0  0  0  2  0  0  0  0  0  0
  189.8710  177.0710  147.2550 N   0  0  0  0  0  0  0  0  0  0  0  0
  186.4360  178.2340  146.1180 C   0  0  0  0  0  3  0  0  0  0  0  0
  190.0700  176.9010  143.4410 C   0  0  0  0  0  2  0  0  0  0  0  0
  186.5040  178.0950  143.7380 N   0  0  0  0  0  0  0  0  0  0  0  0
  188.7490  177.2980  142.7140 C   0  0  1  0  0  3  0  0  0  0  0  0
  187.9810  177.7360  148.7090 C   0  0  0  0  0  1  0  0  0  0  0  0
  189.7590  177.1520  144.8840 C   0  0  0  0  0  0  0  0  0  0  0  0
  190.4700  176.8420  146.0430 C   0  0  0  0  0  3  0  0  0  0  0  0
  185.8310  178.3350  144.9600 N   0  0  0  0  0  0  0  0  0  0  0  0
  187.8850  177.8260  143.7670 N   0  0  0  0  0  0  0  0  0  0  0  0
  188.5920  177.5580  147.3610 C   0  0  0  0  0  0  0  0  0  0  0  0
  189.0110  178.2960  141.7770 O   0  0  0  0  0  1  0  0  0  0  0  0
  188.5180  177.6690  144.9930 C   0  0  0  0  0  0  0  0  0  0  0  0
  187.8650  177.8470  146.1900 C   0  0  0  0  0  0  0  0  0  0  0  0
  1 21  1  0  0  0  0
  2  3  2  0  0  0  0
  3  1  1  0  0  0  0
  4  8  1  0  0  0  0
  4  2  2  0  0  0  0
  5  4  1  0  0  0  0
  5  7  1  0  0  0  0
  6  5  1  0  0  0  0
  8 10  1  0  0  0  0
  9  8  2  0  0  0  0
 10 11  1  0  0  0  0
 11 13  1  0  0  0  0
 13 12  1  0  0  0  0
 14 20  1  0  0  0  0
 14  3  1  0  0  0  0
 15 16  2  0  0  0  0
 15 20  1  0  0  0  0
 16 19  1  0  0  0  0
 17 18  1  0  0  0  0
 19 18  2  0  0  0  0
 20 17  2  0  0  0  0
 21 22  1  1  0  0  0
 21 23  1  0  0  0  0
 23 24  1  0  0  0  0
 24 25  1  0  0  0  0
 26 25  1  0  0  0  0
 26 30  1  0  0  0  0
 27 37  1  0  0  0  0
 28 40  1  0  0  0  0
 29 33  1  0  0  0  0
 30 36  1  0  0  0  0
 30 35  1  0  0  0  0
 31 38  1  6  0  0  0
 31 29  1  0  0  0  0
 31 36  1  0  0  0  0
 33 39  2  0  0  0  0
 33 34  1  0  0  0  0
 34 27  2  0  0  0  0
 35 28  2  0  0  0  0
 36 39  1  0  0  0  0
 37 32  1  0  0  0  0
 39 40  1  0  0  0  0
 40 37  2  0  0  0  0
M  END
>  <MODEL>
7

>  <REMARK>
 VINA RESULT:      -7.2      2.327      5.274
  Name = 
  14 active torsions:
  status: ('A' for Active; 'I' for Inactive)
    1  A    between atoms: C_2  and  C_39
    2  A    between atoms: C_7  and  C_8
    3  A    between atoms: C_7  and  C_31
    4  A    between atoms: C_8  and  C_40
    5  A    between atoms: C_9  and  N_11
    6  A    between atoms: C_9  and  C_37
    7  A    between atoms: C_13  and  C_37
    8  A    between atoms: C_13  and  C_39
    9  A    between atoms: C_14  and  C_30
   10  A    between atoms: C_14  and  C_38
   11  A    between atoms: N_16  and  C_30
   12  A    between atoms: N_20  and  C_31
   13  A    between atoms: N_20  and  C_34
   14  A    between atoms: C_38  and  C_40
                            x       y       z     vdW  Elec       q    Type
                         _______ _______ _______ _____ _____    ______ ____

>  <TORSDO>
F 14

$$$$
=
 OpenBabel11042413053D

 40 43  0  0  1  0  0  0  0  0999 V2000
  188.5210  177.0690  139.5530 C   0  0  0  0  0  2  0  0  0  0  0  0
  188.1530  176.5480  137.2320 C   0  0  0  0  0  0  0  0  0  0  0  0
  187.8000  177.2700  138.2570 C   0  0  0  0  0  0  0  0  0  0  0  0
  188.5230  175.8270  136.1970 C   0  0  0  0  0  0  0  0  0  0  0  0
  187.8110  174.5380  135.8910 C   0  0  0  0  0  3  0  0  0  0  0  0
  186.3040  174.7200  135.9080 C   0  0  0  0  0  1  0  0  0  0  0  0
  188.2190  173.4260  136.8440 C   0  0  0  0  0  1  0  0  0  0  0  0
  189.6040  176.2980  135.2920 C   0  0  0  0  0  0  0  0  0  0  0  0
  189.5580  177.4970  134.7150 C   0  0  0  0  0  2  0  0  0  0  0  0
  190.7780  175.4150  134.9980 C   0  0  0  0  0  2  0  0  0  0  0  0
  191.9560  175.7330  135.9120 C   0  0  0  0  0  2  0  0  0  0  0  0
  193.3050  174.7570  137.5550 C   0  0  0  0  0  1  0  0  0  0  0  0
  192.6650  174.5150  136.2730 N   0  0  0  0  0  2  0  0  0  0  0  0
  186.8410  178.3200  138.0650 N   0  0  0  0  0  2  0  0  0  0  0  0
  184.8960  179.0470  139.3490 C   0  0  0  0  0  3  0  0  0  0  0  0
  183.5590  179.0320  139.6010 N   0  0  0  0  0  0  0  0  0  0  0  0
  184.5600  177.4850  137.5490 C   0  0  0  0  0  3  0  0  0  0  0  0
  183.1910  177.4810  137.8230 C   0  0  0  0  0  3  0  0  0  0  0  0
  182.7050  178.2700  138.8670 C   0  0  0  0  0  3  0  0  0  0  0  0
  185.4300  178.2660  138.3190 C   0  0  0  0  0  0  0  0  0  0  0  0
  190.0240  177.1410  139.3420 C   0  0  2  0  0  3  0  0  0  0  0  0
  190.5570  175.8500  139.3310 O   0  0  0  0  0  1  0  0  0  0  0  0
  190.6540  177.9610  140.4590 C   0  0  0  0  0  2  0  0  0  0  0  0
  191.2920  177.0540  141.4990 C   0  0  0  0  0  2  0  0  0  0  0  0
  190.6780  177.3170  142.8590 C   0  0  0  0  0  2  0  0  0  0  0  0
  189.5420  176.3450  143.1040 C   0  0  0  0  0  2  0  0  0  0  0  0
  184.7620  178.8470  146.5080 N   0  0  0  0  0  0  0  0  0  0  0  0
  186.1990  177.9210  143.1130 C   0  0  0  0  0  3  0  0  0  0  0  0
  188.2690  177.5630  147.3240 C   0  0  0  0  0  2  0  0  0  0  0  0
  188.3750  177.0670  143.5860 N   0  0  0  0  0  0  0  0  0  0  0  0
  189.0750  177.0710  146.0820 C   0  0  1  0  0  3  0  0  0  0  0  0
  183.6190  179.0300  144.3200 C   0  0  0  0  0  1  0  0  0  0  0  0
  187.0060  178.0990  146.7260 C   0  0  0  0  0  0  0  0  0  0  0  0
  185.8200  178.5310  147.3200 C   0  0  0  0  0  3  0  0  0  0  0  0
  187.3110  177.3620  142.7010 N   0  0  0  0  0  0  0  0  0  0  0  0
  188.2680  177.4670  144.9310 N   0  0  0  0  0  0  0  0  0  0  0  0
  184.8220  178.7180  145.1420 C   0  0  0  0  0  0  0  0  0  0  0  0
  190.3080  177.7190  146.0370 O   0  0  0  0  0  1  0  0  0  0  0  0
  187.0730  178.0140  145.3810 C   0  0  0  0  0  0  0  0  0  0  0  0
  186.0110  178.2580  144.5440 C   0  0  0  0  0  0  0  0  0  0  0  0
  2  3  2  0  0  0  0
  3  1  1  0  0  0  0
  4  2  2  0  0  0  0
  5  6  1  0  0  0  0
  5  4  1  0  0  0  0
  5  7  1  0  0  0  0
  8  4  1  0  0  0  0
  9  8  2  0  0  0  0
 10  8  1  0  0  0  0
 10 11  1  0  0  0  0
 11 13  1  0  0  0  0
 13 12  1  0  0  0  0
 14  3  1  0  0  0  0
 14 20  1  0  0  0  0
 15 16  1  0  0  0  0
 17 18  2  0  0  0  0
 17 20  1  0  0  0  0
 18 19  1  0  0  0  0
 19 16  2  0  0  0  0
 20 15  2  0  0  0  0
 21 22  1  1  0  0  0
 21  1  1  0  0  0  0
 21 23  1  0  0  0  0
 23 24  1  0  0  0  0
 24 25  1  0  0  0  0
 25 26  1  0  0  0  0
 26 30  1  0  0  0  0
 27 34  1  0  0  0  0
 28 40  1  0  0  0  0
 30 36  1  0  0  0  0
 31 38  1  6  0  0  0
 31 29  1  0  0  0  0
 32 37  1  0  0  0  0
 33 34  2  0  0  0  0
 33 29  1  0  0  0  0
 35 28  2  0  0  0  0
 35 30  1  0  0  0  0
 36 39  1  0  0  0  0
 36 31  1  0  0  0  0
 37 27  2  0  0  0  0
 39 33  1  0  0  0  0
 40 37  1  0  0  0  0
 40 39  2  0  0  0  0
M  END
>  <MODEL>
8

>  <REMARK>
 VINA RESULT:      -7.1      2.473      4.707
  Name = 
  14 active torsions:
  status: ('A' for Active; 'I' for Inactive)
    1  A    between atoms: C_2  and  C_39
    2  A    between atoms: C_7  and  C_8
    3  A    between atoms: C_7  and  C_31
    4  A    between atoms: C_8  and  C_40
    5  A    between atoms: C_9  and  N_11
    6  A    between atoms: C_9  and  C_37
    7  A    between atoms: C_13  and  C_37
    8  A    between atoms: C_13  and  C_39
    9  A    between atoms: C_14  and  C_30
   10  A    between atoms: C_14  and  C_38
   11  A    between atoms: N_16  and  C_30
   12  A    between atoms: N_20  and  C_31
   13  A    between atoms: N_20  and  C_34
   14  A    between atoms: C_38  and  C_40
                            x       y       z     vdW  Elec       q    Type
                         _______ _______ _______ _____ _____    ______ ____

>  <TORSDO>
F 14

$$$$
=
 OpenBabel11042413053D

 40 43  0  0  1  0  0  0  0  0999 V2000
  182.4720  179.4350  139.5580 C   0  0  0  0  0  2  0  0  0  0  0  0
  181.9210  178.0960  137.6360 C   0  0  0  0  0  0  0  0  0  0  0  0
  181.6160  179.1270  138.3700 C   0  0  0  0  0  0  0  0  0  0  0  0
  182.2430  177.0620  136.8900 C   0  0  0  0  0  0  0  0  0  0  0  0
  181.6030  175.7250  137.1500 C   0  0  0  0  0  3  0  0  0  0  0  0
  180.1120  175.7610  136.8690 C   0  0  0  0  0  1  0  0  0  0  0  0
  181.8630  175.2400  138.5660 C   0  0  0  0  0  1  0  0  0  0  0  0
  183.1920  177.2100  135.7570 C   0  0  0  0  0  0  0  0  0  0  0  0
  182.8580  177.8710  134.6490 C   0  0  0  0  0  2  0  0  0  0  0  0
  184.5580  176.6020  135.8330 C   0  0  0  0  0  2  0  0  0  0  0  0
  185.1700  176.7800  137.2180 C   0  0  0  0  0  2  0  0  0  0  0  0
  186.8800  178.3700  137.0720 C   0  0  0  0  0  1  0  0  0  0  0  0
  186.6120  176.9430  137.1220 N   0  0  0  0  0  2  0  0  0  0  0  0
  180.5660  180.0020  137.9320 N   0  0  0  0  0  2  0  0  0  0  0  0
  181.0870  182.3860  137.9100 C   0  0  0  0  0  3  0  0  0  0  0  0
  181.2450  183.5670  137.2520 N   0  0  0  0  0  0  0  0  0  0  0  0
  180.5050  181.3240  135.8300 C   0  0  0  0  0  3  0  0  0  0  0  0
  180.6700  182.5430  135.1730 C   0  0  0  0  0  3  0  0  0  0  0  0
  181.0440  183.6680  135.9110 C   0  0  0  0  0  3  0  0  0  0  0  0
  180.7050  181.2360  137.2130 C   0  0  0  0  0  0  0  0  0  0  0  0
  182.0860  178.5530  140.7340 C   0  0  2  0  0  3  0  0  0  0  0  0
  181.0990  179.1880  141.4900 O   0  0  0  0  0  1  0  0  0  0  0  0
  183.3140  178.2850  141.5910 C   0  0  0  0  0  2  0  0  0  0  0  0
  184.5700  178.8100  140.9150 C   0  0  0  0  0  2  0  0  0  0  0  0
  185.6740  178.9830  141.9380 C   0  0  0  0  0  2  0  0  0  0  0  0
  185.2200  178.4400  143.2780 C   0  0  0  0  0  2  0  0  0  0  0  0
  189.8890  177.5320  147.5270 N   0  0  0  0  0  0  0  0  0  0  0  0
  188.5700  177.0540  143.9950 C   0  0  0  0  0  3  0  0  0  0  0  0
  186.3480  178.9620  147.6780 C   0  0  0  0  0  2  0  0  0  0  0  0
  186.3730  177.9820  144.0360 N   0  0  0  0  0  0  0  0  0  0  0  0
  185.5840  178.9230  146.3190 C   0  0  1  0  0  3  0  0  0  0  0  0
  191.1120  176.5450  145.6140 C   0  0  0  0  0  1  0  0  0  0  0  0
  187.6350  178.2610  147.3720 C   0  0  0  0  0  0  0  0  0  0  0  0
  188.8010  178.1140  148.1230 C   0  0  0  0  0  3  0  0  0  0  0  0
  187.4700  177.3900  143.3650 N   0  0  0  0  0  0  0  0  0  0  0  0
  186.4340  178.1310  145.4340 N   0  0  0  0  0  0  0  0  0  0  0  0
  189.8780  177.1250  146.2150 C   0  0  0  0  0  0  0  0  0  0  0  0
  184.3570  178.2840  146.4880 O   0  0  0  0  0  1  0  0  0  0  0  0
  187.6150  177.8230  146.0960 C   0  0  0  0  0  0  0  0  0  0  0  0
  188.7090  177.2960  145.4510 C   0  0  0  0  0  0  0  0  0  0  0  0
  1 21  1  0  0  0  0
  2  3  2  0  0  0  0
  3  1  1  0  0  0  0
  4  5  1  0  0  0  0
  4  2  2  0  0  0  0
  5  7  1  0  0  0  0
  6  5  1  0  0  0  0
  8 10  1  0  0  0  0
  8  4  1  0  0  0  0
  9  8  2  0  0  0  0
 10 11  1  0  0  0  0
 12 13  1  0  0  0  0
 13 11  1  0  0  0  0
 14  3  1  0  0  0  0
 16 15  1  0  0  0  0
 17 20  1  0  0  0  0
 18 17  2  0  0  0  0
 18 19  1  0  0  0  0
 19 16  2  0  0  0  0
 20 15  2  0  0  0  0
 20 14  1  0  0  0  0
 21 22  1  1  0  0  0
 21 23  1  0  0  0  0
 24 23  1  0  0  0  0
 24 25  1  0  0  0  0
 25 26  1  0  0  0  0
 26 30  1  0  0  0  0
 27 34  1  0  0  0  0
 28 40  1  0  0  0  0
 30 36  1  0  0  0  0
 31 38  1  1  0  0  0
 31 29  1  0  0  0  0
 32 37  1  0  0  0  0
 33 29  1  0  0  0  0
 33 34  2  0  0  0  0
 35 28  2  0  0  0  0
 35 30  1  0  0  0  0
 36 39  1  0  0  0  0
 36 31  1  0  0  0  0
 37 27  2  0  0  0  0
 39 33  1  0  0  0  0
 40 39  2  0  0  0  0
 40 37  1  0  0  0  0
M  END
>  <MODEL>
9

>  <REMARK>
 VINA RESULT:      -7.1      1.900      3.000
  Name = 
  14 active torsions:
  status: ('A' for Active; 'I' for Inactive)
    1  A    between atoms: C_2  and  C_39
    2  A    between atoms: C_7  and  C_8
    3  A    between atoms: C_7  and  C_31
    4  A    between atoms: C_8  and  C_40
    5  A    between atoms: C_9  and  N_11
    6  A    between atoms: C_9  and  C_37
    7  A    between atoms: C_13  and  C_37
    8  A    between atoms: C_13  and  C_39
    9  A    between atoms: C_14  and  C_30
   10  A    between atoms: C_14  and  C_38
   11  A    between atoms: N_16  and  C_30
   12  A    between atoms: N_20  and  C_31
   13  A    between atoms: N_20  and  C_34
   14  A    between atoms: C_38  and  C_40
                            x       y       z     vdW  Elec       q    Type
                         _______ _______ _______ _____ _____    ______ ____

>  <TORSDO>
F 14

$$$$
