=
 OpenBabel11032419343D

 31 33  0  0  1  0  0  0  0  0999 V2000
  187.2120  178.1640  147.0470 C   0  0  0  0  0  0  0  0  0  0  0  0
  187.8630  177.6060  145.9210 C   0  0  0  0  0  0  0  0  0  0  0  0
  189.1820  177.1550  146.0810 C   0  0  0  0  0  3  0  0  0  0  0  0
  189.1540  177.7830  148.3850 N   0  0  0  0  0  0  0  0  0  0  0  0
  185.9060  178.6320  146.9440 C   0  0  0  0  0  3  0  0  0  0  0  0
  185.2380  178.5720  145.7240 C   0  0  0  0  0  3  0  0  0  0  0  0
  187.8800  178.2370  148.2690 C   0  0  0  0  0  3  0  0  0  0  0  0
  187.1720  177.5320  144.6810 C   0  0  0  0  0  0  0  0  0  0  0  0
  189.8140  177.2500  147.3250 C   0  0  0  0  0  3  0  0  0  0  0  0
  185.8580  178.0310  144.5950 C   0  0  0  0  0  0  0  0  0  0  0  0
  185.1820  177.9780  143.3710 O   0  0  0  0  0  0  0  0  0  0  0  0
  184.6540  179.1350  142.7300 C   0  0  0  0  0  2  0  0  0  0  0  0
  185.5840  179.6010  141.7130 N   0  0  0  0  0  2  0  0  0  0  0  0
  184.9870  178.9970  139.4080 C   0  0  0  0  0  0  0  0  0  0  0  0
  184.4470  180.1180  139.2330 O   0  0  0  0  0  1  0  0  0  0  0  0
  185.5600  178.6640  140.6690 N   0  0  0  0  0  2  0  0  0  0  0  0
  185.0120  178.0750  138.3720 O   0  0  0  0  0  0  0  0  0  0  0  0
  187.7360  176.9420  143.4920 N   0  0  0  0  0  2  0  0  0  0  0  0
  188.5440  177.6110  142.4820 C   0  0  0  0  0  2  0  0  0  0  0  0
  190.6070  176.4540  142.8680 O   0  0  0  0  0  1  0  0  0  0  0  0
  189.5840  176.6500  141.9260 C   0  0  2  0  0  3  0  0  0  0  0  0
  189.6930  175.2860  137.8270 F   0  0  0  0  0  0  0  0  0  0  0  0
  190.1570  177.2030  140.6220 C   0  0  2  0  0  3  0  0  0  0  0  0
  188.8480  177.3460  138.6570 C   0  0  2  0  0  3  0  0  0  0  0  0
  189.1410  178.0910  139.9270 C   0  0  0  0  0  2  0  0  0  0  0  0
  190.5540  176.1480  139.7620 O   0  0  0  0  0  0  0  0  0  0  0  0
  190.0660  176.4520  138.4770 C   0  0  0  0  0  0  0  0  0  0  0  0
  191.0780  177.0730  137.7570 F   0  0  0  0  0  0  0  0  0  0  0  0
  188.8850  179.6140  137.5480 O   0  0  0  0  0  1  0  0  0  0  0  0
  188.5270  178.2700  137.5170 C   0  0  0  0  0  0  0  0  0  0  0  0
  187.8540  177.8360  136.5500 O   0  0  0  0  0  0  0  0  0  0  0  0
  1  7  2  0  0  0  0
  2  3  2  0  0  0  0
  2  1  1  0  0  0  0
  3  9  1  0  0  0  0
  5  1  1  0  0  0  0
  6  5  2  0  0  0  0
  7  4  1  0  0  0  0
  8  2  1  0  0  0  0
  9  4  2  0  0  0  0
 10  8  2  0  0  0  0
 10  6  1  0  0  0  0
 11 10  1  0  0  0  0
 12 11  1  0  0  0  0
 13 12  1  0  0  0  0
 14 16  1  0  0  0  0
 15 14  1  0  0  0  0
 16 13  1  0  0  0  0
 17 14  2  0  0  0  0
 18  8  1  0  0  0  0
 19 18  1  0  0  0  0
 21 19  1  0  0  0  0
 21 20  1  1  0  0  0
 22 27  1  0  0  0  0
 23 21  1  1  0  0  0
 24 30  1  6  0  0  0
 24 25  1  0  0  0  0
 25 23  1  0  0  0  0
 26 23  1  0  0  0  0
 27 24  1  0  0  0  0
 27 26  1  0  0  0  0
 28 27  1  0  0  0  0
 30 29  1  0  0  0  0
 31 30  2  0  0  0  0
M  END
>  <MODEL>
1

>  <REMARK>
 VINA RESULT:      -9.1      0.000      0.000
  Name = 
  9 active torsions:
  status: ('A' for Active; 'I' for Inactive)
    1  A    between atoms: C_4  and  N_10
    2  A    between atoms: C_4  and  C_29
    3  A    between atoms: O_8  and  C_12
    4  A    between atoms: O_8  and  C_28
    5  A    between atoms: N_10  and  C_18
    6  A    between atoms: C_11  and  C_29
    7  A    between atoms: C_12  and  N_27
    8  A    between atoms: C_15  and  C_20
    9  A    between atoms: N_23  and  N_27
                            x       y       z     vdW  Elec       q    Type
                         _______ _______ _______ _____ _____    ______ ____

>  <TORSDO>
F 9

$$$$
=
 OpenBabel11032419343D

 31 33  0  0  1  0  0  0  0  0999 V2000
  184.5530  178.7450  144.6710 C   0  0  0  0  0  0  0  0  0  0  0  0
  185.5640  178.0400  143.9770 C   0  0  0  0  0  0  0  0  0  0  0  0
  185.4230  177.8830  142.5900 C   0  0  0  0  0  3  0  0  0  0  0  0
  183.3710  179.1040  142.6260 N   0  0  0  0  0  0  0  0  0  0  0  0
  184.6390  178.9260  146.0470 C   0  0  0  0  0  3  0  0  0  0  0  0
  185.7140  178.3940  146.7550 C   0  0  0  0  0  3  0  0  0  0  0  0
  183.4670  179.2720  143.9700 C   0  0  0  0  0  3  0  0  0  0  0  0
  186.6680  177.5110  144.7000 C   0  0  0  0  0  0  0  0  0  0  0  0
  184.3170  178.4260  141.9280 C   0  0  0  0  0  3  0  0  0  0  0  0
  186.7240  177.6880  146.0960 C   0  0  0  0  0  0  0  0  0  0  0  0
  187.7990  177.1520  146.8140 O   0  0  0  0  0  0  0  0  0  0  0  0
  188.1740  177.6190  148.1060 C   0  0  0  0  0  2  0  0  0  0  0  0
  189.6140  177.8150  148.1590 N   0  0  0  0  0  2  0  0  0  0  0  0
  191.5050  176.6270  147.1370 C   0  0  0  0  0  0  0  0  0  0  0  0
  192.2230  176.8640  148.1400 O   0  0  0  0  0  1  0  0  0  0  0  0
  190.1680  177.1160  147.0760 N   0  0  0  0  0  2  0  0  0  0  0  0
  192.0230  175.8990  146.0750 O   0  0  0  0  0  0  0  0  0  0  0  0
  187.7670  176.8170  144.0760 N   0  0  0  0  0  2  0  0  0  0  0  0
  188.8520  177.4090  143.3070 C   0  0  0  0  0  2  0  0  0  0  0  0
  190.3820  175.5870  143.0130 O   0  0  0  0  0  1  0  0  0  0  0  0
  189.4330  176.3810  142.3480 C   0  0  2  0  0  3  0  0  0  0  0  0
  190.0720  175.3700  138.1950 F   0  0  0  0  0  0  0  0  0  0  0  0
  190.0710  177.0880  141.1530 C   0  0  2  0  0  3  0  0  0  0  0  0
  188.9510  177.2700  139.0780 C   0  0  2  0  0  3  0  0  0  0  0  0
  189.0440  177.9330  140.4210 C   0  0  0  0  0  2  0  0  0  0  0  0
  190.6530  176.1480  140.2660 O   0  0  0  0  0  0  0  0  0  0  0  0
  190.2630  176.5090  138.9630 C   0  0  0  0  0  0  0  0  0  0  0  0
  191.2740  177.2760  138.3980 F   0  0  0  0  0  0  0  0  0  0  0  0
  188.1270  177.8350  136.7590 O   0  0  0  0  0  0  0  0  0  0  0  0
  188.6520  178.2500  137.9800 C   0  0  0  0  0  0  0  0  0  0  0  0
  188.9530  179.4580  138.1400 O   0  0  0  0  0  1  0  0  0  0  0  0
  1  5  1  0  0  0  0
  2  1  2  0  0  0  0
  2  8  1  0  0  0  0
  3  2  1  0  0  0  0
  4  7  2  0  0  0  0
  5  6  2  0  0  0  0
  7  1  1  0  0  0  0
  8 10  2  0  0  0  0
  9  3  2  0  0  0  0
  9  4  1  0  0  0  0
 10  6  1  0  0  0  0
 10 11  1  0  0  0  0
 11 12  1  0  0  0  0
 12 13  1  0  0  0  0
 14 15  1  0  0  0  0
 16 14  1  0  0  0  0
 16 13  1  0  0  0  0
 17 14  2  0  0  0  0
 18  8  1  0  0  0  0
 19 18  1  0  0  0  0
 21 20  1  1  0  0  0
 21 19  1  0  0  0  0
 22 27  1  0  0  0  0
 23 21  1  1  0  0  0
 24 30  1  6  0  0  0
 24 25  1  0  0  0  0
 25 23  1  0  0  0  0
 26 23  1  0  0  0  0
 27 24  1  0  0  0  0
 27 26  1  0  0  0  0
 28 27  1  0  0  0  0
 29 30  2  0  0  0  0
 30 31  1  0  0  0  0
M  END
>  <MODEL>
2

>  <REMARK>
 VINA RESULT:      -8.6      1.755      5.080
  Name = 
  9 active torsions:
  status: ('A' for Active; 'I' for Inactive)
    1  A    between atoms: C_4  and  N_10
    2  A    between atoms: C_4  and  C_29
    3  A    between atoms: O_8  and  C_12
    4  A    between atoms: O_8  and  C_28
    5  A    between atoms: N_10  and  C_18
    6  A    between atoms: C_11  and  C_29
    7  A    between atoms: C_12  and  N_27
    8  A    between atoms: C_15  and  C_20
    9  A    between atoms: N_23  and  N_27
                            x       y       z     vdW  Elec       q    Type
                         _______ _______ _______ _____ _____    ______ ____

>  <TORSDO>
F 9

$$$$
=
 OpenBabel11032419343D

 31 33  0  0  1  0  0  0  0  0999 V2000
  184.6240  178.6240  144.8560 C   0  0  0  0  0  0  0  0  0  0  0  0
  185.5670  178.1290  143.9240 C   0  0  0  0  0  0  0  0  0  0  0  0
  185.1950  178.0890  142.5710 C   0  0  0  0  0  3  0  0  0  0  0  0
  183.0580  179.0160  143.0950 N   0  0  0  0  0  0  0  0  0  0  0  0
  184.9360  178.6820  146.2100 C   0  0  0  0  0  3  0  0  0  0  0  0
  186.1750  178.2330  146.6590 C   0  0  0  0  0  3  0  0  0  0  0  0
  183.3760  179.0650  144.4140 C   0  0  0  0  0  3  0  0  0  0  0  0
  186.8360  177.6860  144.3840 C   0  0  0  0  0  0  0  0  0  0  0  0
  183.9330  178.5400  142.1730 C   0  0  0  0  0  3  0  0  0  0  0  0
  187.1240  177.7340  145.7620 C   0  0  0  0  0  0  0  0  0  0  0  0
  188.3650  177.2810  146.2220 O   0  0  0  0  0  0  0  0  0  0  0  0
  188.6920  177.1950  147.6050 C   0  0  0  0  0  2  0  0  0  0  0  0
  190.1270  177.3460  147.7820 N   0  0  0  0  0  2  0  0  0  0  0  0
  192.0450  175.8990  147.2710 C   0  0  0  0  0  0  0  0  0  0  0  0
  192.6680  176.3380  148.2690 O   0  0  0  0  0  1  0  0  0  0  0  0
  190.7490  176.4010  146.9530 N   0  0  0  0  0  2  0  0  0  0  0  0
  192.6280  174.9320  146.4650 O   0  0  0  0  0  0  0  0  0  0  0  0
  187.8760  177.2080  143.5070 N   0  0  0  0  0  2  0  0  0  0  0  0
  188.9440  177.9950  142.9070 C   0  0  0  0  0  2  0  0  0  0  0  0
  190.8220  176.9740  141.8220 O   0  0  0  0  0  1  0  0  0  0  0  0
  189.4650  177.2980  141.6590 C   0  0  2  0  0  3  0  0  0  0  0  0
  189.6080  176.7170  137.3790 F   0  0  0  0  0  0  0  0  0  0  0  0
  189.2750  178.2030  140.4420 C   0  0  2  0  0  3  0  0  0  0  0  0
  187.8240  177.6080  138.6710 C   0  0  2  0  0  3  0  0  0  0  0  0
  187.8150  178.2440  140.0300 C   0  0  0  0  0  2  0  0  0  0  0  0
  190.0760  177.7620  139.3580 O   0  0  0  0  0  0  0  0  0  0  0  0
  189.2640  177.7730  138.2090 C   0  0  0  0  0  0  0  0  0  0  0  0
  189.4720  178.9690  137.5350 F   0  0  0  0  0  0  0  0  0  0  0  0
  186.8800  178.1090  136.3830 O   0  0  0  0  0  0  0  0  0  0  0  0
  186.7670  178.1770  137.7690 C   0  0  0  0  0  0  0  0  0  0  0  0
  185.7990  178.7940  138.2760 O   0  0  0  0  0  1  0  0  0  0  0  0
  1  5  1  0  0  0  0
  2  8  1  0  0  0  0
  2  1  2  0  0  0  0
  3  2  1  0  0  0  0
  4  7  2  0  0  0  0
  5  6  2  0  0  0  0
  7  1  1  0  0  0  0
  8 10  2  0  0  0  0
  9  3  2  0  0  0  0
  9  4  1  0  0  0  0
 10 11  1  0  0  0  0
 10  6  1  0  0  0  0
 11 12  1  0  0  0  0
 12 13  1  0  0  0  0
 14 15  1  0  0  0  0
 16 14  1  0  0  0  0
 16 13  1  0  0  0  0
 17 14  2  0  0  0  0
 18  8  1  0  0  0  0
 19 18  1  0  0  0  0
 21 20  1  1  0  0  0
 21 19  1  0  0  0  0
 22 27  1  0  0  0  0
 23 21  1  1  0  0  0
 24 30  1  6  0  0  0
 24 25  1  0  0  0  0
 25 23  1  0  0  0  0
 26 23  1  0  0  0  0
 27 24  1  0  0  0  0
 27 26  1  0  0  0  0
 28 27  1  0  0  0  0
 29 30  2  0  0  0  0
 30 31  1  0  0  0  0
M  END
>  <MODEL>
3

>  <REMARK>
 VINA RESULT:      -8.3      2.031      5.319
  Name = 
  9 active torsions:
  status: ('A' for Active; 'I' for Inactive)
    1  A    between atoms: C_4  and  N_10
    2  A    between atoms: C_4  and  C_29
    3  A    between atoms: O_8  and  C_12
    4  A    between atoms: O_8  and  C_28
    5  A    between atoms: N_10  and  C_18
    6  A    between atoms: C_11  and  C_29
    7  A    between atoms: C_12  and  N_27
    8  A    between atoms: C_15  and  C_20
    9  A    between atoms: N_23  and  N_27
                            x       y       z     vdW  Elec       q    Type
                         _______ _______ _______ _____ _____    ______ ____

>  <TORSDO>
F 9

$$$$
=
 OpenBabel11032419343D

 31 33  0  0  1  0  0  0  0  0999 V2000
  184.3060  178.7040  144.2940 C   0  0  0  0  0  0  0  0  0  0  0  0
  185.6810  178.3770  144.2160 C   0  0  0  0  0  0  0  0  0  0  0  0
  186.3840  178.2030  145.4170 C   0  0  0  0  0  3  0  0  0  0  0  0
  184.4070  178.6450  146.6800 N   0  0  0  0  0  0  0  0  0  0  0  0
  183.5610  178.8940  143.1350 C   0  0  0  0  0  3  0  0  0  0  0  0
  184.1700  178.7820  141.8880 C   0  0  0  0  0  3  0  0  0  0  0  0
  183.6920  178.8290  145.5400 C   0  0  0  0  0  3  0  0  0  0  0  0
  186.2960  178.2480  142.9410 C   0  0  0  0  0  0  0  0  0  0  0  0
  185.7290  178.3390  146.6450 C   0  0  0  0  0  3  0  0  0  0  0  0
  185.5270  178.4650  141.7810 C   0  0  0  0  0  0  0  0  0  0  0  0
  186.1340  178.3590  140.5250 O   0  0  0  0  0  0  0  0  0  0  0  0
  185.5020  178.7880  139.3230 C   0  0  0  0  0  2  0  0  0  0  0  0
  186.4490  178.7310  138.2210 N   0  0  0  0  0  2  0  0  0  0  0  0
  188.8990  178.6380  138.3600 C   0  0  0  0  0  0  0  0  0  0  0  0
  189.0010  179.6080  137.5680 O   0  0  0  0  0  0  0  0  0  0  0  0
  187.6160  178.1250  138.7090 N   0  0  0  0  0  2  0  0  0  0  0  0
  190.0430  178.0550  138.8860 O   0  0  0  0  0  1  0  0  0  0  0  0
  187.6770  177.8760  142.7600 N   0  0  0  0  0  2  0  0  0  0  0  0
  188.3490  176.7100  143.3160 C   0  0  0  0  0  2  0  0  0  0  0  0
  190.5460  175.7580  143.2160 O   0  0  0  0  0  1  0  0  0  0  0  0
  189.8470  176.9620  143.3990 C   0  0  2  0  0  3  0  0  0  0  0  0
  188.8460  176.0680  147.5070 F   0  0  0  0  0  0  0  0  0  0  0  0
  190.1950  177.5810  144.7520 C   0  0  2  0  0  3  0  0  0  0  0  0
  191.0090  176.2680  146.5440 C   0  0  2  0  0  3  0  0  0  0  0  0
  191.4720  176.9760  145.3040 C   0  0  0  0  0  2  0  0  0  0  0  0
  189.1320  177.4030  145.6740 O   0  0  0  0  0  0  0  0  0  0  0  0
  189.7000  176.9650  146.8840 C   0  0  0  0  0  0  0  0  0  0  0  0
  189.8840  178.0670  147.7090 F   0  0  0  0  0  0  0  0  0  0  0  0
  192.2300  177.3420  148.4740 O   0  0  0  0  0  1  0  0  0  0  0  0
  192.0560  176.2580  147.6190 C   0  0  0  0  0  0  0  0  0  0  0  0
  192.8420  175.2820  147.6980 O   0  0  0  0  0  0  0  0  0  0  0  0
  1  7  2  0  0  0  0
  2  1  1  0  0  0  0
  2  3  2  0  0  0  0
  3  9  1  0  0  0  0
  5  1  1  0  0  0  0
  6  5  2  0  0  0  0
  7  4  1  0  0  0  0
  8  2  1  0  0  0  0
  9  4  2  0  0  0  0
 10  6  1  0  0  0  0
 10  8  2  0  0  0  0
 11 10  1  0  0  0  0
 12 11  1  0  0  0  0
 13 16  1  0  0  0  0
 13 12  1  0  0  0  0
 14 16  1  0  0  0  0
 14 17  1  0  0  0  0
 15 14  2  0  0  0  0
 18  8  1  0  0  0  0
 18 19  1  0  0  0  0
 19 21  1  0  0  0  0
 21 20  1  1  0  0  0
 23 21  1  6  0  0  0
 23 25  1  0  0  0  0
 23 26  1  0  0  0  0
 24 27  1  0  0  0  0
 24 30  1  1  0  0  0
 25 24  1  0  0  0  0
 26 27  1  0  0  0  0
 27 22  1  0  0  0  0
 27 28  1  0  0  0  0
 30 31  2  0  0  0  0
 30 29  1  0  0  0  0
M  END
>  <MODEL>
4

>  <REMARK>
 VINA RESULT:      -8.2      3.416      5.969
  Name = 
  9 active torsions:
  status: ('A' for Active; 'I' for Inactive)
    1  A    between atoms: C_4  and  N_10
    2  A    between atoms: C_4  and  C_29
    3  A    between atoms: O_8  and  C_12
    4  A    between atoms: O_8  and  C_28
    5  A    between atoms: N_10  and  C_18
    6  A    between atoms: C_11  and  C_29
    7  A    between atoms: C_12  and  N_27
    8  A    between atoms: C_15  and  C_20
    9  A    between atoms: N_23  and  N_27
                            x       y       z     vdW  Elec       q    Type
                         _______ _______ _______ _____ _____    ______ ____

>  <TORSDO>
F 9

$$$$
=
 OpenBabel11032419343D

 31 33  0  0  1  0  0  0  0  0999 V2000
  187.0190  178.2790  146.8390 C   0  0  0  0  0  0  0  0  0  0  0  0
  187.7740  177.6680  145.8090 C   0  0  0  0  0  0  0  0  0  0  0  0
  189.0480  177.1760  146.1320 C   0  0  0  0  0  3  0  0  0  0  0  0
  188.7790  177.8670  148.4020 N   0  0  0  0  0  0  0  0  0  0  0  0
  185.7530  178.7880  146.5750 C   0  0  0  0  0  3  0  0  0  0  0  0
  185.2270  178.7190  145.2880 C   0  0  0  0  0  3  0  0  0  0  0  0
  187.5440  178.3620  148.1290 C   0  0  0  0  0  3  0  0  0  0  0  0
  187.2280  177.5850  144.5000 C   0  0  0  0  0  0  0  0  0  0  0  0
  189.5350  177.2820  147.4380 C   0  0  0  0  0  3  0  0  0  0  0  0
  185.9520  178.1270  144.2500 C   0  0  0  0  0  0  0  0  0  0  0  0
  185.4200  178.0650  142.9580 O   0  0  0  0  0  0  0  0  0  0  0  0
  184.5430  179.0570  142.4360 C   0  0  0  0  0  2  0  0  0  0  0  0
  183.2820  178.4450  142.0470 N   0  0  0  0  0  2  0  0  0  0  0  0
  181.0560  179.2940  142.6390 C   0  0  0  0  0  0  0  0  0  0  0  0
  180.7820  179.4810  141.4270 O   0  0  0  0  0  0  0  0  0  0  0  0
  182.3340  178.7930  143.0200 N   0  0  0  0  0  2  0  0  0  0  0  0
  180.1130  179.5930  143.6120 O   0  0  0  0  0  1  0  0  0  0  0  0
  187.9030  176.9440  143.3980 N   0  0  0  0  0  2  0  0  0  0  0  0
  188.8600  177.5520  142.4860 C   0  0  0  0  0  2  0  0  0  0  0  0
  190.6580  175.9870  142.7420 O   0  0  0  0  0  1  0  0  0  0  0  0
  189.7100  176.4750  141.8280 C   0  0  2  0  0  3  0  0  0  0  0  0
  190.0320  175.2700  137.6900 F   0  0  0  0  0  0  0  0  0  0  0  0
  190.4030  177.0450  140.5910 C   0  0  2  0  0  3  0  0  0  0  0  0
  189.2470  177.3420  138.5490 C   0  0  2  0  0  3  0  0  0  0  0  0
  189.4900  178.0170  139.8670 C   0  0  0  0  0  2  0  0  0  0  0  0
  190.8010  176.0030  139.7150 O   0  0  0  0  0  0  0  0  0  0  0  0
  190.4230  176.3850  138.4140 C   0  0  0  0  0  0  0  0  0  0  0  0
  191.5160  176.9730  137.7930 F   0  0  0  0  0  0  0  0  0  0  0  0
  189.0540  177.9210  136.0990 O   0  0  0  0  0  0  0  0  0  0  0  0
  189.0590  178.3260  137.4310 C   0  0  0  0  0  0  0  0  0  0  0  0
  188.9820  179.5490  137.7000 O   0  0  0  0  0  1  0  0  0  0  0  0
  1  7  2  0  0  0  0
  2  3  2  0  0  0  0
  2  1  1  0  0  0  0
  3  9  1  0  0  0  0
  5  1  1  0  0  0  0
  6  5  2  0  0  0  0
  7  4  1  0  0  0  0
  8  2  1  0  0  0  0
  9  4  2  0  0  0  0
 10  8  2  0  0  0  0
 10  6  1  0  0  0  0
 11 10  1  0  0  0  0
 12 11  1  0  0  0  0
 13 12  1  0  0  0  0
 13 16  1  0  0  0  0
 14 16  1  0  0  0  0
 14 17  1  0  0  0  0
 15 14  2  0  0  0  0
 18  8  1  0  0  0  0
 19 18  1  0  0  0  0
 21 19  1  0  0  0  0
 21 20  1  1  0  0  0
 22 27  1  0  0  0  0
 23 21  1  1  0  0  0
 24 30  1  6  0  0  0
 24 25  1  0  0  0  0
 25 23  1  0  0  0  0
 26 23  1  0  0  0  0
 27 24  1  0  0  0  0
 27 26  1  0  0  0  0
 28 27  1  0  0  0  0
 29 30  2  0  0  0  0
 30 31  1  0  0  0  0
M  END
>  <MODEL>
5

>  <REMARK>
 VINA RESULT:      -8.0      1.651      2.085
  Name = 
  9 active torsions:
  status: ('A' for Active; 'I' for Inactive)
    1  A    between atoms: C_4  and  N_10
    2  A    between atoms: C_4  and  C_29
    3  A    between atoms: O_8  and  C_12
    4  A    between atoms: O_8  and  C_28
    5  A    between atoms: N_10  and  C_18
    6  A    between atoms: C_11  and  C_29
    7  A    between atoms: C_12  and  N_27
    8  A    between atoms: C_15  and  C_20
    9  A    between atoms: N_23  and  N_27
                            x       y       z     vdW  Elec       q    Type
                         _______ _______ _______ _____ _____    ______ ____

>  <TORSDO>
F 9

$$$$
=
 OpenBabel11032419343D

 31 33  0  0  1  0  0  0  0  0999 V2000
  189.7280  177.3890  146.3720 C   0  0  0  0  0  0  0  0  0  0  0  0
  188.4710  177.3300  145.7230 C   0  0  0  0  0  0  0  0  0  0  0  0
  187.3220  177.5560  146.4940 C   0  0  0  0  0  3  0  0  0  0  0  0
  188.6550  177.9000  148.4450 N   0  0  0  0  0  0  0  0  0  0  0  0
  190.9000  177.1680  145.6570 C   0  0  0  0  0  3  0  0  0  0  0  0
  190.8430  176.8660  144.3000 C   0  0  0  0  0  3  0  0  0  0  0  0
  189.7920  177.6810  147.7350 C   0  0  0  0  0  3  0  0  0  0  0  0
  188.4180  177.0360  144.3330 C   0  0  0  0  0  0  0  0  0  0  0  0
  187.4320  177.8430  147.8580 C   0  0  0  0  0  3  0  0  0  0  0  0
  189.6160  176.7950  143.6340 C   0  0  0  0  0  0  0  0  0  0  0  0
  189.5660  176.4870  142.2700 O   0  0  0  0  0  0  0  0  0  0  0  0
  190.5130  176.9850  141.3300 C   0  0  0  0  0  2  0  0  0  0  0  0
  190.1690  176.5250  139.9940 N   0  0  0  0  0  2  0  0  0  0  0  0
  189.0040  178.1160  138.5310 C   0  0  0  0  0  0  0  0  0  0  0  0
  187.9200  177.5030  138.6920 O   0  0  0  0  0  1  0  0  0  0  0  0
  190.1980  177.6440  139.1500 N   0  0  0  0  0  2  0  0  0  0  0  0
  189.0420  179.2510  137.7330 O   0  0  0  0  0  0  0  0  0  0  0  0
  187.1900  176.9970  143.5770 N   0  0  0  0  0  2  0  0  0  0  0  0
  186.3580  178.1310  143.2010 C   0  0  0  0  0  2  0  0  0  0  0  0
  187.7350  179.1850  141.5450 O   0  0  0  0  0  1  0  0  0  0  0  0
  186.5510  178.4510  141.7260 C   0  0  2  0  0  3  0  0  0  0  0  0
  184.0860  178.2580  138.1820 F   0  0  0  0  0  0  0  0  0  0  0  0
  185.3490  179.2390  141.2050 C   0  0  2  0  0  3  0  0  0  0  0  0
  183.3880  178.1520  140.4510 C   0  0  2  0  0  3  0  0  0  0  0  0
  184.0530  178.6310  141.7080 C   0  0  0  0  0  2  0  0  0  0  0  0
  185.3520  179.2790  139.7880 O   0  0  0  0  0  0  0  0  0  0  0  0
  184.0440  178.9870  139.3600 C   0  0  0  0  0  0  0  0  0  0  0  0
  183.3770  180.1830  139.1330 F   0  0  0  0  0  0  0  0  0  0  0  0
  181.0800  177.7260  139.5200 O   0  0  0  0  0  0  0  0  0  0  0  0
  181.8910  178.2270  140.5350 C   0  0  0  0  0  0  0  0  0  0  0  0
  181.3620  178.8210  141.5050 O   0  0  0  0  0  1  0  0  0  0  0  0
  1  7  2  0  0  0  0
  2  1  1  0  0  0  0
  2  3  2  0  0  0  0
  3  9  1  0  0  0  0
  5  1  1  0  0  0  0
  6  5  2  0  0  0  0
  7  4  1  0  0  0  0
  8  2  1  0  0  0  0
  9  4  2  0  0  0  0
 10  6  1  0  0  0  0
 10  8  2  0  0  0  0
 11 10  1  0  0  0  0
 12 11  1  0  0  0  0
 13 12  1  0  0  0  0
 14 15  1  0  0  0  0
 14 16  1  0  0  0  0
 16 13  1  0  0  0  0
 17 14  2  0  0  0  0
 18  8  1  0  0  0  0
 19 18  1  0  0  0  0
 21 20  1  1  0  0  0
 21 19  1  0  0  0  0
 22 27  1  0  0  0  0
 23 25  1  0  0  0  0
 23 21  1  6  0  0  0
 24 30  1  1  0  0  0
 24 25  1  0  0  0  0
 26 23  1  0  0  0  0
 27 26  1  0  0  0  0
 27 24  1  0  0  0  0
 28 27  1  0  0  0  0
 29 30  2  0  0  0  0
 30 31  1  0  0  0  0
M  END
>  <MODEL>
6

>  <REMARK>
 VINA RESULT:      -7.9      2.832      5.048
  Name = 
  9 active torsions:
  status: ('A' for Active; 'I' for Inactive)
    1  A    between atoms: C_4  and  N_10
    2  A    between atoms: C_4  and  C_29
    3  A    between atoms: O_8  and  C_12
    4  A    between atoms: O_8  and  C_28
    5  A    between atoms: N_10  and  C_18
    6  A    between atoms: C_11  and  C_29
    7  A    between atoms: C_12  and  N_27
    8  A    between atoms: C_15  and  C_20
    9  A    between atoms: N_23  and  N_27
                            x       y       z     vdW  Elec       q    Type
                         _______ _______ _______ _____ _____    ______ ____

>  <TORSDO>
F 9

$$$$
=
 OpenBabel11032419343D

 31 33  0  0  1  0  0  0  0  0999 V2000
  188.5000  177.4750  146.3380 C   0  0  0  0  0  0  0  0  0  0  0  0
  188.8680  177.3020  144.9820 C   0  0  0  0  0  0  0  0  0  0  0  0
  190.2040  176.9830  144.6990 C   0  0  0  0  0  3  0  0  0  0  0  0
  190.7370  176.9970  147.0270 N   0  0  0  0  0  0  0  0  0  0  0  0
  187.1900  177.7970  146.6760 C   0  0  0  0  0  3  0  0  0  0  0  0
  186.2350  177.9710  145.6790 C   0  0  0  0  0  3  0  0  0  0  0  0
  189.4550  177.3130  147.3420 C   0  0  0  0  0  3  0  0  0  0  0  0
  187.8860  177.4650  143.9670 C   0  0  0  0  0  0  0  0  0  0  0  0
  191.1290  176.8320  145.7370 C   0  0  0  0  0  3  0  0  0  0  0  0
  186.5710  177.8120  144.3310 C   0  0  0  0  0  0  0  0  0  0  0  0
  185.6060  177.9930  143.3340 O   0  0  0  0  0  0  0  0  0  0  0  0
  185.0120  179.2570  143.0550 C   0  0  0  0  0  2  0  0  0  0  0  0
  185.3910  179.6940  141.7210 N   0  0  0  0  0  2  0  0  0  0  0  0
  184.5980  178.9470  139.5200 C   0  0  0  0  0  0  0  0  0  0  0  0
  184.4230  180.1370  139.1560 O   0  0  0  0  0  1  0  0  0  0  0  0
  185.0630  178.6570  140.8350 N   0  0  0  0  0  2  0  0  0  0  0  0
  184.3200  177.9100  138.6410 O   0  0  0  0  0  0  0  0  0  0  0  0
  188.1550  177.2670  142.5640 N   0  0  0  0  0  2  0  0  0  0  0  0
  188.6800  178.2500  141.6270 C   0  0  0  0  0  2  0  0  0  0  0  0
  190.3970  177.8670  139.9980 O   0  0  0  0  0  1  0  0  0  0  0  0
  189.0620  177.5710  140.3200 C   0  0  2  0  0  3  0  0  0  0  0  0
  189.6180  178.9690  136.2690 F   0  0  0  0  0  0  0  0  0  0  0  0
  188.1280  178.0340  139.2030 C   0  0  2  0  0  3  0  0  0  0  0  0
  188.2820  177.1500  137.0140 C   0  0  2  0  0  3  0  0  0  0  0  0
  187.6820  176.8550  138.3570 C   0  0  0  0  0  2  0  0  0  0  0  0
  188.7630  179.0060  138.3890 O   0  0  0  0  0  0  0  0  0  0  0  0
  188.5160  178.6540  137.0490 C   0  0  0  0  0  0  0  0  0  0  0  0
  187.4170  179.3730  136.6000 F   0  0  0  0  0  0  0  0  0  0  0  0
  186.2060  177.2130  135.5790 O   0  0  0  0  0  1  0  0  0  0  0  0
  187.4350  176.6360  135.8870 C   0  0  0  0  0  0  0  0  0  0  0  0
  187.8080  175.6160  135.2580 O   0  0  0  0  0  0  0  0  0  0  0  0
  1  5  1  0  0  0  0
  1  7  2  0  0  0  0
  2  1  1  0  0  0  0
  3  2  2  0  0  0  0
  3  9  1  0  0  0  0
  4  7  1  0  0  0  0
  6  5  2  0  0  0  0
  8 10  2  0  0  0  0
  8  2  1  0  0  0  0
  9  4  2  0  0  0  0
 10  6  1  0  0  0  0
 11 10  1  0  0  0  0
 12 11  1  0  0  0  0
 13 12  1  0  0  0  0
 14 16  1  0  0  0  0
 15 14  1  0  0  0  0
 16 13  1  0  0  0  0
 17 14  2  0  0  0  0
 18  8  1  0  0  0  0
 19 18  1  0  0  0  0
 21 20  1  6  0  0  0
 21 19  1  0  0  0  0
 22 27  1  0  0  0  0
 23 21  1  1  0  0  0
 24 30  1  6  0  0  0
 24 27  1  0  0  0  0
 24 25  1  0  0  0  0
 25 23  1  0  0  0  0
 26 23  1  0  0  0  0
 27 26  1  0  0  0  0
 28 27  1  0  0  0  0
 29 30  1  0  0  0  0
 31 30  2  0  0  0  0
M  END
>  <MODEL>
7

>  <REMARK>
 VINA RESULT:      -7.9      1.562      2.192
  Name = 
  9 active torsions:
  status: ('A' for Active; 'I' for Inactive)
    1  A    between atoms: C_4  and  N_10
    2  A    between atoms: C_4  and  C_29
    3  A    between atoms: O_8  and  C_12
    4  A    between atoms: O_8  and  C_28
    5  A    between atoms: N_10  and  C_18
    6  A    between atoms: C_11  and  C_29
    7  A    between atoms: C_12  and  N_27
    8  A    between atoms: C_15  and  C_20
    9  A    between atoms: N_23  and  N_27
                            x       y       z     vdW  Elec       q    Type
                         _______ _______ _______ _____ _____    ______ ____

>  <TORSDO>
F 9

$$$$
=
 OpenBabel11032419343D

 31 33  0  0  1  0  0  0  0  0999 V2000
  183.6490  178.8550  143.4510 C   0  0  0  0  0  0  0  0  0  0  0  0
  185.0560  178.7850  143.3130 C   0  0  0  0  0  0  0  0  0  0  0  0
  185.8260  178.6800  144.4800 C   0  0  0  0  0  3  0  0  0  0  0  0
  183.8540  178.6940  145.8260 N   0  0  0  0  0  0  0  0  0  0  0  0
  182.8360  178.9640  142.3280 C   0  0  0  0  0  3  0  0  0  0  0  0
  183.4050  179.0280  141.0590 C   0  0  0  0  0  3  0  0  0  0  0  0
  183.0730  178.8030  144.7210 C   0  0  0  0  0  3  0  0  0  0  0  0
  185.6320  178.8350  142.0140 C   0  0  0  0  0  0  0  0  0  0  0  0
  185.2070  178.6340  145.7330 C   0  0  0  0  0  3  0  0  0  0  0  0
  184.7910  178.9670  140.8930 C   0  0  0  0  0  0  0  0  0  0  0  0
  185.3560  179.0360  139.6140 O   0  0  0  0  0  0  0  0  0  0  0  0
  184.8850  178.2580  138.5190 C   0  0  0  0  0  2  0  0  0  0  0  0
  185.9780  177.4740  137.9660 N   0  0  0  0  0  2  0  0  0  0  0  0
  187.9150  178.6670  137.0410 C   0  0  0  0  0  0  0  0  0  0  0  0
  187.5680  178.3660  135.8720 O   0  0  0  0  0  0  0  0  0  0  0  0
  187.1560  178.2120  138.1580 N   0  0  0  0  0  2  0  0  0  0  0  0
  189.0540  179.4330  137.2460 O   0  0  0  0  0  1  0  0  0  0  0  0
  187.0500  178.7280  141.7710 N   0  0  0  0  0  2  0  0  0  0  0  0
  187.8230  177.5020  141.6360 C   0  0  0  0  0  2  0  0  0  0  0  0
  190.0110  177.5280  140.6550 O   0  0  0  0  0  1  0  0  0  0  0  0
  189.3030  177.7950  141.8380 C   0  0  2  0  0  3  0  0  0  0  0  0
  192.0510  178.4920  145.0990 F   0  0  0  0  0  0  0  0  0  0  0  0
  189.8470  176.9480  142.9890 C   0  0  2  0  0  3  0  0  0  0  0  0
  189.8070  177.7230  145.2240 C   0  0  2  0  0  3  0  0  0  0  0  0
  188.9390  177.0480  144.2010 C   0  0  0  0  0  2  0  0  0  0  0  0
  191.1630  177.3510  143.3290 O   0  0  0  0  0  0  0  0  0  0  0  0
  191.2200  177.4460  144.7320 C   0  0  0  0  0  0  0  0  0  0  0  0
  191.7330  176.2570  145.2330 F   0  0  0  0  0  0  0  0  0  0  0  0
  188.1770  177.1200  147.0550 O   0  0  0  0  0  0  0  0  0  0  0  0
  189.4900  177.2770  146.6220 C   0  0  0  0  0  0  0  0  0  0  0  0
  190.4290  177.1150  147.4390 O   0  0  0  0  0  1  0  0  0  0  0  0
  1  7  2  0  0  0  0
  2  1  1  0  0  0  0
  2  3  2  0  0  0  0
  3  9  1  0  0  0  0
  5  1  1  0  0  0  0
  6  5  2  0  0  0  0
  7  4  1  0  0  0  0
  8  2  1  0  0  0  0
  9  4  2  0  0  0  0
 10  6  1  0  0  0  0
 10  8  2  0  0  0  0
 11 10  1  0  0  0  0
 12 11  1  0  0  0  0
 13 16  1  0  0  0  0
 13 12  1  0  0  0  0
 14 17  1  0  0  0  0
 14 16  1  0  0  0  0
 15 14  2  0  0  0  0
 18  8  1  0  0  0  0
 19 18  1  0  0  0  0
 19 21  1  0  0  0  0
 21 20  1  6  0  0  0
 23 21  1  6  0  0  0
 23 26  1  0  0  0  0
 23 25  1  0  0  0  0
 24 30  1  1  0  0  0
 25 24  1  0  0  0  0
 26 27  1  0  0  0  0
 27 22  1  0  0  0  0
 27 24  1  0  0  0  0
 27 28  1  0  0  0  0
 30 29  2  0  0  0  0
 30 31  1  0  0  0  0
M  END
>  <MODEL>
8

>  <REMARK>
 VINA RESULT:      -7.9      2.809      5.484
  Name = 
  9 active torsions:
  status: ('A' for Active; 'I' for Inactive)
    1  A    between atoms: C_4  and  N_10
    2  A    between atoms: C_4  and  C_29
    3  A    between atoms: O_8  and  C_12
    4  A    between atoms: O_8  and  C_28
    5  A    between atoms: N_10  and  C_18
    6  A    between atoms: C_11  and  C_29
    7  A    between atoms: C_12  and  N_27
    8  A    between atoms: C_15  and  C_20
    9  A    between atoms: N_23  and  N_27
                            x       y       z     vdW  Elec       q    Type
                         _______ _______ _______ _____ _____    ______ ____

>  <TORSDO>
F 9

$$$$
=
 OpenBabel11032419343D

 31 33  0  0  1  0  0  0  0  0999 V2000
  188.9760  177.2510  146.5020 C   0  0  0  0  0  0  0  0  0  0  0  0
  189.4340  177.0660  145.1760 C   0  0  0  0  0  0  0  0  0  0  0  0
  190.8000  176.8120  144.9830 C   0  0  0  0  0  3  0  0  0  0  0  0
  191.1880  176.9090  147.3370 N   0  0  0  0  0  0  0  0  0  0  0  0
  187.6330  177.5100  146.7520 C   0  0  0  0  0  3  0  0  0  0  0  0
  186.7330  177.6100  145.6950 C   0  0  0  0  0  3  0  0  0  0  0  0
  189.8740  177.1630  147.5660 C   0  0  0  0  0  3  0  0  0  0  0  0
  188.5100  177.1530  144.1000 C   0  0  0  0  0  0  0  0  0  0  0  0
  191.6660  176.7350  146.0780 C   0  0  0  0  0  3  0  0  0  0  0  0
  187.1580  177.4380  144.3750 C   0  0  0  0  0  0  0  0  0  0  0  0
  186.2490  177.5440  143.3160 O   0  0  0  0  0  0  0  0  0  0  0  0
  186.0290  178.7590  142.6070 C   0  0  0  0  0  2  0  0  0  0  0  0
  185.1940  179.6470  143.4000 N   0  0  0  0  0  2  0  0  0  0  0  0
  183.0160  178.9720  144.3120 C   0  0  0  0  0  0  0  0  0  0  0  0
  183.4670  179.0230  145.4830 O   0  0  0  0  0  1  0  0  0  0  0  0
  183.8630  179.2520  143.2010 N   0  0  0  0  0  2  0  0  0  0  0  0
  181.6890  178.6260  144.0990 O   0  0  0  0  0  0  0  0  0  0  0  0
  188.8740  176.9370  142.7210 N   0  0  0  0  0  2  0  0  0  0  0  0
  189.6220  177.8440  141.8620 C   0  0  0  0  0  2  0  0  0  0  0  0
  191.3270  176.9370  140.4420 O   0  0  0  0  0  1  0  0  0  0  0  0
  189.9440  177.1620  140.5410 C   0  0  2  0  0  3  0  0  0  0  0  0
  189.1160  176.4600  136.3580 F   0  0  0  0  0  0  0  0  0  0  0  0
  189.4600  178.0280  139.3780 C   0  0  2  0  0  3  0  0  0  0  0  0
  187.6550  177.3590  138.0030 C   0  0  2  0  0  3  0  0  0  0  0  0
  187.9440  178.0330  139.3120 C   0  0  0  0  0  2  0  0  0  0  0  0
  190.0010  177.5690  138.1510 O   0  0  0  0  0  0  0  0  0  0  0  0
  188.9470  177.5340  137.2180 C   0  0  0  0  0  0  0  0  0  0  0  0
  188.9680  178.7130  136.4870 F   0  0  0  0  0  0  0  0  0  0  0  0
  186.0980  177.5910  136.0290 O   0  0  0  0  0  0  0  0  0  0  0  0
  186.4080  177.8840  137.3550 C   0  0  0  0  0  0  0  0  0  0  0  0
  185.6670  178.6660  137.9990 O   0  0  0  0  0  1  0  0  0  0  0  0
  1  5  1  0  0  0  0
  1  7  2  0  0  0  0
  2  1  1  0  0  0  0
  3  2  2  0  0  0  0
  3  9  1  0  0  0  0
  4  7  1  0  0  0  0
  6  5  2  0  0  0  0
  8 10  2  0  0  0  0
  8  2  1  0  0  0  0
  9  4  2  0  0  0  0
 10  6  1  0  0  0  0
 11 10  1  0  0  0  0
 12 11  1  0  0  0  0
 12 13  1  0  0  0  0
 14 15  1  0  0  0  0
 16 13  1  0  0  0  0
 16 14  1  0  0  0  0
 17 14  2  0  0  0  0
 18  8  1  0  0  0  0
 19 18  1  0  0  0  0
 21 20  1  6  0  0  0
 21 19  1  0  0  0  0
 22 27  1  0  0  0  0
 23 21  1  1  0  0  0
 24 30  1  6  0  0  0
 24 25  1  0  0  0  0
 25 23  1  0  0  0  0
 26 23  1  0  0  0  0
 27 24  1  0  0  0  0
 27 26  1  0  0  0  0
 28 27  1  0  0  0  0
 29 30  2  0  0  0  0
 30 31  1  0  0  0  0
M  END
>  <MODEL>
9

>  <REMARK>
 VINA RESULT:      -7.8      1.756      2.761
  Name = 
  9 active torsions:
  status: ('A' for Active; 'I' for Inactive)
    1  A    between atoms: C_4  and  N_10
    2  A    between atoms: C_4  and  C_29
    3  A    between atoms: O_8  and  C_12
    4  A    between atoms: O_8  and  C_28
    5  A    between atoms: N_10  and  C_18
    6  A    between atoms: C_11  and  C_29
    7  A    between atoms: C_12  and  N_27
    8  A    between atoms: C_15  and  C_20
    9  A    between atoms: N_23  and  N_27
                            x       y       z     vdW  Elec       q    Type
                         _______ _______ _______ _____ _____    ______ ____

>  <TORSDO>
F 9

$$$$
