=
 OpenBabel11042411473D

 47 52  0  0  1  0  0  0  0  0999 V2000
  183.1530  176.1690  135.0400 C   0  0  0  0  0  1  0  0  0  0  0  0
  183.1450  178.6360  137.6710 C   0  0  0  0  0  0  0  0  0  0  0  0
  182.8150  180.4410  139.1600 N   0  0  0  0  0  0  0  0  0  0  0  0
  180.5720  177.9900  135.1420 C   0  0  0  0  0  1  0  0  0  0  0  0
  181.7360  178.0360  136.0710 C   0  0  0  0  0  0  0  0  0  0  0  0
  182.8780  177.2380  136.0450 C   0  0  0  0  0  0  0  0  0  0  0  0
  181.5990  180.6960  138.5820 C   0  0  0  0  0  3  0  0  0  0  0  0
  181.1500  179.9310  137.5430 N   0  0  0  0  0  0  0  0  0  0  0  0
  181.9340  178.9130  137.1110 C   0  0  0  0  0  0  0  0  0  0  0  0
  183.6160  179.4240  138.7190 C   0  0  0  0  0  0  0  0  0  0  0  0
  183.7370  177.6050  137.0350 N   0  0  0  0  0  0  0  0  0  0  0  0
  186.4970  175.0570  136.7970 C   0  0  0  0  0  2  0  0  0  0  0  0
  189.5260  177.0070  136.2360 C   0  0  2  0  0  3  0  0  0  0  0  0
  187.5980  175.9860  137.3170 C   0  0  2  0  0  3  0  0  0  0  0  0
  185.0750  177.0830  137.3050 C   0  0  2  0  0  3  0  0  0  0  0  0
  188.3600  177.9570  136.0710 C   0  0  0  0  0  2  0  0  0  0  0  0
  190.2050  176.8770  135.0370 F   0  0  0  0  0  0  0  0  0  0  0  0
  187.2840  177.4680  137.0200 C   0  0  1  0  0  3  0  0  0  0  0  0
  186.0160  177.6540  136.4280 O   0  0  0  0  0  0  0  0  0  0  0  0
  185.1130  175.5480  137.2360 C   0  0  0  0  0  2  0  0  0  0  0  0
  188.9250  175.6760  136.6430 C   0  0  2  0  0  3  0  0  0  0  0  0
  189.8670  174.8670  137.5430 C   0  0  0  0  0  2  0  0  0  0  0  0
  192.2850  175.7440  137.7140 C   0  0  0  0  0  1  0  0  0  0  0  0
  190.8880  175.7060  138.2610 C   0  0  0  0  0  0  0  0  0  0  0  0
  190.5450  176.3730  139.3130 N   0  0  0  0  0  0  0  0  0  0  0  0
  191.4590  177.1980  140.0700 C   0  0  0  0  0  2  0  0  0  0  0  0
  191.1540  177.1060  141.5240 C   0  0  0  0  0  0  0  0  0  0  0  0
  190.2650  176.1040  142.0040 N   0  0  0  0  0  1  0  0  0  0  0  0
  191.6650  177.9290  142.3280 O   0  0  0  0  0  0  0  0  0  0  0  0
  184.8530  179.1610  139.3160 O   0  0  0  0  0  0  0  0  0  0  0  0
  185.0750  179.2480  140.6770 N   0  0  0  0  0  2  0  0  0  0  0  0
  184.5610  178.3210  141.6420 C   0  0  0  0  0  0  0  0  0  0  0  0
  183.7110  177.4560  141.2960 O   0  0  0  0  0  0  0  0  0  0  0  0
  182.7770  179.2420  144.0690 C   0  0  0  0  0  1  0  0  0  0  0  0
  184.8690  178.7400  145.3800 C   0  0  0  0  0  3  0  0  0  0  0  0
  186.5090  177.9950  143.6180 S   0  0  0  0  0  0  0  0  0  0  0  0
  186.1800  178.3070  145.2350 C   0  0  0  0  0  0  0  0  0  0  0  0
  184.1950  178.7940  144.1530 C   0  0  0  0  0  0  0  0  0  0  0  0
  184.9740  178.4050  143.0550 C   0  0  0  0  0  0  0  0  0  0  0  0
  187.1220  178.1340  146.2970 N   0  0  0  0  0  2  0  0  0  0  0  0
  190.1280  176.2590  147.3510 O   0  0  0  0  0  0  0  0  0  0  0  0
  188.3640  177.3960  146.1250 C   0  0  1  0  0  3  0  0  0  0  0  0
  189.4280  178.3010  145.5150 C   0  0  0  0  0  2  0  0  0  0  0  0
  192.2660  176.2340  146.5140 O   0  0  0  0  0  0  0  0  0  0  0  0
  191.0900  176.6660  146.4180 C   0  0  0  0  0  0  0  0  0  0  0  0
  190.7030  177.5070  145.2390 C   0  0  0  0  0  2  0  0  0  0  0  0
  188.8650  176.9180  147.4810 C   0  0  0  0  0  2  0  0  0  0  0  0
  1  6  1  0  0  0  0
  2 10  1  0  0  0  0
  4  5  1  0  0  0  0
  5  9  1  0  0  0  0
  6  5  2  0  0  0  0
  6 11  1  0  0  0  0
  7  3  1  0  0  0  0
  8  7  2  0  0  0  0
  9  8  1  0  0  0  0
  9  2  2  0  0  0  0
 10  3  2  0  0  0  0
 10 30  1  0  0  0  0
 11  2  1  0  0  0  0
 12 20  1  0  0  0  0
 13 17  1  6  0  0  0
 13 21  1  0  0  0  0
 14 12  1  6  0  0  0
 15 11  1  6  0  0  0
 16 13  1  0  0  0  0
 18 16  1  6  0  0  0
 18 14  1  0  0  0  0
 19 18  1  0  0  0  0
 19 15  1  0  0  0  0
 20 15  1  0  0  0  0
 21 14  1  0  0  0  0
 21 22  1  1  0  0  0
 22 24  1  0  0  0  0
 23 24  1  0  0  0  0
 24 25  2  0  0  0  0
 25 26  1  0  0  0  0
 26 27  1  0  0  0  0
 27 28  1  0  0  0  0
 27 29  2  0  0  0  0
 30 31  1  0  0  0  0
 31 32  1  0  0  0  0
 32 39  1  0  0  0  0
 33 32  2  0  0  0  0
 34 38  1  0  0  0  0
 36 37  1  0  0  0  0
 37 35  2  0  0  0  0
 37 40  1  0  0  0  0
 38 35  1  0  0  0  0
 39 36  1  0  0  0  0
 39 38  2  0  0  0  0
 41 47  1  0  0  0  0
 42 40  1  1  0  0  0
 42 47  1  0  0  0  0
 43 42  1  0  0  0  0
 45 44  2  0  0  0  0
 45 41  1  0  0  0  0
 46 43  1  0  0  0  0
 46 45  1  0  0  0  0
M  END
>  <MODEL>
1

>  <REMARK>
 VINA RESULT:      -9.2      0.000      0.000
  Name = 
  10 active torsions:
  status: ('A' for Active; 'I' for Inactive)
    1  A    between atoms: C_2  and  C_34
    2  A    between atoms: C_2  and  C_46
    3  A    between atoms: N_6  and  O_10
    4  A    between atoms: C_7  and  N_29
    5  A    between atoms: C_8  and  C_31
    6  A    between atoms: O_10  and  C_42
    7  A    between atoms: C_18  and  N_47
    8  A    between atoms: C_19  and  C_45
    9  A    between atoms: N_29  and  C_37
   10  A    between atoms: C_31  and  N_38
                            x       y       z     vdW  Elec       q    Type
                         _______ _______ _______ _____ _____    ______ ____

>  <TORSDO>
F 10

$$$$
=
 OpenBabel11042411473D

 47 52  0  0  1  0  0  0  0  0999 V2000
  183.7100  178.5590  144.4820 C   0  0  0  0  0  1  0  0  0  0  0  0
  184.6950  178.7880  141.0200 C   0  0  0  0  0  0  0  0  0  0  0  0
  184.9210  178.8260  138.6680 N   0  0  0  0  0  0  0  0  0  0  0  0
  181.3140  178.7530  142.4320 C   0  0  0  0  0  1  0  0  0  0  0  0
  182.7680  178.7770  142.1110 C   0  0  0  0  0  0  0  0  0  0  0  0
  183.8380  178.6990  143.0010 C   0  0  0  0  0  0  0  0  0  0  0  0
  183.5570  178.8740  138.5370 C   0  0  0  0  0  3  0  0  0  0  0  0
  182.7540  178.8710  139.6430 N   0  0  0  0  0  0  0  0  0  0  0  0
  183.3430  178.8310  140.8630 C   0  0  0  0  0  0  0  0  0  0  0  0
  185.5190  178.7720  139.8970 C   0  0  0  0  0  0  0  0  0  0  0  0
  185.0200  178.7140  142.3270 N   0  0  0  0  0  0  0  0  0  0  0  0
  187.5300  177.7700  144.9680 C   0  0  0  0  0  2  0  0  0  0  0  0
  190.2260  176.1200  143.1500 C   0  0  2  0  0  3  0  0  0  0  0  0
  188.7480  177.8370  144.0420 C   0  0  2  0  0  3  0  0  0  0  0  0
  186.3680  178.5700  142.8710 C   0  0  2  0  0  3  0  0  0  0  0  0
  189.0780  176.2780  142.1780 C   0  0  0  0  0  2  0  0  0  0  0  0
  190.4750  174.7780  143.3760 F   0  0  0  0  0  0  0  0  0  0  0  0
  188.3660  177.5570  142.5730 C   0  0  1  0  0  3  0  0  0  0  0  0
  186.9760  177.3980  142.3850 O   0  0  0  0  0  0  0  0  0  0  0  0
  186.3690  178.6000  144.4080 C   0  0  0  0  0  2  0  0  0  0  0  0
  189.7790  176.7920  144.4340 C   0  0  2  0  0  3  0  0  0  0  0  0
  190.9570  177.3910  145.2130 C   0  0  0  0  0  2  0  0  0  0  0  0
  189.8950  176.7450  147.4700 C   0  0  0  0  0  1  0  0  0  0  0  0
  191.1140  176.8320  146.6000 C   0  0  0  0  0  0  0  0  0  0  0  0
  192.2760  176.4350  147.0040 N   0  0  0  0  0  0  0  0  0  0  0  0
  192.5220  175.8920  148.3200 C   0  0  0  0  0  2  0  0  0  0  0  0
  193.1040  176.9350  149.2090 C   0  0  0  0  0  0  0  0  0  0  0  0
  194.3690  176.7230  149.8230 N   0  0  0  0  0  1  0  0  0  0  0  0
  192.4670  177.9970  149.4360 O   0  0  0  0  0  0  0  0  0  0  0  0
  186.9120  178.7320  140.0270 O   0  0  0  0  0  0  0  0  0  0  0  0
  187.7190  177.8680  139.3110 N   0  0  0  0  0  2  0  0  0  0  0  0
  188.8460  178.2780  138.5270 C   0  0  0  0  0  0  0  0  0  0  0  0
  189.0530  179.5030  138.3090 O   0  0  0  0  0  0  0  0  0  0  0  0
  188.9810  177.4770  135.4840 C   0  0  0  0  0  1  0  0  0  0  0  0
  190.8070  175.9450  136.3010 C   0  0  0  0  0  3  0  0  0  0  0  0
  190.8790  176.3780  138.7820 S   0  0  0  0  0  0  0  0  0  0  0  0
  191.4780  175.5490  137.4500 C   0  0  0  0  0  0  0  0  0  0  0  0
  189.8320  176.9140  136.5700 C   0  0  0  0  0  0  0  0  0  0  0  0
  189.7410  177.2740  137.9200 C   0  0  0  0  0  0  0  0  0  0  0  0
  192.5340  174.5870  137.5080 N   0  0  0  0  0  2  0  0  0  0  0  0
  195.8950  175.7720  136.5280 O   0  0  0  0  0  0  0  0  0  0  0  0
  193.9250  174.9660  137.7020 C   0  0  1  0  0  3  0  0  0  0  0  0
  194.7370  173.7560  138.1480 C   0  0  0  0  0  2  0  0  0  0  0  0
  197.9860  175.1610  137.2550 O   0  0  0  0  0  0  0  0  0  0  0  0
  196.7410  175.0260  137.3590 C   0  0  0  0  0  0  0  0  0  0  0  0
  196.1760  174.1670  138.4500 C   0  0  0  0  0  2  0  0  0  0  0  0
  194.5040  175.4690  136.3860 C   0  0  0  0  0  2  0  0  0  0  0  0
  2 11  1  0  0  0  0
  3 10  2  0  0  0  0
  5  4  1  0  0  0  0
  5  6  2  0  0  0  0
  6  1  1  0  0  0  0
  7  3  1  0  0  0  0
  7  8  2  0  0  0  0
  8  9  1  0  0  0  0
  9  2  2  0  0  0  0
  9  5  1  0  0  0  0
 10 30  1  0  0  0  0
 10  2  1  0  0  0  0
 11  6  1  0  0  0  0
 13 17  1  1  0  0  0
 13 21  1  0  0  0  0
 14 21  1  0  0  0  0
 14 12  1  1  0  0  0
 15 11  1  1  0  0  0
 15 20  1  0  0  0  0
 16 13  1  0  0  0  0
 18 16  1  1  0  0  0
 18 14  1  0  0  0  0
 19 18  1  0  0  0  0
 19 15  1  0  0  0  0
 20 12  1  0  0  0  0
 21 22  1  6  0  0  0
 22 24  1  0  0  0  0
 24 25  2  0  0  0  0
 24 23  1  0  0  0  0
 25 26  1  0  0  0  0
 26 27  1  0  0  0  0
 27 29  2  0  0  0  0
 27 28  1  0  0  0  0
 31 30  1  0  0  0  0
 32 31  1  0  0  0  0
 33 32  2  0  0  0  0
 34 38  1  0  0  0  0
 35 38  1  0  0  0  0
 35 37  2  0  0  0  0
 37 40  1  0  0  0  0
 37 36  1  0  0  0  0
 38 39  2  0  0  0  0
 39 32  1  0  0  0  0
 39 36  1  0  0  0  0
 41 45  1  0  0  0  0
 42 40  1  6  0  0  0
 42 43  1  0  0  0  0
 43 46  1  0  0  0  0
 44 45  2  0  0  0  0
 45 46  1  0  0  0  0
 47 41  1  0  0  0  0
 47 42  1  0  0  0  0
M  END
>  <MODEL>
2

>  <REMARK>
 VINA RESULT:      -8.9      3.446      7.964
  Name = 
  10 active torsions:
  status: ('A' for Active; 'I' for Inactive)
    1  A    between atoms: C_2  and  C_34
    2  A    between atoms: C_2  and  C_46
    3  A    between atoms: N_6  and  O_10
    4  A    between atoms: C_7  and  N_29
    5  A    between atoms: C_8  and  C_31
    6  A    between atoms: O_10  and  C_42
    7  A    between atoms: C_18  and  N_47
    8  A    between atoms: C_19  and  C_45
    9  A    between atoms: N_29  and  C_37
   10  A    between atoms: C_31  and  N_38
                            x       y       z     vdW  Elec       q    Type
                         _______ _______ _______ _____ _____    ______ ____

>  <TORSDO>
F 10

$$$$
=
 OpenBabel11042411473D

 47 52  0  0  1  0  0  0  0  0999 V2000
  184.2770  175.0990  135.4700 C   0  0  0  0  0  1  0  0  0  0  0  0
  186.2750  177.3920  137.4090 C   0  0  0  0  0  0  0  0  0  0  0  0
  187.9260  178.6630  138.5230 N   0  0  0  0  0  0  0  0  0  0  0  0
  187.3410  175.1680  134.6990 C   0  0  0  0  0  1  0  0  0  0  0  0
  186.6620  175.9920  135.7370 C   0  0  0  0  0  0  0  0  0  0  0  0
  185.3130  175.9800  136.0870 C   0  0  0  0  0  0  0  0  0  0  0  0
  188.8840  178.1530  137.6860 C   0  0  0  0  0  3  0  0  0  0  0  0
  188.5480  177.2550  136.7120 N   0  0  0  0  0  0  0  0  0  0  0  0
  187.2460  176.8960  136.5940 C   0  0  0  0  0  0  0  0  0  0  0  0
  186.6140  178.2940  138.4160 C   0  0  0  0  0  0  0  0  0  0  0  0
  185.0780  176.8480  137.1090 N   0  0  0  0  0  0  0  0  0  0  0  0
  181.4510  177.8190  137.3740 C   0  0  0  0  0  2  0  0  0  0  0  0
  179.9850  175.3550  139.6280 C   0  0  2  0  0  3  0  0  0  0  0  0
  181.2530  177.2560  138.7840 C   0  0  2  0  0  3  0  0  0  0  0  0
  183.8250  177.0770  137.8240 C   0  0  2  0  0  3  0  0  0  0  0  0
  181.3690  174.8560  139.2780 C   0  0  0  0  0  2  0  0  0  0  0  0
  179.0290  174.4790  139.1470 F   0  0  0  0  0  0  0  0  0  0  0  0
  182.2240  176.0930  139.0780 C   0  0  1  0  0  3  0  0  0  0  0  0
  183.1430  175.8640  138.0320 O   0  0  0  0  0  0  0  0  0  0  0  0
  182.9330  178.0980  137.0990 C   0  0  0  0  0  2  0  0  0  0  0  0
  179.8460  176.7050  138.9500 C   0  0  2  0  0  3  0  0  0  0  0  0
  178.9310  177.6540  139.7340 C   0  0  0  0  0  2  0  0  0  0  0  0
  180.3360  179.3280  141.0980 C   0  0  0  0  0  1  0  0  0  0  0  0
  179.4890  179.0410  139.8940 C   0  0  0  0  0  0  0  0  0  0  0  0
  179.2400  179.9400  139.0010 N   0  0  0  0  0  0  0  0  0  0  0  0
  179.7270  181.2980  139.0750 C   0  0  0  0  0  2  0  0  0  0  0  0
  180.8330  181.5040  138.1000 C   0  0  0  0  0  0  0  0  0  0  0  0
  180.5760  181.4150  136.7030 N   0  0  0  0  0  1  0  0  0  0  0  0
  182.0000  181.7360  138.5100 O   0  0  0  0  0  0  0  0  0  0  0  0
  185.6370  178.8230  139.2660 O   0  0  0  0  0  0  0  0  0  0  0  0
  185.7880  178.9090  140.6380 N   0  0  0  0  0  2  0  0  0  0  0  0
  184.8260  178.4330  141.5880 C   0  0  0  0  0  0  0  0  0  0  0  0
  183.6850  178.0610  141.2000 O   0  0  0  0  0  0  0  0  0  0  0  0
  182.9310  179.3710  143.9220 C   0  0  0  0  0  1  0  0  0  0  0  0
  184.8820  178.6710  145.3540 C   0  0  0  0  0  3  0  0  0  0  0  0
  186.5970  177.8910  143.6800 S   0  0  0  0  0  0  0  0  0  0  0  0
  186.1690  178.1550  145.2830 C   0  0  0  0  0  0  0  0  0  0  0  0
  184.3060  178.8230  144.0860 C   0  0  0  0  0  0  0  0  0  0  0  0
  185.1370  178.4290  143.0290 C   0  0  0  0  0  0  0  0  0  0  0  0
  187.0170  177.8730  146.3990 N   0  0  0  0  0  2  0  0  0  0  0  0
  190.2160  176.3940  147.5130 O   0  0  0  0  0  0  0  0  0  0  0  0
  188.2940  177.1920  146.2560 C   0  0  1  0  0  3  0  0  0  0  0  0
  189.2450  178.0390  145.4190 C   0  0  0  0  0  2  0  0  0  0  0  0
  192.2880  176.3510  146.5230 O   0  0  0  0  0  0  0  0  0  0  0  0
  191.0800  176.6890  146.4500 C   0  0  0  0  0  0  0  0  0  0  0  0
  190.5520  177.2870  145.1800 C   0  0  0  0  0  2  0  0  0  0  0  0
  188.9200  176.9900  147.6290 C   0  0  0  0  0  2  0  0  0  0  0  0
  1  6  1  0  0  0  0
  2 10  1  0  0  0  0
  4  5  1  0  0  0  0
  5  6  2  0  0  0  0
  5  9  1  0  0  0  0
  6 11  1  0  0  0  0
  7  3  1  0  0  0  0
  8  7  2  0  0  0  0
  9  8  1  0  0  0  0
  9  2  2  0  0  0  0
 10  3  2  0  0  0  0
 10 30  1  0  0  0  0
 11  2  1  0  0  0  0
 11 15  1  0  0  0  0
 13 17  1  6  0  0  0
 14 12  1  6  0  0  0
 14 21  1  0  0  0  0
 14 18  1  0  0  0  0
 15 20  1  6  0  0  0
 15 19  1  0  0  0  0
 16 13  1  0  0  0  0
 18 16  1  6  0  0  0
 19 18  1  0  0  0  0
 20 12  1  0  0  0  0
 21 13  1  0  0  0  0
 21 22  1  1  0  0  0
 22 24  1  0  0  0  0
 24 23  1  0  0  0  0
 25 26  1  0  0  0  0
 25 24  2  0  0  0  0
 27 29  2  0  0  0  0
 27 26  1  0  0  0  0
 28 27  1  0  0  0  0
 30 31  1  0  0  0  0
 31 32  1  0  0  0  0
 32 39  1  0  0  0  0
 33 32  2  0  0  0  0
 34 38  1  0  0  0  0
 36 37  1  0  0  0  0
 37 35  2  0  0  0  0
 37 40  1  0  0  0  0
 38 35  1  0  0  0  0
 39 36  1  0  0  0  0
 39 38  2  0  0  0  0
 41 47  1  0  0  0  0
 42 40  1  1  0  0  0
 42 47  1  0  0  0  0
 43 42  1  0  0  0  0
 45 44  2  0  0  0  0
 45 41  1  0  0  0  0
 46 43  1  0  0  0  0
 46 45  1  0  0  0  0
M  END
>  <MODEL>
3

>  <REMARK>
 VINA RESULT:      -8.6      2.723      6.524
  Name = 
  10 active torsions:
  status: ('A' for Active; 'I' for Inactive)
    1  A    between atoms: C_2  and  C_34
    2  A    between atoms: C_2  and  C_46
    3  A    between atoms: N_6  and  O_10
    4  A    between atoms: C_7  and  N_29
    5  A    between atoms: C_8  and  C_31
    6  A    between atoms: O_10  and  C_42
    7  A    between atoms: C_18  and  N_47
    8  A    between atoms: C_19  and  C_45
    9  A    between atoms: N_29  and  C_37
   10  A    between atoms: C_31  and  N_38
                            x       y       z     vdW  Elec       q    Type
                         _______ _______ _______ _____ _____    ______ ____

>  <TORSDO>
F 10

$$$$
=
 OpenBabel11042411473D

 47 52  0  0  1  0  0  0  0  0999 V2000
  186.2630  178.6760  147.4720 C   0  0  0  0  0  1  0  0  0  0  0  0
  188.5860  177.2300  145.1220 C   0  0  0  0  0  0  0  0  0  0  0  0
  190.4180  176.4530  143.8470 N   0  0  0  0  0  0  0  0  0  0  0  0
  189.2280  178.4080  148.5320 C   0  0  0  0  0  1  0  0  0  0  0  0
  188.7120  177.9770  147.2030 C   0  0  0  0  0  0  0  0  0  0  0  0
  187.4080  178.0820  146.7200 C   0  0  0  0  0  0  0  0  0  0  0  0
  191.2510  176.6640  144.9150 C   0  0  0  0  0  3  0  0  0  0  0  0
  190.7610  177.1650  146.0880 N   0  0  0  0  0  0  0  0  0  0  0  0
  189.4350  177.4350  146.1660 C   0  0  0  0  0  0  0  0  0  0  0  0
  189.0820  176.7360  143.9170 C   0  0  0  0  0  0  0  0  0  0  0  0
  187.3340  177.6140  145.4450 N   0  0  0  0  0  0  0  0  0  0  0  0
  184.0080  178.8660  144.2040 C   0  0  0  0  0  2  0  0  0  0  0  0
  184.3240  178.9170  140.5710 C   0  0  2  0  0  3  0  0  0  0  0  0
  184.0680  178.1310  142.8620 C   0  0  2  0  0  3  0  0  0  0  0  0
  186.1780  177.6180  144.5510 C   0  0  2  0  0  3  0  0  0  0  0  0
  185.7110  178.6800  141.1260 C   0  0  0  0  0  2  0  0  0  0  0  0
  184.2800  180.1280  139.9030 F   0  0  0  0  0  0  0  0  0  0  0  0
  185.5220  177.8890  142.4050 C   0  0  1  0  0  3  0  0  0  0  0  0
  186.4760  178.3050  143.3590 O   0  0  0  0  0  0  0  0  0  0  0  0
  184.9320  178.2030  145.2330 C   0  0  0  0  0  2  0  0  0  0  0  0
  183.3960  178.9490  141.7710 C   0  0  2  0  0  3  0  0  0  0  0  0
  181.9920  178.4340  141.4290 C   0  0  0  0  0  2  0  0  0  0  0  0
  180.1560  179.9100  142.4750 C   0  0  0  0  0  1  0  0  0  0  0  0
  180.9670  179.5240  141.2730 C   0  0  0  0  0  0  0  0  0  0  0  0
  180.8160  180.1030  140.1280 N   0  0  0  0  0  0  0  0  0  0  0  0
  179.8540  181.1520  139.8840 C   0  0  0  0  0  2  0  0  0  0  0  0
  180.2640  181.9660  138.7070 C   0  0  0  0  0  0  0  0  0  0  0  0
  179.5180  183.1220  138.3440 N   0  0  0  0  0  1  0  0  0  0  0  0
  181.2590  181.6200  138.0180 O   0  0  0  0  0  0  0  0  0  0  0  0
  188.2320  176.5120  142.8280 O   0  0  0  0  0  0  0  0  0  0  0  0
  188.6800  176.3860  141.5260 N   0  0  0  0  0  2  0  0  0  0  0  0
  189.1030  177.4830  140.7070 C   0  0  0  0  0  0  0  0  0  0  0  0
  188.9120  178.6700  141.0920 O   0  0  0  0  0  0  0  0  0  0  0  0
  187.7110  177.8540  137.9060 C   0  0  0  0  0  1  0  0  0  0  0  0
  189.9670  177.1280  137.0510 C   0  0  0  0  0  3  0  0  0  0  0  0
  191.2970  176.7240  139.1530 S   0  0  0  0  0  0  0  0  0  0  0  0
  191.2270  176.7280  137.4740 C   0  0  0  0  0  0  0  0  0  0  0  0
  189.1170  177.4150  138.1270 C   0  0  0  0  0  0  0  0  0  0  0  0
  189.7080  177.2400  139.3850 C   0  0  0  0  0  0  0  0  0  0  0  0
  192.3200  176.3780  136.6220 N   0  0  0  0  0  2  0  0  0  0  0  0
  195.9000  175.4550  136.5720 O   0  0  0  0  0  0  0  0  0  0  0  0
  193.5640  175.8260  137.1370 C   0  0  1  0  0  3  0  0  0  0  0  0
  193.4190  174.3230  137.3480 C   0  0  0  0  0  2  0  0  0  0  0  0
  197.0030  173.6300  137.4230 O   0  0  0  0  0  0  0  0  0  0  0  0
  195.9180  174.2490  137.2830 C   0  0  0  0  0  0  0  0  0  0  0  0
  194.6870  173.7540  137.9810 C   0  0  0  0  0  2  0  0  0  0  0  0
  194.6810  176.0600  136.1280 C   0  0  0  0  0  2  0  0  0  0  0  0
  2 11  1  0  0  0  0
  2  9  2  0  0  0  0
  3 10  2  0  0  0  0
  3  7  1  0  0  0  0
  5  4  1  0  0  0  0
  6  5  2  0  0  0  0
  6  1  1  0  0  0  0
  7  8  2  0  0  0  0
  8  9  1  0  0  0  0
  9  5  1  0  0  0  0
 10  2  1  0  0  0  0
 11  6  1  0  0  0  0
 12 20  1  0  0  0  0
 13 17  1  1  0  0  0
 13 16  1  0  0  0  0
 13 21  1  0  0  0  0
 14 12  1  1  0  0  0
 15 20  1  1  0  0  0
 15 11  1  0  0  0  0
 18 16  1  6  0  0  0
 18 14  1  0  0  0  0
 18 19  1  0  0  0  0
 19 15  1  0  0  0  0
 21 22  1  6  0  0  0
 21 14  1  0  0  0  0
 24 22  1  0  0  0  0
 24 23  1  0  0  0  0
 25 24  2  0  0  0  0
 26 25  1  0  0  0  0
 27 26  1  0  0  0  0
 28 27  1  0  0  0  0
 29 27  2  0  0  0  0
 30 10  1  0  0  0  0
 31 30  1  0  0  0  0
 32 33  2  0  0  0  0
 32 31  1  0  0  0  0
 34 38  1  0  0  0  0
 35 37  2  0  0  0  0
 35 38  1  0  0  0  0
 36 39  1  0  0  0  0
 37 36  1  0  0  0  0
 38 39  2  0  0  0  0
 39 32  1  0  0  0  0
 40 37  1  0  0  0  0
 41 45  1  0  0  0  0
 42 40  1  6  0  0  0
 42 43  1  0  0  0  0
 43 46  1  0  0  0  0
 45 44  2  0  0  0  0
 45 46  1  0  0  0  0
 47 41  1  0  0  0  0
 47 42  1  0  0  0  0
M  END
>  <MODEL>
4

>  <REMARK>
 VINA RESULT:      -8.5      3.343      9.951
  Name = 
  10 active torsions:
  status: ('A' for Active; 'I' for Inactive)
    1  A    between atoms: C_2  and  C_34
    2  A    between atoms: C_2  and  C_46
    3  A    between atoms: N_6  and  O_10
    4  A    between atoms: C_7  and  N_29
    5  A    between atoms: C_8  and  C_31
    6  A    between atoms: O_10  and  C_42
    7  A    between atoms: C_18  and  N_47
    8  A    between atoms: C_19  and  C_45
    9  A    between atoms: N_29  and  C_37
   10  A    between atoms: C_31  and  N_38
                            x       y       z     vdW  Elec       q    Type
                         _______ _______ _______ _____ _____    ______ ____

>  <TORSDO>
F 10

$$$$
=
 OpenBabel11042411473D

 47 52  0  0  1  0  0  0  0  0999 V2000
  183.0310  173.3730  135.9210 C   0  0  0  0  0  1  0  0  0  0  0  0
  186.5020  174.3250  135.6960 C   0  0  0  0  0  0  0  0  0  0  0  0
  188.8490  174.5160  135.4930 N   0  0  0  0  0  0  0  0  0  0  0  0
  184.9280  171.1800  134.6660 C   0  0  0  0  0  1  0  0  0  0  0  0
  185.3190  172.5400  135.1310 C   0  0  0  0  0  0  0  0  0  0  0  0
  184.4960  173.5220  135.6810 C   0  0  0  0  0  0  0  0  0  0  0  0
  188.9040  173.2600  134.9460 C   0  0  0  0  0  3  0  0  0  0  0  0
  187.7640  172.5260  134.7770 N   0  0  0  0  0  0  0  0  0  0  0  0
  186.5840  173.0780  135.1550 C   0  0  0  0  0  0  0  0  0  0  0  0
  187.6630  175.0710  135.8880 C   0  0  0  0  0  0  0  0  0  0  0  0
  185.2260  174.6200  136.0190 N   0  0  0  0  0  0  0  0  0  0  0  0
  183.1240  177.7220  136.3660 C   0  0  0  0  0  2  0  0  0  0  0  0
  182.0810  177.7600  139.8600 C   0  0  2  0  0  3  0  0  0  0  0  0
  183.4390  177.9470  137.8470 C   0  0  2  0  0  3  0  0  0  0  0  0
  184.7680  175.8310  136.6940 C   0  0  2  0  0  3  0  0  0  0  0  0
  182.7000  176.4040  139.6050 C   0  0  0  0  0  2  0  0  0  0  0  0
  180.7400  177.6190  140.1690 F   0  0  0  0  0  0  0  0  0  0  0  0
  183.7820  176.6250  138.5660 C   0  0  1  0  0  3  0  0  0  0  0  0
  183.8270  175.5170  137.6930 O   0  0  0  0  0  0  0  0  0  0  0  0
  184.2020  176.8580  135.7010 C   0  0  0  0  0  2  0  0  0  0  0  0
  182.2390  178.5390  138.5680 C   0  0  2  0  0  3  0  0  0  0  0  0
  182.3870  180.0460  138.8170 C   0  0  0  0  0  2  0  0  0  0  0  0
  180.5700  180.2020  136.9960 C   0  0  0  0  0  1  0  0  0  0  0  0
  181.4640  180.8920  137.9840 C   0  0  0  0  0  0  0  0  0  0  0  0
  181.4530  182.1740  138.1400 N   0  0  0  0  0  0  0  0  0  0  0  0
  180.6060  183.0650  137.3800 C   0  0  0  0  0  2  0  0  0  0  0  0
  181.3670  184.2770  136.9700 C   0  0  0  0  0  0  0  0  0  0  0  0
  180.9630  185.0180  135.8250 N   0  0  0  0  0  1  0  0  0  0  0  0
  182.3820  184.6340  137.6230 O   0  0  0  0  0  0  0  0  0  0  0  0
  187.6090  176.3560  136.4380 O   0  0  0  0  0  0  0  0  0  0  0  0
  187.9620  176.6410  137.7440 N   0  0  0  0  0  2  0  0  0  0  0  0
  187.5430  177.8100  138.4580 C   0  0  0  0  0  0  0  0  0  0  0  0
  186.9570  178.7470  137.8490 O   0  0  0  0  0  0  0  0  0  0  0  0
  185.6140  178.9510  140.6720 C   0  0  0  0  0  1  0  0  0  0  0  0
  187.5640  178.4300  142.1810 C   0  0  0  0  0  3  0  0  0  0  0  0
  189.3040  177.5100  140.6070 S   0  0  0  0  0  0  0  0  0  0  0  0
  188.8590  177.9300  142.1710 C   0  0  0  0  0  0  0  0  0  0  0  0
  186.9960  178.4440  140.9000 C   0  0  0  0  0  0  0  0  0  0  0  0
  187.8420  177.9570  139.8950 C   0  0  0  0  0  0  0  0  0  0  0  0
  189.7010  177.7760  143.3160 N   0  0  0  0  0  2  0  0  0  0  0  0
  189.7350  177.5610  147.0070 O   0  0  0  0  0  0  0  0  0  0  0  0
  189.2240  178.0040  144.6710 C   0  0  1  0  0  3  0  0  0  0  0  0
  187.8840  177.3060  144.8760 C   0  0  0  0  0  2  0  0  0  0  0  0
  188.0270  177.3240  148.5230 O   0  0  0  0  0  0  0  0  0  0  0  0
  188.3750  177.4550  147.3230 C   0  0  0  0  0  0  0  0  0  0  0  0
  187.3280  177.6240  146.2620 C   0  0  0  0  0  2  0  0  0  0  0  0
  190.2190  177.4240  145.6670 C   0  0  0  0  0  2  0  0  0  0  0  0
  2 10  1  0  0  0  0
  2 11  1  0  0  0  0
  3 10  2  0  0  0  0
  4  5  1  0  0  0  0
  5  9  1  0  0  0  0
  5  6  2  0  0  0  0
  6  1  1  0  0  0  0
  6 11  1  0  0  0  0
  7  3  1  0  0  0  0
  8  7  2  0  0  0  0
  8  9  1  0  0  0  0
  9  2  2  0  0  0  0
 10 30  1  0  0  0  0
 11 15  1  0  0  0  0
 13 17  1  6  0  0  0
 14 12  1  6  0  0  0
 14 18  1  0  0  0  0
 14 21  1  0  0  0  0
 15 20  1  6  0  0  0
 15 19  1  0  0  0  0
 16 13  1  0  0  0  0
 18 16  1  1  0  0  0
 19 18  1  0  0  0  0
 20 12  1  0  0  0  0
 21 22  1  1  0  0  0
 21 13  1  0  0  0  0
 23 24  1  0  0  0  0
 24 25  2  0  0  0  0
 24 22  1  0  0  0  0
 26 25  1  0  0  0  0
 27 26  1  0  0  0  0
 27 29  2  0  0  0  0
 28 27  1  0  0  0  0
 30 31  1  0  0  0  0
 31 32  1  0  0  0  0
 32 39  1  0  0  0  0
 33 32  2  0  0  0  0
 34 38  1  0  0  0  0
 36 37  1  0  0  0  0
 37 35  2  0  0  0  0
 37 40  1  0  0  0  0
 38 35  1  0  0  0  0
 39 36  1  0  0  0  0
 39 38  2  0  0  0  0
 41 45  1  0  0  0  0
 42 40  1  6  0  0  0
 42 43  1  0  0  0  0
 42 47  1  0  0  0  0
 43 46  1  0  0  0  0
 45 44  2  0  0  0  0
 46 45  1  0  0  0  0
 47 41  1  0  0  0  0
M  END
>  <MODEL>
5

>  <REMARK>
 VINA RESULT:      -8.5      3.208      7.135
  Name = 
  10 active torsions:
  status: ('A' for Active; 'I' for Inactive)
    1  A    between atoms: C_2  and  C_34
    2  A    between atoms: C_2  and  C_46
    3  A    between atoms: N_6  and  O_10
    4  A    between atoms: C_7  and  N_29
    5  A    between atoms: C_8  and  C_31
    6  A    between atoms: O_10  and  C_42
    7  A    between atoms: C_18  and  N_47
    8  A    between atoms: C_19  and  C_45
    9  A    between atoms: N_29  and  C_37
   10  A    between atoms: C_31  and  N_38
                            x       y       z     vdW  Elec       q    Type
                         _______ _______ _______ _____ _____    ______ ____

>  <TORSDO>
F 10

$$$$
=
 OpenBabel11042411473D

 47 52  0  0  1  0  0  0  0  0999 V2000
  184.4880  178.2330  145.5070 C   0  0  0  0  0  1  0  0  0  0  0  0
  185.5260  178.6710  142.0800 C   0  0  0  0  0  0  0  0  0  0  0  0
  185.7730  178.9430  139.7460 N   0  0  0  0  0  0  0  0  0  0  0  0
  182.1950  179.1430  143.5320 C   0  0  0  0  0  1  0  0  0  0  0  0
  183.6270  178.9150  143.1940 C   0  0  0  0  0  0  0  0  0  0  0  0
  184.6530  178.5200  144.0510 C   0  0  0  0  0  0  0  0  0  0  0  0
  184.4480  179.2770  139.6440 C   0  0  0  0  0  3  0  0  0  0  0  0
  183.6520  179.3030  140.7540 N   0  0  0  0  0  0  0  0  0  0  0  0
  184.2110  179.0010  141.9520 C   0  0  0  0  0  0  0  0  0  0  0  0
  186.3390  178.6250  140.9490 C   0  0  0  0  0  0  0  0  0  0  0  0
  185.8190  178.3790  143.3640 N   0  0  0  0  0  0  0  0  0  0  0  0
  188.7400  176.0100  143.5110 C   0  0  0  0  0  2  0  0  0  0  0  0
  191.6770  178.1570  143.7480 C   0  0  2  0  0  3  0  0  0  0  0  0
  189.6450  176.9440  144.3190 C   0  0  2  0  0  3  0  0  0  0  0  0
  187.1070  177.9050  143.8650 C   0  0  2  0  0  3  0  0  0  0  0  0
  190.5060  179.0560  143.4170 C   0  0  0  0  0  2  0  0  0  0  0  0
  192.5930  178.1720  142.7110 F   0  0  0  0  0  0  0  0  0  0  0  0
  189.2950  178.4280  144.0800 C   0  0  1  0  0  3  0  0  0  0  0  0
  188.1650  178.6020  143.2520 O   0  0  0  0  0  0  0  0  0  0  0  0
  187.2650  176.3870  143.6880 C   0  0  0  0  0  2  0  0  0  0  0  0
  191.0990  176.7650  143.9160 C   0  0  2  0  0  3  0  0  0  0  0  0
  191.8920  175.9280  144.9270 C   0  0  0  0  0  2  0  0  0  0  0  0
  192.4240  175.6270  147.4310 C   0  0  0  0  0  1  0  0  0  0  0  0
  191.5760  176.2510  146.3620 C   0  0  0  0  0  0  0  0  0  0  0  0
  190.6030  177.0530  146.6400 N   0  0  0  0  0  0  0  0  0  0  0  0
  190.2230  177.4140  147.9860 C   0  0  0  0  0  2  0  0  0  0  0  0
  188.7510  177.6150  148.0720 C   0  0  0  0  0  0  0  0  0  0  0  0
  188.1840  178.2520  149.2110 N   0  0  0  0  0  1  0  0  0  0  0  0
  188.0040  177.2020  147.1470 O   0  0  0  0  0  0  0  0  0  0  0  0
  187.6940  178.2920  141.0520 O   0  0  0  0  0  0  0  0  0  0  0  0
  188.3610  177.5200  140.1190 N   0  0  0  0  0  2  0  0  0  0  0  0
  189.1150  178.0490  139.0220 C   0  0  0  0  0  0  0  0  0  0  0  0
  189.0550  179.2800  138.7490 O   0  0  0  0  0  0  0  0  0  0  0  0
  188.7180  177.5440  135.9380 C   0  0  0  0  0  1  0  0  0  0  0  0
  190.7160  176.0440  136.2550 C   0  0  0  0  0  3  0  0  0  0  0  0
  191.2280  176.2470  138.7140 S   0  0  0  0  0  0  0  0  0  0  0  0
  191.6010  175.5790  137.2190 C   0  0  0  0  0  0  0  0  0  0  0  0
  189.7730  176.9300  136.7910 C   0  0  0  0  0  0  0  0  0  0  0  0
  189.9180  177.1570  138.1660 C   0  0  0  0  0  0  0  0  0  0  0  0
  192.6840  174.6750  136.9890 N   0  0  0  0  0  2  0  0  0  0  0  0
  196.2150  175.6180  136.4370 O   0  0  0  0  0  0  0  0  0  0  0  0
  194.0550  174.9900  137.3590 C   0  0  1  0  0  3  0  0  0  0  0  0
  194.7220  173.7660  137.9770 C   0  0  0  0  0  2  0  0  0  0  0  0
  198.1430  174.9390  137.4840 O   0  0  0  0  0  0  0  0  0  0  0  0
  196.8900  174.8780  137.4160 C   0  0  0  0  0  0  0  0  0  0  0  0
  196.1280  174.1170  138.4590 C   0  0  0  0  0  2  0  0  0  0  0  0
  194.8410  175.3820  136.1150 C   0  0  0  0  0  2  0  0  0  0  0  0
  2 11  1  0  0  0  0
  3 10  2  0  0  0  0
  5  4  1  0  0  0  0
  5  6  2  0  0  0  0
  6  1  1  0  0  0  0
  7  3  1  0  0  0  0
  7  8  2  0  0  0  0
  8  9  1  0  0  0  0
  9  2  2  0  0  0  0
  9  5  1  0  0  0  0
 10 30  1  0  0  0  0
 10  2  1  0  0  0  0
 11  6  1  0  0  0  0
 12 20  1  0  0  0  0
 13 17  1  6  0  0  0
 13 21  1  0  0  0  0
 14 12  1  6  0  0  0
 15 11  1  6  0  0  0
 16 13  1  0  0  0  0
 18 16  1  6  0  0  0
 18 14  1  0  0  0  0
 19 15  1  0  0  0  0
 19 18  1  0  0  0  0
 20 15  1  0  0  0  0
 21 14  1  0  0  0  0
 21 22  1  1  0  0  0
 22 24  1  0  0  0  0
 24 25  2  0  0  0  0
 24 23  1  0  0  0  0
 25 26  1  0  0  0  0
 26 27  1  0  0  0  0
 27 28  1  0  0  0  0
 29 27  2  0  0  0  0
 31 30  1  0  0  0  0
 32 31  1  0  0  0  0
 33 32  2  0  0  0  0
 34 38  1  0  0  0  0
 35 38  1  0  0  0  0
 35 37  2  0  0  0  0
 37 36  1  0  0  0  0
 38 39  2  0  0  0  0
 39 36  1  0  0  0  0
 39 32  1  0  0  0  0
 40 37  1  0  0  0  0
 41 45  1  0  0  0  0
 42 40  1  6  0  0  0
 42 43  1  0  0  0  0
 43 46  1  0  0  0  0
 45 44  2  0  0  0  0
 45 46  1  0  0  0  0
 47 41  1  0  0  0  0
 47 42  1  0  0  0  0
M  END
>  <MODEL>
6

>  <REMARK>
 VINA RESULT:      -8.4      3.231      8.137
  Name = 
  10 active torsions:
  status: ('A' for Active; 'I' for Inactive)
    1  A    between atoms: C_2  and  C_34
    2  A    between atoms: C_2  and  C_46
    3  A    between atoms: N_6  and  O_10
    4  A    between atoms: C_7  and  N_29
    5  A    between atoms: C_8  and  C_31
    6  A    between atoms: O_10  and  C_42
    7  A    between atoms: C_18  and  N_47
    8  A    between atoms: C_19  and  C_45
    9  A    between atoms: N_29  and  C_37
   10  A    between atoms: C_31  and  N_38
                            x       y       z     vdW  Elec       q    Type
                         _______ _______ _______ _____ _____    ______ ____

>  <TORSDO>
F 10

$$$$
=
 OpenBabel11042411473D

 47 52  0  0  1  0  0  0  0  0999 V2000
  180.5950  178.3650  143.6950 C   0  0  0  0  0  1  0  0  0  0  0  0
  182.4810  178.9710  140.6810 C   0  0  0  0  0  0  0  0  0  0  0  0
  183.3780  179.1700  138.5030 N   0  0  0  0  0  0  0  0  0  0  0  0
  178.9330  178.1190  141.0190 C   0  0  0  0  0  1  0  0  0  0  0  0
  180.3730  178.4810  141.1470 C   0  0  0  0  0  0  0  0  0  0  0  0
  181.1200  178.6000  142.3170 C   0  0  0  0  0  0  0  0  0  0  0  0
  182.1400  178.9200  137.9710 C   0  0  0  0  0  3  0  0  0  0  0  0
  181.0680  178.6870  138.7850 N   0  0  0  0  0  0  0  0  0  0  0  0
  181.2630  178.7200  140.1270 C   0  0  0  0  0  0  0  0  0  0  0  0
  183.5820  179.1910  139.8550 C   0  0  0  0  0  0  0  0  0  0  0  0
  182.4130  178.9090  142.0260 N   0  0  0  0  0  0  0  0  0  0  0  0
  184.0760  178.7030  145.3970 C   0  0  0  0  0  2  0  0  0  0  0  0
  187.3590  177.2610  144.7340 C   0  0  2  0  0  3  0  0  0  0  0  0
  185.5050  178.8350  144.8620 C   0  0  2  0  0  3  0  0  0  0  0  0
  183.5360  179.0420  142.9510 C   0  0  2  0  0  3  0  0  0  0  0  0
  186.5550  177.1170  143.4610 C   0  0  0  0  0  2  0  0  0  0  0  0
  187.6670  176.0130  145.2440 F   0  0  0  0  0  0  0  0  0  0  0  0
  185.6250  178.3130  143.4150 C   0  0  1  0  0  3  0  0  0  0  0  0
  184.3850  177.9230  142.8650 O   0  0  0  0  0  0  0  0  0  0  0  0
  183.0620  179.2690  144.3960 C   0  0  0  0  0  2  0  0  0  0  0  0
  186.4710  178.0170  145.7040 C   0  0  2  0  0  3  0  0  0  0  0  0
  187.2820  178.8820  146.6770 C   0  0  0  0  0  2  0  0  0  0  0  0
  187.8660  177.6300  148.8520 C   0  0  0  0  0  1  0  0  0  0  0  0
  188.2810  178.1060  147.4910 C   0  0  0  0  0  0  0  0  0  0  0  0
  189.4520  177.8610  147.0060 N   0  0  0  0  0  0  0  0  0  0  0  0
  190.4760  177.1310  147.7180 C   0  0  0  0  0  2  0  0  0  0  0  0
  191.5430  176.6900  146.7780 C   0  0  0  0  0  0  0  0  0  0  0  0
  192.4220  175.6320  147.1440 N   0  0  0  0  0  1  0  0  0  0  0  0
  191.6840  177.2660  145.6680 O   0  0  0  0  0  0  0  0  0  0  0  0
  184.8450  179.4550  140.3970 O   0  0  0  0  0  0  0  0  0  0  0  0
  185.9330  178.6190  140.2320 N   0  0  0  0  0  2  0  0  0  0  0  0
  186.7040  178.5240  139.0270 C   0  0  0  0  0  0  0  0  0  0  0  0
  186.3010  179.0890  137.9730 O   0  0  0  0  0  0  0  0  0  0  0  0
  189.0100  178.5200  141.1730 C   0  0  0  0  0  1  0  0  0  0  0  0
  190.0010  176.7910  139.6320 C   0  0  0  0  0  3  0  0  0  0  0  0
  188.3190  176.6280  137.7620 S   0  0  0  0  0  0  0  0  0  0  0  0
  189.7730  176.1220  138.4370 C   0  0  0  0  0  0  0  0  0  0  0  0
  188.9690  177.6860  139.9390 C   0  0  0  0  0  0  0  0  0  0  0  0
  187.9390  177.7190  138.9900 C   0  0  0  0  0  0  0  0  0  0  0  0
  190.6310  175.1380  137.8560 N   0  0  0  0  0  2  0  0  0  0  0  0
  194.0100  176.3760  137.0100 O   0  0  0  0  0  0  0  0  0  0  0  0
  192.0810  175.2220  137.9370 C   0  0  1  0  0  3  0  0  0  0  0  0
  192.7050  173.9050  137.4860 C   0  0  0  0  0  2  0  0  0  0  0  0
  196.0250  175.2850  136.8520 O   0  0  0  0  0  0  0  0  0  0  0  0
  194.7980  175.2230  137.1170 C   0  0  0  0  0  0  0  0  0  0  0  0
  194.2210  173.9510  137.6640 C   0  0  0  0  0  2  0  0  0  0  0  0
  192.5800  176.3250  137.0130 C   0  0  0  0  0  2  0  0  0  0  0  0
  2 11  1  0  0  0  0
  3 10  2  0  0  0  0
  4  5  1  0  0  0  0
  5  6  2  0  0  0  0
  6  1  1  0  0  0  0
  7  3  1  0  0  0  0
  7  8  2  0  0  0  0
  8  9  1  0  0  0  0
  9  2  2  0  0  0  0
  9  5  1  0  0  0  0
 10 30  1  0  0  0  0
 10  2  1  0  0  0  0
 11  6  1  0  0  0  0
 13 17  1  1  0  0  0
 13 21  1  0  0  0  0
 14 12  1  1  0  0  0
 14 21  1  0  0  0  0
 15 11  1  6  0  0  0
 15 20  1  0  0  0  0
 16 13  1  0  0  0  0
 18 16  1  1  0  0  0
 18 14  1  0  0  0  0
 19 15  1  0  0  0  0
 19 18  1  0  0  0  0
 20 12  1  0  0  0  0
 21 22  1  6  0  0  0
 22 24  1  0  0  0  0
 24 23  1  0  0  0  0
 25 24  2  0  0  0  0
 25 26  1  0  0  0  0
 27 28  1  0  0  0  0
 27 26  1  0  0  0  0
 29 27  2  0  0  0  0
 31 30  1  0  0  0  0
 32 31  1  0  0  0  0
 33 32  2  0  0  0  0
 35 38  1  0  0  0  0
 36 37  1  0  0  0  0
 36 39  1  0  0  0  0
 37 35  2  0  0  0  0
 38 34  1  0  0  0  0
 39 32  1  0  0  0  0
 39 38  2  0  0  0  0
 40 37  1  0  0  0  0
 41 47  1  0  0  0  0
 41 45  1  0  0  0  0
 42 40  1  6  0  0  0
 43 46  1  0  0  0  0
 43 42  1  0  0  0  0
 44 45  2  0  0  0  0
 45 46  1  0  0  0  0
 47 42  1  0  0  0  0
M  END
>  <MODEL>
7

>  <REMARK>
 VINA RESULT:      -8.4      3.050      7.473
  Name = 
  10 active torsions:
  status: ('A' for Active; 'I' for Inactive)
    1  A    between atoms: C_2  and  C_34
    2  A    between atoms: C_2  and  C_46
    3  A    between atoms: N_6  and  O_10
    4  A    between atoms: C_7  and  N_29
    5  A    between atoms: C_8  and  C_31
    6  A    between atoms: O_10  and  C_42
    7  A    between atoms: C_18  and  N_47
    8  A    between atoms: C_19  and  C_45
    9  A    between atoms: N_29  and  C_37
   10  A    between atoms: C_31  and  N_38
                            x       y       z     vdW  Elec       q    Type
                         _______ _______ _______ _____ _____    ______ ____

>  <TORSDO>
F 10

$$$$
=
 OpenBabel11042411473D

 47 52  0  0  1  0  0  0  0  0999 V2000
  186.4280  178.6130  147.5930 C   0  0  0  0  0  1  0  0  0  0  0  0
  188.6830  177.1710  145.1750 C   0  0  0  0  0  0  0  0  0  0  0  0
  190.4780  176.3820  143.8560 N   0  0  0  0  0  0  0  0  0  0  0  0
  189.4010  178.2540  148.6020 C   0  0  0  0  0  1  0  0  0  0  0  0
  188.8560  177.8660  147.2710 C   0  0  0  0  0  0  0  0  0  0  0  0
  187.5480  178.0110  146.8110 C   0  0  0  0  0  0  0  0  0  0  0  0
  191.3310  176.5500  144.9160 C   0  0  0  0  0  3  0  0  0  0  0  0
  190.8700  177.0340  146.1080 N   0  0  0  0  0  0  0  0  0  0  0  0
  189.5520  177.3320  146.2120 C   0  0  0  0  0  0  0  0  0  0  0  0
  189.1500  176.6940  143.9520 C   0  0  0  0  0  0  0  0  0  0  0  0
  187.4450  177.5750  145.5260 N   0  0  0  0  0  0  0  0  0  0  0  0
  184.1790  178.9910  144.3030 C   0  0  0  0  0  2  0  0  0  0  0  0
  184.4370  178.9330  140.6660 C   0  0  2  0  0  3  0  0  0  0  0  0
  184.1730  178.2210  142.9800 C   0  0  2  0  0  3  0  0  0  0  0  0
  186.2770  177.6260  144.6500 C   0  0  2  0  0  3  0  0  0  0  0  0
  185.8170  178.6270  141.2050 C   0  0  0  0  0  2  0  0  0  0  0  0
  184.4540  180.1270  139.9680 F   0  0  0  0  0  0  0  0  0  0  0  0
  185.6020  177.8810  142.5080 C   0  0  1  0  0  3  0  0  0  0  0  0
  186.5950  178.2640  143.4360 O   0  0  0  0  0  0  0  0  0  0  0  0
  185.0790  178.3010  145.3350 C   0  0  0  0  0  2  0  0  0  0  0  0
  183.5330  179.0500  141.8780 C   0  0  2  0  0  3  0  0  0  0  0  0
  182.0950  178.6120  141.5710 C   0  0  0  0  0  2  0  0  0  0  0  0
  181.3500  178.9620  139.1300 C   0  0  0  0  0  1  0  0  0  0  0  0
  181.9130  178.0570  140.1850 C   0  0  0  0  0  0  0  0  0  0  0  0
  182.2480  176.8350  139.9340 N   0  0  0  0  0  0  0  0  0  0  0  0
  182.1020  176.2170  138.6360 C   0  0  0  0  0  2  0  0  0  0  0  0
  183.4310  175.7980  138.1110 C   0  0  0  0  0  0  0  0  0  0  0  0
  184.3960  176.7790  137.7520 N   0  0  0  0  0  1  0  0  0  0  0  0
  183.6930  174.5760  137.9640 O   0  0  0  0  0  0  0  0  0  0  0  0
  188.2800  176.5140  142.8720 O   0  0  0  0  0  0  0  0  0  0  0  0
  188.7080  176.3780  141.5640 N   0  0  0  0  0  2  0  0  0  0  0  0
  189.1960  177.4570  140.7570 C   0  0  0  0  0  0  0  0  0  0  0  0
  189.0870  178.6480  141.1610 O   0  0  0  0  0  0  0  0  0  0  0  0
  187.8280  178.0070  137.9730 C   0  0  0  0  0  1  0  0  0  0  0  0
  190.0120  177.1150  137.0890 C   0  0  0  0  0  3  0  0  0  0  0  0
  191.3120  176.5530  139.1730 S   0  0  0  0  0  0  0  0  0  0  0  0
  191.2360  176.6010  137.4950 C   0  0  0  0  0  0  0  0  0  0  0  0
  189.1940  177.4470  138.1760 C   0  0  0  0  0  0  0  0  0  0  0  0
  189.7740  177.1950  139.4260 C   0  0  0  0  0  0  0  0  0  0  0  0
  192.2920  176.1800  136.6290 N   0  0  0  0  0  2  0  0  0  0  0  0
  195.9420  175.6130  136.4680 O   0  0  0  0  0  0  0  0  0  0  0  0
  193.6100  175.8160  137.1260 C   0  0  1  0  0  3  0  0  0  0  0  0
  193.6330  174.3400  137.5080 C   0  0  0  0  0  2  0  0  0  0  0  0
  197.2690  174.0150  137.4470 O   0  0  0  0  0  0  0  0  0  0  0  0
  196.1200  174.5040  137.3040 C   0  0  0  0  0  0  0  0  0  0  0  0
  194.9820  173.9740  138.1240 C   0  0  0  0  0  2  0  0  0  0  0  0
  194.6470  176.0410  136.0340 C   0  0  0  0  0  2  0  0  0  0  0  0
  2 11  1  0  0  0  0
  2  9  2  0  0  0  0
  3 10  2  0  0  0  0
  3  7  1  0  0  0  0
  5  4  1  0  0  0  0
  6  5  2  0  0  0  0
  6  1  1  0  0  0  0
  7  8  2  0  0  0  0
  8  9  1  0  0  0  0
  9  5  1  0  0  0  0
 10  2  1  0  0  0  0
 11  6  1  0  0  0  0
 12 20  1  0  0  0  0
 13 17  1  1  0  0  0
 13 16  1  0  0  0  0
 13 21  1  0  0  0  0
 14 12  1  1  0  0  0
 15 20  1  1  0  0  0
 15 11  1  0  0  0  0
 18 16  1  6  0  0  0
 18 14  1  0  0  0  0
 18 19  1  0  0  0  0
 19 15  1  0  0  0  0
 21 22  1  6  0  0  0
 21 14  1  0  0  0  0
 23 24  1  0  0  0  0
 24 22  1  0  0  0  0
 25 24  2  0  0  0  0
 26 25  1  0  0  0  0
 27 26  1  0  0  0  0
 28 27  1  0  0  0  0
 29 27  2  0  0  0  0
 30 10  1  0  0  0  0
 31 30  1  0  0  0  0
 32 33  2  0  0  0  0
 32 31  1  0  0  0  0
 34 38  1  0  0  0  0
 35 37  2  0  0  0  0
 35 38  1  0  0  0  0
 36 39  1  0  0  0  0
 37 36  1  0  0  0  0
 38 39  2  0  0  0  0
 39 32  1  0  0  0  0
 40 37  1  0  0  0  0
 41 45  1  0  0  0  0
 42 40  1  6  0  0  0
 42 43  1  0  0  0  0
 43 46  1  0  0  0  0
 45 44  2  0  0  0  0
 45 46  1  0  0  0  0
 47 41  1  0  0  0  0
 47 42  1  0  0  0  0
M  END
>  <MODEL>
8

>  <REMARK>
 VINA RESULT:      -8.4      3.105      9.526
  Name = 
  10 active torsions:
  status: ('A' for Active; 'I' for Inactive)
    1  A    between atoms: C_2  and  C_34
    2  A    between atoms: C_2  and  C_46
    3  A    between atoms: N_6  and  O_10
    4  A    between atoms: C_7  and  N_29
    5  A    between atoms: C_8  and  C_31
    6  A    between atoms: O_10  and  C_42
    7  A    between atoms: C_18  and  N_47
    8  A    between atoms: C_19  and  C_45
    9  A    between atoms: N_29  and  C_37
   10  A    between atoms: C_31  and  N_38
                            x       y       z     vdW  Elec       q    Type
                         _______ _______ _______ _____ _____    ______ ____

>  <TORSDO>
F 10

$$$$
=
 OpenBabel11042411473D

 47 52  0  0  1  0  0  0  0  0999 V2000
  191.6530  176.7380  143.2200 C   0  0  0  0  0  1  0  0  0  0  0  0
  188.2560  177.5420  144.1260 C   0  0  0  0  0  0  0  0  0  0  0  0
  186.1450  177.9190  145.1200 N   0  0  0  0  0  0  0  0  0  0  0  0
  191.1150  176.9050  146.3290 C   0  0  0  0  0  1  0  0  0  0  0  0
  190.1310  177.1500  145.2370 C   0  0  0  0  0  0  0  0  0  0  0  0
  190.3520  177.0870  143.8620 C   0  0  0  0  0  0  0  0  0  0  0  0
  186.7120  177.8150  146.3640 C   0  0  0  0  0  3  0  0  0  0  0  0
  188.0490  177.5680  146.4990 N   0  0  0  0  0  0  0  0  0  0  0  0
  188.7940  177.4390  145.3730 C   0  0  0  0  0  0  0  0  0  0  0  0
  186.8900  177.7770  143.9820 C   0  0  0  0  0  0  0  0  0  0  0  0
  189.1990  177.3370  143.1840 N   0  0  0  0  0  0  0  0  0  0  0  0
  188.9620  178.8260  139.7350 C   0  0  0  0  0  2  0  0  0  0  0  0
  190.6290  176.4200  137.5600 C   0  0  2  0  0  3  0  0  0  0  0  0
  188.9750  177.4850  138.9960 C   0  0  2  0  0  3  0  0  0  0  0  0
  188.9760  177.2890  141.7410 C   0  0  2  0  0  3  0  0  0  0  0  0
  190.9300  176.0030  138.9830 C   0  0  0  0  0  2  0  0  0  0  0  0
  191.7980  176.7840  136.9160 F   0  0  0  0  0  0  0  0  0  0  0  0
  189.7150  176.3960  139.8010 C   0  0  1  0  0  3  0  0  0  0  0  0
  190.1310  176.8380  141.0750 O   0  0  0  0  0  0  0  0  0  0  0  0
  188.5120  178.6460  141.1890 C   0  0  0  0  0  2  0  0  0  0  0  0
  189.6970  177.6120  137.6650 C   0  0  2  0  0  3  0  0  0  0  0  0
  188.7300  177.6950  136.4770 C   0  0  0  0  0  2  0  0  0  0  0  0
  186.2060  177.8760  136.9660 C   0  0  0  0  0  1  0  0  0  0  0  0
  187.4100  177.0160  136.7200 C   0  0  0  0  0  0  0  0  0  0  0  0
  187.3400  175.7260  136.7030 N   0  0  0  0  0  0  0  0  0  0  0  0
  186.1190  174.9890  136.9330 C   0  0  0  0  0  2  0  0  0  0  0  0
  186.4250  173.5630  137.2330 C   0  0  0  0  0  0  0  0  0  0  0  0
  187.6310  172.9770  136.7570 N   0  0  0  0  0  1  0  0  0  0  0  0
  185.6070  172.8680  137.8910 O   0  0  0  0  0  0  0  0  0  0  0  0
  186.3110  177.8920  142.7140 O   0  0  0  0  0  0  0  0  0  0  0  0
  184.9460  177.8590  142.4950 N   0  0  0  0  0  2  0  0  0  0  0  0
  184.2770  178.5840  141.4550 C   0  0  0  0  0  0  0  0  0  0  0  0
  184.9040  179.4490  140.7830 O   0  0  0  0  0  0  0  0  0  0  0  0
  181.9110  179.1280  143.4630 C   0  0  0  0  0  1  0  0  0  0  0  0
  180.5110  178.3460  141.5190 C   0  0  0  0  0  3  0  0  0  0  0  0
  182.2130  177.8020  139.7430 S   0  0  0  0  0  0  0  0  0  0  0  0
  180.6030  177.8780  140.2160 C   0  0  0  0  0  0  0  0  0  0  0  0
  181.7700  178.6230  142.0680 C   0  0  0  0  0  0  0  0  0  0  0  0
  182.8400  178.3720  141.2000 C   0  0  0  0  0  0  0  0  0  0  0  0
  179.5010  177.5190  139.3800 N   0  0  0  0  0  2  0  0  0  0  0  0
  179.6410  173.8270  139.5000 O   0  0  0  0  0  0  0  0  0  0  0  0
  179.2890  176.1590  138.9090 C   0  0  1  0  0  3  0  0  0  0  0  0
  180.0970  175.9160  137.6390 C   0  0  0  0  0  2  0  0  0  0  0  0
  179.9960  172.2730  137.8470 O   0  0  0  0  0  0  0  0  0  0  0  0
  179.8580  173.4820  138.1600 C   0  0  0  0  0  0  0  0  0  0  0  0
  179.8020  174.5240  137.0830 C   0  0  0  0  0  2  0  0  0  0  0  0
  179.7620  175.1730  139.9690 C   0  0  0  0  0  2  0  0  0  0  0  0
  1  6  1  0  0  0  0
  2  9  2  0  0  0  0
  3  7  1  0  0  0  0
  5  9  1  0  0  0  0
  5  4  1  0  0  0  0
  6  5  2  0  0  0  0
  7  8  2  0  0  0  0
  9  8  1  0  0  0  0
 10  2  1  0  0  0  0
 10  3  2  0  0  0  0
 11  6  1  0  0  0  0
 11  2  1  0  0  0  0
 12 20  1  0  0  0  0
 13 17  1  1  0  0  0
 13 21  1  0  0  0  0
 13 16  1  0  0  0  0
 14 12  1  1  0  0  0
 14 18  1  0  0  0  0
 15 20  1  6  0  0  0
 15 11  1  0  0  0  0
 18 16  1  6  0  0  0
 18 19  1  0  0  0  0
 19 15  1  0  0  0  0
 21 22  1  6  0  0  0
 21 14  1  0  0  0  0
 22 24  1  0  0  0  0
 24 23  1  0  0  0  0
 25 24  2  0  0  0  0
 25 26  1  0  0  0  0
 26 27  1  0  0  0  0
 27 29  2  0  0  0  0
 28 27  1  0  0  0  0
 30 10  1  0  0  0  0
 31 30  1  0  0  0  0
 32 31  1  0  0  0  0
 33 32  2  0  0  0  0
 35 38  1  0  0  0  0
 36 37  1  0  0  0  0
 36 39  1  0  0  0  0
 37 35  2  0  0  0  0
 38 34  1  0  0  0  0
 39 32  1  0  0  0  0
 39 38  2  0  0  0  0
 40 37  1  0  0  0  0
 41 47  1  0  0  0  0
 42 40  1  1  0  0  0
 42 47  1  0  0  0  0
 43 42  1  0  0  0  0
 44 45  2  0  0  0  0
 45 41  1  0  0  0  0
 46 43  1  0  0  0  0
 46 45  1  0  0  0  0
M  END
>  <MODEL>
9

>  <REMARK>
 VINA RESULT:      -8.3      3.003      8.324
  Name = 
  10 active torsions:
  status: ('A' for Active; 'I' for Inactive)
    1  A    between atoms: C_2  and  C_34
    2  A    between atoms: C_2  and  C_46
    3  A    between atoms: N_6  and  O_10
    4  A    between atoms: C_7  and  N_29
    5  A    between atoms: C_8  and  C_31
    6  A    between atoms: O_10  and  C_42
    7  A    between atoms: C_18  and  N_47
    8  A    between atoms: C_19  and  C_45
    9  A    between atoms: N_29  and  C_37
   10  A    between atoms: C_31  and  N_38
                            x       y       z     vdW  Elec       q    Type
                         _______ _______ _______ _____ _____    ______ ____

>  <TORSDO>
F 10

$$$$
