=
 OpenBabel11042413113D

 32 36  0  0  1  0  0  0  0  0999 V2000
  183.6170  178.8190  141.1030 C   0  0  0  0  0  0  0  0  0  0  0  0
  184.3330  178.5260  143.4200 C   0  0  0  0  0  0  0  0  0  0  0  0
  184.6280  178.6000  142.0500 C   0  0  0  0  0  3  0  0  0  0  0  0
  182.2970  178.9830  141.5450 C   0  0  0  0  0  3  0  0  0  0  0  0
  183.0040  178.6850  143.8400 C   0  0  0  0  0  3  0  0  0  0  0  0
  181.9900  178.9130  142.9070 C   0  0  0  0  0  0  0  0  0  0  0  0
  186.6180  177.8050  144.0800 C   0  0  0  0  0  3  0  0  0  0  0  0
  187.3000  177.7340  145.2700 C   0  0  0  0  0  0  0  0  0  0  0  0
  188.5570  177.3470  145.7040 C   0  0  0  0  0  0  0  0  0  0  0  0
  189.6240  176.8550  144.9590 C   0  0  0  0  0  3  0  0  0  0  0  0
  186.4910  178.1680  146.2520 C   0  0  0  0  0  0  0  0  0  0  0  0
  187.2320  178.1230  147.7690 S   0  0  0  0  0  0  0  0  0  0  0  0
  189.8110  177.1940  147.7430 N   0  0  0  0  0  0  0  0  0  0  0  0
  185.2790  178.5240  145.7180 C   0  0  0  0  0  3  0  0  0  0  0  0
  190.8040  176.5320  145.6480 C   0  0  0  0  0  3  0  0  0  0  0  0
  190.8810  176.7090  147.0450 C   0  0  0  0  0  0  0  0  0  0  0  0
  185.3790  178.2920  144.3780 N   0  0  0  0  0  0  0  0  0  0  0  0
  188.6690  177.5080  147.0830 C   0  0  0  0  0  0  0  0  0  0  0  0
  192.0920  176.3760  147.7390 C   0  0  0  0  0  0  0  0  0  0  0  0
  193.0680  176.1060  148.2980 N   0  0  0  0  0  0  0  0  0  0  0  0
  184.4390  177.8760  137.5350 O   0  0  0  0  0  0  0  0  0  0  0  0
  183.4490  177.2550  136.7540 C   0  0  2  0  0  3  0  0  0  0  0  0
  182.8090  176.1660  137.5980 C   0  0  0  0  0  2  0  0  0  0  0  0
  183.9640  177.7650  138.8030 N   0  0  0  0  0  0  0  0  0  0  0  0
  184.1950  180.0490  139.1670 O   0  0  0  0  0  0  0  0  0  0  0  0
  183.9290  178.9190  139.6580 C   0  0  0  0  0  0  0  0  0  0  0  0
  183.0660  176.6470  138.9960 C   0  0  0  0  0  2  0  0  0  0  0  0
  183.9630  175.2740  135.4880 O   0  0  0  0  0  1  0  0  0  0  0  0
  185.4920  177.0920  135.3310 C   0  0  0  0  0  1  0  0  0  0  0  0
  184.0440  176.6690  135.4780 C   0  0  2  0  0  3  0  0  0  0  0  0
  179.4950  179.2160  143.7160 C   0  0  0  0  0  3  0  0  0  0  0  0
  180.6340  179.0780  143.3460 C   0  0  0  0  0  0  0  0  0  0  0  0
  1  4  2  0  0  0  0
  1  3  1  0  0  0  0
  2  5  1  0  0  0  0
  2 17  1  0  0  0  0
  3  2  2  0  0  0  0
  4  6  1  0  0  0  0
  6 32  1  0  0  0  0
  6  5  2  0  0  0  0
  7 17  1  0  0  0  0
  7  8  2  0  0  0  0
  8  9  1  0  0  0  0
  8 11  1  0  0  0  0
  9 18  1  0  0  0  0
 10 15  1  0  0  0  0
 10  9  2  0  0  0  0
 11 12  1  0  0  0  0
 14 11  2  0  0  0  0
 15 16  2  0  0  0  0
 16 19  1  0  0  0  0
 16 13  1  0  0  0  0
 17 14  1  0  0  0  0
 18 13  2  0  0  0  0
 18 12  1  0  0  0  0
 19 20  3  0  0  0  0
 21 24  1  0  0  0  0
 22 30  1  6  0  0  0
 22 21  1  0  0  0  0
 22 23  1  0  0  0  0
 23 27  1  0  0  0  0
 24 27  1  0  0  0  0
 24 26  1  0  0  0  0
 25 26  2  0  0  0  0
 26  1  1  0  0  0  0
 30 29  1  1  0  0  0
 30 28  1  0  0  0  0
 32 31  3  0  0  0  0
M  END
>  <MODEL>
1

>  <REMARK>
 VINA RESULT:      -9.4      0.000      0.000
  Name = 
  5 active torsions:
  status: ('A' for Active; 'I' for Inactive)
    1  A    between atoms: C_2  and  C_29
    2  A    between atoms: C_10  and  C_11
    3  A    between atoms: C_17  and  N_31
    4  A    between atoms: C_22  and  C_30
    5  A    between atoms: C_27  and  C_28
                            x       y       z     vdW  Elec       q    Type
                         _______ _______ _______ _____ _____    ______ ____

>  <TORSDO>
F 5

$$$$
=
 OpenBabel11042413113D

 32 36  0  0  1  0  0  0  0  0999 V2000
  183.9890  178.4760  141.2450 C   0  0  0  0  0  0  0  0  0  0  0  0
  184.6840  178.3680  143.5840 C   0  0  0  0  0  0  0  0  0  0  0  0
  184.9850  178.2960  142.2150 C   0  0  0  0  0  3  0  0  0  0  0  0
  182.6780  178.7480  141.6600 C   0  0  0  0  0  3  0  0  0  0  0  0
  183.3640  178.6340  143.9770 C   0  0  0  0  0  3  0  0  0  0  0  0
  182.3650  178.8240  143.0200 C   0  0  0  0  0  0  0  0  0  0  0  0
  186.9700  177.7080  144.3030 C   0  0  0  0  0  3  0  0  0  0  0  0
  187.6280  177.6710  145.5080 C   0  0  0  0  0  0  0  0  0  0  0  0
  188.8830  177.3180  145.9740 C   0  0  0  0  0  0  0  0  0  0  0  0
  189.9760  176.8380  145.2600 C   0  0  0  0  0  3  0  0  0  0  0  0
  186.7890  178.1040  146.4660 C   0  0  0  0  0  0  0  0  0  0  0  0
  187.4990  178.0990  147.9980 S   0  0  0  0  0  0  0  0  0  0  0  0
  190.0980  177.2270  148.0410 N   0  0  0  0  0  0  0  0  0  0  0  0
  185.5820  178.4240  145.9000 C   0  0  0  0  0  3  0  0  0  0  0  0
  191.1480  176.5510  145.9780 C   0  0  0  0  0  3  0  0  0  0  0  0
  191.1910  176.7530  147.3730 C   0  0  0  0  0  0  0  0  0  0  0  0
  185.7140  178.1720  144.5670 N   0  0  0  0  0  0  0  0  0  0  0  0
  188.9620  177.5040  147.3530 C   0  0  0  0  0  0  0  0  0  0  0  0
  192.3940  176.4570  148.0980 C   0  0  0  0  0  0  0  0  0  0  0  0
  193.3640  176.2190  148.6810 N   0  0  0  0  0  0  0  0  0  0  0  0
  185.8250  178.8310  137.9590 O   0  0  0  0  0  0  0  0  0  0  0  0
  186.9350  178.0040  137.7100 C   0  0  2  0  0  3  0  0  0  0  0  0
  187.8000  178.0050  138.9580 C   0  0  0  0  0  2  0  0  0  0  0  0
  185.6240  178.7060  139.2960 N   0  0  0  0  0  0  0  0  0  0  0  0
  183.3910  178.1400  138.9810 O   0  0  0  0  0  0  0  0  0  0  0  0
  184.3080  178.4220  139.7990 C   0  0  0  0  0  0  0  0  0  0  0  0
  186.8150  178.3480  140.0360 C   0  0  0  0  0  2  0  0  0  0  0  0
  188.0150  177.4400  135.6360 O   0  0  0  0  0  1  0  0  0  0  0  0
  189.0180  179.1500  136.9550 C   0  0  0  0  0  1  0  0  0  0  0  0
  187.7270  178.4960  136.5040 C   0  0  2  0  0  3  0  0  0  0  0  0
  179.8870  179.3310  143.7790 C   0  0  0  0  0  3  0  0  0  0  0  0
  181.0180  179.1000  143.4330 C   0  0  0  0  0  0  0  0  0  0  0  0
  1  4  2  0  0  0  0
  1  3  1  0  0  0  0
  2  5  1  0  0  0  0
  2 17  1  0  0  0  0
  3  2  2  0  0  0  0
  4  6  1  0  0  0  0
  6 32  1  0  0  0  0
  6  5  2  0  0  0  0
  7 17  1  0  0  0  0
  7  8  2  0  0  0  0
  8  9  1  0  0  0  0
  8 11  1  0  0  0  0
  9 18  1  0  0  0  0
 10  9  2  0  0  0  0
 10 15  1  0  0  0  0
 11 12  1  0  0  0  0
 14 11  2  0  0  0  0
 15 16  2  0  0  0  0
 16 13  1  0  0  0  0
 16 19  1  0  0  0  0
 17 14  1  0  0  0  0
 18 12  1  0  0  0  0
 18 13  2  0  0  0  0
 19 20  3  0  0  0  0
 21 24  1  0  0  0  0
 22 30  1  6  0  0  0
 22 21  1  0  0  0  0
 22 23  1  0  0  0  0
 23 27  1  0  0  0  0
 24 26  1  0  0  0  0
 24 27  1  0  0  0  0
 25 26  2  0  0  0  0
 26  1  1  0  0  0  0
 28 30  1  0  0  0  0
 30 29  1  1  0  0  0
 32 31  3  0  0  0  0
M  END
>  <MODEL>
2

>  <REMARK>
 VINA RESULT:      -9.0      1.701      2.061
  Name = 
  5 active torsions:
  status: ('A' for Active; 'I' for Inactive)
    1  A    between atoms: C_2  and  C_29
    2  A    between atoms: C_10  and  C_11
    3  A    between atoms: C_17  and  N_31
    4  A    between atoms: C_22  and  C_30
    5  A    between atoms: C_27  and  C_28
                            x       y       z     vdW  Elec       q    Type
                         _______ _______ _______ _____ _____    ______ ____

>  <TORSDO>
F 5

$$$$
=
 OpenBabel11042413113D

 32 36  0  0  1  0  0  0  0  0999 V2000
  185.5200  178.4710  144.8690 C   0  0  0  0  0  0  0  0  0  0  0  0
  187.7090  177.9250  143.9330 C   0  0  0  0  0  0  0  0  0  0  0  0
  186.3560  178.2560  143.7640 C   0  0  0  0  0  3  0  0  0  0  0  0
  186.0600  178.3680  146.1580 C   0  0  0  0  0  3  0  0  0  0  0  0
  188.2270  177.8200  145.2330 C   0  0  0  0  0  3  0  0  0  0  0  0
  187.4060  178.0410  146.3410 C   0  0  0  0  0  0  0  0  0  0  0  0
  188.1050  177.4240  141.5310 C   0  0  0  0  0  3  0  0  0  0  0  0
  189.2240  177.2780  140.7490 C   0  0  0  0  0  0  0  0  0  0  0  0
  189.5130  177.0010  139.4240 C   0  0  0  0  0  0  0  0  0  0  0  0
  188.6360  176.7610  138.3710 C   0  0  0  0  0  3  0  0  0  0  0  0
  190.3110  177.4630  141.5200 C   0  0  0  0  0  0  0  0  0  0  0  0
  191.7520  177.3050  140.6550 S   0  0  0  0  0  0  0  0  0  0  0  0
  191.4210  176.7330  137.9940 N   0  0  0  0  0  0  0  0  0  0  0  0
  189.9150  177.7280  142.8050 C   0  0  0  0  0  3  0  0  0  0  0  0
  189.1910  176.5020  137.1070 C   0  0  0  0  0  3  0  0  0  0  0  0
  190.5910  176.4920  136.9360 C   0  0  0  0  0  0  0  0  0  0  0  0
  188.5520  177.6990  142.7910 N   0  0  0  0  0  0  0  0  0  0  0  0
  190.8910  176.9830  139.2170 C   0  0  0  0  0  0  0  0  0  0  0  0
  191.1470  176.2260  135.6410 C   0  0  0  0  0  0  0  0  0  0  0  0
  191.5950  176.0120  134.5960 N   0  0  0  0  0  0  0  0  0  0  0  0
  182.2880  179.6640  143.3120 O   0  0  0  0  0  0  0  0  0  0  0  0
  181.6660  178.8590  142.3410 C   0  0  2  0  0  3  0  0  0  0  0  0
  182.7380  178.3920  141.3710 C   0  0  0  0  0  2  0  0  0  0  0  0
  183.5410  179.1470  143.4030 N   0  0  0  0  0  0  0  0  0  0  0  0
  183.3530  178.9130  145.7090 O   0  0  0  0  0  0  0  0  0  0  0  0
  184.0960  178.8410  144.6920 C   0  0  0  0  0  0  0  0  0  0  0  0
  183.9840  178.4700  142.2030 C   0  0  0  0  0  2  0  0  0  0  0  0
  180.0640  180.6530  142.4090 O   0  0  0  0  0  1  0  0  0  0  0  0
  179.4500  178.6910  141.2070 C   0  0  0  0  0  1  0  0  0  0  0  0
  180.5730  179.6280  141.6070 C   0  0  2  0  0  3  0  0  0  0  0  0
  188.3990  177.8450  148.7800 C   0  0  0  0  0  3  0  0  0  0  0  0
  187.9460  177.9340  147.6670 C   0  0  0  0  0  0  0  0  0  0  0  0
  1  4  1  0  0  0  0
  2  5  2  0  0  0  0
  3  2  1  0  0  0  0
  3  1  2  0  0  0  0
  4  6  2  0  0  0  0
  5  6  1  0  0  0  0
  6 32  1  0  0  0  0
  7 17  1  0  0  0  0
  8 11  1  0  0  0  0
  8  7  2  0  0  0  0
  9  8  1  0  0  0  0
 10  9  2  0  0  0  0
 11 14  2  0  0  0  0
 12 11  1  0  0  0  0
 13 18  2  0  0  0  0
 15 10  1  0  0  0  0
 16 15  2  0  0  0  0
 16 13  1  0  0  0  0
 17 14  1  0  0  0  0
 17  2  1  0  0  0  0
 18  9  1  0  0  0  0
 18 12  1  0  0  0  0
 19 16  1  0  0  0  0
 20 19  3  0  0  0  0
 21 24  1  0  0  0  0
 22 30  1  6  0  0  0
 22 21  1  0  0  0  0
 23 27  1  0  0  0  0
 23 22  1  0  0  0  0
 24 26  1  0  0  0  0
 26  1  1  0  0  0  0
 26 25  2  0  0  0  0
 27 24  1  0  0  0  0
 30 29  1  1  0  0  0
 30 28  1  0  0  0  0
 32 31  3  0  0  0  0
M  END
>  <MODEL>
3

>  <REMARK>
 VINA RESULT:      -8.8      4.142      7.297
  Name = 
  5 active torsions:
  status: ('A' for Active; 'I' for Inactive)
    1  A    between atoms: C_2  and  C_29
    2  A    between atoms: C_10  and  C_11
    3  A    between atoms: C_17  and  N_31
    4  A    between atoms: C_22  and  C_30
    5  A    between atoms: C_27  and  C_28
                            x       y       z     vdW  Elec       q    Type
                         _______ _______ _______ _____ _____    ______ ____

>  <TORSDO>
F 5

$$$$
=
 OpenBabel11042413113D

 32 36  0  0  1  0  0  0  0  0999 V2000
  185.6130  178.4430  144.6940 C   0  0  0  0  0  0  0  0  0  0  0  0
  187.6580  177.8540  143.4960 C   0  0  0  0  0  0  0  0  0  0  0  0
  186.3100  178.2420  143.4940 C   0  0  0  0  0  3  0  0  0  0  0  0
  186.2890  178.2670  145.9090 C   0  0  0  0  0  3  0  0  0  0  0  0
  188.3130  177.6760  144.7230 C   0  0  0  0  0  3  0  0  0  0  0  0
  187.6320  177.8820  145.9250 C   0  0  0  0  0  0  0  0  0  0  0  0
  189.7100  177.5060  142.1360 C   0  0  0  0  0  3  0  0  0  0  0  0
  189.9600  177.3250  140.7990 C   0  0  0  0  0  0  0  0  0  0  0  0
  191.0630  177.1290  139.9850 C   0  0  0  0  0  0  0  0  0  0  0  0
  192.4060  177.0500  140.3390 C   0  0  0  0  0  3  0  0  0  0  0  0
  188.7890  177.3520  140.1380 C   0  0  0  0  0  0  0  0  0  0  0  0
  188.9800  177.1370  138.4740 S   0  0  0  0  0  0  0  0  0  0  0  0
  191.5780  176.8070  137.6640 N   0  0  0  0  0  0  0  0  0  0  0  0
  187.7680  177.5500  141.0320 C   0  0  0  0  0  3  0  0  0  0  0  0
  193.3390  176.8450  139.3110 C   0  0  0  0  0  3  0  0  0  0  0  0
  192.9060  176.7240  137.9740 C   0  0  0  0  0  0  0  0  0  0  0  0
  188.3570  177.6430  142.2580 N   0  0  0  0  0  0  0  0  0  0  0  0
  190.6720  177.0060  138.6530 C   0  0  0  0  0  0  0  0  0  0  0  0
  193.8680  176.5140  136.9300 C   0  0  0  0  0  0  0  0  0  0  0  0
  194.6450  176.3460  136.0890 N   0  0  0  0  0  0  0  0  0  0  0  0
  182.2560  179.7440  143.5380 O   0  0  0  0  0  0  0  0  0  0  0  0
  181.4780  178.9440  142.6820 C   0  0  2  0  0  3  0  0  0  0  0  0
  182.3920  178.4060  141.5950 C   0  0  0  0  0  2  0  0  0  0  0  0
  183.4870  179.1720  143.4800 N   0  0  0  0  0  0  0  0  0  0  0  0
  183.5960  179.0030  145.7960 O   0  0  0  0  0  0  0  0  0  0  0  0
  184.1950  178.8730  144.6940 C   0  0  0  0  0  0  0  0  0  0  0  0
  183.7390  178.4470  142.2530 C   0  0  0  0  0  2  0  0  0  0  0  0
  180.0550  180.8780  142.8440 O   0  0  0  0  0  1  0  0  0  0  0  0
  179.0870  178.8840  141.9750 C   0  0  0  0  0  1  0  0  0  0  0  0
  180.3310  179.7440  142.0750 C   0  0  2  0  0  3  0  0  0  0  0  0
  188.8830  177.5490  148.2270 C   0  0  0  0  0  3  0  0  0  0  0  0
  188.3120  177.7010  147.1760 C   0  0  0  0  0  0  0  0  0  0  0  0
  1  4  1  0  0  0  0
  2  5  2  0  0  0  0
  3  2  1  0  0  0  0
  3  1  2  0  0  0  0
  4  6  2  0  0  0  0
  5  6  1  0  0  0  0
  6 32  1  0  0  0  0
  7 17  1  0  0  0  0
  8  7  2  0  0  0  0
  9 10  1  0  0  0  0
  9  8  1  0  0  0  0
 11  8  1  0  0  0  0
 11 14  2  0  0  0  0
 12 18  1  0  0  0  0
 12 11  1  0  0  0  0
 13 16  2  0  0  0  0
 13 18  1  0  0  0  0
 14 17  1  0  0  0  0
 15 10  2  0  0  0  0
 16 15  1  0  0  0  0
 17  2  1  0  0  0  0
 18  9  2  0  0  0  0
 19 16  1  0  0  0  0
 20 19  3  0  0  0  0
 22 30  1  6  0  0  0
 22 21  1  0  0  0  0
 23 27  1  0  0  0  0
 23 22  1  0  0  0  0
 24 21  1  0  0  0  0
 24 26  1  0  0  0  0
 26  1  1  0  0  0  0
 26 25  2  0  0  0  0
 27 24  1  0  0  0  0
 30 29  1  1  0  0  0
 30 28  1  0  0  0  0
 32 31  3  0  0  0  0
M  END
>  <MODEL>
4

>  <REMARK>
 VINA RESULT:      -8.7      4.801      7.225
  Name = 
  5 active torsions:
  status: ('A' for Active; 'I' for Inactive)
    1  A    between atoms: C_2  and  C_29
    2  A    between atoms: C_10  and  C_11
    3  A    between atoms: C_17  and  N_31
    4  A    between atoms: C_22  and  C_30
    5  A    between atoms: C_27  and  C_28
                            x       y       z     vdW  Elec       q    Type
                         _______ _______ _______ _____ _____    ______ ____

>  <TORSDO>
F 5

$$$$
=
 OpenBabel11042413113D

 32 36  0  0  1  0  0  0  0  0999 V2000
  187.0520  177.9300  144.9550 C   0  0  0  0  0  0  0  0  0  0  0  0
  186.9460  177.9710  142.5160 C   0  0  0  0  0  0  0  0  0  0  0  0
  187.6670  177.7830  143.7040 C   0  0  0  0  0  3  0  0  0  0  0  0
  185.6890  178.2530  145.0080 C   0  0  0  0  0  3  0  0  0  0  0  0
  185.5850  178.3010  142.5910 C   0  0  0  0  0  3  0  0  0  0  0  0
  184.9580  178.4410  143.8310 C   0  0  0  0  0  0  0  0  0  0  0  0
  188.8080  177.2390  141.0420 C   0  0  0  0  0  3  0  0  0  0  0  0
  189.0540  177.3080  139.6930 C   0  0  0  0  0  0  0  0  0  0  0  0
  190.0570  176.9270  138.8180 C   0  0  0  0  0  0  0  0  0  0  0  0
  191.2580  176.2810  139.0940 C   0  0  0  0  0  3  0  0  0  0  0  0
  188.0120  177.9190  139.1000 C   0  0  0  0  0  0  0  0  0  0  0  0
  188.2090  178.0590  137.4290 S   0  0  0  0  0  0  0  0  0  0  0  0
  190.5550  177.0110  136.4720 N   0  0  0  0  0  0  0  0  0  0  0  0
  187.0820  178.2530  140.0510 C   0  0  0  0  0  3  0  0  0  0  0  0
  192.1120  176.0050  138.0150 C   0  0  0  0  0  3  0  0  0  0  0  0
  191.7430  176.3780  136.7060 C   0  0  0  0  0  0  0  0  0  0  0  0
  187.5920  177.8260  141.2400 N   0  0  0  0  0  0  0  0  0  0  0  0
  189.7260  177.2810  137.5110 C   0  0  0  0  0  0  0  0  0  0  0  0
  192.6240  176.0910  135.6100 C   0  0  0  0  0  0  0  0  0  0  0  0
  193.3330  175.8590  134.7250 N   0  0  0  0  0  0  0  0  0  0  0  0
  189.6250  176.6740  147.4240 O   0  0  0  0  0  0  0  0  0  0  0  0
  190.9510  177.1280  147.3110 C   0  0  2  0  0  3  0  0  0  0  0  0
  191.3430  177.0500  145.8450 C   0  0  0  0  0  2  0  0  0  0  0  0
  189.0650  177.0170  146.2360 N   0  0  0  0  0  0  0  0  0  0  0  0
  187.3190  178.1260  147.2980 O   0  0  0  0  0  0  0  0  0  0  0  0
  187.8060  177.7110  146.2110 C   0  0  0  0  0  0  0  0  0  0  0  0
  190.0160  177.1280  145.1500 C   0  0  0  0  0  2  0  0  0  0  0  0
  192.8050  177.1040  148.8430 O   0  0  0  0  0  1  0  0  0  0  0  0
  192.6450  175.2970  147.3020 C   0  0  0  0  0  1  0  0  0  0  0  0
  191.8940  176.2900  148.1670 C   0  0  2  0  0  3  0  0  0  0  0  0
  182.3930  179.0560  143.9540 C   0  0  0  0  0  3  0  0  0  0  0  0
  183.5640  178.7760  143.8980 C   0  0  0  0  0  0  0  0  0  0  0  0
  1  4  1  0  0  0  0
  1 26  1  0  0  0  0
  2  5  2  0  0  0  0
  2  3  1  0  0  0  0
  3  1  2  0  0  0  0
  5  6  1  0  0  0  0
  6 32  1  0  0  0  0
  6  4  2  0  0  0  0
  7 17  1  0  0  0  0
  8  7  2  0  0  0  0
  9 10  1  0  0  0  0
  9  8  1  0  0  0  0
 11  8  1  0  0  0  0
 11 14  2  0  0  0  0
 12 18  1  0  0  0  0
 12 11  1  0  0  0  0
 13 16  2  0  0  0  0
 13 18  1  0  0  0  0
 14 17  1  0  0  0  0
 15 10  2  0  0  0  0
 16 15  1  0  0  0  0
 17  2  1  0  0  0  0
 18  9  2  0  0  0  0
 19 16  1  0  0  0  0
 20 19  3  0  0  0  0
 22 21  1  0  0  0  0
 22 30  1  1  0  0  0
 23 22  1  0  0  0  0
 24 21  1  0  0  0  0
 26 24  1  0  0  0  0
 26 25  2  0  0  0  0
 27 23  1  0  0  0  0
 27 24  1  0  0  0  0
 30 29  1  6  0  0  0
 30 28  1  0  0  0  0
 32 31  3  0  0  0  0
M  END
>  <MODEL>
5

>  <REMARK>
 VINA RESULT:      -8.6      5.495      9.012
  Name = 
  5 active torsions:
  status: ('A' for Active; 'I' for Inactive)
    1  A    between atoms: C_2  and  C_29
    2  A    between atoms: C_10  and  C_11
    3  A    between atoms: C_17  and  N_31
    4  A    between atoms: C_22  and  C_30
    5  A    between atoms: C_27  and  C_28
                            x       y       z     vdW  Elec       q    Type
                         _______ _______ _______ _____ _____    ______ ____

>  <TORSDO>
F 5

$$$$
=
 OpenBabel11042413113D

 32 36  0  0  1  0  0  0  0  0999 V2000
  182.1500  178.9520  140.3900 C   0  0  0  0  0  0  0  0  0  0  0  0
  183.6840  178.5550  142.2490 C   0  0  0  0  0  0  0  0  0  0  0  0
  183.4440  178.7140  140.8760 C   0  0  0  0  0  3  0  0  0  0  0  0
  181.0900  179.0480  141.3020 C   0  0  0  0  0  3  0  0  0  0  0  0
  182.6070  178.6480  143.1430 C   0  0  0  0  0  3  0  0  0  0  0  0
  181.3160  178.8940  142.6720 C   0  0  0  0  0  0  0  0  0  0  0  0
  185.3440  178.0850  144.0380 C   0  0  0  0  0  3  0  0  0  0  0  0
  186.7030  177.8880  144.0650 C   0  0  0  0  0  0  0  0  0  0  0  0
  187.6770  177.6270  145.0130 C   0  0  0  0  0  0  0  0  0  0  0  0
  187.5370  177.4690  146.3880 C   0  0  0  0  0  3  0  0  0  0  0  0
  187.1720  177.9840  142.8080 C   0  0  0  0  0  0  0  0  0  0  0  0
  188.8430  177.7580  142.7230 S   0  0  0  0  0  0  0  0  0  0  0  0
  190.0470  177.2740  145.1380 N   0  0  0  0  0  0  0  0  0  0  0  0
  186.1320  178.2440  141.9540 C   0  0  0  0  0  3  0  0  0  0  0  0
  188.6970  177.2070  147.1350 C   0  0  0  0  0  3  0  0  0  0  0  0
  189.9480  177.1120  146.4910 C   0  0  0  0  0  0  0  0  0  0  0  0
  185.0140  178.3020  142.7320 N   0  0  0  0  0  0  0  0  0  0  0  0
  188.9300  177.5270  144.4110 C   0  0  0  0  0  0  0  0  0  0  0  0
  191.1270  176.8450  147.2640 C   0  0  0  0  0  0  0  0  0  0  0  0
  192.0780  176.6300  147.8870 N   0  0  0  0  0  0  0  0  0  0  0  0
  180.6380  180.1400  137.1350 O   0  0  0  0  0  0  0  0  0  0  0  0
  180.8180  181.4810  136.7540 C   0  0  2  0  0  3  0  0  0  0  0  0
  180.5430  182.3490  137.9700 C   0  0  0  0  0  2  0  0  0  0  0  0
  180.9810  180.1300  138.4490 N   0  0  0  0  0  0  0  0  0  0  0  0
  182.4890  178.3930  138.1170 O   0  0  0  0  0  0  0  0  0  0  0  0
  181.8980  179.1400  138.9420 C   0  0  0  0  0  0  0  0  0  0  0  0
  180.8140  181.4090  139.1080 C   0  0  0  0  0  2  0  0  0  0  0  0
  179.8780  180.8530  134.6310 O   0  0  0  0  0  1  0  0  0  0  0  0
  180.3310  183.1640  134.9790 C   0  0  0  0  0  1  0  0  0  0  0  0
  179.8900  181.8550  135.6030 C   0  0  2  0  0  3  0  0  0  0  0  0
  179.3020  179.0720  144.3710 C   0  0  0  0  0  3  0  0  0  0  0  0
  180.2210  178.9910  143.5950 C   0  0  0  0  0  0  0  0  0  0  0  0
  1  3  2  0  0  0  0
  1  4  1  0  0  0  0
  2 17  1  0  0  0  0
  2  5  2  0  0  0  0
  3  2  1  0  0  0  0
  4  6  2  0  0  0  0
  6  5  1  0  0  0  0
  6 32  1  0  0  0  0
  7  8  2  0  0  0  0
  8  9  1  0  0  0  0
  9 10  1  0  0  0  0
 10 15  2  0  0  0  0
 11  8  1  0  0  0  0
 12 11  1  0  0  0  0
 12 18  1  0  0  0  0
 13 16  2  0  0  0  0
 14 17  1  0  0  0  0
 14 11  2  0  0  0  0
 16 15  1  0  0  0  0
 16 19  1  0  0  0  0
 17  7  1  0  0  0  0
 18  9  2  0  0  0  0
 18 13  1  0  0  0  0
 19 20  3  0  0  0  0
 21 24  1  0  0  0  0
 22 30  1  6  0  0  0
 22 21  1  0  0  0  0
 22 23  1  0  0  0  0
 23 27  1  0  0  0  0
 24 26  1  0  0  0  0
 24 27  1  0  0  0  0
 25 26  2  0  0  0  0
 26  1  1  0  0  0  0
 28 30  1  0  0  0  0
 30 29  1  6  0  0  0
 32 31  3  0  0  0  0
M  END
>  <MODEL>
6

>  <REMARK>
 VINA RESULT:      -8.6      2.967      3.554
  Name = 
  5 active torsions:
  status: ('A' for Active; 'I' for Inactive)
    1  A    between atoms: C_2  and  C_29
    2  A    between atoms: C_10  and  C_11
    3  A    between atoms: C_17  and  N_31
    4  A    between atoms: C_22  and  C_30
    5  A    between atoms: C_27  and  C_28
                            x       y       z     vdW  Elec       q    Type
                         _______ _______ _______ _____ _____    ______ ____

>  <TORSDO>
F 5

$$$$
=
 OpenBabel11042413113D

 32 36  0  0  1  0  0  0  0  0999 V2000
  188.9690  177.2100  143.9750 C   0  0  0  0  0  0  0  0  0  0  0  0
  186.6340  177.9000  144.1660 C   0  0  0  0  0  0  0  0  0  0  0  0
  187.7310  177.5030  143.3860 C   0  0  0  0  0  3  0  0  0  0  0  0
  189.0980  177.3020  145.3680 C   0  0  0  0  0  3  0  0  0  0  0  0
  186.7870  177.9940  145.5570 C   0  0  0  0  0  3  0  0  0  0  0  0
  188.0130  177.6950  146.1560 C   0  0  0  0  0  0  0  0  0  0  0  0
  185.1760  178.3530  142.2060 C   0  0  0  0  0  3  0  0  0  0  0  0
  183.8430  178.6390  142.0420 C   0  0  0  0  0  0  0  0  0  0  0  0
  182.9770  178.9000  140.9930 C   0  0  0  0  0  0  0  0  0  0  0  0
  183.2490  178.9540  139.6300 C   0  0  0  0  0  3  0  0  0  0  0  0
  183.2590  178.6600  143.2530 C   0  0  0  0  0  0  0  0  0  0  0  0
  181.6080  179.0040  143.1690 S   0  0  0  0  0  0  0  0  0  0  0  0
  180.6600  179.4020  140.6280 N   0  0  0  0  0  0  0  0  0  0  0  0
  184.1990  178.3920  144.2140 C   0  0  0  0  0  3  0  0  0  0  0  0
  182.1810  179.2420  138.7640 C   0  0  0  0  0  3  0  0  0  0  0  0
  180.8880  179.4630  139.2830 C   0  0  0  0  0  0  0  0  0  0  0  0
  185.3730  178.2070  143.5480 N   0  0  0  0  0  0  0  0  0  0  0  0
  181.6870  179.1250  141.4690 C   0  0  0  0  0  0  0  0  0  0  0  0
  179.8040  179.7570  138.3890 C   0  0  0  0  0  0  0  0  0  0  0  0
  178.9310  179.9940  137.6680 N   0  0  0  0  0  0  0  0  0  0  0  0
  191.0620  176.0880  141.0330 O   0  0  0  0  0  0  0  0  0  0  0  0
  191.3500  177.0130  140.0140 C   0  0  2  0  0  3  0  0  0  0  0  0
  190.0610  177.7420  139.6740 C   0  0  0  0  0  2  0  0  0  0  0  0
  190.0510  176.6750  141.7240 N   0  0  0  0  0  0  0  0  0  0  0  0
  191.1950  176.4440  143.7350 O   0  0  0  0  0  0  0  0  0  0  0  0
  190.1230  176.7690  143.1560 C   0  0  0  0  0  0  0  0  0  0  0  0
  189.2660  177.6030  140.9380 C   0  0  0  0  0  2  0  0  0  0  0  0
  193.1710  176.8370  138.4510 O   0  0  0  0  0  1  0  0  0  0  0  0
  190.9740  176.4770  137.6070 C   0  0  0  0  0  1  0  0  0  0  0  0
  191.9180  176.3160  138.7830 C   0  0  2  0  0  3  0  0  0  0  0  0
  188.2800  177.8700  148.7780 C   0  0  0  0  0  3  0  0  0  0  0  0
  188.1580  177.7900  147.5810 C   0  0  0  0  0  0  0  0  0  0  0  0
  1  4  1  0  0  0  0
  2  5  2  0  0  0  0
  3  1  2  0  0  0  0
  3  2  1  0  0  0  0
  4  6  2  0  0  0  0
  5  6  1  0  0  0  0
  6 32  1  0  0  0  0
  7 17  1  0  0  0  0
  8  7  2  0  0  0  0
  8 11  1  0  0  0  0
  9 18  1  0  0  0  0
  9  8  1  0  0  0  0
 10  9  2  0  0  0  0
 11 14  2  0  0  0  0
 12 11  1  0  0  0  0
 13 18  2  0  0  0  0
 15 16  2  0  0  0  0
 15 10  1  0  0  0  0
 16 13  1  0  0  0  0
 17  2  1  0  0  0  0
 17 14  1  0  0  0  0
 18 12  1  0  0  0  0
 19 16  1  0  0  0  0
 20 19  3  0  0  0  0
 21 24  1  0  0  0  0
 22 30  1  6  0  0  0
 22 21  1  0  0  0  0
 23 22  1  0  0  0  0
 23 27  1  0  0  0  0
 24 26  1  0  0  0  0
 26 25  2  0  0  0  0
 26  1  1  0  0  0  0
 27 24  1  0  0  0  0
 28 30  1  0  0  0  0
 30 29  1  6  0  0  0
 32 31  3  0  0  0  0
M  END
>  <MODEL>
7

>  <REMARK>
 VINA RESULT:      -8.6      4.148      8.525
  Name = 
  5 active torsions:
  status: ('A' for Active; 'I' for Inactive)
    1  A    between atoms: C_2  and  C_29
    2  A    between atoms: C_10  and  C_11
    3  A    between atoms: C_17  and  N_31
    4  A    between atoms: C_22  and  C_30
    5  A    between atoms: C_27  and  C_28
                            x       y       z     vdW  Elec       q    Type
                         _______ _______ _______ _____ _____    ______ ____

>  <TORSDO>
F 5

$$$$
=
 OpenBabel11042413113D

 32 36  0  0  1  0  0  0  0  0999 V2000
  190.8490  177.1200  142.5930 C   0  0  0  0  0  0  0  0  0  0  0  0
  188.8230  177.4710  143.9110 C   0  0  0  0  0  0  0  0  0  0  0  0
  189.4940  177.4680  142.6790 C   0  0  0  0  0  3  0  0  0  0  0  0
  191.5310  176.7540  143.7620 C   0  0  0  0  0  3  0  0  0  0  0  0
  189.5270  177.1090  145.0690 C   0  0  0  0  0  3  0  0  0  0  0  0
  190.8750  176.7500  144.9950 C   0  0  0  0  0  0  0  0  0  0  0  0
  186.5700  177.8410  142.9300 C   0  0  0  0  0  3  0  0  0  0  0  0
  185.3580  178.2520  143.4280 C   0  0  0  0  0  0  0  0  0  0  0  0
  184.0810  178.4780  142.9440 C   0  0  0  0  0  0  0  0  0  0  0  0
  183.6010  178.3340  141.6460 C   0  0  0  0  0  3  0  0  0  0  0  0
  185.4950  178.4880  144.7450 C   0  0  0  0  0  0  0  0  0  0  0  0
  184.0570  179.0030  145.4630 S   0  0  0  0  0  0  0  0  0  0  0  0
  181.9320  179.1900  143.7400 N   0  0  0  0  0  0  0  0  0  0  0  0
  186.7900  178.2350  145.1180 C   0  0  0  0  0  3  0  0  0  0  0  0
  182.2480  178.6310  141.4160 C   0  0  0  0  0  3  0  0  0  0  0  0
  181.4250  179.0590  142.4780 C   0  0  0  0  0  0  0  0  0  0  0  0
  187.4360  177.8380  143.9850 N   0  0  0  0  0  0  0  0  0  0  0  0
  183.2380  178.9040  143.9690 C   0  0  0  0  0  0  0  0  0  0  0  0
  180.0440  179.3610  142.2310 C   0  0  0  0  0  0  0  0  0  0  0  0
  178.9310  179.6040  142.0320 N   0  0  0  0  0  0  0  0  0  0  0  0
  191.6760  176.4110  138.9720 O   0  0  0  0  0  0  0  0  0  0  0  0
  190.9180  177.0410  137.9690 C   0  0  2  0  0  3  0  0  0  0  0  0
  189.4530  176.9200  138.3520 C   0  0  0  0  0  2  0  0  0  0  0  0
  190.9330  176.5910  140.0950 N   0  0  0  0  0  0  0  0  0  0  0  0
  192.7430  177.5090  141.2300 O   0  0  0  0  0  0  0  0  0  0  0  0
  191.5540  177.0950  141.2900 C   0  0  0  0  0  0  0  0  0  0  0  0
  189.5190  176.7620  139.8420 C   0  0  0  0  0  2  0  0  0  0  0  0
  190.1700  176.7540  135.7000 O   0  0  0  0  0  1  0  0  0  0  0  0
  191.2390  174.8960  136.7360 C   0  0  0  0  0  1  0  0  0  0  0  0
  191.1740  176.4050  136.6070 C   0  0  2  0  0  3  0  0  0  0  0  0
  192.1820  176.0650  147.1850 C   0  0  0  0  0  3  0  0  0  0  0  0
  191.5860  176.3780  146.1860 C   0  0  0  0  0  0  0  0  0  0  0  0
  1  3  2  0  0  0  0
  1  4  1  0  0  0  0
  2 17  1  0  0  0  0
  2  5  2  0  0  0  0
  3  2  1  0  0  0  0
  4  6  2  0  0  0  0
  6  5  1  0  0  0  0
  6 32  1  0  0  0  0
  7  8  2  0  0  0  0
  7 17  1  0  0  0  0
  8 11  1  0  0  0  0
  9  8  1  0  0  0  0
  9 18  1  0  0  0  0
 10  9  2  0  0  0  0
 11 14  2  0  0  0  0
 11 12  1  0  0  0  0
 13 18  2  0  0  0  0
 15 10  1  0  0  0  0
 15 16  2  0  0  0  0
 16 13  1  0  0  0  0
 17 14  1  0  0  0  0
 18 12  1  0  0  0  0
 19 16  1  0  0  0  0
 20 19  3  0  0  0  0
 21 24  1  0  0  0  0
 22 30  1  6  0  0  0
 22 23  1  0  0  0  0
 22 21  1  0  0  0  0
 23 27  1  0  0  0  0
 24 26  1  0  0  0  0
 25 26  2  0  0  0  0
 26  1  1  0  0  0  0
 27 24  1  0  0  0  0
 28 30  1  0  0  0  0
 30 29  1  1  0  0  0
 32 31  3  0  0  0  0
M  END
>  <MODEL>
8

>  <REMARK>
 VINA RESULT:      -8.4      3.986      8.043
  Name = 
  5 active torsions:
  status: ('A' for Active; 'I' for Inactive)
    1  A    between atoms: C_2  and  C_29
    2  A    between atoms: C_10  and  C_11
    3  A    between atoms: C_17  and  N_31
    4  A    between atoms: C_22  and  C_30
    5  A    between atoms: C_27  and  C_28
                            x       y       z     vdW  Elec       q    Type
                         _______ _______ _______ _____ _____    ______ ____

>  <TORSDO>
F 5

$$$$
=
 OpenBabel11042413113D

 32 36  0  0  1  0  0  0  0  0999 V2000
  191.8150  176.2380  136.9860 C   0  0  0  0  0  0  0  0  0  0  0  0
  190.5380  176.6670  139.0230 C   0  0  0  0  0  0  0  0  0  0  0  0
  191.7650  176.5150  138.3600 C   0  0  0  0  0  3  0  0  0  0  0  0
  190.6150  176.1310  136.2700 C   0  0  0  0  0  3  0  0  0  0  0  0
  189.3490  176.5480  138.2890 C   0  0  0  0  0  3  0  0  0  0  0  0
  189.3860  176.2830  136.9180 C   0  0  0  0  0  0  0  0  0  0  0  0
  189.4040  176.7950  141.2310 C   0  0  0  0  0  3  0  0  0  0  0  0
  189.7950  177.1600  142.4950 C   0  0  0  0  0  0  0  0  0  0  0  0
  189.2220  177.2550  143.7520 C   0  0  0  0  0  0  0  0  0  0  0  0
  187.9170  176.9700  144.1410 C   0  0  0  0  0  3  0  0  0  0  0  0
  191.0920  177.5140  142.4550 C   0  0  0  0  0  0  0  0  0  0  0  0
  191.6800  177.9840  143.9660 S   0  0  0  0  0  0  0  0  0  0  0  0
  189.8310  177.8780  145.9880 N   0  0  0  0  0  0  0  0  0  0  0  0
  191.5570  177.3850  141.1720 C   0  0  0  0  0  3  0  0  0  0  0  0
  187.5860  177.1520  145.4930 C   0  0  0  0  0  3  0  0  0  0  0  0
  188.5590  177.6070  146.4060 C   0  0  0  0  0  0  0  0  0  0  0  0
  190.5020  176.9420  140.4330 N   0  0  0  0  0  0  0  0  0  0  0  0
  190.1570  177.7040  144.6830 C   0  0  0  0  0  0  0  0  0  0  0  0
  188.2100  177.7900  147.7860 C   0  0  0  0  0  0  0  0  0  0  0  0
  187.9290  177.9370  148.8980 N   0  0  0  0  0  0  0  0  0  0  0  0
  195.5040  175.7500  136.3150 O   0  0  0  0  0  0  0  0  0  0  0  0
  196.0700  174.4810  136.5290 C   0  0  2  0  0  3  0  0  0  0  0  0
  195.5640  173.9680  137.8660 C   0  0  0  0  0  2  0  0  0  0  0  0
  194.3080  175.6810  136.9550 N   0  0  0  0  0  0  0  0  0  0  0  0
  193.1690  176.3760  135.0510 O   0  0  0  0  0  0  0  0  0  0  0  0
  193.1100  176.0980  136.2790 C   0  0  0  0  0  0  0  0  0  0  0  0
  194.2770  174.7190  138.0360 C   0  0  0  0  0  2  0  0  0  0  0  0
  198.0660  175.2530  137.6260 O   0  0  0  0  0  1  0  0  0  0  0  0
  198.0790  175.2140  135.2460 C   0  0  0  0  0  1  0  0  0  0  0  0
  197.5930  174.5480  136.5170 C   0  0  2  0  0  3  0  0  0  0  0  0
  187.1370  176.0690  135.5520 C   0  0  0  0  0  3  0  0  0  0  0  0
  188.1640  176.1670  136.1760 C   0  0  0  0  0  0  0  0  0  0  0  0
  1  3  1  0  0  0  0
  2 17  1  0  0  0  0
  3  2  2  0  0  0  0
  4  6  1  0  0  0  0
  4  1  2  0  0  0  0
  5  2  1  0  0  0  0
  6  5  2  0  0  0  0
  7  8  2  0  0  0  0
  8  9  1  0  0  0  0
  9 10  2  0  0  0  0
  9 18  1  0  0  0  0
 10 15  1  0  0  0  0
 11  8  1  0  0  0  0
 11 12  1  0  0  0  0
 12 18  1  0  0  0  0
 13 16  1  0  0  0  0
 14 11  2  0  0  0  0
 15 16  2  0  0  0  0
 16 19  1  0  0  0  0
 17 14  1  0  0  0  0
 17  7  1  0  0  0  0
 18 13  2  0  0  0  0
 19 20  3  0  0  0  0
 21 22  1  0  0  0  0
 21 24  1  0  0  0  0
 22 30  1  1  0  0  0
 22 23  1  0  0  0  0
 23 27  1  0  0  0  0
 24 27  1  0  0  0  0
 25 26  2  0  0  0  0
 26 24  1  0  0  0  0
 26  1  1  0  0  0  0
 30 29  1  6  0  0  0
 30 28  1  0  0  0  0
 31 32  3  0  0  0  0
 32  6  1  0  0  0  0
M  END
>  <MODEL>
9

>  <REMARK>
 VINA RESULT:      -8.1      6.859      8.872
  Name = 
  5 active torsions:
  status: ('A' for Active; 'I' for Inactive)
    1  A    between atoms: C_2  and  C_29
    2  A    between atoms: C_10  and  C_11
    3  A    between atoms: C_17  and  N_31
    4  A    between atoms: C_22  and  C_30
    5  A    between atoms: C_27  and  C_28
                            x       y       z     vdW  Elec       q    Type
                         _______ _______ _______ _____ _____    ______ ____

>  <TORSDO>
F 5

$$$$
