=
 OpenBabel11032419283D

 36 38  0  0  1  0  0  0  0  0999 V2000
  191.5460  176.6150  143.4010 C   0  0  0  0  0  2  0  0  0  0  0  0
  190.1670  176.8730  142.8420 C   0  0  0  0  0  0  0  0  0  0  0  0
  191.0710  178.0440  143.1630 C   0  0  0  0  0  2  0  0  0  0  0  0
  190.0390  176.5140  141.3750 C   0  0  0  0  0  2  0  0  0  0  0  0
  190.9310  177.3450  140.5840 N   0  0  0  0  0  2  0  0  0  0  0  0
  188.3280  175.3730  135.4980 N   0  0  0  0  0  1  0  0  0  0  0  0
  188.5610  177.5190  137.6910 C   0  0  1  0  0  3  0  0  0  0  0  0
  190.5080  176.3420  138.3410 C   0  0  0  0  0  0  0  0  0  0  0  0
  189.2040  178.0670  138.9350 C   0  0  0  0  0  0  0  0  0  0  0  0
  188.6490  178.5460  136.5760 C   0  0  0  0  0  1  0  0  0  0  0  0
  191.4350  175.3520  138.3570 N   0  0  0  0  0  0  0  0  0  0  0  0
  188.7120  178.9930  139.6330 O   0  0  0  0  0  0  0  0  0  0  0  0
  189.3930  175.3710  136.4460 C   0  0  0  0  0  0  0  0  0  0  0  0
  189.4900  176.3750  137.4120 C   0  0  0  0  0  0  0  0  0  0  0  0
  190.4130  177.3950  139.2810 N   0  0  0  0  0  0  0  0  0  0  0  0
  190.3190  173.3060  135.4820 N   0  0  0  0  0  1  0  0  0  0  0  0
  191.3810  174.3630  137.4190 C   0  0  0  0  0  3  0  0  0  0  0  0
  190.3650  174.3550  136.4450 C   0  0  0  0  0  0  0  0  0  0  0  0
  189.0250  176.5310  143.8020 C   0  0  0  0  0  2  0  0  0  0  0  0
  188.4800  177.6790  144.3900 O   0  0  0  0  0  0  0  0  0  0  0  0
  187.5680  177.2310  145.2320 O   0  0  0  0  0  0  0  0  0  0  0  0
  187.4610  178.2240  146.2170 C   0  0  1  0  0  3  0  0  0  0  0  0
  185.6960  179.3970  147.3650 O   0  0  0  0  0  1  0  0  0  0  0  0
  186.1340  178.9790  146.1070 C   0  0  2  0  0  3  0  0  0  0  0  0
  185.0620  178.1090  145.4630 C   0  0  0  0  0  2  0  0  0  0  0  0
  183.7820  178.8890  145.1940 C   0  0  0  0  0  2  0  0  0  0  0  0
  183.8380  179.5960  143.8500 C   0  0  0  0  0  2  0  0  0  0  0  0
  184.3270  178.6430  142.7740 C   0  0  0  0  0  2  0  0  0  0  0  0
  185.5060  179.2490  142.0360 C   0  0  0  0  0  3  0  0  0  0  0  0
  185.1240  179.5590  140.7310 O   0  0  0  0  0  1  0  0  0  0  0  0
  186.5620  178.3380  142.0030 O   0  0  0  0  0  1  0  0  0  0  0  0
  187.6840  177.6470  147.6130 C   0  0  0  0  0  2  0  0  0  0  0  0
  188.8010  176.6170  147.6420 C   0  0  0  0  0  2  0  0  0  0  0  0
  190.1420  177.3220  147.5690 C   0  0  0  0  0  2  0  0  0  0  0  0
  191.1640  176.4400  146.8750 C   0  0  0  0  0  2  0  0  0  0  0  0
  192.2230  175.9830  147.8620 C   0  0  0  0  0  1  0  0  0  0  0  0
  2  3  1  0  0  0  0
  2  1  1  0  0  0  0
  2 19  1  0  0  0  0
  3  1  1  0  0  0  0
  4  2  1  0  0  0  0
  5  4  1  0  0  0  0
  6 13  1  0  0  0  0
  7 10  1  6  0  0  0
  7  9  1  0  0  0  0
  8 11  1  0  0  0  0
  8 15  1  0  0  0  0
  9 15  1  0  0  0  0
  9 12  2  0  0  0  0
 13 14  1  0  0  0  0
 14  7  1  0  0  0  0
 14  8  2  0  0  0  0
 15  5  1  0  0  0  0
 16 18  1  0  0  0  0
 17 11  2  0  0  0  0
 18 13  2  0  0  0  0
 18 17  1  0  0  0  0
 19 20  1  0  0  0  0
 20 21  1  0  0  0  0
 21 22  1  0  0  0  0
 22 32  1  1  0  0  0
 24 22  1  0  0  0  0
 24 23  1  1  0  0  0
 25 24  1  0  0  0  0
 26 25  1  0  0  0  0
 27 26  1  0  0  0  0
 28 27  1  0  0  0  0
 29 28  1  0  0  0  0
 30 29  1  0  0  0  0
 31 29  1  0  0  0  0
 32 33  1  0  0  0  0
 34 33  1  0  0  0  0
 35 34  1  0  0  0  0
 35 36  1  0  0  0  0
M  END
>  <MODEL>
1

>  <REMARK>
 VINA RESULT:      -7.5      0.000      0.000
  Name = 
  17 active torsions:
  status: ('A' for Active; 'I' for Inactive)
    1  A    between atoms: N_4  and  C_10
    2  A    between atoms: N_4  and  N_31
    3  A    between atoms: O_6  and  C_20
    4  A    between atoms: O_6  and  O_32
    5  A    between atoms: C_7  and  C_22
    6  A    between atoms: C_7  and  C_30
    7  A    between atoms: C_8  and  C_24
    8  A    between atoms: C_8  and  C_29
    9  A    between atoms: C_10  and  C_17
   10  A    between atoms: C_11  and  C_29
   11  A    between atoms: C_14  and  C_19
   12  A    between atoms: C_14  and  C_25
   13  A    between atoms: C_15  and  C_25
   14  A    between atoms: C_17  and  C_20
   15  A    between atoms: C_19  and  C_30
   16  A    between atoms: C_22  and  C_24
   17  A    between atoms: C_30  and  O_32
                            x       y       z     vdW  Elec       q    Type
                         _______ _______ _______ _____ _____    ______ ____

>  <TORSDO>
F 17

$$$$
=
 OpenBabel11032419283D

 36 38  0  0  1  0  0  0  0  0999 V2000
  182.7470  179.0220  140.5860 C   0  0  0  0  0  2  0  0  0  0  0  0
  183.9410  178.4240  141.2930 C   0  0  0  0  0  0  0  0  0  0  0  0
  182.9890  177.5180  140.5410 C   0  0  0  0  0  2  0  0  0  0  0  0
  185.2570  178.7260  140.6050 C   0  0  0  0  0  2  0  0  0  0  0  0
  185.0080  179.3500  139.3160 N   0  0  0  0  0  2  0  0  0  0  0  0
  188.5180  174.9950  137.0260 N   0  0  0  0  0  1  0  0  0  0  0  0
  185.8620  176.5490  136.9840 C   0  0  1  0  0  3  0  0  0  0  0  0
  186.9480  178.0300  138.4750 C   0  0  0  0  0  0  0  0  0  0  0  0
  184.9680  177.6440  137.4970 C   0  0  0  0  0  0  0  0  0  0  0  0
  186.0670  176.7150  135.4890 C   0  0  0  0  0  1  0  0  0  0  0  0
  187.9180  178.5030  139.2980 N   0  0  0  0  0  0  0  0  0  0  0  0
  183.7350  177.7190  137.2510 O   0  0  0  0  0  0  0  0  0  0  0  0
  188.3310  176.1910  137.7790 C   0  0  0  0  0  0  0  0  0  0  0  0
  187.1240  176.8920  137.7180 C   0  0  0  0  0  0  0  0  0  0  0  0
  185.6470  178.5700  138.3410 N   0  0  0  0  0  0  0  0  0  0  0  0
  190.5990  176.0210  138.7150 N   0  0  0  0  0  1  0  0  0  0  0  0
  189.1150  177.8540  139.3720 C   0  0  0  0  0  3  0  0  0  0  0  0
  189.3470  176.6910  138.6130 C   0  0  0  0  0  0  0  0  0  0  0  0
  183.8600  178.4810  142.8200 C   0  0  0  0  0  2  0  0  0  0  0  0
  185.0360  178.0130  143.4200 O   0  0  0  0  0  0  0  0  0  0  0  0
  185.3830  178.9570  144.2740 O   0  0  0  0  0  0  0  0  0  0  0  0
  186.3900  178.3820  145.0640 C   0  0  1  0  0  3  0  0  0  0  0  0
  184.6050  178.6120  146.6670 O   0  0  0  0  0  1  0  0  0  0  0  0
  185.8990  178.1190  146.4900 C   0  0  2  0  0  3  0  0  0  0  0  0
  186.8270  178.7590  147.5140 C   0  0  0  0  0  2  0  0  0  0  0  0
  187.7710  177.7410  148.1410 C   0  0  0  0  0  2  0  0  0  0  0  0
  189.1790  177.8800  147.5860 C   0  0  0  0  0  2  0  0  0  0  0  0
  189.8080  176.5100  147.3930 C   0  0  0  0  0  2  0  0  0  0  0  0
  191.3200  176.6270  147.3800 C   0  0  0  0  0  3  0  0  0  0  0  0
  191.7320  177.1310  146.1470 O   0  0  0  0  0  1  0  0  0  0  0  0
  191.8920  175.3700  147.5780 O   0  0  0  0  0  1  0  0  0  0  0  0
  186.9610  177.1260  144.4080 C   0  0  0  0  0  2  0  0  0  0  0  0
  188.4360  177.2680  144.0710 C   0  0  0  0  0  2  0  0  0  0  0  0
  188.8660  176.1130  143.1890 C   0  0  0  0  0  2  0  0  0  0  0  0
  190.3710  176.1360  142.9860 C   0  0  0  0  0  2  0  0  0  0  0  0
  190.8570  177.5620  142.8060 C   0  0  0  0  0  1  0  0  0  0  0  0
  1  2  1  0  0  0  0
  2 19  1  0  0  0  0
  3  1  1  0  0  0  0
  3  2  1  0  0  0  0
  4  2  1  0  0  0  0
  5  4  1  0  0  0  0
  6 13  1  0  0  0  0
  7 10  1  6  0  0  0
  7  9  1  0  0  0  0
  7 14  1  0  0  0  0
  8 11  1  0  0  0  0
  9 15  1  0  0  0  0
 11 17  2  0  0  0  0
 12  9  2  0  0  0  0
 13 18  2  0  0  0  0
 14 13  1  0  0  0  0
 14  8  2  0  0  0  0
 15  8  1  0  0  0  0
 15  5  1  0  0  0  0
 18 16  1  0  0  0  0
 18 17  1  0  0  0  0
 19 20  1  0  0  0  0
 20 21  1  0  0  0  0
 21 22  1  0  0  0  0
 22 32  1  6  0  0  0
 22 24  1  0  0  0  0
 24 23  1  6  0  0  0
 24 25  1  0  0  0  0
 25 26  1  0  0  0  0
 27 26  1  0  0  0  0
 28 27  1  0  0  0  0
 29 28  1  0  0  0  0
 29 31  1  0  0  0  0
 30 29  1  0  0  0  0
 33 32  1  0  0  0  0
 34 33  1  0  0  0  0
 35 34  1  0  0  0  0
 36 35  1  0  0  0  0
M  END
>  <MODEL>
2

>  <REMARK>
 VINA RESULT:      -7.4      2.463      5.210
  Name = 
  17 active torsions:
  status: ('A' for Active; 'I' for Inactive)
    1  A    between atoms: N_4  and  C_10
    2  A    between atoms: N_4  and  N_31
    3  A    between atoms: O_6  and  C_20
    4  A    between atoms: O_6  and  O_32
    5  A    between atoms: C_7  and  C_22
    6  A    between atoms: C_7  and  C_30
    7  A    between atoms: C_8  and  C_24
    8  A    between atoms: C_8  and  C_29
    9  A    between atoms: C_10  and  C_17
   10  A    between atoms: C_11  and  C_29
   11  A    between atoms: C_14  and  C_19
   12  A    between atoms: C_14  and  C_25
   13  A    between atoms: C_15  and  C_25
   14  A    between atoms: C_17  and  C_20
   15  A    between atoms: C_19  and  C_30
   16  A    between atoms: C_22  and  C_24
   17  A    between atoms: C_30  and  O_32
                            x       y       z     vdW  Elec       q    Type
                         _______ _______ _______ _____ _____    ______ ____

>  <TORSDO>
F 17

$$$$
=
 OpenBabel11032419283D

 36 38  0  0  1  0  0  0  0  0999 V2000
  190.5140  177.6680  144.0280 C   0  0  0  0  0  2  0  0  0  0  0  0
  189.6820  177.1260  142.8900 C   0  0  0  0  0  0  0  0  0  0  0  0
  189.8760  178.6210  143.0240 C   0  0  0  0  0  2  0  0  0  0  0  0
  190.5060  176.4400  141.8190 C   0  0  0  0  0  2  0  0  0  0  0  0
  191.0010  177.4260  140.8710 N   0  0  0  0  0  2  0  0  0  0  0  0
  189.8870  176.7070  134.9740 N   0  0  0  0  0  1  0  0  0  0  0  0
  191.8680  176.5890  137.3270 C   0  0  1  0  0  3  0  0  0  0  0  0
  189.9490  176.8660  138.6810 C   0  0  0  0  0  0  0  0  0  0  0  0
  192.1830  176.7200  138.7910 C   0  0  0  0  0  0  0  0  0  0  0  0
  192.2450  175.2000  136.8450 C   0  0  0  0  0  1  0  0  0  0  0  0
  188.6470  177.0910  138.9920 N   0  0  0  0  0  0  0  0  0  0  0  0
  193.3520  176.7840  139.2570 O   0  0  0  0  0  0  0  0  0  0  0  0
  189.4580  176.8150  136.3290 C   0  0  0  0  0  0  0  0  0  0  0  0
  190.3760  176.7290  137.3780 C   0  0  0  0  0  0  0  0  0  0  0  0
  191.0180  176.8190  139.6070 N   0  0  0  0  0  0  0  0  0  0  0  0
  187.1220  177.1200  135.6200 N   0  0  0  0  0  1  0  0  0  0  0  0
  187.7200  177.1670  137.9940 C   0  0  0  0  0  3  0  0  0  0  0  0
  188.1040  177.0260  136.6470 C   0  0  0  0  0  0  0  0  0  0  0  0
  188.3500  176.5090  143.3240 C   0  0  0  0  0  2  0  0  0  0  0  0
  188.0400  176.8240  144.6530 O   0  0  0  0  0  0  0  0  0  0  0  0
  186.9000  177.4860  144.5890 O   0  0  0  0  0  0  0  0  0  0  0  0
  186.8620  178.2590  145.7590 C   0  0  1  0  0  3  0  0  0  0  0  0
  184.9320  178.4100  147.1960 O   0  0  0  0  0  1  0  0  0  0  0  0
  185.4700  178.8560  145.9880 C   0  0  2  0  0  3  0  0  0  0  0  0
  184.5260  178.4940  144.8500 C   0  0  0  0  0  2  0  0  0  0  0  0
  184.2590  179.6800  143.9320 C   0  0  0  0  0  2  0  0  0  0  0  0
  183.7740  179.2210  142.5660 C   0  0  0  0  0  2  0  0  0  0  0  0
  184.6630  178.1090  142.0370 C   0  0  0  0  0  2  0  0  0  0  0  0
  185.5420  178.6320  140.9160 C   0  0  0  0  0  3  0  0  0  0  0  0
  186.7600  179.0570  141.4450 O   0  0  0  0  0  1  0  0  0  0  0  0
  184.9140  179.7060  140.2850 O   0  0  0  0  0  1  0  0  0  0  0  0
  187.3550  177.4640  146.9660 C   0  0  0  0  0  2  0  0  0  0  0  0
  187.9710  178.3550  148.0330 C   0  0  0  0  0  2  0  0  0  0  0  0
  189.4570  178.0700  148.1340 C   0  0  0  0  0  2  0  0  0  0  0  0
  189.7880  176.7530  147.4540 C   0  0  0  0  0  2  0  0  0  0  0  0
  191.2890  176.5320  147.4360 C   0  0  0  0  0  1  0  0  0  0  0  0
  2  3  1  0  0  0  0
  2 19  1  0  0  0  0
  2  1  1  0  0  0  0
  3  1  1  0  0  0  0
  4  2  1  0  0  0  0
  5  4  1  0  0  0  0
  6 13  1  0  0  0  0
  7 10  1  1  0  0  0
  7 14  1  0  0  0  0
  7  9  1  0  0  0  0
  8 11  1  0  0  0  0
  8 15  1  0  0  0  0
  9 12  2  0  0  0  0
  9 15  1  0  0  0  0
 13 18  2  0  0  0  0
 13 14  1  0  0  0  0
 14  8  2  0  0  0  0
 15  5  1  0  0  0  0
 16 18  1  0  0  0  0
 17 11  2  0  0  0  0
 18 17  1  0  0  0  0
 19 20  1  0  0  0  0
 21 20  1  0  0  0  0
 21 22  1  0  0  0  0
 22 24  1  0  0  0  0
 22 32  1  1  0  0  0
 24 23  1  1  0  0  0
 25 24  1  0  0  0  0
 26 25  1  0  0  0  0
 27 26  1  0  0  0  0
 28 27  1  0  0  0  0
 29 30  1  0  0  0  0
 29 28  1  0  0  0  0
 31 29  1  0  0  0  0
 32 33  1  0  0  0  0
 33 34  1  0  0  0  0
 35 34  1  0  0  0  0
 36 35  1  0  0  0  0
M  END
>  <MODEL>
3

>  <REMARK>
 VINA RESULT:      -7.3      1.400      2.302
  Name = 
  17 active torsions:
  status: ('A' for Active; 'I' for Inactive)
    1  A    between atoms: N_4  and  C_10
    2  A    between atoms: N_4  and  N_31
    3  A    between atoms: O_6  and  C_20
    4  A    between atoms: O_6  and  O_32
    5  A    between atoms: C_7  and  C_22
    6  A    between atoms: C_7  and  C_30
    7  A    between atoms: C_8  and  C_24
    8  A    between atoms: C_8  and  C_29
    9  A    between atoms: C_10  and  C_17
   10  A    between atoms: C_11  and  C_29
   11  A    between atoms: C_14  and  C_19
   12  A    between atoms: C_14  and  C_25
   13  A    between atoms: C_15  and  C_25
   14  A    between atoms: C_17  and  C_20
   15  A    between atoms: C_19  and  C_30
   16  A    between atoms: C_22  and  C_24
   17  A    between atoms: C_30  and  O_32
                            x       y       z     vdW  Elec       q    Type
                         _______ _______ _______ _____ _____    ______ ____

>  <TORSDO>
F 17

$$$$
=
 OpenBabel11032419283D

 36 38  0  0  1  0  0  0  0  0999 V2000
  190.7640  176.4010  142.7740 C   0  0  0  0  0  2  0  0  0  0  0  0
  189.3760  176.9880  142.8830 C   0  0  0  0  0  0  0  0  0  0  0  0
  190.5810  177.8920  143.0360 C   0  0  0  0  0  2  0  0  0  0  0  0
  188.6520  177.0630  141.5540 C   0  0  0  0  0  2  0  0  0  0  0  0
  188.7700  178.4030  141.0030 N   0  0  0  0  0  2  0  0  0  0  0  0
  189.5610  175.8490  135.5810 N   0  0  0  0  0  1  0  0  0  0  0  0
  187.8010  177.4860  137.5050 C   0  0  1  0  0  3  0  0  0  0  0  0
  189.7410  177.5880  138.8560 C   0  0  0  0  0  0  0  0  0  0  0  0
  187.5740  178.1670  138.8260 C   0  0  0  0  0  0  0  0  0  0  0  0
  187.6260  178.4870  136.3770 C   0  0  0  0  0  1  0  0  0  0  0  0
  191.0060  177.3200  139.2660 N   0  0  0  0  0  0  0  0  0  0  0  0
  186.4480  178.5560  139.2330 O   0  0  0  0  0  0  0  0  0  0  0  0
  190.0620  176.3610  136.8140 C   0  0  0  0  0  0  0  0  0  0  0  0
  189.2500  177.1260  137.6530 C   0  0  0  0  0  0  0  0  0  0  0  0
  188.7630  178.2840  139.6050 N   0  0  0  0  0  0  0  0  0  0  0  0
  192.2580  175.3280  136.4100 N   0  0  0  0  0  1  0  0  0  0  0  0
  191.8340  176.5890  138.4660 C   0  0  0  0  0  3  0  0  0  0  0  0
  191.3820  176.1000  137.2250 C   0  0  0  0  0  0  0  0  0  0  0  0
  188.6080  176.5570  144.1340 C   0  0  0  0  0  2  0  0  0  0  0  0
  187.2360  176.8100  144.0140 O   0  0  0  0  0  0  0  0  0  0  0  0
  187.0690  178.0240  144.5050 O   0  0  0  0  0  0  0  0  0  0  0  0
  185.7950  178.0090  145.0910 C   0  0  1  0  0  3  0  0  0  0  0  0
  184.7800  178.5650  147.2060 O   0  0  0  0  0  1  0  0  0  0  0  0
  185.8850  177.9450  146.6190 C   0  0  2  0  0  3  0  0  0  0  0  0
  187.1610  178.6080  147.1190 C   0  0  0  0  0  2  0  0  0  0  0  0
  187.8100  177.8150  148.2470 C   0  0  0  0  0  2  0  0  0  0  0  0
  188.7770  176.7760  147.7050 C   0  0  0  0  0  2  0  0  0  0  0  0
  190.0690  177.4400  147.2610 C   0  0  0  0  0  2  0  0  0  0  0  0
  191.2150  176.4480  147.3280 C   0  0  0  0  0  3  0  0  0  0  0  0
  192.2020  176.9410  148.1820 O   0  0  0  0  0  1  0  0  0  0  0  0
  191.7570  176.2650  146.0560 O   0  0  0  0  0  1  0  0  0  0  0  0
  184.9480  179.1860  144.6110 C   0  0  0  0  0  2  0  0  0  0  0  0
  183.7590  178.7400  143.7750 C   0  0  0  0  0  2  0  0  0  0  0  0
  184.1600  178.6890  142.3130 C   0  0  0  0  0  2  0  0  0  0  0  0
  182.9340  178.5020  141.4370 C   0  0  0  0  0  2  0  0  0  0  0  0
  183.2280  177.5160  140.3220 C   0  0  0  0  0  1  0  0  0  0  0  0
  1  2  1  0  0  0  0
  1  3  1  0  0  0  0
  2  3  1  0  0  0  0
  2 19  1  0  0  0  0
  4  2  1  0  0  0  0
  5  4  1  0  0  0  0
  6 13  1  0  0  0  0
  7 10  1  6  0  0  0
  7 14  1  0  0  0  0
  7  9  1  0  0  0  0
  8 11  1  0  0  0  0
  8 15  1  0  0  0  0
  9 12  2  0  0  0  0
  9 15  1  0  0  0  0
 13 18  2  0  0  0  0
 13 14  1  0  0  0  0
 14  8  2  0  0  0  0
 15  5  1  0  0  0  0
 16 18  1  0  0  0  0
 17 11  2  0  0  0  0
 18 17  1  0  0  0  0
 20 19  1  0  0  0  0
 20 21  1  0  0  0  0
 21 22  1  0  0  0  0
 22 32  1  1  0  0  0
 22 24  1  0  0  0  0
 24 25  1  0  0  0  0
 24 23  1  1  0  0  0
 25 26  1  0  0  0  0
 27 26  1  0  0  0  0
 28 29  1  0  0  0  0
 28 27  1  0  0  0  0
 29 30  1  0  0  0  0
 31 29  1  0  0  0  0
 33 32  1  0  0  0  0
 34 33  1  0  0  0  0
 35 34  1  0  0  0  0
 36 35  1  0  0  0  0
M  END
>  <MODEL>
4

>  <REMARK>
 VINA RESULT:      -7.2      1.694      4.717
  Name = 
  17 active torsions:
  status: ('A' for Active; 'I' for Inactive)
    1  A    between atoms: N_4  and  C_10
    2  A    between atoms: N_4  and  N_31
    3  A    between atoms: O_6  and  C_20
    4  A    between atoms: O_6  and  O_32
    5  A    between atoms: C_7  and  C_22
    6  A    between atoms: C_7  and  C_30
    7  A    between atoms: C_8  and  C_24
    8  A    between atoms: C_8  and  C_29
    9  A    between atoms: C_10  and  C_17
   10  A    between atoms: C_11  and  C_29
   11  A    between atoms: C_14  and  C_19
   12  A    between atoms: C_14  and  C_25
   13  A    between atoms: C_15  and  C_25
   14  A    between atoms: C_17  and  C_20
   15  A    between atoms: C_19  and  C_30
   16  A    between atoms: C_22  and  C_24
   17  A    between atoms: C_30  and  O_32
                            x       y       z     vdW  Elec       q    Type
                         _______ _______ _______ _____ _____    ______ ____

>  <TORSDO>
F 17

$$$$
=
 OpenBabel11032419283D

 36 38  0  0  1  0  0  0  0  0999 V2000
  185.7040  179.4440  146.1100 C   0  0  0  0  0  2  0  0  0  0  0  0
  184.9050  178.7150  145.0570 C   0  0  0  0  0  0  0  0  0  0  0  0
  184.9440  178.1730  146.4700 C   0  0  0  0  0  2  0  0  0  0  0  0
  183.6360  179.4410  144.6570 C   0  0  0  0  0  2  0  0  0  0  0  0
  182.6310  178.4810  144.2320 N   0  0  0  0  0  2  0  0  0  0  0  0
  180.3580  178.7810  138.6390 N   0  0  0  0  0  1  0  0  0  0  0  0
  180.0290  179.2740  141.6590 C   0  0  1  0  0  3  0  0  0  0  0  0
  182.3430  178.7940  141.7750 C   0  0  0  0  0  0  0  0  0  0  0  0
  180.5660  179.2510  143.0640 C   0  0  0  0  0  0  0  0  0  0  0  0
  179.5770  180.6790  141.3070 C   0  0  0  0  0  1  0  0  0  0  0  0
  183.5720  178.4050  141.3510 N   0  0  0  0  0  0  0  0  0  0  0  0
  179.8500  179.3700  144.0930 O   0  0  0  0  0  0  0  0  0  0  0  0
  181.4530  178.6740  139.5450 C   0  0  0  0  0  0  0  0  0  0  0  0
  181.2810  178.9310  140.9070 C   0  0  0  0  0  0  0  0  0  0  0  0
  181.9720  179.0290  143.1200 N   0  0  0  0  0  0  0  0  0  0  0  0
  182.9680  178.0180  137.7210 N   0  0  0  0  0  1  0  0  0  0  0  0
  183.7810  178.1590  140.0260 C   0  0  0  0  0  3  0  0  0  0  0  0
  182.7310  178.2920  139.0980 C   0  0  0  0  0  0  0  0  0  0  0  0
  185.7550  178.0390  143.9790 C   0  0  0  0  0  2  0  0  0  0  0  0
  187.0550  177.7800  144.4300 O   0  0  0  0  0  0  0  0  0  0  0  0
  187.3440  176.5780  143.9670 O   0  0  0  0  0  0  0  0  0  0  0  0
  188.7450  176.5050  143.9890 C   0  0  1  0  0  3  0  0  0  0  0  0
  190.4420  175.5360  142.5780 O   0  0  0  0  0  1  0  0  0  0  0  0
  189.3190  176.3660  142.5760 C   0  0  2  0  0  3  0  0  0  0  0  0
  189.6960  177.7250  142.0020 C   0  0  0  0  0  2  0  0  0  0  0  0
  188.6910  178.2020  140.9620 C   0  0  0  0  0  2  0  0  0  0  0  0
  188.8720  177.4690  139.6430 C   0  0  0  0  0  2  0  0  0  0  0  0
  188.9540  178.4600  138.4950 C   0  0  0  0  0  2  0  0  0  0  0  0
  187.8070  178.2360  137.5290 C   0  0  0  0  0  3  0  0  0  0  0  0
  186.6260  178.7140  138.0960 O   0  0  0  0  0  1  0  0  0  0  0  0
  187.6720  176.8730  137.2640 O   0  0  0  0  0  1  0  0  0  0  0  0
  189.3500  177.6870  144.7440 C   0  0  0  0  0  2  0  0  0  0  0  0
  190.3230  177.2460  145.8250 C   0  0  0  0  0  2  0  0  0  0  0  0
  189.5550  176.8970  147.0850 C   0  0  0  0  0  2  0  0  0  0  0  0
  188.9290  178.1440  147.6840 C   0  0  0  0  0  2  0  0  0  0  0  0
  187.9530  177.7680  148.7840 C   0  0  0  0  0  1  0  0  0  0  0  0
  1  3  1  0  0  0  0
  2  1  1  0  0  0  0
  2  3  1  0  0  0  0
  4  2  1  0  0  0  0
  5  4  1  0  0  0  0
  6 13  1  0  0  0  0
  7 10  1  6  0  0  0
  7  9  1  0  0  0  0
  8 15  1  0  0  0  0
  9 15  1  0  0  0  0
  9 12  2  0  0  0  0
 11  8  1  0  0  0  0
 13 14  1  0  0  0  0
 14  7  1  0  0  0  0
 14  8  2  0  0  0  0
 15  5  1  0  0  0  0
 16 18  1  0  0  0  0
 17 11  2  0  0  0  0
 18 13  2  0  0  0  0
 18 17  1  0  0  0  0
 19 20  1  0  0  0  0
 19  2  1  0  0  0  0
 21 22  1  0  0  0  0
 21 20  1  0  0  0  0
 22 32  1  6  0  0  0
 24 23  1  1  0  0  0
 24 22  1  0  0  0  0
 25 24  1  0  0  0  0
 26 25  1  0  0  0  0
 27 26  1  0  0  0  0
 28 27  1  0  0  0  0
 29 30  1  0  0  0  0
 29 28  1  0  0  0  0
 31 29  1  0  0  0  0
 32 33  1  0  0  0  0
 33 34  1  0  0  0  0
 34 35  1  0  0  0  0
 35 36  1  0  0  0  0
M  END
>  <MODEL>
5

>  <REMARK>
 VINA RESULT:      -7.1      3.956      7.091
  Name = 
  17 active torsions:
  status: ('A' for Active; 'I' for Inactive)
    1  A    between atoms: N_4  and  C_10
    2  A    between atoms: N_4  and  N_31
    3  A    between atoms: O_6  and  C_20
    4  A    between atoms: O_6  and  O_32
    5  A    between atoms: C_7  and  C_22
    6  A    between atoms: C_7  and  C_30
    7  A    between atoms: C_8  and  C_24
    8  A    between atoms: C_8  and  C_29
    9  A    between atoms: C_10  and  C_17
   10  A    between atoms: C_11  and  C_29
   11  A    between atoms: C_14  and  C_19
   12  A    between atoms: C_14  and  C_25
   13  A    between atoms: C_15  and  C_25
   14  A    between atoms: C_17  and  C_20
   15  A    between atoms: C_19  and  C_30
   16  A    between atoms: C_22  and  C_24
   17  A    between atoms: C_30  and  O_32
                            x       y       z     vdW  Elec       q    Type
                         _______ _______ _______ _____ _____    ______ ____

>  <TORSDO>
F 17

$$$$
=
 OpenBabel11032419283D

 36 38  0  0  1  0  0  0  0  0999 V2000
  189.5150  177.3190  137.3950 C   0  0  0  0  0  2  0  0  0  0  0  0
  188.6010  178.0200  138.3720 C   0  0  0  0  0  0  0  0  0  0  0  0
  189.1540  178.7860  137.1890 C   0  0  0  0  0  2  0  0  0  0  0  0
  187.1560  177.5780  138.2630 C   0  0  0  0  0  2  0  0  0  0  0  0
  186.3300  178.6950  137.8330 N   0  0  0  0  0  2  0  0  0  0  0  0
  181.4840  175.5740  139.6540 N   0  0  0  0  0  1  0  0  0  0  0  0
  183.4520  177.8990  140.0920 C   0  0  1  0  0  3  0  0  0  0  0  0
  184.2000  177.4000  137.9040 C   0  0  0  0  0  0  0  0  0  0  0  0
  184.6310  178.7270  139.6600 C   0  0  0  0  0  0  0  0  0  0  0  0
  182.2400  178.7940  140.2780 C   0  0  0  0  0  1  0  0  0  0  0  0
  184.3070  176.7240  136.7320 N   0  0  0  0  0  0  0  0  0  0  0  0
  185.2380  179.5350  140.4110 O   0  0  0  0  0  0  0  0  0  0  0  0
  182.4190  175.9710  138.6540 C   0  0  0  0  0  0  0  0  0  0  0  0
  183.2810  177.0480  138.8690 C   0  0  0  0  0  0  0  0  0  0  0  0
  185.0330  178.4670  138.3170 N   0  0  0  0  0  0  0  0  0  0  0  0
  181.6580  174.1750  137.1550 N   0  0  0  0  0  1  0  0  0  0  0  0
  183.4720  175.6750  136.4810 C   0  0  0  0  0  3  0  0  0  0  0  0
  182.5110  175.2810  137.4320 C   0  0  0  0  0  0  0  0  0  0  0  0
  189.2160  178.2470  139.7560 C   0  0  0  0  0  2  0  0  0  0  0  0
  188.2340  178.3600  140.7480 O   0  0  0  0  0  0  0  0  0  0  0  0
  188.8870  178.2460  141.8890 O   0  0  0  0  0  0  0  0  0  0  0  0
  188.9150  176.8690  142.1560 C   0  0  1  0  0  3  0  0  0  0  0  0
  190.3400  175.1060  142.9780 O   0  0  0  0  0  1  0  0  0  0  0  0
  190.3450  176.3780  142.4010 C   0  0  2  0  0  3  0  0  0  0  0  0
  191.1060  177.3390  143.3050 C   0  0  0  0  0  2  0  0  0  0  0  0
  191.4370  176.7120  144.6530 C   0  0  0  0  0  2  0  0  0  0  0  0
  190.8760  177.5390  145.7980 C   0  0  0  0  0  2  0  0  0  0  0  0
  189.9290  176.7010  146.6390 C   0  0  0  0  0  2  0  0  0  0  0  0
  189.0620  177.5990  147.5010 C   0  0  0  0  0  3  0  0  0  0  0  0
  189.8510  178.1980  148.4820 O   0  0  0  0  0  1  0  0  0  0  0  0
  188.0600  176.8440  148.1120 O   0  0  0  0  0  1  0  0  0  0  0  0
  187.9750  176.5070  143.3040 C   0  0  0  0  0  2  0  0  0  0  0  0
  187.5060  177.7300  144.0760 C   0  0  0  0  0  2  0  0  0  0  0  0
  186.3980  177.3300  145.0310 C   0  0  0  0  0  2  0  0  0  0  0  0
  185.8550  178.5530  145.7500 C   0  0  0  0  0  2  0  0  0  0  0  0
  184.4840  178.9150  145.2100 C   0  0  0  0  0  1  0  0  0  0  0  0
  1  2  1  0  0  0  0
  2 19  1  0  0  0  0
  3  1  1  0  0  0  0
  3  2  1  0  0  0  0
  4  2  1  0  0  0  0
  5  4  1  0  0  0  0
  5 15  1  0  0  0  0
  7 10  1  6  0  0  0
  8 15  1  0  0  0  0
  8 14  1  0  0  0  0
  9  7  1  0  0  0  0
  9 12  2  0  0  0  0
 11  8  2  0  0  0  0
 13 14  2  0  0  0  0
 13  6  1  0  0  0  0
 14  7  1  0  0  0  0
 15  9  1  0  0  0  0
 16 18  1  0  0  0  0
 17 11  1  0  0  0  0
 17 18  2  0  0  0  0
 18 13  1  0  0  0  0
 19 20  1  0  0  0  0
 20 21  1  0  0  0  0
 21 22  1  0  0  0  0
 22 24  1  0  0  0  0
 22 32  1  1  0  0  0
 24 23  1  1  0  0  0
 24 25  1  0  0  0  0
 25 26  1  0  0  0  0
 26 27  1  0  0  0  0
 27 28  1  0  0  0  0
 28 29  1  0  0  0  0
 29 31  1  0  0  0  0
 29 30  1  0  0  0  0
 32 33  1  0  0  0  0
 33 34  1  0  0  0  0
 34 35  1  0  0  0  0
 36 35  1  0  0  0  0
M  END
>  <MODEL>
6

>  <REMARK>
 VINA RESULT:      -7.1      3.388      6.421
  Name = 
  17 active torsions:
  status: ('A' for Active; 'I' for Inactive)
    1  A    between atoms: N_4  and  C_10
    2  A    between atoms: N_4  and  N_31
    3  A    between atoms: O_6  and  C_20
    4  A    between atoms: O_6  and  O_32
    5  A    between atoms: C_7  and  C_22
    6  A    between atoms: C_7  and  C_30
    7  A    between atoms: C_8  and  C_24
    8  A    between atoms: C_8  and  C_29
    9  A    between atoms: C_10  and  C_17
   10  A    between atoms: C_11  and  C_29
   11  A    between atoms: C_14  and  C_19
   12  A    between atoms: C_14  and  C_25
   13  A    between atoms: C_15  and  C_25
   14  A    between atoms: C_17  and  C_20
   15  A    between atoms: C_19  and  C_30
   16  A    between atoms: C_22  and  C_24
   17  A    between atoms: C_30  and  O_32
                            x       y       z     vdW  Elec       q    Type
                         _______ _______ _______ _____ _____    ______ ____

>  <TORSDO>
F 17

$$$$
=
 OpenBabel11032419283D

 36 38  0  0  1  0  0  0  0  0999 V2000
  190.3590  179.0170  143.2980 C   0  0  0  0  0  2  0  0  0  0  0  0
  191.0300  177.8210  143.9310 C   0  0  0  0  0  0  0  0  0  0  0  0
  191.6280  179.1990  144.1230 C   0  0  0  0  0  2  0  0  0  0  0  0
  190.2620  177.2590  145.1110 C   0  0  0  0  0  2  0  0  0  0  0  0
  188.9990  176.7020  144.6570 N   0  0  0  0  0  2  0  0  0  0  0  0
  183.4100  178.9030  145.3340 N   0  0  0  0  0  1  0  0  0  0  0  0
  186.1010  178.0840  146.5830 C   0  0  1  0  0  3  0  0  0  0  0  0
  186.8530  177.9340  144.3450 C   0  0  0  0  0  0  0  0  0  0  0  0
  187.5100  177.5740  146.4580 C   0  0  0  0  0  0  0  0  0  0  0  0
  186.1040  179.4320  147.2810 C   0  0  0  0  0  1  0  0  0  0  0  0
  186.7840  177.9290  142.9900 N   0  0  0  0  0  0  0  0  0  0  0  0
  188.1990  177.1640  147.4300 O   0  0  0  0  0  0  0  0  0  0  0  0
  184.5510  178.5970  144.5360 C   0  0  0  0  0  0  0  0  0  0  0  0
  185.7680  178.2570  145.1300 C   0  0  0  0  0  0  0  0  0  0  0  0
  187.9790  177.5510  145.1120 N   0  0  0  0  0  0  0  0  0  0  0  0
  183.2680  178.9570  142.4680 N   0  0  0  0  0  1  0  0  0  0  0  0
  185.6170  178.2710  142.3730 C   0  0  0  0  0  3  0  0  0  0  0  0
  184.4810  178.6150  143.1310 C   0  0  0  0  0  0  0  0  0  0  0  0
  191.6810  176.8630  142.9320 C   0  0  0  0  0  2  0  0  0  0  0  0
  190.9070  176.7170  141.7730 O   0  0  0  0  0  0  0  0  0  0  0  0
  191.6430  177.2270  140.8040 O   0  0  0  0  0  0  0  0  0  0  0  0
  190.7700  177.3600  139.7140 C   0  0  1  0  0  3  0  0  0  0  0  0
  190.6580  175.2600  138.5350 O   0  0  0  0  0  1  0  0  0  0  0  0
  191.2410  176.5290  138.5180 C   0  0  2  0  0  3  0  0  0  0  0  0
  192.7570  176.3870  138.5130 C   0  0  0  0  0  2  0  0  0  0  0  0
  193.3300  176.4400  137.1030 C   0  0  0  0  0  2  0  0  0  0  0  0
  194.0660  175.1560  136.7580 C   0  0  0  0  0  2  0  0  0  0  0  0
  194.3240  174.3430  138.0150 C   0  0  0  0  0  2  0  0  0  0  0  0
  195.8140  174.2550  138.2830 C   0  0  0  0  0  3  0  0  0  0  0  0
  196.1060  174.8990  139.4840 O   0  0  0  0  0  1  0  0  0  0  0  0
  196.5180  174.8700  137.2470 O   0  0  0  0  0  1  0  0  0  0  0  0
  189.3310  177.0360  140.1130 C   0  0  0  0  0  2  0  0  0  0  0  0
  188.3170  177.8630  139.3390 C   0  0  0  0  0  2  0  0  0  0  0  0
  189.0290  178.9910  138.6190 C   0  0  0  0  0  2  0  0  0  0  0  0
  188.5890  179.0500  137.1670 C   0  0  0  0  0  2  0  0  0  0  0  0
  187.2880  178.2920  136.9780 C   0  0  0  0  0  1  0  0  0  0  0  0
  1  2  1  0  0  0  0
  1  3  1  0  0  0  0
  2  3  1  0  0  0  0
  2  4  1  0  0  0  0
  5  4  1  0  0  0  0
  5 15  1  0  0  0  0
  7 10  1  1  0  0  0
  8 15  1  0  0  0  0
  8 14  1  0  0  0  0
  9  7  1  0  0  0  0
  9 12  2  0  0  0  0
 11  8  2  0  0  0  0
 13 14  2  0  0  0  0
 13  6  1  0  0  0  0
 14  7  1  0  0  0  0
 15  9  1  0  0  0  0
 16 18  1  0  0  0  0
 17 11  1  0  0  0  0
 17 18  2  0  0  0  0
 18 13  1  0  0  0  0
 19  2  1  0  0  0  0
 20 19  1  0  0  0  0
 21 20  1  0  0  0  0
 22 32  1  1  0  0  0
 22 21  1  0  0  0  0
 24 23  1  1  0  0  0
 24 22  1  0  0  0  0
 25 24  1  0  0  0  0
 26 25  1  0  0  0  0
 27 26  1  0  0  0  0
 27 28  1  0  0  0  0
 28 29  1  0  0  0  0
 29 30  1  0  0  0  0
 31 29  1  0  0  0  0
 33 32  1  0  0  0  0
 34 33  1  0  0  0  0
 35 34  1  0  0  0  0
 36 35  1  0  0  0  0
M  END
>  <MODEL>
7

>  <REMARK>
 VINA RESULT:      -6.9      3.745      9.028
  Name = 
  17 active torsions:
  status: ('A' for Active; 'I' for Inactive)
    1  A    between atoms: N_4  and  C_10
    2  A    between atoms: N_4  and  N_31
    3  A    between atoms: O_6  and  C_20
    4  A    between atoms: O_6  and  O_32
    5  A    between atoms: C_7  and  C_22
    6  A    between atoms: C_7  and  C_30
    7  A    between atoms: C_8  and  C_24
    8  A    between atoms: C_8  and  C_29
    9  A    between atoms: C_10  and  C_17
   10  A    between atoms: C_11  and  C_29
   11  A    between atoms: C_14  and  C_19
   12  A    between atoms: C_14  and  C_25
   13  A    between atoms: C_15  and  C_25
   14  A    between atoms: C_17  and  C_20
   15  A    between atoms: C_19  and  C_30
   16  A    between atoms: C_22  and  C_24
   17  A    between atoms: C_30  and  O_32
                            x       y       z     vdW  Elec       q    Type
                         _______ _______ _______ _____ _____    ______ ____

>  <TORSDO>
F 17

$$$$
=
 OpenBabel11032419283D

 36 38  0  0  1  0  0  0  0  0999 V2000
  189.3940  177.5440  137.3510 C   0  0  0  0  0  2  0  0  0  0  0  0
  188.6510  178.0480  138.5650 C   0  0  0  0  0  0  0  0  0  0  0  0
  189.0410  179.0220  137.4740 C   0  0  0  0  0  2  0  0  0  0  0  0
  187.1950  177.6270  138.5940 C   0  0  0  0  0  2  0  0  0  0  0  0
  186.4020  178.5420  137.7910 N   0  0  0  0  0  2  0  0  0  0  0  0
  181.4130  175.5980  139.5170 N   0  0  0  0  0  1  0  0  0  0  0  0
  183.2720  178.0360  139.7830 C   0  0  1  0  0  3  0  0  0  0  0  0
  184.3010  177.2000  137.8230 C   0  0  0  0  0  0  0  0  0  0  0  0
  184.4840  178.8210  139.3610 C   0  0  0  0  0  0  0  0  0  0  0  0
  182.0330  178.9040  139.6600 C   0  0  0  0  0  1  0  0  0  0  0  0
  184.5670  176.3380  136.8090 N   0  0  0  0  0  0  0  0  0  0  0  0
  184.9770  179.7680  140.0290 O   0  0  0  0  0  0  0  0  0  0  0  0
  182.4610  175.8530  138.5860 C   0  0  0  0  0  0  0  0  0  0  0  0
  183.2720  176.9830  138.7140 C   0  0  0  0  0  0  0  0  0  0  0  0
  185.0570  178.3520  138.1430 N   0  0  0  0  0  0  0  0  0  0  0  0
  181.9260  173.8020  137.3390 N   0  0  0  0  0  1  0  0  0  0  0  0
  183.7880  175.2310  136.6430 C   0  0  0  0  0  3  0  0  0  0  0  0
  182.7200  174.9690  137.5220 C   0  0  0  0  0  0  0  0  0  0  0  0
  189.4680  178.0180  139.8590 C   0  0  0  0  0  2  0  0  0  0  0  0
  188.6560  178.1730  140.9900 O   0  0  0  0  0  0  0  0  0  0  0  0
  188.8050  177.0540  141.6730 O   0  0  0  0  0  0  0  0  0  0  0  0
  187.9980  177.2100  142.8100 C   0  0  1  0  0  3  0  0  0  0  0  0
  190.1510  177.6250  143.8110 O   0  0  0  0  0  1  0  0  0  0  0  0
  188.7800  177.8360  143.9680 C   0  0  2  0  0  3  0  0  0  0  0  0
  188.3310  177.2610  145.3050 C   0  0  0  0  0  2  0  0  0  0  0  0
  189.1360  177.8260  146.4670 C   0  0  0  0  0  2  0  0  0  0  0  0
  189.6450  176.7190  147.3750 C   0  0  0  0  0  2  0  0  0  0  0  0
  191.1210  176.9190  147.6740 C   0  0  0  0  0  2  0  0  0  0  0  0
  191.9210  175.7300  147.1780 C   0  0  0  0  0  3  0  0  0  0  0  0
  193.1670  175.7200  147.8030 O   0  0  0  0  0  1  0  0  0  0  0  0
  192.0990  175.8240  145.7980 O   0  0  0  0  0  1  0  0  0  0  0  0
  186.7260  177.9890  142.4830 C   0  0  0  0  0  2  0  0  0  0  0  0
  185.8560  178.2170  143.7090 C   0  0  0  0  0  2  0  0  0  0  0  0
  184.4840  178.6920  143.2740 C   0  0  0  0  0  2  0  0  0  0  0  0
  183.5890  178.8970  144.4840 C   0  0  0  0  0  2  0  0  0  0  0  0
  184.3890  178.7440  145.7640 C   0  0  0  0  0  1  0  0  0  0  0  0
  1  3  1  0  0  0  0
  1  2  1  0  0  0  0
  2  4  1  0  0  0  0
  2 19  1  0  0  0  0
  3  2  1  0  0  0  0
  5 15  1  0  0  0  0
  5  4  1  0  0  0  0
  7 10  1  6  0  0  0
  8 15  1  0  0  0  0
  8 14  1  0  0  0  0
  9  7  1  0  0  0  0
  9 12  2  0  0  0  0
 11  8  2  0  0  0  0
 13 14  2  0  0  0  0
 13  6  1  0  0  0  0
 14  7  1  0  0  0  0
 15  9  1  0  0  0  0
 16 18  1  0  0  0  0
 17 11  1  0  0  0  0
 17 18  2  0  0  0  0
 18 13  1  0  0  0  0
 19 20  1  0  0  0  0
 20 21  1  0  0  0  0
 21 22  1  0  0  0  0
 22 32  1  6  0  0  0
 22 24  1  0  0  0  0
 24 23  1  6  0  0  0
 24 25  1  0  0  0  0
 25 26  1  0  0  0  0
 26 27  1  0  0  0  0
 27 28  1  0  0  0  0
 29 28  1  0  0  0  0
 29 30  1  0  0  0  0
 31 29  1  0  0  0  0
 32 33  1  0  0  0  0
 34 33  1  0  0  0  0
 34 35  1  0  0  0  0
 35 36  1  0  0  0  0
M  END
>  <MODEL>
8

>  <REMARK>
 VINA RESULT:      -6.9      3.492      6.518
  Name = 
  17 active torsions:
  status: ('A' for Active; 'I' for Inactive)
    1  A    between atoms: N_4  and  C_10
    2  A    between atoms: N_4  and  N_31
    3  A    between atoms: O_6  and  C_20
    4  A    between atoms: O_6  and  O_32
    5  A    between atoms: C_7  and  C_22
    6  A    between atoms: C_7  and  C_30
    7  A    between atoms: C_8  and  C_24
    8  A    between atoms: C_8  and  C_29
    9  A    between atoms: C_10  and  C_17
   10  A    between atoms: C_11  and  C_29
   11  A    between atoms: C_14  and  C_19
   12  A    between atoms: C_14  and  C_25
   13  A    between atoms: C_15  and  C_25
   14  A    between atoms: C_17  and  C_20
   15  A    between atoms: C_19  and  C_30
   16  A    between atoms: C_22  and  C_24
   17  A    between atoms: C_30  and  O_32
                            x       y       z     vdW  Elec       q    Type
                         _______ _______ _______ _____ _____    ______ ____

>  <TORSDO>
F 17

$$$$
=
 OpenBabel11032419283D

 36 38  0  0  1  0  0  0  0  0999 V2000
  189.0370  177.4190  137.3440 C   0  0  0  0  0  2  0  0  0  0  0  0
  188.7280  178.0640  138.6740 C   0  0  0  0  0  0  0  0  0  0  0  0
  189.0520  178.9370  137.4800 C   0  0  0  0  0  2  0  0  0  0  0  0
  187.2640  177.9760  139.0560 C   0  0  0  0  0  2  0  0  0  0  0  0
  186.4530  178.6620  138.0640 N   0  0  0  0  0  2  0  0  0  0  0  0
  181.4580  175.6190  139.5900 N   0  0  0  0  0  1  0  0  0  0  0  0
  183.3220  178.0300  140.0180 C   0  0  1  0  0  3  0  0  0  0  0  0
  184.3500  177.3240  138.0070 C   0  0  0  0  0  0  0  0  0  0  0  0
  184.5350  178.8400  139.6490 C   0  0  0  0  0  0  0  0  0  0  0  0
  182.0840  178.9070  139.9530 C   0  0  0  0  0  1  0  0  0  0  0  0
  184.6140  176.5320  136.9370 N   0  0  0  0  0  0  0  0  0  0  0  0
  185.0300  179.7390  140.3790 O   0  0  0  0  0  0  0  0  0  0  0  0
  182.5080  175.9340  138.6780 C   0  0  0  0  0  0  0  0  0  0  0  0
  183.3200  177.0510  138.8810 C   0  0  0  0  0  0  0  0  0  0  0  0
  185.1080  178.4510  138.4030 N   0  0  0  0  0  0  0  0  0  0  0  0
  181.9680  173.9710  137.2970 N   0  0  0  0  0  1  0  0  0  0  0  0
  183.8330  175.4400  136.6980 C   0  0  0  0  0  3  0  0  0  0  0  0
  182.7640  175.1220  137.5580 C   0  0  0  0  0  0  0  0  0  0  0  0
  189.7990  177.8420  139.7440 C   0  0  0  0  0  2  0  0  0  0  0  0
  189.2350  177.5040  140.9810 O   0  0  0  0  0  0  0  0  0  0  0  0
  190.1240  177.8880  141.8780 O   0  0  0  0  0  0  0  0  0  0  0  0
  189.4640  177.7890  143.1110 C   0  0  1  0  0  3  0  0  0  0  0  0
  187.2170  178.3010  142.4010 O   0  0  0  0  0  1  0  0  0  0  0  0
  188.0250  177.2950  142.9360 C   0  0  2  0  0  3  0  0  0  0  0  0
  187.4400  176.8310  144.2630 C   0  0  0  0  0  2  0  0  0  0  0  0
  187.0180  178.0030  145.1400 C   0  0  0  0  0  2  0  0  0  0  0  0
  185.7610  177.6770  145.9290 C   0  0  0  0  0  2  0  0  0  0  0  0
  184.7120  178.7540  145.7180 C   0  0  0  0  0  2  0  0  0  0  0  0
  184.1640  178.6810  144.3050 C   0  0  0  0  0  3  0  0  0  0  0  0
  184.5650  179.8120  143.5960 O   0  0  0  0  0  1  0  0  0  0  0  0
  182.7710  178.6290  144.3410 O   0  0  0  0  0  1  0  0  0  0  0  0
  190.2540  176.9300  144.0960 C   0  0  0  0  0  2  0  0  0  0  0  0
  190.7070  177.7170  145.3150 C   0  0  0  0  0  2  0  0  0  0  0  0
  190.9970  176.7590  146.4550 C   0  0  0  0  0  2  0  0  0  0  0  0
  189.7740  176.6100  147.3430 C   0  0  0  0  0  2  0  0  0  0  0  0
  189.3610  177.9580  147.9040 C   0  0  0  0  0  1  0  0  0  0  0  0
  1  3  1  0  0  0  0
  1  2  1  0  0  0  0
  2  4  1  0  0  0  0
  2 19  1  0  0  0  0
  3  2  1  0  0  0  0
  5 15  1  0  0  0  0
  5  4  1  0  0  0  0
  7 10  1  6  0  0  0
  8 15  1  0  0  0  0
  8 14  1  0  0  0  0
  9  7  1  0  0  0  0
  9 12  2  0  0  0  0
 11  8  2  0  0  0  0
 13 14  2  0  0  0  0
 13  6  1  0  0  0  0
 14  7  1  0  0  0  0
 15  9  1  0  0  0  0
 16 18  1  0  0  0  0
 17 11  1  0  0  0  0
 17 18  2  0  0  0  0
 18 13  1  0  0  0  0
 19 20  1  0  0  0  0
 20 21  1  0  0  0  0
 21 22  1  0  0  0  0
 22 32  1  1  0  0  0
 24 23  1  1  0  0  0
 24 22  1  0  0  0  0
 24 25  1  0  0  0  0
 25 26  1  0  0  0  0
 26 27  1  0  0  0  0
 28 27  1  0  0  0  0
 29 31  1  0  0  0  0
 29 28  1  0  0  0  0
 30 29  1  0  0  0  0
 32 33  1  0  0  0  0
 33 34  1  0  0  0  0
 34 35  1  0  0  0  0
 35 36  1  0  0  0  0
M  END
>  <MODEL>
9

>  <REMARK>
 VINA RESULT:      -6.7      3.329      5.187
  Name = 
  17 active torsions:
  status: ('A' for Active; 'I' for Inactive)
    1  A    between atoms: N_4  and  C_10
    2  A    between atoms: N_4  and  N_31
    3  A    between atoms: O_6  and  C_20
    4  A    between atoms: O_6  and  O_32
    5  A    between atoms: C_7  and  C_22
    6  A    between atoms: C_7  and  C_30
    7  A    between atoms: C_8  and  C_24
    8  A    between atoms: C_8  and  C_29
    9  A    between atoms: C_10  and  C_17
   10  A    between atoms: C_11  and  C_29
   11  A    between atoms: C_14  and  C_19
   12  A    between atoms: C_14  and  C_25
   13  A    between atoms: C_15  and  C_25
   14  A    between atoms: C_17  and  C_20
   15  A    between atoms: C_19  and  C_30
   16  A    between atoms: C_22  and  C_24
   17  A    between atoms: C_30  and  O_32
                            x       y       z     vdW  Elec       q    Type
                         _______ _______ _______ _____ _____    ______ ____

>  <TORSDO>
F 17

$$$$
