=
 OpenBabel11032420463D

 47 52  0  0  1  0  0  0  0  0999 V2000
  185.0840  178.9920  138.1820 C   0  0  0  0  0  2  0  0  0  0  0  0
  182.2900  175.8060  139.1590 C   0  0  1  0  0  3  0  0  0  0  0  0
  184.9250  177.2120  136.5990 C   0  0  1  0  0  3  0  0  0  0  0  0
  186.3070  175.8220  135.2220 O   0  0  0  0  0  0  0  0  0  0  0  0
  183.3280  175.8310  138.0780 C   0  0  1  0  0  3  0  0  0  0  0  0
  183.7550  178.3050  138.4610 C   0  0  2  0  0  0  0  0  0  0  0  0
  182.6310  179.3050  138.2520 C   0  0  0  0  0  1  0  0  0  0  0  0
  183.7650  177.8160  139.9200 C   0  0  0  0  0  2  0  0  0  0  0  0
  182.6260  176.8390  140.2710 C   0  0  1  0  0  3  0  0  0  0  0  0
  185.9350  177.9930  137.4200 C   0  0  2  0  0  3  0  0  0  0  0  0
  183.8980  174.6890  137.6880 C   0  0  0  0  0  3  0  0  0  0  0  0
  185.4220  175.8760  136.1160 C   0  0  0  0  0  0  0  0  0  0  0  0
  183.6400  177.1630  137.4290 C   0  0  1  0  0  3  0  0  0  0  0  0
  184.9100  174.6690  136.6810 N   0  0  0  0  0  0  0  0  0  0  0  0
  180.8950  175.9870  138.5540 C   0  0  0  0  0  2  0  0  0  0  0  0
  179.9890  174.8230  138.9270 C   0  0  0  0  0  2  0  0  0  0  0  0
  179.8940  173.8460  137.7690 C   0  0  0  0  0  2  0  0  0  0  0  0
  180.4570  172.6220  138.1320 O   0  0  0  0  0  0  0  0  0  0  0  0
  180.6470  171.9500  136.9210 C   0  0  0  0  0  1  0  0  0  0  0  0
  186.5930  177.1410  138.3530 O   0  0  0  0  0  0  0  0  0  0  0  0
  190.1210  176.2250  137.8400 C   0  0  0  0  0  3  0  0  0  0  0  0
  188.7370  176.3210  137.7000 C   0  0  0  0  0  3  0  0  0  0  0  0
  190.0270  177.6990  139.7540 C   0  0  0  0  0  3  0  0  0  0  0  0
  188.6390  177.8100  139.6180 C   0  0  0  0  0  0  0  0  0  0  0  0
  190.7760  176.9110  138.8690 C   0  0  0  0  0  0  0  0  0  0  0  0
  187.9780  177.1120  138.5730 C   0  0  0  0  0  0  0  0  0  0  0  0
  187.8100  178.7760  140.8330 Cl  0  0  0  0  0  0  0  0  0  0  0  0
  192.2010  176.8010  139.0170 N   0  0  0  0  0  0  0  0  0  0  0  0
  192.8280  177.3470  140.1170 O   0  0  0  0  0  0  0  0  0  0  0  0
  192.8930  176.2820  138.1130 O   0  0  0  0  0  0  0  0  0  0  0  0
  181.4070  177.5490  140.8850 C   0  0  0  0  0  2  0  0  0  0  0  0
  181.7310  178.9060  141.5160 C   0  0  1  0  0  3  0  0  0  0  0  0
  180.7370  179.8440  141.2200 O   0  0  0  0  0  1  0  0  0  0  0  0
  181.9270  178.7890  142.9960 C   0  0  0  0  0  3  0  0  0  0  0  0
  183.0850  179.1190  143.5620 C   0  0  0  0  0  3  0  0  0  0  0  0
  183.2510  178.9880  145.0390 C   0  0  0  0  0  2  0  0  0  0  0  0
  184.6700  178.6820  145.3660 C   0  0  0  0  0  0  0  0  0  0  0  0
  185.3210  179.2130  146.4160 N   0  0  0  0  0  0  0  0  0  0  0  0
  186.6250  177.9510  145.2770 C   0  0  0  0  0  0  0  0  0  0  0  0
  186.5540  178.7400  146.3700 N   0  0  0  0  0  0  0  0  0  0  0  0
  185.4500  177.8750  144.6210 N   0  0  0  0  0  2  0  0  0  0  0  0
  190.2050  176.6380  143.3490 C   0  0  0  0  0  3  0  0  0  0  0  0
  190.1690  177.9420  144.0930 C   0  0  0  0  0  2  0  0  0  0  0  0
  187.7580  176.6710  143.4420 C   0  0  0  0  0  2  0  0  0  0  0  0
  187.8380  177.1440  144.9030 C   0  0  1  0  0  3  0  0  0  0  0  0
  189.0550  176.0320  143.0330 C   0  0  0  0  0  3  0  0  0  0  0  0
  189.1520  177.8930  145.2420 C   0  0  0  0  0  2  0  0  0  0  0  0
  1  6  1  0  0  0  0
  2 15  1  6  0  0  0
  2  9  1  0  0  0  0
  3 12  1  1  0  0  0
  3 10  1  0  0  0  0
  3 13  1  0  0  0  0
  4 12  2  0  0  0  0
  5 11  1  6  0  0  0
  5  2  1  0  0  0  0
  6  7  1  6  0  0  0
  6  8  1  0  0  0  0
  8  9  1  0  0  0  0
  9 31  1  6  0  0  0
 10  1  1  0  0  0  0
 10 20  1  1  0  0  0
 12 14  1  0  0  0  0
 13  5  1  0  0  0  0
 13  6  1  0  0  0  0
 14 11  2  0  0  0  0
 15 16  1  0  0  0  0
 17 18  1  0  0  0  0
 17 16  1  0  0  0  0
 19 18  1  0  0  0  0
 20 26  1  0  0  0  0
 21 25  1  0  0  0  0
 22 21  2  0  0  0  0
 22 26  1  0  0  0  0
 24 23  1  0  0  0  0
 24 27  1  0  0  0  0
 25 28  1  0  0  0  0
 25 23  2  0  0  0  0
 26 24  2  0  0  0  0
 28 29  2  0  0  0  0
 30 28  2  0  0  0  0
 31 32  1  0  0  0  0
 32 34  1  0  0  0  0
 33 32  1  0  0  0  0
 34 35  2  0  0  0  0
 35 36  1  0  0  0  0
 36 37  1  0  0  0  0
 37 38  2  0  0  0  0
 39 40  2  0  0  0  0
 40 38  1  0  0  0  0
 41 39  1  0  0  0  0
 41 37  1  0  0  0  0
 42 43  1  0  0  0  0
 43 47  1  0  0  0  0
 44 45  1  0  0  0  0
 45 47  1  0  0  0  0
 45 39  1  0  0  0  0
 46 42  2  0  0  0  0
 46 44  1  0  0  0  0
M  END
>  <MODEL>
1

>  <REMARK>
 VINA RESULT:      -8.2      0.000      0.000
  Name = 
  13 active torsions:
  status: ('A' for Active; 'I' for Inactive)
    1  A    between atoms: N_2  and  C_34
    2  A    between atoms: C_4  and  C_21
    3  A    between atoms: C_5  and  C_18
    4  A    between atoms: C_6  and  C_7
    5  A    between atoms: C_7  and  C_11
    6  A    between atoms: O_14  and  C_20
    7  A    between atoms: C_18  and  C_32
    8  A    between atoms: C_20  and  C_30
    9  A    between atoms: C_21  and  C_30
   10  A    between atoms: C_22  and  C_29
   11  A    between atoms: O_31  and  C_37
   12  A    between atoms: O_31  and  C_40
   13  A    between atoms: C_32  and  C_35
                            x       y       z     vdW  Elec       q    Type
                         _______ _______ _______ _____ _____    ______ ____

>  <TORSDO>
F 13

$$$$
=
 OpenBabel11032420463D

 47 52  0  0  1  0  0  0  0  0999 V2000
  184.8470  179.4560  138.6720 C   0  0  0  0  0  2  0  0  0  0  0  0
  181.8680  176.4960  139.8010 C   0  0  1  0  0  3  0  0  0  0  0  0
  184.4270  177.7280  137.0800 C   0  0  1  0  0  3  0  0  0  0  0  0
  185.5860  176.2550  135.5870 O   0  0  0  0  0  0  0  0  0  0  0  0
  182.8260  176.4560  138.6490 C   0  0  1  0  0  3  0  0  0  0  0  0
  183.4870  178.8770  139.0360 C   0  0  2  0  0  0  0  0  0  0  0  0
  182.4400  179.9710  138.9220 C   0  0  0  0  0  1  0  0  0  0  0  0
  183.5580  178.3600  140.4830 C   0  0  0  0  0  2  0  0  0  0  0  0
  182.3670  177.4750  140.9010 C   0  0  1  0  0  3  0  0  0  0  0  0
  185.5550  178.4060  137.8370 C   0  0  2  0  0  3  0  0  0  0  0  0
  183.2690  175.2780  138.2030 C   0  0  0  0  0  3  0  0  0  0  0  0
  184.7730  176.3660  136.5440 C   0  0  0  0  0  0  0  0  0  0  0  0
  183.2030  177.7700  137.9990 C   0  0  1  0  0  3  0  0  0  0  0  0
  184.2010  175.1940  137.1260 N   0  0  0  0  0  0  0  0  0  0  0  0
  180.4540  176.8050  139.3010 C   0  0  0  0  0  2  0  0  0  0  0  0
  179.4720  175.7400  139.7640 C   0  0  0  0  0  2  0  0  0  0  0  0
  180.2180  174.4750  140.1470 C   0  0  0  0  0  2  0  0  0  0  0  0
  179.3150  173.4980  140.5670 O   0  0  0  0  0  0  0  0  0  0  0  0
  179.2710  173.6350  141.9580 C   0  0  0  0  0  1  0  0  0  0  0  0
  186.2010  177.4830  138.7080 O   0  0  0  0  0  0  0  0  0  0  0  0
  189.7320  176.5900  138.1700 C   0  0  0  0  0  3  0  0  0  0  0  0
  188.3490  176.7000  138.0230 C   0  0  0  0  0  3  0  0  0  0  0  0
  189.6230  177.9330  140.1760 C   0  0  0  0  0  3  0  0  0  0  0  0
  188.2370  178.0580  140.0350 C   0  0  0  0  0  0  0  0  0  0  0  0
  190.3790  177.2030  139.2480 C   0  0  0  0  0  0  0  0  0  0  0  0
  187.5840  177.4340  138.9400 C   0  0  0  0  0  0  0  0  0  0  0  0
  187.3980  178.9440  141.3040 Cl  0  0  0  0  0  0  0  0  0  0  0  0
  191.8010  177.0780  139.4020 N   0  0  0  0  0  0  0  0  0  0  0  0
  192.5580  176.4960  138.4070 O   0  0  0  0  0  0  0  0  0  0  0  0
  192.3550  177.4220  140.4700 O   0  0  0  0  0  0  0  0  0  0  0  0
  181.2600  178.2720  141.6110 C   0  0  0  0  0  2  0  0  0  0  0  0
  181.7820  179.3730  142.5370 C   0  0  1  0  0  3  0  0  0  0  0  0
  180.7620  180.2700  142.8720 O   0  0  0  0  0  1  0  0  0  0  0  0
  182.4100  178.7990  143.7690 C   0  0  0  0  0  3  0  0  0  0  0  0
  183.5420  179.2990  144.2580 C   0  0  0  0  0  3  0  0  0  0  0  0
  184.1450  178.7040  145.4850 C   0  0  0  0  0  2  0  0  0  0  0  0
  185.5420  178.2690  145.2060 C   0  0  0  0  0  0  0  0  0  0  0  0
  185.9020  177.5960  144.0990 N   0  0  0  0  0  0  0  0  0  0  0  0
  187.5850  177.8780  145.3960 C   0  0  0  0  0  0  0  0  0  0  0  0
  187.1980  177.3600  144.2110 N   0  0  0  0  0  0  0  0  0  0  0  0
  186.5700  178.4760  146.0510 N   0  0  0  0  0  2  0  0  0  0  0  0
  191.5920  176.7120  146.3110 C   0  0  0  0  0  3  0  0  0  0  0  0
  191.1050  176.7320  144.8900 C   0  0  0  0  0  2  0  0  0  0  0  0
  189.2400  176.8560  146.9780 C   0  0  0  0  0  2  0  0  0  0  0  0
  189.0110  177.9020  145.8750 C   0  0  1  0  0  3  0  0  0  0  0  0
  190.7030  176.7660  147.3090 C   0  0  0  0  0  3  0  0  0  0  0  0
  190.0130  177.7940  144.6980 C   0  0  0  0  0  2  0  0  0  0  0  0
  1  6  1  0  0  0  0
  2 15  1  6  0  0  0
  2  9  1  0  0  0  0
  3 12  1  1  0  0  0
  3 10  1  0  0  0  0
  3 13  1  0  0  0  0
  4 12  2  0  0  0  0
  5 11  1  6  0  0  0
  5  2  1  0  0  0  0
  6  7  1  6  0  0  0
  6  8  1  0  0  0  0
  8  9  1  0  0  0  0
  9 31  1  6  0  0  0
 10  1  1  0  0  0  0
 10 20  1  1  0  0  0
 12 14  1  0  0  0  0
 13  5  1  0  0  0  0
 13  6  1  0  0  0  0
 14 11  2  0  0  0  0
 15 16  1  0  0  0  0
 16 17  1  0  0  0  0
 17 18  1  0  0  0  0
 18 19  1  0  0  0  0
 20 26  1  0  0  0  0
 21 25  1  0  0  0  0
 22 21  2  0  0  0  0
 22 26  1  0  0  0  0
 24 23  1  0  0  0  0
 24 27  1  0  0  0  0
 25 28  1  0  0  0  0
 25 23  2  0  0  0  0
 26 24  2  0  0  0  0
 28 30  2  0  0  0  0
 29 28  2  0  0  0  0
 31 32  1  0  0  0  0
 32 33  1  0  0  0  0
 32 34  1  0  0  0  0
 34 35  2  0  0  0  0
 35 36  1  0  0  0  0
 37 36  1  0  0  0  0
 37 41  1  0  0  0  0
 38 40  1  0  0  0  0
 38 37  2  0  0  0  0
 39 45  1  0  0  0  0
 39 41  1  0  0  0  0
 40 39  2  0  0  0  0
 42 46  2  0  0  0  0
 43 42  1  0  0  0  0
 44 46  1  0  0  0  0
 45 44  1  0  0  0  0
 47 43  1  0  0  0  0
 47 45  1  0  0  0  0
M  END
>  <MODEL>
2

>  <REMARK>
 VINA RESULT:      -8.1      1.278      1.822
  Name = 
  13 active torsions:
  status: ('A' for Active; 'I' for Inactive)
    1  A    between atoms: N_2  and  C_34
    2  A    between atoms: C_4  and  C_21
    3  A    between atoms: C_5  and  C_18
    4  A    between atoms: C_6  and  C_7
    5  A    between atoms: C_7  and  C_11
    6  A    between atoms: O_14  and  C_20
    7  A    between atoms: C_18  and  C_32
    8  A    between atoms: C_20  and  C_30
    9  A    between atoms: C_21  and  C_30
   10  A    between atoms: C_22  and  C_29
   11  A    between atoms: O_31  and  C_37
   12  A    between atoms: O_31  and  C_40
   13  A    between atoms: C_32  and  C_35
                            x       y       z     vdW  Elec       q    Type
                         _______ _______ _______ _____ _____    ______ ____

>  <TORSDO>
F 13

$$$$
=
 OpenBabel11032420463D

 47 52  0  0  1  0  0  0  0  0999 V2000
  188.9640  178.3750  138.4990 C   0  0  0  0  0  2  0  0  0  0  0  0
  187.2620  174.8280  136.6450 C   0  0  1  0  0  3  0  0  0  0  0  0
  190.5240  176.8150  137.5870 C   0  0  1  0  0  3  0  0  0  0  0  0
  192.6140  175.7630  138.0990 O   0  0  0  0  0  0  0  0  0  0  0  0
  188.6950  175.0990  136.9880 C   0  0  0  0  0  0  0  0  0  0  0  0
  188.1760  177.5300  137.5080 C   0  0  2  0  0  0  0  0  0  0  0  0
  187.6270  178.4330  136.4180 C   0  0  0  0  0  1  0  0  0  0  0  0
  187.0200  176.8550  138.2670 C   0  0  0  0  0  2  0  0  0  0  0  0
  186.3140  175.7320  137.4820 C   0  0  1  0  0  3  0  0  0  0  0  0
  190.2010  177.5750  138.8610 C   0  0  2  0  0  3  0  0  0  0  0  0
  189.5000  174.0810  137.3000 C   0  0  0  0  0  3  0  0  0  0  0  0
  191.4020  175.6110  137.7910 C   0  0  0  0  0  0  0  0  0  0  0  0
  189.1830  176.5300  136.9030 C   0  0  1  0  0  3  0  0  0  0  0  0
  190.8650  174.2950  137.6580 N   0  0  0  0  0  2  0  0  0  0  0  0
  187.0490  174.9510  135.1330 C   0  0  0  0  0  2  0  0  0  0  0  0
  186.2960  173.7440  134.5940 C   0  0  0  0  0  2  0  0  0  0  0  0
  186.1610  172.6880  135.6760 C   0  0  0  0  0  2  0  0  0  0  0  0
  186.4880  171.4340  135.1600 O   0  0  0  0  0  0  0  0  0  0  0  0
  187.8860  171.4240  135.1210 C   0  0  0  0  0  1  0  0  0  0  0  0
  189.8770  176.6750  139.9150 O   0  0  0  0  0  0  0  0  0  0  0  0
  189.2860  176.8830  143.5430 C   0  0  0  0  0  3  0  0  0  0  0  0
  189.1060  176.6870  142.1740 C   0  0  0  0  0  3  0  0  0  0  0  0
  191.5820  177.5240  143.1460 C   0  0  0  0  0  3  0  0  0  0  0  0
  191.4160  177.3230  141.7720 C   0  0  0  0  0  0  0  0  0  0  0  0
  190.5240  177.3050  144.0390 C   0  0  0  0  0  0  0  0  0  0  0  0
  190.1580  176.8960  141.2720 C   0  0  0  0  0  0  0  0  0  0  0  0
  192.8020  177.6970  140.7540 Cl  0  0  0  0  0  0  0  0  0  0  0  0
  190.7030  177.5160  145.4490 N   0  0  0  0  0  0  0  0  0  0  0  0
  189.6670  178.0130  146.2120 O   0  0  0  0  0  0  0  0  0  0  0  0
  191.8200  177.3280  145.9810 O   0  0  0  0  0  0  0  0  0  0  0  0
  185.0660  176.2310  136.7330 C   0  0  0  0  0  2  0  0  0  0  0  0
  183.7440  175.7660  137.3500 C   0  0  1  0  0  3  0  0  0  0  0  0
  183.8740  174.4890  137.9060 O   0  0  0  0  0  1  0  0  0  0  0  0
  183.2430  176.7410  138.3700 C   0  0  0  0  0  3  0  0  0  0  0  0
  183.4410  178.0480  138.2240 C   0  0  0  0  0  3  0  0  0  0  0  0
  182.9330  178.9940  139.2600 C   0  0  0  0  0  2  0  0  0  0  0  0
  183.9180  179.1090  140.3710 C   0  0  0  0  0  0  0  0  0  0  0  0
  185.2470  179.1700  140.1800 N   0  0  0  0  0  0  0  0  0  0  0  0
  184.7810  179.1910  142.2720 C   0  0  0  0  0  0  0  0  0  0  0  0
  185.7940  179.2370  141.3810 N   0  0  0  0  0  0  0  0  0  0  0  0
  183.5750  179.1250  141.6730 N   0  0  0  0  0  2  0  0  0  0  0  0
  185.1720  178.2780  146.4270 C   0  0  0  0  0  3  0  0  0  0  0  0
  186.1650  177.7520  145.4300 C   0  0  0  0  0  2  0  0  0  0  0  0
  183.7320  178.8030  144.5170 C   0  0  0  0  0  2  0  0  0  0  0  0
  184.9630  179.3290  143.7580 C   0  0  1  0  0  3  0  0  0  0  0  0
  184.0090  178.7750  145.9930 C   0  0  0  0  0  3  0  0  0  0  0  0
  186.2990  178.7040  144.2330 C   0  0  0  0  0  2  0  0  0  0  0  0
  1 10  1  0  0  0  0
  2 15  1  6  0  0  0
  2  5  1  0  0  0  0
  2  9  1  0  0  0  0
  3 12  1  1  0  0  0
  3 10  1  0  0  0  0
  5 11  2  0  0  0  0
  6  7  1  6  0  0  0
  6  8  1  0  0  0  0
  6  1  1  0  0  0  0
  9 31  1  6  0  0  0
  9  8  1  0  0  0  0
 10 20  1  1  0  0  0
 11 14  1  0  0  0  0
 12  4  2  0  0  0  0
 13  5  1  1  0  0  0
 13  6  1  0  0  0  0
 13  3  1  0  0  0  0
 14 12  1  0  0  0  0
 16 15  1  0  0  0  0
 16 17  1  0  0  0  0
 18 17  1  0  0  0  0
 19 18  1  0  0  0  0
 20 26  1  0  0  0  0
 21 25  1  0  0  0  0
 22 21  2  0  0  0  0
 23 25  2  0  0  0  0
 24 23  1  0  0  0  0
 25 28  1  0  0  0  0
 26 24  2  0  0  0  0
 26 22  1  0  0  0  0
 27 24  1  0  0  0  0
 28 30  2  0  0  0  0
 28 29  2  0  0  0  0
 31 32  1  0  0  0  0
 32 33  1  1  0  0  0
 32 34  1  0  0  0  0
 35 34  2  0  0  0  0
 35 36  1  0  0  0  0
 36 37  1  0  0  0  0
 37 41  1  0  0  0  0
 38 37  2  0  0  0  0
 38 40  1  0  0  0  0
 40 39  2  0  0  0  0
 41 39  1  0  0  0  0
 43 42  1  0  0  0  0
 44 46  1  0  0  0  0
 45 39  1  6  0  0  0
 45 47  1  0  0  0  0
 45 44  1  0  0  0  0
 46 42  2  0  0  0  0
 47 43  1  0  0  0  0
M  END
>  <MODEL>
3

>  <REMARK>
 VINA RESULT:      -8.1      2.733      5.540
  Name = 
  13 active torsions:
  status: ('A' for Active; 'I' for Inactive)
    1  A    between atoms: N_2  and  C_34
    2  A    between atoms: C_4  and  C_21
    3  A    between atoms: C_5  and  C_18
    4  A    between atoms: C_6  and  C_7
    5  A    between atoms: C_7  and  C_11
    6  A    between atoms: O_14  and  C_20
    7  A    between atoms: C_18  and  C_32
    8  A    between atoms: C_20  and  C_30
    9  A    between atoms: C_21  and  C_30
   10  A    between atoms: C_22  and  C_29
   11  A    between atoms: O_31  and  C_37
   12  A    between atoms: O_31  and  C_40
   13  A    between atoms: C_32  and  C_35
                            x       y       z     vdW  Elec       q    Type
                         _______ _______ _______ _____ _____    ______ ____

>  <TORSDO>
F 13

$$$$
=
 OpenBabel11032420463D

 47 52  0  0  1  0  0  0  0  0999 V2000
  188.3520  178.5860  139.1600 C   0  0  0  0  0  2  0  0  0  0  0  0
  188.4960  175.0620  136.6150 C   0  0  1  0  0  3  0  0  0  0  0  0
  190.5260  177.7280  138.6740 C   0  0  1  0  0  3  0  0  0  0  0  0
  192.6210  177.2650  139.7400 O   0  0  0  0  0  0  0  0  0  0  0  0
  189.6070  175.6790  137.4090 C   0  0  0  0  0  0  0  0  0  0  0  0
  188.1910  177.7270  137.9130 C   0  0  2  0  0  0  0  0  0  0  0  0
  187.6970  178.6000  136.7740 C   0  0  0  0  0  1  0  0  0  0  0  0
  187.1630  176.6240  138.2210 C   0  0  0  0  0  2  0  0  0  0  0  0
  187.1110  175.4940  137.1750 C   0  0  1  0  0  3  0  0  0  0  0  0
  189.6340  178.1350  139.8330 C   0  0  2  0  0  3  0  0  0  0  0  0
  190.5840  174.9040  137.8840 C   0  0  0  0  0  3  0  0  0  0  0  0
  191.6610  176.8180  139.0570 C   0  0  0  0  0  0  0  0  0  0  0  0
  189.5980  177.1830  137.5850 C   0  0  1  0  0  3  0  0  0  0  0  0
  191.6480  175.4450  138.6670 N   0  0  0  0  0  2  0  0  0  0  0  0
  188.6780  175.3700  135.1260 C   0  0  0  0  0  2  0  0  0  0  0  0
  189.9520  174.7310  134.5940 C   0  0  0  0  0  2  0  0  0  0  0  0
  189.8660  173.2200  134.7130 C   0  0  0  0  0  2  0  0  0  0  0  0
  191.1390  172.6610  134.6020 O   0  0  0  0  0  0  0  0  0  0  0  0
  192.0090  173.7530  134.6760 C   0  0  0  0  0  1  0  0  0  0  0  0
  189.3490  177.0150  140.6650 O   0  0  0  0  0  0  0  0  0  0  0  0
  187.7760  176.8170  143.9880 C   0  0  0  0  0  3  0  0  0  0  0  0
  187.9820  176.7930  142.6080 C   0  0  0  0  0  3  0  0  0  0  0  0
  190.0980  177.4020  144.3190 C   0  0  0  0  0  3  0  0  0  0  0  0
  190.3180  177.3720  142.9390 C   0  0  0  0  0  0  0  0  0  0  0  0
  188.8320  177.1240  144.8530 C   0  0  0  0  0  0  0  0  0  0  0  0
  189.2450  177.0610  142.0630 C   0  0  0  0  0  0  0  0  0  0  0  0
  191.9360  177.8040  142.3950 Cl  0  0  0  0  0  0  0  0  0  0  0  0
  188.6140  177.1590  146.2730 N   0  0  0  0  0  0  0  0  0  0  0  0
  187.4220  177.6340  146.7790 O   0  0  0  0  0  0  0  0  0  0  0  0
  189.5290  176.8360  147.0620 O   0  0  0  0  0  0  0  0  0  0  0  0
  186.0240  175.7240  136.1100 C   0  0  0  0  0  2  0  0  0  0  0  0
  184.6590  175.1400  136.4800 C   0  0  1  0  0  3  0  0  0  0  0  0
  184.8030  173.9870  137.2600 O   0  0  0  0  0  1  0  0  0  0  0  0
  183.8030  176.1500  137.1790 C   0  0  0  0  0  3  0  0  0  0  0  0
  184.0520  177.4520  137.0700 C   0  0  0  0  0  3  0  0  0  0  0  0
  183.1830  178.4340  137.7820 C   0  0  0  0  0  2  0  0  0  0  0  0
  183.7690  178.7620  139.1110 C   0  0  0  0  0  0  0  0  0  0  0  0
  184.6700  179.7410  139.3040 N   0  0  0  0  0  0  0  0  0  0  0  0
  184.2720  178.7070  141.1380 C   0  0  0  0  0  0  0  0  0  0  0  0
  184.9790  179.7180  140.5880 N   0  0  0  0  0  0  0  0  0  0  0  0
  183.4820  178.0860  140.2400 N   0  0  0  0  0  2  0  0  0  0  0  0
  183.8150  179.0460  145.3720 C   0  0  0  0  0  3  0  0  0  0  0  0
  182.6280  179.1770  144.4610 C   0  0  0  0  0  2  0  0  0  0  0  0
  185.2090  179.3290  143.3800 C   0  0  0  0  0  2  0  0  0  0  0  0
  184.2650  178.3910  142.6080 C   0  0  1  0  0  3  0  0  0  0  0  0
  185.0470  179.1230  144.8590 C   0  0  0  0  0  3  0  0  0  0  0  0
  182.8240  178.3530  143.1800 C   0  0  0  0  0  2  0  0  0  0  0  0
  1 10  1  0  0  0  0
  2 15  1  6  0  0  0
  2  9  1  0  0  0  0
  2  5  1  0  0  0  0
  3 12  1  1  0  0  0
  3 10  1  0  0  0  0
  5 11  2  0  0  0  0
  6  7  1  6  0  0  0
  6  8  1  0  0  0  0
  6  1  1  0  0  0  0
  9 31  1  6  0  0  0
  9  8  1  0  0  0  0
 10 20  1  1  0  0  0
 11 14  1  0  0  0  0
 12  4  2  0  0  0  0
 13  5  1  1  0  0  0
 13  6  1  0  0  0  0
 13  3  1  0  0  0  0
 14 12  1  0  0  0  0
 16 17  1  0  0  0  0
 16 15  1  0  0  0  0
 18 19  1  0  0  0  0
 18 17  1  0  0  0  0
 20 26  1  0  0  0  0
 21 25  1  0  0  0  0
 22 21  2  0  0  0  0
 23 25  2  0  0  0  0
 24 23  1  0  0  0  0
 25 28  1  0  0  0  0
 26 22  1  0  0  0  0
 26 24  2  0  0  0  0
 27 24  1  0  0  0  0
 28 29  2  0  0  0  0
 28 30  2  0  0  0  0
 31 32  1  0  0  0  0
 32 34  1  0  0  0  0
 32 33  1  1  0  0  0
 35 34  2  0  0  0  0
 35 36  1  0  0  0  0
 36 37  1  0  0  0  0
 37 38  2  0  0  0  0
 37 41  1  0  0  0  0
 38 40  1  0  0  0  0
 40 39  2  0  0  0  0
 41 39  1  0  0  0  0
 43 42  1  0  0  0  0
 44 46  1  0  0  0  0
 45 39  1  6  0  0  0
 45 47  1  0  0  0  0
 45 44  1  0  0  0  0
 46 42  2  0  0  0  0
 47 43  1  0  0  0  0
M  END
>  <MODEL>
4

>  <REMARK>
 VINA RESULT:      -7.7      2.870      6.796
  Name = 
  13 active torsions:
  status: ('A' for Active; 'I' for Inactive)
    1  A    between atoms: N_2  and  C_34
    2  A    between atoms: C_4  and  C_21
    3  A    between atoms: C_5  and  C_18
    4  A    between atoms: C_6  and  C_7
    5  A    between atoms: C_7  and  C_11
    6  A    between atoms: O_14  and  C_20
    7  A    between atoms: C_18  and  C_32
    8  A    between atoms: C_20  and  C_30
    9  A    between atoms: C_21  and  C_30
   10  A    between atoms: C_22  and  C_29
   11  A    between atoms: O_31  and  C_37
   12  A    between atoms: O_31  and  C_40
   13  A    between atoms: C_32  and  C_35
                            x       y       z     vdW  Elec       q    Type
                         _______ _______ _______ _____ _____    ______ ____

>  <TORSDO>
F 13

$$$$
=
 OpenBabel11032420463D

 47 52  0  0  1  0  0  0  0  0999 V2000
  187.9850  178.1190  137.2170 C   0  0  0  0  0  2  0  0  0  0  0  0
  185.9410  174.3770  136.3640 C   0  0  1  0  0  3  0  0  0  0  0  0
  189.3550  176.3280  136.4350 C   0  0  1  0  0  3  0  0  0  0  0  0
  191.4700  175.2850  136.8580 O   0  0  0  0  0  0  0  0  0  0  0  0
  187.4160  174.6310  136.4480 C   0  0  0  0  0  0  0  0  0  0  0  0
  187.0400  177.1410  136.5340 C   0  0  2  0  0  0  0  0  0  0  0  0
  186.3640  177.8420  135.3690 C   0  0  0  0  0  1  0  0  0  0  0  0
  185.9890  176.6910  137.5640 C   0  0  0  0  0  2  0  0  0  0  0  0
  185.1470  175.4770  137.1240 C   0  0  1  0  0  3  0  0  0  0  0  0
  189.2400  177.3400  137.5610 C   0  0  2  0  0  3  0  0  0  0  0  0
  188.2300  173.6510  136.8460 C   0  0  0  0  0  3  0  0  0  0  0  0
  190.2220  175.1410  136.7550 C   0  0  0  0  0  0  0  0  0  0  0  0
  187.9230  175.9890  136.0110 C   0  0  1  0  0  3  0  0  0  0  0  0
  189.6370  173.8560  136.9640 N   0  0  0  0  0  2  0  0  0  0  0  0
  185.5160  174.2120  134.9030 C   0  0  0  0  0  2  0  0  0  0  0  0
  184.6860  172.9500  134.7200 C   0  0  0  0  0  2  0  0  0  0  0  0
  184.9390  171.9900  135.8680 C   0  0  0  0  0  2  0  0  0  0  0  0
  183.8620  172.0110  136.7520 O   0  0  0  0  0  0  0  0  0  0  0  0
  183.1300  170.8600  136.4430 C   0  0  0  0  0  1  0  0  0  0  0  0
  189.0480  176.6820  138.8090 O   0  0  0  0  0  0  0  0  0  0  0  0
  191.3720  177.1930  141.6180 C   0  0  0  0  0  3  0  0  0  0  0  0
  190.8170  176.7770  140.4080 C   0  0  0  0  0  3  0  0  0  0  0  0
  189.3260  178.3650  142.1490 C   0  0  0  0  0  3  0  0  0  0  0  0
  188.7620  177.9610  140.9350 C   0  0  0  0  0  0  0  0  0  0  0  0
  190.6300  177.9880  142.4990 C   0  0  0  0  0  0  0  0  0  0  0  0
  189.5170  177.1540  140.0440 C   0  0  0  0  0  0  0  0  0  0  0  0
  187.0950  178.4460  140.6470 Cl  0  0  0  0  0  0  0  0  0  0  0  0
  191.2010  178.4060  143.7490 N   0  0  0  0  0  0  0  0  0  0  0  0
  191.3090  179.7480  144.0480 O   0  0  0  0  0  0  0  0  0  0  0  0
  191.6780  177.5620  144.5410 O   0  0  0  0  0  0  0  0  0  0  0  0
  183.8180  175.8870  136.4680 C   0  0  0  0  0  2  0  0  0  0  0  0
  182.6220  175.8710  137.4230 C   0  0  1  0  0  3  0  0  0  0  0  0
  182.7940  174.9060  138.4220 O   0  0  0  0  0  1  0  0  0  0  0  0
  182.3830  177.2210  138.0240 C   0  0  0  0  0  3  0  0  0  0  0  0
  182.5920  177.4410  139.3190 C   0  0  0  0  0  3  0  0  0  0  0  0
  182.3410  178.7960  139.8890 C   0  0  0  0  0  2  0  0  0  0  0  0
  182.6430  178.7980  141.3470 C   0  0  0  0  0  0  0  0  0  0  0  0
  181.7070  178.6400  142.2990 N   0  0  0  0  0  0  0  0  0  0  0  0
  183.6350  178.9580  143.1790 C   0  0  0  0  0  0  0  0  0  0  0  0
  182.3350  178.7260  143.4590 N   0  0  0  0  0  0  0  0  0  0  0  0
  183.8750  178.9970  141.8530 N   0  0  0  0  0  2  0  0  0  0  0  0
  186.4330  177.8980  146.2280 C   0  0  0  0  0  3  0  0  0  0  0  0
  186.5270  177.2910  144.8580 C   0  0  0  0  0  2  0  0  0  0  0  0
  184.1810  178.6300  145.6050 C   0  0  0  0  0  2  0  0  0  0  0  0
  184.7170  179.0360  144.2210 C   0  0  1  0  0  3  0  0  0  0  0  0
  185.3130  178.5330  146.5880 C   0  0  0  0  0  3  0  0  0  0  0  0
  185.9840  178.2530  143.7920 C   0  0  0  0  0  2  0  0  0  0  0  0
  1 10  1  0  0  0  0
  2 15  1  6  0  0  0
  2  5  1  0  0  0  0
  2  9  1  0  0  0  0
  3 12  1  1  0  0  0
  3 10  1  0  0  0  0
  5 11  2  0  0  0  0
  6  7  1  6  0  0  0
  6  1  1  0  0  0  0
  6  8  1  0  0  0  0
  9 31  1  6  0  0  0
  9  8  1  0  0  0  0
 10 20  1  1  0  0  0
 11 14  1  0  0  0  0
 12  4  2  0  0  0  0
 12 14  1  0  0  0  0
 13  3  1  0  0  0  0
 13  5  1  1  0  0  0
 13  6  1  0  0  0  0
 16 15  1  0  0  0  0
 16 17  1  0  0  0  0
 17 18  1  0  0  0  0
 19 18  1  0  0  0  0
 20 26  1  0  0  0  0
 21 25  1  0  0  0  0
 22 21  2  0  0  0  0
 23 25  2  0  0  0  0
 24 23  1  0  0  0  0
 25 28  1  0  0  0  0
 26 22  1  0  0  0  0
 26 24  2  0  0  0  0
 27 24  1  0  0  0  0
 28 29  2  0  0  0  0
 28 30  2  0  0  0  0
 31 32  1  0  0  0  0
 32 34  1  0  0  0  0
 32 33  1  1  0  0  0
 34 35  2  0  0  0  0
 35 36  1  0  0  0  0
 36 37  1  0  0  0  0
 37 41  1  0  0  0  0
 37 38  2  0  0  0  0
 38 40  1  0  0  0  0
 39 40  2  0  0  0  0
 41 39  1  0  0  0  0
 42 46  2  0  0  0  0
 43 42  1  0  0  0  0
 44 46  1  0  0  0  0
 45 39  1  6  0  0  0
 45 44  1  0  0  0  0
 47 45  1  0  0  0  0
 47 43  1  0  0  0  0
M  END
>  <MODEL>
5

>  <REMARK>
 VINA RESULT:      -7.5      2.536      4.509
  Name = 
  13 active torsions:
  status: ('A' for Active; 'I' for Inactive)
    1  A    between atoms: N_2  and  C_34
    2  A    between atoms: C_4  and  C_21
    3  A    between atoms: C_5  and  C_18
    4  A    between atoms: C_6  and  C_7
    5  A    between atoms: C_7  and  C_11
    6  A    between atoms: O_14  and  C_20
    7  A    between atoms: C_18  and  C_32
    8  A    between atoms: C_20  and  C_30
    9  A    between atoms: C_21  and  C_30
   10  A    between atoms: C_22  and  C_29
   11  A    between atoms: O_31  and  C_37
   12  A    between atoms: O_31  and  C_40
   13  A    between atoms: C_32  and  C_35
                            x       y       z     vdW  Elec       q    Type
                         _______ _______ _______ _____ _____    ______ ____

>  <TORSDO>
F 13

$$$$
=
 OpenBabel11032420463D

 47 52  0  0  1  0  0  0  0  0999 V2000
  186.6460  176.5890  135.2710 C   0  0  0  0  0  2  0  0  0  0  0  0
  183.2790  175.5640  137.8250 C   0  0  1  0  0  3  0  0  0  0  0  0
  186.0910  174.2700  135.3990 C   0  0  1  0  0  3  0  0  0  0  0  0
  187.1280  172.1200  135.5990 O   0  0  0  0  0  0  0  0  0  0  0  0
  184.2760  174.6430  137.1910 C   0  0  0  0  0  0  0  0  0  0  0  0
  185.2100  176.5320  135.7730 C   0  0  2  0  0  0  0  0  0  0  0  0
  184.3120  177.2400  134.7750 C   0  0  0  0  0  1  0  0  0  0  0  0
  185.1510  177.2430  137.1370 C   0  0  0  0  0  2  0  0  0  0  0  0
  183.8430  177.0100  137.9180 C   0  0  1  0  0  3  0  0  0  0  0  0
  187.2580  175.2290  135.5550 C   0  0  2  0  0  3  0  0  0  0  0  0
  184.5910  173.4970  137.7980 C   0  0  0  0  0  3  0  0  0  0  0  0
  186.2920  172.9380  136.0680 C   0  0  0  0  0  0  0  0  0  0  0  0
  184.8410  175.0350  135.8410 C   0  0  1  0  0  3  0  0  0  0  0  0
  185.5550  172.6030  137.2430 N   0  0  0  0  0  2  0  0  0  0  0  0
  181.9380  175.4760  137.0910 C   0  0  0  0  0  2  0  0  0  0  0  0
  180.7940  175.2900  138.0750 C   0  0  0  0  0  2  0  0  0  0  0  0
  180.3850  173.8280  138.1280 C   0  0  0  0  0  2  0  0  0  0  0  0
  179.6760  173.5750  139.3030 O   0  0  0  0  0  0  0  0  0  0  0  0
  179.8450  174.7320  140.0710 C   0  0  0  0  0  1  0  0  0  0  0  0
  187.7460  175.2140  136.8930 O   0  0  0  0  0  0  0  0  0  0  0  0
  191.3910  174.9260  137.3210 C   0  0  0  0  0  3  0  0  0  0  0  0
  190.0650  174.6590  136.9770 C   0  0  0  0  0  3  0  0  0  0  0  0
  190.7110  177.0310  138.2950 C   0  0  0  0  0  3  0  0  0  0  0  0
  189.3800  176.7790  137.9480 C   0  0  0  0  0  0  0  0  0  0  0  0
  191.7230  176.1120  137.9840 C   0  0  0  0  0  0  0  0  0  0  0  0
  189.0460  175.5740  137.2760 C   0  0  0  0  0  0  0  0  0  0  0  0
  188.1990  177.9820  138.4540 Cl  0  0  0  0  0  0  0  0  0  0  0  0
  193.0880  176.3790  138.3460 N   0  0  0  0  0  0  0  0  0  0  0  0
  193.3740  177.1270  139.4680 O   0  0  0  0  0  0  0  0  0  0  0  0
  194.0240  176.0030  137.6050 O   0  0  0  0  0  0  0  0  0  0  0  0
  182.8100  178.1260  137.6850 C   0  0  0  0  0  2  0  0  0  0  0  0
  182.7400  179.1540  138.8170 C   0  0  1  0  0  3  0  0  0  0  0  0
  181.7750  178.7900  139.7630 O   0  0  0  0  0  1  0  0  0  0  0  0
  184.0750  179.3440  139.4670 C   0  0  0  0  0  3  0  0  0  0  0  0
  184.3490  178.7910  140.6450 C   0  0  0  0  0  3  0  0  0  0  0  0
  185.6870  179.0020  141.2690 C   0  0  0  0  0  2  0  0  0  0  0  0
  185.6180  178.7200  142.7290 C   0  0  0  0  0  0  0  0  0  0  0  0
  184.5560  179.0280  143.4950 N   0  0  0  0  0  0  0  0  0  0  0  0
  186.1160  178.1570  144.6790 C   0  0  0  0  0  0  0  0  0  0  0  0
  184.8640  178.6600  144.7260 N   0  0  0  0  0  0  0  0  0  0  0  0
  186.6240  178.1630  143.4300 N   0  0  0  0  0  2  0  0  0  0  0  0
  188.6550  177.6000  148.0690 C   0  0  0  0  0  3  0  0  0  0  0  0
  187.5590  178.6270  148.0930 C   0  0  0  0  0  2  0  0  0  0  0  0
  188.3400  177.5140  145.6420 C   0  0  0  0  0  2  0  0  0  0  0  0
  186.8170  177.5400  145.8580 C   0  0  1  0  0  3  0  0  0  0  0  0
  189.0320  177.0720  146.9000 C   0  0  0  0  0  3  0  0  0  0  0  0
  186.3900  178.2050  147.1910 C   0  0  0  0  0  2  0  0  0  0  0  0
  1 10  1  0  0  0  0
  1  6  1  0  0  0  0
  2 15  1  6  0  0  0
  2  9  1  0  0  0  0
  3 10  1  0  0  0  0
  3 13  1  0  0  0  0
  3 12  1  1  0  0  0
  4 12  2  0  0  0  0
  5 11  2  0  0  0  0
  5  2  1  0  0  0  0
  6  7  1  6  0  0  0
  6 13  1  0  0  0  0
  6  8  1  0  0  0  0
  8  9  1  0  0  0  0
  9 31  1  6  0  0  0
 10 20  1  1  0  0  0
 12 14  1  0  0  0  0
 13  5  1  1  0  0  0
 14 11  1  0  0  0  0
 15 16  1  0  0  0  0
 16 17  1  0  0  0  0
 17 18  1  0  0  0  0
 18 19  1  0  0  0  0
 20 26  1  0  0  0  0
 21 25  1  0  0  0  0
 22 26  1  0  0  0  0
 22 21  2  0  0  0  0
 24 23  1  0  0  0  0
 24 27  1  0  0  0  0
 25 23  2  0  0  0  0
 25 28  1  0  0  0  0
 26 24  2  0  0  0  0
 28 29  2  0  0  0  0
 30 28  2  0  0  0  0
 31 32  1  0  0  0  0
 32 34  1  0  0  0  0
 32 33  1  1  0  0  0
 34 35  2  0  0  0  0
 35 36  1  0  0  0  0
 36 37  1  0  0  0  0
 37 41  1  0  0  0  0
 37 38  2  0  0  0  0
 38 40  1  0  0  0  0
 39 40  2  0  0  0  0
 41 39  1  0  0  0  0
 42 43  1  0  0  0  0
 44 45  1  0  0  0  0
 44 46  1  0  0  0  0
 45 39  1  6  0  0  0
 45 47  1  0  0  0  0
 46 42  2  0  0  0  0
 47 43  1  0  0  0  0
M  END
>  <MODEL>
6

>  <REMARK>
 VINA RESULT:      -7.4      1.864      2.866
  Name = 
  13 active torsions:
  status: ('A' for Active; 'I' for Inactive)
    1  A    between atoms: N_2  and  C_34
    2  A    between atoms: C_4  and  C_21
    3  A    between atoms: C_5  and  C_18
    4  A    between atoms: C_6  and  C_7
    5  A    between atoms: C_7  and  C_11
    6  A    between atoms: O_14  and  C_20
    7  A    between atoms: C_18  and  C_32
    8  A    between atoms: C_20  and  C_30
    9  A    between atoms: C_21  and  C_30
   10  A    between atoms: C_22  and  C_29
   11  A    between atoms: O_31  and  C_37
   12  A    between atoms: O_31  and  C_40
   13  A    between atoms: C_32  and  C_35
                            x       y       z     vdW  Elec       q    Type
                         _______ _______ _______ _____ _____    ______ ____

>  <TORSDO>
F 13

$$$$
=
 OpenBabel11032420463D

 47 52  0  0  1  0  0  0  0  0999 V2000
  187.1090  176.5410  135.3010 C   0  0  0  0  0  2  0  0  0  0  0  0
  183.8030  175.6350  137.9780 C   0  0  1  0  0  3  0  0  0  0  0  0
  186.2480  174.3160  135.1930 C   0  0  1  0  0  3  0  0  0  0  0  0
  186.9880  172.0430  135.0470 O   0  0  0  0  0  0  0  0  0  0  0  0
  184.6210  174.6830  137.1580 C   0  0  1  0  0  3  0  0  0  0  0  0
  185.7140  176.6050  135.9070 C   0  0  2  0  0  0  0  0  0  0  0  0
  184.8600  177.5470  135.0780 C   0  0  0  0  0  1  0  0  0  0  0  0
  185.8410  177.1330  137.3470 C   0  0  0  0  0  2  0  0  0  0  0  0
  184.5670  176.9710  138.1990 C   0  0  1  0  0  3  0  0  0  0  0  0
  187.5430  175.0880  135.3680 C   0  0  2  0  0  3  0  0  0  0  0  0
  184.8130  173.4370  137.5950 C   0  0  0  0  0  3  0  0  0  0  0  0
  186.3050  172.8930  135.6770 C   0  0  0  0  0  0  0  0  0  0  0  0
  185.1460  175.1720  135.8250 C   0  0  1  0  0  3  0  0  0  0  0  0
  185.6060  172.5050  136.8600 N   0  0  0  0  0  0  0  0  0  0  0  0
  182.4190  175.8160  137.3500 C   0  0  0  0  0  2  0  0  0  0  0  0
  181.4290  174.8140  137.9240 C   0  0  0  0  0  2  0  0  0  0  0  0
  180.9710  173.8550  136.8400 C   0  0  0  0  0  2  0  0  0  0  0  0
  181.4350  172.5690  137.1160 O   0  0  0  0  0  0  0  0  0  0  0  0
  180.3100  171.8840  137.5870 C   0  0  0  0  0  1  0  0  0  0  0  0
  188.1100  174.8350  136.6500 O   0  0  0  0  0  0  0  0  0  0  0  0
  191.6430  173.8130  136.7970 C   0  0  0  0  0  3  0  0  0  0  0  0
  190.2720  173.8310  136.5410 C   0  0  0  0  0  3  0  0  0  0  0  0
  191.4620  175.9540  137.9040 C   0  0  0  0  0  3  0  0  0  0  0  0
  190.0880  175.9880  137.6460 C   0  0  0  0  0  0  0  0  0  0  0  0
  192.2480  174.8720  137.4820 C   0  0  0  0  0  0  0  0  0  0  0  0
  189.4780  174.9110  136.9510 C   0  0  0  0  0  0  0  0  0  0  0  0
  189.2060  177.3700  138.2860 Cl  0  0  0  0  0  0  0  0  0  0  0  0
  193.6580  174.8440  137.7530 N   0  0  0  0  0  0  0  0  0  0  0  0
  194.2960  173.6430  137.9830 O   0  0  0  0  0  0  0  0  0  0  0  0
  194.3030  175.9110  137.8630 O   0  0  0  0  0  0  0  0  0  0  0  0
  183.6850  178.2310  138.1870 C   0  0  0  0  0  2  0  0  0  0  0  0
  184.1180  179.3020  139.1920 C   0  0  1  0  0  3  0  0  0  0  0  0
  183.6040  180.5550  138.8390 O   0  0  0  0  0  1  0  0  0  0  0  0
  183.7150  178.9370  140.5870 C   0  0  0  0  0  3  0  0  0  0  0  0
  184.5860  179.0010  141.5900 C   0  0  0  0  0  3  0  0  0  0  0  0
  184.1560  178.6280  142.9690 C   0  0  0  0  0  2  0  0  0  0  0  0
  185.3420  178.2510  143.7870 C   0  0  0  0  0  0  0  0  0  0  0  0
  185.4640  178.5390  145.0950 N   0  0  0  0  0  0  0  0  0  0  0  0
  187.2190  177.5450  144.3720 C   0  0  0  0  0  0  0  0  0  0  0  0
  186.6440  178.0810  145.4700 N   0  0  0  0  0  0  0  0  0  0  0  0
  186.4220  177.6190  143.2880 N   0  0  0  0  0  2  0  0  0  0  0  0
  191.3070  176.5400  143.6460 C   0  0  0  0  0  3  0  0  0  0  0  0
  190.9470  177.8040  144.3720 C   0  0  0  0  0  2  0  0  0  0  0  0
  188.9600  176.4210  142.9590 C   0  0  0  0  0  2  0  0  0  0  0  0
  188.5430  176.8310  144.3820 C   0  0  1  0  0  3  0  0  0  0  0  0
  190.3620  175.8820  142.9680 C   0  0  0  0  0  3  0  0  0  0  0  0
  189.6260  177.6410  145.1390 C   0  0  0  0  0  2  0  0  0  0  0  0
  1 10  1  0  0  0  0
  1  6  1  0  0  0  0
  2 15  1  6  0  0  0
  2  9  1  0  0  0  0
  3 10  1  0  0  0  0
  3 12  1  1  0  0  0
  3 13  1  0  0  0  0
  4 12  2  0  0  0  0
  5 11  1  6  0  0  0
  5  2  1  0  0  0  0
  6  7  1  6  0  0  0
  6  8  1  0  0  0  0
  8  9  1  0  0  0  0
  9 31  1  6  0  0  0
 10 20  1  1  0  0  0
 12 14  1  0  0  0  0
 13  6  1  0  0  0  0
 13  5  1  0  0  0  0
 14 11  2  0  0  0  0
 15 16  1  0  0  0  0
 17 18  1  0  0  0  0
 17 16  1  0  0  0  0
 18 19  1  0  0  0  0
 20 26  1  0  0  0  0
 21 25  1  0  0  0  0
 22 21  2  0  0  0  0
 22 26  1  0  0  0  0
 24 23  1  0  0  0  0
 24 27  1  0  0  0  0
 25 28  1  0  0  0  0
 25 23  2  0  0  0  0
 26 24  2  0  0  0  0
 28 30  2  0  0  0  0
 28 29  2  0  0  0  0
 31 32  1  0  0  0  0
 32 34  1  0  0  0  0
 33 32  1  0  0  0  0
 34 35  2  0  0  0  0
 35 36  1  0  0  0  0
 36 37  1  0  0  0  0
 37 38  2  0  0  0  0
 38 40  1  0  0  0  0
 39 45  1  0  0  0  0
 39 40  2  0  0  0  0
 41 37  1  0  0  0  0
 41 39  1  0  0  0  0
 42 43  1  0  0  0  0
 43 47  1  0  0  0  0
 44 46  1  0  0  0  0
 44 45  1  0  0  0  0
 45 47  1  0  0  0  0
 46 42  2  0  0  0  0
M  END
>  <MODEL>
7

>  <REMARK>
 VINA RESULT:      -7.3      1.854      2.686
  Name = 
  13 active torsions:
  status: ('A' for Active; 'I' for Inactive)
    1  A    between atoms: N_2  and  C_34
    2  A    between atoms: C_4  and  C_21
    3  A    between atoms: C_5  and  C_18
    4  A    between atoms: C_6  and  C_7
    5  A    between atoms: C_7  and  C_11
    6  A    between atoms: O_14  and  C_20
    7  A    between atoms: C_18  and  C_32
    8  A    between atoms: C_20  and  C_30
    9  A    between atoms: C_21  and  C_30
   10  A    between atoms: C_22  and  C_29
   11  A    between atoms: O_31  and  C_37
   12  A    between atoms: O_31  and  C_40
   13  A    between atoms: C_32  and  C_35
                            x       y       z     vdW  Elec       q    Type
                         _______ _______ _______ _____ _____    ______ ____

>  <TORSDO>
F 13

$$$$
=
 OpenBabel11032420463D

 47 52  0  0  1  0  0  0  0  0999 V2000
  183.7550  177.2290  138.4550 C   0  0  0  0  0  2  0  0  0  0  0  0
  179.9610  179.0320  139.5820 C   0  0  1  0  0  3  0  0  0  0  0  0
  182.2720  177.7650  136.6620 C   0  0  1  0  0  3  0  0  0  0  0  0
  181.4360  176.8580  134.6090 O   0  0  0  0  0  0  0  0  0  0  0  0
  180.3730  178.4970  138.2440 C   0  0  1  0  0  3  0  0  0  0  0  0
  182.7820  178.2580  139.0140 C   0  0  2  0  0  0  0  0  0  0  0  0
  183.5600  179.4870  139.4460 C   0  0  0  0  0  1  0  0  0  0  0  0
  182.0650  177.6320  140.2230 C   0  0  0  0  0  2  0  0  0  0  0  0
  180.8370  178.4240  140.7130 C   0  0  1  0  0  3  0  0  0  0  0  0
  183.0880  176.6200  137.2360 C   0  0  2  0  0  3  0  0  0  0  0  0
  179.4490  177.9860  137.4280 C   0  0  0  0  0  3  0  0  0  0  0  0
  181.1630  177.3340  135.7430 C   0  0  0  0  0  0  0  0  0  0  0  0
  181.8310  178.6200  137.8530 C   0  0  1  0  0  3  0  0  0  0  0  0
  179.8000  177.4420  136.1560 N   0  0  0  0  0  0  0  0  0  0  0  0
  179.9630  180.5630  139.5610 C   0  0  0  0  0  2  0  0  0  0  0  0
  179.2380  181.0880  138.3310 C   0  0  0  0  0  2  0  0  0  0  0  0
  179.2820  182.6050  138.3080 C   0  0  0  0  0  2  0  0  0  0  0  0
  180.3660  183.0380  137.5450 O   0  0  0  0  0  0  0  0  0  0  0  0
  180.2850  184.4330  137.5800 C   0  0  0  0  0  1  0  0  0  0  0  0
  182.2370  175.5590  137.6570 O   0  0  0  0  0  0  0  0  0  0  0  0
  183.8070  172.4210  136.5440 C   0  0  0  0  0  3  0  0  0  0  0  0
  183.6150  173.7270  136.9950 C   0  0  0  0  0  3  0  0  0  0  0  0
  181.4130  172.0930  136.4850 C   0  0  0  0  0  3  0  0  0  0  0  0
  181.2080  173.3980  136.9450 C   0  0  0  0  0  0  0  0  0  0  0  0
  182.7080  171.5950  136.2840 C   0  0  0  0  0  0  0  0  0  0  0  0
  182.3260  174.2330  137.2070 C   0  0  0  0  0  0  0  0  0  0  0  0
  179.5340  173.9210  137.0930 Cl  0  0  0  0  0  0  0  0  0  0  0  0
  182.9090  170.2540  135.8100 N   0  0  0  0  0  0  0  0  0  0  0  0
  184.1240  169.6280  135.9960 O   0  0  0  0  0  0  0  0  0  0  0  0
  182.0150  169.6730  135.1560 O   0  0  0  0  0  0  0  0  0  0  0  0
  181.1780  179.3910  141.8600 C   0  0  0  0  0  2  0  0  0  0  0  0
  180.5580  179.0040  143.2050 C   0  0  1  0  0  3  0  0  0  0  0  0
  179.6750  177.9290  143.0570 O   0  0  0  0  0  1  0  0  0  0  0  0
  181.6100  178.6890  144.2220 C   0  0  0  0  0  3  0  0  0  0  0  0
  182.8760  179.0530  144.0340 C   0  0  0  0  0  3  0  0  0  0  0  0
  183.9020  178.7220  145.0650 C   0  0  0  0  0  2  0  0  0  0  0  0
  185.1580  178.2690  144.4050 C   0  0  0  0  0  0  0  0  0  0  0  0
  185.3610  178.3290  143.0770 N   0  0  0  0  0  0  0  0  0  0  0  0
  187.0450  177.4420  144.0620 C   0  0  0  0  0  0  0  0  0  0  0  0
  186.5610  177.8190  142.8600 N   0  0  0  0  0  0  0  0  0  0  0  0
  186.1940  177.7220  145.0690 N   0  0  0  0  0  2  0  0  0  0  0  0
  191.2640  176.8210  143.8020 C   0  0  0  0  0  3  0  0  0  0  0  0
  190.7110  178.1200  144.3150 C   0  0  0  0  0  2  0  0  0  0  0  0
  189.0140  176.3490  142.9580 C   0  0  0  0  0  2  0  0  0  0  0  0
  188.4280  176.8890  144.2740 C   0  0  1  0  0  3  0  0  0  0  0  0
  190.4570  175.9770  143.1500 C   0  0  0  0  0  3  0  0  0  0  0  0
  189.3490  177.9080  144.9920 C   0  0  0  0  0  2  0  0  0  0  0  0
  1  6  1  0  0  0  0
  2 15  1  6  0  0  0
  2  9  1  0  0  0  0
  3 12  1  1  0  0  0
  3 10  1  0  0  0  0
  3 13  1  0  0  0  0
  4 12  2  0  0  0  0
  5 11  1  6  0  0  0
  5  2  1  0  0  0  0
  6  7  1  1  0  0  0
  6  8  1  0  0  0  0
  8  9  1  0  0  0  0
  9 31  1  1  0  0  0
 10 20  1  1  0  0  0
 10  1  1  0  0  0  0
 12 14  1  0  0  0  0
 13  5  1  0  0  0  0
 13  6  1  0  0  0  0
 14 11  2  0  0  0  0
 16 15  1  0  0  0  0
 17 16  1  0  0  0  0
 18 19  1  0  0  0  0
 18 17  1  0  0  0  0
 21 22  1  0  0  0  0
 22 26  2  0  0  0  0
 23 24  2  0  0  0  0
 24 27  1  0  0  0  0
 24 26  1  0  0  0  0
 25 23  1  0  0  0  0
 25 21  2  0  0  0  0
 26 20  1  0  0  0  0
 28 29  2  0  0  0  0
 28 25  1  0  0  0  0
 30 28  2  0  0  0  0
 31 32  1  0  0  0  0
 32 34  1  0  0  0  0
 33 32  1  0  0  0  0
 35 34  2  0  0  0  0
 35 36  1  0  0  0  0
 37 36  1  0  0  0  0
 37 41  1  0  0  0  0
 38 37  2  0  0  0  0
 39 45  1  0  0  0  0
 39 41  1  0  0  0  0
 40 38  1  0  0  0  0
 40 39  2  0  0  0  0
 42 43  1  0  0  0  0
 43 47  1  0  0  0  0
 44 46  1  0  0  0  0
 44 45  1  0  0  0  0
 45 47  1  0  0  0  0
 46 42  2  0  0  0  0
M  END
>  <MODEL>
8

>  <REMARK>
 VINA RESULT:      -6.7      3.766      5.949
  Name = 
  13 active torsions:
  status: ('A' for Active; 'I' for Inactive)
    1  A    between atoms: N_2  and  C_34
    2  A    between atoms: C_4  and  C_21
    3  A    between atoms: C_5  and  C_18
    4  A    between atoms: C_6  and  C_7
    5  A    between atoms: C_7  and  C_11
    6  A    between atoms: O_14  and  C_20
    7  A    between atoms: C_18  and  C_32
    8  A    between atoms: C_20  and  C_30
    9  A    between atoms: C_21  and  C_30
   10  A    between atoms: C_22  and  C_29
   11  A    between atoms: O_31  and  C_37
   12  A    between atoms: O_31  and  C_40
   13  A    between atoms: C_32  and  C_35
                            x       y       z     vdW  Elec       q    Type
                         _______ _______ _______ _____ _____    ______ ____

>  <TORSDO>
F 13

$$$$
=
 OpenBabel11032420463D

 47 52  0  0  1  0  0  0  0  0999 V2000
  184.9180  178.7880  140.5780 C   0  0  0  0  0  2  0  0  0  0  0  0
  185.1590  178.1370  144.8710 C   0  0  1  0  0  3  0  0  0  0  0  0
  183.0650  179.5690  141.8650 C   0  0  1  0  0  3  0  0  0  0  0  0
  180.6700  179.6280  141.8270 O   0  0  0  0  0  0  0  0  0  0  0  0
  183.9770  178.5820  144.0650 C   0  0  1  0  0  3  0  0  0  0  0  0
  185.4280  178.9130  142.0070 C   0  0  2  0  0  0  0  0  0  0  0  0
  186.5610  179.9230  142.0380 C   0  0  0  0  0  1  0  0  0  0  0  0
  185.9360  177.5320  142.4570 C   0  0  0  0  0  2  0  0  0  0  0  0
  186.2010  177.4150  143.9710 C   0  0  1  0  0  3  0  0  0  0  0  0
  183.4050  178.7040  140.6640 C   0  0  2  0  0  3  0  0  0  0  0  0
  182.7460  178.2670  144.4740 C   0  0  0  0  0  3  0  0  0  0  0  0
  181.7100  179.2970  142.4580 C   0  0  0  0  0  0  0  0  0  0  0  0
  184.2380  179.4340  142.8400 C   0  0  1  0  0  3  0  0  0  0  0  0
  181.5930  178.6470  143.7240 N   0  0  0  0  0  0  0  0  0  0  0  0
  185.7390  179.3190  145.6540 C   0  0  0  0  0  2  0  0  0  0  0  0
  185.7130  179.0420  147.1490 C   0  0  0  0  0  2  0  0  0  0  0  0
  186.8510  178.1100  147.5260 C   0  0  0  0  0  2  0  0  0  0  0  0
  187.7500  178.7700  148.3630 O   0  0  0  0  0  0  0  0  0  0  0  0
  188.9560  178.0830  148.1950 C   0  0  0  0  0  1  0  0  0  0  0  0
  183.0310  177.3500  140.8970 O   0  0  0  0  0  0  0  0  0  0  0  0
  182.9010  175.1960  137.9150 C   0  0  0  0  0  3  0  0  0  0  0  0
  183.3510  176.0490  138.9230 C   0  0  0  0  0  3  0  0  0  0  0  0
  180.6880  175.2210  138.8870 C   0  0  0  0  0  3  0  0  0  0  0  0
  181.1290  176.0690  139.9070 C   0  0  0  0  0  0  0  0  0  0  0  0
  181.5660  174.7770  137.8880 C   0  0  0  0  0  0  0  0  0  0  0  0
  182.4840  176.4930  139.9310 C   0  0  0  0  0  0  0  0  0  0  0  0
  179.9120  176.6050  141.0600 Cl  0  0  0  0  0  0  0  0  0  0  0  0
  181.1030  173.9080  136.8430 N   0  0  0  0  0  0  0  0  0  0  0  0
  180.6080  172.6580  137.1490 O   0  0  0  0  0  0  0  0  0  0  0  0
  181.2190  174.2420  135.6420 O   0  0  0  0  0  0  0  0  0  0  0  0
  187.6710  177.6870  144.3350 C   0  0  0  0  0  2  0  0  0  0  0  0
  188.6640  176.7400  143.6570 C   0  0  1  0  0  3  0  0  0  0  0  0
  188.0240  175.5750  143.2190 O   0  0  0  0  0  1  0  0  0  0  0  0
  189.3760  177.4130  142.5250 C   0  0  0  0  0  3  0  0  0  0  0  0
  189.4610  176.8350  141.3300 C   0  0  0  0  0  3  0  0  0  0  0  0
  190.1810  177.5290  140.2220 C   0  0  0  0  0  2  0  0  0  0  0  0
  189.2660  177.7210  139.0630 C   0  0  0  0  0  0  0  0  0  0  0  0
  188.7710  178.9170  138.6990 N   0  0  0  0  0  0  0  0  0  0  0  0
  188.0060  177.3650  137.4350 C   0  0  0  0  0  0  0  0  0  0  0  0
  187.9850  178.6960  137.6600 N   0  0  0  0  0  0  0  0  0  0  0  0
  188.8160  176.7120  138.2930 N   0  0  0  0  0  2  0  0  0  0  0  0
  184.9920  175.6320  134.9530 C   0  0  0  0  0  3  0  0  0  0  0  0
  184.9170  177.0770  135.3520 C   0  0  0  0  0  2  0  0  0  0  0  0
  186.6690  175.3680  136.7170 C   0  0  0  0  0  2  0  0  0  0  0  0
  187.3080  176.6980  136.2820 C   0  0  1  0  0  3  0  0  0  0  0  0
  185.8230  174.8130  135.6060 C   0  0  0  0  0  3  0  0  0  0  0  0
  186.3200  177.6600  135.5750 C   0  0  0  0  0  2  0  0  0  0  0  0
  1 10  1  0  0  0  0
  1  6  1  0  0  0  0
  2 15  1  6  0  0  0
  3 12  1  1  0  0  0
  3 13  1  0  0  0  0
  4 12  2  0  0  0  0
  5 11  1  1  0  0  0
  5  2  1  0  0  0  0
  6  7  1  1  0  0  0
  6  8  1  0  0  0  0
  6 13  1  0  0  0  0
  8  9  1  0  0  0  0
  9 31  1  6  0  0  0
  9  2  1  0  0  0  0
 10 20  1  1  0  0  0
 10  3  1  0  0  0  0
 12 14  1  0  0  0  0
 13  5  1  0  0  0  0
 14 11  2  0  0  0  0
 15 16  1  0  0  0  0
 16 17  1  0  0  0  0
 17 18  1  0  0  0  0
 19 18  1  0  0  0  0
 21 22  1  0  0  0  0
 22 26  2  0  0  0  0
 23 24  2  0  0  0  0
 24 26  1  0  0  0  0
 24 27  1  0  0  0  0
 25 21  2  0  0  0  0
 25 23  1  0  0  0  0
 26 20  1  0  0  0  0
 28 29  2  0  0  0  0
 28 25  1  0  0  0  0
 30 28  2  0  0  0  0
 32 31  1  0  0  0  0
 33 32  1  0  0  0  0
 34 32  1  0  0  0  0
 35 34  2  0  0  0  0
 36 35  1  0  0  0  0
 37 36  1  0  0  0  0
 38 37  2  0  0  0  0
 39 40  2  0  0  0  0
 39 41  1  0  0  0  0
 40 38  1  0  0  0  0
 41 37  1  0  0  0  0
 42 43  1  0  0  0  0
 42 46  2  0  0  0  0
 43 47  1  0  0  0  0
 45 44  1  0  0  0  0
 45 39  1  0  0  0  0
 46 44  1  0  0  0  0
 47 45  1  0  0  0  0
M  END
>  <MODEL>
9

>  <REMARK>
 VINA RESULT:      -6.0      2.873      8.571
  Name = 
  13 active torsions:
  status: ('A' for Active; 'I' for Inactive)
    1  A    between atoms: N_2  and  C_34
    2  A    between atoms: C_4  and  C_21
    3  A    between atoms: C_5  and  C_18
    4  A    between atoms: C_6  and  C_7
    5  A    between atoms: C_7  and  C_11
    6  A    between atoms: O_14  and  C_20
    7  A    between atoms: C_18  and  C_32
    8  A    between atoms: C_20  and  C_30
    9  A    between atoms: C_21  and  C_30
   10  A    between atoms: C_22  and  C_29
   11  A    between atoms: O_31  and  C_37
   12  A    between atoms: O_31  and  C_40
   13  A    between atoms: C_32  and  C_35
                            x       y       z     vdW  Elec       q    Type
                         _______ _______ _______ _____ _____    ______ ____

>  <TORSDO>
F 13

$$$$
