=
 OpenBabel11032421003D

 46 50  0  0  1  0  0  0  0  0999 V2000
  188.9140  177.5840  139.6850 C   0  0  0  0  0  0  0  0  0  0  0  0
  189.0910  176.4680  138.8510 C   0  0  0  0  0  3  0  0  0  0  0  0
  188.1600  176.2560  137.8390 C   0  0  0  0  0  0  0  0  0  0  0  0
  186.9240  178.1870  138.4680 N   0  0  0  0  0  0  0  0  0  0  0  0
  186.8310  175.4940  136.0030 C   0  0  0  0  0  2  0  0  0  0  0  0
  188.0860  175.1470  136.8450 C   0  0  1  0  0  3  0  0  0  0  0  0
  187.8160  178.4410  139.4720 C   0  0  0  0  0  3  0  0  0  0  0  0
  187.1050  177.1000  137.6730 C   0  0  0  0  0  0  0  0  0  0  0  0
  186.2830  176.7230  136.5870 N   0  0  0  0  0  0  0  0  0  0  0  0
  181.5790  177.2280  137.4470 C   0  0  2  0  0  3  0  0  0  0  0  0
  183.8740  177.0750  136.8680 C   0  0  0  0  0  0  0  0  0  0  0  0
  182.1580  175.9670  138.0950 C   0  0  1  0  0  3  0  0  0  0  0  0
  180.3220  176.8900  136.6660 C   0  0  0  0  0  1  0  0  0  0  0  0
  183.6670  176.0290  137.8930 C   0  0  0  0  0  2  0  0  0  0  0  0
  185.0350  177.3540  136.2720 C   0  0  0  0  0  3  0  0  0  0  0  0
  182.6300  177.7870  136.5060 C   0  0  0  0  0  2  0  0  0  0  0  0
  181.8140  175.8820  139.5870 C   0  0  0  0  0  3  0  0  0  0  0  0
  180.5740  175.0280  139.7890 C   0  0  0  0  0  1  0  0  0  0  0  0
  181.5310  177.2570  140.1660 C   0  0  0  0  0  1  0  0  0  0  0  0
  190.4680  173.6450  137.4620 O   0  0  0  0  0  0  0  0  0  0  0  0
  189.2940  175.0700  136.0180 N   0  0  0  0  0  0  0  0  0  0  0  0
  190.4920  174.3870  136.4410 C   0  0  0  0  0  0  0  0  0  0  0  0
  191.7800  174.5860  135.6860 C   0  0  2  0  0  3  0  0  0  0  0  0
  192.9170  174.1640  136.5010 C   0  0  0  0  0  2  0  0  0  0  0  0
  192.6280  175.5990  136.3450 N   0  0  0  0  0  0  0  0  0  0  0  0
  193.5280  176.0990  135.3210 C   0  0  0  0  0  2  0  0  0  0  0  0
  194.9620  175.7200  135.6550 C   0  0  0  0  0  2  0  0  0  0  0  0
  195.3880  178.0530  135.3520 O   0  0  0  0  0  1  0  0  0  0  0  0
  195.9330  176.7800  135.1680 C   0  0  0  0  0  2  0  0  0  0  0  0
  189.7110  177.2620  135.0260 C   0  0  0  0  0  1  0  0  0  0  0  0
  189.2720  175.8300  134.7760 C   0  0  0  0  0  2  0  0  0  0  0  0
  189.8860  177.8760  140.7800 C   0  0  0  0  0  2  0  0  0  0  0  0
  189.8200  176.8240  141.8460 C   0  0  0  0  0  0  0  0  0  0  0  0
  190.5450  175.7980  141.7260 O   0  0  0  0  0  0  0  0  0  0  0  0
  186.7150  177.2860  143.9450 C   0  0  0  0  0  3  0  0  0  0  0  0
  188.9540  177.0150  143.0390 C   0  0  0  0  0  0  0  0  0  0  0  0
  187.5640  177.0700  142.8620 C   0  0  0  0  0  3  0  0  0  0  0  0
  187.2340  177.4600  145.2370 C   0  0  0  0  0  0  0  0  0  0  0  0
  188.6240  177.4210  145.4230 C   0  0  0  0  0  0  0  0  0  0  0  0
  190.8580  177.1620  144.5530 O   0  0  0  0  0  1  0  0  0  0  0  0
  189.2970  177.6660  147.0290 Cl  0  0  0  0  0  0  0  0  0  0  0  0
  189.4840  177.1970  144.3360 C   0  0  0  0  0  0  0  0  0  0  0  0
  186.4030  177.6870  146.3490 O   0  0  0  0  0  0  0  0  0  0  0  0
  185.5050  178.7530  146.5130 C   0  0  0  0  0  0  0  0  0  0  0  0
  184.2720  178.7930  145.6810 C   0  0  0  0  0  1  0  0  0  0  0  0
  185.7190  179.6830  147.3380 O   0  0  0  0  0  0  0  0  0  0  0  0
  1 32  1  0  0  0  0
  2  1  2  0  0  0  0
  3  2  1  0  0  0  0
  4  7  2  0  0  0  0
  5  9  1  0  0  0  0
  5  6  1  0  0  0  0
  6 21  1  6  0  0  0
  6  3  1  0  0  0  0
  7  1  1  0  0  0  0
  8  3  2  0  0  0  0
  8  4  1  0  0  0  0
  9  8  1  0  0  0  0
 10 13  1  6  0  0  0
 10 12  1  0  0  0  0
 11 14  1  0  0  0  0
 12 17  1  1  0  0  0
 14 12  1  0  0  0  0
 15  9  1  0  0  0  0
 15 11  2  0  0  0  0
 16 11  1  0  0  0  0
 16 10  1  0  0  0  0
 17 18  1  0  0  0  0
 17 19  1  0  0  0  0
 21 22  1  0  0  0  0
 22 20  2  0  0  0  0
 23 25  1  0  0  0  0
 23 22  1  1  0  0  0
 23 24  1  0  0  0  0
 25 24  1  0  0  0  0
 26 27  1  0  0  0  0
 26 25  1  0  0  0  0
 29 28  1  0  0  0  0
 29 27  1  0  0  0  0
 31 30  1  0  0  0  0
 31 21  1  0  0  0  0
 32 33  1  0  0  0  0
 33 36  1  0  0  0  0
 34 33  2  0  0  0  0
 35 38  1  0  0  0  0
 36 42  2  0  0  0  0
 37 36  1  0  0  0  0
 37 35  2  0  0  0  0
 38 39  2  0  0  0  0
 38 43  1  0  0  0  0
 39 41  1  0  0  0  0
 42 40  1  0  0  0  0
 42 39  1  0  0  0  0
 43 44  1  0  0  0  0
 44 46  2  0  0  0  0
 45 44  1  0  0  0  0
M  END
>  <MODEL>
1

>  <REMARK>
 VINA RESULT:      -7.8      0.000      0.000
  Name = 
  13 active torsions:
  status: ('A' for Active; 'I' for Inactive)
    1  A    between atoms: C_1  and  C_3
    2  A    between atoms: C_1  and  C_45
    3  A    between atoms: C_4  and  O_38
    4  A    between atoms: C_6  and  C_15
    5  A    between atoms: C_6  and  C_18
    6  A    between atoms: C_8  and  C_45
    7  A    between atoms: C_10  and  O_38
    8  A    between atoms: C_15  and  N_33
    9  A    between atoms: C_16  and  C_31
   10  A    between atoms: C_22  and  C_42
   11  A    between atoms: N_27  and  C_30
   12  A    between atoms: N_27  and  C_44
   13  A    between atoms: C_41  and  N_46
                            x       y       z     vdW  Elec       q    Type
                         _______ _______ _______ _____ _____    ______ ____

>  <TORSDO>
F 13

$$$$
=
 OpenBabel11032421003D

 46 50  0  0  1  0  0  0  0  0999 V2000
  186.2430  178.5370  141.4090 C   0  0  0  0  0  0  0  0  0  0  0  0
  187.2470  178.7080  140.4410 C   0  0  0  0  0  3  0  0  0  0  0  0
  188.4830  178.1120  140.6710 C   0  0  0  0  0  0  0  0  0  0  0  0
  187.7500  177.2180  142.7480 N   0  0  0  0  0  0  0  0  0  0  0  0
  190.7300  177.2970  140.6380 C   0  0  0  0  0  2  0  0  0  0  0  0
  189.7190  178.1590  139.8400 C   0  0  1  0  0  3  0  0  0  0  0  0
  186.5170  177.7780  142.5650 C   0  0  0  0  0  3  0  0  0  0  0  0
  188.7130  177.3960  141.8060 C   0  0  0  0  0  0  0  0  0  0  0  0
  190.0200  176.8620  141.8460 N   0  0  0  0  0  0  0  0  0  0  0  0
  190.5530  176.5560  146.6150 C   0  0  2  0  0  3  0  0  0  0  0  0
  190.4240  176.5810  144.2480 C   0  0  0  0  0  0  0  0  0  0  0  0
  190.0160  177.9210  146.1760 C   0  0  1  0  0  3  0  0  0  0  0  0
  191.7300  176.7310  147.5590 C   0  0  0  0  0  1  0  0  0  0  0  0
  189.7330  177.8150  144.6820 C   0  0  0  0  0  2  0  0  0  0  0  0
  190.5730  176.1840  142.9820 C   0  0  0  0  0  3  0  0  0  0  0  0
  191.0020  175.8150  145.3700 C   0  0  0  0  0  2  0  0  0  0  0  0
  188.7450  178.3090  146.9420 C   0  0  0  0  0  3  0  0  0  0  0  0
  188.8990  177.9660  148.4140 C   0  0  0  0  0  1  0  0  0  0  0  0
  187.5340  177.5600  146.4140 C   0  0  0  0  0  1  0  0  0  0  0  0
  188.9680  179.6950  137.5180 O   0  0  0  0  0  0  0  0  0  0  0  0
  189.4950  177.6290  138.4910 N   0  0  0  0  0  0  0  0  0  0  0  0
  189.0130  178.4390  137.4000 C   0  0  0  0  0  0  0  0  0  0  0  0
  188.5300  177.7860  136.1310 C   0  0  2  0  0  3  0  0  0  0  0  0
  187.2450  178.3510  135.7260 C   0  0  0  0  0  2  0  0  0  0  0  0
  187.2870  177.0270  136.3670 N   0  0  0  0  0  0  0  0  0  0  0  0
  187.2080  176.0430  135.3020 C   0  0  0  0  0  2  0  0  0  0  0  0
  187.0890  174.6460  135.8900 C   0  0  0  0  0  2  0  0  0  0  0  0
  188.5860  173.0210  136.8040 O   0  0  0  0  0  1  0  0  0  0  0  0
  188.3800  173.8670  135.7110 C   0  0  0  0  0  2  0  0  0  0  0  0
  190.9500  175.8980  137.5700 C   0  0  0  0  0  1  0  0  0  0  0  0
  189.6690  176.1920  138.3280 C   0  0  0  0  0  2  0  0  0  0  0  0
  184.8900  179.1380  141.2160 C   0  0  0  0  0  2  0  0  0  0  0  0
  184.4650  179.0460  139.7810 C   0  0  0  0  0  0  0  0  0  0  0  0
  184.6270  180.0540  139.0390 O   0  0  0  0  0  0  0  0  0  0  0  0
  184.0420  176.0090  137.5770 C   0  0  0  0  0  3  0  0  0  0  0  0
  183.9120  177.7770  139.2390 C   0  0  0  0  0  0  0  0  0  0  0  0
  184.5470  177.1770  138.1430 C   0  0  0  0  0  3  0  0  0  0  0  0
  182.8810  175.4100  138.0880 C   0  0  0  0  0  0  0  0  0  0  0  0
  182.2300  176.0100  139.1770 C   0  0  0  0  0  0  0  0  0  0  0  0
  182.0700  177.7550  140.8350 O   0  0  0  0  0  1  0  0  0  0  0  0
  180.7570  175.2930  139.8160 Cl  0  0  0  0  0  0  0  0  0  0  0  0
  182.7380  177.1850  139.7550 C   0  0  0  0  0  0  0  0  0  0  0  0
  182.3430  174.2350  137.5350 O   0  0  0  0  0  0  0  0  0  0  0  0
  182.9530  173.4120  136.5770 C   0  0  0  0  0  0  0  0  0  0  0  0
  183.8460  172.3130  137.0330 C   0  0  0  0  0  1  0  0  0  0  0  0
  182.7740  173.5830  135.3400 O   0  0  0  0  0  0  0  0  0  0  0  0
  1  7  1  0  0  0  0
  2  3  1  0  0  0  0
  2  1  2  0  0  0  0
  3  8  2  0  0  0  0
  5  9  1  0  0  0  0
  6 21  1  6  0  0  0
  6  5  1  0  0  0  0
  6  3  1  0  0  0  0
  7  4  2  0  0  0  0
  8  9  1  0  0  0  0
  8  4  1  0  0  0  0
  9 15  1  0  0  0  0
 10 13  1  1  0  0  0
 11 14  1  0  0  0  0
 11 16  1  0  0  0  0
 12 10  1  0  0  0  0
 12 17  1  1  0  0  0
 14 12  1  0  0  0  0
 15 11  2  0  0  0  0
 16 10  1  0  0  0  0
 17 18  1  0  0  0  0
 19 17  1  0  0  0  0
 22 20  2  0  0  0  0
 22 21  1  0  0  0  0
 23 25  1  0  0  0  0
 23 22  1  1  0  0  0
 24 23  1  0  0  0  0
 24 25  1  0  0  0  0
 26 27  1  0  0  0  0
 26 25  1  0  0  0  0
 29 27  1  0  0  0  0
 29 28  1  0  0  0  0
 30 31  1  0  0  0  0
 31 21  1  0  0  0  0
 32  1  1  0  0  0  0
 33 32  1  0  0  0  0
 34 33  2  0  0  0  0
 35 38  2  0  0  0  0
 35 37  1  0  0  0  0
 36 42  1  0  0  0  0
 36 33  1  0  0  0  0
 37 36  2  0  0  0  0
 38 39  1  0  0  0  0
 39 42  2  0  0  0  0
 39 41  1  0  0  0  0
 42 40  1  0  0  0  0
 43 38  1  0  0  0  0
 44 45  1  0  0  0  0
 44 43  1  0  0  0  0
 46 44  2  0  0  0  0
M  END
>  <MODEL>
2

>  <REMARK>
 VINA RESULT:      -7.6      3.617      8.284
  Name = 
  13 active torsions:
  status: ('A' for Active; 'I' for Inactive)
    1  A    between atoms: C_1  and  C_3
    2  A    between atoms: C_1  and  C_45
    3  A    between atoms: C_4  and  O_38
    4  A    between atoms: C_6  and  C_15
    5  A    between atoms: C_6  and  C_18
    6  A    between atoms: C_8  and  C_45
    7  A    between atoms: C_10  and  O_38
    8  A    between atoms: C_15  and  N_33
    9  A    between atoms: C_16  and  C_31
   10  A    between atoms: C_22  and  C_42
   11  A    between atoms: N_27  and  C_30
   12  A    between atoms: N_27  and  C_44
   13  A    between atoms: C_41  and  N_46
                            x       y       z     vdW  Elec       q    Type
                         _______ _______ _______ _____ _____    ______ ____

>  <TORSDO>
F 13

$$$$
=
 OpenBabel11032421003D

 46 50  0  0  1  0  0  0  0  0999 V2000
  191.2550  177.3870  140.2780 C   0  0  0  0  0  0  0  0  0  0  0  0
  190.4290  177.1140  139.1760 C   0  0  0  0  0  3  0  0  0  0  0  0
  191.0320  176.6730  138.0020 C   0  0  0  0  0  0  0  0  0  0  0  0
  193.1940  176.7800  138.9840 N   0  0  0  0  0  0  0  0  0  0  0  0
  191.6100  175.9170  135.8090 C   0  0  0  0  0  2  0  0  0  0  0  0
  190.4080  176.3480  136.6880 C   0  0  1  0  0  3  0  0  0  0  0  0
  192.6490  177.2090  140.1610 C   0  0  0  0  0  3  0  0  0  0  0  0
  192.3830  176.5250  137.9240 C   0  0  0  0  0  0  0  0  0  0  0  0
  192.7980  176.0580  136.6570 N   0  0  0  0  0  0  0  0  0  0  0  0
  196.7490  173.3580  136.1890 C   0  0  2  0  0  3  0  0  0  0  0  0
  194.9060  174.8360  136.3850 C   0  0  0  0  0  0  0  0  0  0  0  0
  195.7080  172.7120  137.1070 C   0  0  1  0  0  3  0  0  0  0  0  0
  198.1130  173.3590  136.8580 C   0  0  0  0  0  1  0  0  0  0  0  0
  194.4570  173.5780  137.0220 C   0  0  0  0  0  2  0  0  0  0  0  0
  194.1700  175.9420  136.2570 C   0  0  0  0  0  3  0  0  0  0  0  0
  196.3090  174.7850  135.9250 C   0  0  0  0  0  2  0  0  0  0  0  0
  195.3950  171.2690  136.6900 C   0  0  0  0  0  3  0  0  0  0  0  0
  193.9840  171.1810  136.1340 C   0  0  0  0  0  1  0  0  0  0  0  0
  195.4890  170.3210  137.8730 C   0  0  0  0  0  1  0  0  0  0  0  0
  187.5640  176.6430  136.3130 O   0  0  0  0  0  0  0  0  0  0  0  0
  189.4070  175.2820  136.8050 N   0  0  0  0  0  0  0  0  0  0  0  0
  187.9890  175.5240  136.7120 C   0  0  0  0  0  0  0  0  0  0  0  0
  187.0120  174.4540  137.1250 C   0  0  2  0  0  3  0  0  0  0  0  0
  186.4020  173.8400  135.9470 C   0  0  0  0  0  2  0  0  0  0  0  0
  185.6350  174.8160  136.7370 N   0  0  0  0  0  0  0  0  0  0  0  0
  184.7580  174.0540  137.6090 C   0  0  0  0  0  2  0  0  0  0  0  0
  183.3190  174.5140  137.4330 C   0  0  0  0  0  2  0  0  0  0  0  0
  182.8260  173.1780  135.5130 O   0  0  0  0  0  1  0  0  0  0  0  0
  182.4620  173.4100  136.8420 C   0  0  0  0  0  2  0  0  0  0  0  0
  190.0490  173.1090  135.8950 C   0  0  0  0  0  1  0  0  0  0  0  0
  189.9140  173.9600  137.1450 C   0  0  0  0  0  2  0  0  0  0  0  0
  190.6690  177.8480  141.5720 C   0  0  0  0  0  2  0  0  0  0  0  0
  190.1640  176.6860  142.3730 C   0  0  0  0  0  0  0  0  0  0  0  0
  190.6550  175.5450  142.1560 O   0  0  0  0  0  0  0  0  0  0  0  0
  186.8020  177.2180  144.0100 C   0  0  0  0  0  3  0  0  0  0  0  0
  189.1400  176.8910  143.4320 C   0  0  0  0  0  0  0  0  0  0  0  0
  187.7920  176.9870  143.0570 C   0  0  0  0  0  3  0  0  0  0  0  0
  187.1330  177.3650  145.3650 C   0  0  0  0  0  0  0  0  0  0  0  0
  188.4800  177.2830  145.7480 C   0  0  0  0  0  0  0  0  0  0  0  0
  190.8090  176.9680  145.2060 O   0  0  0  0  0  1  0  0  0  0  0  0
  188.9210  177.4930  147.4370 Cl  0  0  0  0  0  0  0  0  0  0  0  0
  189.4820  177.0450  144.7930 C   0  0  0  0  0  0  0  0  0  0  0  0
  186.1570  177.6050  146.3480 O   0  0  0  0  0  0  0  0  0  0  0  0
  185.3280  178.7330  146.4390 C   0  0  0  0  0  0  0  0  0  0  0  0
  184.1570  178.8440  145.5280 C   0  0  0  0  0  1  0  0  0  0  0  0
  185.5530  179.6610  147.2640 O   0  0  0  0  0  0  0  0  0  0  0  0
  1 32  1  0  0  0  0
  2  1  2  0  0  0  0
  3  2  1  0  0  0  0
  4  7  2  0  0  0  0
  5  9  1  0  0  0  0
  5  6  1  0  0  0  0
  6 21  1  1  0  0  0
  6  3  1  0  0  0  0
  7  1  1  0  0  0  0
  8  3  2  0  0  0  0
  8  4  1  0  0  0  0
  9  8  1  0  0  0  0
 10 13  1  1  0  0  0
 10 12  1  0  0  0  0
 11 14  1  0  0  0  0
 12 17  1  6  0  0  0
 14 12  1  0  0  0  0
 15 11  2  0  0  0  0
 15  9  1  0  0  0  0
 16 10  1  0  0  0  0
 16 11  1  0  0  0  0
 17 19  1  0  0  0  0
 18 17  1  0  0  0  0
 20 22  2  0  0  0  0
 21 31  1  0  0  0  0
 22 21  1  0  0  0  0
 23 22  1  6  0  0  0
 24 25  1  0  0  0  0
 24 23  1  0  0  0  0
 25 23  1  0  0  0  0
 25 26  1  0  0  0  0
 27 26  1  0  0  0  0
 28 29  1  0  0  0  0
 29 27  1  0  0  0  0
 30 31  1  0  0  0  0
 32 33  1  0  0  0  0
 33 36  1  0  0  0  0
 34 33  2  0  0  0  0
 35 38  1  0  0  0  0
 36 42  2  0  0  0  0
 37 36  1  0  0  0  0
 37 35  2  0  0  0  0
 38 39  2  0  0  0  0
 38 43  1  0  0  0  0
 39 41  1  0  0  0  0
 42 40  1  0  0  0  0
 42 39  1  0  0  0  0
 43 44  1  0  0  0  0
 44 46  2  0  0  0  0
 45 44  1  0  0  0  0
M  END
>  <MODEL>
3

>  <REMARK>
 VINA RESULT:      -7.6      2.357      7.991
  Name = 
  13 active torsions:
  status: ('A' for Active; 'I' for Inactive)
    1  A    between atoms: C_1  and  C_3
    2  A    between atoms: C_1  and  C_45
    3  A    between atoms: C_4  and  O_38
    4  A    between atoms: C_6  and  C_15
    5  A    between atoms: C_6  and  C_18
    6  A    between atoms: C_8  and  C_45
    7  A    between atoms: C_10  and  O_38
    8  A    between atoms: C_15  and  N_33
    9  A    between atoms: C_16  and  C_31
   10  A    between atoms: C_22  and  C_42
   11  A    between atoms: N_27  and  C_30
   12  A    between atoms: N_27  and  C_44
   13  A    between atoms: C_41  and  N_46
                            x       y       z     vdW  Elec       q    Type
                         _______ _______ _______ _____ _____    ______ ____

>  <TORSDO>
F 13

$$$$
=
 OpenBabel11032421003D

 46 50  0  0  1  0  0  0  0  0999 V2000
  188.2010  177.0440  137.7890 C   0  0  0  0  0  0  0  0  0  0  0  0
  186.9840  177.7090  138.0090 C   0  0  0  0  0  3  0  0  0  0  0  0
  185.8240  177.1290  137.5050 C   0  0  0  0  0  0  0  0  0  0  0  0
  187.0430  175.3030  136.5940 N   0  0  0  0  0  0  0  0  0  0  0  0
  183.6110  176.5270  136.8290 C   0  0  0  0  0  2  0  0  0  0  0  0
  184.4200  177.6280  137.5620 C   0  0  1  0  0  3  0  0  0  0  0  0
  188.2090  175.8290  137.0750 C   0  0  0  0  0  3  0  0  0  0  0  0
  185.8730  175.9590  136.8100 C   0  0  0  0  0  0  0  0  0  0  0  0
  184.5930  175.5290  136.3950 N   0  0  0  0  0  0  0  0  0  0  0  0
  182.0800  171.5640  135.3540 C   0  0  2  0  0  3  0  0  0  0  0  0
  183.4420  173.4660  135.7410 C   0  0  0  0  0  0  0  0  0  0  0  0
  181.8420  172.0440  136.7880 C   0  0  1  0  0  3  0  0  0  0  0  0
  182.4060  170.0800  135.3420 C   0  0  0  0  0  1  0  0  0  0  0  0
  182.5510  173.3870  136.9190 C   0  0  0  0  0  2  0  0  0  0  0  0
  184.3680  174.4050  135.5340 C   0  0  0  0  0  3  0  0  0  0  0  0
  183.2510  172.3480  134.7930 C   0  0  0  0  0  2  0  0  0  0  0  0
  180.3470  172.1890  137.1020 C   0  0  0  0  0  3  0  0  0  0  0  0
  179.6200  172.7890  135.9090 C   0  0  0  0  0  1  0  0  0  0  0  0
  180.1200  173.1020  138.2930 C   0  0  0  0  0  1  0  0  0  0  0  0
  184.6960  180.0340  139.1260 O   0  0  0  0  0  0  0  0  0  0  0  0
  183.9600  177.8160  138.9410 N   0  0  0  0  0  0  0  0  0  0  0  0
  184.2290  179.0120  139.7010 C   0  0  0  0  0  0  0  0  0  0  0  0
  183.9880  179.0320  141.1890 C   0  0  2  0  0  3  0  0  0  0  0  0
  185.0820  179.7190  141.8720 C   0  0  0  0  0  2  0  0  0  0  0  0
  185.0170  178.2490  141.9010 N   0  0  0  0  0  0  0  0  0  0  0  0
  184.4290  177.8810  143.1770 C   0  0  0  0  0  2  0  0  0  0  0  0
  185.1880  178.5490  144.3130 C   0  0  0  0  0  2  0  0  0  0  0  0
  184.8530  178.8880  146.6560 O   0  0  0  0  0  1  0  0  0  0  0  0
  184.2400  179.0080  145.4060 C   0  0  0  0  0  2  0  0  0  0  0  0
  181.8060  176.8780  139.6060 C   0  0  0  0  0  1  0  0  0  0  0  0
  183.3100  176.6720  139.5640 C   0  0  0  0  0  2  0  0  0  0  0  0
  189.4800  177.6060  138.3170 C   0  0  0  0  0  2  0  0  0  0  0  0
  190.0330  176.7410  139.4090 C   0  0  0  0  0  0  0  0  0  0  0  0
  190.6860  175.7090  139.0880 O   0  0  0  0  0  0  0  0  0  0  0  0
  188.3390  177.5180  142.6930 C   0  0  0  0  0  3  0  0  0  0  0  0
  189.8550  177.1210  140.8340 C   0  0  0  0  0  0  0  0  0  0  0  0
  188.5600  177.1310  141.3730 C   0  0  0  0  0  3  0  0  0  0  0  0
  189.4080  177.9130  143.5110 C   0  0  0  0  0  0  0  0  0  0  0  0
  190.7060  177.9200  142.9780 C   0  0  0  0  0  0  0  0  0  0  0  0
  192.2340  177.5410  141.1510 O   0  0  0  0  0  1  0  0  0  0  0  0
  192.0570  178.4390  143.9760 Cl  0  0  0  0  0  0  0  0  0  0  0  0
  190.9350  177.5250  141.6490 C   0  0  0  0  0  0  0  0  0  0  0  0
  189.2160  178.3160  144.8440 O   0  0  0  0  0  0  0  0  0  0  0  0
  189.1710  177.4780  145.9680 C   0  0  0  0  0  0  0  0  0  0  0  0
  187.9450  177.4640  146.8100 C   0  0  0  0  0  1  0  0  0  0  0  0
  190.1460  176.7440  146.2910 O   0  0  0  0  0  0  0  0  0  0  0  0
  1  2  1  0  0  0  0
  1 32  1  0  0  0  0
  3  6  1  0  0  0  0
  3  2  2  0  0  0  0
  4  8  2  0  0  0  0
  4  7  1  0  0  0  0
  5  6  1  0  0  0  0
  6 21  1  1  0  0  0
  7  1  2  0  0  0  0
  8  3  1  0  0  0  0
  9  8  1  0  0  0  0
  9  5  1  0  0  0  0
 10 13  1  1  0  0  0
 10 12  1  0  0  0  0
 11 14  1  0  0  0  0
 12 14  1  0  0  0  0
 12 17  1  6  0  0  0
 15 11  2  0  0  0  0
 15  9  1  0  0  0  0
 16 10  1  0  0  0  0
 16 11  1  0  0  0  0
 17 19  1  0  0  0  0
 18 17  1  0  0  0  0
 20 22  2  0  0  0  0
 21 31  1  0  0  0  0
 21 22  1  0  0  0  0
 23 22  1  6  0  0  0
 23 24  1  0  0  0  0
 23 25  1  0  0  0  0
 24 25  1  0  0  0  0
 25 26  1  0  0  0  0
 26 27  1  0  0  0  0
 27 29  1  0  0  0  0
 29 28  1  0  0  0  0
 31 30  1  0  0  0  0
 32 33  1  0  0  0  0
 33 36  1  0  0  0  0
 34 33  2  0  0  0  0
 35 38  1  0  0  0  0
 36 37  1  0  0  0  0
 36 42  2  0  0  0  0
 37 35  2  0  0  0  0
 38 43  1  0  0  0  0
 39 38  2  0  0  0  0
 39 41  1  0  0  0  0
 40 42  1  0  0  0  0
 42 39  1  0  0  0  0
 43 44  1  0  0  0  0
 44 46  2  0  0  0  0
 44 45  1  0  0  0  0
M  END
>  <MODEL>
4

>  <REMARK>
 VINA RESULT:      -7.4      2.855      6.526
  Name = 
  13 active torsions:
  status: ('A' for Active; 'I' for Inactive)
    1  A    between atoms: C_1  and  C_3
    2  A    between atoms: C_1  and  C_45
    3  A    between atoms: C_4  and  O_38
    4  A    between atoms: C_6  and  C_15
    5  A    between atoms: C_6  and  C_18
    6  A    between atoms: C_8  and  C_45
    7  A    between atoms: C_10  and  O_38
    8  A    between atoms: C_15  and  N_33
    9  A    between atoms: C_16  and  C_31
   10  A    between atoms: C_22  and  C_42
   11  A    between atoms: N_27  and  C_30
   12  A    between atoms: N_27  and  C_44
   13  A    between atoms: C_41  and  N_46
                            x       y       z     vdW  Elec       q    Type
                         _______ _______ _______ _____ _____    ______ ____

>  <TORSDO>
F 13

$$$$
=
 OpenBabel11032421003D

 46 50  0  0  1  0  0  0  0  0999 V2000
  185.2790  178.5130  139.0640 C   0  0  0  0  0  0  0  0  0  0  0  0
  183.9250  178.2010  139.2670 C   0  0  0  0  0  3  0  0  0  0  0  0
  183.3940  178.3950  140.5390 C   0  0  0  0  0  0  0  0  0  0  0  0
  185.4800  179.1740  141.3720 N   0  0  0  0  0  0  0  0  0  0  0  0
  182.0700  178.5540  142.5230 C   0  0  0  0  0  2  0  0  0  0  0  0
  182.0170  178.1180  141.0360 C   0  0  1  0  0  3  0  0  0  0  0  0
  186.0460  179.0060  140.1400 C   0  0  0  0  0  3  0  0  0  0  0  0
  184.1700  178.8630  141.5550 C   0  0  0  0  0  0  0  0  0  0  0  0
  183.4460  179.0040  142.7600 N   0  0  0  0  0  0  0  0  0  0  0  0
  186.9040  178.2770  146.0220 C   0  0  2  0  0  3  0  0  0  0  0  0
  185.1120  178.7380  144.5390 C   0  0  0  0  0  0  0  0  0  0  0  0
  186.8070  177.1310  145.0100 C   0  0  1  0  0  3  0  0  0  0  0  0
  186.9200  177.7290  147.4380 C   0  0  0  0  0  1  0  0  0  0  0  0
  185.8070  177.5730  143.9490 C   0  0  0  0  0  2  0  0  0  0  0  0
  184.0440  179.3460  144.0170 C   0  0  0  0  0  3  0  0  0  0  0  0
  185.6880  179.1640  145.8310 C   0  0  0  0  0  2  0  0  0  0  0  0
  188.1660  176.8140  144.3740 C   0  0  0  0  0  3  0  0  0  0  0  0
  189.1810  177.8800  144.7540 C   0  0  0  0  0  1  0  0  0  0  0  0
  188.0710  176.7820  142.8590 C   0  0  0  0  0  1  0  0  0  0  0  0
  180.8180  177.3070  138.5430 O   0  0  0  0  0  0  0  0  0  0  0  0
  181.0020  178.8640  140.2850 N   0  0  0  0  0  0  0  0  0  0  0  0
  180.5260  178.4510  138.9870 C   0  0  0  0  0  0  0  0  0  0  0  0
  179.7100  179.3990  138.1470 C   0  0  2  0  0  3  0  0  0  0  0  0
  179.9920  179.1910  136.7280 C   0  0  0  0  0  2  0  0  0  0  0  0
  180.5790  180.3470  137.4240 N   0  0  0  0  0  0  0  0  0  0  0  0
  179.7470  181.4940  137.1070 C   0  0  0  0  0  2  0  0  0  0  0  0
  180.5450  182.5150  136.3120 C   0  0  0  0  0  2  0  0  0  0  0  0
  181.5550  184.6770  136.4650 O   0  0  0  0  0  1  0  0  0  0  0  0
  181.1230  183.5840  137.2220 C   0  0  0  0  0  2  0  0  0  0  0  0
  179.1980  179.9860  141.4880 C   0  0  0  0  0  1  0  0  0  0  0  0
  180.5740  180.1300  140.8640 C   0  0  0  0  0  2  0  0  0  0  0  0
  185.9060  178.3410  137.7200 C   0  0  0  0  0  2  0  0  0  0  0  0
  186.2920  176.9100  137.4910 C   0  0  0  0  0  0  0  0  0  0  0  0
  185.4140  176.1090  137.0680 O   0  0  0  0  0  0  0  0  0  0  0  0
  189.8240  176.8220  138.8250 C   0  0  0  0  0  3  0  0  0  0  0  0
  187.6930  176.4640  137.7130 C   0  0  0  0  0  0  0  0  0  0  0  0
  188.4940  177.1800  138.6140 C   0  0  0  0  0  3  0  0  0  0  0  0
  190.3930  175.7420  138.1340 C   0  0  0  0  0  0  0  0  0  0  0  0
  189.6030  175.0270  137.2210 C   0  0  0  0  0  0  0  0  0  0  0  0
  187.5030  174.6500  136.0960 O   0  0  0  0  0  1  0  0  0  0  0  0
  190.3040  173.6880  136.3230 Cl  0  0  0  0  0  0  0  0  0  0  0  0
  188.2600  175.3800  137.0080 C   0  0  0  0  0  0  0  0  0  0  0  0
  191.7340  175.3620  138.3210 O   0  0  0  0  0  0  0  0  0  0  0  0
  192.8660  176.0680  137.8900 C   0  0  0  0  0  0  0  0  0  0  0  0
  193.2620  175.9940  136.4570 C   0  0  0  0  0  1  0  0  0  0  0  0
  193.5650  176.7560  138.6840 O   0  0  0  0  0  0  0  0  0  0  0  0
  1  2  2  0  0  0  0
  1  7  1  0  0  0  0
  2  3  1  0  0  0  0
  3  6  1  0  0  0  0
  3  8  2  0  0  0  0
  4  8  1  0  0  0  0
  5  9  1  0  0  0  0
  6 21  1  6  0  0  0
  6  5  1  0  0  0  0
  7  4  2  0  0  0  0
  8  9  1  0  0  0  0
  9 15  1  0  0  0  0
 10 13  1  1  0  0  0
 11 16  1  0  0  0  0
 12 17  1  6  0  0  0
 12 10  1  0  0  0  0
 14 11  1  0  0  0  0
 14 12  1  0  0  0  0
 15 11  2  0  0  0  0
 16 10  1  0  0  0  0
 17 18  1  0  0  0  0
 19 17  1  0  0  0  0
 20 22  2  0  0  0  0
 21 31  1  0  0  0  0
 22 21  1  0  0  0  0
 23 22  1  1  0  0  0
 24 25  1  0  0  0  0
 24 23  1  0  0  0  0
 25 23  1  0  0  0  0
 26 25  1  0  0  0  0
 27 26  1  0  0  0  0
 27 29  1  0  0  0  0
 28 29  1  0  0  0  0
 31 30  1  0  0  0  0
 32  1  1  0  0  0  0
 33 36  1  0  0  0  0
 33 32  1  0  0  0  0
 34 33  2  0  0  0  0
 36 37  2  0  0  0  0
 37 35  1  0  0  0  0
 38 43  1  0  0  0  0
 38 35  2  0  0  0  0
 39 38  1  0  0  0  0
 40 42  1  0  0  0  0
 41 39  1  0  0  0  0
 42 39  2  0  0  0  0
 42 36  1  0  0  0  0
 44 43  1  0  0  0  0
 44 46  2  0  0  0  0
 45 44  1  0  0  0  0
M  END
>  <MODEL>
5

>  <REMARK>
 VINA RESULT:      -7.3      4.114      9.820
  Name = 
  13 active torsions:
  status: ('A' for Active; 'I' for Inactive)
    1  A    between atoms: C_1  and  C_3
    2  A    between atoms: C_1  and  C_45
    3  A    between atoms: C_4  and  O_38
    4  A    between atoms: C_6  and  C_15
    5  A    between atoms: C_6  and  C_18
    6  A    between atoms: C_8  and  C_45
    7  A    between atoms: C_10  and  O_38
    8  A    between atoms: C_15  and  N_33
    9  A    between atoms: C_16  and  C_31
   10  A    between atoms: C_22  and  C_42
   11  A    between atoms: N_27  and  C_30
   12  A    between atoms: N_27  and  C_44
   13  A    between atoms: C_41  and  N_46
                            x       y       z     vdW  Elec       q    Type
                         _______ _______ _______ _____ _____    ______ ____

>  <TORSDO>
F 13

$$$$
=
 OpenBabel11032421003D

 46 50  0  0  1  0  0  0  0  0999 V2000
  189.9470  177.2790  138.4060 C   0  0  0  0  0  0  0  0  0  0  0  0
  189.8890  177.7830  139.7150 C   0  0  0  0  0  3  0  0  0  0  0  0
  188.6550  178.2090  140.1970 C   0  0  0  0  0  0  0  0  0  0  0  0
  187.5820  177.6590  138.1480 N   0  0  0  0  0  0  0  0  0  0  0  0
  186.7880  179.0560  141.4270 C   0  0  0  0  0  2  0  0  0  0  0  0
  188.3160  178.8120  141.5180 C   0  0  1  0  0  3  0  0  0  0  0  0
  188.7700  177.2210  137.6330 C   0  0  0  0  0  3  0  0  0  0  0  0
  187.5420  178.1490  139.4140 C   0  0  0  0  0  0  0  0  0  0  0  0
  186.3900  178.6150  140.0860 N   0  0  0  0  0  0  0  0  0  0  0  0
  181.6050  178.8970  140.4680 C   0  0  2  0  0  3  0  0  0  0  0  0
  183.9420  178.7470  140.0970 C   0  0  0  0  0  0  0  0  0  0  0  0
  182.2560  178.3090  141.7230 C   0  0  1  0  0  3  0  0  0  0  0  0
  180.4560  178.0180  140.0070 C   0  0  0  0  0  1  0  0  0  0  0  0
  183.7620  178.4430  141.5340 C   0  0  0  0  0  2  0  0  0  0  0  0
  185.1130  178.7890  139.4580 C   0  0  0  0  0  3  0  0  0  0  0  0
  182.6660  178.9610  139.3850 C   0  0  0  0  0  2  0  0  0  0  0  0
  181.8030  179.0350  142.9950 C   0  0  0  0  0  3  0  0  0  0  0  0
  182.8960  178.9700  144.0490 C   0  0  0  0  0  1  0  0  0  0  0  0
  180.5550  178.3970  143.5790 C   0  0  0  0  0  1  0  0  0  0  0  0
  190.5870  179.0960  143.2720 O   0  0  0  0  0  0  0  0  0  0  0  0
  188.6630  177.9220  142.6310 N   0  0  0  0  0  0  0  0  0  0  0  0
  189.8750  178.0620  143.3990 C   0  0  0  0  0  0  0  0  0  0  0  0
  190.3120  176.9590  144.3270 C   0  0  2  0  0  3  0  0  0  0  0  0
  189.6640  177.1030  145.6290 C   0  0  0  0  0  2  0  0  0  0  0  0
  191.0730  177.5000  145.4700 N   0  0  0  0  0  0  0  0  0  0  0  0
  191.8770  176.4000  145.9740 C   0  0  0  0  0  2  0  0  0  0  0  0
  191.6140  176.1980  147.4580 C   0  0  0  0  0  2  0  0  0  0  0  0
  193.3480  176.5570  149.0650 O   0  0  0  0  0  1  0  0  0  0  0  0
  192.8350  175.6280  148.1560 C   0  0  0  0  0  2  0  0  0  0  0  0
  186.7740  177.1200  143.9540 C   0  0  0  0  0  1  0  0  0  0  0  0
  187.7690  176.7950  142.8550 C   0  0  0  0  0  2  0  0  0  0  0  0
  191.2370  176.7910  137.8360 C   0  0  0  0  0  2  0  0  0  0  0  0
  191.3030  175.2930  137.8670 C   0  0  0  0  0  0  0  0  0  0  0  0
  190.3150  174.6560  138.3260 O   0  0  0  0  0  0  0  0  0  0  0  0
  193.3660  172.8230  135.8910 C   0  0  0  0  0  3  0  0  0  0  0  0
  192.4880  174.5800  137.3230 C   0  0  0  0  0  0  0  0  0  0  0  0
  192.2880  173.5450  136.3980 C   0  0  0  0  0  3  0  0  0  0  0  0
  194.6760  173.1110  136.3010 C   0  0  0  0  0  0  0  0  0  0  0  0
  194.8860  174.1360  137.2360 C   0  0  0  0  0  0  0  0  0  0  0  0
  194.0460  175.8820  138.6720 O   0  0  0  0  0  1  0  0  0  0  0  0
  196.5180  174.4950  137.7850 Cl  0  0  0  0  0  0  0  0  0  0  0  0
  193.8040  174.8710  137.7460 C   0  0  0  0  0  0  0  0  0  0  0  0
  195.7830  172.3950  135.8120 O   0  0  0  0  0  0  0  0  0  0  0  0
  196.1720  171.1020  136.1930 C   0  0  0  0  0  0  0  0  0  0  0  0
  197.2430  170.9410  137.2130 C   0  0  0  0  0  1  0  0  0  0  0  0
  195.6460  170.0730  135.6870 O   0  0  0  0  0  0  0  0  0  0  0  0
  1  2  1  0  0  0  0
  2  3  2  0  0  0  0
  3  6  1  0  0  0  0
  4  8  2  0  0  0  0
  5  6  1  0  0  0  0
  6 21  1  1  0  0  0
  7  4  1  0  0  0  0
  7  1  2  0  0  0  0
  8  9  1  0  0  0  0
  8  3  1  0  0  0  0
  9  5  1  0  0  0  0
 10 13  1  6  0  0  0
 10 12  1  0  0  0  0
 11 14  1  0  0  0  0
 12 17  1  1  0  0  0
 14 12  1  0  0  0  0
 15  9  1  0  0  0  0
 15 11  2  0  0  0  0
 16 11  1  0  0  0  0
 16 10  1  0  0  0  0
 17 19  1  0  0  0  0
 17 18  1  0  0  0  0
 20 22  2  0  0  0  0
 21 31  1  0  0  0  0
 21 22  1  0  0  0  0
 23 22  1  6  0  0  0
 23 25  1  0  0  0  0
 23 24  1  0  0  0  0
 25 24  1  0  0  0  0
 25 26  1  0  0  0  0
 26 27  1  0  0  0  0
 27 29  1  0  0  0  0
 29 28  1  0  0  0  0
 31 30  1  0  0  0  0
 32 33  1  0  0  0  0
 32  1  1  0  0  0  0
 33 34  2  0  0  0  0
 35 38  2  0  0  0  0
 35 37  1  0  0  0  0
 36 42  1  0  0  0  0
 36 33  1  0  0  0  0
 37 36  2  0  0  0  0
 38 39  1  0  0  0  0
 39 42  2  0  0  0  0
 39 41  1  0  0  0  0
 42 40  1  0  0  0  0
 43 44  1  0  0  0  0
 43 38  1  0  0  0  0
 44 45  1  0  0  0  0
 46 44  2  0  0  0  0
M  END
>  <MODEL>
6

>  <REMARK>
 VINA RESULT:      -7.1      3.541      8.735
  Name = 
  13 active torsions:
  status: ('A' for Active; 'I' for Inactive)
    1  A    between atoms: C_1  and  C_3
    2  A    between atoms: C_1  and  C_45
    3  A    between atoms: C_4  and  O_38
    4  A    between atoms: C_6  and  C_15
    5  A    between atoms: C_6  and  C_18
    6  A    between atoms: C_8  and  C_45
    7  A    between atoms: C_10  and  O_38
    8  A    between atoms: C_15  and  N_33
    9  A    between atoms: C_16  and  C_31
   10  A    between atoms: C_22  and  C_42
   11  A    between atoms: N_27  and  C_30
   12  A    between atoms: N_27  and  C_44
   13  A    between atoms: C_41  and  N_46
                            x       y       z     vdW  Elec       q    Type
                         _______ _______ _______ _____ _____    ______ ____

>  <TORSDO>
F 13

$$$$
=
 OpenBabel11032421003D

 46 50  0  0  1  0  0  0  0  0999 V2000
  185.5660  178.0820  138.3340 C   0  0  0  0  0  0  0  0  0  0  0  0
  184.1890  177.8310  138.4550 C   0  0  0  0  0  3  0  0  0  0  0  0
  183.5740  178.1380  139.6650 C   0  0  0  0  0  0  0  0  0  0  0  0
  185.6220  178.9070  140.5970 N   0  0  0  0  0  0  0  0  0  0  0  0
  182.1160  178.4890  141.5270 C   0  0  0  0  0  2  0  0  0  0  0  0
  182.1540  177.9450  140.0760 C   0  0  1  0  0  3  0  0  0  0  0  0
  186.2700  178.6290  139.4250 C   0  0  0  0  0  3  0  0  0  0  0  0
  184.2910  178.6540  140.7010 C   0  0  0  0  0  0  0  0  0  0  0  0
  183.4870  178.9090  141.8340 N   0  0  0  0  0  0  0  0  0  0  0  0
  186.6890  178.3360  145.3760 C   0  0  2  0  0  3  0  0  0  0  0  0
  185.0170  178.7320  143.7420 C   0  0  0  0  0  0  0  0  0  0  0  0
  186.6340  177.1260  144.4390 C   0  0  1  0  0  3  0  0  0  0  0  0
  186.5920  177.8870  146.8240 C   0  0  0  0  0  1  0  0  0  0  0  0
  185.7220  177.5150  143.2820 C   0  0  0  0  0  2  0  0  0  0  0  0
  184.0040  179.3240  143.1060 C   0  0  0  0  0  3  0  0  0  0  0  0
  185.5130  179.2340  145.0400 C   0  0  0  0  0  2  0  0  0  0  0  0
  188.0260  176.7390  143.9240 C   0  0  0  0  0  3  0  0  0  0  0  0
  189.0970  177.4590  144.7260 C   0  0  0  0  0  1  0  0  0  0  0  0
  188.2000  177.1220  142.4660 C   0  0  0  0  0  1  0  0  0  0  0  0
  182.4960  180.6340  139.0930 O   0  0  0  0  0  0  0  0  0  0  0  0
  181.2270  178.6660  139.1980 N   0  0  0  0  0  0  0  0  0  0  0  0
  181.4080  180.0500  138.8330 C   0  0  0  0  0  0  0  0  0  0  0  0
  180.2850  180.8090  138.1750 C   0  0  2  0  0  3  0  0  0  0  0  0
  180.5550  180.9820  136.7490 C   0  0  0  0  0  2  0  0  0  0  0  0
  180.7540  182.1140  137.6690 N   0  0  0  0  0  0  0  0  0  0  0  0
  179.5730  182.9530  137.5640 C   0  0  0  0  0  2  0  0  0  0  0  0
  179.9750  184.4190  137.5450 C   0  0  0  0  0  2  0  0  0  0  0  0
  180.7960  184.6060  135.3070 O   0  0  0  0  0  1  0  0  0  0  0  0
  181.1800  184.6430  136.6500 C   0  0  0  0  0  2  0  0  0  0  0  0
  180.3930  176.7570  137.9240 C   0  0  0  0  0  1  0  0  0  0  0  0
  180.0280  177.9440  138.7980 C   0  0  0  0  0  2  0  0  0  0  0  0
  186.2820  177.7890  137.0570 C   0  0  0  0  0  2  0  0  0  0  0  0
  187.6290  178.4460  137.0380 C   0  0  0  0  0  0  0  0  0  0  0  0
  187.6900  179.6910  136.8430 O   0  0  0  0  0  0  0  0  0  0  0  0
  190.3700  175.8930  136.5560 C   0  0  0  0  0  3  0  0  0  0  0  0
  188.8580  177.6490  137.2900 C   0  0  0  0  0  0  0  0  0  0  0  0
  189.2480  176.6900  136.3440 C   0  0  0  0  0  3  0  0  0  0  0  0
  191.1330  176.0280  137.7260 C   0  0  0  0  0  0  0  0  0  0  0  0
  190.7440  176.9750  138.6860 C   0  0  0  0  0  0  0  0  0  0  0  0
  189.2580  178.7170  139.4440 O   0  0  0  0  0  1  0  0  0  0  0  0
  191.6680  177.1410  140.1720 Cl  0  0  0  0  0  0  0  0  0  0  0  0
  189.6160  177.7850  138.4740 C   0  0  0  0  0  0  0  0  0  0  0  0
  192.2660  175.2330  137.9720 O   0  0  0  0  0  0  0  0  0  0  0  0
  193.5990  175.5780  137.7030 C   0  0  0  0  0  0  0  0  0  0  0  0
  194.6560  174.5420  137.8460 C   0  0  0  0  0  1  0  0  0  0  0  0
  193.9270  176.7450  137.3530 O   0  0  0  0  0  0  0  0  0  0  0  0
  1  2  2  0  0  0  0
  1  7  1  0  0  0  0
  2  3  1  0  0  0  0
  3  6  1  0  0  0  0
  3  8  2  0  0  0  0
  4  8  1  0  0  0  0
  5  9  1  0  0  0  0
  6 21  1  6  0  0  0
  6  5  1  0  0  0  0
  7  4  2  0  0  0  0
  8  9  1  0  0  0  0
  9 15  1  0  0  0  0
 10 13  1  1  0  0  0
 11 16  1  0  0  0  0
 12 17  1  6  0  0  0
 12 10  1  0  0  0  0
 14 11  1  0  0  0  0
 14 12  1  0  0  0  0
 15 11  2  0  0  0  0
 16 10  1  0  0  0  0
 17 18  1  0  0  0  0
 19 17  1  0  0  0  0
 22 20  2  0  0  0  0
 22 21  1  0  0  0  0
 23 22  1  1  0  0  0
 24 25  1  0  0  0  0
 24 23  1  0  0  0  0
 25 23  1  0  0  0  0
 26 25  1  0  0  0  0
 27 26  1  0  0  0  0
 28 29  1  0  0  0  0
 29 27  1  0  0  0  0
 30 31  1  0  0  0  0
 31 21  1  0  0  0  0
 32  1  1  0  0  0  0
 33 32  1  0  0  0  0
 33 36  1  0  0  0  0
 34 33  2  0  0  0  0
 35 38  1  0  0  0  0
 36 42  2  0  0  0  0
 37 35  2  0  0  0  0
 37 36  1  0  0  0  0
 38 43  1  0  0  0  0
 38 39  2  0  0  0  0
 39 41  1  0  0  0  0
 42 39  1  0  0  0  0
 42 40  1  0  0  0  0
 44 45  1  0  0  0  0
 44 43  1  0  0  0  0
 46 44  2  0  0  0  0
M  END
>  <MODEL>
7

>  <REMARK>
 VINA RESULT:      -7.1      4.111      9.642
  Name = 
  13 active torsions:
  status: ('A' for Active; 'I' for Inactive)
    1  A    between atoms: C_1  and  C_3
    2  A    between atoms: C_1  and  C_45
    3  A    between atoms: C_4  and  O_38
    4  A    between atoms: C_6  and  C_15
    5  A    between atoms: C_6  and  C_18
    6  A    between atoms: C_8  and  C_45
    7  A    between atoms: C_10  and  O_38
    8  A    between atoms: C_15  and  N_33
    9  A    between atoms: C_16  and  C_31
   10  A    between atoms: C_22  and  C_42
   11  A    between atoms: N_27  and  C_30
   12  A    between atoms: N_27  and  C_44
   13  A    between atoms: C_41  and  N_46
                            x       y       z     vdW  Elec       q    Type
                         _______ _______ _______ _____ _____    ______ ____

>  <TORSDO>
F 13

$$$$
=
 OpenBabel11032421003D

 46 50  0  0  1  0  0  0  0  0999 V2000
  185.9600  179.2040  141.7110 C   0  0  0  0  0  0  0  0  0  0  0  0
  184.9580  179.1800  140.7280 C   0  0  0  0  0  3  0  0  0  0  0  0
  185.2820  178.6580  139.4790 C   0  0  0  0  0  0  0  0  0  0  0  0
  187.5140  178.2080  140.1630 N   0  0  0  0  0  0  0  0  0  0  0  0
  185.3750  177.8770  137.2210 C   0  0  0  0  0  2  0  0  0  0  0  0
  184.4350  178.5440  138.2580 C   0  0  1  0  0  3  0  0  0  0  0  0
  187.2430  178.7050  141.4070 C   0  0  0  0  0  3  0  0  0  0  0  0
  186.5360  178.1960  139.2190 C   0  0  0  0  0  0  0  0  0  0  0  0
  186.6610  177.6960  137.9040 N   0  0  0  0  0  0  0  0  0  0  0  0
  189.2450  174.2870  135.7080 C   0  0  2  0  0  3  0  0  0  0  0  0
  188.1280  176.0610  136.8160 C   0  0  0  0  0  0  0  0  0  0  0  0
  187.9650  173.7320  136.3390 C   0  0  1  0  0  3  0  0  0  0  0  0
  190.4420  173.4450  136.1140 C   0  0  0  0  0  1  0  0  0  0  0  0
  187.1710  174.9340  136.8360 C   0  0  0  0  0  2  0  0  0  0  0  0
  187.9020  177.2750  137.3220 C   0  0  0  0  0  3  0  0  0  0  0  0
  189.4280  175.7080  136.2090 C   0  0  0  0  0  2  0  0  0  0  0  0
  187.1410  172.9160  135.3350 C   0  0  0  0  0  3  0  0  0  0  0  0
  185.7110  173.4280  135.2960 C   0  0  0  0  0  1  0  0  0  0  0  0
  187.0990  171.4480  135.7220 C   0  0  0  0  0  1  0  0  0  0  0  0
  181.7410  179.5510  138.4660 O   0  0  0  0  0  0  0  0  0  0  0  0
  183.2310  177.7420  138.4980 N   0  0  0  0  0  0  0  0  0  0  0  0
  181.9270  178.3250  138.7000 C   0  0  0  0  0  0  0  0  0  0  0  0
  180.7960  177.4800  139.2250 C   0  0  2  0  0  3  0  0  0  0  0  0
  179.5210  177.9420  138.6810 C   0  0  0  0  0  2  0  0  0  0  0  0
  179.8850  178.2800  140.0670 N   0  0  0  0  0  0  0  0  0  0  0  0
  179.1940  177.3330  140.9240 C   0  0  0  0  0  2  0  0  0  0  0  0
  179.6190  177.5320  142.3700 C   0  0  0  0  0  2  0  0  0  0  0  0
  181.4850  178.9900  142.7000 O   0  0  0  0  0  1  0  0  0  0  0  0
  180.0910  178.9550  142.6090 C   0  0  0  0  0  2  0  0  0  0  0  0
  183.0010  175.5810  137.3850 C   0  0  0  0  0  1  0  0  0  0  0  0
  183.4330  176.3070  138.6460 C   0  0  0  0  0  2  0  0  0  0  0  0
  185.6730  179.7370  143.0760 C   0  0  0  0  0  2  0  0  0  0  0  0
  185.4850  178.6190  144.0570 C   0  0  0  0  0  0  0  0  0  0  0  0
  184.3530  178.0680  144.1320 O   0  0  0  0  0  0  0  0  0  0  0  0
  188.6910  176.8750  145.0250 C   0  0  0  0  0  3  0  0  0  0  0  0
  186.6240  178.1460  144.8870 C   0  0  0  0  0  0  0  0  0  0  0  0
  187.6250  177.3740  144.2800 C   0  0  0  0  0  3  0  0  0  0  0  0
  188.7820  177.1290  146.4020 C   0  0  0  0  0  0  0  0  0  0  0  0
  187.7790  177.8900  147.0210 C   0  0  0  0  0  0  0  0  0  0  0  0
  185.7260  179.1520  146.9170 O   0  0  0  0  0  1  0  0  0  0  0  0
  187.8580  178.1960  148.7510 Cl  0  0  0  0  0  0  0  0  0  0  0  0
  186.7050  178.4000  146.2730 C   0  0  0  0  0  0  0  0  0  0  0  0
  189.8420  176.6340  147.1820 O   0  0  0  0  0  0  0  0  0  0  0  0
  191.2020  176.6380  146.8380 C   0  0  0  0  0  0  0  0  0  0  0  0
  192.1050  175.6260  147.4490 C   0  0  0  0  0  1  0  0  0  0  0  0
  191.6820  177.4820  146.0320 O   0  0  0  0  0  0  0  0  0  0  0  0
  1 32  1  0  0  0  0
  2  1  2  0  0  0  0
  3  2  1  0  0  0  0
  4  7  2  0  0  0  0
  5  9  1  0  0  0  0
  5  6  1  0  0  0  0
  6 21  1  1  0  0  0
  6  3  1  0  0  0  0
  7  1  1  0  0  0  0
  8  3  2  0  0  0  0
  8  4  1  0  0  0  0
  9  8  1  0  0  0  0
 10 13  1  1  0  0  0
 10 16  1  0  0  0  0
 10 12  1  0  0  0  0
 11 14  1  0  0  0  0
 11 15  2  0  0  0  0
 12 17  1  6  0  0  0
 12 14  1  0  0  0  0
 15  9  1  0  0  0  0
 16 11  1  0  0  0  0
 17 19  1  0  0  0  0
 18 17  1  0  0  0  0
 20 22  2  0  0  0  0
 21 31  1  0  0  0  0
 21 22  1  0  0  0  0
 23 22  1  6  0  0  0
 23 25  1  0  0  0  0
 24 23  1  0  0  0  0
 24 25  1  0  0  0  0
 25 26  1  0  0  0  0
 26 27  1  0  0  0  0
 27 29  1  0  0  0  0
 29 28  1  0  0  0  0
 30 31  1  0  0  0  0
 32 33  1  0  0  0  0
 33 34  2  0  0  0  0
 33 36  1  0  0  0  0
 35 38  1  0  0  0  0
 36 42  2  0  0  0  0
 37 36  1  0  0  0  0
 37 35  2  0  0  0  0
 38 39  2  0  0  0  0
 38 43  1  0  0  0  0
 39 41  1  0  0  0  0
 42 40  1  0  0  0  0
 42 39  1  0  0  0  0
 44 43  1  0  0  0  0
 44 45  1  0  0  0  0
 46 44  2  0  0  0  0
M  END
>  <MODEL>
8

>  <REMARK>
 VINA RESULT:      -7.0      3.295      7.984
  Name = 
  13 active torsions:
  status: ('A' for Active; 'I' for Inactive)
    1  A    between atoms: C_1  and  C_3
    2  A    between atoms: C_1  and  C_45
    3  A    between atoms: C_4  and  O_38
    4  A    between atoms: C_6  and  C_15
    5  A    between atoms: C_6  and  C_18
    6  A    between atoms: C_8  and  C_45
    7  A    between atoms: C_10  and  O_38
    8  A    between atoms: C_15  and  N_33
    9  A    between atoms: C_16  and  C_31
   10  A    between atoms: C_22  and  C_42
   11  A    between atoms: N_27  and  C_30
   12  A    between atoms: N_27  and  C_44
   13  A    between atoms: C_41  and  N_46
                            x       y       z     vdW  Elec       q    Type
                         _______ _______ _______ _____ _____    ______ ____

>  <TORSDO>
F 13

$$$$
=
 OpenBabel11032421003D

 46 50  0  0  1  0  0  0  0  0999 V2000
  189.1600  175.3420  137.0850 C   0  0  0  0  0  0  0  0  0  0  0  0
  189.6990  176.0690  138.1600 C   0  0  0  0  0  3  0  0  0  0  0  0
  188.8710  176.9760  138.8140 C   0  0  0  0  0  0  0  0  0  0  0  0
  187.0470  176.4600  137.3790 N   0  0  0  0  0  0  0  0  0  0  0  0
  187.8470  178.6260  140.2080 C   0  0  0  0  0  2  0  0  0  0  0  0
  189.1870  177.8910  139.9470 C   0  0  1  0  0  3  0  0  0  0  0  0
  187.8180  175.5520  136.7090 C   0  0  0  0  0  3  0  0  0  0  0  0
  187.5830  177.1600  138.4130 C   0  0  0  0  0  0  0  0  0  0  0  0
  186.9050  178.1100  139.2100 N   0  0  0  0  0  0  0  0  0  0  0  0
  182.5020  179.2450  140.7740 C   0  0  2  0  0  3  0  0  0  0  0  0
  184.6080  178.6990  139.8310 C   0  0  0  0  0  0  0  0  0  0  0  0
  183.2810  178.4020  141.7880 C   0  0  1  0  0  3  0  0  0  0  0  0
  181.1190  178.6580  140.5520 C   0  0  0  0  0  1  0  0  0  0  0  0
  184.6980  178.2700  141.2440 C   0  0  0  0  0  2  0  0  0  0  0  0
  185.5850  178.5940  138.9280 C   0  0  0  0  0  3  0  0  0  0  0  0
  183.2780  179.2330  139.4710 C   0  0  0  0  0  2  0  0  0  0  0  0
  183.2930  179.0480  143.1790 C   0  0  0  0  0  3  0  0  0  0  0  0
  184.5370  178.6210  143.9410 C   0  0  0  0  0  1  0  0  0  0  0  0
  182.0820  178.6270  143.9920 C   0  0  0  0  0  1  0  0  0  0  0  0
  187.7880  177.6800  142.4600 O   0  0  0  0  0  0  0  0  0  0  0  0
  189.6470  177.1590  141.1310 N   0  0  0  0  0  0  0  0  0  0  0  0
  188.9470  177.1870  142.3920 C   0  0  0  0  0  0  0  0  0  0  0  0
  189.6140  176.6610  143.6370 C   0  0  2  0  0  3  0  0  0  0  0  0
  188.9620  177.1990  144.8290 C   0  0  0  0  0  2  0  0  0  0  0  0
  190.2560  177.7520  144.3950 N   0  0  0  0  0  0  0  0  0  0  0  0
  191.2760  177.1250  145.2160 C   0  0  0  0  0  2  0  0  0  0  0  0
  190.7380  176.8740  146.6160 C   0  0  0  0  0  2  0  0  0  0  0  0
  192.5550  176.4340  148.1060 O   0  0  0  0  0  1  0  0  0  0  0  0
  191.5620  175.8220  147.3370 C   0  0  0  0  0  2  0  0  0  0  0  0
  192.0410  177.4990  140.7850 C   0  0  0  0  0  1  0  0  0  0  0  0
  190.9320  176.4860  141.0110 C   0  0  0  0  0  2  0  0  0  0  0  0
  189.9920  174.3430  136.3510 C   0  0  0  0  0  2  0  0  0  0  0  0
  191.3160  174.9310  135.9650 C   0  0  0  0  0  0  0  0  0  0  0  0
  191.3660  175.6990  134.9660 O   0  0  0  0  0  0  0  0  0  0  0  0
  194.2080  175.4570  138.3360 C   0  0  0  0  0  3  0  0  0  0  0  0
  192.5300  174.6470  136.7750 C   0  0  0  0  0  0  0  0  0  0  0  0
  193.0500  175.6630  137.5900 C   0  0  0  0  0  3  0  0  0  0  0  0
  194.8830  174.2280  138.2840 C   0  0  0  0  0  0  0  0  0  0  0  0
  194.3790  173.2090  137.4610 C   0  0  0  0  0  0  0  0  0  0  0  0
  192.7320  172.3790  135.9060 O   0  0  0  0  0  1  0  0  0  0  0  0
  195.2250  171.6710  137.3580 Cl  0  0  0  0  0  0  0  0  0  0  0  0
  193.2080  173.4100  136.7110 C   0  0  0  0  0  0  0  0  0  0  0  0
  196.0580  173.9920  139.0200 O   0  0  0  0  0  0  0  0  0  0  0  0
  197.3330  174.5020  138.7380 C   0  0  0  0  0  0  0  0  0  0  0  0
  197.9800  174.1550  137.4440 C   0  0  0  0  0  1  0  0  0  0  0  0
  197.9520  175.2390  139.5550 O   0  0  0  0  0  0  0  0  0  0  0  0
  1  2  1  0  0  0  0
  2  3  2  0  0  0  0
  3  6  1  0  0  0  0
  4  8  2  0  0  0  0
  6  5  1  0  0  0  0
  6 21  1  1  0  0  0
  7  1  2  0  0  0  0
  7  4  1  0  0  0  0
  8  3  1  0  0  0  0
  8  9  1  0  0  0  0
  9  5  1  0  0  0  0
 10 13  1  6  0  0  0
 10 12  1  0  0  0  0
 11 14  1  0  0  0  0
 12 17  1  1  0  0  0
 14 12  1  0  0  0  0
 15  9  1  0  0  0  0
 15 11  2  0  0  0  0
 16 11  1  0  0  0  0
 16 10  1  0  0  0  0
 17 18  1  0  0  0  0
 17 19  1  0  0  0  0
 21 22  1  0  0  0  0
 22 20  2  0  0  0  0
 23 22  1  6  0  0  0
 23 25  1  0  0  0  0
 23 24  1  0  0  0  0
 25 24  1  0  0  0  0
 25 26  1  0  0  0  0
 26 27  1  0  0  0  0
 27 29  1  0  0  0  0
 29 28  1  0  0  0  0
 30 31  1  0  0  0  0
 31 21  1  0  0  0  0
 32  1  1  0  0  0  0
 33 32  1  0  0  0  0
 33 36  1  0  0  0  0
 34 33  2  0  0  0  0
 36 37  1  0  0  0  0
 37 35  2  0  0  0  0
 38 35  1  0  0  0  0
 38 43  1  0  0  0  0
 39 38  2  0  0  0  0
 40 42  1  0  0  0  0
 41 39  1  0  0  0  0
 42 36  2  0  0  0  0
 42 39  1  0  0  0  0
 44 43  1  0  0  0  0
 44 46  2  0  0  0  0
 45 44  1  0  0  0  0
M  END
>  <MODEL>
9

>  <REMARK>
 VINA RESULT:      -7.0      3.296      8.227
  Name = 
  13 active torsions:
  status: ('A' for Active; 'I' for Inactive)
    1  A    between atoms: C_1  and  C_3
    2  A    between atoms: C_1  and  C_45
    3  A    between atoms: C_4  and  O_38
    4  A    between atoms: C_6  and  C_15
    5  A    between atoms: C_6  and  C_18
    6  A    between atoms: C_8  and  C_45
    7  A    between atoms: C_10  and  O_38
    8  A    between atoms: C_15  and  N_33
    9  A    between atoms: C_16  and  C_31
   10  A    between atoms: C_22  and  C_42
   11  A    between atoms: N_27  and  C_30
   12  A    between atoms: N_27  and  C_44
   13  A    between atoms: C_41  and  N_46
                            x       y       z     vdW  Elec       q    Type
                         _______ _______ _______ _____ _____    ______ ____

>  <TORSDO>
F 13

$$$$
