=
 OpenBabel11032419443D

 45 48  0  0  1  0  0  0  0  0999 V2000
  191.1070  175.8430  138.3890 C   0  0  1  0  0  3  0  0  0  0  0  0
  189.7070  177.9460  137.9170 N   0  0  0  0  0  2  0  0  0  0  0  0
  192.4880  175.9330  137.7450 C   0  0  0  0  0  2  0  0  0  0  0  0
  186.5410  175.2860  136.5300 C   0  0  0  0  0  0  0  0  0  0  0  0
  192.0650  173.7060  136.6460 C   0  0  0  0  0  0  0  0  0  0  0  0
  190.5940  177.2120  138.7810 C   0  0  0  0  0  0  0  0  0  0  0  0
  188.4250  178.4560  138.3220 C   0  0  0  0  0  0  0  0  0  0  0  0
  193.0340  174.5280  137.4690 C   0  0  1  0  0  3  0  0  0  0  0  0
  188.3640  173.7010  135.8170 C   0  0  0  0  0  3  0  0  0  0  0  0
  185.6660  174.6820  135.8510 O   0  0  0  0  0  0  0  0  0  0  0  0
  186.2480  176.6440  137.1310 C   0  0  1  0  0  3  0  0  0  0  0  0
  189.7180  173.3400  135.8400 C   0  0  0  0  0  3  0  0  0  0  0  0
  188.0300  178.3910  139.5680 C   0  0  0  0  0  0  0  0  0  0  0  0
  190.9210  177.6900  139.9020 O   0  0  0  0  0  0  0  0  0  0  0  0
  192.4820  172.7210  135.9760 O   0  0  0  0  0  0  0  0  0  0  0  0
  187.8970  174.7200  136.6580 C   0  0  0  0  0  0  0  0  0  0  0  0
  190.6220  174.0190  136.6810 C   0  0  0  0  0  0  0  0  0  0  0  0
  188.7920  175.3420  137.5220 C   0  0  0  0  0  3  0  0  0  0  0  0
  190.1530  175.0480  137.5160 C   0  0  0  0  0  0  0  0  0  0  0  0
  187.4230  178.8900  137.2920 C   0  0  0  0  0  2  0  0  0  0  0  0
  187.0020  177.7390  136.3720 C   0  0  0  0  0  2  0  0  0  0  0  0
  187.6140  178.3110  140.8030 C   0  0  0  0  0  3  0  0  0  0  0  0
  186.1530  178.3270  141.0900 C   0  0  0  0  0  3  0  0  0  0  0  0
  185.8450  179.4650  142.0410 C   0  0  0  0  0  2  0  0  0  0  0  0
  185.9360  178.0460  142.5640 C   0  0  0  0  0  2  0  0  0  0  0  0
  194.3900  174.6000  136.8240 C   0  0  0  0  0  0  0  0  0  0  0  0
  194.5550  175.3270  135.8050 O   0  0  0  0  0  0  0  0  0  0  0  0
  195.4760  173.7950  137.3150 N   0  0  0  0  0  0  0  0  0  0  0  0
  195.3580  171.4270  137.9340 C   0  0  0  0  0  1  0  0  0  0  0  0
  195.2650  172.8670  138.4210 C   0  0  0  0  0  2  0  0  0  0  0  0
  196.7410  173.7330  136.5910 C   0  0  0  0  0  2  0  0  0  0  0  0
  197.8440  174.3960  137.3970 C   0  0  0  0  0  1  0  0  0  0  0  0
  184.7620  176.9520  137.2140 C   0  0  0  0  0  2  0  0  0  0  0  0
  184.3400  176.9120  138.6040 N   0  0  0  0  0  2  0  0  0  0  0  0
  182.9560  177.3670  138.6510 C   0  0  1  0  0  3  0  0  0  0  0  0
  181.1420  175.9040  137.9350 N   0  0  0  0  0  1  0  0  0  0  0  0
  182.0510  176.2030  139.0270 C   0  0  0  0  0  2  0  0  0  0  0  0
  182.7950  178.5470  139.6250 C   0  0  1  0  0  3  0  0  0  0  0  0
  183.0680  179.8720  138.9790 C   0  0  0  0  0  0  0  0  0  0  0  0
  184.2250  180.3660  139.0290 O   0  0  0  0  0  0  0  0  0  0  0  0
  182.0410  180.5520  138.2600 N   0  0  0  0  0  1  0  0  0  0  0  0
  181.4950  178.5410  140.2080 O   0  0  0  0  0  0  0  0  0  0  0  0
  182.1750  178.8130  142.5910 C   0  0  0  0  0  1  0  0  0  0  0  0
  180.2200  179.7990  141.6690 O   0  0  0  0  0  0  0  0  0  0  0  0
  181.2380  179.0860  141.4690 C   0  0  0  0  0  0  0  0  0  0  0  0
  1  3  1  6  0  0  0
  1  6  1  0  0  0  0
  2  7  1  0  0  0  0
  2  6  1  0  0  0  0
  4 16  1  0  0  0  0
  4 11  1  0  0  0  0
  5 17  1  0  0  0  0
  5  8  1  0  0  0  0
  6 14  2  0  0  0  0
  7 13  2  0  0  0  0
  8 26  1  6  0  0  0
  8  3  1  0  0  0  0
  9 12  2  0  0  0  0
  9 16  1  0  0  0  0
 10  4  2  0  0  0  0
 11 33  1  6  0  0  0
 12 17  1  0  0  0  0
 13 22  2  0  0  0  0
 15  5  2  0  0  0  0
 16 18  2  0  0  0  0
 17 19  2  0  0  0  0
 19 18  1  0  0  0  0
 19  1  1  0  0  0  0
 20  7  1  0  0  0  0
 21 11  1  0  0  0  0
 21 20  1  0  0  0  0
 22 23  1  0  0  0  0
 23 24  1  0  0  0  0
 23 25  1  0  0  0  0
 24 25  1  0  0  0  0
 26 28  1  0  0  0  0
 27 26  2  0  0  0  0
 28 30  1  0  0  0  0
 29 30  1  0  0  0  0
 31 28  1  0  0  0  0
 31 32  1  0  0  0  0
 33 34  1  0  0  0  0
 34 35  1  0  0  0  0
 35 37  1  1  0  0  0
 35 38  1  0  0  0  0
 36 37  1  0  0  0  0
 38 39  1  6  0  0  0
 38 42  1  0  0  0  0
 39 40  2  0  0  0  0
 41 39  1  0  0  0  0
 42 45  1  0  0  0  0
 45 44  2  0  0  0  0
 45 43  1  0  0  0  0
M  END
>  <MODEL>
1

>  <REMARK>
 VINA RESULT:      -6.2      0.000      0.000
  Name = 
  12 active torsions:
  status: ('A' for Active; 'I' for Inactive)
    1  A    between atoms: C_2  and  N_45
    2  A    between atoms: C_4  and  N_26
    3  A    between atoms: C_4  and  C_29
    4  A    between atoms: C_6  and  C_14
    5  A    between atoms: C_6  and  C_19
    6  A    between atoms: C_6  and  O_42
    7  A    between atoms: C_10  and  C_44
    8  A    between atoms: C_12  and  C_18
    9  A    between atoms: C_14  and  N_26
   10  A    between atoms: C_14  and  C_27
   11  A    between atoms: C_35  and  N_45
   12  A    between atoms: O_42  and  C_43
                            x       y       z     vdW  Elec       q    Type
                         _______ _______ _______ _____ _____    ______ ____

>  <TORSDO>
F 12

$$$$
=
 OpenBabel11032419443D

 45 48  0  0  1  0  0  0  0  0999 V2000
  191.3530  175.8400  138.3710 C   0  0  1  0  0  3  0  0  0  0  0  0
  189.8860  177.8930  137.8820 N   0  0  0  0  0  2  0  0  0  0  0  0
  192.7120  175.9460  137.6830 C   0  0  0  0  0  2  0  0  0  0  0  0
  186.7520  175.1150  136.6640 C   0  0  0  0  0  0  0  0  0  0  0  0
  192.3170  173.6800  136.6600 C   0  0  0  0  0  0  0  0  0  0  0  0
  190.8170  177.2060  138.7400 C   0  0  0  0  0  0  0  0  0  0  0  0
  188.6030  178.3810  138.3110 C   0  0  0  0  0  0  0  0  0  0  0  0
  193.2870  174.5490  137.4300 C   0  0  1  0  0  3  0  0  0  0  0  0
  188.5940  173.5570  135.9420 C   0  0  0  0  0  3  0  0  0  0  0  0
  185.8740  174.4690  136.0290 O   0  0  0  0  0  0  0  0  0  0  0  0
  186.4410  176.4810  137.2370 C   0  0  1  0  0  3  0  0  0  0  0  0
  189.9580  173.2310  135.9350 C   0  0  0  0  0  3  0  0  0  0  0  0
  188.2460  178.3420  139.5700 C   0  0  0  0  0  0  0  0  0  0  0  0
  191.1630  177.7240  139.8370 O   0  0  0  0  0  0  0  0  0  0  0  0
  192.7390  172.6860  136.0060 O   0  0  0  0  0  0  0  0  0  0  0  0
  188.1260  174.5870  136.7680 C   0  0  0  0  0  0  0  0  0  0  0  0
  190.8670  173.9560  136.7290 C   0  0  0  0  0  0  0  0  0  0  0  0
  189.0280  175.2560  137.5870 C   0  0  0  0  0  3  0  0  0  0  0  0
  190.3950  174.9970  137.5490 C   0  0  0  0  0  0  0  0  0  0  0  0
  187.5600  178.7590  137.3000 C   0  0  0  0  0  2  0  0  0  0  0  0
  187.1430  177.5730  136.4250 C   0  0  0  0  0  2  0  0  0  0  0  0
  187.8680  178.2850  140.8190 C   0  0  0  0  0  3  0  0  0  0  0  0
  186.4170  178.2720  141.1490 C   0  0  0  0  0  3  0  0  0  0  0  0
  186.1120  179.4120  142.0990 C   0  0  0  0  0  2  0  0  0  0  0  0
  186.2490  178.0000  142.6300 C   0  0  0  0  0  2  0  0  0  0  0  0
  194.6210  174.6370  136.7430 C   0  0  0  0  0  0  0  0  0  0  0  0
  194.6760  175.0200  135.5420 O   0  0  0  0  0  0  0  0  0  0  0  0
  195.8210  174.2220  137.4210 N   0  0  0  0  0  0  0  0  0  0  0  0
  196.2040  174.7050  139.7930 C   0  0  0  0  0  1  0  0  0  0  0  0
  195.7520  173.6710  138.7700 C   0  0  0  0  0  2  0  0  0  0  0  0
  197.0890  174.1450  136.7050 C   0  0  0  0  0  2  0  0  0  0  0  0
  197.3700  172.7140  136.2820 C   0  0  0  0  0  1  0  0  0  0  0  0
  184.9500  176.7530  137.3550 C   0  0  0  0  0  2  0  0  0  0  0  0
  184.7470  178.0530  137.9710 N   0  0  0  0  0  2  0  0  0  0  0  0
  183.5830  177.9450  138.8420 C   0  0  1  0  0  3  0  0  0  0  0  0
  184.2710  180.2760  139.0350 N   0  0  0  0  0  1  0  0  0  0  0  0
  183.2690  179.3080  139.4410 C   0  0  0  0  0  2  0  0  0  0  0  0
  182.3770  177.3660  138.0850 C   0  0  1  0  0  3  0  0  0  0  0  0
  181.4250  176.6360  138.9840 C   0  0  0  0  0  0  0  0  0  0  0  0
  181.8120  175.6130  139.6070 O   0  0  0  0  0  0  0  0  0  0  0  0
  180.0990  177.1230  139.1820 N   0  0  0  0  0  1  0  0  0  0  0  0
  181.6930  178.3930  137.3720 O   0  0  0  0  0  0  0  0  0  0  0  0
  181.9450  177.1630  135.2190 C   0  0  0  0  0  1  0  0  0  0  0  0
  181.1500  179.3970  135.3620 O   0  0  0  0  0  0  0  0  0  0  0  0
  181.5700  178.3830  135.9810 C   0  0  0  0  0  0  0  0  0  0  0  0
  1  3  1  6  0  0  0
  1  6  1  0  0  0  0
  2  7  1  0  0  0  0
  2  6  1  0  0  0  0
  4 16  1  0  0  0  0
  4 11  1  0  0  0  0
  5 17  1  0  0  0  0
  5  8  1  0  0  0  0
  6 14  2  0  0  0  0
  7 13  2  0  0  0  0
  8 26  1  6  0  0  0
  8  3  1  0  0  0  0
  9 16  1  0  0  0  0
 10  4  2  0  0  0  0
 11 33  1  6  0  0  0
 12  9  2  0  0  0  0
 12 17  1  0  0  0  0
 13 22  2  0  0  0  0
 15  5  2  0  0  0  0
 16 18  2  0  0  0  0
 17 19  2  0  0  0  0
 19 18  1  0  0  0  0
 19  1  1  0  0  0  0
 20  7  1  0  0  0  0
 21 11  1  0  0  0  0
 21 20  1  0  0  0  0
 22 23  1  0  0  0  0
 23 24  1  0  0  0  0
 23 25  1  0  0  0  0
 24 25  1  0  0  0  0
 26 28  1  0  0  0  0
 27 26  2  0  0  0  0
 28 30  1  0  0  0  0
 30 29  1  0  0  0  0
 31 28  1  0  0  0  0
 32 31  1  0  0  0  0
 33 34  1  0  0  0  0
 34 35  1  0  0  0  0
 35 37  1  6  0  0  0
 36 37  1  0  0  0  0
 38 42  1  1  0  0  0
 38 35  1  0  0  0  0
 38 39  1  0  0  0  0
 39 41  1  0  0  0  0
 39 40  2  0  0  0  0
 43 45  1  0  0  0  0
 44 45  2  0  0  0  0
 45 42  1  0  0  0  0
M  END
>  <MODEL>
2

>  <REMARK>
 VINA RESULT:      -5.7      1.403      2.431
  Name = 
  12 active torsions:
  status: ('A' for Active; 'I' for Inactive)
    1  A    between atoms: C_2  and  N_45
    2  A    between atoms: C_4  and  N_26
    3  A    between atoms: C_4  and  C_29
    4  A    between atoms: C_6  and  C_14
    5  A    between atoms: C_6  and  C_19
    6  A    between atoms: C_6  and  O_42
    7  A    between atoms: C_10  and  C_44
    8  A    between atoms: C_12  and  C_18
    9  A    between atoms: C_14  and  N_26
   10  A    between atoms: C_14  and  C_27
   11  A    between atoms: C_35  and  N_45
   12  A    between atoms: O_42  and  C_43
                            x       y       z     vdW  Elec       q    Type
                         _______ _______ _______ _____ _____    ______ ____

>  <TORSDO>
F 12

$$$$
=
 OpenBabel11032419443D

 45 48  0  0  1  0  0  0  0  0999 V2000
  183.5150  177.1080  137.5910 C   0  0  1  0  0  3  0  0  0  0  0  0
  185.6060  177.7730  136.2530 N   0  0  0  0  0  2  0  0  0  0  0  0
  182.2820  177.8780  137.1230 C   0  0  0  0  0  2  0  0  0  0  0  0
  187.5930  178.4520  140.0760 C   0  0  0  0  0  0  0  0  0  0  0  0
  181.8760  178.5800  139.5060 C   0  0  0  0  0  0  0  0  0  0  0  0
  184.4880  176.8880  136.4530 C   0  0  0  0  0  0  0  0  0  0  0  0
  186.9760  177.3400  136.1780 C   0  0  0  0  0  0  0  0  0  0  0  0
  181.2610  177.9820  138.2600 C   0  0  1  0  0  3  0  0  0  0  0  0
  185.3310  179.0700  140.9940 C   0  0  0  0  0  3  0  0  0  0  0  0
  188.1980  178.9490  141.0640 O   0  0  0  0  0  0  0  0  0  0  0  0
  188.3530  178.0420  138.8330 C   0  0  1  0  0  3  0  0  0  0  0  0
  183.9390  179.1110  140.8310 C   0  0  0  0  0  3  0  0  0  0  0  0
  187.2870  176.0690  136.1620 C   0  0  0  0  0  0  0  0  0  0  0  0
  184.3350  175.8870  135.7010 O   0  0  0  0  0  0  0  0  0  0  0  0
  181.1400  179.1250  140.3760 O   0  0  0  0  0  0  0  0  0  0  0  0
  186.1210  178.3570  140.0820 C   0  0  0  0  0  0  0  0  0  0  0  0
  183.3310  178.4670  139.7360 C   0  0  0  0  0  0  0  0  0  0  0  0
  185.5000  177.6820  139.0380 C   0  0  0  0  0  3  0  0  0  0  0  0
  184.1270  177.7620  138.8160 C   0  0  0  0  0  0  0  0  0  0  0  0
  188.0920  178.3320  136.3240 C   0  0  0  0  0  2  0  0  0  0  0  0
  188.0790  179.0230  137.6910 C   0  0  0  0  0  2  0  0  0  0  0  0
  187.6120  174.8040  136.1700 C   0  0  0  0  0  3  0  0  0  0  0  0
  188.9670  174.3950  136.6330 C   0  0  0  0  0  3  0  0  0  0  0  0
  189.6780  173.6680  135.5110 C   0  0  0  0  0  2  0  0  0  0  0  0
  189.0500  172.8820  136.6430 C   0  0  0  0  0  2  0  0  0  0  0  0
  180.0450  178.7470  137.8170 C   0  0  0  0  0  0  0  0  0  0  0  0
  178.9310  178.1600  137.7540 O   0  0  0  0  0  0  0  0  0  0  0  0
  180.1590  180.1200  137.3990 N   0  0  0  0  0  0  0  0  0  0  0  0
  181.4850  181.9760  138.2940 C   0  0  0  0  0  1  0  0  0  0  0  0
  181.4630  180.7730  137.3610 C   0  0  0  0  0  2  0  0  0  0  0  0
  179.0190  180.8130  136.8090 C   0  0  0  0  0  2  0  0  0  0  0  0
  179.3700  181.3190  135.4220 C   0  0  0  0  0  1  0  0  0  0  0  0
  189.8460  177.8770  139.0740 C   0  0  0  0  0  2  0  0  0  0  0  0
  190.1020  176.5490  139.6030 N   0  0  0  0  0  2  0  0  0  0  0  0
  191.1950  176.6660  140.5620 C   0  0  1  0  0  3  0  0  0  0  0  0
  193.5240  176.9330  139.8940 N   0  0  0  0  0  1  0  0  0  0  0  0
  192.2490  177.6160  140.0140 C   0  0  0  0  0  2  0  0  0  0  0  0
  190.6780  177.1240  141.9360 C   0  0  1  0  0  3  0  0  0  0  0  0
  189.9310  176.0450  142.6610 C   0  0  0  0  0  0  0  0  0  0  0  0
  190.5160  174.9710  142.9600 O   0  0  0  0  0  0  0  0  0  0  0  0
  188.5770  176.2470  143.0640 N   0  0  0  0  0  1  0  0  0  0  0  0
  191.7520  177.6060  142.7390 O   0  0  0  0  0  0  0  0  0  0  0  0
  191.2090  179.5770  144.1650 C   0  0  0  0  0  1  0  0  0  0  0  0
  191.6640  177.4160  145.0420 O   0  0  0  0  0  0  0  0  0  0  0  0
  191.5520  178.1380  144.0150 C   0  0  0  0  0  0  0  0  0  0  0  0
  1  3  1  6  0  0  0
  1 19  1  0  0  0  0
  2  6  1  0  0  0  0
  3  8  1  0  0  0  0
  4 16  1  0  0  0  0
  4 10  2  0  0  0  0
  5 17  1  0  0  0  0
  5 15  2  0  0  0  0
  6  1  1  0  0  0  0
  7  2  1  0  0  0  0
  7 20  1  0  0  0  0
  8 26  1  6  0  0  0
  8  5  1  0  0  0  0
 11 33  1  1  0  0  0
 11  4  1  0  0  0  0
 12  9  1  0  0  0  0
 13 22  2  0  0  0  0
 13  7  2  0  0  0  0
 14  6  2  0  0  0  0
 16  9  2  0  0  0  0
 17 12  2  0  0  0  0
 18 16  1  0  0  0  0
 19 18  2  0  0  0  0
 19 17  1  0  0  0  0
 20 21  1  0  0  0  0
 21 11  1  0  0  0  0
 22 23  1  0  0  0  0
 23 25  1  0  0  0  0
 24 23  1  0  0  0  0
 24 25  1  0  0  0  0
 27 26  2  0  0  0  0
 28 26  1  0  0  0  0
 30 28  1  0  0  0  0
 30 29  1  0  0  0  0
 31 28  1  0  0  0  0
 32 31  1  0  0  0  0
 33 34  1  0  0  0  0
 34 35  1  0  0  0  0
 35 37  1  6  0  0  0
 35 38  1  0  0  0  0
 36 37  1  0  0  0  0
 38 39  1  1  0  0  0
 38 42  1  0  0  0  0
 39 40  2  0  0  0  0
 39 41  1  0  0  0  0
 42 45  1  0  0  0  0
 45 43  1  0  0  0  0
 45 44  2  0  0  0  0
M  END
>  <MODEL>
3

>  <REMARK>
 VINA RESULT:      -5.2      3.262     10.221
  Name = 
  12 active torsions:
  status: ('A' for Active; 'I' for Inactive)
    1  A    between atoms: C_2  and  N_45
    2  A    between atoms: C_4  and  N_26
    3  A    between atoms: C_4  and  C_29
    4  A    between atoms: C_6  and  C_14
    5  A    between atoms: C_6  and  C_19
    6  A    between atoms: C_6  and  O_42
    7  A    between atoms: C_10  and  C_44
    8  A    between atoms: C_12  and  C_18
    9  A    between atoms: C_14  and  N_26
   10  A    between atoms: C_14  and  C_27
   11  A    between atoms: C_35  and  N_45
   12  A    between atoms: O_42  and  C_43
                            x       y       z     vdW  Elec       q    Type
                         _______ _______ _______ _____ _____    ______ ____

>  <TORSDO>
F 12

$$$$
=
 OpenBabel11032419443D

 45 48  0  0  1  0  0  0  0  0999 V2000
  185.3050  177.1940  137.5030 C   0  0  1  0  0  3  0  0  0  0  0  0
  187.0160  177.3360  135.5900 N   0  0  0  0  0  2  0  0  0  0  0  0
  184.3180  178.3580  137.4590 C   0  0  0  0  0  2  0  0  0  0  0  0
  190.1320  176.9000  138.6100 C   0  0  0  0  0  0  0  0  0  0  0  0
  184.8760  178.8580  139.8620 C   0  0  0  0  0  0  0  0  0  0  0  0
  185.7770  176.8220  136.1140 C   0  0  0  0  0  0  0  0  0  0  0  0
  188.0810  176.5120  135.0820 C   0  0  0  0  0  0  0  0  0  0  0  0
  183.7650  178.6350  138.8600 C   0  0  1  0  0  3  0  0  0  0  0  0
  188.5720  178.0730  140.2020 C   0  0  0  0  0  3  0  0  0  0  0  0
  191.1270  177.0640  139.3680 O   0  0  0  0  0  0  0  0  0  0  0  0
  190.3190  176.4280  137.1840 C   0  0  1  0  0  3  0  0  0  0  0  0
  187.2890  178.5610  140.4840 C   0  0  0  0  0  3  0  0  0  0  0  0
  187.9340  175.2190  134.9460 C   0  0  0  0  0  0  0  0  0  0  0  0
  185.0890  176.0160  135.4290 O   0  0  0  0  0  0  0  0  0  0  0  0
  184.6480  179.4950  140.9290 O   0  0  0  0  0  0  0  0  0  0  0  0
  188.7810  177.2660  139.0750 C   0  0  0  0  0  0  0  0  0  0  0  0
  186.2120  178.2740  139.6230 C   0  0  0  0  0  0  0  0  0  0  0  0
  187.6970  176.9470  138.2650 C   0  0  0  0  0  3  0  0  0  0  0  0
  186.4270  177.4730  138.4870 C   0  0  0  0  0  0  0  0  0  0  0  0
  189.4540  177.0850  134.8890 C   0  0  0  0  0  2  0  0  0  0  0  0
  190.0680  177.5770  136.2030 C   0  0  0  0  0  2  0  0  0  0  0  0
  187.8090  173.9240  134.8280 C   0  0  0  0  0  3  0  0  0  0  0  0
  189.0240  173.0640  134.8350 C   0  0  0  0  0  3  0  0  0  0  0  0
  188.6080  171.6170  135.0010 C   0  0  0  0  0  2  0  0  0  0  0  0
  189.1450  172.3910  136.1880 C   0  0  0  0  0  2  0  0  0  0  0  0
  182.7990  179.7860  138.8350 C   0  0  0  0  0  0  0  0  0  0  0  0
  183.2420  180.9670  138.8120 O   0  0  0  0  0  0  0  0  0  0  0  0
  181.3810  179.5520  138.9070 N   0  0  0  0  0  0  0  0  0  0  0  0
  181.0730  177.6880  140.4680 C   0  0  0  0  0  1  0  0  0  0  0  0
  180.8640  178.1940  139.0470 C   0  0  0  0  0  2  0  0  0  0  0  0
  180.4510  180.6650  139.0540 C   0  0  0  0  0  2  0  0  0  0  0  0
  180.0440  180.8240  140.5080 C   0  0  0  0  0  1  0  0  0  0  0  0
  191.6740  175.7820  136.9420 C   0  0  0  0  0  2  0  0  0  0  0  0
  191.8170  174.6280  137.8130 N   0  0  0  0  0  2  0  0  0  0  0  0
  192.9550  173.8560  137.3270 C   0  0  1  0  0  3  0  0  0  0  0  0
  192.7990  172.0100  135.7430 N   0  0  0  0  0  1  0  0  0  0  0  0
  192.7130  173.4520  135.8810 C   0  0  0  0  0  2  0  0  0  0  0  0
  194.2660  174.6440  137.4850 C   0  0  1  0  0  3  0  0  0  0  0  0
  195.1450  174.0940  138.5680 C   0  0  0  0  0  0  0  0  0  0  0  0
  195.2460  172.8480  138.7200 O   0  0  0  0  0  0  0  0  0  0  0  0
  195.9110  174.9690  139.3930 N   0  0  0  0  0  1  0  0  0  0  0  0
  194.9750  174.6890  136.2500 O   0  0  0  0  0  0  0  0  0  0  0  0
  197.0730  175.6910  135.3520 C   0  0  0  0  0  1  0  0  0  0  0  0
  195.1270  176.9600  135.8480 O   0  0  0  0  0  0  0  0  0  0  0  0
  195.6700  175.8240  135.8270 C   0  0  0  0  0  0  0  0  0  0  0  0
  1  3  1  6  0  0  0
  1 19  1  0  0  0  0
  2  6  1  0  0  0  0
  3  8  1  0  0  0  0
  4 16  1  0  0  0  0
  4 10  2  0  0  0  0
  5 15  2  0  0  0  0
  6  1  1  0  0  0  0
  7  2  1  0  0  0  0
  8 26  1  6  0  0  0
  8  5  1  0  0  0  0
  9 12  1  0  0  0  0
 11 33  1  1  0  0  0
 11  4  1  0  0  0  0
 13  7  2  0  0  0  0
 14  6  2  0  0  0  0
 16  9  2  0  0  0  0
 17  5  1  0  0  0  0
 17 12  2  0  0  0  0
 18 19  2  0  0  0  0
 18 16  1  0  0  0  0
 19 17  1  0  0  0  0
 20  7  1  0  0  0  0
 20 21  1  0  0  0  0
 21 11  1  0  0  0  0
 22 23  1  0  0  0  0
 22 13  2  0  0  0  0
 23 24  1  0  0  0  0
 23 25  1  0  0  0  0
 24 25  1  0  0  0  0
 26 28  1  0  0  0  0
 27 26  2  0  0  0  0
 28 30  1  0  0  0  0
 28 31  1  0  0  0  0
 30 29  1  0  0  0  0
 31 32  1  0  0  0  0
 33 34  1  0  0  0  0
 35 37  1  6  0  0  0
 35 38  1  0  0  0  0
 35 34  1  0  0  0  0
 36 37  1  0  0  0  0
 38 42  1  6  0  0  0
 38 39  1  0  0  0  0
 39 40  2  0  0  0  0
 39 41  1  0  0  0  0
 43 45  1  0  0  0  0
 45 44  2  0  0  0  0
 45 42  1  0  0  0  0
M  END
>  <MODEL>
4

>  <REMARK>
 VINA RESULT:      -4.9      2.032     10.744
  Name = 
  12 active torsions:
  status: ('A' for Active; 'I' for Inactive)
    1  A    between atoms: C_2  and  N_45
    2  A    between atoms: C_4  and  N_26
    3  A    between atoms: C_4  and  C_29
    4  A    between atoms: C_6  and  C_14
    5  A    between atoms: C_6  and  C_19
    6  A    between atoms: C_6  and  O_42
    7  A    between atoms: C_10  and  C_44
    8  A    between atoms: C_12  and  C_18
    9  A    between atoms: C_14  and  N_26
   10  A    between atoms: C_14  and  C_27
   11  A    between atoms: C_35  and  N_45
   12  A    between atoms: O_42  and  C_43
                            x       y       z     vdW  Elec       q    Type
                         _______ _______ _______ _____ _____    ______ ____

>  <TORSDO>
F 12

$$$$
=
 OpenBabel11032419443D

 45 48  0  0  1  0  0  0  0  0999 V2000
  183.6190  178.1560  138.7420 C   0  0  1  0  0  3  0  0  0  0  0  0
  186.0440  178.9660  138.4790 N   0  0  0  0  0  2  0  0  0  0  0  0
  182.6200  179.2260  138.3090 C   0  0  0  0  0  2  0  0  0  0  0  0
  186.6840  177.7700  142.6240 C   0  0  0  0  0  0  0  0  0  0  0  0
  181.4700  178.9840  140.5350 C   0  0  0  0  0  0  0  0  0  0  0  0
  184.9070  178.2560  137.9540 C   0  0  0  0  0  0  0  0  0  0  0  0
  187.3550  178.3940  138.6280 C   0  0  0  0  0  0  0  0  0  0  0  0
  181.2850  179.0280  139.0340 C   0  0  1  0  0  3  0  0  0  0  0  0
  184.2570  178.3140  143.0200 C   0  0  0  0  0  3  0  0  0  0  0  0
  186.9420  177.7390  143.8580 O   0  0  0  0  0  0  0  0  0  0  0  0
  187.8020  177.7730  141.6030 C   0  0  1  0  0  3  0  0  0  0  0  0
  182.9960  178.6280  142.4940 C   0  0  0  0  0  3  0  0  0  0  0  0
  187.6320  177.2010  138.1670 C   0  0  0  0  0  0  0  0  0  0  0  0
  184.9900  177.6690  136.8400 O   0  0  0  0  0  0  0  0  0  0  0  0
  180.5000  179.2480  141.3000 O   0  0  0  0  0  0  0  0  0  0  0  0
  185.2890  177.9070  142.1630 C   0  0  0  0  0  0  0  0  0  0  0  0
  182.7670  178.5700  141.1060 C   0  0  0  0  0  0  0  0  0  0  0  0
  185.0320  177.8020  140.8010 C   0  0  0  0  0  3  0  0  0  0  0  0
  183.8090  178.1710  140.2480 C   0  0  0  0  0  0  0  0  0  0  0  0
  188.3790  179.0650  139.4950 C   0  0  0  0  0  2  0  0  0  0  0  0
  187.9330  179.1550  140.9580 C   0  0  0  0  0  2  0  0  0  0  0  0
  187.9160  176.0020  137.7340 C   0  0  0  0  0  3  0  0  0  0  0  0
  189.0370  175.2420  138.3500 C   0  0  0  0  0  3  0  0  0  0  0  0
  190.3110  176.0520  138.2320 C   0  0  0  0  0  2  0  0  0  0  0  0
  190.0540  174.9030  137.2780 C   0  0  0  0  0  2  0  0  0  0  0  0
  180.2950  180.0820  138.6250 C   0  0  0  0  0  0  0  0  0  0  0  0
  179.1090  179.7480  138.3540 O   0  0  0  0  0  0  0  0  0  0  0  0
  180.7070  181.4520  138.4740 N   0  0  0  0  0  0  0  0  0  0  0  0
  182.3110  183.3000  138.3430 C   0  0  0  0  0  1  0  0  0  0  0  0
  182.1020  181.8290  138.6750 C   0  0  0  0  0  2  0  0  0  0  0  0
  179.7960  182.4450  137.9160 C   0  0  0  0  0  2  0  0  0  0  0  0
  179.7000  182.2850  136.4090 C   0  0  0  0  0  1  0  0  0  0  0  0
  189.1300  177.3010  142.1720 C   0  0  0  0  0  2  0  0  0  0  0  0
  189.4460  178.0760  143.3590 N   0  0  0  0  0  2  0  0  0  0  0  0
  190.5770  177.4290  144.0130 C   0  0  1  0  0  3  0  0  0  0  0  0
  191.3110  179.7530  143.9690 N   0  0  0  0  0  1  0  0  0  0  0  0
  191.7670  178.3760  144.0240 C   0  0  0  0  0  2  0  0  0  0  0  0
  190.2060  176.9680  145.4330 C   0  0  1  0  0  3  0  0  0  0  0  0
  191.3900  176.4790  146.2110 C   0  0  0  0  0  0  0  0  0  0  0  0
  191.7540  177.0930  147.2490 O   0  0  0  0  0  0  0  0  0  0  0  0
  192.0770  175.2930  145.8160 N   0  0  0  0  0  1  0  0  0  0  0  0
  189.5470  178.0140  146.1420 O   0  0  0  0  0  0  0  0  0  0  0  0
  188.6950  178.2520  148.4720 C   0  0  0  0  0  1  0  0  0  0  0  0
  187.5020  177.1260  146.7540 O   0  0  0  0  0  0  0  0  0  0  0  0
  188.5390  177.7640  147.0770 C   0  0  0  0  0  0  0  0  0  0  0  0
  1  3  1  6  0  0  0
  1 19  1  0  0  0  0
  2  7  1  0  0  0  0
  3  8  1  0  0  0  0
  4 10  2  0  0  0  0
  5 17  1  0  0  0  0
  5 15  2  0  0  0  0
  6  2  1  0  0  0  0
  6  1  1  0  0  0  0
  7 20  1  0  0  0  0
  8 26  1  1  0  0  0
  8  5  1  0  0  0  0
 11 33  1  1  0  0  0
 11  4  1  0  0  0  0
 12  9  1  0  0  0  0
 13  7  2  0  0  0  0
 14  6  2  0  0  0  0
 16  4  1  0  0  0  0
 16  9  2  0  0  0  0
 17 12  2  0  0  0  0
 18 16  1  0  0  0  0
 19 18  2  0  0  0  0
 19 17  1  0  0  0  0
 20 21  1  0  0  0  0
 21 11  1  0  0  0  0
 22 13  2  0  0  0  0
 22 23  1  0  0  0  0
 24 23  1  0  0  0  0
 25 24  1  0  0  0  0
 25 23  1  0  0  0  0
 27 26  2  0  0  0  0
 28 26  1  0  0  0  0
 28 30  1  0  0  0  0
 29 30  1  0  0  0  0
 31 28  1  0  0  0  0
 32 31  1  0  0  0  0
 33 34  1  0  0  0  0
 34 35  1  0  0  0  0
 35 37  1  1  0  0  0
 35 38  1  0  0  0  0
 36 37  1  0  0  0  0
 38 42  1  1  0  0  0
 38 39  1  0  0  0  0
 39 40  2  0  0  0  0
 41 39  1  0  0  0  0
 42 45  1  0  0  0  0
 44 45  2  0  0  0  0
 45 43  1  0  0  0  0
M  END
>  <MODEL>
5

>  <REMARK>
 VINA RESULT:      -4.2      3.816     10.549
  Name = 
  12 active torsions:
  status: ('A' for Active; 'I' for Inactive)
    1  A    between atoms: C_2  and  N_45
    2  A    between atoms: C_4  and  N_26
    3  A    between atoms: C_4  and  C_29
    4  A    between atoms: C_6  and  C_14
    5  A    between atoms: C_6  and  C_19
    6  A    between atoms: C_6  and  O_42
    7  A    between atoms: C_10  and  C_44
    8  A    between atoms: C_12  and  C_18
    9  A    between atoms: C_14  and  N_26
   10  A    between atoms: C_14  and  C_27
   11  A    between atoms: C_35  and  N_45
   12  A    between atoms: O_42  and  C_43
                            x       y       z     vdW  Elec       q    Type
                         _______ _______ _______ _____ _____    ______ ____

>  <TORSDO>
F 12

$$$$
=
 OpenBabel11032419443D

 45 48  0  0  1  0  0  0  0  0999 V2000
  184.5820  177.8130  140.3580 C   0  0  1  0  0  3  0  0  0  0  0  0
  185.9920  178.7950  138.4460 N   0  0  0  0  0  2  0  0  0  0  0  0
  183.5920  178.8370  140.9080 C   0  0  0  0  0  2  0  0  0  0  0  0
  189.5210  177.4190  140.6070 C   0  0  0  0  0  0  0  0  0  0  0  0
  184.4960  178.3970  143.2170 C   0  0  0  0  0  0  0  0  0  0  0  0
  184.8460  178.0410  138.8850 C   0  0  0  0  0  0  0  0  0  0  0  0
  186.9750  178.3040  137.5190 C   0  0  0  0  0  0  0  0  0  0  0  0
  183.2500  178.5110  142.3650 C   0  0  1  0  0  3  0  0  0  0  0  0
  188.2050  177.7780  142.7240 C   0  0  0  0  0  3  0  0  0  0  0  0
  190.6160  177.3370  141.2280 O   0  0  0  0  0  0  0  0  0  0  0  0
  189.4990  177.5510  139.0990 C   0  0  1  0  0  3  0  0  0  0  0  0
  186.9750  178.0360  143.3440 C   0  0  0  0  0  3  0  0  0  0  0  0
  186.8170  177.1580  136.9040 C   0  0  0  0  0  0  0  0  0  0  0  0
  184.0700  177.5230  138.0370 O   0  0  0  0  0  0  0  0  0  0  0  0
  184.4230  178.5540  144.4680 O   0  0  0  0  0  0  0  0  0  0  0  0
  188.2510  177.4880  141.3540 C   0  0  0  0  0  0  0  0  0  0  0  0
  185.7850  178.0390  142.5910 C   0  0  0  0  0  0  0  0  0  0  0  0
  187.0610  177.4400  140.6360 C   0  0  0  0  0  3  0  0  0  0  0  0
  185.8350  177.7580  141.2130 C   0  0  0  0  0  0  0  0  0  0  0  0
  188.3010  178.9930  137.3860 C   0  0  0  0  0  2  0  0  0  0  0  0
  189.0990  178.9720  138.6940 C   0  0  0  0  0  2  0  0  0  0  0  0
  186.6850  176.0060  136.3040 C   0  0  0  0  0  3  0  0  0  0  0  0
  187.8920  175.2900  135.8100 C   0  0  0  0  0  3  0  0  0  0  0  0
  187.4630  174.0350  135.0790 C   0  0  0  0  0  2  0  0  0  0  0  0
  187.9840  173.9430  136.4990 C   0  0  0  0  0  2  0  0  0  0  0  0
  182.2840  179.5180  142.9240 C   0  0  0  0  0  0  0  0  0  0  0  0
  182.6920  180.3750  143.7550 O   0  0  0  0  0  0  0  0  0  0  0  0
  180.8890  179.4650  142.5720 N   0  0  0  0  0  0  0  0  0  0  0  0
  179.7920  179.0000  140.4310 C   0  0  0  0  0  1  0  0  0  0  0  0
  180.3880  178.4080  141.7010 C   0  0  0  0  0  2  0  0  0  0  0  0
  179.9220  180.3290  143.2400 C   0  0  0  0  0  2  0  0  0  0  0  0
  179.0560  179.5170  144.1870 C   0  0  0  0  0  1  0  0  0  0  0  0
  190.8080  177.1380  138.4450 C   0  0  0  0  0  2  0  0  0  0  0  0
  190.9340  175.6910  138.4980 N   0  0  0  0  0  2  0  0  0  0  0  0
  191.2760  175.2350  137.1560 C   0  0  1  0  0  3  0  0  0  0  0  0
  191.1210  176.4040  135.0220 N   0  0  0  0  0  1  0  0  0  0  0  0
  191.7580  176.4160  136.3260 C   0  0  0  0  0  2  0  0  0  0  0  0
  192.3240  174.1110  137.2050 C   0  0  1  0  0  3  0  0  0  0  0  0
  192.1020  173.0670  136.1520 C   0  0  0  0  0  0  0  0  0  0  0  0
  191.0830  173.1280  135.4150 O   0  0  0  0  0  0  0  0  0  0  0  0
  193.0640  172.0350  135.9410 N   0  0  0  0  0  1  0  0  0  0  0  0
  193.6400  174.6480  137.0970 O   0  0  0  0  0  0  0  0  0  0  0  0
  195.1530  173.1810  138.4290 C   0  0  0  0  0  1  0  0  0  0  0  0
  194.9600  175.5230  138.7810 O   0  0  0  0  0  0  0  0  0  0  0  0
  194.5860  174.5200  138.1170 C   0  0  0  0  0  0  0  0  0  0  0  0
  1  3  1  1  0  0  0
  1 19  1  0  0  0  0
  2  6  1  0  0  0  0
  3  8  1  0  0  0  0
  4 10  2  0  0  0  0
  4 16  1  0  0  0  0
  5 15  2  0  0  0  0
  6  1  1  0  0  0  0
  7  2  1  0  0  0  0
  8 26  1  1  0  0  0
  8  5  1  0  0  0  0
  9 12  1  0  0  0  0
 11 33  1  1  0  0  0
 11  4  1  0  0  0  0
 13  7  2  0  0  0  0
 14  6  2  0  0  0  0
 16  9  2  0  0  0  0
 17  5  1  0  0  0  0
 17 12  2  0  0  0  0
 18 19  2  0  0  0  0
 18 16  1  0  0  0  0
 19 17  1  0  0  0  0
 20  7  1  0  0  0  0
 20 21  1  0  0  0  0
 21 11  1  0  0  0  0
 22 13  2  0  0  0  0
 23 22  1  0  0  0  0
 23 25  1  0  0  0  0
 24 23  1  0  0  0  0
 24 25  1  0  0  0  0
 26 27  2  0  0  0  0
 28 26  1  0  0  0  0
 28 31  1  0  0  0  0
 29 30  1  0  0  0  0
 30 28  1  0  0  0  0
 31 32  1  0  0  0  0
 33 34  1  0  0  0  0
 35 37  1  6  0  0  0
 35 38  1  0  0  0  0
 35 34  1  0  0  0  0
 36 37  1  0  0  0  0
 38 39  1  6  0  0  0
 40 39  2  0  0  0  0
 41 39  1  0  0  0  0
 42 38  1  0  0  0  0
 42 45  1  0  0  0  0
 45 43  1  0  0  0  0
 45 44  2  0  0  0  0
M  END
>  <MODEL>
6

>  <REMARK>
 VINA RESULT:      -4.1      2.143     10.723
  Name = 
  12 active torsions:
  status: ('A' for Active; 'I' for Inactive)
    1  A    between atoms: C_2  and  N_45
    2  A    between atoms: C_4  and  N_26
    3  A    between atoms: C_4  and  C_29
    4  A    between atoms: C_6  and  C_14
    5  A    between atoms: C_6  and  C_19
    6  A    between atoms: C_6  and  O_42
    7  A    between atoms: C_10  and  C_44
    8  A    between atoms: C_12  and  C_18
    9  A    between atoms: C_14  and  N_26
   10  A    between atoms: C_14  and  C_27
   11  A    between atoms: C_35  and  N_45
   12  A    between atoms: O_42  and  C_43
                            x       y       z     vdW  Elec       q    Type
                         _______ _______ _______ _____ _____    ______ ____

>  <TORSDO>
F 12

$$$$
=
 OpenBabel11032419443D

 45 48  0  0  1  0  0  0  0  0999 V2000
  185.4460  178.5280  141.5680 C   0  0  1  0  0  3  0  0  0  0  0  0
  187.2920  176.9080  142.3270 N   0  0  0  0  0  2  0  0  0  0  0  0
  184.0700  177.8680  141.6090 C   0  0  0  0  0  2  0  0  0  0  0  0
  189.4050  177.9050  138.6440 C   0  0  0  0  0  0  0  0  0  0  0  0
  183.7230  178.5560  139.2120 C   0  0  0  0  0  0  0  0  0  0  0  0
  186.3580  177.9610  142.6340 C   0  0  0  0  0  0  0  0  0  0  0  0
  188.7060  176.9850  142.5770 C   0  0  0  0  0  0  0  0  0  0  0  0
  183.1300  178.5430  140.6040 C   0  0  1  0  0  3  0  0  0  0  0  0
  187.1430  178.2620  137.5960 C   0  0  0  0  0  3  0  0  0  0  0  0
  189.9860  177.8740  137.5250 O   0  0  0  0  0  0  0  0  0  0  0  0
  190.1320  177.4830  139.9020 C   0  0  1  0  0  3  0  0  0  0  0  0
  185.7560  178.4000  137.7500 C   0  0  0  0  0  3  0  0  0  0  0  0
  189.2270  177.9920  143.2320 C   0  0  0  0  0  0  0  0  0  0  0  0
  186.3230  178.4530  143.7950 O   0  0  0  0  0  0  0  0  0  0  0  0
  182.9700  178.6710  138.2050 O   0  0  0  0  0  0  0  0  0  0  0  0
  187.9740  178.2570  138.7240 C   0  0  0  0  0  0  0  0  0  0  0  0
  185.1890  178.5000  139.0350 C   0  0  0  0  0  0  0  0  0  0  0  0
  187.4040  178.4130  139.9820 C   0  0  0  0  0  3  0  0  0  0  0  0
  186.0260  178.4850  140.1660 C   0  0  0  0  0  0  0  0  0  0  0  0
  189.6450  176.0180  141.9180 C   0  0  0  0  0  2  0  0  0  0  0  0
  189.6130  176.1280  140.3910 C   0  0  0  0  0  2  0  0  0  0  0  0
  189.7630  179.0030  143.8620 C   0  0  0  0  0  3  0  0  0  0  0  0
  191.1970  179.3340  143.6380 C   0  0  0  0  0  3  0  0  0  0  0  0
  191.9630  178.0590  143.3540 C   0  0  0  0  0  2  0  0  0  0  0  0
  192.0280  178.6900  144.7290 C   0  0  0  0  0  2  0  0  0  0  0  0
  181.7740  177.8960  140.6250 C   0  0  0  0  0  0  0  0  0  0  0  0
  181.6750  176.6550  140.4200 O   0  0  0  0  0  0  0  0  0  0  0  0
  180.5880  178.6910  140.8070 N   0  0  0  0  0  0  0  0  0  0  0  0
  180.4380  180.8100  139.5860 C   0  0  0  0  0  1  0  0  0  0  0  0
  180.6850  180.1410  140.9310 C   0  0  0  0  0  2  0  0  0  0  0  0
  179.2650  178.0960  140.6580 C   0  0  0  0  0  2  0  0  0  0  0  0
  178.9990  177.7590  139.2020 C   0  0  0  0  0  1  0  0  0  0  0  0
  191.6440  177.4700  139.7420 C   0  0  0  0  0  2  0  0  0  0  0  0
  192.0610  176.1750  139.2340 N   0  0  0  0  0  2  0  0  0  0  0  0
  193.2080  176.3980  138.3620 C   0  0  1  0  0  3  0  0  0  0  0  0
  194.9550  176.0460  140.0260 N   0  0  0  0  0  1  0  0  0  0  0  0
  194.3650  175.5180  138.8090 C   0  0  0  0  0  2  0  0  0  0  0  0
  192.8410  176.1480  136.8900 C   0  0  1  0  0  3  0  0  0  0  0  0
  194.0380  176.1440  135.9870 C   0  0  0  0  0  0  0  0  0  0  0  0
  194.6800  177.2090  135.7950 O   0  0  0  0  0  0  0  0  0  0  0  0
  194.4880  174.9310  135.3870 N   0  0  0  0  0  1  0  0  0  0  0  0
  192.1170  174.9280  136.7550 O   0  0  0  0  0  0  0  0  0  0  0  0
  189.6700  174.4690  136.8750 C   0  0  0  0  0  1  0  0  0  0  0  0
  190.7820  175.1150  134.8770 O   0  0  0  0  0  0  0  0  0  0  0  0
  190.8820  174.8580  136.1060 C   0  0  0  0  0  0  0  0  0  0  0  0
  1  3  1  6  0  0  0
  1  6  1  0  0  0  0
  2  7  1  0  0  0  0
  2  6  1  0  0  0  0
  4 16  1  0  0  0  0
  4 11  1  0  0  0  0
  5  8  1  0  0  0  0
  6 14  2  0  0  0  0
  7 13  2  0  0  0  0
  8 26  1  6  0  0  0
  8  3  1  0  0  0  0
  9 12  2  0  0  0  0
  9 16  1  0  0  0  0
 10  4  2  0  0  0  0
 11 33  1  6  0  0  0
 11 21  1  0  0  0  0
 12 17  1  0  0  0  0
 13 22  2  0  0  0  0
 15  5  2  0  0  0  0
 16 18  2  0  0  0  0
 17  5  1  0  0  0  0
 17 19  2  0  0  0  0
 18 19  1  0  0  0  0
 19  1  1  0  0  0  0
 20  7  1  0  0  0  0
 21 20  1  0  0  0  0
 23 22  1  0  0  0  0
 23 25  1  0  0  0  0
 24 23  1  0  0  0  0
 24 25  1  0  0  0  0
 26 28  1  0  0  0  0
 27 26  2  0  0  0  0
 28 30  1  0  0  0  0
 29 30  1  0  0  0  0
 31 28  1  0  0  0  0
 32 31  1  0  0  0  0
 34 33  1  0  0  0  0
 35 37  1  1  0  0  0
 35 34  1  0  0  0  0
 37 36  1  0  0  0  0
 38 39  1  6  0  0  0
 38 35  1  0  0  0  0
 40 39  2  0  0  0  0
 41 39  1  0  0  0  0
 42 38  1  0  0  0  0
 44 45  2  0  0  0  0
 45 42  1  0  0  0  0
 45 43  1  0  0  0  0
M  END
>  <MODEL>
7

>  <REMARK>
 VINA RESULT:      -4.0      2.657     10.251
  Name = 
  12 active torsions:
  status: ('A' for Active; 'I' for Inactive)
    1  A    between atoms: C_2  and  N_45
    2  A    between atoms: C_4  and  N_26
    3  A    between atoms: C_4  and  C_29
    4  A    between atoms: C_6  and  C_14
    5  A    between atoms: C_6  and  C_19
    6  A    between atoms: C_6  and  O_42
    7  A    between atoms: C_10  and  C_44
    8  A    between atoms: C_12  and  C_18
    9  A    between atoms: C_14  and  N_26
   10  A    between atoms: C_14  and  C_27
   11  A    between atoms: C_35  and  N_45
   12  A    between atoms: O_42  and  C_43
                            x       y       z     vdW  Elec       q    Type
                         _______ _______ _______ _____ _____    ______ ____

>  <TORSDO>
F 12

$$$$
=
 OpenBabel11032419443D

 45 48  0  0  1  0  0  0  0  0999 V2000
  185.3400  178.6620  141.7430 C   0  0  1  0  0  3  0  0  0  0  0  0
  187.1590  176.9990  142.4710 N   0  0  0  0  0  2  0  0  0  0  0  0
  183.9500  178.0330  141.8010 C   0  0  0  0  0  2  0  0  0  0  0  0
  189.2440  177.9640  138.7630 C   0  0  0  0  0  0  0  0  0  0  0  0
  183.5860  178.7380  139.4110 C   0  0  0  0  0  0  0  0  0  0  0  0
  186.2540  178.0700  142.7950 C   0  0  0  0  0  0  0  0  0  0  0  0
  188.5780  177.0430  142.7020 C   0  0  0  0  0  0  0  0  0  0  0  0
  183.0120  178.7330  140.8110 C   0  0  1  0  0  3  0  0  0  0  0  0
  186.9760  178.3750  137.7480 C   0  0  0  0  0  3  0  0  0  0  0  0
  189.8090  177.9250  137.6360 O   0  0  0  0  0  0  0  0  0  0  0  0
  189.9780  177.5200  140.0100 C   0  0  1  0  0  3  0  0  0  0  0  0
  185.5950  178.5440  137.9210 C   0  0  0  0  0  3  0  0  0  0  0  0
  189.1300  178.0350  143.3530 C   0  0  0  0  0  0  0  0  0  0  0  0
  186.2450  178.5580  143.9580 O   0  0  0  0  0  0  0  0  0  0  0  0
  182.8230  178.8740  138.4150 O   0  0  0  0  0  0  0  0  0  0  0  0
  187.8230  178.3470  138.8640 C   0  0  0  0  0  0  0  0  0  0  0  0
  185.0480  178.6510  139.2140 C   0  0  0  0  0  0  0  0  0  0  0  0
  187.2730  178.5100  140.1300 C   0  0  0  0  0  3  0  0  0  0  0  0
  185.8990  178.6120  140.3330 C   0  0  0  0  0  0  0  0  0  0  0  0
  189.4860  176.0580  142.0260 C   0  0  0  0  0  2  0  0  0  0  0  0
  189.4360  176.1750  140.5000 C   0  0  0  0  0  2  0  0  0  0  0  0
  189.6960  179.0310  143.9800 C   0  0  0  0  0  3  0  0  0  0  0  0
  191.1340  179.3310  143.7380 C   0  0  0  0  0  3  0  0  0  0  0  0
  191.8360  178.0690  143.2830 C   0  0  0  0  0  2  0  0  0  0  0  0
  191.9760  178.5360  144.7170 C   0  0  0  0  0  2  0  0  0  0  0  0
  181.6420  178.1160  140.8480 C   0  0  0  0  0  0  0  0  0  0  0  0
  181.5230  176.8620  140.7720 O   0  0  0  0  0  0  0  0  0  0  0  0
  180.4680  178.9470  140.8980 N   0  0  0  0  0  0  0  0  0  0  0  0
  179.9920  180.9640  139.5910 C   0  0  0  0  0  1  0  0  0  0  0  0
  180.5920  180.4010  140.8720 C   0  0  0  0  0  2  0  0  0  0  0  0
  179.1390  178.3630  140.7620 C   0  0  0  0  0  2  0  0  0  0  0  0
  178.9560  177.7860  139.3700 C   0  0  0  0  0  1  0  0  0  0  0  0
  191.4880  177.4750  139.8290 C   0  0  0  0  0  2  0  0  0  0  0  0
  191.8400  176.3110  139.0330 N   0  0  0  0  0  2  0  0  0  0  0  0
  193.1070  176.6030  138.3740 C   0  0  1  0  0  3  0  0  0  0  0  0
  195.0300  175.2570  139.0340 N   0  0  0  0  0  1  0  0  0  0  0  0
  194.2470  176.4330  139.3680 C   0  0  0  0  0  2  0  0  0  0  0  0
  193.3020  175.7190  137.1320 C   0  0  1  0  0  3  0  0  0  0  0  0
  192.0960  174.8840  136.8210 C   0  0  0  0  0  0  0  0  0  0  0  0
  191.9330  173.7780  137.4000 O   0  0  0  0  0  0  0  0  0  0  0  0
  191.1020  175.3580  135.9140 N   0  0  0  0  0  1  0  0  0  0  0  0
  193.6570  176.5120  136.0020 O   0  0  0  0  0  0  0  0  0  0  0  0
  195.8470  175.4820  135.4030 C   0  0  0  0  0  1  0  0  0  0  0  0
  195.4560  177.8250  135.3830 O   0  0  0  0  0  0  0  0  0  0  0  0
  194.9820  176.6770  135.5910 C   0  0  0  0  0  0  0  0  0  0  0  0
  1  3  1  6  0  0  0
  1  6  1  0  0  0  0
  2  7  1  0  0  0  0
  2  6  1  0  0  0  0
  4 16  1  0  0  0  0
  4 11  1  0  0  0  0
  5  8  1  0  0  0  0
  6 14  2  0  0  0  0
  7 13  2  0  0  0  0
  8 26  1  6  0  0  0
  8  3  1  0  0  0  0
  9 12  2  0  0  0  0
  9 16  1  0  0  0  0
 10  4  2  0  0  0  0
 11 33  1  6  0  0  0
 11 21  1  0  0  0  0
 12 17  1  0  0  0  0
 13 22  2  0  0  0  0
 15  5  2  0  0  0  0
 16 18  2  0  0  0  0
 17  5  1  0  0  0  0
 17 19  2  0  0  0  0
 18 19  1  0  0  0  0
 19  1  1  0  0  0  0
 20  7  1  0  0  0  0
 21 20  1  0  0  0  0
 23 22  1  0  0  0  0
 23 25  1  0  0  0  0
 24 23  1  0  0  0  0
 24 25  1  0  0  0  0
 26 28  1  0  0  0  0
 27 26  2  0  0  0  0
 29 30  1  0  0  0  0
 30 28  1  0  0  0  0
 31 28  1  0  0  0  0
 32 31  1  0  0  0  0
 34 33  1  0  0  0  0
 35 34  1  0  0  0  0
 35 37  1  1  0  0  0
 36 37  1  0  0  0  0
 38 42  1  6  0  0  0
 38 35  1  0  0  0  0
 39 38  1  0  0  0  0
 39 40  2  0  0  0  0
 41 39  1  0  0  0  0
 43 45  1  0  0  0  0
 44 45  2  0  0  0  0
 45 42  1  0  0  0  0
M  END
>  <MODEL>
8

>  <REMARK>
 VINA RESULT:      -3.9      2.660     10.591
  Name = 
  12 active torsions:
  status: ('A' for Active; 'I' for Inactive)
    1  A    between atoms: C_2  and  N_45
    2  A    between atoms: C_4  and  N_26
    3  A    between atoms: C_4  and  C_29
    4  A    between atoms: C_6  and  C_14
    5  A    between atoms: C_6  and  C_19
    6  A    between atoms: C_6  and  O_42
    7  A    between atoms: C_10  and  C_44
    8  A    between atoms: C_12  and  C_18
    9  A    between atoms: C_14  and  N_26
   10  A    between atoms: C_14  and  C_27
   11  A    between atoms: C_35  and  N_45
   12  A    between atoms: O_42  and  C_43
                            x       y       z     vdW  Elec       q    Type
                         _______ _______ _______ _____ _____    ______ ____

>  <TORSDO>
F 12

$$$$
=
 OpenBabel11032419443D

 45 48  0  0  1  0  0  0  0  0999 V2000
  185.3800  178.6830  141.7530 C   0  0  1  0  0  3  0  0  0  0  0  0
  187.1820  176.9980  142.4740 N   0  0  0  0  0  2  0  0  0  0  0  0
  183.9820  178.0730  141.8240 C   0  0  0  0  0  2  0  0  0  0  0  0
  189.2510  177.9180  138.7470 C   0  0  0  0  0  0  0  0  0  0  0  0
  183.6100  178.7730  139.4340 C   0  0  0  0  0  0  0  0  0  0  0  0
  186.2930  178.0830  142.8000 C   0  0  0  0  0  0  0  0  0  0  0  0
  188.6030  177.0240  142.6950 C   0  0  0  0  0  0  0  0  0  0  0  0
  183.0460  178.7810  140.8380 C   0  0  1  0  0  3  0  0  0  0  0  0
  186.9820  178.3560  137.7470 C   0  0  0  0  0  3  0  0  0  0  0  0
  189.8070  177.8660  137.6160 O   0  0  0  0  0  0  0  0  0  0  0  0
  189.9890  177.4700  139.9900 C   0  0  1  0  0  3  0  0  0  0  0  0
  185.6050  178.5440  137.9300 C   0  0  0  0  0  3  0  0  0  0  0  0
  189.1730  178.0120  143.3380 C   0  0  0  0  0  0  0  0  0  0  0  0
  186.3000  178.5760  143.9610 O   0  0  0  0  0  0  0  0  0  0  0  0
  182.8400  178.9140  138.4430 O   0  0  0  0  0  0  0  0  0  0  0  0
  187.8360  178.3210  138.8570 C   0  0  0  0  0  0  0  0  0  0  0  0
  185.0680  178.6650  139.2260 C   0  0  0  0  0  0  0  0  0  0  0  0
  187.2980  178.4970  140.1260 C   0  0  0  0  0  3  0  0  0  0  0  0
  185.9280  178.6190  140.3390 C   0  0  0  0  0  0  0  0  0  0  0  0
  189.4920  176.0230  142.0170 C   0  0  0  0  0  2  0  0  0  0  0  0
  189.4320  176.1350  140.4910 C   0  0  0  0  0  2  0  0  0  0  0  0
  189.7580  179.0030  143.9550 C   0  0  0  0  0  3  0  0  0  0  0  0
  191.1980  179.2810  143.7010 C   0  0  0  0  0  3  0  0  0  0  0  0
  191.8700  178.0170  143.2090 C   0  0  0  0  0  2  0  0  0  0  0  0
  192.0370  178.4500  144.6510 C   0  0  0  0  0  2  0  0  0  0  0  0
  181.6680  178.1830  140.8880 C   0  0  0  0  0  0  0  0  0  0  0  0
  181.5370  176.9300  140.9570 O   0  0  0  0  0  0  0  0  0  0  0  0
  180.5040  179.0230  140.7870 N   0  0  0  0  0  0  0  0  0  0  0  0
  179.3870  181.1890  141.0420 C   0  0  0  0  0  1  0  0  0  0  0  0
  180.6470  180.4620  140.5930 C   0  0  0  0  0  2  0  0  0  0  0  0
  179.1740  178.4370  140.6640 C   0  0  0  0  0  2  0  0  0  0  0  0
  179.0190  177.7600  139.3140 C   0  0  0  0  0  1  0  0  0  0  0  0
  191.4960  177.4030  139.7980 C   0  0  0  0  0  2  0  0  0  0  0  0
  191.7880  177.0660  138.4160 N   0  0  0  0  0  2  0  0  0  0  0  0
  192.1330  175.6490  138.3770 C   0  0  1  0  0  3  0  0  0  0  0  0
  191.5140  173.6000  137.2100 N   0  0  0  0  0  1  0  0  0  0  0  0
  191.0150  174.8730  137.6980 C   0  0  0  0  0  2  0  0  0  0  0  0
  193.4840  175.4280  137.6770 C   0  0  1  0  0  3  0  0  0  0  0  0
  193.6590  176.2970  136.4680 C   0  0  0  0  0  0  0  0  0  0  0  0
  194.4520  177.2730  136.5090 O   0  0  0  0  0  0  0  0  0  0  0  0
  192.9740  175.9950  135.2540 N   0  0  0  0  0  1  0  0  0  0  0  0
  194.5600  175.6290  138.5890 O   0  0  0  0  0  0  0  0  0  0  0  0
  195.2850  173.2570  138.3400 C   0  0  0  0  0  1  0  0  0  0  0  0
  196.3160  174.7870  139.8360 O   0  0  0  0  0  0  0  0  0  0  0  0
  195.4240  174.5980  138.9670 C   0  0  0  0  0  0  0  0  0  0  0  0
  1  3  1  6  0  0  0
  1  6  1  0  0  0  0
  2  7  1  0  0  0  0
  2  6  1  0  0  0  0
  4 16  1  0  0  0  0
  4 11  1  0  0  0  0
  5  8  1  0  0  0  0
  6 14  2  0  0  0  0
  7 13  2  0  0  0  0
  8 26  1  6  0  0  0
  8  3  1  0  0  0  0
  9 12  2  0  0  0  0
  9 16  1  0  0  0  0
 10  4  2  0  0  0  0
 11 33  1  6  0  0  0
 11 21  1  0  0  0  0
 12 17  1  0  0  0  0
 13 22  2  0  0  0  0
 15  5  2  0  0  0  0
 16 18  2  0  0  0  0
 17  5  1  0  0  0  0
 17 19  2  0  0  0  0
 18 19  1  0  0  0  0
 19  1  1  0  0  0  0
 20  7  1  0  0  0  0
 21 20  1  0  0  0  0
 23 22  1  0  0  0  0
 23 25  1  0  0  0  0
 24 23  1  0  0  0  0
 24 25  1  0  0  0  0
 26 27  2  0  0  0  0
 28 26  1  0  0  0  0
 30 28  1  0  0  0  0
 30 29  1  0  0  0  0
 31 28  1  0  0  0  0
 32 31  1  0  0  0  0
 34 33  1  0  0  0  0
 35 37  1  6  0  0  0
 35 34  1  0  0  0  0
 36 37  1  0  0  0  0
 38 39  1  6  0  0  0
 38 35  1  0  0  0  0
 38 42  1  0  0  0  0
 39 40  2  0  0  0  0
 41 39  1  0  0  0  0
 42 45  1  0  0  0  0
 43 45  1  0  0  0  0
 45 44  2  0  0  0  0
M  END
>  <MODEL>
9

>  <REMARK>
 VINA RESULT:      -3.8      2.726     10.513
  Name = 
  12 active torsions:
  status: ('A' for Active; 'I' for Inactive)
    1  A    between atoms: C_2  and  N_45
    2  A    between atoms: C_4  and  N_26
    3  A    between atoms: C_4  and  C_29
    4  A    between atoms: C_6  and  C_14
    5  A    between atoms: C_6  and  C_19
    6  A    between atoms: C_6  and  O_42
    7  A    between atoms: C_10  and  C_44
    8  A    between atoms: C_12  and  C_18
    9  A    between atoms: C_14  and  N_26
   10  A    between atoms: C_14  and  C_27
   11  A    between atoms: C_35  and  N_45
   12  A    between atoms: O_42  and  C_43
                            x       y       z     vdW  Elec       q    Type
                         _______ _______ _______ _____ _____    ______ ____

>  <TORSDO>
F 12

$$$$
