=
 OpenBabel11042410493D

 31 34  0  0  1  0  0  0  0  0999 V2000
  187.8100  177.8310  145.3990 C   0  0  0  0  0  0  0  0  0  0  0  0
  185.5040  178.3310  144.9440 N   0  0  0  0  0  0  0  0  0  0  0  0
  188.6280  178.7420  147.6380 C   0  0  0  0  0  2  0  0  0  0  0  0
  186.5030  178.1380  145.8370 C   0  0  0  0  0  0  0  0  0  0  0  0
  188.7390  175.9420  147.9860 O   0  0  0  0  0  1  0  0  0  0  0  0
  191.3590  177.1890  144.8240 N   0  0  0  0  0  2  0  0  0  0  0  0
  185.7100  178.2910  143.6020 C   0  0  0  0  0  0  0  0  0  0  0  0
  190.2360  176.5730  144.2590 N   0  0  0  0  0  2  0  0  0  0  0  0
  186.9910  177.9980  143.1000 C   0  0  0  0  0  0  0  0  0  0  0  0
  188.4670  177.6660  141.2050 C   0  0  0  0  0  3  0  0  0  0  0  0
  191.7680  176.8290  146.1490 C   0  0  0  0  0  3  0  0  0  0  0  0
  189.5050  177.2920  142.0600 C   0  0  0  0  0  0  0  0  0  0  0  0
  189.2990  177.2770  143.4490 C   0  0  0  0  0  0  0  0  0  0  0  0
  190.8880  176.4450  147.0860 C   0  0  0  0  0  3  0  0  0  0  0  0
  186.2240  178.3420  147.2680 C   0  0  0  0  0  3  0  0  0  0  0  0
  189.4010  176.4180  146.8530 C   0  0  2  0  0  3  0  0  0  0  0  0
  187.2160  178.5820  148.1270 C   0  0  0  0  0  3  0  0  0  0  0  0
  187.2200  177.9990  141.7180 C   0  0  0  0  0  3  0  0  0  0  0  0
  188.0510  177.6960  143.9970 C   0  0  0  0  0  0  0  0  0  0  0  0
  188.9160  177.8180  146.4440 C   0  0  1  0  0  3  0  0  0  0  0  0
  184.8390  179.5490  141.7640 O   0  0  0  0  0  1  0  0  0  0  0  0
  184.5460  178.5360  142.6790 C   0  0  2  0  0  3  0  0  0  0  0  0
  183.2520  178.8340  143.4400 C   0  0  0  0  0  2  0  0  0  0  0  0
  182.0080  178.8210  142.5540 C   0  0  0  0  0  2  0  0  0  0  0  0
  180.0400  180.0090  142.1530 C   0  0  0  0  0  1  0  0  0  0  0  0
  180.9130  179.5210  143.2040 N   0  0  0  0  0  0  0  0  0  0  0  0
  180.1580  178.5230  143.9400 C   0  0  0  0  0  1  0  0  0  0  0  0
  190.7620  176.8720  141.5220 N   0  0  0  0  0  2  0  0  0  0  0  0
  191.1210  177.1340  140.1920 N   0  0  0  0  0  2  0  0  0  0  0  0
  190.8980  175.9960  139.4960 O   0  0  0  0  0  0  0  0  0  0  0  0
  190.3660  176.4280  138.2830 C   0  0  0  0  0  1  0  0  0  0  0  0
  1  4  1  0  0  0  0
  1 20  1  0  0  0  0
  2  4  2  0  0  0  0
  3 17  1  0  0  0  0
  4 15  1  0  0  0  0
  6 11  1  0  0  0  0
  7  2  1  0  0  0  0
  8  6  1  0  0  0  0
  9  7  2  0  0  0  0
  9 19  1  0  0  0  0
 10 18  2  0  0  0  0
 10 12  1  0  0  0  0
 11 14  2  0  0  0  0
 12 13  2  0  0  0  0
 13 19  1  0  0  0  0
 13  8  1  0  0  0  0
 15 17  2  0  0  0  0
 16 14  1  0  0  0  0
 16  5  1  1  0  0  0
 18  9  1  0  0  0  0
 19  1  2  0  0  0  0
 20 16  1  0  0  0  0
 20  3  1  1  0  0  0
 22 21  1  6  0  0  0
 22 23  1  0  0  0  0
 22  7  1  0  0  0  0
 24 26  1  0  0  0  0
 24 23  1  0  0  0  0
 25 26  1  0  0  0  0
 26 27  1  0  0  0  0
 28 12  1  0  0  0  0
 29 28  1  0  0  0  0
 30 29  1  0  0  0  0
 31 30  1  0  0  0  0
M  END
>  <MODEL>
1

>  <REMARK>
 VINA RESULT:      -8.3      0.000      0.000
  Name = 
  7 active torsions:
  status: ('A' for Active; 'I' for Inactive)
    1  A    between atoms: C_7  and  C_10
    2  A    between atoms: C_7  and  C_11
    3  A    between atoms: N_9  and  N_15
    4  A    between atoms: N_9  and  O_25
    5  A    between atoms: C_11  and  C_13
    6  A    between atoms: C_13  and  N_18
    7  A    between atoms: N_15  and  C_20
                            x       y       z     vdW  Elec       q    Type
                         _______ _______ _______ _____ _____    ______ ____

>  <TORSDO>
F 7

$$$$
=
 OpenBabel11042410493D

 31 34  0  0  1  0  0  0  0  0999 V2000
  182.6880  178.7950  142.2760 C   0  0  0  0  0  0  0  0  0  0  0  0
  182.9730  178.7450  144.6610 N   0  0  0  0  0  0  0  0  0  0  0  0
  180.4030  177.9600  141.5040 C   0  0  0  0  0  2  0  0  0  0  0  0
  182.1550  178.8120  143.5840 C   0  0  0  0  0  0  0  0  0  0  0  0
  180.3760  180.6950  140.8030 O   0  0  0  0  0  1  0  0  0  0  0  0
  183.5010  178.6190  138.7200 N   0  0  0  0  0  2  0  0  0  0  0  0
  184.3190  178.6080  144.5470 C   0  0  0  0  0  0  0  0  0  0  0  0
  184.0770  179.3970  139.7310 N   0  0  0  0  0  2  0  0  0  0  0  0
  184.9120  178.5740  143.2710 C   0  0  0  0  0  0  0  0  0  0  0  0
  186.9010  178.4000  141.8950 C   0  0  0  0  0  3  0  0  0  0  0  0
  182.2460  179.0150  138.1550 C   0  0  0  0  0  3  0  0  0  0  0  0
  186.1440  178.6310  140.7450 C   0  0  0  0  0  0  0  0  0  0  0  0
  184.7570  178.8280  140.8460 C   0  0  0  0  0  0  0  0  0  0  0  0
  181.3160  179.6670  138.8700 C   0  0  0  0  0  3  0  0  0  0  0  0
  180.6990  178.8150  143.7970 C   0  0  0  0  0  3  0  0  0  0  0  0
  181.4800  179.9810  140.3330 C   0  0  2  0  0  3  0  0  0  0  0  0
  179.8680  178.4600  142.8160 C   0  0  0  0  0  3  0  0  0  0  0  0
  186.2940  178.3890  143.1440 C   0  0  0  0  0  3  0  0  0  0  0  0
  184.1060  178.7350  142.1110 C   0  0  0  0  0  0  0  0  0  0  0  0
  181.7050  178.6790  141.1190 C   0  0  1  0  0  3  0  0  0  0  0  0
  185.6130  179.7820  146.1800 O   0  0  0  0  0  1  0  0  0  0  0  0
  185.1520  178.5210  145.7970 C   0  0  2  0  0  3  0  0  0  0  0  0
  186.3070  177.5270  145.6590 C   0  0  0  0  0  2  0  0  0  0  0  0
  187.4760  177.8180  146.5970 C   0  0  0  0  0  2  0  0  0  0  0  0
  189.3560  177.9710  145.2230 C   0  0  0  0  0  1  0  0  0  0  0  0
  188.6670  177.1070  146.1630 N   0  0  0  0  0  0  0  0  0  0  0  0
  189.5280  176.9870  147.3260 C   0  0  0  0  0  1  0  0  0  0  0  0
  186.7860  178.7240  139.4700 N   0  0  0  0  0  2  0  0  0  0  0  0
  188.0350  178.1370  139.2280 N   0  0  0  0  0  2  0  0  0  0  0  0
  188.8490  179.1210  138.7830 O   0  0  0  0  0  0  0  0  0  0  0  0
  188.8970  178.9350  137.4020 C   0  0  0  0  0  1  0  0  0  0  0  0
  1  4  1  0  0  0  0
  3 17  1  0  0  0  0
  4 15  1  0  0  0  0
  4  2  2  0  0  0  0
  6  8  1  0  0  0  0
  7  2  1  0  0  0  0
  7 22  1  0  0  0  0
  8 13  1  0  0  0  0
  9  7  2  0  0  0  0
 10 18  2  0  0  0  0
 11  6  1  0  0  0  0
 11 14  2  0  0  0  0
 12 13  2  0  0  0  0
 12 10  1  0  0  0  0
 13 19  1  0  0  0  0
 14 16  1  0  0  0  0
 16  5  1  1  0  0  0
 16 20  1  0  0  0  0
 17 15  2  0  0  0  0
 18  9  1  0  0  0  0
 19  1  2  0  0  0  0
 19  9  1  0  0  0  0
 20  3  1  1  0  0  0
 20  1  1  0  0  0  0
 22 21  1  6  0  0  0
 23 22  1  0  0  0  0
 23 24  1  0  0  0  0
 25 26  1  0  0  0  0
 26 24  1  0  0  0  0
 26 27  1  0  0  0  0
 28 12  1  0  0  0  0
 29 28  1  0  0  0  0
 30 29  1  0  0  0  0
 31 30  1  0  0  0  0
M  END
>  <MODEL>
2

>  <REMARK>
 VINA RESULT:      -8.0      2.699      7.287
  Name = 
  7 active torsions:
  status: ('A' for Active; 'I' for Inactive)
    1  A    between atoms: C_7  and  C_10
    2  A    between atoms: C_7  and  C_11
    3  A    between atoms: N_9  and  N_15
    4  A    between atoms: N_9  and  O_25
    5  A    between atoms: C_11  and  C_13
    6  A    between atoms: C_13  and  N_18
    7  A    between atoms: N_15  and  C_20
                            x       y       z     vdW  Elec       q    Type
                         _______ _______ _______ _____ _____    ______ ____

>  <TORSDO>
F 7

$$$$
=
 OpenBabel11042410493D

 31 34  0  0  1  0  0  0  0  0999 V2000
  188.3540  177.8380  141.8120 C   0  0  0  0  0  0  0  0  0  0  0  0
  187.5020  178.4170  139.6420 N   0  0  0  0  0  0  0  0  0  0  0  0
  190.4380  176.3660  141.7300 C   0  0  0  0  0  2  0  0  0  0  0  0
  188.5400  178.0470  140.4280 C   0  0  0  0  0  0  0  0  0  0  0  0
  191.3830  178.7830  142.8400 O   0  0  0  0  0  1  0  0  0  0  0  0
  188.4050  177.0090  145.3680 N   0  0  0  0  0  2  0  0  0  0  0  0
  186.2390  178.5540  140.1210 C   0  0  0  0  0  0  0  0  0  0  0  0
  187.8390  178.1100  144.7160 N   0  0  0  0  0  2  0  0  0  0  0  0
  185.9840  178.3500  141.4890 C   0  0  0  0  0  0  0  0  0  0  0  0
  184.4160  178.2950  143.3380 C   0  0  0  0  0  3  0  0  0  0  0  0
  189.8190  176.9760  145.5990 C   0  0  0  0  0  3  0  0  0  0  0  0
  185.4610  178.0770  144.2380 C   0  0  0  0  0  0  0  0  0  0  0  0
  186.7820  177.9830  143.7700 C   0  0  0  0  0  0  0  0  0  0  0  0
  190.6910  177.5590  144.7630 C   0  0  0  0  0  3  0  0  0  0  0  0
  189.8460  177.7820  139.8010 C   0  0  0  0  0  3  0  0  0  0  0  0
  190.2730  178.2370  143.4860 C   0  0  2  0  0  3  0  0  0  0  0  0
  190.7570  177.0320  140.4210 C   0  0  0  0  0  3  0  0  0  0  0  0
  184.6770  178.4470  141.9820 C   0  0  0  0  0  3  0  0  0  0  0  0
  187.0580  178.0530  142.3720 C   0  0  0  0  0  0  0  0  0  0  0  0
  189.5160  177.2400  142.5940 C   0  0  1  0  0  3  0  0  0  0  0  0
  184.4340  180.0530  139.6570 O   0  0  0  0  0  1  0  0  0  0  0  0
  185.1390  178.9490  139.1730 C   0  0  2  0  0  3  0  0  0  0  0  0
  184.1960  177.7850  138.8560 C   0  0  0  0  0  2  0  0  0  0  0  0
  182.7940  178.2310  138.4480 C   0  0  0  0  0  2  0  0  0  0  0  0
  182.4510  176.2470  139.6290 C   0  0  0  0  0  1  0  0  0  0  0  0
  181.7880  177.4410  139.1380 N   0  0  0  0  0  0  0  0  0  0  0  0
  181.3860  178.2040  140.3050 C   0  0  0  0  0  1  0  0  0  0  0  0
  185.1960  178.0040  145.6420 N   0  0  0  0  0  2  0  0  0  0  0  0
  184.6220  179.0750  146.3410 N   0  0  0  0  0  2  0  0  0  0  0  0
  185.6340  179.7150  146.9700 O   0  0  0  0  0  0  0  0  0  0  0  0
  186.2680  178.7200  147.7120 C   0  0  0  0  0  1  0  0  0  0  0  0
  1 19  1  0  0  0  0
  1 20  1  0  0  0  0
  2  7  2  0  0  0  0
  2  4  1  0  0  0  0
  4  1  2  0  0  0  0
  6 11  1  0  0  0  0
  7  9  1  0  0  0  0
  8  6  1  0  0  0  0
  9 18  2  0  0  0  0
  9 19  1  0  0  0  0
 10 12  2  0  0  0  0
 12 28  1  0  0  0  0
 13 12  1  0  0  0  0
 13  8  1  0  0  0  0
 14 11  2  0  0  0  0
 15 17  2  0  0  0  0
 15  4  1  0  0  0  0
 16  5  1  6  0  0  0
 16 14  1  0  0  0  0
 17  3  1  0  0  0  0
 18 10  1  0  0  0  0
 19 13  2  0  0  0  0
 20  3  1  6  0  0  0
 20 16  1  0  0  0  0
 22 21  1  1  0  0  0
 22  7  1  0  0  0  0
 23 22  1  0  0  0  0
 24 23  1  0  0  0  0
 24 26  1  0  0  0  0
 26 25  1  0  0  0  0
 26 27  1  0  0  0  0
 28 29  1  0  0  0  0
 29 30  1  0  0  0  0
 30 31  1  0  0  0  0
M  END
>  <MODEL>
3

>  <REMARK>
 VINA RESULT:      -7.9      2.497      5.406
  Name = 
  7 active torsions:
  status: ('A' for Active; 'I' for Inactive)
    1  A    between atoms: C_7  and  C_10
    2  A    between atoms: C_7  and  C_11
    3  A    between atoms: N_9  and  N_15
    4  A    between atoms: N_9  and  O_25
    5  A    between atoms: C_11  and  C_13
    6  A    between atoms: C_13  and  N_18
    7  A    between atoms: N_15  and  C_20
                            x       y       z     vdW  Elec       q    Type
                         _______ _______ _______ _____ _____    ______ ____

>  <TORSDO>
F 7

$$$$
=
 OpenBabel11042410493D

 31 34  0  0  1  0  0  0  0  0999 V2000
  188.3990  177.8210  142.3260 C   0  0  0  0  0  0  0  0  0  0  0  0
  186.9920  178.5050  140.5030 N   0  0  0  0  0  0  0  0  0  0  0  0
  190.3650  176.3620  141.6040 C   0  0  0  0  0  2  0  0  0  0  0  0
  188.2010  178.1000  140.9560 C   0  0  0  0  0  0  0  0  0  0  0  0
  191.6030  178.7240  142.5310 O   0  0  0  0  0  1  0  0  0  0  0  0
  189.4110  176.8150  145.6870 N   0  0  0  0  0  2  0  0  0  0  0  0
  185.9090  178.6150  141.3150 C   0  0  0  0  0  0  0  0  0  0  0  0
  188.7010  177.9460  145.2690 N   0  0  0  0  0  2  0  0  0  0  0  0
  186.0360  178.3420  142.6900 C   0  0  0  0  0  0  0  0  0  0  0  0
  185.0330  178.1880  144.8920 C   0  0  0  0  0  3  0  0  0  0  0  0
  190.8340  176.7750  145.5210 C   0  0  0  0  0  3  0  0  0  0  0  0
  186.2810  177.9290  145.4600 C   0  0  0  0  0  0  0  0  0  0  0  0
  187.4240  177.8640  144.6440 C   0  0  0  0  0  0  0  0  0  0  0  0
  191.4500  177.4020  144.5070 C   0  0  0  0  0  3  0  0  0  0  0  0
  189.2830  177.8710  139.9830 C   0  0  0  0  0  3  0  0  0  0  0  0
  190.7060  178.1420  143.4290 C   0  0  2  0  0  3  0  0  0  0  0  0
  190.3210  177.0940  140.2930 C   0  0  0  0  0  3  0  0  0  0  0  0
  184.9150  178.4090  143.5260 C   0  0  0  0  0  3  0  0  0  0  0  0
  187.3070  178.0030  143.2300 C   0  0  0  0  0  0  0  0  0  0  0  0
  189.7230  177.1890  142.7300 C   0  0  1  0  0  3  0  0  0  0  0  0
  183.5780  178.1530  141.0450 O   0  0  0  0  0  1  0  0  0  0  0  0
  184.5960  179.0530  140.7250 C   0  0  2  0  0  3  0  0  0  0  0  0
  184.6830  179.2780  139.2130 C   0  0  0  0  0  2  0  0  0  0  0  0
  183.7770  178.3500  138.4070 C   0  0  0  0  0  2  0  0  0  0  0  0
  183.8250  176.8160  136.6490 C   0  0  0  0  0  1  0  0  0  0  0  0
  184.5490  177.2660  137.8240 N   0  0  0  0  0  0  0  0  0  0  0  0
  185.7910  177.8460  137.3480 C   0  0  0  0  0  1  0  0  0  0  0  0
  186.4100  177.7850  146.8770 N   0  0  0  0  0  2  0  0  0  0  0  0
  186.4800  178.8960  147.7280 N   0  0  0  0  0  2  0  0  0  0  0  0
  187.7440  178.9390  148.2100 O   0  0  0  0  0  0  0  0  0  0  0  0
  187.9230  177.7010  148.8240 C   0  0  0  0  0  1  0  0  0  0  0  0
  1 20  1  0  0  0  0
  1 19  1  0  0  0  0
  2  4  1  0  0  0  0
  2  7  2  0  0  0  0
  4  1  2  0  0  0  0
  7  9  1  0  0  0  0
  8  6  1  0  0  0  0
  9 19  2  0  0  0  0
  9 18  1  0  0  0  0
 10 12  1  0  0  0  0
 11  6  1  0  0  0  0
 12 28  1  0  0  0  0
 13  8  1  0  0  0  0
 13 12  2  0  0  0  0
 14 11  2  0  0  0  0
 15 17  2  0  0  0  0
 15  4  1  0  0  0  0
 16  5  1  6  0  0  0
 16 14  1  0  0  0  0
 17  3  1  0  0  0  0
 18 10  2  0  0  0  0
 19 13  1  0  0  0  0
 20  3  1  6  0  0  0
 20 16  1  0  0  0  0
 22 21  1  6  0  0  0
 22  7  1  0  0  0  0
 23 22  1  0  0  0  0
 24 23  1  0  0  0  0
 25 26  1  0  0  0  0
 26 24  1  0  0  0  0
 27 26  1  0  0  0  0
 28 29  1  0  0  0  0
 29 30  1  0  0  0  0
 30 31  1  0  0  0  0
M  END
>  <MODEL>
4

>  <REMARK>
 VINA RESULT:      -7.9      2.780      5.608
  Name = 
  7 active torsions:
  status: ('A' for Active; 'I' for Inactive)
    1  A    between atoms: C_7  and  C_10
    2  A    between atoms: C_7  and  C_11
    3  A    between atoms: N_9  and  N_15
    4  A    between atoms: N_9  and  O_25
    5  A    between atoms: C_11  and  C_13
    6  A    between atoms: C_13  and  N_18
    7  A    between atoms: N_15  and  C_20
                            x       y       z     vdW  Elec       q    Type
                         _______ _______ _______ _____ _____    ______ ____

>  <TORSDO>
F 7

$$$$
=
 OpenBabel11042410493D

 31 34  0  0  1  0  0  0  0  0999 V2000
  187.8260  177.9580  145.4290 C   0  0  0  0  0  0  0  0  0  0  0  0
  185.5590  178.6310  145.0060 N   0  0  0  0  0  0  0  0  0  0  0  0
  188.7120  178.7300  147.6950 C   0  0  0  0  0  2  0  0  0  0  0  0
  186.5450  178.3390  145.8860 C   0  0  0  0  0  0  0  0  0  0  0  0
  188.6330  175.9190  147.9420 O   0  0  0  0  0  1  0  0  0  0  0  0
  191.3200  177.0970  144.8110 N   0  0  0  0  0  2  0  0  0  0  0  0
  185.7560  178.6250  143.6620 C   0  0  0  0  0  0  0  0  0  0  0  0
  190.1570  176.5800  144.2310 N   0  0  0  0  0  2  0  0  0  0  0  0
  187.0130  178.2640  143.1420 C   0  0  0  0  0  0  0  0  0  0  0  0
  188.4570  177.9000  141.2280 C   0  0  0  0  0  3  0  0  0  0  0  0
  191.7080  176.6630  146.1210 C   0  0  0  0  0  3  0  0  0  0  0  0
  189.4690  177.4260  142.0630 C   0  0  0  0  0  0  0  0  0  0  0  0
  189.2670  177.3740  143.4530 C   0  0  0  0  0  0  0  0  0  0  0  0
  190.8070  176.3060  147.0490 C   0  0  0  0  0  3  0  0  0  0  0  0
  186.2850  178.5090  147.3250 C   0  0  0  0  0  3  0  0  0  0  0  0
  189.3220  176.3890  146.8230 C   0  0  2  0  0  3  0  0  0  0  0  0
  187.2940  178.6500  148.1850 C   0  0  0  0  0  3  0  0  0  0  0  0
  187.2370  178.2980  141.7600 C   0  0  0  0  0  3  0  0  0  0  0  0
  188.0530  177.8580  144.0220 C   0  0  0  0  0  0  0  0  0  0  0  0
  188.9330  177.8330  146.4670 C   0  0  1  0  0  3  0  0  0  0  0  0
  183.5040  179.4130  143.4920 O   0  0  0  0  0  1  0  0  0  0  0  0
  184.6090  178.9820  142.7550 C   0  0  2  0  0  3  0  0  0  0  0  0
  184.2340  177.8360  141.8120 C   0  0  0  0  0  2  0  0  0  0  0  0
  183.4580  178.2910  140.5790 C   0  0  0  0  0  2  0  0  0  0  0  0
  185.0800  178.5700  138.9250 C   0  0  0  0  0  1  0  0  0  0  0  0
  184.2140  179.2890  139.8410 N   0  0  0  0  0  0  0  0  0  0  0  0
  183.2590  180.0170  139.0250 C   0  0  0  0  0  1  0  0  0  0  0  0
  190.6930  176.9390  141.5030 N   0  0  0  0  0  2  0  0  0  0  0  0
  191.1260  177.3280  140.2280 N   0  0  0  0  0  2  0  0  0  0  0  0
  192.4240  177.6890  140.3520 O   0  0  0  0  0  0  0  0  0  0  0  0
  193.0780  176.9860  139.3420 C   0  0  0  0  0  1  0  0  0  0  0  0
  1  4  1  0  0  0  0
  1 20  1  0  0  0  0
  2  4  2  0  0  0  0
  3 17  1  0  0  0  0
  4 15  1  0  0  0  0
  6 11  1  0  0  0  0
  7  2  1  0  0  0  0
  8  6  1  0  0  0  0
  9  7  2  0  0  0  0
  9 19  1  0  0  0  0
 10 18  2  0  0  0  0
 10 12  1  0  0  0  0
 11 14  2  0  0  0  0
 12 13  2  0  0  0  0
 13 19  1  0  0  0  0
 13  8  1  0  0  0  0
 15 17  2  0  0  0  0
 16 14  1  0  0  0  0
 16  5  1  1  0  0  0
 18  9  1  0  0  0  0
 19  1  2  0  0  0  0
 20 16  1  0  0  0  0
 20  3  1  1  0  0  0
 22 21  1  1  0  0  0
 22  7  1  0  0  0  0
 23 22  1  0  0  0  0
 24 23  1  0  0  0  0
 25 26  1  0  0  0  0
 26 24  1  0  0  0  0
 27 26  1  0  0  0  0
 28 12  1  0  0  0  0
 29 30  1  0  0  0  0
 29 28  1  0  0  0  0
 31 30  1  0  0  0  0
M  END
>  <MODEL>
5

>  <REMARK>
 VINA RESULT:      -7.8      1.703      2.028
  Name = 
  7 active torsions:
  status: ('A' for Active; 'I' for Inactive)
    1  A    between atoms: C_7  and  C_10
    2  A    between atoms: C_7  and  C_11
    3  A    between atoms: N_9  and  N_15
    4  A    between atoms: N_9  and  O_25
    5  A    between atoms: C_11  and  C_13
    6  A    between atoms: C_13  and  N_18
    7  A    between atoms: N_15  and  C_20
                            x       y       z     vdW  Elec       q    Type
                         _______ _______ _______ _____ _____    ______ ____

>  <TORSDO>
F 7

$$$$
=
 OpenBabel11042410493D

 31 34  0  0  1  0  0  0  0  0999 V2000
  187.8660  177.9460  143.3920 C   0  0  0  0  0  0  0  0  0  0  0  0
  186.2210  178.2530  145.1160 N   0  0  0  0  0  0  0  0  0  0  0  0
  190.2670  178.2230  144.2130 C   0  0  0  0  0  2  0  0  0  0  0  0
  187.4840  177.9290  144.7510 C   0  0  0  0  0  0  0  0  0  0  0  0
  190.1220  175.4930  143.5080 O   0  0  0  0  0  1  0  0  0  0  0  0
  189.4200  177.9880  140.0880 N   0  0  0  0  0  2  0  0  0  0  0  0
  185.2850  178.6550  144.2190 C   0  0  0  0  0  0  0  0  0  0  0  0
  188.2020  177.4330  140.4950 N   0  0  0  0  0  2  0  0  0  0  0  0
  185.6040  178.7040  142.8490 C   0  0  0  0  0  0  0  0  0  0  0  0
  184.9410  179.1700  140.5630 C   0  0  0  0  0  3  0  0  0  0  0  0
  190.6410  177.2950  140.3750 C   0  0  0  0  0  3  0  0  0  0  0  0
  186.1660  178.6910  140.0950 C   0  0  0  0  0  0  0  0  0  0  0  0
  187.1300  178.2210  141.0030 C   0  0  0  0  0  0  0  0  0  0  0  0
  190.7850  176.5270  141.4660 C   0  0  0  0  0  3  0  0  0  0  0  0
  188.4740  177.6430  145.8020 C   0  0  0  0  0  3  0  0  0  0  0  0
  189.7110  176.3780  142.5090 C   0  0  2  0  0  3  0  0  0  0  0  0
  189.7800  177.7360  145.5480 C   0  0  0  0  0  3  0  0  0  0  0  0
  184.6570  179.1600  141.9230 C   0  0  0  0  0  3  0  0  0  0  0  0
  186.8880  178.2830  142.4060 C   0  0  0  0  0  0  0  0  0  0  0  0
  189.3430  177.7590  143.0750 C   0  0  1  0  0  3  0  0  0  0  0  0
  183.8110  178.8390  146.0940 O   0  0  0  0  0  1  0  0  0  0  0  0
  183.9100  179.0170  144.7130 C   0  0  2  0  0  3  0  0  0  0  0  0
  182.8070  178.2530  143.9760 C   0  0  0  0  0  2  0  0  0  0  0  0
  181.5930  179.1140  143.6340 C   0  0  0  0  0  2  0  0  0  0  0  0
  179.3740  178.9750  144.3420 C   0  0  0  0  0  1  0  0  0  0  0  0
  180.3930  178.2980  143.5620 N   0  0  0  0  0  0  0  0  0  0  0  0
  179.9480  178.3310  142.1810 C   0  0  0  0  0  1  0  0  0  0  0  0
  186.4210  178.6270  138.6890 N   0  0  0  0  0  2  0  0  0  0  0  0
  185.5560  177.9550  137.8130 N   0  0  0  0  0  2  0  0  0  0  0  0
  186.3250  177.1380  137.0570 O   0  0  0  0  0  0  0  0  0  0  0  0
  187.2110  177.9960  136.4080 C   0  0  0  0  0  1  0  0  0  0  0  0
  1  4  1  0  0  0  0
  3 17  1  0  0  0  0
  4  2  2  0  0  0  0
  4 15  1  0  0  0  0
  6 11  1  0  0  0  0
  6  8  1  0  0  0  0
  7 22  1  0  0  0  0
  7  2  1  0  0  0  0
  8 13  1  0  0  0  0
  9  7  2  0  0  0  0
 10 18  2  0  0  0  0
 11 14  2  0  0  0  0
 12 10  1  0  0  0  0
 12 13  2  0  0  0  0
 13 19  1  0  0  0  0
 14 16  1  0  0  0  0
 16 20  1  0  0  0  0
 16  5  1  1  0  0  0
 17 15  2  0  0  0  0
 18  9  1  0  0  0  0
 19  9  1  0  0  0  0
 19  1  2  0  0  0  0
 20  1  1  0  0  0  0
 20  3  1  1  0  0  0
 22 21  1  1  0  0  0
 23 22  1  0  0  0  0
 24 23  1  0  0  0  0
 26 24  1  0  0  0  0
 26 25  1  0  0  0  0
 27 26  1  0  0  0  0
 28 12  1  0  0  0  0
 29 28  1  0  0  0  0
 30 29  1  0  0  0  0
 31 30  1  0  0  0  0
M  END
>  <MODEL>
6

>  <REMARK>
 VINA RESULT:      -7.8      2.501      3.668
  Name = 
  7 active torsions:
  status: ('A' for Active; 'I' for Inactive)
    1  A    between atoms: C_7  and  C_10
    2  A    between atoms: C_7  and  C_11
    3  A    between atoms: N_9  and  N_15
    4  A    between atoms: N_9  and  O_25
    5  A    between atoms: C_11  and  C_13
    6  A    between atoms: C_13  and  N_18
    7  A    between atoms: N_15  and  C_20
                            x       y       z     vdW  Elec       q    Type
                         _______ _______ _______ _____ _____    ______ ____

>  <TORSDO>
F 7

$$$$
=
 OpenBabel11042410493D

 31 34  0  0  1  0  0  0  0  0999 V2000
  189.0120  177.5930  142.6880 C   0  0  0  0  0  0  0  0  0  0  0  0
  189.4930  177.9220  140.3570 N   0  0  0  0  0  0  0  0  0  0  0  0
  190.5910  175.9480  143.8340 C   0  0  0  0  0  2  0  0  0  0  0  0
  189.9110  177.5810  141.5990 C   0  0  0  0  0  0  0  0  0  0  0  0
  191.1860  178.4090  145.0820 O   0  0  0  0  0  1  0  0  0  0  0  0
  187.1030  177.2910  145.7870 N   0  0  0  0  0  2  0  0  0  0  0  0
  188.2010  178.2380  140.0850 C   0  0  0  0  0  0  0  0  0  0  0  0
  187.1270  178.3310  144.8500 N   0  0  0  0  0  2  0  0  0  0  0  0
  187.2530  178.2600  141.1240 C   0  0  0  0  0  0  0  0  0  0  0  0
  184.9700  178.6130  141.8640 C   0  0  0  0  0  3  0  0  0  0  0  0
  188.1740  177.1680  146.7310 C   0  0  0  0  0  3  0  0  0  0  0  0
  185.3580  178.4380  143.1930 C   0  0  0  0  0  0  0  0  0  0  0  0
  186.7010  178.1610  143.5020 C   0  0  0  0  0  0  0  0  0  0  0  0
  189.4280  177.5440  146.4390 C   0  0  0  0  0  3  0  0  0  0  0  0
  191.2950  177.1140  141.7790 C   0  0  0  0  0  3  0  0  0  0  0  0
  189.8330  178.0630  145.0860 C   0  0  2  0  0  3  0  0  0  0  0  0
  191.6330  176.3850  142.8440 C   0  0  0  0  0  3  0  0  0  0  0  0
  185.9100  178.5420  140.8430 C   0  0  0  0  0  3  0  0  0  0  0  0
  187.6610  178.0010  142.4610 C   0  0  0  0  0  0  0  0  0  0  0  0
  189.5010  177.0170  144.0090 C   0  0  1  0  0  3  0  0  0  0  0  0
  186.8990  177.6680  138.1620 O   0  0  0  0  0  1  0  0  0  0  0  0
  187.8190  178.5860  138.6710 C   0  0  2  0  0  3  0  0  0  0  0  0
  189.0370  178.7180  137.7540 C   0  0  0  0  0  2  0  0  0  0  0  0
  189.0770  177.6710  136.6420 C   0  0  0  0  0  2  0  0  0  0  0  0
  189.7090  175.5970  137.5060 C   0  0  0  0  0  1  0  0  0  0  0  0
  190.2090  176.7770  136.8250 N   0  0  0  0  0  0  0  0  0  0  0  0
  190.6210  176.3500  135.5010 C   0  0  0  0  0  1  0  0  0  0  0  0
  184.4030  178.5940  144.2460 N   0  0  0  0  0  2  0  0  0  0  0  0
  183.2830  179.4250  144.1090 N   0  0  0  0  0  2  0  0  0  0  0  0
  182.1930  178.6300  144.2030 O   0  0  0  0  0  0  0  0  0  0  0  0
  181.4110  178.9800  143.1040 C   0  0  0  0  0  1  0  0  0  0  0  0
  1 20  1  0  0  0  0
  2  4  1  0  0  0  0
  4 15  1  0  0  0  0
  4  1  2  0  0  0  0
  6 11  1  0  0  0  0
  7  2  2  0  0  0  0
  7  9  1  0  0  0  0
  8  6  1  0  0  0  0
  9 19  1  0  0  0  0
 10 12  2  0  0  0  0
 12 13  1  0  0  0  0
 12 28  1  0  0  0  0
 13  8  1  0  0  0  0
 14 11  2  0  0  0  0
 15 17  2  0  0  0  0
 16  5  1  1  0  0  0
 16 14  1  0  0  0  0
 17  3  1  0  0  0  0
 18  9  2  0  0  0  0
 18 10  1  0  0  0  0
 19  1  1  0  0  0  0
 19 13  2  0  0  0  0
 20  3  1  6  0  0  0
 20 16  1  0  0  0  0
 22 21  1  6  0  0  0
 22  7  1  0  0  0  0
 23 22  1  0  0  0  0
 24 26  1  0  0  0  0
 24 23  1  0  0  0  0
 26 25  1  0  0  0  0
 27 26  1  0  0  0  0
 29 30  1  0  0  0  0
 29 28  1  0  0  0  0
 31 30  1  0  0  0  0
M  END
>  <MODEL>
7

>  <REMARK>
 VINA RESULT:      -7.6      2.225      6.636
  Name = 
  7 active torsions:
  status: ('A' for Active; 'I' for Inactive)
    1  A    between atoms: C_7  and  C_10
    2  A    between atoms: C_7  and  C_11
    3  A    between atoms: N_9  and  N_15
    4  A    between atoms: N_9  and  O_25
    5  A    between atoms: C_11  and  C_13
    6  A    between atoms: C_13  and  N_18
    7  A    between atoms: N_15  and  C_20
                            x       y       z     vdW  Elec       q    Type
                         _______ _______ _______ _____ _____    ______ ____

>  <TORSDO>
F 7

$$$$
=
 OpenBabel11042410493D

 31 34  0  0  1  0  0  0  0  0999 V2000
  185.9770  178.3510  143.3930 C   0  0  0  0  0  0  0  0  0  0  0  0
  184.0690  178.6700  141.9680 N   0  0  0  0  0  0  0  0  0  0  0  0
  185.6760  179.3240  145.7330 C   0  0  0  0  0  2  0  0  0  0  0  0
  184.5920  178.5560  143.2120 C   0  0  0  0  0  0  0  0  0  0  0  0
  185.8210  176.5420  146.1900 O   0  0  0  0  0  1  0  0  0  0  0  0
  189.4590  177.9870  144.4320 N   0  0  0  0  0  2  0  0  0  0  0  0
  184.8380  178.6450  140.8500 C   0  0  0  0  0  0  0  0  0  0  0  0
  188.7390  177.2860  143.4590 N   0  0  0  0  0  2  0  0  0  0  0  0
  186.2280  178.4530  140.9610 C   0  0  0  0  0  0  0  0  0  0  0  0
  188.4000  178.2360  139.9040 C   0  0  0  0  0  3  0  0  0  0  0  0
  189.2760  177.6610  145.8160 C   0  0  0  0  0  3  0  0  0  0  0  0
  188.9870  177.9440  141.1360 C   0  0  0  0  0  0  0  0  0  0  0  0
  188.1990  177.9130  142.3000 C   0  0  0  0  0  0  0  0  0  0  0  0
  188.1060  177.2100  146.2920 C   0  0  0  0  0  3  0  0  0  0  0  0
  183.7050  178.7390  144.3730 C   0  0  0  0  0  3  0  0  0  0  0  0
  186.8740  177.0670  145.4400 C   0  0  2  0  0  3  0  0  0  0  0  0
  184.2080  179.0550  145.5670 C   0  0  0  0  0  3  0  0  0  0  0  0
  187.0330  178.4700  139.8160 C   0  0  0  0  0  3  0  0  0  0  0  0
  186.8120  178.2350  142.2390 C   0  0  0  0  0  0  0  0  0  0  0  0
  186.5180  178.4250  144.8130 C   0  0  1  0  0  3  0  0  0  0  0  0
  184.1830  180.1330  139.0950 O   0  0  0  0  0  1  0  0  0  0  0  0
  184.1770  178.7980  139.5060 C   0  0  2  0  0  3  0  0  0  0  0  0
  182.7610  178.2180  139.4850 C   0  0  0  0  0  2  0  0  0  0  0  0
  181.6740  179.2720  139.2900 C   0  0  0  0  0  2  0  0  0  0  0  0
  180.0270  180.5920  140.2870 C   0  0  0  0  0  1  0  0  0  0  0  0
  181.0250  179.5740  140.5560 N   0  0  0  0  0  0  0  0  0  0  0  0
  180.3030  178.3780  140.9500 C   0  0  0  0  0  1  0  0  0  0  0  0
  190.3790  177.6220  141.2100 N   0  0  0  0  0  2  0  0  0  0  0  0
  190.9320  176.5670  140.4710 N   0  0  0  0  0  2  0  0  0  0  0  0
  191.7230  177.1270  139.5260 O   0  0  0  0  0  0  0  0  0  0  0  0
  191.5330  176.3310  138.3980 C   0  0  0  0  0  1  0  0  0  0  0  0
  1 20  1  0  0  0  0
  2  4  2  0  0  0  0
  4  1  1  0  0  0  0
  4 15  1  0  0  0  0
  6 11  1  0  0  0  0
  7  9  2  0  0  0  0
  7  2  1  0  0  0  0
  8  6  1  0  0  0  0
  9 19  1  0  0  0  0
 10 12  1  0  0  0  0
 11 14  2  0  0  0  0
 12 28  1  0  0  0  0
 12 13  2  0  0  0  0
 13  8  1  0  0  0  0
 15 17  2  0  0  0  0
 16  5  1  1  0  0  0
 16 14  1  0  0  0  0
 17  3  1  0  0  0  0
 18 10  2  0  0  0  0
 18  9  1  0  0  0  0
 19 13  1  0  0  0  0
 19  1  2  0  0  0  0
 20 16  1  0  0  0  0
 20  3  1  1  0  0  0
 22 21  1  1  0  0  0
 22  7  1  0  0  0  0
 23 22  1  0  0  0  0
 24 23  1  0  0  0  0
 24 26  1  0  0  0  0
 25 26  1  0  0  0  0
 26 27  1  0  0  0  0
 29 28  1  0  0  0  0
 30 29  1  0  0  0  0
 31 30  1  0  0  0  0
M  END
>  <MODEL>
8

>  <REMARK>
 VINA RESULT:      -7.6      1.924      2.695
  Name = 
  7 active torsions:
  status: ('A' for Active; 'I' for Inactive)
    1  A    between atoms: C_7  and  C_10
    2  A    between atoms: C_7  and  C_11
    3  A    between atoms: N_9  and  N_15
    4  A    between atoms: N_9  and  O_25
    5  A    between atoms: C_11  and  C_13
    6  A    between atoms: C_13  and  N_18
    7  A    between atoms: N_15  and  C_20
                            x       y       z     vdW  Elec       q    Type
                         _______ _______ _______ _____ _____    ______ ____

>  <TORSDO>
F 7

$$$$
=
 OpenBabel11042410493D

 31 34  0  0  1  0  0  0  0  0999 V2000
  187.5370  177.9360  142.7440 C   0  0  0  0  0  0  0  0  0  0  0  0
  189.2000  177.4770  144.4160 N   0  0  0  0  0  0  0  0  0  0  0  0
  185.1530  177.4530  143.5180 C   0  0  0  0  0  2  0  0  0  0  0  0
  187.9230  177.7920  144.0950 C   0  0  0  0  0  0  0  0  0  0  0  0
  185.1790  180.2550  143.1760 O   0  0  0  0  0  1  0  0  0  0  0  0
  185.9720  178.2600  139.4600 N   0  0  0  0  0  2  0  0  0  0  0  0
  190.1490  177.2350  143.4750 C   0  0  0  0  0  0  0  0  0  0  0  0
  187.1680  178.8080  139.9380 N   0  0  0  0  0  2  0  0  0  0  0  0
  189.8260  177.3520  142.1100 C   0  0  0  0  0  0  0  0  0  0  0  0
  190.4990  177.2170  139.7840 C   0  0  0  0  0  3  0  0  0  0  0  0
  184.7240  178.8580  139.8340 C   0  0  0  0  0  3  0  0  0  0  0  0
  189.2530  177.7000  139.3810 C   0  0  0  0  0  0  0  0  0  0  0  0
  188.2740  178.0070  140.3410 C   0  0  0  0  0  0  0  0  0  0  0  0
  184.5530  179.4690  141.0160 C   0  0  0  0  0  3  0  0  0  0  0  0
  186.9260  177.8960  145.1720 C   0  0  0  0  0  3  0  0  0  0  0  0
  185.6240  179.5270  142.0710 C   0  0  2  0  0  3  0  0  0  0  0  0
  185.6240  177.7820  144.9060 C   0  0  0  0  0  3  0  0  0  0  0  0
  190.7880  177.0620  141.1340 C   0  0  0  0  0  3  0  0  0  0  0  0
  188.5240  177.7720  141.7240 C   0  0  0  0  0  0  0  0  0  0  0  0
  186.0520  178.1000  142.4520 C   0  0  1  0  0  3  0  0  0  0  0  0
  191.8650  175.5700  143.5300 O   0  0  0  0  0  1  0  0  0  0  0  0
  191.5400  176.8710  143.9190 C   0  0  2  0  0  3  0  0  0  0  0  0
  191.7400  177.0650  145.4250 C   0  0  0  0  0  2  0  0  0  0  0  0
  192.1050  175.7790  146.1610 C   0  0  0  0  0  2  0  0  0  0  0  0
  192.7170  175.9260  148.4090 C   0  0  0  0  0  1  0  0  0  0  0  0
  191.5800  175.8010  147.5160 N   0  0  0  0  0  0  0  0  0  0  0  0
  190.8140  177.0270  147.6470 C   0  0  0  0  0  1  0  0  0  0  0  0
  188.9900  177.9370  137.9950 N   0  0  0  0  0  2  0  0  0  0  0  0
  189.0690  179.2210  137.4380 N   0  0  0  0  0  2  0  0  0  0  0  0
  187.8800  179.4590  136.8380 O   0  0  0  0  0  0  0  0  0  0  0  0
  187.5820  178.2710  136.1730 C   0  0  0  0  0  1  0  0  0  0  0  0
  1  4  1  0  0  0  0
  3 17  1  0  0  0  0
  4  2  2  0  0  0  0
  4 15  1  0  0  0  0
  6 11  1  0  0  0  0
  6  8  1  0  0  0  0
  7 22  1  0  0  0  0
  7  2  1  0  0  0  0
  8 13  1  0  0  0  0
  9  7  2  0  0  0  0
 10 18  2  0  0  0  0
 11 14  2  0  0  0  0
 12 10  1  0  0  0  0
 12 13  2  0  0  0  0
 13 19  1  0  0  0  0
 14 16  1  0  0  0  0
 16 20  1  0  0  0  0
 16  5  1  1  0  0  0
 17 15  2  0  0  0  0
 18  9  1  0  0  0  0
 19  9  1  0  0  0  0
 19  1  2  0  0  0  0
 20  1  1  0  0  0  0
 20  3  1  1  0  0  0
 22 21  1  1  0  0  0
 22 23  1  0  0  0  0
 23 24  1  0  0  0  0
 24 26  1  0  0  0  0
 26 27  1  0  0  0  0
 26 25  1  0  0  0  0
 28 12  1  0  0  0  0
 29 28  1  0  0  0  0
 30 29  1  0  0  0  0
 31 30  1  0  0  0  0
M  END
>  <MODEL>
9

>  <REMARK>
 VINA RESULT:      -7.5      2.776      6.820
  Name = 
  7 active torsions:
  status: ('A' for Active; 'I' for Inactive)
    1  A    between atoms: C_7  and  C_10
    2  A    between atoms: C_7  and  C_11
    3  A    between atoms: N_9  and  N_15
    4  A    between atoms: N_9  and  O_25
    5  A    between atoms: C_11  and  C_13
    6  A    between atoms: C_13  and  N_18
    7  A    between atoms: N_15  and  C_20
                            x       y       z     vdW  Elec       q    Type
                         _______ _______ _______ _____ _____    ______ ____

>  <TORSDO>
F 7

$$$$
