=
 OpenBabel11042413193D

 40 44  0  0  1  0  0  0  0  0999 V2000
  188.8560  177.8750  142.0610 C   0  0  1  0  0  3  0  0  0  0  0  0
  189.2750  175.8580  139.0460 O   0  0  0  0  0  1  0  0  0  0  0  0
  189.5910  177.0690  139.6630 C   0  0  1  0  0  3  0  0  0  0  0  0
  188.5950  178.1450  139.2200 C   0  0  1  0  0  3  0  0  0  0  0  0
  188.1030  178.9780  141.2970 C   0  0  1  0  0  3  0  0  0  0  0  0
  188.6830  179.2830  140.0430 O   0  0  0  0  0  0  0  0  0  0  0  0
  189.5640  176.8900  141.1580 C   0  0  0  0  0  0  0  0  0  0  0  0
  190.1490  175.9410  141.6570 O   0  0  0  0  0  0  0  0  0  0  0  0
  186.6170  178.7670  141.2340 C   0  0  0  0  0  0  0  0  0  0  0  0
  183.8220  179.5540  139.0210 C   0  0  0  0  0  3  0  0  0  0  0  0
  184.5440  179.0820  140.1180 C   0  0  0  0  0  0  0  0  0  0  0  0
  183.8570  178.4620  141.1800 C   0  0  0  0  0  0  0  0  0  0  0  0
  182.4320  179.4090  138.9950 C   0  0  0  0  0  3  0  0  0  0  0  0
  181.7860  178.7910  140.0710 C   0  0  0  0  0  3  0  0  0  0  0  0
  185.8950  179.2190  140.1680 N   0  0  0  0  0  0  0  0  0  0  0  0
  182.5040  178.3330  141.1330 N   0  0  0  0  0  0  0  0  0  0  0  0
  184.5800  177.9930  142.2780 C   0  0  0  0  0  3  0  0  0  0  0  0
  185.9670  178.1480  142.3080 C   0  0  0  0  0  3  0  0  0  0  0  0
  189.7730  178.4490  143.0470 N   0  0  0  0  0  2  0  0  0  0  0  0
  189.1190  178.5260  144.2890 N   0  0  0  0  0  2  0  0  0  0  0  0
  188.0830  177.9720  146.8350 F   0  0  0  0  0  0  0  0  0  0  0  0
  191.8700  176.5030  145.8830 C   0  0  0  0  0  3  0  0  0  0  0  0
  191.3620  176.2320  147.0910 C   0  0  0  0  0  0  0  0  0  0  0  0
  189.4380  177.8190  146.6010 C   0  0  2  0  0  3  0  0  0  0  0  0
  189.6880  177.4880  145.1330 C   0  0  2  0  0  3  0  0  0  0  0  0
  191.1950  177.4180  144.8990 C   0  0  0  0  0  2  0  0  0  0  0  0
  189.9770  176.6950  147.4860 C   0  0  0  0  0  2  0  0  0  0  0  0
  193.1890  175.8490  148.7990 C   0  0  0  0  0  1  0  0  0  0  0  0
  192.1020  175.3730  147.9580 N   0  0  0  0  0  2  0  0  0  0  0  0
  188.8200  178.5560  137.7710 C   0  0  0  0  0  2  0  0  0  0  0  0
  186.7700  177.4660  137.0540 C   0  0  0  0  0  0  0  0  0  0  0  0
  185.5710  177.2450  137.2690 O   0  0  0  0  0  0  0  0  0  0  0  0
  188.0370  177.7000  136.8300 C   0  0  0  0  0  0  0  0  0  0  0  0
  188.6540  177.2760  135.5390 C   0  0  0  0  0  2  0  0  0  0  0  0
  191.6010  174.9600  136.0920 C   0  0  0  0  0  3  0  0  0  0  0  0
  188.8370  174.7780  135.7090 C   0  0  0  0  0  3  0  0  0  0  0  0
  189.5940  173.6180  135.8940 C   0  0  0  0  0  3  0  0  0  0  0  0
  190.8450  176.1210  135.9080 C   0  0  0  0  0  3  0  0  0  0  0  0
  190.9760  173.7080  136.0840 C   0  0  0  0  0  3  0  0  0  0  0  0
  189.4610  176.0320  135.7130 C   0  0  0  0  0  0  0  0  0  0  0  0
  1 19  1  1  0  0  0
  3  2  1  6  0  0  0
  3  7  1  0  0  0  0
  4 30  1  6  0  0  0
  4  3  1  0  0  0  0
  4  6  1  0  0  0  0
  5  9  1  6  0  0  0
  5  1  1  0  0  0  0
  6  5  1  0  0  0  0
  7  8  2  0  0  0  0
  7  1  1  0  0  0  0
  9 18  1  0  0  0  0
 10 11  1  0  0  0  0
 11 15  1  0  0  0  0
 11 12  2  0  0  0  0
 12 17  1  0  0  0  0
 13 10  2  0  0  0  0
 13 14  1  0  0  0  0
 14 16  2  0  0  0  0
 15  9  2  0  0  0  0
 16 12  1  0  0  0  0
 17 18  2  0  0  0  0
 19 20  1  0  0  0  0
 22 23  2  0  0  0  0
 23 27  1  0  0  0  0
 23 29  1  0  0  0  0
 24 21  1  6  0  0  0
 24 27  1  0  0  0  0
 25 20  1  6  0  0  0
 25 24  1  0  0  0  0
 26 25  1  0  0  0  0
 26 22  1  0  0  0  0
 29 28  1  0  0  0  0
 31 32  2  0  0  0  0
 33 31  2  0  0  0  0
 33 30  1  0  0  0  0
 34 40  1  0  0  0  0
 34 33  1  0  0  0  0
 36 40  2  0  0  0  0
 36 37  1  0  0  0  0
 37 39  2  0  0  0  0
 38 35  2  0  0  0  0
 39 35  1  0  0  0  0
 40 38  1  0  0  0  0
M  END
>  <MODEL>
1

>  <REMARK>
 VINA RESULT:      -7.9      0.000      0.000
  Name = 
  9 active torsions:
  status: ('A' for Active; 'I' for Inactive)
    1  A    between atoms: C_1  and  N_16
    2  A    between atoms: N_4  and  N_16
    3  A    between atoms: N_4  and  C_26
    4  A    between atoms: C_5  and  C_15
    5  A    between atoms: C_14  and  C_34
    6  A    between atoms: C_17  and  N_30
    7  A    between atoms: C_31  and  C_38
    8  A    between atoms: C_31  and  C_39
    9  A    between atoms: C_34  and  C_38
                            x       y       z     vdW  Elec       q    Type
                         _______ _______ _______ _____ _____    ______ ____

>  <TORSDO>
F 9

$$$$
=
 OpenBabel11042413193D

 40 44  0  0  1  0  0  0  0  0999 V2000
  188.7450  177.7560  142.0190 C   0  0  1  0  0  3  0  0  0  0  0  0
  189.5250  176.1320  138.8420 O   0  0  0  0  0  1  0  0  0  0  0  0
  189.7200  177.2750  139.6200 C   0  0  1  0  0  3  0  0  0  0  0  0
  188.7070  178.3490  139.2150 C   0  0  1  0  0  3  0  0  0  0  0  0
  187.9970  178.9060  141.3210 C   0  0  1  0  0  3  0  0  0  0  0  0
  188.6620  179.3840  140.1670 O   0  0  0  0  0  0  0  0  0  0  0  0
  189.5790  176.9190  141.0760 C   0  0  0  0  0  0  0  0  0  0  0  0
  190.1730  175.9450  141.5140 O   0  0  0  0  0  0  0  0  0  0  0  0
  186.5360  178.6370  141.1020 C   0  0  0  0  0  0  0  0  0  0  0  0
  184.0450  178.9870  138.4570 C   0  0  0  0  0  3  0  0  0  0  0  0
  184.6240  178.7090  139.6950 C   0  0  0  0  0  0  0  0  0  0  0  0
  183.8120  178.2310  140.7430 C   0  0  0  0  0  0  0  0  0  0  0  0
  182.6730  178.7910  138.2760 C   0  0  0  0  0  3  0  0  0  0  0  0
  181.9000  178.3190  139.3420 C   0  0  0  0  0  3  0  0  0  0  0  0
  185.9540  178.8990  139.8960 N   0  0  0  0  0  0  0  0  0  0  0  0
  182.4790  178.0500  140.5450 N   0  0  0  0  0  0  0  0  0  0  0  0
  184.3920  177.9570  141.9840 C   0  0  0  0  0  3  0  0  0  0  0  0
  185.7600  178.1640  142.1660 C   0  0  0  0  0  3  0  0  0  0  0  0
  189.5430  178.2500  143.1420 N   0  0  0  0  0  2  0  0  0  0  0  0
  188.8010  178.1090  144.3270 N   0  0  0  0  0  2  0  0  0  0  0  0
  188.1590  177.7980  147.0380 F   0  0  0  0  0  0  0  0  0  0  0  0
  191.8640  176.4090  145.7160 C   0  0  0  0  0  3  0  0  0  0  0  0
  191.5440  176.2530  147.0050 C   0  0  0  0  0  0  0  0  0  0  0  0
  189.4760  177.6830  146.6310 C   0  0  2  0  0  3  0  0  0  0  0  0
  189.5430  177.2010  145.1850 C   0  0  2  0  0  3  0  0  0  0  0  0
  191.0050  177.1740  144.7480 C   0  0  0  0  0  2  0  0  0  0  0  0
  190.2000  176.6930  147.5430 C   0  0  0  0  0  2  0  0  0  0  0  0
  193.0790  176.1240  149.0120 C   0  0  0  0  0  1  0  0  0  0  0  0
  192.4480  175.5320  147.8440 N   0  0  0  0  0  2  0  0  0  0  0  0
  189.0290  178.9390  137.8480 C   0  0  0  0  0  2  0  0  0  0  0  0
  188.9060  177.4270  135.9490 C   0  0  0  0  0  0  0  0  0  0  0  0
  189.5010  176.6590  135.1820 O   0  0  0  0  0  0  0  0  0  0  0  0
  188.2810  178.2400  136.7600 C   0  0  0  0  0  0  0  0  0  0  0  0
  186.7910  178.3240  136.7250 C   0  0  0  0  0  2  0  0  0  0  0  0
  185.8480  174.6620  136.9570 C   0  0  0  0  0  3  0  0  0  0  0  0
  185.3510  176.8510  135.2900 C   0  0  0  0  0  3  0  0  0  0  0  0
  184.7690  175.6130  135.0070 C   0  0  0  0  0  3  0  0  0  0  0  0
  186.4300  175.9000  137.2400 C   0  0  0  0  0  3  0  0  0  0  0  0
  185.0190  174.5170  135.8400 C   0  0  0  0  0  3  0  0  0  0  0  0
  186.1850  176.9970  136.4050 C   0  0  0  0  0  0  0  0  0  0  0  0
  1 19  1  1  0  0  0
  3  2  1  6  0  0  0
  3  7  1  0  0  0  0
  4 30  1  6  0  0  0
  4  3  1  0  0  0  0
  4  6  1  0  0  0  0
  5  9  1  6  0  0  0
  5  1  1  0  0  0  0
  6  5  1  0  0  0  0
  7  8  2  0  0  0  0
  7  1  1  0  0  0  0
  9 18  1  0  0  0  0
 10 11  1  0  0  0  0
 11 15  1  0  0  0  0
 11 12  2  0  0  0  0
 12 17  1  0  0  0  0
 13 10  2  0  0  0  0
 13 14  1  0  0  0  0
 14 16  2  0  0  0  0
 15  9  2  0  0  0  0
 16 12  1  0  0  0  0
 17 18  2  0  0  0  0
 19 20  1  0  0  0  0
 22 23  2  0  0  0  0
 23 27  1  0  0  0  0
 23 29  1  0  0  0  0
 24 21  1  1  0  0  0
 24 27  1  0  0  0  0
 25 20  1  6  0  0  0
 25 24  1  0  0  0  0
 26 25  1  0  0  0  0
 26 22  1  0  0  0  0
 29 28  1  0  0  0  0
 31 33  2  0  0  0  0
 32 31  2  0  0  0  0
 33 30  1  0  0  0  0
 34 33  1  0  0  0  0
 35 38  1  0  0  0  0
 36 40  1  0  0  0  0
 37 36  2  0  0  0  0
 37 39  1  0  0  0  0
 39 35  2  0  0  0  0
 40 34  1  0  0  0  0
 40 38  2  0  0  0  0
M  END
>  <MODEL>
2

>  <REMARK>
 VINA RESULT:      -7.7      1.481      2.157
  Name = 
  9 active torsions:
  status: ('A' for Active; 'I' for Inactive)
    1  A    between atoms: C_1  and  N_16
    2  A    between atoms: N_4  and  N_16
    3  A    between atoms: N_4  and  C_26
    4  A    between atoms: C_5  and  C_15
    5  A    between atoms: C_14  and  C_34
    6  A    between atoms: C_17  and  N_30
    7  A    between atoms: C_31  and  C_38
    8  A    between atoms: C_31  and  C_39
    9  A    between atoms: C_34  and  C_38
                            x       y       z     vdW  Elec       q    Type
                         _______ _______ _______ _____ _____    ______ ____

>  <TORSDO>
F 9

$$$$
=
 OpenBabel11042413193D

 40 44  0  0  1  0  0  0  0  0999 V2000
  184.4920  177.8630  138.7680 C   0  0  1  0  0  3  0  0  0  0  0  0
  180.9830  178.5340  138.0080 O   0  0  0  0  0  1  0  0  0  0  0  0
  182.2970  178.9690  137.8210 C   0  0  1  0  0  3  0  0  0  0  0  0
  182.6330  180.0430  138.8600 C   0  0  1  0  0  3  0  0  0  0  0  0
  184.6430  179.1820  139.5460 C   0  0  1  0  0  3  0  0  0  0  0  0
  184.0190  180.2800  138.9080 O   0  0  0  0  0  0  0  0  0  0  0  0
  183.2330  177.7950  137.9330 C   0  0  0  0  0  0  0  0  0  0  0  0
  182.9850  176.7710  137.3160 O   0  0  0  0  0  0  0  0  0  0  0  0
  184.3070  179.0690  141.0050 C   0  0  0  0  0  0  0  0  0  0  0  0
  186.0330  178.8540  144.2150 C   0  0  0  0  0  3  0  0  0  0  0  0
  185.0100  178.8860  143.2660 C   0  0  0  0  0  0  0  0  0  0  0  0
  183.6730  178.7540  143.6910 C   0  0  0  0  0  0  0  0  0  0  0  0
  185.7180  178.6880  145.5660 C   0  0  0  0  0  3  0  0  0  0  0  0
  184.3790  178.5560  145.9470 C   0  0  0  0  0  3  0  0  0  0  0  0
  185.2940  179.0390  141.9470 N   0  0  0  0  0  0  0  0  0  0  0  0
  183.3910  178.5910  145.0120 N   0  0  0  0  0  0  0  0  0  0  0  0
  182.6500  178.7820  142.7420 C   0  0  0  0  0  3  0  0  0  0  0  0
  182.9670  178.9370  141.3910 C   0  0  0  0  0  3  0  0  0  0  0  0
  185.6820  177.5890  137.9610 N   0  0  0  0  0  2  0  0  0  0  0  0
  186.7120  178.4620  138.3540 N   0  0  0  0  0  2  0  0  0  0  0  0
  188.1760  178.3300  140.7410 F   0  0  0  0  0  0  0  0  0  0  0  0
  190.0180  177.0480  137.2230 C   0  0  0  0  0  3  0  0  0  0  0  0
  190.7040  176.9760  138.3690 C   0  0  0  0  0  0  0  0  0  0  0  0
  188.8390  178.2560  139.5280 C   0  0  2  0  0  3  0  0  0  0  0  0
  187.9230  177.6660  138.4600 C   0  0  2  0  0  3  0  0  0  0  0  0
  188.6600  177.6860  137.1230 C   0  0  0  0  0  2  0  0  0  0  0  0
  190.0830  177.3820  139.6870 C   0  0  0  0  0  2  0  0  0  0  0  0
  192.2680  175.1110  137.6780 C   0  0  0  0  0  1  0  0  0  0  0  0
  191.9990  176.3750  138.3450 N   0  0  0  0  0  2  0  0  0  0  0  0
  181.9100  181.3510  138.5700 C   0  0  0  0  0  2  0  0  0  0  0  0
  180.1890  181.0140  140.2520 C   0  0  0  0  0  0  0  0  0  0  0  0
  179.9130  180.7420  141.4280 O   0  0  0  0  0  0  0  0  0  0  0  0
  180.4830  181.2990  139.0100 C   0  0  0  0  0  0  0  0  0  0  0  0
  179.4120  181.7610  138.0790 C   0  0  0  0  0  2  0  0  0  0  0  0
  180.7180  183.4810  134.9660 C   0  0  0  0  0  3  0  0  0  0  0  0
  180.0330  184.1450  137.5950 C   0  0  0  0  0  3  0  0  0  0  0  0
  180.4900  185.1350  136.7210 C   0  0  0  0  0  3  0  0  0  0  0  0
  180.2620  182.4890  135.8400 C   0  0  0  0  0  3  0  0  0  0  0  0
  180.8340  184.8030  135.4080 C   0  0  0  0  0  3  0  0  0  0  0  0
  179.9210  182.8190  137.1570 C   0  0  0  0  0  0  0  0  0  0  0  0
  1 19  1  6  0  0  0
  1  5  1  0  0  0  0
  3  7  1  0  0  0  0
  3  2  1  1  0  0  0
  3  4  1  0  0  0  0
  4 30  1  6  0  0  0
  4  6  1  0  0  0  0
  5  9  1  1  0  0  0
  6  5  1  0  0  0  0
  7  1  1  0  0  0  0
  8  7  2  0  0  0  0
  9 18  2  0  0  0  0
  9 15  1  0  0  0  0
 10 13  2  0  0  0  0
 11 12  1  0  0  0  0
 11 10  1  0  0  0  0
 12 16  1  0  0  0  0
 13 14  1  0  0  0  0
 15 11  2  0  0  0  0
 16 14  2  0  0  0  0
 17 12  2  0  0  0  0
 18 17  1  0  0  0  0
 19 20  1  0  0  0  0
 22 23  2  0  0  0  0
 23 27  1  0  0  0  0
 24 27  1  0  0  0  0
 24 21  1  1  0  0  0
 25 20  1  6  0  0  0
 25 24  1  0  0  0  0
 26 22  1  0  0  0  0
 26 25  1  0  0  0  0
 28 29  1  0  0  0  0
 29 23  1  0  0  0  0
 30 33  1  0  0  0  0
 31 32  2  0  0  0  0
 33 31  2  0  0  0  0
 34 33  1  0  0  0  0
 35 39  2  0  0  0  0
 35 38  1  0  0  0  0
 37 36  2  0  0  0  0
 38 40  2  0  0  0  0
 39 37  1  0  0  0  0
 40 36  1  0  0  0  0
 40 34  1  0  0  0  0
M  END
>  <MODEL>
3

>  <REMARK>
 VINA RESULT:      -7.7      4.003      8.278
  Name = 
  9 active torsions:
  status: ('A' for Active; 'I' for Inactive)
    1  A    between atoms: C_1  and  N_16
    2  A    between atoms: N_4  and  N_16
    3  A    between atoms: N_4  and  C_26
    4  A    between atoms: C_5  and  C_15
    5  A    between atoms: C_14  and  C_34
    6  A    between atoms: C_17  and  N_30
    7  A    between atoms: C_31  and  C_38
    8  A    between atoms: C_31  and  C_39
    9  A    between atoms: C_34  and  C_38
                            x       y       z     vdW  Elec       q    Type
                         _______ _______ _______ _____ _____    ______ ____

>  <TORSDO>
F 9

$$$$
=
 OpenBabel11042413193D

 40 44  0  0  1  0  0  0  0  0999 V2000
  183.8230  178.2260  138.0870 C   0  0  1  0  0  3  0  0  0  0  0  0
  185.8540  179.6220  140.7830 O   0  0  0  0  0  1  0  0  0  0  0  0
  185.2550  178.4630  140.2850 C   0  0  1  0  0  3  0  0  0  0  0  0
  183.8910  178.2640  140.9520 C   0  0  1  0  0  3  0  0  0  0  0  0
  182.6790  177.8620  139.0500 C   0  0  1  0  0  3  0  0  0  0  0  0
  183.1310  177.2990  140.2660 O   0  0  0  0  0  0  0  0  0  0  0  0
  185.1160  178.5750  138.7900 C   0  0  0  0  0  0  0  0  0  0  0  0
  186.0760  178.9310  138.1240 O   0  0  0  0  0  0  0  0  0  0  0  0
  181.6710  178.9600  139.2380 C   0  0  0  0  0  0  0  0  0  0  0  0
  180.8200  182.1910  137.7660 C   0  0  0  0  0  3  0  0  0  0  0  0
  180.8010  181.0790  138.6090 C   0  0  0  0  0  0  0  0  0  0  0  0
  179.8680  181.0290  139.6630 C   0  0  0  0  0  0  0  0  0  0  0  0
  179.9190  183.2370  137.9830 C   0  0  0  0  0  3  0  0  0  0  0  0
  179.0110  183.1530  139.0440 C   0  0  0  0  0  3  0  0  0  0  0  0
  181.6730  180.0530  138.4220 N   0  0  0  0  0  0  0  0  0  0  0  0
  179.0030  182.0610  139.8560 N   0  0  0  0  0  0  0  0  0  0  0  0
  179.8530  179.9180  140.5090 C   0  0  0  0  0  3  0  0  0  0  0  0
  180.7600  178.8790  140.2980 C   0  0  0  0  0  3  0  0  0  0  0  0
  184.0260  177.1740  137.0890 N   0  0  0  0  0  2  0  0  0  0  0  0
  182.7730  176.6850  136.6800 N   0  0  0  0  0  2  0  0  0  0  0  0
  180.5630  175.0030  136.2970 F   0  0  0  0  0  0  0  0  0  0  0  0
  184.2530  173.2510  137.1500 C   0  0  0  0  0  3  0  0  0  0  0  0
  183.1960  172.4560  136.9530 C   0  0  0  0  0  0  0  0  0  0  0  0
  181.6990  174.5090  136.9160 C   0  0  2  0  0  3  0  0  0  0  0  0
  182.9340  175.2620  136.4330 C   0  0  2  0  0  3  0  0  0  0  0  0
  184.1480  174.7500  137.2040 C   0  0  0  0  0  2  0  0  0  0  0  0
  181.8390  173.0210  136.5960 C   0  0  0  0  0  2  0  0  0  0  0  0
  183.2990  170.2340  135.7460 C   0  0  0  0  0  1  0  0  0  0  0  0
  183.4040  171.0430  136.9500 N   0  0  0  0  0  2  0  0  0  0  0  0
  184.0350  177.8460  142.4100 C   0  0  0  0  0  2  0  0  0  0  0  0
  182.2470  178.9340  143.6450 C   0  0  0  0  0  0  0  0  0  0  0  0
  181.0440  178.9660  143.9350 O   0  0  0  0  0  0  0  0  0  0  0  0
  183.5170  178.8980  143.3350 C   0  0  0  0  0  0  0  0  0  0  0  0
  184.4820  179.7820  144.0530 C   0  0  0  0  0  2  0  0  0  0  0  0
  187.2700  177.4470  145.1150 C   0  0  0  0  0  3  0  0  0  0  0  0
  185.3160  179.0550  146.3060 C   0  0  0  0  0  3  0  0  0  0  0  0
  186.1990  178.3220  147.1040 C   0  0  0  0  0  3  0  0  0  0  0  0
  186.3880  178.1800  144.3160 C   0  0  0  0  0  3  0  0  0  0  0  0
  187.1750  177.5170  146.5090 C   0  0  0  0  0  3  0  0  0  0  0  0
  185.4070  178.9830  144.9100 C   0  0  0  0  0  0  0  0  0  0  0  0
  1 19  1  6  0  0  0
  1  7  1  0  0  0  0
  1  5  1  0  0  0  0
  3  2  1  1  0  0  0
  3  4  1  0  0  0  0
  4 30  1  1  0  0  0
  5  9  1  1  0  0  0
  5  6  1  0  0  0  0
  6  4  1  0  0  0  0
  7  3  1  0  0  0  0
  8  7  2  0  0  0  0
  9 18  1  0  0  0  0
 10 13  2  0  0  0  0
 10 11  1  0  0  0  0
 11 12  2  0  0  0  0
 12 16  1  0  0  0  0
 12 17  1  0  0  0  0
 13 14  1  0  0  0  0
 14 16  2  0  0  0  0
 15 11  1  0  0  0  0
 15  9  2  0  0  0  0
 18 17  2  0  0  0  0
 20 19  1  0  0  0  0
 22 26  1  0  0  0  0
 23 22  2  0  0  0  0
 24 21  1  6  0  0  0
 25 20  1  1  0  0  0
 25 24  1  0  0  0  0
 25 26  1  0  0  0  0
 27 24  1  0  0  0  0
 27 23  1  0  0  0  0
 28 29  1  0  0  0  0
 29 23  1  0  0  0  0
 30 33  1  0  0  0  0
 31 32  2  0  0  0  0
 33 31  2  0  0  0  0
 33 34  1  0  0  0  0
 34 40  1  0  0  0  0
 35 39  1  0  0  0  0
 36 37  1  0  0  0  0
 38 40  1  0  0  0  0
 38 35  2  0  0  0  0
 39 37  2  0  0  0  0
 40 36  2  0  0  0  0
M  END
>  <MODEL>
4

>  <REMARK>
 VINA RESULT:      -7.7      5.276      9.208
  Name = 
  9 active torsions:
  status: ('A' for Active; 'I' for Inactive)
    1  A    between atoms: C_1  and  N_16
    2  A    between atoms: N_4  and  N_16
    3  A    between atoms: N_4  and  C_26
    4  A    between atoms: C_5  and  C_15
    5  A    between atoms: C_14  and  C_34
    6  A    between atoms: C_17  and  N_30
    7  A    between atoms: C_31  and  C_38
    8  A    between atoms: C_31  and  C_39
    9  A    between atoms: C_34  and  C_38
                            x       y       z     vdW  Elec       q    Type
                         _______ _______ _______ _____ _____    ______ ____

>  <TORSDO>
F 9

$$$$
=
 OpenBabel11042413193D

 40 44  0  0  1  0  0  0  0  0999 V2000
  189.8380  177.4850  138.9170 C   0  0  1  0  0  3  0  0  0  0  0  0
  188.4090  177.8960  135.5810 O   0  0  0  0  0  1  0  0  0  0  0  0
  188.2670  177.2570  136.8140 C   0  0  1  0  0  3  0  0  0  0  0  0
  188.9020  175.8650  136.7460 C   0  0  1  0  0  3  0  0  0  0  0  0
  190.1190  175.9900  138.6830 C   0  0  1  0  0  3  0  0  0  0  0  0
  189.0570  175.3180  138.0330 O   0  0  0  0  0  0  0  0  0  0  0  0
  188.9120  178.0930  137.8880 C   0  0  0  0  0  0  0  0  0  0  0  0
  188.6640  179.2880  137.9460 O   0  0  0  0  0  0  0  0  0  0  0  0
  191.4630  175.7120  138.0750 C   0  0  0  0  0  0  0  0  0  0  0  0
  193.3940  172.8620  136.8580 C   0  0  0  0  0  3  0  0  0  0  0  0
  193.0480  174.1670  137.2130 C   0  0  0  0  0  0  0  0  0  0  0  0
  193.9920  175.1990  137.0470 C   0  0  0  0  0  0  0  0  0  0  0  0
  194.6680  172.6010  136.3470 C   0  0  0  0  0  3  0  0  0  0  0  0
  195.5790  173.6520  136.2020 C   0  0  0  0  0  3  0  0  0  0  0  0
  191.8170  174.4440  137.7180 N   0  0  0  0  0  0  0  0  0  0  0  0
  195.2270  174.9200  136.5510 N   0  0  0  0  0  0  0  0  0  0  0  0
  193.6470  176.5030  137.4070 C   0  0  0  0  0  3  0  0  0  0  0  0
  192.3780  176.7620  137.9270 C   0  0  0  0  0  3  0  0  0  0  0  0
  189.3530  177.7230  140.2780 N   0  0  0  0  0  2  0  0  0  0  0  0
  190.2720  177.1800  141.1920 N   0  0  0  0  0  2  0  0  0  0  0  0
  192.0630  177.3640  143.3410 F   0  0  0  0  0  0  0  0  0  0  0  0
  187.9780  177.2420  144.1820 C   0  0  0  0  0  3  0  0  0  0  0  0
  188.8390  177.3440  145.2000 C   0  0  0  0  0  0  0  0  0  0  0  0
  190.7560  176.9720  143.5730 C   0  0  2  0  0  3  0  0  0  0  0  0
  189.8290  177.5720  142.5200 C   0  0  2  0  0  3  0  0  0  0  0  0
  188.4170  177.0430  142.7580 C   0  0  0  0  0  2  0  0  0  0  0  0
  190.3310  177.4380  144.9660 C   0  0  0  0  0  2  0  0  0  0  0  0
  189.1530  177.7610  147.6760 C   0  0  0  0  0  1  0  0  0  0  0  0
  188.3120  177.5020  146.5180 N   0  0  0  0  0  2  0  0  0  0  0  0
  188.0740  174.9120  135.8930 C   0  0  0  0  0  2  0  0  0  0  0  0
  189.7010  173.2270  135.2490 C   0  0  0  0  0  0  0  0  0  0  0  0
  190.7190  172.9470  134.6020 O   0  0  0  0  0  0  0  0  0  0  0  0
  188.6260  173.5240  135.9300 C   0  0  0  0  0  0  0  0  0  0  0  0
  188.0610  172.5370  136.8960 C   0  0  0  0  0  2  0  0  0  0  0  0
  184.6840  171.5860  135.4650 C   0  0  0  0  0  3  0  0  0  0  0  0
  185.7120  172.9320  137.6900 C   0  0  0  0  0  3  0  0  0  0  0  0
  184.3300  172.7880  137.5390 C   0  0  0  0  0  3  0  0  0  0  0  0
  186.0660  171.7290  135.6160 C   0  0  0  0  0  3  0  0  0  0  0  0
  183.8160  172.1160  136.4250 C   0  0  0  0  0  3  0  0  0  0  0  0
  186.5830  172.4060  136.7270 C   0  0  0  0  0  0  0  0  0  0  0  0
  1 19  1  1  0  0  0
  3  2  1  6  0  0  0
  3  7  1  0  0  0  0
  4 30  1  6  0  0  0
  4  3  1  0  0  0  0
  4  6  1  0  0  0  0
  5  9  1  6  0  0  0
  5  1  1  0  0  0  0
  6  5  1  0  0  0  0
  7  8  2  0  0  0  0
  7  1  1  0  0  0  0
 10 11  1  0  0  0  0
 11 15  1  0  0  0  0
 12 11  2  0  0  0  0
 12 17  1  0  0  0  0
 13 10  2  0  0  0  0
 14 13  1  0  0  0  0
 14 16  2  0  0  0  0
 15  9  2  0  0  0  0
 16 12  1  0  0  0  0
 17 18  2  0  0  0  0
 18  9  1  0  0  0  0
 19 20  1  0  0  0  0
 22 23  2  0  0  0  0
 23 29  1  0  0  0  0
 24 21  1  6  0  0  0
 24 27  1  0  0  0  0
 25 20  1  6  0  0  0
 25 26  1  0  0  0  0
 25 24  1  0  0  0  0
 26 22  1  0  0  0  0
 27 23  1  0  0  0  0
 29 28  1  0  0  0  0
 30 33  1  0  0  0  0
 31 33  2  0  0  0  0
 32 31  2  0  0  0  0
 33 34  1  0  0  0  0
 35 38  2  0  0  0  0
 35 39  1  0  0  0  0
 37 36  1  0  0  0  0
 38 40  1  0  0  0  0
 39 37  2  0  0  0  0
 40 34  1  0  0  0  0
 40 36  2  0  0  0  0
M  END
>  <MODEL>
5

>  <REMARK>
 VINA RESULT:      -7.7      3.370      6.964
  Name = 
  9 active torsions:
  status: ('A' for Active; 'I' for Inactive)
    1  A    between atoms: C_1  and  N_16
    2  A    between atoms: N_4  and  N_16
    3  A    between atoms: N_4  and  C_26
    4  A    between atoms: C_5  and  C_15
    5  A    between atoms: C_14  and  C_34
    6  A    between atoms: C_17  and  N_30
    7  A    between atoms: C_31  and  C_38
    8  A    between atoms: C_31  and  C_39
    9  A    between atoms: C_34  and  C_38
                            x       y       z     vdW  Elec       q    Type
                         _______ _______ _______ _____ _____    ______ ____

>  <TORSDO>
F 9

$$$$
=
 OpenBabel11042413193D

 40 44  0  0  1  0  0  0  0  0999 V2000
  182.8550  178.8970  140.0000 C   0  0  1  0  0  3  0  0  0  0  0  0
  184.6020  177.6120  142.9390 O   0  0  0  0  0  1  0  0  0  0  0  0
  184.4380  178.7140  142.0980 C   0  0  1  0  0  3  0  0  0  0  0  0
  185.5260  178.7020  141.0200 C   0  0  1  0  0  3  0  0  0  0  0  0
  184.1670  179.0580  139.2110 C   0  0  1  0  0  3  0  0  0  0  0  0
  185.2190  179.6030  139.9840 O   0  0  0  0  0  0  0  0  0  0  0  0
  183.0650  178.6720  141.4800 C   0  0  0  0  0  0  0  0  0  0  0  0
  182.0940  178.4780  142.1950 O   0  0  0  0  0  0  0  0  0  0  0  0
  184.5650  177.8340  138.4370 C   0  0  0  0  0  0  0  0  0  0  0  0
  187.4720  176.5360  136.6520 C   0  0  0  0  0  3  0  0  0  0  0  0
  186.1830  176.6380  137.1760 C   0  0  0  0  0  0  0  0  0  0  0  0
  185.2530  175.6110  136.9210 C   0  0  0  0  0  0  0  0  0  0  0  0
  187.8190  175.4210  135.8820 C   0  0  0  0  0  3  0  0  0  0  0  0
  186.8650  174.4250  135.6480 C   0  0  0  0  0  3  0  0  0  0  0  0
  185.8210  177.7150  137.9200 N   0  0  0  0  0  0  0  0  0  0  0  0
  185.6120  174.5370  136.1670 N   0  0  0  0  0  0  0  0  0  0  0  0
  183.9620  175.7160  137.4420 C   0  0  0  0  0  3  0  0  0  0  0  0
  183.6130  176.8340  138.2010 C   0  0  0  0  0  3  0  0  0  0  0  0
  181.9510  180.0220  139.7540 N   0  0  0  0  0  2  0  0  0  0  0  0
  182.4690  180.8040  138.7070 N   0  0  0  0  0  2  0  0  0  0  0  0
  180.4810  179.7270  137.0510 F   0  0  0  0  0  0  0  0  0  0  0  0
  180.8440  183.8790  137.2540 C   0  0  0  0  0  3  0  0  0  0  0  0
  179.8890  183.3560  136.4770 C   0  0  0  0  0  0  0  0  0  0  0  0
  180.8670  181.0460  136.8850 C   0  0  2  0  0  3  0  0  0  0  0  0
  181.3750  181.6180  138.2050 C   0  0  2  0  0  3  0  0  0  0  0  0
  181.8730  183.0400  137.9590 C   0  0  0  0  0  2  0  0  0  0  0  0
  179.6730  181.8610  136.3900 C   0  0  0  0  0  2  0  0  0  0  0  0
  179.3300  184.9960  134.6330 C   0  0  0  0  0  1  0  0  0  0  0  0
  178.9800  184.2480  135.8300 N   0  0  0  0  0  2  0  0  0  0  0  0
  186.8920  179.0500  141.5980 C   0  0  0  0  0  2  0  0  0  0  0  0
  188.5060  178.6400  139.8270 C   0  0  0  0  0  0  0  0  0  0  0  0
  189.0030  179.0120  138.7560 O   0  0  0  0  0  0  0  0  0  0  0  0
  187.9780  178.2480  140.9580 C   0  0  0  0  0  0  0  0  0  0  0  0
  188.5880  177.1110  141.7080 C   0  0  0  0  0  2  0  0  0  0  0  0
  187.6060  177.2810  145.3630 C   0  0  0  0  0  3  0  0  0  0  0  0
  189.7640  178.0030  143.7390 C   0  0  0  0  0  3  0  0  0  0  0  0
  189.8130  178.2490  145.1130 C   0  0  0  0  0  3  0  0  0  0  0  0
  187.5570  177.0340  143.9880 C   0  0  0  0  0  3  0  0  0  0  0  0
  188.7330  177.8890  145.9250 C   0  0  0  0  0  3  0  0  0  0  0  0
  188.6350  177.3980  143.1720 C   0  0  0  0  0  0  0  0  0  0  0  0
  1 19  1  1  0  0  0
  1  7  1  0  0  0  0
  3  2  1  1  0  0  0
  4 30  1  1  0  0  0
  4  3  1  0  0  0  0
  5  9  1  1  0  0  0
  5  6  1  0  0  0  0
  5  1  1  0  0  0  0
  6  4  1  0  0  0  0
  7  3  1  0  0  0  0
  7  8  2  0  0  0  0
 10 11  1  0  0  0  0
 11 15  1  0  0  0  0
 12 11  2  0  0  0  0
 12 17  1  0  0  0  0
 13 10  2  0  0  0  0
 14 13  1  0  0  0  0
 14 16  2  0  0  0  0
 15  9  2  0  0  0  0
 16 12  1  0  0  0  0
 17 18  2  0  0  0  0
 18  9  1  0  0  0  0
 20 19  1  0  0  0  0
 22 26  1  0  0  0  0
 23 22  2  0  0  0  0
 24 21  1  1  0  0  0
 24 25  1  0  0  0  0
 25 20  1  6  0  0  0
 26 25  1  0  0  0  0
 27 23  1  0  0  0  0
 27 24  1  0  0  0  0
 28 29  1  0  0  0  0
 29 23  1  0  0  0  0
 31 33  2  0  0  0  0
 32 31  2  0  0  0  0
 33 30  1  0  0  0  0
 33 34  1  0  0  0  0
 34 40  1  0  0  0  0
 35 39  1  0  0  0  0
 36 37  1  0  0  0  0
 37 39  2  0  0  0  0
 38 35  2  0  0  0  0
 40 36  2  0  0  0  0
 40 38  1  0  0  0  0
M  END
>  <MODEL>
6

>  <REMARK>
 VINA RESULT:      -7.5      3.867      9.627
  Name = 
  9 active torsions:
  status: ('A' for Active; 'I' for Inactive)
    1  A    between atoms: C_1  and  N_16
    2  A    between atoms: N_4  and  N_16
    3  A    between atoms: N_4  and  C_26
    4  A    between atoms: C_5  and  C_15
    5  A    between atoms: C_14  and  C_34
    6  A    between atoms: C_17  and  N_30
    7  A    between atoms: C_31  and  C_38
    8  A    between atoms: C_31  and  C_39
    9  A    between atoms: C_34  and  C_38
                            x       y       z     vdW  Elec       q    Type
                         _______ _______ _______ _____ _____    ______ ____

>  <TORSDO>
F 9

$$$$
=
 OpenBabel11042413193D

 40 44  0  0  1  0  0  0  0  0999 V2000
  190.1160  177.3730  140.5180 C   0  0  1  0  0  3  0  0  0  0  0  0
  188.1000  175.6830  137.9840 O   0  0  0  0  0  1  0  0  0  0  0  0
  188.8200  176.8400  138.2870 C   0  0  1  0  0  3  0  0  0  0  0  0
  187.8660  177.9100  138.8260 C   0  0  1  0  0  3  0  0  0  0  0  0
  189.0930  178.5130  140.6650 C   0  0  1  0  0  3  0  0  0  0  0  0
  188.5790  178.9640  139.4270 O   0  0  0  0  0  0  0  0  0  0  0  0
  189.8910  176.5130  139.2940 C   0  0  0  0  0  0  0  0  0  0  0  0
  190.6130  175.5460  139.1080 O   0  0  0  0  0  0  0  0  0  0  0  0
  188.0290  178.2460  141.6920 C   0  0  0  0  0  0  0  0  0  0  0  0
  184.7890  179.5880  142.7050 C   0  0  0  0  0  3  0  0  0  0  0  0
  185.9440  178.8050  142.6810 C   0  0  0  0  0  0  0  0  0  0  0  0
  186.1200  177.8070  143.6600 C   0  0  0  0  0  0  0  0  0  0  0  0
  183.8300  179.3740  143.6990 C   0  0  0  0  0  3  0  0  0  0  0  0
  184.0440  178.3770  144.6570 C   0  0  0  0  0  3  0  0  0  0  0  0
  186.8930  178.9990  141.7280 N   0  0  0  0  0  0  0  0  0  0  0  0
  185.1740  177.6190  144.6190 N   0  0  0  0  0  0  0  0  0  0  0  0
  187.2770  177.0270  143.6380 C   0  0  0  0  0  3  0  0  0  0  0  0
  188.2390  177.2480  142.6510 C   0  0  0  0  0  3  0  0  0  0  0  0
  191.4860  177.8860  140.5650 N   0  0  0  0  0  2  0  0  0  0  0  0
  192.2050  177.1820  141.5470 N   0  0  0  0  0  2  0  0  0  0  0  0
  191.4970  179.5440  142.8810 F   0  0  0  0  0  0  0  0  0  0  0  0
  191.0130  175.9200  144.8920 C   0  0  0  0  0  3  0  0  0  0  0  0
  190.6650  177.0520  145.5160 C   0  0  0  0  0  0  0  0  0  0  0  0
  191.6880  178.3800  143.6060 C   0  0  2  0  0  3  0  0  0  0  0  0
  191.3790  177.1620  142.7420 C   0  0  2  0  0  3  0  0  0  0  0  0
  191.6870  175.9030  143.5490 C   0  0  0  0  0  2  0  0  0  0  0  0
  190.7730  178.3960  144.8300 C   0  0  0  0  0  2  0  0  0  0  0  0
  188.6520  177.2510  147.0350 C   0  0  0  0  0  1  0  0  0  0  0  0
  190.0560  176.9540  146.8040 N   0  0  0  0  0  2  0  0  0  0  0  0
  186.9740  178.4720  137.7260 C   0  0  0  0  0  2  0  0  0  0  0  0
  184.9130  177.2330  137.3770 C   0  0  0  0  0  0  0  0  0  0  0  0
  184.3310  176.3150  136.7830 O   0  0  0  0  0  0  0  0  0  0  0  0
  185.5310  178.2010  138.0010 C   0  0  0  0  0  0  0  0  0  0  0  0
  184.8540  178.9110  139.1260 C   0  0  0  0  0  2  0  0  0  0  0  0
  181.6710  177.1570  140.1990 C   0  0  0  0  0  3  0  0  0  0  0  0
  182.4530  179.1930  138.4480 C   0  0  0  0  0  3  0  0  0  0  0  0
  181.1040  178.8420  138.5530 C   0  0  0  0  0  3  0  0  0  0  0  0
  183.0210  177.5070  140.0950 C   0  0  0  0  0  3  0  0  0  0  0  0
  180.7140  177.8230  139.4270 C   0  0  0  0  0  3  0  0  0  0  0  0
  183.4140  178.5240  139.2170 C   0  0  0  0  0  0  0  0  0  0  0  0
  1 19  1  6  0  0  0
  1  5  1  0  0  0  0
  3  2  1  1  0  0  0
  3  4  1  0  0  0  0
  3  7  1  0  0  0  0
  4 30  1  6  0  0  0
  4  6  1  0  0  0  0
  5  9  1  1  0  0  0
  6  5  1  0  0  0  0
  7  1  1  0  0  0  0
  8  7  2  0  0  0  0
  9 15  2  0  0  0  0
  9 18  1  0  0  0  0
 10 13  1  0  0  0  0
 11 10  2  0  0  0  0
 11 12  1  0  0  0  0
 12 16  2  0  0  0  0
 13 14  2  0  0  0  0
 15 11  1  0  0  0  0
 16 14  1  0  0  0  0
 17 12  1  0  0  0  0
 18 17  2  0  0  0  0
 19 20  1  0  0  0  0
 22 23  2  0  0  0  0
 23 29  1  0  0  0  0
 24 21  1  6  0  0  0
 24 27  1  0  0  0  0
 25 20  1  6  0  0  0
 25 26  1  0  0  0  0
 25 24  1  0  0  0  0
 26 22  1  0  0  0  0
 27 23  1  0  0  0  0
 29 28  1  0  0  0  0
 30 33  1  0  0  0  0
 31 33  2  0  0  0  0
 32 31  2  0  0  0  0
 33 34  1  0  0  0  0
 34 40  1  0  0  0  0
 36 37  2  0  0  0  0
 36 40  1  0  0  0  0
 37 39  1  0  0  0  0
 38 35  1  0  0  0  0
 39 35  2  0  0  0  0
 40 38  2  0  0  0  0
M  END
>  <MODEL>
7

>  <REMARK>
 VINA RESULT:      -7.4      2.419      4.734
  Name = 
  9 active torsions:
  status: ('A' for Active; 'I' for Inactive)
    1  A    between atoms: C_1  and  N_16
    2  A    between atoms: N_4  and  N_16
    3  A    between atoms: N_4  and  C_26
    4  A    between atoms: C_5  and  C_15
    5  A    between atoms: C_14  and  C_34
    6  A    between atoms: C_17  and  N_30
    7  A    between atoms: C_31  and  C_38
    8  A    between atoms: C_31  and  C_39
    9  A    between atoms: C_34  and  C_38
                            x       y       z     vdW  Elec       q    Type
                         _______ _______ _______ _____ _____    ______ ____

>  <TORSDO>
F 9

$$$$
=
 OpenBabel11042413193D

 40 44  0  0  1  0  0  0  0  0999 V2000
  189.6170  177.8250  138.6920 C   0  0  1  0  0  3  0  0  0  0  0  0
  188.2320  178.2560  135.3400 O   0  0  0  0  0  1  0  0  0  0  0  0
  187.9940  177.7480  136.6180 C   0  0  1  0  0  3  0  0  0  0  0  0
  188.3510  176.2590  136.6520 C   0  0  1  0  0  3  0  0  0  0  0  0
  189.6050  176.2910  138.5700 C   0  0  1  0  0  3  0  0  0  0  0  0
  188.4230  175.7890  137.9770 O   0  0  0  0  0  0  0  0  0  0  0  0
  188.8060  178.5220  137.6230 C   0  0  0  0  0  0  0  0  0  0  0  0
  188.7900  179.7430  137.5920 O   0  0  0  0  0  0  0  0  0  0  0  0
  190.8610  175.7180  137.9790 C   0  0  0  0  0  0  0  0  0  0  0  0
  191.9180  172.7760  136.0940 C   0  0  0  0  0  3  0  0  0  0  0  0
  191.9660  173.9830  136.7920 C   0  0  0  0  0  0  0  0  0  0  0  0
  193.2090  174.6200  136.9810 C   0  0  0  0  0  0  0  0  0  0  0  0
  193.0990  172.2170  135.5980 C   0  0  0  0  0  3  0  0  0  0  0  0
  194.3130  172.8780  135.8090 C   0  0  0  0  0  3  0  0  0  0  0  0
  190.8320  174.5410  137.2900 N   0  0  0  0  0  0  0  0  0  0  0  0
  194.3450  174.0560  136.4910 N   0  0  0  0  0  0  0  0  0  0  0  0
  193.2570  175.8250  137.6830 C   0  0  0  0  0  3  0  0  0  0  0  0
  192.0790  176.3770  138.1880 C   0  0  0  0  0  3  0  0  0  0  0  0
  189.2120  178.2510  140.0320 N   0  0  0  0  0  2  0  0  0  0  0  0
  189.9800  177.5580  140.9840 N   0  0  0  0  0  2  0  0  0  0  0  0
  191.5470  178.6120  143.0560 F   0  0  0  0  0  0  0  0  0  0  0  0
  187.8300  176.9850  144.0260 C   0  0  0  0  0  3  0  0  0  0  0  0
  188.5780  177.5030  145.0060 C   0  0  0  0  0  0  0  0  0  0  0  0
  190.4960  177.7640  143.3580 C   0  0  2  0  0  3  0  0  0  0  0  0
  189.4130  177.8610  142.2870 C   0  0  2  0  0  3  0  0  0  0  0  0
  188.3180  176.8480  142.6100 C   0  0  0  0  0  2  0  0  0  0  0  0
  189.9160  178.1480  144.7200 C   0  0  0  0  0  2  0  0  0  0  0  0
  188.8450  177.5160  147.5220 C   0  0  0  0  0  1  0  0  0  0  0  0
  188.0260  177.5590  146.3210 N   0  0  0  0  0  2  0  0  0  0  0  0
  187.3420  175.4220  135.8780 C   0  0  0  0  0  2  0  0  0  0  0  0
  185.1220  175.9440  136.7150 C   0  0  0  0  0  0  0  0  0  0  0  0
  184.1640  176.7290  136.7260 O   0  0  0  0  0  0  0  0  0  0  0  0
  186.1340  175.1180  136.7030 C   0  0  0  0  0  0  0  0  0  0  0  0
  186.0110  173.7800  137.3540 C   0  0  0  0  0  2  0  0  0  0  0  0
  186.1340  171.1520  134.6290 C   0  0  0  0  0  3  0  0  0  0  0  0
  187.8320  172.2450  136.5630 C   0  0  0  0  0  3  0  0  0  0  0  0
  188.3020  171.2460  135.7060 C   0  0  0  0  0  3  0  0  0  0  0  0
  185.6630  172.1510  135.4850 C   0  0  0  0  0  3  0  0  0  0  0  0
  187.4530  170.6980  134.7400 C   0  0  0  0  0  3  0  0  0  0  0  0
  186.5110  172.6970  136.4570 C   0  0  0  0  0  0  0  0  0  0  0  0
  1 19  1  1  0  0  0
  3  2  1  6  0  0  0
  3  4  1  0  0  0  0
  3  7  1  0  0  0  0
  4 30  1  6  0  0  0
  4  6  1  0  0  0  0
  5  9  1  6  0  0  0
  5  1  1  0  0  0  0
  6  5  1  0  0  0  0
  7  1  1  0  0  0  0
  8  7  2  0  0  0  0
  9 18  1  0  0  0  0
 10 11  1  0  0  0  0
 11 12  2  0  0  0  0
 11 15  1  0  0  0  0
 12 17  1  0  0  0  0
 13 14  1  0  0  0  0
 13 10  2  0  0  0  0
 14 16  2  0  0  0  0
 15  9  2  0  0  0  0
 16 12  1  0  0  0  0
 17 18  2  0  0  0  0
 19 20  1  0  0  0  0
 22 23  2  0  0  0  0
 23 29  1  0  0  0  0
 24 21  1  6  0  0  0
 24 27  1  0  0  0  0
 25 20  1  6  0  0  0
 25 26  1  0  0  0  0
 25 24  1  0  0  0  0
 26 22  1  0  0  0  0
 27 23  1  0  0  0  0
 29 28  1  0  0  0  0
 30 33  1  0  0  0  0
 31 32  2  0  0  0  0
 33 31  2  0  0  0  0
 33 34  1  0  0  0  0
 35 39  2  0  0  0  0
 35 38  1  0  0  0  0
 37 36  2  0  0  0  0
 38 40  2  0  0  0  0
 39 37  1  0  0  0  0
 40 36  1  0  0  0  0
 40 34  1  0  0  0  0
M  END
>  <MODEL>
8

>  <REMARK>
 VINA RESULT:      -7.3      3.064      6.452
  Name = 
  9 active torsions:
  status: ('A' for Active; 'I' for Inactive)
    1  A    between atoms: C_1  and  N_16
    2  A    between atoms: N_4  and  N_16
    3  A    between atoms: N_4  and  C_26
    4  A    between atoms: C_5  and  C_15
    5  A    between atoms: C_14  and  C_34
    6  A    between atoms: C_17  and  N_30
    7  A    between atoms: C_31  and  C_38
    8  A    between atoms: C_31  and  C_39
    9  A    between atoms: C_34  and  C_38
                            x       y       z     vdW  Elec       q    Type
                         _______ _______ _______ _____ _____    ______ ____

>  <TORSDO>
F 9

$$$$
=
 OpenBabel11042413193D

 40 44  0  0  1  0  0  0  0  0999 V2000
  185.7310  178.1050  138.2870 C   0  0  1  0  0  3  0  0  0  0  0  0
  182.6950  176.0750  138.2330 O   0  0  0  0  0  1  0  0  0  0  0  0
  183.2550  177.3040  137.8780 C   0  0  1  0  0  3  0  0  0  0  0  0
  182.9570  178.3370  138.9690 C   0  0  1  0  0  3  0  0  0  0  0  0
  185.0790  179.1710  139.1860 C   0  0  1  0  0  3  0  0  0  0  0  0
  183.7530  179.4850  138.8070 O   0  0  0  0  0  0  0  0  0  0  0  0
  184.7380  177.1390  137.6800 C   0  0  0  0  0  0  0  0  0  0  0  0
  185.1510  176.2180  136.9920 O   0  0  0  0  0  0  0  0  0  0  0  0
  185.2340  178.9040  140.6560 C   0  0  0  0  0  0  0  0  0  0  0  0
  183.2720  179.1870  143.7210 C   0  0  0  0  0  3  0  0  0  0  0  0
  184.3380  178.9440  142.8550 C   0  0  0  0  0  0  0  0  0  0  0  0
  185.5680  178.5030  143.3830 C   0  0  0  0  0  0  0  0  0  0  0  0
  183.4400  178.9930  145.0950 C   0  0  0  0  0  3  0  0  0  0  0  0
  184.6770  178.5590  145.5810 C   0  0  0  0  0  3  0  0  0  0  0  0
  184.2010  179.1320  141.5170 N   0  0  0  0  0  0  0  0  0  0  0  0
  185.7080  178.3240  144.7250 N   0  0  0  0  0  0  0  0  0  0  0  0
  186.6360  178.2640  142.5170 C   0  0  0  0  0  3  0  0  0  0  0  0
  186.4710  178.4680  141.1460 C   0  0  0  0  0  3  0  0  0  0  0  0
  186.5700  178.7230  137.2600 N   0  0  0  0  0  2  0  0  0  0  0  0
  187.8360  178.9950  137.8070 N   0  0  0  0  0  2  0  0  0  0  0  0
  189.3530  178.4730  140.1060 F   0  0  0  0  0  0  0  0  0  0  0  0
  189.8100  175.9390  136.8230 C   0  0  0  0  0  3  0  0  0  0  0  0
  190.5200  175.6890  137.9290 C   0  0  0  0  0  0  0  0  0  0  0  0
  189.7180  177.8960  138.9010 C   0  0  2  0  0  3  0  0  0  0  0  0
  188.4930  177.7140  138.0100 C   0  0  2  0  0  3  0  0  0  0  0  0
  188.9500  177.1620  136.6620 C   0  0  0  0  0  2  0  0  0  0  0  0
  190.3710  176.5400  139.1700 C   0  0  0  0  0  2  0  0  0  0  0  0
  192.6150  174.4210  137.2960 C   0  0  0  0  0  1  0  0  0  0  0  0
  191.3270  174.5120  137.9630 N   0  0  0  0  0  2  0  0  0  0  0  0
  181.4880  178.7420  138.9720 C   0  0  0  0  0  2  0  0  0  0  0  0
  181.1840  179.9180  136.8680 C   0  0  0  0  0  0  0  0  0  0  0  0
  181.1130  179.8550  135.6330 O   0  0  0  0  0  0  0  0  0  0  0  0
  181.2610  179.9820  138.1710 C   0  0  0  0  0  0  0  0  0  0  0  0
  180.9280  181.2570  138.8740 C   0  0  0  0  0  2  0  0  0  0  0  0
  178.9670  183.3880  136.4310 C   0  0  0  0  0  3  0  0  0  0  0  0
  181.5190  183.3210  137.5730 C   0  0  0  0  0  3  0  0  0  0  0  0
  181.1820  184.3390  136.6770 C   0  0  0  0  0  3  0  0  0  0  0  0
  179.3030  182.3700  137.3280 C   0  0  0  0  0  3  0  0  0  0  0  0
  179.9060  184.3710  136.1050 C   0  0  0  0  0  3  0  0  0  0  0  0
  180.5810  182.3330  137.8980 C   0  0  0  0  0  0  0  0  0  0  0  0
  1 19  1  6  0  0  0
  1  5  1  0  0  0  0
  3  2  1  1  0  0  0
  3  4  1  0  0  0  0
  4 30  1  6  0  0  0
  5  9  1  1  0  0  0
  6  4  1  0  0  0  0
  6  5  1  0  0  0  0
  7  3  1  0  0  0  0
  7  1  1  0  0  0  0
  8  7  2  0  0  0  0
  9 18  2  0  0  0  0
  9 15  1  0  0  0  0
 10 13  2  0  0  0  0
 11 12  1  0  0  0  0
 11 10  1  0  0  0  0
 12 16  1  0  0  0  0
 13 14  1  0  0  0  0
 15 11  2  0  0  0  0
 16 14  2  0  0  0  0
 17 12  2  0  0  0  0
 18 17  1  0  0  0  0
 19 20  1  0  0  0  0
 22 23  2  0  0  0  0
 23 29  1  0  0  0  0
 23 27  1  0  0  0  0
 24 27  1  0  0  0  0
 24 21  1  1  0  0  0
 25 20  1  6  0  0  0
 25 24  1  0  0  0  0
 26 22  1  0  0  0  0
 26 25  1  0  0  0  0
 28 29  1  0  0  0  0
 31 33  2  0  0  0  0
 32 31  2  0  0  0  0
 33 34  1  0  0  0  0
 33 30  1  0  0  0  0
 35 38  1  0  0  0  0
 36 40  1  0  0  0  0
 37 36  2  0  0  0  0
 38 40  2  0  0  0  0
 39 35  2  0  0  0  0
 39 37  1  0  0  0  0
 40 34  1  0  0  0  0
M  END
>  <MODEL>
9

>  <REMARK>
 VINA RESULT:      -7.3      3.791      7.992
  Name = 
  9 active torsions:
  status: ('A' for Active; 'I' for Inactive)
    1  A    between atoms: C_1  and  N_16
    2  A    between atoms: N_4  and  N_16
    3  A    between atoms: N_4  and  C_26
    4  A    between atoms: C_5  and  C_15
    5  A    between atoms: C_14  and  C_34
    6  A    between atoms: C_17  and  N_30
    7  A    between atoms: C_31  and  C_38
    8  A    between atoms: C_31  and  C_39
    9  A    between atoms: C_34  and  C_38
                            x       y       z     vdW  Elec       q    Type
                         _______ _______ _______ _____ _____    ______ ____

>  <TORSDO>
F 9

$$$$
