=
 OpenBabel11042412253D

 60 63  0  0  1  0  0  0  0  0999 V2000
  190.6660  175.3480  138.0740 N   0  0  0  0  0  2  0  0  0  0  0  0
  191.7270  176.3120  138.2520 C   0  0  0  0  0  0  0  0  0  0  0  0
  192.7640  176.3830  137.4650 N   0  0  0  0  0  0  0  0  0  0  0  0
  191.6730  177.2070  139.3610 N   0  0  0  0  0  2  0  0  0  0  0  0
  195.1960  176.1340  136.1280 O   0  0  0  0  0  1  0  0  0  0  0  0
  194.3700  174.6560  134.5940 O   0  0  0  0  0  0  0  0  0  0  0  0
  194.2120  175.4840  135.6930 C   0  0  0  0  0  0  0  0  0  0  0  0
  192.9410  175.5830  136.3300 N   0  0  0  0  0  2  0  0  0  0  0  0
  190.5860  174.3710  137.0050 C   0  0  0  0  0  2  0  0  0  0  0  0
  189.2570  173.6630  137.0270 C   0  0  0  0  0  2  0  0  0  0  0  0
  188.1260  174.6600  136.8290 C   0  0  0  0  0  2  0  0  0  0  0  0
  186.7950  173.1840  135.5040 F   0  0  0  0  0  0  0  0  0  0  0  0
  186.7840  173.9500  136.6560 C   0  0  0  0  0  0  0  0  0  0  0  0
  186.5650  173.1270  137.7430 F   0  0  0  0  0  0  0  0  0  0  0  0
  185.0440  175.0140  135.1650 C   0  0  0  0  0  1  0  0  0  0  0  0
  185.6490  174.9750  136.5690 C   0  0  1  0  0  3  0  0  0  0  0  0
  184.6510  174.6970  137.5170 O   0  0  0  0  0  0  0  0  0  0  0  0
  183.5260  174.3140  136.7750 C   0  0  0  0  0  2  0  0  0  0  0  0
  182.2910  174.4770  137.6480 C   0  0  0  0  0  2  0  0  0  0  0  0
  182.3130  175.7300  138.3210 O   0  0  0  0  0  0  0  0  0  0  0  0
  182.0070  176.9150  137.6590 C   0  0  0  0  0  0  0  0  0  0  0  0
  182.9140  177.6110  137.1100 O   0  0  0  0  0  0  0  0  0  0  0  0
  180.5890  177.3770  137.6370 C   0  0  0  0  0  2  0  0  0  0  0  0
  178.9310  180.6140  140.0570 O   0  0  0  0  0  1  0  0  0  0  0  0
  180.3620  178.2380  141.1570 C   0  0  0  0  0  2  0  0  0  0  0  0
  180.2350  178.1800  138.8850 C   0  0  1  0  0  3  0  0  0  0  0  0
  180.8700  177.6100  140.0050 O   0  0  0  0  0  0  0  0  0  0  0  0
  180.3350  180.3000  142.3590 O   0  0  0  0  0  1  0  0  0  0  0  0
  180.3180  180.4310  139.9680 C   0  0  2  0  0  3  0  0  0  0  0  0
  180.6710  179.6440  138.7040 C   0  0  2  0  0  3  0  0  0  0  0  0
  180.8320  179.6930  141.2090 C   0  0  2  0  0  3  0  0  0  0  0  0
  180.0420  180.2100  137.5870 O   0  0  0  0  0  0  0  0  0  0  0  0
  181.0600  180.8850  136.9080 C   0  0  0  0  0  2  0  0  0  0  0  0
  180.4770  181.9520  135.9950 C   0  0  0  0  0  2  0  0  0  0  0  0
  181.0570  184.5370  135.8950 C   0  0  0  0  0  1  0  0  0  0  0  0
  180.4710  183.3400  136.6310 C   0  0  1  0  0  0  0  0  0  0  0  0
  179.4250  183.6160  137.6410 C   0  0  0  0  0  2  0  0  0  0  0  0
  180.7630  183.3490  138.0060 O   0  0  0  0  0  0  0  0  0  0  0  0
  190.5600  177.2570  140.3000 C   0  0  1  0  0  3  0  0  0  0  0  0
  192.3380  177.5160  141.8580 O   0  0  0  0  0  0  0  0  0  0  0  0
  191.1020  177.3280  141.6890 C   0  0  0  0  0  0  0  0  0  0  0  0
  190.2190  177.2220  142.8140 N   0  0  0  0  0  2  0  0  0  0  0  0
  191.5080  178.5950  144.1910 O   0  0  0  0  0  1  0  0  0  0  0  0
  190.6140  177.5170  144.1910 C   0  0  1  0  0  0  0  0  0  0  0  0
  185.8710  178.0260  144.0810 C   0  0  0  0  0  1  0  0  0  0  0  0
  189.3440  177.1630  146.3680 C   0  0  0  0  0  2  0  0  0  0  0  0
  187.1130  178.1640  144.9450 C   0  0  2  0  0  3  0  0  0  0  0  0
  188.1950  177.5530  144.2860 O   0  0  0  0  0  0  0  0  0  0  0  0
  186.8630  177.4760  146.2860 C   0  0  0  0  0  2  0  0  0  0  0  0
  188.1110  177.6100  147.1490 C   0  0  0  0  0  2  0  0  0  0  0  0
  189.3630  177.8780  145.0070 C   0  0  2  0  0  3  0  0  0  0  0  0
  191.5700  175.4260  144.0730 O   0  0  0  0  0  0  0  0  0  0  0  0
  191.2520  176.3490  144.7600 N   0  0  0  0  0  0  0  0  0  0  0  0
  189.7170  178.4140  140.0090 N   0  0  0  0  0  2  0  0  0  0  0  0
  188.8580  178.4850  137.7270 C   0  0  0  0  0  3  0  0  0  0  0  0
  187.7910  178.4120  136.8300 C   0  0  0  0  0  3  0  0  0  0  0  0
  188.6090  178.3780  139.1020 C   0  0  0  0  0  0  0  0  0  0  0  0
  187.3030  178.1740  139.5510 C   0  0  0  0  0  3  0  0  0  0  0  0
  186.2640  178.1040  138.6230 C   0  0  0  0  0  3  0  0  0  0  0  0
  186.5290  178.2240  137.2950 N   0  0  0  0  0  0  0  0  0  0  0  0
  1  2  1  0  0  0  0
  2  4  1  0  0  0  0
  3  2  2  0  0  0  0
  6  7  2  0  0  0  0
  7  5  1  0  0  0  0
  7  8  1  0  0  0  0
  8  3  1  0  0  0  0
  9 10  1  0  0  0  0
  9  1  1  0  0  0  0
 11 10  1  0  0  0  0
 12 13  1  0  0  0  0
 13 11  1  0  0  0  0
 13 14  1  0  0  0  0
 16 15  1  6  0  0  0
 16 13  1  0  0  0  0
 16 17  1  0  0  0  0
 18 17  1  0  0  0  0
 18 19  1  0  0  0  0
 19 20  1  0  0  0  0
 21 20  1  0  0  0  0
 22 21  2  0  0  0  0
 23 21  1  0  0  0  0
 25 31  1  0  0  0  0
 26 23  1  6  0  0  0
 26 27  1  0  0  0  0
 27 25  1  0  0  0  0
 29 24  1  1  0  0  0
 29 31  1  0  0  0  0
 30 32  1  6  0  0  0
 30 26  1  0  0  0  0
 30 29  1  0  0  0  0
 31 28  1  1  0  0  0
 33 32  1  0  0  0  0
 34 36  1  0  0  0  0
 34 33  1  0  0  0  0
 36 35  1  6  0  0  0
 36 37  1  0  0  0  0
 36 38  1  0  0  0  0
 37 38  1  0  0  0  0
 39  4  1  6  0  0  0
 39 41  1  0  0  0  0
 41 40  2  0  0  0  0
 41 42  1  0  0  0  0
 42 44  1  0  0  0  0
 44 43  1  1  0  0  0
 44 53  1  0  0  0  0
 46 50  1  0  0  0  0
 47 45  1  6  0  0  0
 47 49  1  0  0  0  0
 48 47  1  0  0  0  0
 48 51  1  0  0  0  0
 49 50  1  0  0  0  0
 51 44  1  6  0  0  0
 51 46  1  0  0  0  0
 52 53  2  0  0  0  0
 54 39  1  0  0  0  0
 55 57  1  0  0  0  0
 56 60  1  0  0  0  0
 56 55  2  0  0  0  0
 57 58  2  0  0  0  0
 57 54  1  0  0  0  0
 59 58  1  0  0  0  0
 60 59  2  0  0  0  0
M  END
>  <MODEL>
1

>  <REMARK>
 VINA RESULT:      -6.8      0.000      0.000
  Name = 
  24 active torsions:
  status: ('A' for Active; 'I' for Inactive)
    1  A    between atoms: O_3  and  C_5
    2  A    between atoms: O_3  and  C_51
    3  A    between atoms: C_5  and  C_55
    4  A    between atoms: N_7  and  C_12
    5  A    between atoms: C_10  and  C_34
    6  A    between atoms: C_10  and  C_50
    7  A    between atoms: C_11  and  C_55
    8  A    between atoms: C_12  and  C_50
    9  A    between atoms: C_15  and  O_45
   10  A    between atoms: C_15  and  C_51
   11  A    between atoms: C_16  and  C_31
   12  A    between atoms: N_17  and  C_27
   13  A    between atoms: C_19  and  C_36
   14  A    between atoms: N_22  and  C_27
   15  A    between atoms: C_26  and  C_34
   16  A    between atoms: C_26  and  O_45
   17  A    between atoms: C_27  and  C_52
   18  A    between atoms: C_31  and  C_38
   19  A    between atoms: C_33  and  N_56
   20  A    between atoms: N_35  and  N_59
   21  A    between atoms: C_36  and  N_56
   22  A    between atoms: C_36  and  N_58
   23  A    between atoms: C_38  and  O_48
   24  A    between atoms: O_48  and  C_49
                            x       y       z     vdW  Elec       q    Type
                         _______ _______ _______ _____ _____    ______ ____

>  <TORSDO>
F 24

$$$$
=
 OpenBabel11042412253D

 60 63  0  0  1  0  0  0  0  0999 V2000
  188.0560  176.8380  142.7010 N   0  0  0  0  0  2  0  0  0  0  0  0
  189.3150  177.5410  142.6190 C   0  0  0  0  0  0  0  0  0  0  0  0
  189.8950  178.0860  143.6510 N   0  0  0  0  0  0  0  0  0  0  0  0
  189.9460  177.6890  141.3490 N   0  0  0  0  0  2  0  0  0  0  0  0
  191.4070  177.1750  145.8070 O   0  0  0  0  0  0  0  0  0  0  0  0
  189.7250  177.5060  147.3180 O   0  0  0  0  0  1  0  0  0  0  0  0
  190.2250  177.5420  146.0260 C   0  0  0  0  0  0  0  0  0  0  0  0
  189.4010  178.0050  144.9590 N   0  0  0  0  0  2  0  0  0  0  0  0
  187.2930  176.6150  143.9140 C   0  0  0  0  0  2  0  0  0  0  0  0
  186.5000  177.8430  144.2780 C   0  0  0  0  0  2  0  0  0  0  0  0
  185.4420  178.1200  143.2220 C   0  0  0  0  0  2  0  0  0  0  0  0
  183.8740  178.7230  144.9190 F   0  0  0  0  0  0  0  0  0  0  0  0
  184.4160  179.1390  143.7160 C   0  0  0  0  0  0  0  0  0  0  0  0
  185.0420  180.3570  143.9000 F   0  0  0  0  0  0  0  0  0  0  0  0
  183.1920  178.0770  141.7790 C   0  0  0  0  0  1  0  0  0  0  0  0
  183.2940  179.3040  142.6860 C   0  0  1  0  0  3  0  0  0  0  0  0
  182.0640  179.5380  143.3210 O   0  0  0  0  0  0  0  0  0  0  0  0
  181.4570  178.2810  143.4360 C   0  0  0  0  0  2  0  0  0  0  0  0
  180.0200  178.4760  143.8970 C   0  0  0  0  0  2  0  0  0  0  0  0
  179.2280  179.0280  142.8530 O   0  0  0  0  0  0  0  0  0  0  0  0
  179.0640  178.3680  141.6390 C   0  0  0  0  0  0  0  0  0  0  0  0
  179.0550  177.1020  141.5790 O   0  0  0  0  0  0  0  0  0  0  0  0
  178.9350  179.1810  140.3950 C   0  0  0  0  0  2  0  0  0  0  0  0
  182.0200  178.6820  137.3430 O   0  0  0  0  0  1  0  0  0  0  0  0
  179.7450  176.8010  137.7750 C   0  0  0  0  0  2  0  0  0  0  0  0
  179.6900  178.5530  139.2270 C   0  0  1  0  0  3  0  0  0  0  0  0
  178.9370  177.4840  138.7030 O   0  0  0  0  0  0  0  0  0  0  0  0
  180.7720  176.9860  135.6290 O   0  0  0  0  0  1  0  0  0  0  0  0
  180.6960  178.9640  136.9770 C   0  0  2  0  0  3  0  0  0  0  0  0
  179.9490  179.6130  138.1430 C   0  0  2  0  0  3  0  0  0  0  0  0
  179.9840  177.6770  136.5450 C   0  0  2  0  0  3  0  0  0  0  0  0
  180.6940  180.6790  138.6650 O   0  0  0  0  0  0  0  0  0  0  0  0
  180.2160  181.8100  137.9990 C   0  0  0  0  0  2  0  0  0  0  0  0
  181.3040  182.8660  137.8900 C   0  0  0  0  0  2  0  0  0  0  0  0
  180.7000  183.6210  135.4220 C   0  0  0  0  0  1  0  0  0  0  0  0
  180.9710  183.9610  136.8800 C   0  0  1  0  0  0  0  0  0  0  0  0
  180.3610  185.2030  137.4070 C   0  0  0  0  0  2  0  0  0  0  0  0
  181.7220  185.1400  137.0340 O   0  0  0  0  0  0  0  0  0  0  0  0
  189.4260  177.1050  140.1200 C   0  0  1  0  0  3  0  0  0  0  0  0
  188.2070  179.1410  139.9640 O   0  0  0  0  0  0  0  0  0  0  0  0
  188.2690  177.9210  139.6480 C   0  0  0  0  0  0  0  0  0  0  0  0
  187.2620  177.3320  138.8130 N   0  0  0  0  0  2  0  0  0  0  0  0
  186.8520  179.0150  137.2490 O   0  0  0  0  0  1  0  0  0  0  0  0
  186.2350  178.0990  138.1100 C   0  0  1  0  0  0  0  0  0  0  0  0
  186.1910  174.7150  134.7470 C   0  0  0  0  0  1  0  0  0  0  0  0
  184.3550  176.3850  138.1940 C   0  0  0  0  0  2  0  0  0  0  0  0
  185.3260  175.5590  135.6680 C   0  0  2  0  0  3  0  0  0  0  0  0
  186.1550  176.2080  136.6000 O   0  0  0  0  0  0  0  0  0  0  0  0
  184.3380  174.6470  136.3930 C   0  0  0  0  0  2  0  0  0  0  0  0
  183.4750  175.4940  137.3200 C   0  0  0  0  0  2  0  0  0  0  0  0
  185.3540  177.1360  137.2990 C   0  0  2  0  0  3  0  0  0  0  0  0
  184.9310  179.8590  138.8200 O   0  0  0  0  0  0  0  0  0  0  0  0
  185.4260  178.8050  139.0810 N   0  0  0  0  0  0  0  0  0  0  0  0
  190.4780  177.0570  139.1080 N   0  0  0  0  0  2  0  0  0  0  0  0
  190.5070  177.0520  136.6690 C   0  0  0  0  0  3  0  0  0  0  0  0
  190.4280  176.3640  135.4560 C   0  0  0  0  0  3  0  0  0  0  0  0
  190.3540  176.3470  137.8700 C   0  0  0  0  0  0  0  0  0  0  0  0
  190.1510  174.9660  137.8370 C   0  0  0  0  0  3  0  0  0  0  0  0
  190.0800  174.3150  136.6050 C   0  0  0  0  0  3  0  0  0  0  0  0
  190.2190  175.0230  135.4530 N   0  0  0  0  0  0  0  0  0  0  0  0
  1  9  1  0  0  0  0
  2  1  1  0  0  0  0
  2  3  2  0  0  0  0
  3  8  1  0  0  0  0
  4  2  1  0  0  0  0
  5  7  2  0  0  0  0
  7  6  1  0  0  0  0
  8  7  1  0  0  0  0
  9 10  1  0  0  0  0
 11 13  1  0  0  0  0
 11 10  1  0  0  0  0
 13 14  1  0  0  0  0
 13 12  1  0  0  0  0
 16 15  1  1  0  0  0
 16 17  1  0  0  0  0
 16 13  1  0  0  0  0
 17 18  1  0  0  0  0
 18 19  1  0  0  0  0
 20 19  1  0  0  0  0
 21 20  1  0  0  0  0
 22 21  2  0  0  0  0
 23 21  1  0  0  0  0
 25 27  1  0  0  0  0
 26 23  1  1  0  0  0
 27 26  1  0  0  0  0
 29 24  1  1  0  0  0
 29 30  1  0  0  0  0
 30 32  1  1  0  0  0
 30 26  1  0  0  0  0
 31 28  1  6  0  0  0
 31 29  1  0  0  0  0
 31 25  1  0  0  0  0
 33 32  1  0  0  0  0
 34 33  1  0  0  0  0
 36 35  1  6  0  0  0
 36 38  1  0  0  0  0
 36 37  1  0  0  0  0
 36 34  1  0  0  0  0
 38 37  1  0  0  0  0
 39 54  1  6  0  0  0
 39  4  1  0  0  0  0
 41 40  2  0  0  0  0
 41 39  1  0  0  0  0
 42 41  1  0  0  0  0
 44 43  1  6  0  0  0
 44 42  1  0  0  0  0
 44 53  1  0  0  0  0
 47 45  1  6  0  0  0
 47 49  1  0  0  0  0
 47 48  1  0  0  0  0
 48 51  1  0  0  0  0
 49 50  1  0  0  0  0
 50 46  1  0  0  0  0
 51 44  1  1  0  0  0
 51 46  1  0  0  0  0
 52 53  2  0  0  0  0
 55 57  1  0  0  0  0
 56 55  2  0  0  0  0
 57 54  1  0  0  0  0
 58 57  2  0  0  0  0
 59 58  1  0  0  0  0
 60 56  1  0  0  0  0
 60 59  2  0  0  0  0
M  END
>  <MODEL>
2

>  <REMARK>
 VINA RESULT:      -6.3      3.078      6.884
  Name = 
  24 active torsions:
  status: ('A' for Active; 'I' for Inactive)
    1  A    between atoms: O_3  and  C_5
    2  A    between atoms: O_3  and  C_51
    3  A    between atoms: C_5  and  C_55
    4  A    between atoms: N_7  and  C_12
    5  A    between atoms: C_10  and  C_34
    6  A    between atoms: C_10  and  C_50
    7  A    between atoms: C_11  and  C_55
    8  A    between atoms: C_12  and  C_50
    9  A    between atoms: C_15  and  O_45
   10  A    between atoms: C_15  and  C_51
   11  A    between atoms: C_16  and  C_31
   12  A    between atoms: N_17  and  C_27
   13  A    between atoms: C_19  and  C_36
   14  A    between atoms: N_22  and  C_27
   15  A    between atoms: C_26  and  C_34
   16  A    between atoms: C_26  and  O_45
   17  A    between atoms: C_27  and  C_52
   18  A    between atoms: C_31  and  C_38
   19  A    between atoms: C_33  and  N_56
   20  A    between atoms: N_35  and  N_59
   21  A    between atoms: C_36  and  N_56
   22  A    between atoms: C_36  and  N_58
   23  A    between atoms: C_38  and  O_48
   24  A    between atoms: O_48  and  C_49
                            x       y       z     vdW  Elec       q    Type
                         _______ _______ _______ _____ _____    ______ ____

>  <TORSDO>
F 24

$$$$
=
 OpenBabel11042412253D

 60 63  0  0  1  0  0  0  0  0999 V2000
  185.0120  178.5990  141.1890 N   0  0  0  0  0  2  0  0  0  0  0  0
  183.6980  178.6870  141.7820 C   0  0  0  0  0  0  0  0  0  0  0  0
  183.4900  179.1370  142.9880 N   0  0  0  0  0  0  0  0  0  0  0  0
  182.5700  178.2270  141.0410 N   0  0  0  0  0  2  0  0  0  0  0  0
  183.5610  178.7040  145.7400 O   0  0  0  0  0  0  0  0  0  0  0  0
  185.5170  179.8510  146.0180 O   0  0  0  0  0  1  0  0  0  0  0  0
  184.4890  179.3750  145.2210 C   0  0  0  0  0  0  0  0  0  0  0  0
  184.4970  179.6380  143.8200 N   0  0  0  0  0  2  0  0  0  0  0  0
  186.2500  179.0160  141.8190 C   0  0  0  0  0  2  0  0  0  0  0  0
  187.0760  177.8200  142.2160 C   0  0  0  0  0  2  0  0  0  0  0  0
  187.0160  177.6150  143.7220 C   0  0  0  0  0  2  0  0  0  0  0  0
  188.0030  176.3790  145.5110 F   0  0  0  0  0  0  0  0  0  0  0  0
  188.2290  176.8330  144.2240 C   0  0  0  0  0  0  0  0  0  0  0  0
  188.4430  175.7500  143.3940 F   0  0  0  0  0  0  0  0  0  0  0  0
  189.8490  178.1680  145.6290 C   0  0  0  0  0  1  0  0  0  0  0  0
  189.4760  177.7240  144.2140 C   0  0  1  0  0  3  0  0  0  0  0  0
  190.5580  177.0600  143.6140 O   0  0  0  0  0  0  0  0  0  0  0  0
  191.2230  178.0360  142.8610 C   0  0  0  0  0  2  0  0  0  0  0  0
  192.0380  177.3410  141.7800 C   0  0  0  0  0  2  0  0  0  0  0  0
  191.5830  177.7180  140.4870 O   0  0  0  0  0  0  0  0  0  0  0  0
  190.4820  177.1050  139.8970 C   0  0  0  0  0  0  0  0  0  0  0  0
  189.9220  176.1050  140.4380 O   0  0  0  0  0  0  0  0  0  0  0  0
  189.9910  177.6240  138.5880 C   0  0  0  0  0  2  0  0  0  0  0  0
  190.4850  175.9200  134.5960 O   0  0  0  0  0  1  0  0  0  0  0  0
  192.6270  176.0250  136.6700 C   0  0  0  0  0  2  0  0  0  0  0  0
  190.6780  176.9370  137.4110 C   0  0  1  0  0  3  0  0  0  0  0  0
  191.9400  176.4610  137.8170 O   0  0  0  0  0  0  0  0  0  0  0  0
  192.6570  174.3370  134.9830 O   0  0  0  0  0  1  0  0  0  0  0  0
  190.5120  175.0950  135.7300 C   0  0  2  0  0  3  0  0  0  0  0  0
  189.8040  175.7790  136.9010 C   0  0  2  0  0  3  0  0  0  0  0  0
  191.9600  174.7680  136.1090 C   0  0  2  0  0  3  0  0  0  0  0  0
  188.5460  176.2510  136.5000 O   0  0  0  0  0  0  0  0  0  0  0  0
  187.7490  175.1070  136.4020 C   0  0  0  0  0  2  0  0  0  0  0  0
  186.4530  175.2920  137.1750 C   0  0  0  0  0  2  0  0  0  0  0  0
  186.2180  177.8950  137.6250 C   0  0  0  0  0  1  0  0  0  0  0  0
  185.7800  176.6340  136.8940 C   0  0  1  0  0  0  0  0  0  0  0  0
  185.1530  176.8090  135.5650 C   0  0  0  0  0  2  0  0  0  0  0  0
  184.3860  176.5580  136.7240 O   0  0  0  0  0  0  0  0  0  0  0  0
  182.6540  177.7300  139.6740 C   0  0  1  0  0  3  0  0  0  0  0  0
  180.2880  177.5300  139.8070 O   0  0  0  0  0  0  0  0  0  0  0  0
  181.3590  177.0810  139.3140 C   0  0  0  0  0  0  0  0  0  0  0  0
  181.3330  175.9850  138.3890 N   0  0  0  0  0  2  0  0  0  0  0  0
  179.2480  176.5070  137.4810 O   0  0  0  0  0  1  0  0  0  0  0  0
  180.1090  175.4480  137.7950 C   0  0  1  0  0  0  0  0  0  0  0  0
  183.6230  173.3810  135.3170 C   0  0  0  0  0  1  0  0  0  0  0  0
  179.4840  173.5210  136.2560 C   0  0  0  0  0  2  0  0  0  0  0  0
  182.1440  173.7280  135.3170 C   0  0  2  0  0  3  0  0  0  0  0  0
  181.7800  174.1640  136.6030 O   0  0  0  0  0  0  0  0  0  0  0  0
  181.3430  172.4840  134.9410 C   0  0  0  0  0  2  0  0  0  0  0  0
  179.8600  172.8320  134.9460 C   0  0  0  0  0  2  0  0  0  0  0  0
  180.4670  174.6730  136.5180 C   0  0  2  0  0  3  0  0  0  0  0  0
  180.0530  174.1850  139.7190 O   0  0  0  0  0  0  0  0  0  0  0  0
  179.4730  174.5620  138.7460 N   0  0  0  0  0  0  0  0  0  0  0  0
  182.9560  178.8310  138.7630 N   0  0  0  0  0  2  0  0  0  0  0  0
  181.5500  180.8220  138.8610 C   0  0  0  0  0  3  0  0  0  0  0  0
  180.6030  181.6680  138.2810 C   0  0  0  0  0  3  0  0  0  0  0  0
  181.9540  179.6690  138.1750 C   0  0  0  0  0  0  0  0  0  0  0  0
  181.4240  179.3990  136.9120 C   0  0  0  0  0  3  0  0  0  0  0  0
  180.4820  180.2700  136.3660 C   0  0  0  0  0  3  0  0  0  0  0  0
  180.0960  181.3750  137.0560 N   0  0  0  0  0  0  0  0  0  0  0  0
  1  2  1  0  0  0  0
  1  9  1  0  0  0  0
  2  3  2  0  0  0  0
  3  8  1  0  0  0  0
  4  2  1  0  0  0  0
  7  5  2  0  0  0  0
  7  6  1  0  0  0  0
  8  7  1  0  0  0  0
  9 10  1  0  0  0  0
 10 11  1  0  0  0  0
 11 13  1  0  0  0  0
 13 12  1  0  0  0  0
 14 13  1  0  0  0  0
 16 13  1  0  0  0  0
 16 15  1  1  0  0  0
 17 16  1  0  0  0  0
 18 17  1  0  0  0  0
 19 18  1  0  0  0  0
 20 19  1  0  0  0  0
 21 22  2  0  0  0  0
 21 20  1  0  0  0  0
 23 21  1  0  0  0  0
 25 27  1  0  0  0  0
 26 27  1  0  0  0  0
 26 23  1  1  0  0  0
 29 24  1  6  0  0  0
 29 31  1  0  0  0  0
 29 30  1  0  0  0  0
 30 32  1  6  0  0  0
 30 26  1  0  0  0  0
 31 28  1  6  0  0  0
 31 25  1  0  0  0  0
 33 32  1  0  0  0  0
 33 34  1  0  0  0  0
 36 34  1  0  0  0  0
 36 35  1  1  0  0  0
 37 38  1  0  0  0  0
 37 36  1  0  0  0  0
 38 36  1  0  0  0  0
 39 54  1  6  0  0  0
 39  4  1  0  0  0  0
 41 39  1  0  0  0  0
 41 40  2  0  0  0  0
 42 41  1  0  0  0  0
 44 43  1  6  0  0  0
 44 42  1  0  0  0  0
 44 53  1  0  0  0  0
 46 51  1  0  0  0  0
 47 45  1  1  0  0  0
 47 48  1  0  0  0  0
 49 50  1  0  0  0  0
 49 47  1  0  0  0  0
 50 46  1  0  0  0  0
 51 48  1  0  0  0  0
 51 44  1  1  0  0  0
 53 52  2  0  0  0  0
 56 55  1  0  0  0  0
 57 54  1  0  0  0  0
 57 55  2  0  0  0  0
 58 57  1  0  0  0  0
 59 58  2  0  0  0  0
 59 60  1  0  0  0  0
 60 56  2  0  0  0  0
M  END
>  <MODEL>
3

>  <REMARK>
 VINA RESULT:      -5.9      3.550     10.664
  Name = 
  24 active torsions:
  status: ('A' for Active; 'I' for Inactive)
    1  A    between atoms: O_3  and  C_5
    2  A    between atoms: O_3  and  C_51
    3  A    between atoms: C_5  and  C_55
    4  A    between atoms: N_7  and  C_12
    5  A    between atoms: C_10  and  C_34
    6  A    between atoms: C_10  and  C_50
    7  A    between atoms: C_11  and  C_55
    8  A    between atoms: C_12  and  C_50
    9  A    between atoms: C_15  and  O_45
   10  A    between atoms: C_15  and  C_51
   11  A    between atoms: C_16  and  C_31
   12  A    between atoms: N_17  and  C_27
   13  A    between atoms: C_19  and  C_36
   14  A    between atoms: N_22  and  C_27
   15  A    between atoms: C_26  and  C_34
   16  A    between atoms: C_26  and  O_45
   17  A    between atoms: C_27  and  C_52
   18  A    between atoms: C_31  and  C_38
   19  A    between atoms: C_33  and  N_56
   20  A    between atoms: N_35  and  N_59
   21  A    between atoms: C_36  and  N_56
   22  A    between atoms: C_36  and  N_58
   23  A    between atoms: C_38  and  O_48
   24  A    between atoms: O_48  and  C_49
                            x       y       z     vdW  Elec       q    Type
                         _______ _______ _______ _____ _____    ______ ____

>  <TORSDO>
F 24

$$$$
=
 OpenBabel11042412253D

 60 63  0  0  1  0  0  0  0  0999 V2000
  185.8510  177.6000  142.5000 N   0  0  0  0  0  2  0  0  0  0  0  0
  185.2720  178.8800  142.1640 C   0  0  0  0  0  0  0  0  0  0  0  0
  185.0010  179.7950  143.0520 N   0  0  0  0  0  0  0  0  0  0  0  0
  184.9380  179.1550  140.8050 N   0  0  0  0  0  2  0  0  0  0  0  0
  183.1800  178.8220  144.9240 O   0  0  0  0  0  0  0  0  0  0  0  0
  184.6470  179.0060  146.6660 O   0  0  0  0  0  1  0  0  0  0  0  0
  184.3230  179.1540  145.3280 C   0  0  0  0  0  0  0  0  0  0  0  0
  185.2900  179.6710  144.4160 N   0  0  0  0  0  2  0  0  0  0  0  0
  186.2330  177.1730  143.8330 C   0  0  0  0  0  2  0  0  0  0  0  0
  187.7330  177.1420  143.9730 C   0  0  0  0  0  2  0  0  0  0  0  0
  188.3690  176.5920  142.7070 C   0  0  0  0  0  2  0  0  0  0  0  0
  188.4460  177.6610  140.5730 F   0  0  0  0  0  0  0  0  0  0  0  0
  188.9650  177.7110  141.8540 C   0  0  0  0  0  0  0  0  0  0  0  0
  188.6500  178.9290  142.4230 F   0  0  0  0  0  0  0  0  0  0  0  0
  190.9500  176.2430  142.3880 C   0  0  0  0  0  1  0  0  0  0  0  0
  190.4900  177.5710  141.7870 C   0  0  1  0  0  3  0  0  0  0  0  0
  190.9440  177.6850  140.4630 O   0  0  0  0  0  0  0  0  0  0  0  0
  192.2520  177.1860  140.4710 C   0  0  0  0  0  2  0  0  0  0  0  0
  192.6690  176.8940  139.0380 C   0  0  0  0  0  2  0  0  0  0  0  0
  191.5460  176.5060  138.2560 O   0  0  0  0  0  0  0  0  0  0  0  0
  191.5500  175.3310  137.5110 C   0  0  0  0  0  0  0  0  0  0  0  0
  190.9750  174.2850  137.9360 O   0  0  0  0  0  0  0  0  0  0  0  0
  192.2810  175.3120  136.2100 C   0  0  0  0  0  2  0  0  0  0  0  0
  194.5050  171.8820  134.6720 O   0  0  0  0  0  1  0  0  0  0  0  0
  195.0850  173.2560  137.2560 C   0  0  0  0  0  2  0  0  0  0  0  0
  193.3260  174.2010  136.1640 C   0  0  1  0  0  3  0  0  0  0  0  0
  193.9980  174.1370  137.4000 O   0  0  0  0  0  0  0  0  0  0  0  0
  195.6600  170.9600  136.9490 O   0  0  0  0  0  1  0  0  0  0  0  0
  193.7060  171.7550  135.8170 C   0  0  2  0  0  3  0  0  0  0  0  0
  192.6460  172.8580  135.8490 C   0  0  2  0  0  3  0  0  0  0  0  0
  194.5760  171.8250  137.0770 C   0  0  2  0  0  3  0  0  0  0  0  0
  191.9730  172.9220  134.6220 O   0  0  0  0  0  0  0  0  0  0  0  0
  190.7870  172.2130  134.8260 C   0  0  0  0  0  2  0  0  0  0  0  0
  189.5940  173.1560  134.8220 C   0  0  0  0  0  2  0  0  0  0  0  0
  188.1200  172.6000  136.9550 C   0  0  0  0  0  1  0  0  0  0  0  0
  188.3470  172.5390  135.4510 C   0  0  1  0  0  0  0  0  0  0  0  0
  187.1460  172.4210  134.5940 C   0  0  0  0  0  2  0  0  0  0  0  0
  187.9630  171.3080  134.8910 O   0  0  0  0  0  0  0  0  0  0  0  0
  185.2140  178.2380  139.7080 C   0  0  1  0  0  3  0  0  0  0  0  0
  183.3320  176.7840  139.6820 O   0  0  0  0  0  0  0  0  0  0  0  0
  183.9190  177.7600  139.1390 C   0  0  0  0  0  0  0  0  0  0  0  0
  183.3340  178.4300  138.0140 N   0  0  0  0  0  2  0  0  0  0  0  0
  181.6150  176.8650  137.8120 O   0  0  0  0  0  1  0  0  0  0  0  0
  181.9700  178.1930  137.5430 C   0  0  1  0  0  0  0  0  0  0  0  0
  179.0960  178.7320  141.3130 C   0  0  0  0  0  1  0  0  0  0  0  0
  181.6060  180.5570  138.4130 C   0  0  0  0  0  2  0  0  0  0  0  0
  179.6100  179.3870  140.0420 C   0  0  2  0  0  3  0  0  0  0  0  0
  180.6950  178.6380  139.5520 O   0  0  0  0  0  0  0  0  0  0  0  0
  180.0620  180.8100  140.3660 C   0  0  0  0  0  2  0  0  0  0  0  0
  180.5830  181.4640  139.0930 C   0  0  0  0  0  2  0  0  0  0  0  0
  181.0120  179.1460  138.2740 C   0  0  2  0  0  3  0  0  0  0  0  0
  180.8690  178.5740  135.5570 O   0  0  0  0  0  0  0  0  0  0  0  0
  181.9140  178.4380  136.1170 N   0  0  0  0  0  0  0  0  0  0  0  0
  186.0150  178.9100  138.6880 N   0  0  0  0  0  2  0  0  0  0  0  0
  188.1320  178.7370  137.4870 C   0  0  0  0  0  3  0  0  0  0  0  0
  188.9790  178.0500  136.6160 C   0  0  0  0  0  3  0  0  0  0  0  0
  186.8600  178.2170  137.7610 C   0  0  0  0  0  0  0  0  0  0  0  0
  186.4700  177.0080  137.1800 C   0  0  0  0  0  3  0  0  0  0  0  0
  187.3480  176.3510  136.3170 C   0  0  0  0  0  3  0  0  0  0  0  0
  188.5710  176.8820  136.0570 N   0  0  0  0  0  0  0  0  0  0  0  0
  1  9  1  0  0  0  0
  2  1  1  0  0  0  0
  2  3  2  0  0  0  0
  3  8  1  0  0  0  0
  4  2  1  0  0  0  0
  5  7  2  0  0  0  0
  7  6  1  0  0  0  0
  8  7  1  0  0  0  0
  9 10  1  0  0  0  0
 11 10  1  0  0  0  0
 12 13  1  0  0  0  0
 13 14  1  0  0  0  0
 13 11  1  0  0  0  0
 16 13  1  0  0  0  0
 16 15  1  6  0  0  0
 17 18  1  0  0  0  0
 17 16  1  0  0  0  0
 19 18  1  0  0  0  0
 20 19  1  0  0  0  0
 21 22  2  0  0  0  0
 21 20  1  0  0  0  0
 23 21  1  0  0  0  0
 25 27  1  0  0  0  0
 26 23  1  1  0  0  0
 26 27  1  0  0  0  0
 29 24  1  6  0  0  0
 29 30  1  0  0  0  0
 29 31  1  0  0  0  0
 30 32  1  6  0  0  0
 30 26  1  0  0  0  0
 31 28  1  6  0  0  0
 31 25  1  0  0  0  0
 32 33  1  0  0  0  0
 34 33  1  0  0  0  0
 34 36  1  0  0  0  0
 36 35  1  1  0  0  0
 37 38  1  0  0  0  0
 37 36  1  0  0  0  0
 38 36  1  0  0  0  0
 39 54  1  6  0  0  0
 39  4  1  0  0  0  0
 41 40  2  0  0  0  0
 41 39  1  0  0  0  0
 42 41  1  0  0  0  0
 44 43  1  1  0  0  0
 44 42  1  0  0  0  0
 46 50  1  0  0  0  0
 47 49  1  0  0  0  0
 47 45  1  1  0  0  0
 48 47  1  0  0  0  0
 50 49  1  0  0  0  0
 51 44  1  1  0  0  0
 51 46  1  0  0  0  0
 51 48  1  0  0  0  0
 52 53  2  0  0  0  0
 53 44  1  0  0  0  0
 55 57  1  0  0  0  0
 56 55  2  0  0  0  0
 57 54  1  0  0  0  0
 58 57  2  0  0  0  0
 59 58  1  0  0  0  0
 60 59  2  0  0  0  0
 60 56  1  0  0  0  0
M  END
>  <MODEL>
4

>  <REMARK>
 VINA RESULT:      -5.6      3.020     10.993
  Name = 
  24 active torsions:
  status: ('A' for Active; 'I' for Inactive)
    1  A    between atoms: O_3  and  C_5
    2  A    between atoms: O_3  and  C_51
    3  A    between atoms: C_5  and  C_55
    4  A    between atoms: N_7  and  C_12
    5  A    between atoms: C_10  and  C_34
    6  A    between atoms: C_10  and  C_50
    7  A    between atoms: C_11  and  C_55
    8  A    between atoms: C_12  and  C_50
    9  A    between atoms: C_15  and  O_45
   10  A    between atoms: C_15  and  C_51
   11  A    between atoms: C_16  and  C_31
   12  A    between atoms: N_17  and  C_27
   13  A    between atoms: C_19  and  C_36
   14  A    between atoms: N_22  and  C_27
   15  A    between atoms: C_26  and  C_34
   16  A    between atoms: C_26  and  O_45
   17  A    between atoms: C_27  and  C_52
   18  A    between atoms: C_31  and  C_38
   19  A    between atoms: C_33  and  N_56
   20  A    between atoms: N_35  and  N_59
   21  A    between atoms: C_36  and  N_56
   22  A    between atoms: C_36  and  N_58
   23  A    between atoms: C_38  and  O_48
   24  A    between atoms: O_48  and  C_49
                            x       y       z     vdW  Elec       q    Type
                         _______ _______ _______ _____ _____    ______ ____

>  <TORSDO>
F 24

$$$$
=
 OpenBabel11042412253D

 60 63  0  0  1  0  0  0  0  0999 V2000
  188.4350  176.5400  135.2960 N   0  0  0  0  0  2  0  0  0  0  0  0
  188.7940  175.1890  134.9320 C   0  0  0  0  0  0  0  0  0  0  0  0
  190.0280  174.7770  134.8510 N   0  0  0  0  0  0  0  0  0  0  0  0
  187.7620  174.2620  134.6020 N   0  0  0  0  0  2  0  0  0  0  0  0
  192.6580  173.8730  134.6670 O   0  0  0  0  0  0  0  0  0  0  0  0
  193.5480  175.8740  135.3170 O   0  0  0  0  0  1  0  0  0  0  0  0
  192.4640  175.0580  135.0380 C   0  0  0  0  0  0  0  0  0  0  0  0
  191.1390  175.5700  135.1620 N   0  0  0  0  0  2  0  0  0  0  0  0
  189.3680  177.5940  135.6460 C   0  0  0  0  0  2  0  0  0  0  0  0
  188.6940  178.6450  136.4890 C   0  0  0  0  0  2  0  0  0  0  0  0
  188.2850  178.0610  137.8320 C   0  0  0  0  0  2  0  0  0  0  0  0
  189.2210  175.9470  138.4310 F   0  0  0  0  0  0  0  0  0  0  0  0
  189.4440  177.3100  138.4870 C   0  0  0  0  0  0  0  0  0  0  0  0
  190.6120  177.6050  137.8100 F   0  0  0  0  0  0  0  0  0  0  0  0
  188.2350  178.0660  140.5710 C   0  0  0  0  0  1  0  0  0  0  0  0
  189.5930  177.7380  139.9500 C   0  0  1  0  0  3  0  0  0  0  0  0
  190.2380  176.7400  140.6990 O   0  0  0  0  0  0  0  0  0  0  0  0
  191.3270  177.3760  141.3100 C   0  0  0  0  0  2  0  0  0  0  0  0
  191.4820  176.8250  142.7190 C   0  0  0  0  0  2  0  0  0  0  0  0
  190.2440  176.3110  143.1970 O   0  0  0  0  0  0  0  0  0  0  0  0
  189.2600  177.1500  143.7100 C   0  0  0  0  0  0  0  0  0  0  0  0
  189.5420  178.3150  144.1230 O   0  0  0  0  0  0  0  0  0  0  0  0
  187.8620  176.6380  143.8020 C   0  0  0  0  0  2  0  0  0  0  0  0
  184.5010  178.0940  146.1820 O   0  0  0  0  0  1  0  0  0  0  0  0
  187.3370  178.0440  147.1090 C   0  0  0  0  0  2  0  0  0  0  0  0
  187.1160  177.2350  144.9920 C   0  0  1  0  0  3  0  0  0  0  0  0
  188.0460  177.6950  145.9450 O   0  0  0  0  0  0  0  0  0  0  0  0
  185.7970  179.6300  148.0090 O   0  0  0  0  0  1  0  0  0  0  0  0
  185.4850  178.9820  145.7250 C   0  0  2  0  0  3  0  0  0  0  0  0
  186.2150  178.3880  144.5180 C   0  0  2  0  0  3  0  0  0  0  0  0
  186.4830  179.2860  146.8470 C   0  0  2  0  0  3  0  0  0  0  0  0
  185.2930  177.9330  143.5670 O   0  0  0  0  0  0  0  0  0  0  0  0
  184.6910  179.0920  143.0690 C   0  0  0  0  0  2  0  0  0  0  0  0
  183.3180  178.7760  142.4960 C   0  0  0  0  0  2  0  0  0  0  0  0
  184.5920  178.9220  140.1740 C   0  0  0  0  0  1  0  0  0  0  0  0
  183.3210  178.6680  140.9720 C   0  0  1  0  0  0  0  0  0  0  0  0
  182.3040  177.7850  140.3570 C   0  0  0  0  0  2  0  0  0  0  0  0
  182.1740  179.1920  140.3520 O   0  0  0  0  0  0  0  0  0  0  0  0
  186.3420  174.5780  134.6800 C   0  0  1  0  0  3  0  0  0  0  0  0
  186.2500  173.5770  136.8360 O   0  0  0  0  0  0  0  0  0  0  0  0
  185.7060  173.6970  135.7040 C   0  0  0  0  0  0  0  0  0  0  0  0
  184.4700  173.0290  135.4130 N   0  0  0  0  0  2  0  0  0  0  0  0
  184.2230  172.5490  137.6830 O   0  0  0  0  0  1  0  0  0  0  0  0
  183.6550  172.3490  136.4180 C   0  0  1  0  0  0  0  0  0  0  0  0
  180.3810  174.8230  138.8510 C   0  0  0  0  0  1  0  0  0  0  0  0
  181.9440  173.6690  135.0750 C   0  0  0  0  0  2  0  0  0  0  0  0
  180.6590  174.0660  137.5630 C   0  0  2  0  0  3  0  0  0  0  0  0
  182.0380  173.8050  137.4790 O   0  0  0  0  0  0  0  0  0  0  0  0
  180.2160  174.9240  136.3800 C   0  0  0  0  0  2  0  0  0  0  0  0
  180.5000  174.1660  135.0890 C   0  0  0  0  0  2  0  0  0  0  0  0
  182.2320  172.9280  136.3900 C   0  0  2  0  0  3  0  0  0  0  0  0
  182.6000  170.4040  135.7830 O   0  0  0  0  0  0  0  0  0  0  0  0
  183.6160  170.9340  136.1160 N   0  0  0  0  0  0  0  0  0  0  0  0
  186.1650  175.9870  135.0220 N   0  0  0  0  0  2  0  0  0  0  0  0
  183.9550  176.9260  134.5940 C   0  0  0  0  0  3  0  0  0  0  0  0
  182.7370  177.4240  135.0610 C   0  0  0  0  0  3  0  0  0  0  0  0
  184.9360  176.5340  135.5140 C   0  0  0  0  0  0  0  0  0  0  0  0
  184.6710  176.6220  136.8820 C   0  0  0  0  0  3  0  0  0  0  0  0
  183.4410  177.1220  137.3090 C   0  0  0  0  0  3  0  0  0  0  0  0
  182.5100  177.5090  136.3960 N   0  0  0  0  0  0  0  0  0  0  0  0
  1  9  1  0  0  0  0
  2  1  1  0  0  0  0
  3  2  2  0  0  0  0
  3  8  1  0  0  0  0
  4  2  1  0  0  0  0
  5  7  2  0  0  0  0
  7  8  1  0  0  0  0
  7  6  1  0  0  0  0
  9 10  1  0  0  0  0
 10 11  1  0  0  0  0
 11 13  1  0  0  0  0
 12 13  1  0  0  0  0
 13 16  1  0  0  0  0
 14 13  1  0  0  0  0
 16 15  1  1  0  0  0
 16 17  1  0  0  0  0
 17 18  1  0  0  0  0
 18 19  1  0  0  0  0
 19 20  1  0  0  0  0
 20 21  1  0  0  0  0
 21 23  1  0  0  0  0
 21 22  2  0  0  0  0
 26 23  1  6  0  0  0
 26 27  1  0  0  0  0
 27 25  1  0  0  0  0
 29 24  1  1  0  0  0
 29 31  1  0  0  0  0
 30 32  1  6  0  0  0
 30 26  1  0  0  0  0
 30 29  1  0  0  0  0
 31 25  1  0  0  0  0
 31 28  1  1  0  0  0
 33 32  1  0  0  0  0
 34 33  1  0  0  0  0
 36 35  1  6  0  0  0
 36 34  1  0  0  0  0
 37 36  1  0  0  0  0
 38 37  1  0  0  0  0
 38 36  1  0  0  0  0
 39  4  1  1  0  0  0
 39 54  1  0  0  0  0
 39 41  1  0  0  0  0
 41 40  2  0  0  0  0
 42 41  1  0  0  0  0
 42 44  1  0  0  0  0
 44 43  1  1  0  0  0
 46 50  1  0  0  0  0
 46 51  1  0  0  0  0
 47 45  1  1  0  0  0
 48 47  1  0  0  0  0
 49 47  1  0  0  0  0
 50 49  1  0  0  0  0
 51 44  1  6  0  0  0
 51 48  1  0  0  0  0
 52 53  2  0  0  0  0
 53 44  1  0  0  0  0
 54 57  1  0  0  0  0
 55 56  2  0  0  0  0
 55 57  1  0  0  0  0
 56 60  1  0  0  0  0
 57 58  2  0  0  0  0
 58 59  1  0  0  0  0
 60 59  2  0  0  0  0
M  END
>  <MODEL>
5

>  <REMARK>
 VINA RESULT:      -5.1      3.377      8.164
  Name = 
  24 active torsions:
  status: ('A' for Active; 'I' for Inactive)
    1  A    between atoms: O_3  and  C_5
    2  A    between atoms: O_3  and  C_51
    3  A    between atoms: C_5  and  C_55
    4  A    between atoms: N_7  and  C_12
    5  A    between atoms: C_10  and  C_34
    6  A    between atoms: C_10  and  C_50
    7  A    between atoms: C_11  and  C_55
    8  A    between atoms: C_12  and  C_50
    9  A    between atoms: C_15  and  O_45
   10  A    between atoms: C_15  and  C_51
   11  A    between atoms: C_16  and  C_31
   12  A    between atoms: N_17  and  C_27
   13  A    between atoms: C_19  and  C_36
   14  A    between atoms: N_22  and  C_27
   15  A    between atoms: C_26  and  C_34
   16  A    between atoms: C_26  and  O_45
   17  A    between atoms: C_27  and  C_52
   18  A    between atoms: C_31  and  C_38
   19  A    between atoms: C_33  and  N_56
   20  A    between atoms: N_35  and  N_59
   21  A    between atoms: C_36  and  N_56
   22  A    between atoms: C_36  and  N_58
   23  A    between atoms: C_38  and  O_48
   24  A    between atoms: O_48  and  C_49
                            x       y       z     vdW  Elec       q    Type
                         _______ _______ _______ _____ _____    ______ ____

>  <TORSDO>
F 24

$$$$
=
 OpenBabel11042412253D

 60 63  0  0  1  0  0  0  0  0999 V2000
  187.3420  176.9980  144.3130 N   0  0  0  0  0  2  0  0  0  0  0  0
  188.6830  177.5280  144.2360 C   0  0  0  0  0  0  0  0  0  0  0  0
  189.2730  178.1220  145.2350 N   0  0  0  0  0  0  0  0  0  0  0  0
  189.3940  177.4430  143.0020 N   0  0  0  0  0  2  0  0  0  0  0  0
  190.4970  177.2140  147.5680 O   0  0  0  0  0  0  0  0  0  0  0  0
  188.8180  177.9720  148.9190 O   0  0  0  0  0  1  0  0  0  0  0  0
  189.3830  177.7890  147.6680 C   0  0  0  0  0  0  0  0  0  0  0  0
  188.7060  178.2620  146.5070 N   0  0  0  0  0  2  0  0  0  0  0  0
  186.4940  177.0200  145.4890 C   0  0  0  0  0  2  0  0  0  0  0  0
  185.5610  178.2020  145.4530 C   0  0  0  0  0  2  0  0  0  0  0  0
  184.9610  178.3570  144.0640 C   0  0  0  0  0  2  0  0  0  0  0  0
  182.8830  179.0100  145.0430 F   0  0  0  0  0  0  0  0  0  0  0  0
  183.8020  179.3530  144.0680 C   0  0  0  0  0  0  0  0  0  0  0  0
  184.2930  180.6160  144.3350 F   0  0  0  0  0  0  0  0  0  0  0  0
  183.3730  178.0680  141.9370 C   0  0  0  0  0  1  0  0  0  0  0  0
  183.1090  179.3650  142.7020 C   0  0  1  0  0  3  0  0  0  0  0  0
  181.7260  179.5680  142.8450 O   0  0  0  0  0  0  0  0  0  0  0  0
  181.1730  178.2900  142.9850 C   0  0  0  0  0  2  0  0  0  0  0  0
  179.8070  178.2760  142.3170 C   0  0  0  0  0  2  0  0  0  0  0  0
  179.9040  178.7060  140.9650 O   0  0  0  0  0  0  0  0  0  0  0  0
  179.9920  177.7940  139.9170 C   0  0  0  0  0  0  0  0  0  0  0  0
  180.9570  176.9760  139.8420 O   0  0  0  0  0  0  0  0  0  0  0  0
  178.9430  177.8200  138.8570 C   0  0  0  0  0  2  0  0  0  0  0  0
  179.1020  179.8430  134.9890 O   0  0  0  0  0  1  0  0  0  0  0  0
  179.8520  181.0990  137.5890 C   0  0  0  0  0  2  0  0  0  0  0  0
  179.1860  178.9370  137.8470 C   0  0  1  0  0  3  0  0  0  0  0  0
  179.8320  180.0140  138.4850 O   0  0  0  0  0  0  0  0  0  0  0  0
  180.8110  181.8770  135.5470 O   0  0  0  0  0  1  0  0  0  0  0  0
  180.2830  179.5460  135.6850 C   0  0  2  0  0  3  0  0  0  0  0  0
  180.0400  178.4100  136.6810 C   0  0  2  0  0  3  0  0  0  0  0  0
  180.7880  180.7920  136.4190 C   0  0  2  0  0  3  0  0  0  0  0  0
  179.4000  177.3360  136.0490 O   0  0  0  0  0  0  0  0  0  0  0  0
  179.9500  176.1940  136.6380 C   0  0  0  0  0  2  0  0  0  0  0  0
  180.7910  175.4260  135.6310 C   0  0  0  0  0  2  0  0  0  0  0  0
  180.8580  173.5930  137.5460 C   0  0  0  0  0  1  0  0  0  0  0  0
  181.2570  174.0700  136.1560 C   0  0  1  0  0  0  0  0  0  0  0  0
  181.5730  173.0290  135.1520 C   0  0  0  0  0  2  0  0  0  0  0  0
  182.5850  173.7460  135.8290 O   0  0  0  0  0  0  0  0  0  0  0  0
  188.8680  176.7800  141.8160 C   0  0  1  0  0  3  0  0  0  0  0  0
  188.4350  179.0310  141.1820 O   0  0  0  0  0  0  0  0  0  0  0  0
  188.4210  177.8170  140.8400 C   0  0  0  0  0  0  0  0  0  0  0  0
  188.0180  177.4370  139.5160 N   0  0  0  0  0  2  0  0  0  0  0  0
  188.7890  179.3770  138.4740 O   0  0  0  0  0  1  0  0  0  0  0  0
  187.7990  178.3860  138.4270 C   0  0  1  0  0  0  0  0  0  0  0  0
  188.1430  174.1150  136.3290 C   0  0  0  0  0  1  0  0  0  0  0  0
  186.8100  178.1410  136.0950 C   0  0  0  0  0  2  0  0  0  0  0  0
  188.0820  175.6140  136.0870 C   0  0  2  0  0  3  0  0  0  0  0  0
  187.7180  176.2530  137.2860 O   0  0  0  0  0  0  0  0  0  0  0  0
  187.0420  175.8990  135.0060 C   0  0  0  0  0  2  0  0  0  0  0  0
  186.9780  177.4030  134.7680 C   0  0  0  0  0  2  0  0  0  0  0  0
  187.8740  177.6410  137.0850 C   0  0  2  0  0  3  0  0  0  0  0  0
  185.6280  178.4350  139.1900 O   0  0  0  0  0  0  0  0  0  0  0  0
  186.4930  178.9890  138.5820 N   0  0  0  0  0  0  0  0  0  0  0  0
  189.8940  175.9200  141.2310 N   0  0  0  0  0  2  0  0  0  0  0  0
  192.0320  177.0740  141.0020 C   0  0  0  0  0  3  0  0  0  0  0  0
  193.0910  177.5190  140.2090 C   0  0  0  0  0  3  0  0  0  0  0  0
  190.9550  176.4080  140.4010 C   0  0  0  0  0  0  0  0  0  0  0  0
  190.9710  176.1780  139.0240 C   0  0  0  0  0  3  0  0  0  0  0  0
  192.0490  176.6350  138.2670 C   0  0  0  0  0  3  0  0  0  0  0  0
  193.0760  177.2910  138.8710 N   0  0  0  0  0  0  0  0  0  0  0  0
  1  9  1  0  0  0  0
  2  1  1  0  0  0  0
  2  3  2  0  0  0  0
  3  8  1  0  0  0  0
  4  2  1  0  0  0  0
  5  7  2  0  0  0  0
  7  6  1  0  0  0  0
  8  7  1  0  0  0  0
 10  9  1  0  0  0  0
 11 13  1  0  0  0  0
 11 10  1  0  0  0  0
 13 14  1  0  0  0  0
 13 12  1  0  0  0  0
 16 15  1  1  0  0  0
 16 17  1  0  0  0  0
 16 13  1  0  0  0  0
 17 18  1  0  0  0  0
 19 18  1  0  0  0  0
 20 19  1  0  0  0  0
 21 20  1  0  0  0  0
 22 21  2  0  0  0  0
 23 21  1  0  0  0  0
 25 27  1  0  0  0  0
 26 27  1  0  0  0  0
 26 23  1  1  0  0  0
 29 24  1  1  0  0  0
 29 31  1  0  0  0  0
 29 30  1  0  0  0  0
 30 32  1  6  0  0  0
 30 26  1  0  0  0  0
 31 28  1  6  0  0  0
 31 25  1  0  0  0  0
 32 33  1  0  0  0  0
 34 36  1  0  0  0  0
 34 33  1  0  0  0  0
 36 35  1  1  0  0  0
 37 38  1  0  0  0  0
 37 36  1  0  0  0  0
 38 36  1  0  0  0  0
 39 41  1  6  0  0  0
 39  4  1  0  0  0  0
 41 40  2  0  0  0  0
 42 41  1  0  0  0  0
 44 43  1  1  0  0  0
 44 53  1  0  0  0  0
 44 42  1  0  0  0  0
 46 51  1  0  0  0  0
 47 45  1  1  0  0  0
 47 48  1  0  0  0  0
 49 47  1  0  0  0  0
 50 49  1  0  0  0  0
 50 46  1  0  0  0  0
 51 48  1  0  0  0  0
 51 44  1  1  0  0  0
 53 52  2  0  0  0  0
 54 39  1  0  0  0  0
 56 55  2  0  0  0  0
 57 55  1  0  0  0  0
 57 54  1  0  0  0  0
 58 57  2  0  0  0  0
 59 60  2  0  0  0  0
 59 58  1  0  0  0  0
 60 56  1  0  0  0  0
M  END
>  <MODEL>
6

>  <REMARK>
 VINA RESULT:      -5.0      3.194      7.785
  Name = 
  24 active torsions:
  status: ('A' for Active; 'I' for Inactive)
    1  A    between atoms: O_3  and  C_5
    2  A    between atoms: O_3  and  C_51
    3  A    between atoms: C_5  and  C_55
    4  A    between atoms: N_7  and  C_12
    5  A    between atoms: C_10  and  C_34
    6  A    between atoms: C_10  and  C_50
    7  A    between atoms: C_11  and  C_55
    8  A    between atoms: C_12  and  C_50
    9  A    between atoms: C_15  and  O_45
   10  A    between atoms: C_15  and  C_51
   11  A    between atoms: C_16  and  C_31
   12  A    between atoms: N_17  and  C_27
   13  A    between atoms: C_19  and  C_36
   14  A    between atoms: N_22  and  C_27
   15  A    between atoms: C_26  and  C_34
   16  A    between atoms: C_26  and  O_45
   17  A    between atoms: C_27  and  C_52
   18  A    between atoms: C_31  and  C_38
   19  A    between atoms: C_33  and  N_56
   20  A    between atoms: N_35  and  N_59
   21  A    between atoms: C_36  and  N_56
   22  A    between atoms: C_36  and  N_58
   23  A    between atoms: C_38  and  O_48
   24  A    between atoms: O_48  and  C_49
                            x       y       z     vdW  Elec       q    Type
                         _______ _______ _______ _____ _____    ______ ____

>  <TORSDO>
F 24

$$$$
=
 OpenBabel11042412253D

 60 63  0  0  1  0  0  0  0  0999 V2000
  188.1960  177.9350  141.9300 N   0  0  0  0  0  2  0  0  0  0  0  0
  188.6740  176.6850  142.4740 C   0  0  0  0  0  0  0  0  0  0  0  0
  189.6790  176.0250  141.9690 N   0  0  0  0  0  0  0  0  0  0  0  0
  187.9990  176.1110  143.5920 N   0  0  0  0  0  2  0  0  0  0  0  0
  192.1100  177.3570  142.2600 O   0  0  0  0  0  1  0  0  0  0  0  0
  192.4460  177.5430  140.0080 O   0  0  0  0  0  0  0  0  0  0  0  0
  191.6890  177.1410  141.0960 C   0  0  0  0  0  0  0  0  0  0  0  0
  190.4450  176.4760  140.8880 N   0  0  0  0  0  2  0  0  0  0  0  0
  188.7700  178.6330  140.7950 C   0  0  0  0  0  2  0  0  0  0  0  0
  188.0690  178.2450  139.5200 C   0  0  0  0  0  2  0  0  0  0  0  0
  188.9640  178.5220  138.3220 C   0  0  0  0  0  2  0  0  0  0  0  0
  190.6470  177.1520  137.3250 F   0  0  0  0  0  0  0  0  0  0  0  0
  189.2870  177.2360  137.5610 C   0  0  0  0  0  0  0  0  0  0  0  0
  188.8920  176.1520  138.3210 F   0  0  0  0  0  0  0  0  0  0  0  0
  189.5000  177.3870  135.0490 C   0  0  0  0  0  1  0  0  0  0  0  0
  188.5390  177.2090  136.2250 C   0  0  1  0  0  3  0  0  0  0  0  0
  187.8170  176.0120  136.0810 O   0  0  0  0  0  0  0  0  0  0  0  0
  186.6190  176.3720  135.4520 C   0  0  0  0  0  2  0  0  0  0  0  0
  185.9960  177.5280  136.2210 C   0  0  0  0  0  2  0  0  0  0  0  0
  184.9610  177.0630  137.0780 O   0  0  0  0  0  0  0  0  0  0  0  0
  184.3820  177.8920  138.0340 C   0  0  0  0  0  0  0  0  0  0  0  0
  184.9990  178.9050  138.4820 O   0  0  0  0  0  0  0  0  0  0  0  0
  183.0280  177.5450  138.5550 C   0  0  0  0  0  2  0  0  0  0  0  0
  179.3290  179.5240  137.3380 O   0  0  0  0  0  1  0  0  0  0  0  0
  181.6500  180.9040  138.6060 C   0  0  0  0  0  2  0  0  0  0  0  0
  182.0290  178.6760  138.3320 C   0  0  1  0  0  3  0  0  0  0  0  0
  182.6450  179.9100  138.6170 O   0  0  0  0  0  0  0  0  0  0  0  0
  180.1590  182.1040  137.1810 O   0  0  0  0  0  1  0  0  0  0  0  0
  180.5330  179.7950  136.6710 C   0  0  2  0  0  3  0  0  0  0  0  0
  181.5240  178.6480  136.8790 C   0  0  2  0  0  3  0  0  0  0  0  0
  181.1330  181.1090  137.1820 C   0  0  2  0  0  3  0  0  0  0  0  0
  180.9140  177.4190  136.5940 O   0  0  0  0  0  0  0  0  0  0  0  0
  181.7120  176.8470  135.5990 C   0  0  0  0  0  2  0  0  0  0  0  0
  181.2260  175.4450  135.2660 C   0  0  0  0  0  2  0  0  0  0  0  0
  180.8780  174.1020  137.5260 C   0  0  0  0  0  1  0  0  0  0  0  0
  181.6930  174.3990  136.2750 C   0  0  1  0  0  0  0  0  0  0  0  0
  182.5680  173.3170  135.7690 C   0  0  0  0  0  2  0  0  0  0  0  0
  183.0780  174.4030  136.5150 O   0  0  0  0  0  0  0  0  0  0  0  0
  186.8830  176.7540  144.2730 C   0  0  1  0  0  3  0  0  0  0  0  0
  186.4380  177.5090  146.4840 O   0  0  0  0  0  0  0  0  0  0  0  0
  187.3080  177.1250  145.6540 C   0  0  0  0  0  0  0  0  0  0  0  0
  188.6840  177.0070  146.0430 N   0  0  0  0  0  2  0  0  0  0  0  0
  188.1690  176.6100  148.2840 O   0  0  0  0  0  1  0  0  0  0  0  0
  189.1530  177.1130  147.4230 C   0  0  1  0  0  0  0  0  0  0  0  0
  192.4300  174.4840  145.1610 C   0  0  0  0  0  1  0  0  0  0  0  0
  191.4960  177.0470  148.4160 C   0  0  0  0  0  2  0  0  0  0  0  0
  191.9800  175.0100  146.5140 C   0  0  2  0  0  3  0  0  0  0  0  0
  190.9850  175.9840  146.3140 O   0  0  0  0  0  0  0  0  0  0  0  0
  193.1810  175.6280  147.2280 C   0  0  0  0  0  2  0  0  0  0  0  0
  192.7270  176.1600  148.5820 C   0  0  0  0  0  2  0  0  0  0  0  0
  190.4460  176.2970  147.5800 C   0  0  2  0  0  3  0  0  0  0  0  0
  188.6870  179.1180  148.4540 O   0  0  0  0  0  0  0  0  0  0  0  0
  189.4100  178.5040  147.7290 N   0  0  0  0  0  0  0  0  0  0  0  0
  186.4570  177.9330  143.5240 N   0  0  0  0  0  2  0  0  0  0  0  0
  184.2890  178.6730  144.3640 C   0  0  0  0  0  3  0  0  0  0  0  0
  182.9600  179.0360  144.1370 C   0  0  0  0  0  3  0  0  0  0  0  0
  185.0840  178.2650  143.2840 C   0  0  0  0  0  0  0  0  0  0  0  0
  184.5430  178.2540  141.9970 C   0  0  0  0  0  3  0  0  0  0  0  0
  183.2120  178.6270  141.8120 C   0  0  0  0  0  3  0  0  0  0  0  0
  182.4570  179.0060  142.8770 N   0  0  0  0  0  0  0  0  0  0  0  0
  1  2  1  0  0  0  0
  2  4  1  0  0  0  0
  3  2  2  0  0  0  0
  4 39  1  0  0  0  0
  6  7  2  0  0  0  0
  7  5  1  0  0  0  0
  8  7  1  0  0  0  0
  8  3  1  0  0  0  0
  9  1  1  0  0  0  0
 10  9  1  0  0  0  0
 11 10  1  0  0  0  0
 12 13  1  0  0  0  0
 13 14  1  0  0  0  0
 13 11  1  0  0  0  0
 16 15  1  6  0  0  0
 16 13  1  0  0  0  0
 17 16  1  0  0  0  0
 18 17  1  0  0  0  0
 18 19  1  0  0  0  0
 19 20  1  0  0  0  0
 20 21  1  0  0  0  0
 21 22  2  0  0  0  0
 21 23  1  0  0  0  0
 25 27  1  0  0  0  0
 26 23  1  6  0  0  0
 26 27  1  0  0  0  0
 29 30  1  0  0  0  0
 29 31  1  0  0  0  0
 29 24  1  1  0  0  0
 30 32  1  1  0  0  0
 30 26  1  0  0  0  0
 31 28  1  1  0  0  0
 31 25  1  0  0  0  0
 33 32  1  0  0  0  0
 34 33  1  0  0  0  0
 34 36  1  0  0  0  0
 36 38  1  0  0  0  0
 36 35  1  1  0  0  0
 37 36  1  0  0  0  0
 37 38  1  0  0  0  0
 39 54  1  6  0  0  0
 39 41  1  0  0  0  0
 41 42  1  0  0  0  0
 41 40  2  0  0  0  0
 42 44  1  0  0  0  0
 44 53  1  0  0  0  0
 44 43  1  1  0  0  0
 46 50  1  0  0  0  0
 47 45  1  6  0  0  0
 47 49  1  0  0  0  0
 48 47  1  0  0  0  0
 48 51  1  0  0  0  0
 49 50  1  0  0  0  0
 51 44  1  6  0  0  0
 51 46  1  0  0  0  0
 53 52  2  0  0  0  0
 56 55  1  0  0  0  0
 57 54  1  0  0  0  0
 57 55  2  0  0  0  0
 58 57  1  0  0  0  0
 59 58  2  0  0  0  0
 59 60  1  0  0  0  0
 60 56  2  0  0  0  0
M  END
>  <MODEL>
7

>  <REMARK>
 VINA RESULT:      -4.9      2.747      5.517
  Name = 
  24 active torsions:
  status: ('A' for Active; 'I' for Inactive)
    1  A    between atoms: O_3  and  C_5
    2  A    between atoms: O_3  and  C_51
    3  A    between atoms: C_5  and  C_55
    4  A    between atoms: N_7  and  C_12
    5  A    between atoms: C_10  and  C_34
    6  A    between atoms: C_10  and  C_50
    7  A    between atoms: C_11  and  C_55
    8  A    between atoms: C_12  and  C_50
    9  A    between atoms: C_15  and  O_45
   10  A    between atoms: C_15  and  C_51
   11  A    between atoms: C_16  and  C_31
   12  A    between atoms: N_17  and  C_27
   13  A    between atoms: C_19  and  C_36
   14  A    between atoms: N_22  and  C_27
   15  A    between atoms: C_26  and  C_34
   16  A    between atoms: C_26  and  O_45
   17  A    between atoms: C_27  and  C_52
   18  A    between atoms: C_31  and  C_38
   19  A    between atoms: C_33  and  N_56
   20  A    between atoms: N_35  and  N_59
   21  A    between atoms: C_36  and  N_56
   22  A    between atoms: C_36  and  N_58
   23  A    between atoms: C_38  and  O_48
   24  A    between atoms: O_48  and  C_49
                            x       y       z     vdW  Elec       q    Type
                         _______ _______ _______ _____ _____    ______ ____

>  <TORSDO>
F 24

$$$$
=
 OpenBabel11042412253D

 60 63  0  0  1  0  0  0  0  0999 V2000
  188.3680  176.4250  134.7980 N   0  0  0  0  0  2  0  0  0  0  0  0
  188.5890  175.0020  134.6930 C   0  0  0  0  0  0  0  0  0  0  0  0
  189.7770  174.4660  134.6450 N   0  0  0  0  0  0  0  0  0  0  0  0
  187.4640  174.1300  134.5940 N   0  0  0  0  0  2  0  0  0  0  0  0
  191.8000  173.8450  136.4570 O   0  0  0  0  0  1  0  0  0  0  0  0
  193.1600  175.5370  135.7460 O   0  0  0  0  0  0  0  0  0  0  0  0
  191.9740  174.8230  135.6870 C   0  0  0  0  0  0  0  0  0  0  0  0
  190.9670  175.1940  134.7490 N   0  0  0  0  0  2  0  0  0  0  0  0
  189.4070  177.4330  134.8960 C   0  0  0  0  0  2  0  0  0  0  0  0
  189.3350  178.1460  136.2210 C   0  0  0  0  0  2  0  0  0  0  0  0
  188.9660  177.1680  137.3260 C   0  0  0  0  0  2  0  0  0  0  0  0
  190.2300  175.4180  138.3470 F   0  0  0  0  0  0  0  0  0  0  0  0
  190.1870  176.7880  138.1620 C   0  0  0  0  0  0  0  0  0  0  0  0
  191.3310  177.1900  137.4990 F   0  0  0  0  0  0  0  0  0  0  0  0
  188.7660  178.1260  139.7640 C   0  0  0  0  0  1  0  0  0  0  0  0
  190.1320  177.4810  139.5270 C   0  0  1  0  0  3  0  0  0  0  0  0
  190.4230  176.5750  140.5590 O   0  0  0  0  0  0  0  0  0  0  0  0
  191.1770  177.3000  141.4910 C   0  0  0  0  0  2  0  0  0  0  0  0
  190.5610  177.1070  142.8690 C   0  0  0  0  0  2  0  0  0  0  0  0
  189.3670  176.3390  142.7820 O   0  0  0  0  0  0  0  0  0  0  0  0
  188.1600  176.8150  143.2840 C   0  0  0  0  0  0  0  0  0  0  0  0
  187.2190  176.0210  143.5880 O   0  0  0  0  0  0  0  0  0  0  0  0
  187.9750  178.2880  143.4260 C   0  0  0  0  0  2  0  0  0  0  0  0
  184.1150  180.2670  143.9380 O   0  0  0  0  0  1  0  0  0  0  0  0
  184.8480  178.5620  141.6020 C   0  0  0  0  0  2  0  0  0  0  0  0
  186.5440  178.7130  143.1130 C   0  0  1  0  0  3  0  0  0  0  0  0
  186.0790  178.0020  141.9890 O   0  0  0  0  0  0  0  0  0  0  0  0
  182.5650  178.8040  142.2550 O   0  0  0  0  0  1  0  0  0  0  0  0
  184.2100  178.8690  143.9940 C   0  0  2  0  0  3  0  0  0  0  0  0
  185.6420  178.4480  144.3300 C   0  0  2  0  0  3  0  0  0  0  0  0
  183.7820  178.2580  142.6560 C   0  0  2  0  0  3  0  0  0  0  0  0
  186.1060  179.1510  145.4490 O   0  0  0  0  0  0  0  0  0  0  0  0
  185.9020  178.2850  146.5270 C   0  0  0  0  0  2  0  0  0  0  0  0
  186.9060  177.1440  146.4920 C   0  0  0  0  0  2  0  0  0  0  0  0
  187.9980  178.2130  148.6590 C   0  0  0  0  0  1  0  0  0  0  0  0
  188.1210  177.3930  147.3820 C   0  0  1  0  0  0  0  0  0  0  0  0
  189.2170  176.4000  147.3230 C   0  0  0  0  0  2  0  0  0  0  0  0
  189.3110  177.6540  146.6800 O   0  0  0  0  0  0  0  0  0  0  0  0
  186.0830  174.5890  134.6650 C   0  0  1  0  0  3  0  0  0  0  0  0
  186.0480  173.3150  136.6730 O   0  0  0  0  0  0  0  0  0  0  0  0
  185.3750  173.8300  135.7370 C   0  0  0  0  0  0  0  0  0  0  0  0
  183.9450  173.7220  135.7220 N   0  0  0  0  0  2  0  0  0  0  0  0
  183.6800  173.7120  138.0400 O   0  0  0  0  0  1  0  0  0  0  0  0
  183.1540  173.2140  136.8410 C   0  0  1  0  0  0  0  0  0  0  0  0
  179.5300  175.5400  138.8970 C   0  0  0  0  0  1  0  0  0  0  0  0
  181.4540  174.3280  135.3090 C   0  0  0  0  0  2  0  0  0  0  0  0
  179.9590  174.7440  137.6750 C   0  0  2  0  0  3  0  0  0  0  0  0
  181.3560  174.5880  137.7030 O   0  0  0  0  0  0  0  0  0  0  0  0
  179.5430  175.5060  136.4180 C   0  0  0  0  0  2  0  0  0  0  0  0
  179.9800  174.7100  135.1930 C   0  0  0  0  0  2  0  0  0  0  0  0
  181.6970  173.6780  136.6800 C   0  0  2  0  0  3  0  0  0  0  0  0
  184.1820  171.1910  136.4550 O   0  0  0  0  0  0  0  0  0  0  0  0
  183.2120  171.7680  136.8420 N   0  0  0  0  0  0  0  0  0  0  0  0
  186.0500  176.0250  134.9330 N   0  0  0  0  0  2  0  0  0  0  0  0
  183.8940  177.1030  135.3040 C   0  0  0  0  0  3  0  0  0  0  0  0
  182.9540  177.6710  136.1650 C   0  0  0  0  0  3  0  0  0  0  0  0
  185.1110  176.6420  135.8220 C   0  0  0  0  0  0  0  0  0  0  0  0
  185.3540  176.7350  137.1940 C   0  0  0  0  0  3  0  0  0  0  0  0
  184.3880  177.3060  138.0220 C   0  0  0  0  0  3  0  0  0  0  0  0
  183.2200  177.7580  137.4940 N   0  0  0  0  0  0  0  0  0  0  0  0
  1  9  1  0  0  0  0
  2  1  1  0  0  0  0
  3  2  2  0  0  0  0
  3  8  1  0  0  0  0
  4  2  1  0  0  0  0
  7  6  2  0  0  0  0
  7  5  1  0  0  0  0
  8  7  1  0  0  0  0
  9 10  1  0  0  0  0
 10 11  1  0  0  0  0
 11 13  1  0  0  0  0
 13 12  1  0  0  0  0
 13 16  1  0  0  0  0
 14 13  1  0  0  0  0
 16 15  1  1  0  0  0
 16 17  1  0  0  0  0
 17 18  1  0  0  0  0
 18 19  1  0  0  0  0
 20 19  1  0  0  0  0
 20 21  1  0  0  0  0
 21 23  1  0  0  0  0
 21 22  2  0  0  0  0
 25 27  1  0  0  0  0
 25 31  1  0  0  0  0
 26 23  1  1  0  0  0
 26 30  1  0  0  0  0
 27 26  1  0  0  0  0
 29 24  1  6  0  0  0
 29 30  1  0  0  0  0
 30 32  1  1  0  0  0
 31 28  1  6  0  0  0
 31 29  1  0  0  0  0
 32 33  1  0  0  0  0
 34 33  1  0  0  0  0
 34 36  1  0  0  0  0
 36 35  1  1  0  0  0
 37 36  1  0  0  0  0
 38 37  1  0  0  0  0
 38 36  1  0  0  0  0
 39  4  1  1  0  0  0
 39 54  1  0  0  0  0
 39 41  1  0  0  0  0
 41 40  2  0  0  0  0
 42 41  1  0  0  0  0
 42 44  1  0  0  0  0
 44 53  1  0  0  0  0
 44 43  1  1  0  0  0
 46 51  1  0  0  0  0
 47 48  1  0  0  0  0
 47 45  1  1  0  0  0
 49 47  1  0  0  0  0
 50 46  1  0  0  0  0
 50 49  1  0  0  0  0
 51 44  1  1  0  0  0
 51 48  1  0  0  0  0
 52 53  2  0  0  0  0
 54 57  1  0  0  0  0
 55 57  2  0  0  0  0
 55 56  1  0  0  0  0
 56 60  2  0  0  0  0
 57 58  1  0  0  0  0
 58 59  2  0  0  0  0
 60 59  1  0  0  0  0
M  END
>  <MODEL>
8

>  <REMARK>
 VINA RESULT:      -4.8      3.643      8.598
  Name = 
  24 active torsions:
  status: ('A' for Active; 'I' for Inactive)
    1  A    between atoms: O_3  and  C_5
    2  A    between atoms: O_3  and  C_51
    3  A    between atoms: C_5  and  C_55
    4  A    between atoms: N_7  and  C_12
    5  A    between atoms: C_10  and  C_34
    6  A    between atoms: C_10  and  C_50
    7  A    between atoms: C_11  and  C_55
    8  A    between atoms: C_12  and  C_50
    9  A    between atoms: C_15  and  O_45
   10  A    between atoms: C_15  and  C_51
   11  A    between atoms: C_16  and  C_31
   12  A    between atoms: N_17  and  C_27
   13  A    between atoms: C_19  and  C_36
   14  A    between atoms: N_22  and  C_27
   15  A    between atoms: C_26  and  C_34
   16  A    between atoms: C_26  and  O_45
   17  A    between atoms: C_27  and  C_52
   18  A    between atoms: C_31  and  C_38
   19  A    between atoms: C_33  and  N_56
   20  A    between atoms: N_35  and  N_59
   21  A    between atoms: C_36  and  N_56
   22  A    between atoms: C_36  and  N_58
   23  A    between atoms: C_38  and  O_48
   24  A    between atoms: O_48  and  C_49
                            x       y       z     vdW  Elec       q    Type
                         _______ _______ _______ _____ _____    ______ ____

>  <TORSDO>
F 24

$$$$
=
 OpenBabel11042412253D

 60 63  0  0  1  0  0  0  0  0999 V2000
  184.8290  178.3150  142.0730 N   0  0  0  0  0  2  0  0  0  0  0  0
  183.5490  178.8240  142.5100 C   0  0  0  0  0  0  0  0  0  0  0  0
  183.3890  179.5000  143.6120 N   0  0  0  0  0  0  0  0  0  0  0  0
  182.3890  178.5440  141.7290 N   0  0  0  0  0  2  0  0  0  0  0  0
  183.6100  178.6000  146.2400 O   0  0  0  0  0  0  0  0  0  0  0  0
  185.5740  179.7070  146.6110 O   0  0  0  0  0  1  0  0  0  0  0  0
  184.5070  179.3620  145.7980 C   0  0  0  0  0  0  0  0  0  0  0  0
  184.4380  179.8640  144.4650 N   0  0  0  0  0  2  0  0  0  0  0  0
  186.0900  178.5080  142.7630 C   0  0  0  0  0  2  0  0  0  0  0  0
  186.5050  177.2490  143.4780 C   0  0  0  0  0  2  0  0  0  0  0  0
  186.6680  177.5170  144.9660 C   0  0  0  0  0  2  0  0  0  0  0  0
  187.8150  176.0780  146.4870 F   0  0  0  0  0  0  0  0  0  0  0  0
  188.0120  177.0030  145.4790 C   0  0  0  0  0  0  0  0  0  0  0  0
  188.6920  176.4000  144.4380 F   0  0  0  0  0  0  0  0  0  0  0  0
  188.7930  178.2300  147.5440 C   0  0  0  0  0  1  0  0  0  0  0  0
  188.8530  178.1660  146.0170 C   0  0  1  0  0  3  0  0  0  0  0  0
  190.1870  178.0570  145.5900 O   0  0  0  0  0  0  0  0  0  0  0  0
  190.2350  178.7010  144.3480 C   0  0  0  0  0  2  0  0  0  0  0  0
  191.6920  178.9300  143.9760 C   0  0  0  0  0  2  0  0  0  0  0  0
  191.9400  178.5240  142.6360 O   0  0  0  0  0  0  0  0  0  0  0  0
  191.6590  177.2310  142.2060 C   0  0  0  0  0  0  0  0  0  0  0  0
  191.4340  176.2990  143.0360 O   0  0  0  0  0  0  0  0  0  0  0  0
  191.6650  176.9480  140.7410 C   0  0  0  0  0  2  0  0  0  0  0  0
  188.4210  176.5100  137.8490 O   0  0  0  0  0  1  0  0  0  0  0  0
  188.1980  177.9840  140.4340 C   0  0  0  0  0  2  0  0  0  0  0  0
  190.2770  177.1070  140.1280 C   0  0  1  0  0  3  0  0  0  0  0  0
  189.5260  178.0180  140.8970 O   0  0  0  0  0  0  0  0  0  0  0  0
  186.7990  178.5580  138.5880 O   0  0  0  0  0  1  0  0  0  0  0  0
  189.0010  177.7650  138.0820 C   0  0  2  0  0  3  0  0  0  0  0  0
  190.4010  177.6000  138.6770 C   0  0  2  0  0  3  0  0  0  0  0  0
  188.1190  178.5850  139.0300 C   0  0  2  0  0  3  0  0  0  0  0  0
  191.1510  176.6970  137.9120 O   0  0  0  0  0  0  0  0  0  0  0  0
  192.4600  176.8280  138.3850 C   0  0  0  0  0  2  0  0  0  0  0  0
  193.4070  175.9470  137.5870 C   0  0  0  0  0  2  0  0  0  0  0  0
  191.6240  174.0270  137.1780 C   0  0  0  0  0  1  0  0  0  0  0  0
  192.6780  174.9890  136.6480 C   0  0  1  0  0  0  0  0  0  0  0  0
  192.5710  175.3880  135.2260 C   0  0  0  0  0  2  0  0  0  0  0  0
  193.4950  174.4110  135.6600 O   0  0  0  0  0  0  0  0  0  0  0  0
  182.4260  177.8270  140.4610 C   0  0  1  0  0  3  0  0  0  0  0  0
  180.0770  177.5230  140.6770 O   0  0  0  0  0  0  0  0  0  0  0  0
  181.1790  177.0180  140.3260 C   0  0  0  0  0  0  0  0  0  0  0  0
  181.2320  175.6980  139.7660 N   0  0  0  0  0  2  0  0  0  0  0  0
  178.9370  175.7820  139.3510 O   0  0  0  0  0  1  0  0  0  0  0  0
  180.0510  174.9320  139.3730 C   0  0  1  0  0  0  0  0  0  0  0  0
  179.7020  171.0100  136.6780 C   0  0  0  0  0  1  0  0  0  0  0  0
  179.7320  175.2530  136.8690 C   0  0  0  0  0  2  0  0  0  0  0  0
  180.1550  172.4610  136.7040 C   0  0  2  0  0  3  0  0  0  0  0  0
  179.6720  173.0650  137.8780 O   0  0  0  0  0  0  0  0  0  0  0  0
  179.5920  173.1770  135.4780 C   0  0  0  0  0  2  0  0  0  0  0  0
  180.0420  174.6330  135.5080 C   0  0  0  0  0  2  0  0  0  0  0  0
  180.2780  174.3360  137.9750 C   0  0  2  0  0  3  0  0  0  0  0  0
  179.2380  174.0640  141.3440 O   0  0  0  0  0  0  0  0  0  0  0  0
  179.8380  173.8680  140.3310 N   0  0  0  0  0  0  0  0  0  0  0  0
  182.5550  178.7750  139.3580 N   0  0  0  0  0  2  0  0  0  0  0  0
  181.4890  178.9210  137.1680 C   0  0  0  0  0  3  0  0  0  0  0  0
  181.4520  178.5890  135.8130 C   0  0  0  0  0  3  0  0  0  0  0  0
  182.5050  178.3950  137.9770 C   0  0  0  0  0  0  0  0  0  0  0  0
  183.4780  177.5690  137.4110 C   0  0  0  0  0  3  0  0  0  0  0  0
  183.4080  177.2630  136.0520 C   0  0  0  0  0  3  0  0  0  0  0  0
  182.4050  177.7750  135.2900 N   0  0  0  0  0  0  0  0  0  0  0  0
  1  2  1  0  0  0  0
  1  9  1  0  0  0  0
  2  3  2  0  0  0  0
  3  8  1  0  0  0  0
  4  2  1  0  0  0  0
  7  5  2  0  0  0  0
  7  6  1  0  0  0  0
  8  7  1  0  0  0  0
  9 10  1  0  0  0  0
 10 11  1  0  0  0  0
 11 13  1  0  0  0  0
 13 16  1  0  0  0  0
 13 12  1  0  0  0  0
 14 13  1  0  0  0  0
 16 15  1  1  0  0  0
 17 16  1  0  0  0  0
 18 17  1  0  0  0  0
 19 18  1  0  0  0  0
 20 19  1  0  0  0  0
 21 20  1  0  0  0  0
 21 22  2  0  0  0  0
 23 21  1  0  0  0  0
 25 27  1  0  0  0  0
 26 23  1  1  0  0  0
 26 27  1  0  0  0  0
 29 24  1  1  0  0  0
 29 30  1  0  0  0  0
 29 31  1  0  0  0  0
 30 32  1  6  0  0  0
 30 26  1  0  0  0  0
 31 28  1  6  0  0  0
 31 25  1  0  0  0  0
 32 33  1  0  0  0  0
 34 33  1  0  0  0  0
 36 35  1  1  0  0  0
 36 34  1  0  0  0  0
 37 38  1  0  0  0  0
 37 36  1  0  0  0  0
 38 36  1  0  0  0  0
 39 54  1  6  0  0  0
 39  4  1  0  0  0  0
 41 39  1  0  0  0  0
 41 40  2  0  0  0  0
 42 41  1  0  0  0  0
 44 43  1  6  0  0  0
 44 42  1  0  0  0  0
 44 53  1  0  0  0  0
 46 51  1  0  0  0  0
 47 45  1  6  0  0  0
 47 48  1  0  0  0  0
 48 51  1  0  0  0  0
 49 50  1  0  0  0  0
 49 47  1  0  0  0  0
 50 46  1  0  0  0  0
 51 44  1  1  0  0  0
 53 52  2  0  0  0  0
 55 57  1  0  0  0  0
 56 55  2  0  0  0  0
 57 54  1  0  0  0  0
 58 57  2  0  0  0  0
 59 58  1  0  0  0  0
 60 56  1  0  0  0  0
 60 59  2  0  0  0  0
M  END
>  <MODEL>
9

>  <REMARK>
 VINA RESULT:      -4.5      4.022     11.107
  Name = 
  24 active torsions:
  status: ('A' for Active; 'I' for Inactive)
    1  A    between atoms: O_3  and  C_5
    2  A    between atoms: O_3  and  C_51
    3  A    between atoms: C_5  and  C_55
    4  A    between atoms: N_7  and  C_12
    5  A    between atoms: C_10  and  C_34
    6  A    between atoms: C_10  and  C_50
    7  A    between atoms: C_11  and  C_55
    8  A    between atoms: C_12  and  C_50
    9  A    between atoms: C_15  and  O_45
   10  A    between atoms: C_15  and  C_51
   11  A    between atoms: C_16  and  C_31
   12  A    between atoms: N_17  and  C_27
   13  A    between atoms: C_19  and  C_36
   14  A    between atoms: N_22  and  C_27
   15  A    between atoms: C_26  and  C_34
   16  A    between atoms: C_26  and  O_45
   17  A    between atoms: C_27  and  C_52
   18  A    between atoms: C_31  and  C_38
   19  A    between atoms: C_33  and  N_56
   20  A    between atoms: N_35  and  N_59
   21  A    between atoms: C_36  and  N_56
   22  A    between atoms: C_36  and  N_58
   23  A    between atoms: C_38  and  O_48
   24  A    between atoms: O_48  and  C_49
                            x       y       z     vdW  Elec       q    Type
                         _______ _______ _______ _____ _____    ______ ____

>  <TORSDO>
F 24

$$$$
