=
 OpenBabel11042413263D

 50 54  0  0  1  0  0  0  0  0999 V2000
  188.7810  176.8820  141.9200 C   0  0  2  0  0  3  0  0  0  0  0  0
  190.1880  176.4020  139.6160 C   0  0  0  0  0  0  0  0  0  0  0  0
  190.5280  176.0580  138.4080 C   0  0  0  0  0  3  0  0  0  0  0  0
  190.0900  177.3890  142.1770 C   0  0  2  0  0  3  0  0  0  0  0  0
  189.8250  176.7570  140.8160 C   0  0  0  0  0  0  0  0  0  0  0  0
  186.7410  178.1810  142.2940 C   0  0  0  0  0  3  0  0  0  0  0  0
  187.8600  178.0090  141.5970 C   0  0  0  0  0  3  0  0  0  0  0  0
  185.8280  179.3160  141.9700 C   0  0  0  0  0  2  0  0  0  0  0  0
  184.4630  178.8030  141.5490 C   0  0  0  0  0  2  0  0  0  0  0  0
  183.7560  178.1610  142.7320 C   0  0  0  0  0  2  0  0  0  0  0  0
  183.8710  178.9970  145.0520 C   0  0  0  0  0  1  0  0  0  0  0  0
  183.2380  179.2170  143.6910 C   0  0  2  0  0  3  0  0  0  0  0  0
  181.7870  179.1240  143.8040 N   0  0  0  0  0  2  0  0  0  0  0  0
  181.2590  178.8390  142.4780 C   0  0  0  0  0  2  0  0  0  0  0  0
  179.8710  178.2310  142.5880 C   0  0  0  0  0  2  0  0  0  0  0  0
  179.6740  177.7260  143.8730 O   0  0  0  0  0  1  0  0  0  0  0  0
  190.9660  176.7110  135.9170 O   0  0  0  0  0  0  0  0  0  0  0  0
  189.9980  177.0520  137.0430 S   0  0  1  0  0  0  0  0  0  0  0  0
  185.9480  176.2500  136.5590 C   0  0  0  0  0  2  0  0  0  0  0  0
  187.9730  178.7780  138.2130 O   0  0  0  0  0  0  0  0  0  0  0  0
  187.2550  176.8490  136.9600 C   0  0  0  0  0  0  0  0  0  0  0  0
  187.0560  177.9980  137.8420 C   0  0  0  0  0  0  0  0  0  0  0  0
  185.3600  178.2840  138.2830 S   0  0  0  0  0  0  0  0  0  0  0  0
  188.4790  175.1260  135.6860 C   0  0  0  0  0  1  0  0  0  0  0  0
  184.8690  177.3100  136.8110 C   0  0  2  0  0  3  0  0  0  0  0  0
  188.4370  176.3430  136.5540 C   0  0  0  0  0  0  0  0  0  0  0  0
  181.3430  174.7490  137.6340 N   0  0  0  0  0  0  0  0  0  0  0  0
  182.5270  174.3590  136.9250 C   0  0  0  0  0  3  0  0  0  0  0  0
  180.3360  177.1970  137.8160 O   0  0  0  0  0  0  0  0  0  0  0  0
  183.5290  175.2100  136.6660 C   0  0  0  0  0  3  0  0  0  0  0  0
  180.9040  176.0350  139.9160 O   0  0  0  0  0  0  0  0  0  0  0  0
  183.4860  176.6820  136.9960 C   0  0  1  0  0  3  0  0  0  0  0  0
  182.9460  176.9150  138.4070 C   0  0  0  0  0  2  0  0  0  0  0  0
  181.3000  176.2550  138.4830 S   0  0  0  0  0  0  0  0  0  0  0  0
  180.1860  173.8660  137.6820 C   0  0  0  0  0  2  0  0  0  0  0  0
  180.2320  172.8560  136.5460 C   0  0  2  0  0  3  0  0  0  0  0  0
  179.2920  173.1920  135.5710 O   0  0  0  0  0  1  0  0  0  0  0  0
  179.9180  171.4780  137.0890 C   0  0  0  0  0  1  0  0  0  0  0  0
  190.8770  176.4100  143.0290 C   0  0  0  0  0  2  0  0  0  0  0  0
  189.2310  177.2440  144.6610 C   0  0  0  0  0  3  0  0  0  0  0  0
  191.4510  177.7490  146.4230 C   0  0  0  0  0  2  0  0  0  0  0  0
  187.2350  177.9110  145.8950 C   0  0  0  0  0  2  0  0  0  0  0  0
  191.6040  177.5220  145.0280 O   0  0  0  0  0  0  0  0  0  0  0  0
  187.3170  177.7250  148.2950 O   0  0  0  0  0  0  0  0  0  0  0  0
  189.2060  176.7740  147.1480 C   0  0  1  0  0  3  0  0  0  0  0  0
  188.7180  177.6180  148.3270 C   0  0  0  0  0  2  0  0  0  0  0  0
  188.6180  177.3270  145.8510 C   0  0  0  0  0  0  0  0  0  0  0  0
  187.0160  178.6050  147.2410 C   0  0  0  0  0  2  0  0  0  0  0  0
  190.6070  176.6660  144.5000 C   0  0  2  0  0  3  0  0  0  0  0  0
  190.7350  176.6330  147.2000 C   0  0  0  0  0  2  0  0  0  0  0  0
  1  7  1  6  0  0  0
  1  4  1  0  0  0  0
  2  5  2  0  0  0  0
  3  2  2  0  0  0  0
  4 39  1  1  0  0  0
  5  1  1  0  0  0  0
  5  4  1  0  0  0  0
  7  6  2  0  0  0  0
  8  6  1  0  0  0  0
  9  8  1  0  0  0  0
  9 10  1  0  0  0  0
 10 12  1  0  0  0  0
 12 13  1  0  0  0  0
 12 11  1  1  0  0  0
 14 15  1  0  0  0  0
 14 13  1  0  0  0  0
 15 16  1  0  0  0  0
 18 17  2  6  0  0  0
 18  3  1  0  0  0  0
 19 21  1  0  0  0  0
 21 22  1  0  0  0  0
 22 20  2  0  0  0  0
 22 23  1  0  0  0  0
 24 26  1  0  0  0  0
 25 19  1  1  0  0  0
 25 32  1  0  0  0  0
 25 23  1  0  0  0  0
 26 21  2  0  0  0  0
 26 18  1  0  0  0  0
 27 35  1  0  0  0  0
 27 34  1  0  0  0  0
 28 27  1  0  0  0  0
 29 34  2  0  0  0  0
 30 28  2  0  0  0  0
 32 30  1  1  0  0  0
 32 33  1  0  0  0  0
 33 34  1  0  0  0  0
 34 31  2  0  0  0  0
 36 38  1  1  0  0  0
 36 35  1  0  0  0  0
 37 36  1  0  0  0  0
 40 47  2  0  0  0  0
 41 50  1  0  0  0  0
 42 48  1  0  0  0  0
 43 41  1  0  0  0  0
 44 46  1  0  0  0  0
 45 50  1  6  0  0  0
 45 46  1  0  0  0  0
 47 42  1  0  0  0  0
 47 45  1  0  0  0  0
 48 44  1  0  0  0  0
 49 39  1  6  0  0  0
 49 40  1  0  0  0  0
 49 43  1  0  0  0  0
M  END
>  <MODEL>
1

>  <REMARK>
 VINA RESULT:      -8.1      0.000      0.000
  Name = 
  15 active torsions:
  status: ('A' for Active; 'I' for Inactive)
    1  A    between atoms: C_3  and  C_23
    2  A    between atoms: C_5  and  N_17
    3  A    between atoms: C_5  and  C_18
    4  A    between atoms: C_7  and  C_33
    5  A    between atoms: C_8  and  C_28
    6  A    between atoms: C_9  and  C_33
    7  A    between atoms: C_9  and  C_46
    8  A    between atoms: N_14  and  C_23
    9  A    between atoms: N_17  and  C_41
   10  A    between atoms: C_27  and  C_48
   11  A    between atoms: C_34  and  S_42
   12  A    between atoms: C_35  and  C_40
   13  A    between atoms: C_37  and  C_40
   14  A    between atoms: C_41  and  C_46
   15  A    between atoms: S_42  and  C_44
                            x       y       z     vdW  Elec       q    Type
                         _______ _______ _______ _____ _____    ______ ____

>  <TORSDO>
F 15

$$$$
=
 OpenBabel11042413263D

 50 54  0  0  1  0  0  0  0  0999 V2000
  189.1660  176.6040  142.1760 C   0  0  2  0  0  3  0  0  0  0  0  0
  190.7130  176.6170  139.9120 C   0  0  0  0  0  0  0  0  0  0  0  0
  191.2030  176.3700  138.7330 C   0  0  0  0  0  3  0  0  0  0  0  0
  190.1250  177.6390  142.3920 C   0  0  2  0  0  3  0  0  0  0  0  0
  190.1960  176.8630  141.0820 C   0  0  0  0  0  0  0  0  0  0  0  0
  187.6400  178.5020  141.9370 C   0  0  0  0  0  3  0  0  0  0  0  0
  187.8620  177.2020  141.7720 C   0  0  0  0  0  3  0  0  0  0  0  0
  186.3350  179.0940  141.5230 C   0  0  0  0  0  2  0  0  0  0  0  0
  185.3340  179.0360  142.6620 C   0  0  0  0  0  2  0  0  0  0  0  0
  184.1020  178.2510  142.2390 C   0  0  0  0  0  2  0  0  0  0  0  0
  182.6480  178.8350  144.1460 C   0  0  0  0  0  1  0  0  0  0  0  0
  182.8320  178.9760  142.6470 C   0  0  2  0  0  3  0  0  0  0  0  0
  181.6830  178.4020  141.9560 N   0  0  0  0  0  2  0  0  0  0  0  0
  180.9470  179.4970  141.3400 C   0  0  0  0  0  2  0  0  0  0  0  0
  181.2070  179.5260  139.8440 C   0  0  0  0  0  2  0  0  0  0  0  0
  180.4100  180.4980  139.2410 O   0  0  0  0  0  1  0  0  0  0  0  0
  191.2410  176.5670  136.1280 O   0  0  0  0  0  0  0  0  0  0  0  0
  190.3410  176.9440  137.2980 S   0  0  1  0  0  0  0  0  0  0  0  0
  186.4770  175.4130  137.2490 C   0  0  0  0  0  2  0  0  0  0  0  0
  188.0350  178.6710  137.6810 O   0  0  0  0  0  0  0  0  0  0  0  0
  187.6630  176.3130  137.3470 C   0  0  0  0  0  0  0  0  0  0  0  0
  187.2580  177.6790  137.6790 C   0  0  0  0  0  0  0  0  0  0  0  0
  185.5200  177.8610  137.9890 S   0  0  0  0  0  0  0  0  0  0  0  0
  189.1820  174.4260  136.8800 C   0  0  0  0  0  1  0  0  0  0  0  0
  185.2460  176.3070  137.0570 C   0  0  2  0  0  3  0  0  0  0  0  0
  188.9240  175.8700  137.1690 C   0  0  0  0  0  0  0  0  0  0  0  0
  181.2300  175.1470  138.5380 N   0  0  0  0  0  0  0  0  0  0  0  0
  182.1250  176.0790  139.1590 C   0  0  0  0  0  3  0  0  0  0  0  0
  181.8950  173.0920  136.9980 O   0  0  0  0  0  0  0  0  0  0  0  0
  183.3500  176.3350  138.6790 C   0  0  0  0  0  3  0  0  0  0  0  0
  180.3810  174.7900  136.0470 O   0  0  0  0  0  0  0  0  0  0  0  0
  183.9600  175.6090  137.5060 C   0  0  1  0  0  3  0  0  0  0  0  0
  182.9610  175.4780  136.3580 C   0  0  0  0  0  2  0  0  0  0  0  0
  181.5620  174.5570  136.9470 S   0  0  0  0  0  0  0  0  0  0  0  0
  180.0160  174.7230  139.2210 C   0  0  0  0  0  2  0  0  0  0  0  0
  178.9760  175.8330  139.2110 C   0  0  2  0  0  3  0  0  0  0  0  0
  179.3100  176.7910  138.2520 O   0  0  0  0  0  1  0  0  0  0  0  0
  178.9310  176.4880  140.5760 C   0  0  0  0  0  1  0  0  0  0  0  0
  191.2290  177.1530  143.3130 C   0  0  0  0  0  2  0  0  0  0  0  0
  189.3990  177.7790  144.8400 C   0  0  0  0  0  3  0  0  0  0  0  0
  191.2890  177.4820  146.9910 C   0  0  0  0  0  2  0  0  0  0  0  0
  187.2850  178.3970  145.8890 C   0  0  0  0  0  2  0  0  0  0  0  0
  191.6770  177.5980  145.6280 O   0  0  0  0  0  0  0  0  0  0  0  0
  186.8970  177.5950  148.1280 O   0  0  0  0  0  0  0  0  0  0  0  0
  188.8610  176.6990  147.0660 C   0  0  1  0  0  3  0  0  0  0  0  0
  188.2480  177.2780  148.3430 C   0  0  0  0  0  2  0  0  0  0  0  0
  188.5860  177.6450  145.8980 C   0  0  0  0  0  0  0  0  0  0  0  0
  186.8900  178.7500  147.3250 C   0  0  0  0  0  2  0  0  0  0  0  0
  190.7150  177.0630  144.7380 C   0  0  2  0  0  3  0  0  0  0  0  0
  190.3300  176.3240  147.3100 C   0  0  0  0  0  2  0  0  0  0  0  0
  1  7  1  6  0  0  0
  1  4  1  0  0  0  0
  2  5  2  0  0  0  0
  3  2  2  0  0  0  0
  4 39  1  1  0  0  0
  5  1  1  0  0  0  0
  5  4  1  0  0  0  0
  7  6  2  0  0  0  0
  8  6  1  0  0  0  0
  8  9  1  0  0  0  0
 10 12  1  0  0  0  0
 10  9  1  0  0  0  0
 12 11  1  1  0  0  0
 13 12  1  0  0  0  0
 14 13  1  0  0  0  0
 15 14  1  0  0  0  0
 16 15  1  0  0  0  0
 18 17  2  6  0  0  0
 18  3  1  0  0  0  0
 19 21  1  0  0  0  0
 21 22  1  0  0  0  0
 22 20  2  0  0  0  0
 22 23  1  0  0  0  0
 24 26  1  0  0  0  0
 25 19  1  1  0  0  0
 25 32  1  0  0  0  0
 25 23  1  0  0  0  0
 26 18  1  0  0  0  0
 26 21  2  0  0  0  0
 27 28  1  0  0  0  0
 27 35  1  0  0  0  0
 30 28  2  0  0  0  0
 31 34  2  0  0  0  0
 32 33  1  6  0  0  0
 32 30  1  0  0  0  0
 33 34  1  0  0  0  0
 34 29  2  0  0  0  0
 34 27  1  0  0  0  0
 36 35  1  0  0  0  0
 36 38  1  1  0  0  0
 37 36  1  0  0  0  0
 40 47  2  0  0  0  0
 41 50  1  0  0  0  0
 42 47  1  0  0  0  0
 42 48  1  0  0  0  0
 43 41  1  0  0  0  0
 44 46  1  0  0  0  0
 45 50  1  1  0  0  0
 45 46  1  0  0  0  0
 47 45  1  0  0  0  0
 48 44  1  0  0  0  0
 49 39  1  6  0  0  0
 49 40  1  0  0  0  0
 49 43  1  0  0  0  0
M  END
>  <MODEL>
2

>  <REMARK>
 VINA RESULT:      -7.3      1.477      2.054
  Name = 
  15 active torsions:
  status: ('A' for Active; 'I' for Inactive)
    1  A    between atoms: C_3  and  C_23
    2  A    between atoms: C_5  and  N_17
    3  A    between atoms: C_5  and  C_18
    4  A    between atoms: C_7  and  C_33
    5  A    between atoms: C_8  and  C_28
    6  A    between atoms: C_9  and  C_33
    7  A    between atoms: C_9  and  C_46
    8  A    between atoms: N_14  and  C_23
    9  A    between atoms: N_17  and  C_41
   10  A    between atoms: C_27  and  C_48
   11  A    between atoms: C_34  and  S_42
   12  A    between atoms: C_35  and  C_40
   13  A    between atoms: C_37  and  C_40
   14  A    between atoms: C_41  and  C_46
   15  A    between atoms: S_42  and  C_44
                            x       y       z     vdW  Elec       q    Type
                         _______ _______ _______ _____ _____    ______ ____

>  <TORSDO>
F 15

$$$$
=
 OpenBabel11042413263D

 50 54  0  0  1  0  0  0  0  0999 V2000
  181.9910  175.0270  139.0870 C   0  0  2  0  0  3  0  0  0  0  0  0
  180.1520  176.5280  140.4590 C   0  0  0  0  0  0  0  0  0  0  0  0
  179.5550  177.2620  141.3510 C   0  0  0  0  0  3  0  0  0  0  0  0
  180.8690  175.1250  138.2100 C   0  0  2  0  0  3  0  0  0  0  0  0
  180.7740  175.8080  139.5690 C   0  0  0  0  0  0  0  0  0  0  0  0
  183.4210  176.0500  137.3850 C   0  0  0  0  0  3  0  0  0  0  0  0
  183.0500  175.9850  138.6600 C   0  0  0  0  0  3  0  0  0  0  0  0
  184.4760  177.0180  136.9640 C   0  0  0  0  0  2  0  0  0  0  0  0
  185.4140  176.3820  135.9550 C   0  0  0  0  0  2  0  0  0  0  0  0
  186.4100  175.4750  136.6620 C   0  0  0  0  0  2  0  0  0  0  0  0
  187.9470  173.8240  135.6600 C   0  0  0  0  0  1  0  0  0  0  0  0
  187.6700  175.3060  135.8330 C   0  0  2  0  0  3  0  0  0  0  0  0
  188.7990  175.9400  136.5030 N   0  0  0  0  0  2  0  0  0  0  0  0
  188.3670  176.3100  137.8430 C   0  0  0  0  0  2  0  0  0  0  0  0
  188.8130  177.7250  138.1650 C   0  0  0  0  0  2  0  0  0  0  0  0
  187.8050  178.6290  137.8300 O   0  0  0  0  0  1  0  0  0  0  0  0
  178.9340  179.5760  142.3930 O   0  0  0  0  0  0  0  0  0  0  0  0
  180.0360  178.9540  141.5450 S   0  0  1  0  0  0  0  0  0  0  0  0
  183.9270  178.8630  143.0040 C   0  0  0  0  0  2  0  0  0  0  0  0
  182.3170  179.1970  139.7600 O   0  0  0  0  0  0  0  0  0  0  0  0
  182.7270  178.9240  142.1190 C   0  0  0  0  0  0  0  0  0  0  0  0
  183.1170  178.9900  140.7110 C   0  0  0  0  0  0  0  0  0  0  0  0
  184.8660  178.8590  140.4410 S   0  0  0  0  0  0  0  0  0  0  0  0
  181.2290  178.7740  144.0750 C   0  0  0  0  0  1  0  0  0  0  0  0
  185.1190  179.3660  142.1830 C   0  0  2  0  0  3  0  0  0  0  0  0
  181.4680  178.8930  142.6040 C   0  0  0  0  0  0  0  0  0  0  0  0
  188.4960  177.0500  143.8880 N   0  0  0  0  0  0  0  0  0  0  0  0
  187.1600  177.1070  144.4060 C   0  0  0  0  0  3  0  0  0  0  0  0
  189.7340  178.9270  142.4800 O   0  0  0  0  0  0  0  0  0  0  0  0
  186.2070  177.8780  143.8650 C   0  0  0  0  0  3  0  0  0  0  0  0
  189.5150  176.6920  141.4610 O   0  0  0  0  0  0  0  0  0  0  0  0
  186.4490  178.8380  142.7280 C   0  0  1  0  0  3  0  0  0  0  0  0
  187.2900  178.1900  141.6280 C   0  0  0  0  0  2  0  0  0  0  0  0
  188.8500  177.7200  142.3340 S   0  0  0  0  0  0  0  0  0  0  0  0
  189.5530  176.3920  144.6430 C   0  0  0  0  0  2  0  0  0  0  0  0
  190.0320  177.2770  145.7830 C   0  0  2  0  0  3  0  0  0  0  0  0
  191.3970  177.0800  145.9990 O   0  0  0  0  0  1  0  0  0  0  0  0
  189.2710  176.9230  147.0440 C   0  0  0  0  0  1  0  0  0  0  0  0
  180.0570  173.8440  138.2440 C   0  0  0  0  0  2  0  0  0  0  0  0
  182.0440  172.8630  137.1670 C   0  0  0  0  0  3  0  0  0  0  0  0
  180.3830  172.3910  134.8640 C   0  0  0  0  0  2  0  0  0  0  0  0
  184.2460  171.9860  136.5910 C   0  0  0  0  0  2  0  0  0  0  0  0
  180.0220  173.2830  135.9110 O   0  0  0  0  0  0  0  0  0  0  0  0
  184.3220  170.1460  135.0390 O   0  0  0  0  0  0  0  0  0  0  0  0
  182.1130  170.7500  135.7740 C   0  0  1  0  0  3  0  0  0  0  0  0
  183.0040  170.3490  134.5970 C   0  0  0  0  0  2  0  0  0  0  0  0
  182.7480  171.9270  136.5130 C   0  0  0  0  0  0  0  0  0  0  0  0
  184.8480  171.4230  135.3010 C   0  0  0  0  0  2  0  0  0  0  0  0
  180.5440  172.8910  137.1680 C   0  0  2  0  0  3  0  0  0  0  0  0
  180.6660  170.9440  135.2960 C   0  0  0  0  0  2  0  0  0  0  0  0
  1  7  1  6  0  0  0
  1  5  1  0  0  0  0
  2  3  2  0  0  0  0
  3 18  1  0  0  0  0
  4 39  1  1  0  0  0
  4  1  1  0  0  0  0
  4  5  1  0  0  0  0
  5  2  2  0  0  0  0
  6  7  2  0  0  0  0
  8  6  1  0  0  0  0
  9 10  1  0  0  0  0
  9  8  1  0  0  0  0
 12 11  1  1  0  0  0
 12 13  1  0  0  0  0
 12 10  1  0  0  0  0
 13 14  1  0  0  0  0
 14 15  1  0  0  0  0
 16 15  1  0  0  0  0
 18 17  2  1  0  0  0
 18 26  1  0  0  0  0
 20 22  2  0  0  0  0
 21 26  2  0  0  0  0
 21 19  1  0  0  0  0
 22 21  1  0  0  0  0
 23 22  1  0  0  0  0
 23 25  1  0  0  0  0
 25 32  1  0  0  0  0
 25 19  1  1  0  0  0
 26 24  1  0  0  0  0
 27 28  1  0  0  0  0
 27 35  1  0  0  0  0
 30 28  2  0  0  0  0
 31 34  2  0  0  0  0
 32 33  1  6  0  0  0
 32 30  1  0  0  0  0
 33 34  1  0  0  0  0
 34 29  2  0  0  0  0
 34 27  1  0  0  0  0
 35 36  1  0  0  0  0
 36 37  1  0  0  0  0
 36 38  1  1  0  0  0
 40 49  1  0  0  0  0
 41 50  1  0  0  0  0
 41 43  1  0  0  0  0
 43 49  1  0  0  0  0
 44 48  1  0  0  0  0
 45 46  1  6  0  0  0
 45 47  1  0  0  0  0
 46 44  1  0  0  0  0
 47 42  1  0  0  0  0
 47 40  2  0  0  0  0
 48 42  1  0  0  0  0
 49 39  1  1  0  0  0
 50 45  1  0  0  0  0
M  END
>  <MODEL>
3

>  <REMARK>
 VINA RESULT:      -6.7      2.696     10.877
  Name = 
  15 active torsions:
  status: ('A' for Active; 'I' for Inactive)
    1  A    between atoms: C_3  and  C_23
    2  A    between atoms: C_5  and  N_17
    3  A    between atoms: C_5  and  C_18
    4  A    between atoms: C_7  and  C_33
    5  A    between atoms: C_8  and  C_28
    6  A    between atoms: C_9  and  C_33
    7  A    between atoms: C_9  and  C_46
    8  A    between atoms: N_14  and  C_23
    9  A    between atoms: N_17  and  C_41
   10  A    between atoms: C_27  and  C_48
   11  A    between atoms: C_34  and  S_42
   12  A    between atoms: C_35  and  C_40
   13  A    between atoms: C_37  and  C_40
   14  A    between atoms: C_41  and  C_46
   15  A    between atoms: S_42  and  C_44
                            x       y       z     vdW  Elec       q    Type
                         _______ _______ _______ _____ _____    ______ ____

>  <TORSDO>
F 15

$$$$
=
 OpenBabel11042413263D

 50 54  0  0  1  0  0  0  0  0999 V2000
  190.0320  174.7510  136.5300 C   0  0  2  0  0  3  0  0  0  0  0  0
  191.2770  176.0400  138.6060 C   0  0  0  0  0  0  0  0  0  0  0  0
  191.5790  176.8730  139.5570 C   0  0  0  0  0  3  0  0  0  0  0  0
  191.1540  173.9300  136.8520 C   0  0  2  0  0  3  0  0  0  0  0  0
  190.9490  175.2060  137.6600 C   0  0  0  0  0  0  0  0  0  0  0  0
  188.0740  173.2870  136.4150 C   0  0  0  0  0  3  0  0  0  0  0  0
  188.7920  174.1620  137.1120 C   0  0  0  0  0  3  0  0  0  0  0  0
  186.8390  172.6960  137.0080 C   0  0  0  0  0  2  0  0  0  0  0  0
  185.6610  172.8570  136.0650 C   0  0  0  0  0  2  0  0  0  0  0  0
  185.2850  174.3250  135.9410 C   0  0  0  0  0  2  0  0  0  0  0  0
  183.3340  174.6670  137.4140 C   0  0  0  0  0  1  0  0  0  0  0  0
  184.8290  174.8810  137.2780 C   0  0  2  0  0  3  0  0  0  0  0  0
  185.1290  176.3060  137.3570 N   0  0  0  0  0  2  0  0  0  0  0  0
  186.1310  176.6030  136.3440 C   0  0  0  0  0  2  0  0  0  0  0  0
  186.7160  177.9850  136.5750 C   0  0  0  0  0  2  0  0  0  0  0  0
  186.1490  178.5560  137.7150 O   0  0  0  0  0  1  0  0  0  0  0  0
  191.4450  177.7090  142.0290 O   0  0  0  0  0  0  0  0  0  0  0  0
  190.6450  176.8470  141.0600 S   0  0  1  0  0  0  0  0  0  0  0  0
  186.9000  178.6420  141.2280 C   0  0  0  0  0  2  0  0  0  0  0  0
  188.9620  176.5970  143.4170 O   0  0  0  0  0  0  0  0  0  0  0  0
  188.1330  177.8620  141.5410 C   0  0  0  0  0  0  0  0  0  0  0  0
  188.0180  177.1990  142.8390 C   0  0  0  0  0  0  0  0  0  0  0  0
  186.4340  177.3990  143.6140 S   0  0  0  0  0  0  0  0  0  0  0  0
  189.1260  178.4880  139.3700 C   0  0  0  0  0  1  0  0  0  0  0  0
  186.1600  178.8670  142.5520 C   0  0  2  0  0  3  0  0  0  0  0  0
  189.1780  177.7890  140.6910 C   0  0  0  0  0  0  0  0  0  0  0  0
  181.8570  178.7950  141.4770 N   0  0  0  0  0  0  0  0  0  0  0  0
  182.9550  178.4940  140.6040 C   0  0  0  0  0  3  0  0  0  0  0  0
  181.9010  180.4090  143.5820 O   0  0  0  0  0  0  0  0  0  0  0  0
  184.2340  178.5940  140.9890 C   0  0  0  0  0  3  0  0  0  0  0  0
  181.2210  178.0670  143.9510 O   0  0  0  0  0  0  0  0  0  0  0  0
  184.6670  179.1240  142.3330 C   0  0  1  0  0  3  0  0  0  0  0  0
  183.8230  178.5290  143.4590 C   0  0  0  0  0  2  0  0  0  0  0  0
  182.1290  178.9800  143.1750 S   0  0  0  0  0  0  0  0  0  0  0  0
  180.5040  178.9050  140.9510 C   0  0  0  0  0  2  0  0  0  0  0  0
  180.3870  180.0930  140.0090 C   0  0  2  0  0  3  0  0  0  0  0  0
  179.6540  181.1140  140.6170 O   0  0  0  0  0  1  0  0  0  0  0  0
  179.6820  179.6590  138.7420 C   0  0  0  0  0  1  0  0  0  0  0  0
  192.2760  174.1530  135.8550 C   0  0  0  0  0  2  0  0  0  0  0  0
  194.6960  174.6010  135.7360 C   0  0  0  0  0  3  0  0  0  0  0  0
  195.0660  172.2140  137.3020 C   0  0  0  0  0  2  0  0  0  0  0  0
  196.9300  175.5010  135.3540 C   0  0  0  0  0  2  0  0  0  0  0  0
  193.8530  172.5160  136.6250 O   0  0  0  0  0  0  0  0  0  0  0  0
  198.5940  175.0550  137.0380 O   0  0  0  0  0  0  0  0  0  0  0  0
  196.3600  174.3890  137.6310 C   0  0  1  0  0  3  0  0  0  0  0  0
  197.8460  174.0240  137.6300 C   0  0  0  0  0  2  0  0  0  0  0  0
  195.9330  174.7830  136.2180 C   0  0  0  0  0  0  0  0  0  0  0  0
  198.3370  174.9820  135.6570 C   0  0  0  0  0  2  0  0  0  0  0  0
  193.6180  173.9090  136.5190 C   0  0  2  0  0  3  0  0  0  0  0  0
  195.5460  173.2740  138.3050 C   0  0  0  0  0  2  0  0  0  0  0  0
  1  4  1  0  0  0  0
  1  7  1  1  0  0  0
  1  5  1  0  0  0  0
  2  3  2  0  0  0  0
  3 18  1  0  0  0  0
  4 39  1  6  0  0  0
  4  5  1  0  0  0  0
  5  2  2  0  0  0  0
  6  8  1  0  0  0  0
  6  7  2  0  0  0  0
  9  8  1  0  0  0  0
 10  9  1  0  0  0  0
 10 12  1  0  0  0  0
 12 13  1  0  0  0  0
 12 11  1  6  0  0  0
 14 15  1  0  0  0  0
 14 13  1  0  0  0  0
 15 16  1  0  0  0  0
 18 17  2  1  0  0  0
 19 21  1  0  0  0  0
 21 22  1  0  0  0  0
 22 20  2  0  0  0  0
 22 23  1  0  0  0  0
 24 26  1  0  0  0  0
 25 19  1  6  0  0  0
 25 23  1  0  0  0  0
 26 18  1  0  0  0  0
 26 21  2  0  0  0  0
 27 34  1  0  0  0  0
 28 30  2  0  0  0  0
 28 27  1  0  0  0  0
 32 30  1  6  0  0  0
 32 25  1  0  0  0  0
 32 33  1  0  0  0  0
 34 33  1  0  0  0  0
 34 29  2  0  0  0  0
 34 31  2  0  0  0  0
 35 27  1  0  0  0  0
 36 38  1  6  0  0  0
 36 37  1  0  0  0  0
 36 35  1  0  0  0  0
 40 47  2  0  0  0  0
 40 49  1  0  0  0  0
 41 50  1  0  0  0  0
 42 48  1  0  0  0  0
 42 47  1  0  0  0  0
 43 41  1  0  0  0  0
 44 46  1  0  0  0  0
 45 46  1  6  0  0  0
 45 50  1  0  0  0  0
 47 45  1  0  0  0  0
 48 44  1  0  0  0  0
 49 39  1  6  0  0  0
 49 43  1  0  0  0  0
M  END
>  <MODEL>
4

>  <REMARK>
 VINA RESULT:      -6.5      3.803      8.328
  Name = 
  15 active torsions:
  status: ('A' for Active; 'I' for Inactive)
    1  A    between atoms: C_3  and  C_23
    2  A    between atoms: C_5  and  N_17
    3  A    between atoms: C_5  and  C_18
    4  A    between atoms: C_7  and  C_33
    5  A    between atoms: C_8  and  C_28
    6  A    between atoms: C_9  and  C_33
    7  A    between atoms: C_9  and  C_46
    8  A    between atoms: N_14  and  C_23
    9  A    between atoms: N_17  and  C_41
   10  A    between atoms: C_27  and  C_48
   11  A    between atoms: C_34  and  S_42
   12  A    between atoms: C_35  and  C_40
   13  A    between atoms: C_37  and  C_40
   14  A    between atoms: C_41  and  C_46
   15  A    between atoms: S_42  and  C_44
                            x       y       z     vdW  Elec       q    Type
                         _______ _______ _______ _____ _____    ______ ____

>  <TORSDO>
F 15

$$$$
=
 OpenBabel11042413263D

 50 54  0  0  1  0  0  0  0  0999 V2000
  188.7350  175.8510  136.6380 C   0  0  2  0  0  3  0  0  0  0  0  0
  186.6820  174.9870  135.0390 C   0  0  0  0  0  0  0  0  0  0  0  0
  185.5960  174.4260  134.5940 C   0  0  0  0  0  3  0  0  0  0  0  0
  188.9770  176.4590  135.3690 C   0  0  2  0  0  3  0  0  0  0  0  0
  187.7560  175.5570  135.5060 C   0  0  0  0  0  0  0  0  0  0  0  0
  188.8280  177.3300  138.5850 C   0  0  0  0  0  3  0  0  0  0  0  0
  188.1270  176.8480  137.5650 C   0  0  0  0  0  3  0  0  0  0  0  0
  188.2150  178.3330  139.5040 C   0  0  0  0  0  2  0  0  0  0  0  0
  188.5520  178.0140  140.9490 C   0  0  0  0  0  2  0  0  0  0  0  0
  189.7960  177.1420  141.0170 C   0  0  0  0  0  2  0  0  0  0  0  0
  188.7180  176.7410  143.2010 C   0  0  0  0  0  1  0  0  0  0  0  0
  189.7370  176.2080  142.2120 C   0  0  2  0  0  3  0  0  0  0  0  0
  191.0450  176.1290  142.8520 N   0  0  0  0  0  2  0  0  0  0  0  0
  191.0810  177.1310  143.9080 C   0  0  0  0  0  2  0  0  0  0  0  0
  191.4910  176.4920  145.2220 C   0  0  0  0  0  2  0  0  0  0  0  0
  191.1430  177.3250  146.2860 O   0  0  0  0  0  1  0  0  0  0  0  0
  183.0130  174.0360  134.6390 O   0  0  0  0  0  0  0  0  0  0  0  0
  184.0240  175.1010  135.0450 S   0  0  1  0  0  0  0  0  0  0  0  0
  183.4560  176.0640  139.0490 C   0  0  0  0  0  2  0  0  0  0  0  0
  182.4690  177.4300  135.8250 O   0  0  0  0  0  0  0  0  0  0  0  0
  183.4430  176.0650  137.5560 C   0  0  0  0  0  0  0  0  0  0  0  0
  182.7540  177.2460  137.0390 C   0  0  0  0  0  0  0  0  0  0  0  0
  182.2410  178.3900  138.2950 S   0  0  0  0  0  0  0  0  0  0  0  0
  184.7420  173.9670  137.5060 C   0  0  0  0  0  1  0  0  0  0  0  0
  182.3510  177.0230  139.5090 C   0  0  2  0  0  3  0  0  0  0  0  0
  184.0290  175.0930  136.8270 C   0  0  0  0  0  0  0  0  0  0  0  0
  183.6210  179.1930  143.1630 N   0  0  0  0  0  0  0  0  0  0  0  0
  184.4680  178.7890  142.0800 C   0  0  0  0  0  3  0  0  0  0  0  0
  181.3690  178.0240  143.9370 O   0  0  0  0  0  0  0  0  0  0  0  0
  184.0190  178.0840  141.0330 C   0  0  0  0  0  3  0  0  0  0  0  0
  181.2600  180.4040  143.3000 O   0  0  0  0  0  0  0  0  0  0  0  0
  182.6110  177.5530  140.9220 C   0  0  1  0  0  3  0  0  0  0  0  0
  181.5880  178.6150  141.3210 C   0  0  0  0  0  2  0  0  0  0  0  0
  181.9030  179.0770  143.0060 S   0  0  0  0  0  0  0  0  0  0  0  0
  184.1930  179.7430  144.3840 C   0  0  0  0  0  2  0  0  0  0  0  0
  184.6440  178.6300  145.3170 C   0  0  2  0  0  3  0  0  0  0  0  0
  183.8410  178.6120  146.4590 O   0  0  0  0  0  1  0  0  0  0  0  0
  186.0830  178.8690  145.7220 C   0  0  0  0  0  1  0  0  0  0  0  0
  190.0630  175.7060  134.6220 C   0  0  0  0  0  2  0  0  0  0  0  0
  192.4930  175.6330  135.0220 C   0  0  0  0  0  3  0  0  0  0  0  0
  191.9880  173.4150  136.7860 C   0  0  0  0  0  2  0  0  0  0  0  0
  194.9020  176.0080  135.0950 C   0  0  0  0  0  2  0  0  0  0  0  0
  191.0400  173.8800  135.8340 O   0  0  0  0  0  0  0  0  0  0  0  0
  196.0410  175.4250  137.1360 O   0  0  0  0  0  0  0  0  0  0  0  0
  193.6420  175.3020  137.2530 C   0  0  1  0  0  3  0  0  0  0  0  0
  194.9750  174.6430  137.6110 C   0  0  0  0  0  2  0  0  0  0  0  0
  193.6140  175.6120  135.7580 C   0  0  0  0  0  0  0  0  0  0  0  0
  196.0640  175.2490  135.7400 C   0  0  0  0  0  2  0  0  0  0  0  0
  191.1500  175.2700  135.5860 C   0  0  2  0  0  3  0  0  0  0  0  0
  192.4770  174.4610  137.7990 C   0  0  0  0  0  2  0  0  0  0  0  0
  1  7  1  1  0  0  0
  2  5  2  0  0  0  0
  3  2  2  0  0  0  0
  3 18  1  0  0  0  0
  4 39  1  6  0  0  0
  4  5  1  0  0  0  0
  4  1  1  0  0  0  0
  5  1  1  0  0  0  0
  6  8  1  0  0  0  0
  7  6  2  0  0  0  0
  8  9  1  0  0  0  0
  9 10  1  0  0  0  0
 10 12  1  0  0  0  0
 12 13  1  0  0  0  0
 12 11  1  1  0  0  0
 13 14  1  0  0  0  0
 14 15  1  0  0  0  0
 15 16  1  0  0  0  0
 18 17  2  6  0  0  0
 18 26  1  0  0  0  0
 20 22  2  0  0  0  0
 21 19  1  0  0  0  0
 22 21  1  0  0  0  0
 22 23  1  0  0  0  0
 23 25  1  0  0  0  0
 25 19  1  6  0  0  0
 25 32  1  0  0  0  0
 26 24  1  0  0  0  0
 26 21  2  0  0  0  0
 27 35  1  0  0  0  0
 28 27  1  0  0  0  0
 30 28  2  0  0  0  0
 32 30  1  6  0  0  0
 32 33  1  0  0  0  0
 33 34  1  0  0  0  0
 34 27  1  0  0  0  0
 34 31  2  0  0  0  0
 34 29  2  0  0  0  0
 35 36  1  0  0  0  0
 36 38  1  1  0  0  0
 36 37  1  0  0  0  0
 40 49  1  0  0  0  0
 40 47  2  0  0  0  0
 41 50  1  0  0  0  0
 42 48  1  0  0  0  0
 42 47  1  0  0  0  0
 43 41  1  0  0  0  0
 44 46  1  0  0  0  0
 45 46  1  6  0  0  0
 45 50  1  0  0  0  0
 47 45  1  0  0  0  0
 48 44  1  0  0  0  0
 49 39  1  6  0  0  0
 49 43  1  0  0  0  0
M  END
>  <MODEL>
5

>  <REMARK>
 VINA RESULT:      -6.4      3.034      8.410
  Name = 
  15 active torsions:
  status: ('A' for Active; 'I' for Inactive)
    1  A    between atoms: C_3  and  C_23
    2  A    between atoms: C_5  and  N_17
    3  A    between atoms: C_5  and  C_18
    4  A    between atoms: C_7  and  C_33
    5  A    between atoms: C_8  and  C_28
    6  A    between atoms: C_9  and  C_33
    7  A    between atoms: C_9  and  C_46
    8  A    between atoms: N_14  and  C_23
    9  A    between atoms: N_17  and  C_41
   10  A    between atoms: C_27  and  C_48
   11  A    between atoms: C_34  and  S_42
   12  A    between atoms: C_35  and  C_40
   13  A    between atoms: C_37  and  C_40
   14  A    between atoms: C_41  and  C_46
   15  A    between atoms: S_42  and  C_44
                            x       y       z     vdW  Elec       q    Type
                         _______ _______ _______ _____ _____    ______ ____

>  <TORSDO>
F 15

$$$$
=
 OpenBabel11042413263D

 50 54  0  0  1  0  0  0  0  0999 V2000
  190.9530  176.0100  137.3840 C   0  0  2  0  0  3  0  0  0  0  0  0
  191.3950  177.1040  139.8590 C   0  0  0  0  0  0  0  0  0  0  0  0
  191.2970  177.8030  140.9520 C   0  0  0  0  0  3  0  0  0  0  0  0
  192.0940  175.3190  137.8920 C   0  0  2  0  0  3  0  0  0  0  0  0
  191.4670  176.3990  138.7660 C   0  0  0  0  0  0  0  0  0  0  0  0
  189.0370  174.7950  136.4670 C   0  0  0  0  0  3  0  0  0  0  0  0
  189.7390  175.1570  137.5360 C   0  0  0  0  0  3  0  0  0  0  0  0
  187.8280  173.9350  136.6270 C   0  0  0  0  0  2  0  0  0  0  0  0
  186.6350  174.7630  137.0700 C   0  0  0  0  0  2  0  0  0  0  0  0
  186.0090  175.4640  135.8740 C   0  0  0  0  0  2  0  0  0  0  0  0
  186.5580  177.4880  137.1750 C   0  0  0  0  0  1  0  0  0  0  0  0
  185.5360  176.8570  136.2490 C   0  0  2  0  0  3  0  0  0  0  0  0
  184.2450  176.7830  136.9220 N   0  0  0  0  0  2  0  0  0  0  0  0
  183.3750  175.9390  136.1160 C   0  0  0  0  0  2  0  0  0  0  0  0
  181.9600  175.9680  136.6680 C   0  0  0  0  0  2  0  0  0  0  0  0
  181.6520  174.7400  137.2540 O   0  0  0  0  0  1  0  0  0  0  0  0
  190.3540  178.2640  143.3440 O   0  0  0  0  0  0  0  0  0  0  0  0
  190.0460  177.3910  142.1340 S   0  0  1  0  0  0  0  0  0  0  0  0
  186.1430  178.7080  141.5780 C   0  0  0  0  0  2  0  0  0  0  0  0
  188.1340  177.3930  144.3230 O   0  0  0  0  0  0  0  0  0  0  0  0
  187.4040  178.1610  142.1580 C   0  0  0  0  0  0  0  0  0  0  0  0
  187.2070  177.7510  143.5480 C   0  0  0  0  0  0  0  0  0  0  0  0
  185.5310  177.8980  144.1120 S   0  0  0  0  0  0  0  0  0  0  0  0
  188.5740  178.4760  140.0080 C   0  0  0  0  0  1  0  0  0  0  0  0
  185.2340  179.0890  142.7520 C   0  0  2  0  0  3  0  0  0  0  0  0
  188.5430  178.0560  141.4430 C   0  0  0  0  0  0  0  0  0  0  0  0
  181.0910  178.2540  141.4070 N   0  0  0  0  0  0  0  0  0  0  0  0
  182.2960  177.8240  140.7590 C   0  0  0  0  0  3  0  0  0  0  0  0
  180.7850  180.4130  142.9170 O   0  0  0  0  0  0  0  0  0  0  0  0
  183.5150  178.1660  141.1960 C   0  0  0  0  0  3  0  0  0  0  0  0
  180.2460  178.2280  143.9250 O   0  0  0  0  0  0  0  0  0  0  0  0
  183.7590  179.1120  142.3460 C   0  0  1  0  0  3  0  0  0  0  0  0
  182.8440  178.7920  143.5270 C   0  0  0  0  0  2  0  0  0  0  0  0
  181.1620  178.9590  142.9840 S   0  0  0  0  0  0  0  0  0  0  0  0
  179.7980  178.0610  140.7650 C   0  0  0  0  0  2  0  0  0  0  0  0
  179.9570  177.3350  139.4390 C   0  0  2  0  0  3  0  0  0  0  0  0
  179.4810  178.1340  138.3980 O   0  0  0  0  0  1  0  0  0  0  0  0
  179.1690  176.0430  139.4780 C   0  0  0  0  0  1  0  0  0  0  0  0
  193.3640  175.8660  137.2680 C   0  0  0  0  0  2  0  0  0  0  0  0
  193.9910  173.4870  137.1370 C   0  0  0  0  0  3  0  0  0  0  0  0
  196.1450  174.1050  138.9430 C   0  0  0  0  0  2  0  0  0  0  0  0
  194.2000  171.1080  136.6390 C   0  0  0  0  0  2  0  0  0  0  0  0
  195.0320  174.9660  138.7410 O   0  0  0  0  0  0  0  0  0  0  0  0
  196.4140  170.1630  136.7120 O   0  0  0  0  0  0  0  0  0  0  0  0
  196.3360  172.5580  136.9220 C   0  0  1  0  0  3  0  0  0  0  0  0
  196.9500  171.2490  137.4240 C   0  0  0  0  0  2  0  0  0  0  0  0
  194.8130  172.4450  136.9440 C   0  0  0  0  0  0  0  0  0  0  0  0
  195.1000  169.9970  137.1840 C   0  0  0  0  0  2  0  0  0  0  0  0
  194.4960  174.8690  137.4340 C   0  0  2  0  0  3  0  0  0  0  0  0
  196.9440  173.7480  137.6800 C   0  0  0  0  0  2  0  0  0  0  0  0
  1  7  1  1  0  0  0
  1  4  1  0  0  0  0
  1  5  1  0  0  0  0
  2  3  2  0  0  0  0
  3 18  1  0  0  0  0
  4 39  1  6  0  0  0
  4  5  1  0  0  0  0
  5  2  2  0  0  0  0
  6  8  1  0  0  0  0
  6  7  2  0  0  0  0
  8  9  1  0  0  0  0
 10 12  1  0  0  0  0
 10  9  1  0  0  0  0
 12 13  1  0  0  0  0
 12 11  1  1  0  0  0
 14 15  1  0  0  0  0
 14 13  1  0  0  0  0
 15 16  1  0  0  0  0
 18 17  2  1  0  0  0
 19 21  1  0  0  0  0
 21 22  1  0  0  0  0
 22 23  1  0  0  0  0
 22 20  2  0  0  0  0
 24 26  1  0  0  0  0
 25 19  1  6  0  0  0
 25 23  1  0  0  0  0
 26 18  1  0  0  0  0
 26 21  2  0  0  0  0
 27 34  1  0  0  0  0
 28 30  2  0  0  0  0
 28 27  1  0  0  0  0
 29 34  2  0  0  0  0
 32 30  1  6  0  0  0
 32 25  1  0  0  0  0
 32 33  1  0  0  0  0
 34 33  1  0  0  0  0
 34 31  2  0  0  0  0
 35 27  1  0  0  0  0
 36 38  1  1  0  0  0
 36 35  1  0  0  0  0
 37 36  1  0  0  0  0
 40 49  1  0  0  0  0
 42 47  1  0  0  0  0
 42 48  1  0  0  0  0
 43 41  1  0  0  0  0
 44 48  1  0  0  0  0
 44 46  1  0  0  0  0
 45 47  1  0  0  0  0
 45 46  1  1  0  0  0
 45 50  1  0  0  0  0
 47 40  2  0  0  0  0
 49 39  1  1  0  0  0
 49 43  1  0  0  0  0
 50 41  1  0  0  0  0
M  END
>  <MODEL>
6

>  <REMARK>
 VINA RESULT:      -6.4      3.710      7.851
  Name = 
  15 active torsions:
  status: ('A' for Active; 'I' for Inactive)
    1  A    between atoms: C_3  and  C_23
    2  A    between atoms: C_5  and  N_17
    3  A    between atoms: C_5  and  C_18
    4  A    between atoms: C_7  and  C_33
    5  A    between atoms: C_8  and  C_28
    6  A    between atoms: C_9  and  C_33
    7  A    between atoms: C_9  and  C_46
    8  A    between atoms: N_14  and  C_23
    9  A    between atoms: N_17  and  C_41
   10  A    between atoms: C_27  and  C_48
   11  A    between atoms: C_34  and  S_42
   12  A    between atoms: C_35  and  C_40
   13  A    between atoms: C_37  and  C_40
   14  A    between atoms: C_41  and  C_46
   15  A    between atoms: S_42  and  C_44
                            x       y       z     vdW  Elec       q    Type
                         _______ _______ _______ _____ _____    ______ ____

>  <TORSDO>
F 15

$$$$
=
 OpenBabel11042413263D

 50 54  0  0  1  0  0  0  0  0999 V2000
  184.2380  178.2510  143.0360 C   0  0  2  0  0  3  0  0  0  0  0  0
  185.8860  178.0800  145.2210 C   0  0  0  0  0  0  0  0  0  0  0  0
  186.7670  177.6870  146.0940 C   0  0  0  0  0  3  0  0  0  0  0  0
  184.0420  179.4770  143.7400 C   0  0  2  0  0  3  0  0  0  0  0  0
  185.0210  178.4660  144.3260 C   0  0  0  0  0  0  0  0  0  0  0  0
  184.6440  178.5510  140.6410 C   0  0  0  0  0  3  0  0  0  0  0  0
  185.1410  178.4780  141.8720 C   0  0  0  0  0  3  0  0  0  0  0  0
  185.5530  178.7870  139.4820 C   0  0  0  0  0  2  0  0  0  0  0  0
  185.0620  178.0400  138.2550 C   0  0  0  0  0  2  0  0  0  0  0  0
  183.5450  177.9360  138.2760 C   0  0  0  0  0  2  0  0  0  0  0  0
  182.5580  175.8730  139.2060 C   0  0  0  0  0  1  0  0  0  0  0  0
  183.0950  176.5240  137.9460 C   0  0  2  0  0  3  0  0  0  0  0  0
  184.2170  175.7470  137.4330 N   0  0  0  0  0  2  0  0  0  0  0  0
  183.8680  174.3390  137.5480 C   0  0  0  0  0  2  0  0  0  0  0  0
  185.1240  173.4980  137.6990 C   0  0  0  0  0  2  0  0  0  0  0  0
  186.2310  174.2110  137.2370 O   0  0  0  0  0  1  0  0  0  0  0  0
  189.1370  176.6900  146.5540 O   0  0  0  0  0  0  0  0  0  0  0  0
  188.4860  177.7560  145.6820 S   0  0  1  0  0  0  0  0  0  0  0  0
  189.6870  176.8490  141.8070 C   0  0  0  0  0  2  0  0  0  0  0  0
  191.0700  178.6190  144.6680 O   0  0  0  0  0  0  0  0  0  0  0  0
  189.6190  177.3700  143.2030 C   0  0  0  0  0  0  0  0  0  0  0  0
  190.7960  178.1780  143.5190 C   0  0  0  0  0  0  0  0  0  0  0  0
  191.8990  178.4130  142.1490 S   0  0  0  0  0  0  0  0  0  0  0  0
  187.4130  176.3130  143.5310 C   0  0  0  0  0  1  0  0  0  0  0  0
  191.1530  176.9350  141.3650 C   0  0  2  0  0  3  0  0  0  0  0  0
  188.5730  177.1220  144.0180 C   0  0  0  0  0  0  0  0  0  0  0  0
  192.1280  176.3840  137.0730 N   0  0  0  0  0  0  0  0  0  0  0  0
  193.0660  176.4330  138.1560 C   0  0  0  0  0  3  0  0  0  0  0  0
  189.7480  177.5520  136.9810 O   0  0  0  0  0  0  0  0  0  0  0  0
  192.6970  176.6610  139.4240 C   0  0  0  0  0  3  0  0  0  0  0  0
  189.8320  175.1060  136.6850 O   0  0  0  0  0  0  0  0  0  0  0  0
  191.2850  176.9870  139.8410 C   0  0  1  0  0  3  0  0  0  0  0  0
  190.2800  176.0610  139.1570 C   0  0  0  0  0  2  0  0  0  0  0  0
  190.4330  176.2820  137.4020 S   0  0  0  0  0  0  0  0  0  0  0  0
  192.5920  176.3750  135.6930 C   0  0  0  0  0  2  0  0  0  0  0  0
  193.8910  175.5940  135.5660 C   0  0  2  0  0  3  0  0  0  0  0  0
  194.8710  176.3920  134.9740 O   0  0  0  0  0  1  0  0  0  0  0  0
  193.6570  174.3700  134.7070 C   0  0  0  0  0  1  0  0  0  0  0  0
  182.7510  179.4290  144.5350 C   0  0  0  0  0  2  0  0  0  0  0  0
  181.6040  179.5880  142.3600 C   0  0  0  0  0  3  0  0  0  0  0  0
  179.3160  178.4040  143.6440 C   0  0  0  0  0  2  0  0  0  0  0  0
  180.9600  179.9310  140.0320 C   0  0  0  0  0  2  0  0  0  0  0  0
  180.4000  178.9770  144.3650 O   0  0  0  0  0  0  0  0  0  0  0  0
  179.3420  178.4060  139.1060 O   0  0  0  0  0  0  0  0  0  0  0  0
  180.1370  177.8180  141.2990 C   0  0  1  0  0  3  0  0  0  0  0  0
  178.9310  177.9390  140.3660 C   0  0  0  0  0  2  0  0  0  0  0  0
  180.9060  179.1390  141.3070 C   0  0  0  0  0  0  0  0  0  0  0  0
  179.6410  179.7700  139.2740 C   0  0  0  0  0  2  0  0  0  0  0  0
  181.6320  178.8670  143.6760 C   0  0  2  0  0  3  0  0  0  0  0  0
  179.6910  177.2790  142.6670 C   0  0  0  0  0  2  0  0  0  0  0  0
  1  7  1  6  0  0  0
  1  4  1  0  0  0  0
  1  5  1  0  0  0  0
  2  3  2  0  0  0  0
  4  5  1  0  0  0  0
  4 39  1  1  0  0  0
  5  2  2  0  0  0  0
  6  7  2  0  0  0  0
  8  6  1  0  0  0  0
  9 10  1  0  0  0  0
  9  8  1  0  0  0  0
 12 10  1  0  0  0  0
 12 11  1  1  0  0  0
 13 14  1  0  0  0  0
 13 12  1  0  0  0  0
 14 15  1  0  0  0  0
 16 15  1  0  0  0  0
 18  3  1  0  0  0  0
 18 17  2  1  0  0  0
 19 21  1  0  0  0  0
 21 22  1  0  0  0  0
 21 26  2  0  0  0  0
 22 20  2  0  0  0  0
 23 22  1  0  0  0  0
 24 26  1  0  0  0  0
 25 19  1  6  0  0  0
 25 23  1  0  0  0  0
 26 18  1  0  0  0  0
 27 34  1  0  0  0  0
 27 28  1  0  0  0  0
 28 30  2  0  0  0  0
 29 34  2  0  0  0  0
 30 32  1  0  0  0  0
 31 34  2  0  0  0  0
 32 33  1  6  0  0  0
 32 25  1  0  0  0  0
 34 33  1  0  0  0  0
 35 27  1  0  0  0  0
 36 38  1  6  0  0  0
 36 35  1  0  0  0  0
 37 36  1  0  0  0  0
 40 49  1  0  0  0  0
 41 43  1  0  0  0  0
 42 47  1  0  0  0  0
 44 48  1  0  0  0  0
 44 46  1  0  0  0  0
 45 46  1  6  0  0  0
 45 47  1  0  0  0  0
 45 50  1  0  0  0  0
 47 40  2  0  0  0  0
 48 42  1  0  0  0  0
 49 43  1  0  0  0  0
 49 39  1  1  0  0  0
 50 41  1  0  0  0  0
M  END
>  <MODEL>
7

>  <REMARK>
 VINA RESULT:      -6.3      2.960      9.134
  Name = 
  15 active torsions:
  status: ('A' for Active; 'I' for Inactive)
    1  A    between atoms: C_3  and  C_23
    2  A    between atoms: C_5  and  N_17
    3  A    between atoms: C_5  and  C_18
    4  A    between atoms: C_7  and  C_33
    5  A    between atoms: C_8  and  C_28
    6  A    between atoms: C_9  and  C_33
    7  A    between atoms: C_9  and  C_46
    8  A    between atoms: N_14  and  C_23
    9  A    between atoms: N_17  and  C_41
   10  A    between atoms: C_27  and  C_48
   11  A    between atoms: C_34  and  S_42
   12  A    between atoms: C_35  and  C_40
   13  A    between atoms: C_37  and  C_40
   14  A    between atoms: C_41  and  C_46
   15  A    between atoms: S_42  and  C_44
                            x       y       z     vdW  Elec       q    Type
                         _______ _______ _______ _____ _____    ______ ____

>  <TORSDO>
F 15

$$$$
=
 OpenBabel11042413263D

 50 54  0  0  1  0  0  0  0  0999 V2000
  190.0570  172.7740  134.5980 C   0  0  2  0  0  3  0  0  0  0  0  0
  190.7610  175.3230  135.3220 C   0  0  0  0  0  0  0  0  0  0  0  0
  190.7900  176.6140  135.4800 C   0  0  0  0  0  3  0  0  0  0  0  0
  191.2020  172.6150  135.4350 C   0  0  2  0  0  3  0  0  0  0  0  0
  190.7050  174.0310  135.1680 C   0  0  0  0  0  0  0  0  0  0  0  0
  187.6320  172.4990  134.7800 C   0  0  0  0  0  3  0  0  0  0  0  0
  188.8210  172.4660  135.3730 C   0  0  0  0  0  3  0  0  0  0  0  0
  186.4000  172.1820  135.5600 C   0  0  0  0  0  2  0  0  0  0  0  0
  185.1570  172.4530  134.7340 C   0  0  0  0  0  2  0  0  0  0  0  0
  184.2190  173.3860  135.4850 C   0  0  0  0  0  2  0  0  0  0  0  0
  183.1470  172.0270  137.2450 C   0  0  0  0  0  1  0  0  0  0  0  0
  184.2160  173.0680  136.9690 C   0  0  2  0  0  3  0  0  0  0  0  0
  183.9360  174.2730  137.7400 N   0  0  0  0  0  2  0  0  0  0  0  0
  184.5120  175.4000  137.0200 C   0  0  0  0  0  2  0  0  0  0  0  0
  183.8960  176.7010  137.5060 C   0  0  0  0  0  2  0  0  0  0  0  0
  182.5540  176.7600  137.1320 O   0  0  0  0  0  1  0  0  0  0  0  0
  188.3120  176.6540  136.3090 O   0  0  0  0  0  0  0  0  0  0  0  0
  189.6260  177.3800  136.5710 S   0  0  1  0  0  0  0  0  0  0  0  0
  189.9250  176.8410  140.6820 C   0  0  0  0  0  2  0  0  0  0  0  0
  187.6870  178.5600  138.3870 O   0  0  0  0  0  0  0  0  0  0  0  0
  189.4940  177.2650  139.3180 C   0  0  0  0  0  0  0  0  0  0  0  0
  188.3450  178.1670  139.3870 C   0  0  0  0  0  0  0  0  0  0  0  0
  187.8640  178.5960  141.0410 S   0  0  0  0  0  0  0  0  0  0  0  0
  191.3310  175.9730  138.2950 C   0  0  0  0  0  1  0  0  0  0  0  0
  188.7460  177.1020  141.6280 C   0  0  2  0  0  3  0  0  0  0  0  0
  190.1330  176.8620  138.2000 C   0  0  0  0  0  0  0  0  0  0  0  0
  189.5190  176.8440  145.9880 N   0  0  0  0  0  0  0  0  0  0  0  0
  188.2360  176.7950  145.3500 C   0  0  0  0  0  3  0  0  0  0  0  0
  191.6940  178.0650  145.0860 O   0  0  0  0  0  0  0  0  0  0  0  0
  188.0790  176.9380  144.0270 C   0  0  0  0  0  3  0  0  0  0  0  0
  191.8460  175.6450  145.5350 O   0  0  0  0  0  0  0  0  0  0  0  0
  189.2070  177.2620  143.0790 C   0  0  1  0  0  3  0  0  0  0  0  0
  190.4390  176.4090  143.3760 C   0  0  0  0  0  2  0  0  0  0  0  0
  190.9610  176.7540  145.0380 S   0  0  0  0  0  0  0  0  0  0  0  0
  189.6200  176.9250  147.4380 C   0  0  0  0  0  2  0  0  0  0  0  0
  189.1570  178.2860  147.9350 C   0  0  2  0  0  3  0  0  0  0  0  0
  190.0620  178.7840  148.8740 O   0  0  0  0  0  1  0  0  0  0  0  0
  187.7950  178.1450  148.5820 C   0  0  0  0  0  1  0  0  0  0  0  0
  192.4400  172.3610  134.5940 C   0  0  0  0  0  2  0  0  0  0  0  0
  194.3620  173.8900  134.7840 C   0  0  0  0  0  3  0  0  0  0  0  0
  195.7050  171.7890  136.2230 C   0  0  0  0  0  2  0  0  0  0  0  0
  195.9260  175.7610  134.7230 C   0  0  0  0  0  2  0  0  0  0  0  0
  194.5440  171.5680  135.4310 O   0  0  0  0  0  0  0  0  0  0  0  0
  197.4800  175.9520  136.5540 O   0  0  0  0  0  0  0  0  0  0  0  0
  195.7900  174.2640  136.8410 C   0  0  1  0  0  3  0  0  0  0  0  0
  197.2680  174.6320  136.9870 C   0  0  0  0  0  2  0  0  0  0  0  0
  195.3290  174.5710  135.4170 C   0  0  0  0  0  0  0  0  0  0  0  0
  197.3860  175.9230  135.1510 C   0  0  0  0  0  2  0  0  0  0  0  0
  193.6870  172.6940  135.3910 C   0  0  2  0  0  3  0  0  0  0  0  0
  195.5540  172.8310  137.3420 C   0  0  0  0  0  2  0  0  0  0  0  0
  1  5  1  0  0  0  0
  1  7  1  1  0  0  0
  1  4  1  0  0  0  0
  2  3  2  0  0  0  0
  3 18  1  0  0  0  0
  4 39  1  6  0  0  0
  5  2  2  0  0  0  0
  5  4  1  0  0  0  0
  6  7  2  0  0  0  0
  6  8  1  0  0  0  0
  9 10  1  0  0  0  0
  9  8  1  0  0  0  0
 10 12  1  0  0  0  0
 12 11  1  6  0  0  0
 12 13  1  0  0  0  0
 14 15  1  0  0  0  0
 14 13  1  0  0  0  0
 16 15  1  0  0  0  0
 18 17  2  6  0  0  0
 18 26  1  0  0  0  0
 20 22  2  0  0  0  0
 21 22  1  0  0  0  0
 21 19  1  0  0  0  0
 22 23  1  0  0  0  0
 23 25  1  0  0  0  0
 25 19  1  6  0  0  0
 25 32  1  0  0  0  0
 26 24  1  0  0  0  0
 26 21  2  0  0  0  0
 27 35  1  0  0  0  0
 28 27  1  0  0  0  0
 30 28  2  0  0  0  0
 32 33  1  1  0  0  0
 32 30  1  0  0  0  0
 33 34  1  0  0  0  0
 34 29  2  0  0  0  0
 34 31  2  0  0  0  0
 34 27  1  0  0  0  0
 35 36  1  0  0  0  0
 36 38  1  1  0  0  0
 36 37  1  0  0  0  0
 40 49  1  0  0  0  0
 40 47  2  0  0  0  0
 41 50  1  0  0  0  0
 42 48  1  0  0  0  0
 42 47  1  0  0  0  0
 43 41  1  0  0  0  0
 44 46  1  0  0  0  0
 45 46  1  6  0  0  0
 45 50  1  0  0  0  0
 47 45  1  0  0  0  0
 48 44  1  0  0  0  0
 49 39  1  6  0  0  0
 49 43  1  0  0  0  0
M  END
>  <MODEL>
8

>  <REMARK>
 VINA RESULT:      -6.2      3.929     10.110
  Name = 
  15 active torsions:
  status: ('A' for Active; 'I' for Inactive)
    1  A    between atoms: C_3  and  C_23
    2  A    between atoms: C_5  and  N_17
    3  A    between atoms: C_5  and  C_18
    4  A    between atoms: C_7  and  C_33
    5  A    between atoms: C_8  and  C_28
    6  A    between atoms: C_9  and  C_33
    7  A    between atoms: C_9  and  C_46
    8  A    between atoms: N_14  and  C_23
    9  A    between atoms: N_17  and  C_41
   10  A    between atoms: C_27  and  C_48
   11  A    between atoms: C_34  and  S_42
   12  A    between atoms: C_35  and  C_40
   13  A    between atoms: C_37  and  C_40
   14  A    between atoms: C_41  and  C_46
   15  A    between atoms: S_42  and  C_44
                            x       y       z     vdW  Elec       q    Type
                         _______ _______ _______ _____ _____    ______ ____

>  <TORSDO>
F 15

$$$$
=
 OpenBabel11042413263D

 50 54  0  0  1  0  0  0  0  0999 V2000
  189.0490  173.8350  135.7840 C   0  0  2  0  0  3  0  0  0  0  0  0
  189.5640  176.4110  136.5690 C   0  0  0  0  0  0  0  0  0  0  0  0
  189.4660  177.6830  136.8230 C   0  0  0  0  0  3  0  0  0  0  0  0
  190.3460  173.7850  136.3790 C   0  0  2  0  0  3  0  0  0  0  0  0
  189.6370  175.1340  136.3240 C   0  0  0  0  0  0  0  0  0  0  0  0
  186.7520  173.6430  136.6080 C   0  0  0  0  0  3  0  0  0  0  0  0
  188.0340  173.3200  136.7470 C   0  0  0  0  0  3  0  0  0  0  0  0
  185.7410  173.1170  137.5710 C   0  0  0  0  0  2  0  0  0  0  0  0
  184.7300  172.2370  136.8600 C   0  0  0  0  0  2  0  0  0  0  0  0
  184.4000  172.8160  135.4930 C   0  0  0  0  0  2  0  0  0  0  0  0
  182.9270  174.7820  135.2490 C   0  0  0  0  0  1  0  0  0  0  0  0
  182.9550  173.2770  135.4350 C   0  0  2  0  0  3  0  0  0  0  0  0
  182.2660  172.9230  136.6700 N   0  0  0  0  0  2  0  0  0  0  0  0
  181.1290  173.8210  136.8140 C   0  0  0  0  0  2  0  0  0  0  0  0
  179.8990  173.0430  137.2470 C   0  0  0  0  0  2  0  0  0  0  0  0
  180.2800  171.8220  137.8040 O   0  0  0  0  0  1  0  0  0  0  0  0
  187.1220  177.5090  137.9620 O   0  0  0  0  0  0  0  0  0  0  0  0
  188.4520  178.2220  138.1690 S   0  0  1  0  0  0  0  0  0  0  0  0
  189.2220  176.9080  142.0360 C   0  0  0  0  0  2  0  0  0  0  0  0
  186.5770  178.7310  140.3310 O   0  0  0  0  0  0  0  0  0  0  0  0
  188.6100  177.5360  140.8290 C   0  0  0  0  0  0  0  0  0  0  0  0
  187.3730  178.2380  141.1730 C   0  0  0  0  0  0  0  0  0  0  0  0
  187.0120  178.2520  142.9110 S   0  0  0  0  0  0  0  0  0  0  0  0
  190.4770  176.7440  139.4230 C   0  0  0  0  0  1  0  0  0  0  0  0
  188.1210  176.8060  143.0990 C   0  0  2  0  0  3  0  0  0  0  0  0
  189.1770  177.4610  139.6080 C   0  0  0  0  0  0  0  0  0  0  0  0
  190.4400  177.1720  146.8620 N   0  0  0  0  0  0  0  0  0  0  0  0
  190.9800  176.9540  145.5510 C   0  0  0  0  0  3  0  0  0  0  0  0
  188.0390  176.4530  147.7290 O   0  0  0  0  0  0  0  0  0  0  0  0
  190.2080  176.7970  144.4680 C   0  0  0  0  0  3  0  0  0  0  0  0
  188.6280  178.8440  147.8510 O   0  0  0  0  0  0  0  0  0  0  0  0
  188.7010  176.7310  144.5130 C   0  0  1  0  0  3  0  0  0  0  0  0
  188.1280  177.8230  145.4150 C   0  0  0  0  0  2  0  0  0  0  0  0
  188.7700  177.5780  147.0530 S   0  0  0  0  0  0  0  0  0  0  0  0
  191.2980  177.0970  148.0360 C   0  0  0  0  0  2  0  0  0  0  0  0
  192.4040  176.0740  147.8310 C   0  0  2  0  0  3  0  0  0  0  0  0
  191.8500  174.8140  147.5970 O   0  0  0  0  0  1  0  0  0  0  0  0
  193.2690  176.0160  149.0720 C   0  0  0  0  0  1  0  0  0  0  0  0
  191.4170  173.7480  135.3050 C   0  0  0  0  0  2  0  0  0  0  0  0
  193.6780  174.7270  135.3500 C   0  0  0  0  0  3  0  0  0  0  0  0
  194.5890  172.2100  136.4090 C   0  0  0  0  0  2  0  0  0  0  0  0
  195.6540  176.1520  135.2250 C   0  0  0  0  0  2  0  0  0  0  0  0
  193.3280  172.3730  135.7720 O   0  0  0  0  0  0  0  0  0  0  0  0
  197.4030  175.7450  136.8300 O   0  0  0  0  0  0  0  0  0  0  0  0
  195.3790  174.5010  137.2110 C   0  0  1  0  0  3  0  0  0  0  0  0
  196.9090  174.4770  137.1790 C   0  0  0  0  0  2  0  0  0  0  0  0
  194.8530  175.0730  135.8950 C   0  0  0  0  0  0  0  0  0  0  0  0
  197.1450  175.9010  135.4560 C   0  0  0  0  0  2  0  0  0  0  0  0
  192.7920  173.6720  135.9450 C   0  0  2  0  0  3  0  0  0  0  0  0
  194.8400  173.1220  137.6200 C   0  0  0  0  0  2  0  0  0  0  0  0
  1  5  1  0  0  0  0
  1  4  1  0  0  0  0
  1  7  1  1  0  0  0
  2  3  2  0  0  0  0
  3 18  1  0  0  0  0
  4 39  1  6  0  0  0
  5  4  1  0  0  0  0
  5  2  2  0  0  0  0
  6  7  2  0  0  0  0
  6  8  1  0  0  0  0
  9  8  1  0  0  0  0
 10  9  1  0  0  0  0
 12 11  1  1  0  0  0
 12 10  1  0  0  0  0
 12 13  1  0  0  0  0
 13 14  1  0  0  0  0
 14 15  1  0  0  0  0
 15 16  1  0  0  0  0
 18 17  2  6  0  0  0
 18 26  1  0  0  0  0
 20 22  2  0  0  0  0
 21 22  1  0  0  0  0
 21 19  1  0  0  0  0
 22 23  1  0  0  0  0
 23 25  1  0  0  0  0
 24 26  1  0  0  0  0
 25 19  1  6  0  0  0
 25 32  1  0  0  0  0
 26 21  2  0  0  0  0
 27 34  1  0  0  0  0
 27 35  1  0  0  0  0
 28 27  1  0  0  0  0
 30 28  2  0  0  0  0
 32 30  1  6  0  0  0
 32 33  1  0  0  0  0
 33 34  1  0  0  0  0
 34 29  2  0  0  0  0
 34 31  2  0  0  0  0
 36 35  1  0  0  0  0
 36 38  1  1  0  0  0
 37 36  1  0  0  0  0
 40 47  2  0  0  0  0
 40 49  1  0  0  0  0
 41 50  1  0  0  0  0
 42 48  1  0  0  0  0
 42 47  1  0  0  0  0
 43 49  1  0  0  0  0
 43 41  1  0  0  0  0
 44 46  1  0  0  0  0
 45 46  1  6  0  0  0
 45 50  1  0  0  0  0
 47 45  1  0  0  0  0
 48 44  1  0  0  0  0
 49 39  1  6  0  0  0
M  END
>  <MODEL>
9

>  <REMARK>
 VINA RESULT:      -6.1      3.737     10.127
  Name = 
  15 active torsions:
  status: ('A' for Active; 'I' for Inactive)
    1  A    between atoms: C_3  and  C_23
    2  A    between atoms: C_5  and  N_17
    3  A    between atoms: C_5  and  C_18
    4  A    between atoms: C_7  and  C_33
    5  A    between atoms: C_8  and  C_28
    6  A    between atoms: C_9  and  C_33
    7  A    between atoms: C_9  and  C_46
    8  A    between atoms: N_14  and  C_23
    9  A    between atoms: N_17  and  C_41
   10  A    between atoms: C_27  and  C_48
   11  A    between atoms: C_34  and  S_42
   12  A    between atoms: C_35  and  C_40
   13  A    between atoms: C_37  and  C_40
   14  A    between atoms: C_41  and  C_46
   15  A    between atoms: S_42  and  C_44
                            x       y       z     vdW  Elec       q    Type
                         _______ _______ _______ _____ _____    ______ ____

>  <TORSDO>
F 15

$$$$
