=
 OpenBabel11032421113D

 34 38  0  0  1  0  0  0  0  0999 V2000
  188.8660  177.2520  141.3360 C   0  0  0  0  0  2  0  0  0  0  0  0
  187.1760  177.9310  143.5340 C   0  0  0  0  0  3  0  0  0  0  0  0
  185.1400  179.2320  140.6690 N   0  0  0  0  0  0  0  0  0  0  0  0
  188.1740  177.0650  143.7550 C   0  0  0  0  0  0  0  0  0  0  0  0
  187.1200  178.2270  139.7570 C   0  0  0  0  0  0  0  0  0  0  0  0
  185.8890  178.8770  139.5940 C   0  0  0  0  0  3  0  0  0  0  0  0
  185.5390  178.9810  141.9440 C   0  0  0  0  0  0  0  0  0  0  0  0
  187.5430  177.9180  141.0690 C   0  0  0  0  0  0  0  0  0  0  0  0
  190.2230  175.8970  142.9100 C   0  0  0  0  0  1  0  0  0  0  0  0
  186.7460  178.2930  142.1680 C   0  0  0  0  0  0  0  0  0  0  0  0
  188.8160  176.3620  142.5790 C   0  0  2  0  0  3  0  0  0  0  0  0
  190.3380  174.8870  137.1900 C   0  0  1  0  0  3  0  0  0  0  0  0
  189.8260  177.1960  136.5470 O   0  0  0  0  0  0  0  0  0  0  0  0
  187.2740  177.1040  137.5300 C   0  0  0  0  0  2  0  0  0  0  0  0
  187.9840  175.7690  137.4050 C   0  0  0  0  0  2  0  0  0  0  0  0
  190.1960  177.7060  137.7790 N   0  0  2  0  0  0  0  0  0  0  0  0
  187.8990  177.8850  138.5920 N   0  0  0  0  0  0  0  0  0  0  0  0
  190.6660  176.7380  138.7890 C   0  0  0  0  0  2  0  0  0  0  0  0
  191.3450  175.5560  138.1220 C   0  0  0  0  0  2  0  0  0  0  0  0
  189.3020  175.8760  136.6360 C   0  0  2  0  0  3  0  0  0  0  0  0
  189.1570  178.5900  138.3200 C   0  0  2  0  0  3  0  0  0  0  0  0
  188.9310  179.6590  137.4500 O   0  0  0  0  0  1  0  0  0  0  0  0
  190.9410  174.0830  136.1980 O   0  0  0  0  0  0  0  0  0  0  0  0
  192.2340  173.7260  136.6170 C   0  0  0  0  0  1  0  0  0  0  0  0
  184.6450  179.3740  143.0850 C   0  0  2  0  0  3  0  0  0  0  0  0
  184.3310  178.2010  143.9170 N   0  0  0  0  0  2  0  0  0  0  0  0
  182.3020  179.5220  143.6990 C   0  0  0  0  0  1  0  0  0  0  0  0
  183.3460  178.7160  142.9580 C   0  0  1  0  0  3  0  0  0  0  0  0
  188.5820  176.7210  145.0570 O   0  0  0  0  0  0  0  0  0  0  0  0
  189.0550  177.6020  146.0450 C   0  0  0  0  0  0  0  0  0  0  0  0
  190.1940  178.1380  145.9520 O   0  0  0  0  0  0  0  0  0  0  0  0
  188.7120  177.9090  148.4390 C   0  0  0  0  0  2  0  0  0  0  0  0
  188.2050  177.8850  147.2130 C   0  0  0  0  0  0  0  0  0  0  0  0
  186.7520  178.1540  147.0330 C   0  0  0  0  0  1  0  0  0  0  0  0
  1 11  1  0  0  0  0
  2  4  2  0  0  0  0
  3  7  1  0  0  0  0
  4 29  1  0  0  0  0
  5  8  2  0  0  0  0
  6  5  1  0  0  0  0
  6  3  2  0  0  0  0
  7 10  2  0  0  0  0
  8  1  1  0  0  0  0
  8 10  1  0  0  0  0
 10  2  1  0  0  0  0
 11  9  1  1  0  0  0
 11  4  1  0  0  0  0
 12 23  1  6  0  0  0
 12 19  1  0  0  0  0
 13 20  1  0  0  0  0
 13 16  1  0  0  0  0
 14 17  1  0  0  0  0
 15 14  1  0  0  0  0
 16 21  1  0  0  0  0
 16 18  1  1  0  0  0
 17  5  1  0  0  0  0
 19 18  1  0  0  0  0
 20 12  1  0  0  0  0
 20 15  1  1  0  0  0
 21 22  1  6  0  0  0
 21 17  1  0  0  0  0
 23 24  1  0  0  0  0
 25  7  1  6  0  0  0
 25 26  1  0  0  0  0
 28 25  1  0  0  0  0
 28 27  1  1  0  0  0
 28 26  1  0  0  0  0
 29 30  1  0  0  0  0
 30 33  1  0  0  0  0
 31 30  2  0  0  0  0
 33 32  2  0  0  0  0
 34 33  1  0  0  0  0
M  END
>  <MODEL>
1

>  <REMARK>
 VINA RESULT:      -8.9      0.000      0.000
  Name = 
  6 active torsions:
  status: ('A' for Active; 'I' for Inactive)
    1  A    between atoms: C_4  and  O_23
    2  A    between atoms: C_5  and  O_24
    3  A    between atoms: C_7  and  N_21
    4  A    between atoms: C_10  and  C_12
    5  A    between atoms: C_11  and  C_14
    6  A    between atoms: C_14  and  O_23
                            x       y       z     vdW  Elec       q    Type
                         _______ _______ _______ _____ _____    ______ ____

>  <TORSDO>
F 6

$$$$
=
 OpenBabel11032421113D

 34 38  0  0  1  0  0  0  0  0999 V2000
  183.7290  178.3340  142.6020 C   0  0  0  0  0  2  0  0  0  0  0  0
  186.3080  178.0470  143.7930 C   0  0  0  0  0  3  0  0  0  0  0  0
  187.2550  178.4990  140.1950 N   0  0  0  0  0  0  0  0  0  0  0  0
  185.2660  178.2830  144.6020 C   0  0  0  0  0  0  0  0  0  0  0  0
  184.8640  178.6500  140.3420 C   0  0  0  0  0  0  0  0  0  0  0  0
  186.0510  178.6950  139.5980 C   0  0  0  0  0  3  0  0  0  0  0  0
  187.3710  178.2500  141.5260 C   0  0  0  0  0  0  0  0  0  0  0  0
  184.9560  178.4310  141.7340 C   0  0  0  0  0  0  0  0  0  0  0  0
  182.7890  178.5260  144.8890 C   0  0  0  0  0  1  0  0  0  0  0  0
  186.2170  178.2360  142.3300 C   0  0  0  0  0  0  0  0  0  0  0  0
  183.9910  178.8490  144.0190 C   0  0  2  0  0  3  0  0  0  0  0  0
  180.1820  181.1050  139.9530 C   0  0  1  0  0  3  0  0  0  0  0  0
  180.8770  179.0970  138.7300 O   0  0  0  0  0  0  0  0  0  0  0  0
  183.5070  179.8470  138.6190 C   0  0  0  0  0  2  0  0  0  0  0  0
  182.5280  180.9260  139.0440 C   0  0  0  0  0  2  0  0  0  0  0  0
  181.2060  178.4100  139.8850 N   0  0  2  0  0  0  0  0  0  0  0  0
  183.6010  178.8400  139.6710 N   0  0  0  0  0  0  0  0  0  0  0  0
  181.0130  179.1210  141.1640 C   0  0  0  0  0  2  0  0  0  0  0  0
  179.8620  180.1040  141.0610 C   0  0  0  0  0  2  0  0  0  0  0  0
  181.0710  180.5020  138.8550 C   0  0  2  0  0  3  0  0  0  0  0  0
  182.5480  177.8250  139.7900 C   0  0  2  0  0  3  0  0  0  0  0  0
  182.6130  176.9370  138.7140 O   0  0  0  0  0  1  0  0  0  0  0  0
  179.0420  181.7740  139.4570 O   0  0  0  0  0  0  0  0  0  0  0  0
  179.4350  182.6710  138.4500 C   0  0  0  0  0  1  0  0  0  0  0  0
  188.7380  178.0740  142.1240 C   0  0  2  0  0  3  0  0  0  0  0  0
  189.6800  177.5740  141.1070 N   0  0  0  0  0  2  0  0  0  0  0  0
  190.1460  176.4090  143.1900 C   0  0  0  0  0  1  0  0  0  0  0  0
  189.1160  176.6620  142.1100 C   0  0  1  0  0  3  0  0  0  0  0  0
  185.3550  178.1030  145.9950 O   0  0  0  0  0  0  0  0  0  0  0  0
  186.2400  178.7580  146.8680 C   0  0  0  0  0  0  0  0  0  0  0  0
  185.9760  179.9040  147.3260 O   0  0  0  0  0  0  0  0  0  0  0  0
  187.7600  177.7680  148.4970 C   0  0  0  0  0  2  0  0  0  0  0  0
  187.5000  178.0930  147.2360 C   0  0  0  0  0  0  0  0  0  0  0  0
  188.5100  177.7700  146.1910 C   0  0  0  0  0  1  0  0  0  0  0  0
  1 11  1  0  0  0  0
  2  4  2  0  0  0  0
  3  7  1  0  0  0  0
  4 29  1  0  0  0  0
  5  8  2  0  0  0  0
  6  3  2  0  0  0  0
  6  5  1  0  0  0  0
  7 10  2  0  0  0  0
  8 10  1  0  0  0  0
  8  1  1  0  0  0  0
 10  2  1  0  0  0  0
 11  4  1  0  0  0  0
 11  9  1  1  0  0  0
 12 23  1  6  0  0  0
 12 19  1  0  0  0  0
 13 20  1  0  0  0  0
 13 16  1  0  0  0  0
 14 15  1  0  0  0  0
 14 17  1  0  0  0  0
 16 18  1  1  0  0  0
 17 21  1  0  0  0  0
 17  5  1  0  0  0  0
 19 18  1  0  0  0  0
 20 15  1  1  0  0  0
 20 12  1  0  0  0  0
 21 22  1  6  0  0  0
 21 16  1  0  0  0  0
 24 23  1  0  0  0  0
 25  7  1  6  0  0  0
 26 28  1  0  0  0  0
 26 25  1  0  0  0  0
 28 25  1  0  0  0  0
 28 27  1  1  0  0  0
 29 30  1  0  0  0  0
 30 33  1  0  0  0  0
 30 31  2  0  0  0  0
 33 32  2  0  0  0  0
 34 33  1  0  0  0  0
M  END
>  <MODEL>
2

>  <REMARK>
 VINA RESULT:      -8.2      3.662      7.109
  Name = 
  6 active torsions:
  status: ('A' for Active; 'I' for Inactive)
    1  A    between atoms: C_4  and  O_23
    2  A    between atoms: C_5  and  O_24
    3  A    between atoms: C_7  and  N_21
    4  A    between atoms: C_10  and  C_12
    5  A    between atoms: C_11  and  C_14
    6  A    between atoms: C_14  and  O_23
                            x       y       z     vdW  Elec       q    Type
                         _______ _______ _______ _____ _____    ______ ____

>  <TORSDO>
F 6

$$$$
=
 OpenBabel11032421113D

 34 38  0  0  1  0  0  0  0  0999 V2000
  183.8350  178.9690  140.3140 C   0  0  0  0  0  2  0  0  0  0  0  0
  186.0040  178.9460  142.1700 C   0  0  0  0  0  3  0  0  0  0  0  0
  183.0840  178.9110  144.5190 N   0  0  0  0  0  0  0  0  0  0  0  0
  186.2730  178.6700  140.8870 C   0  0  0  0  0  0  0  0  0  0  0  0
  182.2170  178.8840  142.2810 C   0  0  0  0  0  0  0  0  0  0  0  0
  182.0260  178.8660  143.6700 C   0  0  0  0  0  3  0  0  0  0  0  0
  184.3680  178.9770  144.0750 C   0  0  0  0  0  0  0  0  0  0  0  0
  183.5410  178.9140  141.7890 C   0  0  0  0  0  0  0  0  0  0  0  0
  185.4840  178.5370  138.5120 C   0  0  0  0  0  1  0  0  0  0  0  0
  184.6220  178.9550  142.6910 C   0  0  0  0  0  0  0  0  0  0  0  0
  185.1450  178.2600  139.9660 C   0  0  2  0  0  3  0  0  0  0  0  0
  180.1430  178.7700  137.4050 C   0  0  1  0  0  3  0  0  0  0  0  0
  178.9310  179.2040  139.4900 O   0  0  0  0  0  0  0  0  0  0  0  0
  180.5360  177.5670  140.9840 C   0  0  0  0  0  2  0  0  0  0  0  0
  180.6760  177.4370  139.4790 C   0  0  0  0  0  2  0  0  0  0  0  0
  179.7760  180.2360  139.8600 N   0  0  2  0  0  0  0  0  0  0  0  0
  181.0680  178.8570  141.4090 N   0  0  0  0  0  0  0  0  0  0  0  0
  180.8850  180.5540  138.9410 C   0  0  0  0  0  2  0  0  0  0  0  0
  180.4920  180.2530  137.5060 C   0  0  0  0  0  2  0  0  0  0  0  0
  179.5910  178.2050  138.7210 C   0  0  2  0  0  3  0  0  0  0  0  0
  180.2500  180.0630  141.2380 C   0  0  2  0  0  3  0  0  0  0  0  0
  179.1690  180.0400  142.1220 O   0  0  0  0  0  1  0  0  0  0  0  0
  179.3510  178.4570  136.2770 O   0  0  0  0  0  0  0  0  0  0  0  0
  179.2020  179.6070  135.4850 C   0  0  0  0  0  1  0  0  0  0  0  0
  185.4900  178.9940  145.0730 C   0  0  2  0  0  3  0  0  0  0  0  0
  185.8820  177.6180  145.4240 N   0  0  0  0  0  2  0  0  0  0  0  0
  185.9100  178.9440  147.4620 C   0  0  0  0  0  1  0  0  0  0  0  0
  185.0490  178.4100  146.3380 C   0  0  1  0  0  3  0  0  0  0  0  0
  187.5900  178.6610  140.3920 O   0  0  0  0  0  0  0  0  0  0  0  0
  188.5970  177.7320  140.7070 C   0  0  0  0  0  0  0  0  0  0  0  0
  189.1770  177.0670  139.8060 O   0  0  0  0  0  0  0  0  0  0  0  0
  189.7670  178.3790  142.7450 C   0  0  0  0  0  2  0  0  0  0  0  0
  188.9630  177.5300  142.1180 C   0  0  0  0  0  0  0  0  0  0  0  0
  188.4290  176.3610  142.8700 C   0  0  0  0  0  1  0  0  0  0  0  0
  1  8  1  0  0  0  0
  2 10  1  0  0  0  0
  4  2  2  0  0  0  0
  5  6  1  0  0  0  0
  6  3  2  0  0  0  0
  7  3  1  0  0  0  0
  8  5  2  0  0  0  0
  8 10  1  0  0  0  0
 10  7  2  0  0  0  0
 11  9  1  6  0  0  0
 11  1  1  0  0  0  0
 11  4  1  0  0  0  0
 12 23  1  6  0  0  0
 12 19  1  0  0  0  0
 12 20  1  0  0  0  0
 13 16  1  0  0  0  0
 14 17  1  0  0  0  0
 15 14  1  0  0  0  0
 16 18  1  6  0  0  0
 16 21  1  0  0  0  0
 17  5  1  0  0  0  0
 19 18  1  0  0  0  0
 20 15  1  1  0  0  0
 20 13  1  0  0  0  0
 21 17  1  0  0  0  0
 21 22  1  1  0  0  0
 24 23  1  0  0  0  0
 25  7  1  6  0  0  0
 25 26  1  0  0  0  0
 25 28  1  0  0  0  0
 26 28  1  0  0  0  0
 28 27  1  1  0  0  0
 29 30  1  0  0  0  0
 29  4  1  0  0  0  0
 30 33  1  0  0  0  0
 31 30  2  0  0  0  0
 33 32  2  0  0  0  0
 33 34  1  0  0  0  0
M  END
>  <MODEL>
3

>  <REMARK>
 VINA RESULT:      -8.1      4.381      7.526
  Name = 
  6 active torsions:
  status: ('A' for Active; 'I' for Inactive)
    1  A    between atoms: C_4  and  O_23
    2  A    between atoms: C_5  and  O_24
    3  A    between atoms: C_7  and  N_21
    4  A    between atoms: C_10  and  C_12
    5  A    between atoms: C_11  and  C_14
    6  A    between atoms: C_14  and  O_23
                            x       y       z     vdW  Elec       q    Type
                         _______ _______ _______ _____ _____    ______ ____

>  <TORSDO>
F 6

$$$$
=
 OpenBabel11032421113D

 34 38  0  0  1  0  0  0  0  0999 V2000
  185.0180  178.1410  143.6680 C   0  0  0  0  0  2  0  0  0  0  0  0
  187.6840  177.5490  144.4970 C   0  0  0  0  0  3  0  0  0  0  0  0
  188.2330  178.2550  140.8580 N   0  0  0  0  0  0  0  0  0  0  0  0
  186.7710  177.7880  145.4470 C   0  0  0  0  0  0  0  0  0  0  0  0
  185.8980  178.5740  141.3160 C   0  0  0  0  0  0  0  0  0  0  0  0
  186.9880  178.5960  140.4360 C   0  0  0  0  0  3  0  0  0  0  0  0
  188.4840  177.8760  142.1390 C   0  0  0  0  0  0  0  0  0  0  0  0
  186.1360  178.2220  142.6640 C   0  0  0  0  0  0  0  0  0  0  0  0
  184.3760  178.1940  146.0640 C   0  0  0  0  0  1  0  0  0  0  0  0
  187.4370  177.8770  143.0780 C   0  0  0  0  0  0  0  0  0  0  0  0
  185.4890  178.5020  145.0780 C   0  0  2  0  0  3  0  0  0  0  0  0
  180.9000  177.2200  140.1880 C   0  0  1  0  0  3  0  0  0  0  0  0
  182.0300  179.2920  139.5250 O   0  0  0  0  0  0  0  0  0  0  0  0
  183.5810  179.3880  141.7770 C   0  0  0  0  0  2  0  0  0  0  0  0
  182.4280  178.4030  141.8100 C   0  0  0  0  0  2  0  0  0  0  0  0
  183.0820  178.6200  138.9270 N   0  0  2  0  0  0  0  0  0  0  0  0
  184.5870  178.9220  140.8270 N   0  0  0  0  0  0  0  0  0  0  0  0
  183.0430  177.1460  138.9650 C   0  0  0  0  0  2  0  0  0  0  0  0
  181.6080  176.6490  138.9620 C   0  0  0  0  0  2  0  0  0  0  0  0
  181.4770  178.5750  140.6230 C   0  0  2  0  0  3  0  0  0  0  0  0
  184.3740  179.1380  139.3920 C   0  0  2  0  0  3  0  0  0  0  0  0
  184.4870  180.4960  139.0880 O   0  0  0  0  0  1  0  0  0  0  0  0
  179.4920  177.2140  140.0740 O   0  0  0  0  0  0  0  0  0  0  0  0
  178.9580  178.2200  140.8970 C   0  0  0  0  0  1  0  0  0  0  0  0
  189.8920  177.5410  142.5430 C   0  0  2  0  0  3  0  0  0  0  0  0
  190.5650  176.7870  141.4720 N   0  0  0  0  0  2  0  0  0  0  0  0
  191.2010  175.7900  143.5960 C   0  0  0  0  0  1  0  0  0  0  0  0
  190.0520  176.0930  142.6590 C   0  0  1  0  0  3  0  0  0  0  0  0
  187.0080  177.4750  146.7990 O   0  0  0  0  0  0  0  0  0  0  0  0
  187.7350  178.2470  147.7210 C   0  0  0  0  0  0  0  0  0  0  0  0
  187.2050  179.2290  148.3110 O   0  0  0  0  0  0  0  0  0  0  0  0
  189.8680  178.6100  148.8430 C   0  0  0  0  0  2  0  0  0  0  0  0
  189.1420  177.9040  147.9860 C   0  0  0  0  0  0  0  0  0  0  0  0
  189.7740  176.7490  147.2910 C   0  0  0  0  0  1  0  0  0  0  0  0
  1 11  1  0  0  0  0
  2  4  2  0  0  0  0
  3  7  1  0  0  0  0
  4 29  1  0  0  0  0
  5  8  2  0  0  0  0
  6  3  2  0  0  0  0
  6  5  1  0  0  0  0
  7 10  2  0  0  0  0
  8 10  1  0  0  0  0
  8  1  1  0  0  0  0
 10  2  1  0  0  0  0
 11  4  1  0  0  0  0
 11  9  1  1  0  0  0
 12 23  1  6  0  0  0
 12 20  1  0  0  0  0
 13 20  1  0  0  0  0
 14 15  1  0  0  0  0
 16 18  1  1  0  0  0
 16 21  1  0  0  0  0
 16 13  1  0  0  0  0
 17  5  1  0  0  0  0
 17 14  1  0  0  0  0
 19 18  1  0  0  0  0
 19 12  1  0  0  0  0
 20 15  1  1  0  0  0
 21 22  1  1  0  0  0
 21 17  1  0  0  0  0
 23 24  1  0  0  0  0
 25  7  1  6  0  0  0
 25 28  1  0  0  0  0
 26 25  1  0  0  0  0
 26 28  1  0  0  0  0
 28 27  1  1  0  0  0
 29 30  1  0  0  0  0
 30 33  1  0  0  0  0
 30 31  2  0  0  0  0
 33 32  2  0  0  0  0
 34 33  1  0  0  0  0
M  END
>  <MODEL>
4

>  <REMARK>
 VINA RESULT:      -8.0      3.480      6.406
  Name = 
  6 active torsions:
  status: ('A' for Active; 'I' for Inactive)
    1  A    between atoms: C_4  and  O_23
    2  A    between atoms: C_5  and  O_24
    3  A    between atoms: C_7  and  N_21
    4  A    between atoms: C_10  and  C_12
    5  A    between atoms: C_11  and  C_14
    6  A    between atoms: C_14  and  O_23
                            x       y       z     vdW  Elec       q    Type
                         _______ _______ _______ _____ _____    ______ ____

>  <TORSDO>
F 6

$$$$
=
 OpenBabel11032421113D

 34 38  0  0  1  0  0  0  0  0999 V2000
  187.5250  178.2890  142.2040 C   0  0  0  0  0  2  0  0  0  0  0  0
  185.7630  178.7500  140.0060 C   0  0  0  0  0  3  0  0  0  0  0  0
  188.7910  177.4700  138.2070 N   0  0  0  0  0  0  0  0  0  0  0  0
  185.2380  178.7370  141.2390 C   0  0  0  0  0  0  0  0  0  0  0  0
  189.2740  177.4360  140.5580 C   0  0  0  0  0  0  0  0  0  0  0  0
  189.6390  177.1850  139.2280 C   0  0  0  0  0  3  0  0  0  0  0  0
  187.5600  178.0080  138.4160 C   0  0  0  0  0  0  0  0  0  0  0  0
  187.9860  177.9590  140.8090 C   0  0  0  0  0  0  0  0  0  0  0  0
  185.5930  178.6470  143.7170 C   0  0  0  0  0  1  0  0  0  0  0  0
  187.1230  178.2410  139.7330 C   0  0  0  0  0  0  0  0  0  0  0  0
  186.0160  178.0970  142.3670 C   0  0  2  0  0  3  0  0  0  0  0  0
  190.4990  177.3050  145.7130 C   0  0  1  0  0  3  0  0  0  0  0  0
  192.0530  177.0040  143.8420 O   0  0  0  0  0  0  0  0  0  0  0  0
  190.1810  175.8200  142.2340 C   0  0  0  0  0  2  0  0  0  0  0  0
  189.8050  175.9580  143.6970 C   0  0  0  0  0  2  0  0  0  0  0  0
  191.6910  178.1990  143.2450 N   0  0  2  0  0  0  0  0  0  0  0  0
  190.2090  177.1410  141.6160 N   0  0  0  0  0  0  0  0  0  0  0  0
  190.6580  179.0020  143.9280 C   0  0  0  0  0  2  0  0  0  0  0  0
  190.7220  178.7890  145.4290 C   0  0  0  0  0  2  0  0  0  0  0  0
  190.9810  176.4070  144.5650 C   0  0  2  0  0  3  0  0  0  0  0  0
  191.3750  178.0080  141.8250 C   0  0  2  0  0  3  0  0  0  0  0  0
  192.4830  177.4940  141.1480 O   0  0  0  0  0  1  0  0  0  0  0  0
  190.9670  176.9020  146.9830 O   0  0  0  0  0  0  0  0  0  0  0  0
  192.0230  175.9910  146.8180 C   0  0  0  0  0  1  0  0  0  0  0  0
  186.6630  178.2680  137.2400 C   0  0  2  0  0  3  0  0  0  0  0  0
  185.9140  177.0500  136.8880 N   0  0  0  0  0  2  0  0  0  0  0  0
  186.6120  178.1190  134.8190 C   0  0  0  0  0  1  0  0  0  0  0  0
  187.0820  177.4590  136.0970 C   0  0  1  0  0  3  0  0  0  0  0  0
  183.9430  179.2230  141.4970 O   0  0  0  0  0  0  0  0  0  0  0  0
  182.7400  178.5070  141.3680 C   0  0  0  0  0  0  0  0  0  0  0  0
  182.5790  177.6630  140.4440 O   0  0  0  0  0  0  0  0  0  0  0  0
  181.9060  179.0050  143.6040 C   0  0  0  0  0  2  0  0  0  0  0  0
  181.6510  178.7660  142.3240 C   0  0  0  0  0  0  0  0  0  0  0  0
  180.2350  178.7660  141.8630 C   0  0  0  0  0  1  0  0  0  0  0  0
  1 11  1  0  0  0  0
  2  4  2  0  0  0  0
  3  7  2  0  0  0  0
  3  6  1  0  0  0  0
  4 29  1  0  0  0  0
  4 11  1  0  0  0  0
  5  8  1  0  0  0  0
  5 17  1  0  0  0  0
  6  5  2  0  0  0  0
  7 10  1  0  0  0  0
  8  1  1  0  0  0  0
 10  2  1  0  0  0  0
 10  8  2  0  0  0  0
 11  9  1  1  0  0  0
 12 23  1  1  0  0  0
 13 20  1  0  0  0  0
 14 15  1  0  0  0  0
 16 13  1  0  0  0  0
 16 18  1  1  0  0  0
 17 21  1  0  0  0  0
 17 14  1  0  0  0  0
 18 19  1  0  0  0  0
 19 12  1  0  0  0  0
 20 15  1  6  0  0  0
 20 12  1  0  0  0  0
 21 22  1  6  0  0  0
 21 16  1  0  0  0  0
 24 23  1  0  0  0  0
 25  7  1  1  0  0  0
 26 25  1  0  0  0  0
 28 27  1  6  0  0  0
 28 26  1  0  0  0  0
 28 25  1  0  0  0  0
 30 29  1  0  0  0  0
 30 33  1  0  0  0  0
 31 30  2  0  0  0  0
 33 32  2  0  0  0  0
 34 33  1  0  0  0  0
M  END
>  <MODEL>
5

>  <REMARK>
 VINA RESULT:      -7.8      2.897      6.650
  Name = 
  6 active torsions:
  status: ('A' for Active; 'I' for Inactive)
    1  A    between atoms: C_4  and  O_23
    2  A    between atoms: C_5  and  O_24
    3  A    between atoms: C_7  and  N_21
    4  A    between atoms: C_10  and  C_12
    5  A    between atoms: C_11  and  C_14
    6  A    between atoms: C_14  and  O_23
                            x       y       z     vdW  Elec       q    Type
                         _______ _______ _______ _____ _____    ______ ____

>  <TORSDO>
F 6

$$$$
=
 OpenBabel11032421113D

 34 38  0  0  1  0  0  0  0  0999 V2000
  187.2230  178.2800  140.5220 C   0  0  0  0  0  2  0  0  0  0  0  0
  188.3450  178.2410  143.1470 C   0  0  0  0  0  3  0  0  0  0  0  0
  184.6890  178.3700  143.9600 N   0  0  0  0  0  0  0  0  0  0  0  0
  189.1420  177.9180  142.1190 C   0  0  0  0  0  0  0  0  0  0  0  0
  184.9000  178.3060  141.5700 C   0  0  0  0  0  0  0  0  0  0  0  0
  184.1150  178.3350  142.7310 C   0  0  0  0  0  3  0  0  0  0  0  0
  186.0380  178.3810  144.1300 C   0  0  0  0  0  0  0  0  0  0  0  0
  186.3050  178.2780  141.7160 C   0  0  0  0  0  0  0  0  0  0  0  0
  189.4790  177.7420  139.6430 C   0  0  0  0  0  1  0  0  0  0  0  0
  186.8760  178.3110  143.0020 C   0  0  0  0  0  0  0  0  0  0  0  0
  188.5200  177.5190  140.7990 C   0  0  2  0  0  3  0  0  0  0  0  0
  183.7240  175.8160  137.0410 C   0  0  1  0  0  3  0  0  0  0  0  0
  183.3900  178.1970  137.5210 O   0  0  0  0  0  0  0  0  0  0  0  0
  182.8910  177.7840  140.1790 C   0  0  0  0  0  2  0  0  0  0  0  0
  182.8790  176.5450  139.3040 C   0  0  0  0  0  2  0  0  0  0  0  0
  184.7110  178.3910  137.8820 N   0  0  2  0  0  0  0  0  0  0  0  0
  184.2550  178.2910  140.2800 N   0  0  0  0  0  0  0  0  0  0  0  0
  185.6010  177.2150  137.8230 C   0  0  0  0  0  2  0  0  0  0  0  0
  185.1520  176.2600  136.7330 C   0  0  0  0  0  2  0  0  0  0  0  0
  182.9300  176.8810  137.8120 C   0  0  2  0  0  3  0  0  0  0  0  0
  184.8120  179.0790  139.1750 C   0  0  2  0  0  3  0  0  0  0  0  0
  184.1840  180.3250  139.1080 O   0  0  0  0  0  1  0  0  0  0  0  0
  183.0410  175.3050  135.9150 O   0  0  0  0  0  0  0  0  0  0  0  0
  181.9600  174.5190  136.3490 C   0  0  0  0  0  1  0  0  0  0  0  0
  186.6040  178.3900  145.5210 C   0  0  2  0  0  3  0  0  0  0  0  0
  186.1510  177.2030  146.2650 N   0  0  0  0  0  2  0  0  0  0  0  0
  186.0790  179.1020  147.7810 C   0  0  0  0  0  1  0  0  0  0  0  0
  185.5260  178.5100  146.5030 C   0  0  1  0  0  3  0  0  0  0  0  0
  190.5400  177.8520  142.2590 O   0  0  0  0  0  0  0  0  0  0  0  0
  191.2700  177.9960  143.4520 C   0  0  0  0  0  0  0  0  0  0  0  0
  191.7570  179.1100  143.7890 O   0  0  0  0  0  0  0  0  0  0  0  0
  191.6510  175.6110  143.7800 C   0  0  0  0  0  2  0  0  0  0  0  0
  191.4760  176.8160  144.3070 C   0  0  0  0  0  0  0  0  0  0  0  0
  191.4940  176.9600  145.7890 C   0  0  0  0  0  1  0  0  0  0  0  0
  1 11  1  0  0  0  0
  1  8  1  0  0  0  0
  3  7  1  0  0  0  0
  4 29  1  0  0  0  0
  4  2  2  0  0  0  0
  5  8  2  0  0  0  0
  5  6  1  0  0  0  0
  6  3  2  0  0  0  0
  8 10  1  0  0  0  0
 10  2  1  0  0  0  0
 10  7  2  0  0  0  0
 11  9  1  6  0  0  0
 11  4  1  0  0  0  0
 12 23  1  6  0  0  0
 12 20  1  0  0  0  0
 13 20  1  0  0  0  0
 13 16  1  0  0  0  0
 14 17  1  0  0  0  0
 15 14  1  0  0  0  0
 16 18  1  1  0  0  0
 16 21  1  0  0  0  0
 17  5  1  0  0  0  0
 19 12  1  0  0  0  0
 19 18  1  0  0  0  0
 20 15  1  1  0  0  0
 21 22  1  6  0  0  0
 21 17  1  0  0  0  0
 23 24  1  0  0  0  0
 25  7  1  6  0  0  0
 25 26  1  0  0  0  0
 25 28  1  0  0  0  0
 26 28  1  0  0  0  0
 28 27  1  1  0  0  0
 29 30  1  0  0  0  0
 30 31  2  0  0  0  0
 30 33  1  0  0  0  0
 32 33  2  0  0  0  0
 33 34  1  0  0  0  0
M  END
>  <MODEL>
6

>  <REMARK>
 VINA RESULT:      -7.8      2.997      4.767
  Name = 
  6 active torsions:
  status: ('A' for Active; 'I' for Inactive)
    1  A    between atoms: C_4  and  O_23
    2  A    between atoms: C_5  and  O_24
    3  A    between atoms: C_7  and  N_21
    4  A    between atoms: C_10  and  C_12
    5  A    between atoms: C_11  and  C_14
    6  A    between atoms: C_14  and  O_23
                            x       y       z     vdW  Elec       q    Type
                         _______ _______ _______ _____ _____    ______ ____

>  <TORSDO>
F 6

$$$$
=
 OpenBabel11032421113D

 34 38  0  0  1  0  0  0  0  0999 V2000
  187.2610  177.7170  140.6850 C   0  0  0  0  0  2  0  0  0  0  0  0
  187.6370  177.5310  143.5090 C   0  0  0  0  0  3  0  0  0  0  0  0
  191.1590  177.0760  142.3120 N   0  0  0  0  0  0  0  0  0  0  0  0
  186.4720  178.0190  143.0620 C   0  0  0  0  0  0  0  0  0  0  0  0
  189.7750  177.4240  140.3820 C   0  0  0  0  0  0  0  0  0  0  0  0
  191.0310  177.2140  140.9670 C   0  0  0  0  0  3  0  0  0  0  0  0
  190.0910  177.1330  143.1510 C   0  0  0  0  0  0  0  0  0  0  0  0
  188.6510  177.5250  141.2320 C   0  0  0  0  0  0  0  0  0  0  0  0
  184.9490  178.4950  141.1310 C   0  0  0  0  0  1  0  0  0  0  0  0
  188.8110  177.3840  142.6240 C   0  0  0  0  0  0  0  0  0  0  0  0
  186.3790  178.5240  141.6390 C   0  0  2  0  0  3  0  0  0  0  0  0
  186.8510  177.4440  135.9610 C   0  0  1  0  0  3  0  0  0  0  0  0
  189.2970  177.3500  136.0860 O   0  0  0  0  0  0  0  0  0  0  0  0
  189.4260  178.8580  138.3660 C   0  0  0  0  0  2  0  0  0  0  0  0
  188.0860  178.8480  137.6540 C   0  0  0  0  0  2  0  0  0  0  0  0
  189.2920  176.2420  136.9150 N   0  0  2  0  0  0  0  0  0  0  0  0
  189.6730  177.5430  138.9480 N   0  0  0  0  0  0  0  0  0  0  0  0
  187.9750  175.6990  137.2980 C   0  0  0  0  0  2  0  0  0  0  0  0
  186.9580  175.9390  136.1970 C   0  0  0  0  0  2  0  0  0  0  0  0
  188.1590  178.1830  136.2780 C   0  0  2  0  0  3  0  0  0  0  0  0
  190.1500  176.4550  138.0880 C   0  0  2  0  0  3  0  0  0  0  0  0
  191.4650  176.7000  137.6860 O   0  0  0  0  0  1  0  0  0  0  0  0
  186.3040  177.7750  134.7020 O   0  0  0  0  0  0  0  0  0  0  0  0
  185.0210  177.2120  134.5940 C   0  0  0  0  0  1  0  0  0  0  0  0
  190.3120  177.0020  144.6310 C   0  0  2  0  0  3  0  0  0  0  0  0
  191.2500  178.0350  145.1010 N   0  0  0  0  0  2  0  0  0  0  0  0
  191.7920  175.9610  146.2470 C   0  0  0  0  0  1  0  0  0  0  0  0
  191.7050  176.6530  144.9040 C   0  0  1  0  0  3  0  0  0  0  0  0
  185.3550  178.1580  143.9060 O   0  0  0  0  0  0  0  0  0  0  0  0
  185.2280  179.0490  144.9860 C   0  0  0  0  0  0  0  0  0  0  0  0
  184.5840  180.1280  144.8700 O   0  0  0  0  0  0  0  0  0  0  0  0
  186.2840  177.4780  146.5220 C   0  0  0  0  0  2  0  0  0  0  0  0
  185.8740  178.7140  146.2650 C   0  0  0  0  0  0  0  0  0  0  0  0
  186.0820  179.7670  147.2970 C   0  0  0  0  0  1  0  0  0  0  0  0
  1  8  1  0  0  0  0
  1 11  1  0  0  0  0
  3  7  1  0  0  0  0
  4  2  2  0  0  0  0
  4 29  1  0  0  0  0
  5  6  1  0  0  0  0
  5  8  2  0  0  0  0
  6  3  2  0  0  0  0
  8 10  1  0  0  0  0
 10  7  2  0  0  0  0
 10  2  1  0  0  0  0
 11  9  1  6  0  0  0
 11  4  1  0  0  0  0
 12 23  1  6  0  0  0
 12 19  1  0  0  0  0
 12 20  1  0  0  0  0
 13 20  1  0  0  0  0
 13 16  1  0  0  0  0
 14 17  1  0  0  0  0
 15 14  1  0  0  0  0
 16 18  1  1  0  0  0
 16 21  1  0  0  0  0
 17  5  1  0  0  0  0
 19 18  1  0  0  0  0
 20 15  1  1  0  0  0
 21 22  1  6  0  0  0
 21 17  1  0  0  0  0
 24 23  1  0  0  0  0
 25  7  1  6  0  0  0
 25 28  1  0  0  0  0
 25 26  1  0  0  0  0
 28 26  1  0  0  0  0
 28 27  1  1  0  0  0
 29 30  1  0  0  0  0
 30 33  1  0  0  0  0
 31 30  2  0  0  0  0
 33 32  2  0  0  0  0
 33 34  1  0  0  0  0
M  END
>  <MODEL>
7

>  <REMARK>
 VINA RESULT:      -7.8      2.509      4.695
  Name = 
  6 active torsions:
  status: ('A' for Active; 'I' for Inactive)
    1  A    between atoms: C_4  and  O_23
    2  A    between atoms: C_5  and  O_24
    3  A    between atoms: C_7  and  N_21
    4  A    between atoms: C_10  and  C_12
    5  A    between atoms: C_11  and  C_14
    6  A    between atoms: C_14  and  O_23
                            x       y       z     vdW  Elec       q    Type
                         _______ _______ _______ _____ _____    ______ ____

>  <TORSDO>
F 6

$$$$
=
 OpenBabel11032421113D

 34 38  0  0  1  0  0  0  0  0999 V2000
  186.3190  178.6420  140.3400 C   0  0  0  0  0  2  0  0  0  0  0  0
  187.1160  178.2040  143.0460 C   0  0  0  0  0  3  0  0  0  0  0  0
  183.3930  178.3740  143.4410 N   0  0  0  0  0  0  0  0  0  0  0  0
  188.0220  177.9890  142.0830 C   0  0  0  0  0  0  0  0  0  0  0  0
  183.8880  178.6230  141.1050 C   0  0  0  0  0  0  0  0  0  0  0  0
  182.9700  178.5290  142.1600 C   0  0  0  0  0  3  0  0  0  0  0  0
  184.7110  178.3070  143.7650 C   0  0  0  0  0  0  0  0  0  0  0  0
  185.2640  178.5180  141.4070 C   0  0  0  0  0  0  0  0  0  0  0  0
  188.6500  178.1340  139.6620 C   0  0  0  0  0  1  0  0  0  0  0  0
  185.6770  178.3530  142.7430 C   0  0  0  0  0  0  0  0  0  0  0  0
  187.5540  177.7970  140.6570 C   0  0  2  0  0  3  0  0  0  0  0  0
  180.0730  180.1530  137.7580 C   0  0  1  0  0  3  0  0  0  0  0  0
  182.0920  178.8870  137.1820 O   0  0  0  0  0  0  0  0  0  0  0  0
  183.6230  180.0930  139.1020 C   0  0  0  0  0  2  0  0  0  0  0  0
  182.2840  180.7470  138.8170 C   0  0  0  0  0  2  0  0  0  0  0  0
  181.8370  177.9010  138.1190 N   0  0  2  0  0  0  0  0  0  0  0  0
  183.4030  178.8090  139.7600 N   0  0  0  0  0  0  0  0  0  0  0  0
  180.6180  178.0530  138.9360 C   0  0  0  0  0  2  0  0  0  0  0  0
  179.5390  178.7780  138.1540 C   0  0  0  0  0  2  0  0  0  0  0  0
  181.5980  180.1620  137.5810 C   0  0  2  0  0  3  0  0  0  0  0  0
  183.0180  177.6460  138.9530 C   0  0  2  0  0  3  0  0  0  0  0  0
  184.0910  177.2350  138.1590 O   0  0  0  0  0  1  0  0  0  0  0  0
  179.3740  180.7360  136.6790 O   0  0  0  0  0  0  0  0  0  0  0  0
  180.2730  181.4710  135.8890 C   0  0  0  0  0  1  0  0  0  0  0  0
  185.1050  178.1050  145.2010 C   0  0  2  0  0  3  0  0  0  0  0  0
  184.1770  178.8210  146.0910 N   0  0  0  0  0  2  0  0  0  0  0  0
  186.4250  179.1150  146.9690 C   0  0  0  0  0  1  0  0  0  0  0  0
  185.5030  179.3780  145.7980 C   0  0  1  0  0  3  0  0  0  0  0  0
  189.3910  177.8470  142.3730 O   0  0  0  0  0  0  0  0  0  0  0  0
  189.9800  176.8440  143.1620 C   0  0  0  0  0  0  0  0  0  0  0  0
  190.1790  175.6850  142.7030 O   0  0  0  0  0  0  0  0  0  0  0  0
  191.6020  177.4690  144.8710 C   0  0  0  0  0  2  0  0  0  0  0  0
  190.3520  177.1560  144.5510 C   0  0  0  0  0  0  0  0  0  0  0  0
  189.3230  177.1280  145.6270 C   0  0  0  0  0  1  0  0  0  0  0  0
  1 11  1  0  0  0  0
  1  8  1  0  0  0  0
  3  7  1  0  0  0  0
  4 29  1  0  0  0  0
  4  2  2  0  0  0  0
  5  8  2  0  0  0  0
  5  6  1  0  0  0  0
  6  3  2  0  0  0  0
  8 10  1  0  0  0  0
 10  2  1  0  0  0  0
 10  7  2  0  0  0  0
 11  9  1  6  0  0  0
 11  4  1  0  0  0  0
 12 23  1  6  0  0  0
 12 19  1  0  0  0  0
 13 20  1  0  0  0  0
 13 16  1  0  0  0  0
 14 17  1  0  0  0  0
 15 14  1  0  0  0  0
 16 18  1  1  0  0  0
 16 21  1  0  0  0  0
 17  5  1  0  0  0  0
 19 18  1  0  0  0  0
 20 12  1  0  0  0  0
 20 15  1  1  0  0  0
 21 22  1  6  0  0  0
 21 17  1  0  0  0  0
 24 23  1  0  0  0  0
 25  7  1  6  0  0  0
 25 28  1  0  0  0  0
 25 26  1  0  0  0  0
 28 26  1  0  0  0  0
 28 27  1  1  0  0  0
 29 30  1  0  0  0  0
 30 33  1  0  0  0  0
 31 30  2  0  0  0  0
 33 32  2  0  0  0  0
 33 34  1  0  0  0  0
M  END
>  <MODEL>
8

>  <REMARK>
 VINA RESULT:      -7.7      3.704      6.360
  Name = 
  6 active torsions:
  status: ('A' for Active; 'I' for Inactive)
    1  A    between atoms: C_4  and  O_23
    2  A    between atoms: C_5  and  O_24
    3  A    between atoms: C_7  and  N_21
    4  A    between atoms: C_10  and  C_12
    5  A    between atoms: C_11  and  C_14
    6  A    between atoms: C_14  and  O_23
                            x       y       z     vdW  Elec       q    Type
                         _______ _______ _______ _____ _____    ______ ____

>  <TORSDO>
F 6

$$$$
=
 OpenBabel11032421113D

 34 38  0  0  1  0  0  0  0  0999 V2000
  187.9300  178.5800  142.5610 C   0  0  0  0  0  2  0  0  0  0  0  0
  186.7270  178.3600  139.9810 C   0  0  0  0  0  3  0  0  0  0  0  0
  190.1750  177.0870  139.2470 N   0  0  0  0  0  0  0  0  0  0  0  0
  185.9220  178.5480  141.0350 C   0  0  0  0  0  0  0  0  0  0  0  0
  190.0750  177.6060  141.5880 C   0  0  0  0  0  0  0  0  0  0  0  0
  190.7660  177.1240  140.4680 C   0  0  0  0  0  3  0  0  0  0  0  0
  188.8980  177.5110  139.0470 C   0  0  0  0  0  0  0  0  0  0  0  0
  188.7340  178.0180  141.4190 C   0  0  0  0  0  0  0  0  0  0  0  0
  185.6710  179.0250  143.4820 C   0  0  0  0  0  1  0  0  0  0  0  0
  188.1420  177.9650  140.1420 C   0  0  0  0  0  0  0  0  0  0  0  0
  186.4420  178.2540  142.4250 C   0  0  2  0  0  3  0  0  0  0  0  0
  190.6380  175.8400  146.5540 C   0  0  1  0  0  3  0  0  0  0  0  0
  191.6640  177.8520  145.6010 O   0  0  0  0  0  0  0  0  0  0  0  0
  191.8890  176.7780  143.0940 C   0  0  0  0  0  2  0  0  0  0  0  0
  191.5590  175.8000  144.2050 C   0  0  0  0  0  2  0  0  0  0  0  0
  190.4510  178.3690  145.1830 N   0  0  2  0  0  0  0  0  0  0  0  0
  190.7430  177.6530  142.8650 N   0  0  0  0  0  0  0  0  0  0  0  0
  189.2470  177.5650  145.4650 C   0  0  0  0  0  2  0  0  0  0  0  0
  189.4310  176.7570  146.7370 C   0  0  0  0  0  2  0  0  0  0  0  0
  191.6830  176.4280  145.5950 C   0  0  2  0  0  3  0  0  0  0  0  0
  190.5070  178.7800  143.7750 C   0  0  2  0  0  3  0  0  0  0  0  0
  191.4900  179.7560  143.5950 O   0  0  0  0  0  1  0  0  0  0  0  0
  191.1820  175.3800  147.7730 O   0  0  0  0  0  0  0  0  0  0  0  0
  192.4930  175.8680  147.9060 C   0  0  0  0  0  1  0  0  0  0  0  0
  188.2980  177.4120  137.6730 C   0  0  2  0  0  3  0  0  0  0  0  0
  187.9870  176.0080  137.3520 N   0  0  0  0  0  2  0  0  0  0  0  0
  188.9090  177.0430  135.3540 C   0  0  0  0  0  1  0  0  0  0  0  0
  189.1810  176.6520  136.7900 C   0  0  1  0  0  3  0  0  0  0  0  0
  184.5740  178.9230  140.8800 O   0  0  0  0  0  0  0  0  0  0  0  0
  183.9350  179.2650  139.6760 C   0  0  0  0  0  0  0  0  0  0  0  0
  184.1820  180.3560  139.0930 O   0  0  0  0  0  0  0  0  0  0  0  0
  182.2850  178.6370  137.9950 C   0  0  0  0  0  2  0  0  0  0  0  0
  182.9490  178.3340  139.1030 C   0  0  0  0  0  0  0  0  0  0  0  0
  182.6840  177.0260  139.7620 C   0  0  0  0  0  1  0  0  0  0  0  0
  2 10  1  0  0  0  0
  2  4  2  0  0  0  0
  3  6  1  0  0  0  0
  4 11  1  0  0  0  0
  5 17  1  0  0  0  0
  6  5  2  0  0  0  0
  7  3  2  0  0  0  0
  7 10  1  0  0  0  0
  8  5  1  0  0  0  0
  8  1  1  0  0  0  0
 10  8  2  0  0  0  0
 11  1  1  0  0  0  0
 11  9  1  1  0  0  0
 12 19  1  0  0  0  0
 12 23  1  1  0  0  0
 14 15  1  0  0  0  0
 16 18  1  6  0  0  0
 16 13  1  0  0  0  0
 17 14  1  0  0  0  0
 17 21  1  0  0  0  0
 18 19  1  0  0  0  0
 20 15  1  6  0  0  0
 20 13  1  0  0  0  0
 20 12  1  0  0  0  0
 21 22  1  1  0  0  0
 21 16  1  0  0  0  0
 23 24  1  0  0  0  0
 25  7  1  1  0  0  0
 26 25  1  0  0  0  0
 28 27  1  6  0  0  0
 28 26  1  0  0  0  0
 28 25  1  0  0  0  0
 29  4  1  0  0  0  0
 30 29  1  0  0  0  0
 31 30  2  0  0  0  0
 32 33  2  0  0  0  0
 33 30  1  0  0  0  0
 33 34  1  0  0  0  0
M  END
>  <MODEL>
9

>  <REMARK>
 VINA RESULT:      -7.6      3.174      7.500
  Name = 
  6 active torsions:
  status: ('A' for Active; 'I' for Inactive)
    1  A    between atoms: C_4  and  O_23
    2  A    between atoms: C_5  and  O_24
    3  A    between atoms: C_7  and  N_21
    4  A    between atoms: C_10  and  C_12
    5  A    between atoms: C_11  and  C_14
    6  A    between atoms: C_14  and  O_23
                            x       y       z     vdW  Elec       q    Type
                         _______ _______ _______ _____ _____    ______ ____

>  <TORSDO>
F 6

$$$$
