=
 OpenBabel11042412443D

 59 64  0  0  1  0  0  0  0  0999 V2000
  187.1500  177.9090  137.5980 C   0  0  0  0  0  3  0  0  0  0  0  0
  186.2370  177.3280  136.8130 C   0  0  0  0  0  0  0  0  0  0  0  0
  188.2590  174.5060  135.1650 C   0  0  0  0  0  1  0  0  0  0  0  0
  188.6060  177.5340  137.5560 C   0  0  2  0  0  3  0  0  0  0  0  0
  188.7790  176.1670  137.0200 N   0  0  0  0  0  0  0  0  0  0  0  0
  187.8500  175.6610  136.0310 C   0  0  0  0  0  0  0  0  0  0  0  0
  186.6220  176.2190  135.9150 C   0  0  0  0  0  0  0  0  0  0  0  0
  188.3490  177.2920  140.0540 C   0  0  0  0  0  2  0  0  0  0  0  0
  189.2920  177.7280  138.9290 C   0  0  1  0  0  3  0  0  0  0  0  0
  191.2580  177.2410  140.4110 C   0  0  0  0  0  2  0  0  0  0  0  0
  190.6060  176.9450  139.0650 C   0  0  0  0  0  2  0  0  0  0  0  0
  190.3130  176.8510  141.5470 C   0  0  2  0  0  3  0  0  0  0  0  0
  188.9750  177.5830  141.4140 C   0  0  0  0  0  2  0  0  0  0  0  0
  190.1040  177.3550  144.0080 N   0  0  0  0  0  2  0  0  0  0  0  0
  192.2320  177.1540  142.9930 N   0  0  0  0  0  2  0  0  0  0  0  0
  190.9440  177.1250  142.8740 C   0  0  0  0  0  0  0  0  0  0  0  0
  190.5820  176.6740  147.5750 C   0  0  2  0  0  3  0  0  0  0  0  0
  190.7110  176.2950  146.1040 C   0  0  0  0  0  2  0  0  0  0  0  0
  189.6570  178.4470  146.1440 C   0  0  0  0  0  2  0  0  0  0  0  0
  190.6190  177.5960  145.3470 C   0  0  2  0  0  3  0  0  0  0  0  0
  189.7160  177.9470  147.5860 C   0  0  1  0  0  3  0  0  0  0  0  0
  191.9060  176.9410  148.1550 N   0  0  2  0  0  0  0  0  0  0  0  0
  192.5240  175.6600  148.5160 C   0  0  0  0  0  2  0  0  0  0  0  0
  193.0980  178.1160  149.9470 C   0  0  0  0  0  2  0  0  0  0  0  0
  194.1030  176.9930  149.8750 C   0  0  0  0  0  3  0  0  0  0  0  0
  191.7310  177.6820  149.4080 C   0  0  0  0  0  2  0  0  0  0  0  0
  193.8600  175.8740  149.1790 C   0  0  0  0  0  3  0  0  0  0  0  0
  188.3660  177.6570  148.0770 N   0  0  0  0  0  0  0  0  0  0  0  0
  188.2750  178.1260  149.3470 O   0  0  0  0  0  1  0  0  0  0  0  0
  187.4210  178.4430  147.2900 C   0  0  0  0  0  2  0  0  0  0  0  0
  185.5000  178.2570  145.7120 C   0  0  0  0  0  1  0  0  0  0  0  0
  186.2650  177.5730  146.8270 C   0  0  0  0  0  2  0  0  0  0  0  0
  185.5830  175.7720  134.9130 C   0  0  2  0  0  3  0  0  0  0  0  0
  184.4960  176.7900  134.5940 C   0  0  0  0  0  1  0  0  0  0  0  0
  185.0910  174.3350  135.1080 C   0  0  0  0  0  2  0  0  0  0  0  0
  183.5870  174.2270  135.3100 C   0  0  0  0  0  2  0  0  0  0  0  0
  183.2630  174.5610  136.6270 O   0  0  0  0  0  0  0  0  0  0  0  0
  181.0190  179.3050  136.5970 C   0  0  0  0  0  1  0  0  0  0  0  0
  181.0890  175.9060  138.3770 C   0  0  0  0  0  0  0  0  0  0  0  0
  181.4440  174.6420  138.1330 C   0  0  0  0  0  3  0  0  0  0  0  0
  180.4950  178.2690  137.5720 C   0  0  0  0  0  0  0  0  0  0  0  0
  181.1460  176.9080  137.2450 C   0  0  2  0  0  3  0  0  0  0  0  0
  180.4630  177.7540  140.0890 C   0  0  1  0  0  3  0  0  0  0  0  0
  180.7780  176.3250  139.7610 C   0  0  0  0  0  0  0  0  0  0  0  0
  180.7770  175.4780  140.6930 O   0  0  0  0  0  0  0  0  0  0  0  0
  181.1020  174.8710  135.6440 C   0  0  2  0  0  3  0  0  0  0  0  0
  181.9190  174.2180  136.7720 C   0  0  1  0  0  3  0  0  0  0  0  0
  180.8850  178.7270  138.9800 C   0  0  0  0  0  2  0  0  0  0  0  0
  178.9760  178.2250  137.4340 C   0  0  0  0  0  1  0  0  0  0  0  0
  180.6040  176.3030  135.9360 C   0  0  0  0  0  2  0  0  0  0  0  0
  180.5200  172.5930  134.6930 C   0  0  0  0  0  1  0  0  0  0  0  0
  178.9310  173.7510  136.2180 C   0  0  0  0  0  1  0  0  0  0  0  0
  179.9910  173.9430  135.1510 C   0  0  0  0  0  3  0  0  0  0  0  0
  178.9320  178.8810  141.4610 C   0  0  0  0  0  1  0  0  0  0  0  0
  179.0480  177.8960  140.3990 N   0  0  0  0  0  2  0  0  0  0  0  0
  184.9010  177.7450  136.8410 O   0  0  0  0  0  0  0  0  0  0  0  0
  184.2070  178.0410  138.0430 C   0  0  0  0  0  1  0  0  0  0  0  0
  189.8340  173.9670  137.0250 C   0  0  0  0  0  1  0  0  0  0  0  0
  190.0350  175.4530  137.2400 C   0  0  0  0  0  2  0  0  0  0  0  0
  2 56  1  0  0  0  0
  2  1  2  0  0  0  0
  3  6  1  0  0  0  0
  4  1  1  1  0  0  0
  4  9  1  0  0  0  0
  5 59  1  0  0  0  0
  5  4  1  0  0  0  0
  6  5  1  0  0  0  0
  7  6  2  0  0  0  0
  7  2  1  0  0  0  0
  8 13  1  0  0  0  0
  9 11  1  6  0  0  0
  9  8  1  0  0  0  0
 10 12  1  0  0  0  0
 11 10  1  0  0  0  0
 12 16  1  1  0  0  0
 13 12  1  0  0  0  0
 16 15  2  0  0  0  0
 16 14  1  0  0  0  0
 17 18  1  6  0  0  0
 17 21  1  0  0  0  0
 17 22  1  0  0  0  0
 19 21  1  0  0  0  0
 20 14  1  6  0  0  0
 20 18  1  0  0  0  0
 20 19  1  0  0  0  0
 21 28  1  6  0  0  0
 22 23  1  1  0  0  0
 22 26  1  0  0  0  0
 23 27  1  0  0  0  0
 25 24  1  0  0  0  0
 26 24  1  0  0  0  0
 27 25  2  0  0  0  0
 28 29  1  0  0  0  0
 30 28  1  0  0  0  0
 31 32  1  0  0  0  0
 32 30  1  0  0  0  0
 33 34  1  1  0  0  0
 33 35  1  0  0  0  0
 33  7  1  0  0  0  0
 35 36  1  0  0  0  0
 36 37  1  0  0  0  0
 38 41  1  0  0  0  0
 39 44  1  0  0  0  0
 40 39  2  0  0  0  0
 41 48  1  0  0  0  0
 42 50  1  6  0  0  0
 42 41  1  0  0  0  0
 42 39  1  0  0  0  0
 43 55  1  6  0  0  0
 44 43  1  0  0  0  0
 44 45  2  0  0  0  0
 46 53  1  1  0  0  0
 46 50  1  0  0  0  0
 46 47  1  0  0  0  0
 47 37  1  6  0  0  0
 47 40  1  0  0  0  0
 48 43  1  0  0  0  0
 49 41  1  0  0  0  0
 51 53  1  0  0  0  0
 53 52  1  0  0  0  0
 55 54  1  0  0  0  0
 56 57  1  0  0  0  0
 58 59  1  0  0  0  0
M  END
>  <MODEL>
1

>  <REMARK>
 VINA RESULT:      -4.8      0.000      0.000
  Name = 
  16 active torsions:
  status: ('A' for Active; 'I' for Inactive)
    1  A    between atoms: N_2  and  C_4
    2  A    between atoms: C_3  and  O_22
    3  A    between atoms: C_5  and  C_6
    4  A    between atoms: C_5  and  C_12
    5  A    between atoms: C_6  and  C_50
    6  A    between atoms: N_10  and  C_40
    7  A    between atoms: N_10  and  C_41
    8  A    between atoms: C_12  and  O_54
    9  A    between atoms: C_18  and  N_45
   10  A    between atoms: C_23  and  C_51
   11  A    between atoms: C_24  and  C_42
   12  A    between atoms: N_25  and  C_26
   13  A    between atoms: C_34  and  O_54
   14  A    between atoms: C_36  and  C_40
   15  A    between atoms: N_47  and  C_49
   16  A    between atoms: C_56  and  C_57
                            x       y       z     vdW  Elec       q    Type
                         _______ _______ _______ _____ _____    ______ ____

>  <TORSDO>
F 16

$$$$
=
 OpenBabel11042412443D

 59 64  0  0  1  0  0  0  0  0999 V2000
  188.5980  177.7000  143.4350 C   0  0  0  0  0  3  0  0  0  0  0  0
  187.3620  177.8390  143.9240 C   0  0  0  0  0  0  0  0  0  0  0  0
  185.4880  179.4130  140.9620 C   0  0  0  0  0  1  0  0  0  0  0  0
  189.0070  178.2670  142.1030 C   0  0  2  0  0  3  0  0  0  0  0  0
  187.8280  178.4550  141.2310 N   0  0  0  0  0  0  0  0  0  0  0  0
  186.5460  178.7830  141.8190 C   0  0  0  0  0  0  0  0  0  0  0  0
  186.3110  178.4980  143.1210 C   0  0  0  0  0  0  0  0  0  0  0  0
  189.8520  177.3080  139.9280 C   0  0  0  0  0  2  0  0  0  0  0  0
  190.1170  177.4230  141.4330 C   0  0  1  0  0  3  0  0  0  0  0  0
  192.5670  177.0810  141.0110 C   0  0  0  0  0  2  0  0  0  0  0  0
  191.5250  178.0020  141.6360 C   0  0  0  0  0  2  0  0  0  0  0  0
  192.2940  176.9200  139.5160 C   0  0  2  0  0  3  0  0  0  0  0  0
  190.8790  176.3860  139.2780 C   0  0  0  0  0  2  0  0  0  0  0  0
  192.9610  175.2810  137.7220 N   0  0  0  0  0  2  0  0  0  0  0  0
  194.5030  175.9370  139.3910 N   0  0  0  0  0  2  0  0  0  0  0  0
  193.3150  176.0290  138.8870 C   0  0  0  0  0  0  0  0  0  0  0  0
  196.0500  173.3660  137.2650 C   0  0  2  0  0  3  0  0  0  0  0  0
  194.7550  173.6710  138.0070 C   0  0  0  0  0  2  0  0  0  0  0  0
  194.8580  175.2280  136.1870 C   0  0  0  0  0  2  0  0  0  0  0  0
  193.8920  174.4130  137.0170 C   0  0  2  0  0  3  0  0  0  0  0  0
  196.2030  174.5060  136.2400 C   0  0  1  0  0  3  0  0  0  0  0  0
  195.9600  172.0660  136.5850 N   0  0  2  0  0  0  0  0  0  0  0  0
  195.2370  172.2520  135.3200 C   0  0  0  0  0  2  0  0  0  0  0  0
  195.1660  169.7560  136.7950 C   0  0  0  0  0  2  0  0  0  0  0  0
  194.9780  169.7910  135.2980 C   0  0  0  0  0  3  0  0  0  0  0  0
  195.1390  171.1640  137.3980 C   0  0  0  0  0  2  0  0  0  0  0  0
  195.0540  170.9370  134.6060 C   0  0  0  0  0  3  0  0  0  0  0  0
  197.2610  175.4360  136.6460 N   0  0  0  0  0  0  0  0  0  0  0  0
  197.8690  174.9200  137.7440 O   0  0  0  0  0  1  0  0  0  0  0  0
  198.2740  175.4510  135.5960 C   0  0  0  0  0  2  0  0  0  0  0  0
  199.1370  173.2890  134.7040 C   0  0  0  0  0  1  0  0  0  0  0  0
  198.0320  174.3200  134.6100 C   0  0  0  0  0  2  0  0  0  0  0  0
  185.0130  178.8040  143.8320 C   0  0  2  0  0  3  0  0  0  0  0  0
  185.1500  179.3260  145.2560 C   0  0  0  0  0  1  0  0  0  0  0  0
  183.9150  177.7570  143.6260 C   0  0  0  0  0  2  0  0  0  0  0  0
  182.5730  178.3500  143.2250 C   0  0  0  0  0  2  0  0  0  0  0  0
  182.6700  178.9200  141.9530 O   0  0  0  0  0  0  0  0  0  0  0  0
  180.7410  175.0090  139.0340 C   0  0  0  0  0  1  0  0  0  0  0  0
  181.0930  178.8220  139.2890 C   0  0  0  0  0  0  0  0  0  0  0  0
  181.3080  179.7600  140.2150 C   0  0  0  0  0  3  0  0  0  0  0  0
  180.4330  176.4340  138.6180 C   0  0  0  0  0  0  0  0  0  0  0  0
  180.9070  177.3890  139.7350 C   0  0  2  0  0  3  0  0  0  0  0  0
  181.0270  178.1360  136.7860 C   0  0  1  0  0  3  0  0  0  0  0  0
  181.1730  179.1770  137.8550 C   0  0  0  0  0  0  0  0  0  0  0  0
  181.3690  180.3720  137.5090 O   0  0  0  0  0  0  0  0  0  0  0  0
  180.3460  178.3530  142.0740 C   0  0  2  0  0  3  0  0  0  0  0  0
  181.3930  179.4070  141.6730 C   0  0  1  0  0  3  0  0  0  0  0  0
  181.1980  176.7070  137.3190 C   0  0  0  0  0  2  0  0  0  0  0  0
  178.9310  176.5370  138.3760 C   0  0  0  0  0  1  0  0  0  0  0  0
  180.0150  177.3070  140.9880 C   0  0  0  0  0  2  0  0  0  0  0  0
  179.0870  178.9510  144.1930 C   0  0  0  0  0  1  0  0  0  0  0  0
  178.9580  180.4400  142.2030 C   0  0  0  0  0  1  0  0  0  0  0  0
  179.0990  179.0050  142.6730 C   0  0  0  0  0  3  0  0  0  0  0  0
  179.9520  179.2170  135.0050 C   0  0  0  0  0  1  0  0  0  0  0  0
  179.7490  178.2910  136.1060 N   0  0  0  0  0  2  0  0  0  0  0  0
  187.0360  177.3460  145.1930 O   0  0  0  0  0  0  0  0  0  0  0  0
  187.9540  177.3230  146.2750 C   0  0  0  0  0  1  0  0  0  0  0  0
  186.8640  177.9710  139.0430 C   0  0  0  0  0  1  0  0  0  0  0  0
  188.0090  178.6220  139.7910 C   0  0  0  0  0  2  0  0  0  0  0  0
  1  2  2  0  0  0  0
  2 56  1  0  0  0  0
  3  6  1  0  0  0  0
  4  1  1  1  0  0  0
  5  6  1  0  0  0  0
  5  4  1  0  0  0  0
  6  7  2  0  0  0  0
  7 33  1  0  0  0  0
  7  2  1  0  0  0  0
  9  8  1  6  0  0  0
  9 11  1  0  0  0  0
  9  4  1  0  0  0  0
 10 11  1  0  0  0  0
 12 16  1  1  0  0  0
 12 10  1  0  0  0  0
 13 12  1  0  0  0  0
 13  8  1  0  0  0  0
 14 16  1  0  0  0  0
 16 15  2  0  0  0  0
 17 18  1  6  0  0  0
 19 21  1  0  0  0  0
 19 20  1  0  0  0  0
 20 14  1  1  0  0  0
 20 18  1  0  0  0  0
 21 28  1  1  0  0  0
 21 17  1  0  0  0  0
 22 23  1  6  0  0  0
 22 17  1  0  0  0  0
 22 26  1  0  0  0  0
 24 26  1  0  0  0  0
 25 24  1  0  0  0  0
 27 25  2  0  0  0  0
 27 23  1  0  0  0  0
 28 29  1  0  0  0  0
 30 28  1  0  0  0  0
 32 31  1  0  0  0  0
 32 30  1  0  0  0  0
 33 34  1  1  0  0  0
 35 33  1  0  0  0  0
 36 35  1  0  0  0  0
 37 36  1  0  0  0  0
 39 42  1  0  0  0  0
 39 40  2  0  0  0  0
 40 47  1  0  0  0  0
 41 38  1  0  0  0  0
 41 42  1  0  0  0  0
 42 50  1  1  0  0  0
 43 55  1  1  0  0  0
 43 48  1  0  0  0  0
 43 44  1  0  0  0  0
 44 39  1  0  0  0  0
 45 44  2  0  0  0  0
 46 53  1  6  0  0  0
 47 37  1  6  0  0  0
 47 46  1  0  0  0  0
 48 41  1  0  0  0  0
 49 41  1  0  0  0  0
 50 46  1  0  0  0  0
 52 53  1  0  0  0  0
 53 51  1  0  0  0  0
 54 55  1  0  0  0  0
 56 57  1  0  0  0  0
 58 59  1  0  0  0  0
 59  5  1  0  0  0  0
M  END
>  <MODEL>
2

>  <REMARK>
 VINA RESULT:      -4.5      4.425      9.209
  Name = 
  16 active torsions:
  status: ('A' for Active; 'I' for Inactive)
    1  A    between atoms: N_2  and  C_4
    2  A    between atoms: C_3  and  O_22
    3  A    between atoms: C_5  and  C_6
    4  A    between atoms: C_5  and  C_12
    5  A    between atoms: C_6  and  C_50
    6  A    between atoms: N_10  and  C_40
    7  A    between atoms: N_10  and  C_41
    8  A    between atoms: C_12  and  O_54
    9  A    between atoms: C_18  and  N_45
   10  A    between atoms: C_23  and  C_51
   11  A    between atoms: C_24  and  C_42
   12  A    between atoms: N_25  and  C_26
   13  A    between atoms: C_34  and  O_54
   14  A    between atoms: C_36  and  C_40
   15  A    between atoms: N_47  and  C_49
   16  A    between atoms: C_56  and  C_57
                            x       y       z     vdW  Elec       q    Type
                         _______ _______ _______ _____ _____    ______ ____

>  <TORSDO>
F 16

$$$$
=
 OpenBabel11042412443D

 59 64  0  0  1  0  0  0  0  0999 V2000
  185.4190  178.2940  138.1260 C   0  0  0  0  0  3  0  0  0  0  0  0
  184.5230  177.9280  137.2040 C   0  0  0  0  0  0  0  0  0  0  0  0
  186.7050  176.0950  134.6270 C   0  0  0  0  0  1  0  0  0  0  0  0
  186.9000  178.1180  137.9250 C   0  0  2  0  0  3  0  0  0  0  0  0
  187.1700  177.0510  136.9380 N   0  0  0  0  0  0  0  0  0  0  0  0
  186.2380  176.8240  135.8530 C   0  0  0  0  0  0  0  0  0  0  0  0
  184.9590  177.2510  135.9660 C   0  0  0  0  0  0  0  0  0  0  0  0
  189.1330  178.1990  139.0960 C   0  0  0  0  0  2  0  0  0  0  0  0
  187.6410  177.8940  139.2640 C   0  0  1  0  0  3  0  0  0  0  0  0
  187.8250  178.4280  141.7090 C   0  0  0  0  0  2  0  0  0  0  0  0
  187.0950  178.7560  140.4110 C   0  0  0  0  0  2  0  0  0  0  0  0
  189.3220  178.6880  141.5470 C   0  0  2  0  0  3  0  0  0  0  0  0
  189.8890  177.8750  140.3810 C   0  0  0  0  0  2  0  0  0  0  0  0
  189.4020  178.6350  144.0660 N   0  0  0  0  0  2  0  0  0  0  0  0
  191.2470  177.8940  142.7840 N   0  0  0  0  0  2  0  0  0  0  0  0
  190.0490  178.3820  142.8160 C   0  0  0  0  0  0  0  0  0  0  0  0
  190.0530  176.6510  147.0750 C   0  0  2  0  0  3  0  0  0  0  0  0
  190.0720  176.8480  145.5640 C   0  0  0  0  0  2  0  0  0  0  0  0
  189.1470  178.8590  146.4830 C   0  0  0  0  0  2  0  0  0  0  0  0
  190.0090  178.3400  145.3540 C   0  0  2  0  0  3  0  0  0  0  0  0
  189.2640  177.8530  147.6250 C   0  0  1  0  0  3  0  0  0  0  0  0
  191.4230  176.6410  147.6080 N   0  0  2  0  0  0  0  0  0  0  0  0
  191.7580  175.2670  148.0040 C   0  0  0  0  0  2  0  0  0  0  0  0
  192.9030  177.5830  149.3210 C   0  0  0  0  0  2  0  0  0  0  0  0
  193.6370  176.2650  149.2670 C   0  0  0  0  0  3  0  0  0  0  0  0
  191.4580  177.4420  148.8360 C   0  0  0  0  0  2  0  0  0  0  0  0
  193.1320  175.2050  148.6220 C   0  0  0  0  0  3  0  0  0  0  0  0
  187.9320  177.4420  148.0760 N   0  0  0  0  0  0  0  0  0  0  0  0
  187.7950  177.8200  149.3730 O   0  0  0  0  0  1  0  0  0  0  0  0
  186.9440  178.2130  147.3280 C   0  0  0  0  0  2  0  0  0  0  0  0
  186.1390  177.6630  145.0330 C   0  0  0  0  0  1  0  0  0  0  0  0
  186.0690  177.2880  146.4990 C   0  0  0  0  0  2  0  0  0  0  0  0
  183.9110  177.0720  134.8910 C   0  0  2  0  0  3  0  0  0  0  0  0
  182.7720  178.0830  134.9080 C   0  0  0  0  0  1  0  0  0  0  0  0
  183.4880  175.6200  134.6540 C   0  0  0  0  0  2  0  0  0  0  0  0
  184.3200  174.6080  135.4280 C   0  0  0  0  0  2  0  0  0  0  0  0
  184.1450  173.3350  134.8790 O   0  0  0  0  0  0  0  0  0  0  0  0
  179.2370  175.1930  134.8900 C   0  0  0  0  0  1  0  0  0  0  0  0
  182.2040  174.2250  137.1240 C   0  0  0  0  0  0  0  0  0  0  0  0
  183.2960  173.4570  137.0800 C   0  0  0  0  0  3  0  0  0  0  0  0
  179.8990  174.9080  136.2240 C   0  0  0  0  0  0  0  0  0  0  0  0
  181.2300  174.1690  135.9660 C   0  0  2  0  0  3  0  0  0  0  0  0
  180.8700  176.1410  138.2590 C   0  0  1  0  0  3  0  0  0  0  0  0
  182.0370  175.2000  138.2230 C   0  0  0  0  0  0  0  0  0  0  0  0
  182.8830  175.2540  139.1540 O   0  0  0  0  0  0  0  0  0  0  0  0
  182.3040  171.8860  135.3750 C   0  0  2  0  0  3  0  0  0  0  0  0
  183.5770  172.5720  135.9000 C   0  0  1  0  0  3  0  0  0  0  0  0
  180.1560  176.2550  136.9050 C   0  0  0  0  0  2  0  0  0  0  0  0
  178.9320  174.0720  137.0570 C   0  0  0  0  0  1  0  0  0  0  0  0
  181.0100  172.7200  135.4930 C   0  0  0  0  0  2  0  0  0  0  0  0
  181.1670  169.6290  135.1550 C   0  0  0  0  0  1  0  0  0  0  0  0
  183.4990  169.7730  136.0120 C   0  0  0  0  0  1  0  0  0  0  0  0
  182.1560  170.4740  135.9430 C   0  0  0  0  0  3  0  0  0  0  0  0
  179.0670  176.8820  139.5600 C   0  0  0  0  0  1  0  0  0  0  0  0
  179.9410  175.7490  139.3080 N   0  0  0  0  0  2  0  0  0  0  0  0
  183.1570  178.1620  137.4040 O   0  0  0  0  0  0  0  0  0  0  0  0
  182.6600  179.0980  138.3480 C   0  0  0  0  0  1  0  0  0  0  0  0
  188.4710  175.0550  137.4690 C   0  0  0  0  0  1  0  0  0  0  0  0
  188.4980  176.4450  136.8670 C   0  0  0  0  0  2  0  0  0  0  0  0
  2 56  1  0  0  0  0
  2  1  2  0  0  0  0
  3  6  1  0  0  0  0
  4  1  1  1  0  0  0
  4  9  1  0  0  0  0
  5  4  1  0  0  0  0
  6  7  2  0  0  0  0
  6  5  1  0  0  0  0
  7  2  1  0  0  0  0
  8 13  1  0  0  0  0
  9  8  1  6  0  0  0
  9 11  1  0  0  0  0
 11 10  1  0  0  0  0
 12 10  1  0  0  0  0
 12 16  1  1  0  0  0
 13 12  1  0  0  0  0
 15 16  2  0  0  0  0
 16 14  1  0  0  0  0
 17 18  1  6  0  0  0
 17 22  1  0  0  0  0
 17 21  1  0  0  0  0
 19 21  1  0  0  0  0
 20 14  1  6  0  0  0
 20 18  1  0  0  0  0
 20 19  1  0  0  0  0
 21 28  1  6  0  0  0
 22 23  1  1  0  0  0
 22 26  1  0  0  0  0
 23 27  1  0  0  0  0
 25 24  1  0  0  0  0
 26 24  1  0  0  0  0
 27 25  2  0  0  0  0
 28 29  1  0  0  0  0
 30 28  1  0  0  0  0
 31 32  1  0  0  0  0
 32 30  1  0  0  0  0
 33 34  1  1  0  0  0
 33  7  1  0  0  0  0
 35 33  1  0  0  0  0
 35 36  1  0  0  0  0
 37 36  1  0  0  0  0
 38 41  1  0  0  0  0
 39 44  1  0  0  0  0
 40 39  2  0  0  0  0
 41 48  1  0  0  0  0
 41 49  1  0  0  0  0
 42 50  1  1  0  0  0
 42 41  1  0  0  0  0
 42 39  1  0  0  0  0
 43 55  1  1  0  0  0
 44 43  1  0  0  0  0
 44 45  2  0  0  0  0
 46 50  1  0  0  0  0
 46 47  1  0  0  0  0
 46 53  1  1  0  0  0
 47 37  1  6  0  0  0
 47 40  1  0  0  0  0
 48 43  1  0  0  0  0
 51 53  1  0  0  0  0
 53 52  1  0  0  0  0
 55 54  1  0  0  0  0
 56 57  1  0  0  0  0
 59  5  1  0  0  0  0
 59 58  1  0  0  0  0
M  END
>  <MODEL>
3

>  <REMARK>
 VINA RESULT:      -3.8      1.500      2.373
  Name = 
  16 active torsions:
  status: ('A' for Active; 'I' for Inactive)
    1  A    between atoms: N_2  and  C_4
    2  A    between atoms: C_3  and  O_22
    3  A    between atoms: C_5  and  C_6
    4  A    between atoms: C_5  and  C_12
    5  A    between atoms: C_6  and  C_50
    6  A    between atoms: N_10  and  C_40
    7  A    between atoms: N_10  and  C_41
    8  A    between atoms: C_12  and  O_54
    9  A    between atoms: C_18  and  N_45
   10  A    between atoms: C_23  and  C_51
   11  A    between atoms: C_24  and  C_42
   12  A    between atoms: N_25  and  C_26
   13  A    between atoms: C_34  and  O_54
   14  A    between atoms: C_36  and  C_40
   15  A    between atoms: N_47  and  C_49
   16  A    between atoms: C_56  and  C_57
                            x       y       z     vdW  Elec       q    Type
                         _______ _______ _______ _____ _____    ______ ____

>  <TORSDO>
F 16

$$$$
=
 OpenBabel11042412443D

 59 64  0  0  1  0  0  0  0  0999 V2000
  187.2820  178.3550  139.2830 C   0  0  0  0  0  3  0  0  0  0  0  0
  186.4000  178.6130  140.2530 C   0  0  0  0  0  0  0  0  0  0  0  0
  183.1430  177.1900  138.7950 C   0  0  0  0  0  1  0  0  0  0  0  0
  186.8680  177.8170  137.9400 C   0  0  2  0  0  3  0  0  0  0  0  0
  185.5690  177.1180  138.0350 N   0  0  0  0  0  0  0  0  0  0  0  0
  184.5810  177.5670  138.9950 C   0  0  0  0  0  0  0  0  0  0  0  0
  184.9690  178.2970  140.0660 C   0  0  0  0  0  0  0  0  0  0  0  0
  188.7700  177.7550  136.2830 C   0  0  0  0  0  2  0  0  0  0  0  0
  187.9720  176.9390  137.3050 C   0  0  1  0  0  3  0  0  0  0  0  0
  189.9640  175.4510  137.6450 C   0  0  0  0  0  2  0  0  0  0  0  0
  188.9530  176.3590  138.3350 C   0  0  0  0  0  2  0  0  0  0  0  0
  190.7410  176.2390  136.5910 C   0  0  2  0  0  3  0  0  0  0  0  0
  189.7870  176.8670  135.5720 C   0  0  0  0  0  2  0  0  0  0  0  0
  193.1070  175.4060  136.3460 N   0  0  0  0  0  2  0  0  0  0  0  0
  191.3860  174.5770  134.9520 N   0  0  0  0  0  2  0  0  0  0  0  0
  191.7450  175.3630  135.9140 C   0  0  0  0  0  0  0  0  0  0  0  0
  196.3940  173.7940  136.2150 C   0  0  2  0  0  3  0  0  0  0  0  0
  195.0420  174.0390  136.8740 C   0  0  0  0  0  2  0  0  0  0  0  0
  195.0670  175.3860  134.8910 C   0  0  0  0  0  2  0  0  0  0  0  0
  194.1530  174.5700  135.7770 C   0  0  2  0  0  3  0  0  0  0  0  0
  196.4740  174.8220  135.0710 C   0  0  1  0  0  3  0  0  0  0  0  0
  196.4670  172.4240  135.6870 N   0  0  2  0  0  0  0  0  0  0  0  0
  195.6970  171.5420  136.5730 C   0  0  0  0  0  2  0  0  0  0  0  0
  197.9880  170.6060  135.0630 C   0  0  0  0  0  2  0  0  0  0  0  0
  196.8720  169.6710  135.4590 C   0  0  0  0  0  3  0  0  0  0  0  0
  197.8580  171.9640  135.7570 C   0  0  0  0  0  2  0  0  0  0  0  0
  195.7900  170.1070  136.1190 C   0  0  0  0  0  3  0  0  0  0  0  0
  197.4130  175.8980  135.4010 N   0  0  0  0  0  0  0  0  0  0  0  0
  198.6480  175.5150  134.9890 O   0  0  0  0  0  1  0  0  0  0  0  0
  197.0640  177.0630  134.5940 C   0  0  0  0  0  2  0  0  0  0  0  0
  196.2920  179.4180  134.8600 C   0  0  0  0  0  1  0  0  0  0  0  0
  196.1640  178.0010  135.3800 C   0  0  0  0  0  2  0  0  0  0  0  0
  184.0200  178.8190  141.1200 C   0  0  2  0  0  3  0  0  0  0  0  0
  182.8590  179.6580  140.6020 C   0  0  0  0  0  1  0  0  0  0  0  0
  184.7050  179.3630  142.3770 C   0  0  0  0  0  2  0  0  0  0  0  0
  185.1820  178.2780  143.3310 C   0  0  0  0  0  2  0  0  0  0  0  0
  186.3760  178.6750  143.9370 O   0  0  0  0  0  0  0  0  0  0  0  0
  191.4710  179.6560  144.7230 C   0  0  0  0  0  1  0  0  0  0  0  0
  188.9180  176.9040  143.9270 C   0  0  0  0  0  0  0  0  0  0  0  0
  187.6110  176.6650  144.0630 C   0  0  0  0  0  3  0  0  0  0  0  0
  191.0390  178.2160  144.5360 C   0  0  0  0  0  0  0  0  0  0  0  0
  189.4960  178.1570  144.5480 C   0  0  2  0  0  3  0  0  0  0  0  0
  191.1900  176.3080  142.8200 C   0  0  1  0  0  3  0  0  0  0  0  0
  189.7390  176.0210  143.0700 C   0  0  0  0  0  0  0  0  0  0  0  0
  189.2240  175.0060  142.5310 O   0  0  0  0  0  0  0  0  0  0  0  0
  187.3880  178.1960  146.0540 C   0  0  2  0  0  3  0  0  0  0  0  0
  186.7180  177.6270  144.7920 C   0  0  1  0  0  3  0  0  0  0  0  0
  191.5830  177.7460  143.1830 C   0  0  0  0  0  2  0  0  0  0  0  0
  191.6520  177.3930  145.6640 C   0  0  0  0  0  1  0  0  0  0  0  0
  188.9150  178.4020  145.9530 C   0  0  0  0  0  2  0  0  0  0  0  0
  188.1560  176.7760  148.0100 C   0  0  0  0  0  1  0  0  0  0  0  0
  186.2170  178.3120  148.2710 C   0  0  0  0  0  1  0  0  0  0  0  0
  186.9730  177.4210  147.3050 C   0  0  0  0  0  3  0  0  0  0  0  0
  191.1800  174.2060  143.8580 C   0  0  0  0  0  1  0  0  0  0  0  0
  192.0200  175.3440  143.5270 N   0  0  0  0  0  2  0  0  0  0  0  0
  186.8180  179.1680  141.4690 O   0  0  0  0  0  0  0  0  0  0  0  0
  188.1620  179.5430  141.7290 C   0  0  0  0  0  1  0  0  0  0  0  0
  184.9870  176.9530  135.6710 C   0  0  0  0  0  1  0  0  0  0  0  0
  185.1580  176.2000  136.9750 C   0  0  0  0  0  2  0  0  0  0  0  0
  1  2  2  0  0  0  0
  2 56  1  0  0  0  0
  3  6  1  0  0  0  0
  4  5  1  0  0  0  0
  4  1  1  1  0  0  0
  5  6  1  0  0  0  0
  6  7  2  0  0  0  0
  7  2  1  0  0  0  0
  7 33  1  0  0  0  0
  9  8  1  6  0  0  0
  9  4  1  0  0  0  0
  9 11  1  0  0  0  0
 10 11  1  0  0  0  0
 12 16  1  6  0  0  0
 12 10  1  0  0  0  0
 13  8  1  0  0  0  0
 13 12  1  0  0  0  0
 15 16  2  0  0  0  0
 16 14  1  0  0  0  0
 17 18  1  6  0  0  0
 19 21  1  0  0  0  0
 19 20  1  0  0  0  0
 20 14  1  1  0  0  0
 20 18  1  0  0  0  0
 21 28  1  1  0  0  0
 21 17  1  0  0  0  0
 22 26  1  1  0  0  0
 22 17  1  0  0  0  0
 22 23  1  0  0  0  0
 24 25  1  0  0  0  0
 24 26  1  0  0  0  0
 25 27  2  0  0  0  0
 27 23  1  0  0  0  0
 29 28  1  0  0  0  0
 30 32  1  0  0  0  0
 30 28  1  0  0  0  0
 31 32  1  0  0  0  0
 33 34  1  6  0  0  0
 33 35  1  0  0  0  0
 35 36  1  0  0  0  0
 36 37  1  0  0  0  0
 39 40  2  0  0  0  0
 39 42  1  0  0  0  0
 40 47  1  0  0  0  0
 41 42  1  0  0  0  0
 41 38  1  0  0  0  0
 41 49  1  0  0  0  0
 42 50  1  1  0  0  0
 43 44  1  0  0  0  0
 43 48  1  0  0  0  0
 43 55  1  1  0  0  0
 44 39  1  0  0  0  0
 45 44  2  0  0  0  0
 46 53  1  1  0  0  0
 47 37  1  6  0  0  0
 47 46  1  0  0  0  0
 48 41  1  0  0  0  0
 50 46  1  0  0  0  0
 53 51  1  0  0  0  0
 53 52  1  0  0  0  0
 55 54  1  0  0  0  0
 56 57  1  0  0  0  0
 58 59  1  0  0  0  0
 59  5  1  0  0  0  0
M  END
>  <MODEL>
4

>  <REMARK>
 VINA RESULT:      -3.7      4.671     10.963
  Name = 
  16 active torsions:
  status: ('A' for Active; 'I' for Inactive)
    1  A    between atoms: N_2  and  C_4
    2  A    between atoms: C_3  and  O_22
    3  A    between atoms: C_5  and  C_6
    4  A    between atoms: C_5  and  C_12
    5  A    between atoms: C_6  and  C_50
    6  A    between atoms: N_10  and  C_40
    7  A    between atoms: N_10  and  C_41
    8  A    between atoms: C_12  and  O_54
    9  A    between atoms: C_18  and  N_45
   10  A    between atoms: C_23  and  C_51
   11  A    between atoms: C_24  and  C_42
   12  A    between atoms: N_25  and  C_26
   13  A    between atoms: C_34  and  O_54
   14  A    between atoms: C_36  and  C_40
   15  A    between atoms: N_47  and  C_49
   16  A    between atoms: C_56  and  C_57
                            x       y       z     vdW  Elec       q    Type
                         _______ _______ _______ _____ _____    ______ ____

>  <TORSDO>
F 16

$$$$
=
 OpenBabel11042412443D

 59 64  0  0  1  0  0  0  0  0999 V2000
  181.4690  178.4740  142.0610 C   0  0  0  0  0  3  0  0  0  0  0  0
  180.5920  178.2810  141.0710 C   0  0  0  0  0  0  0  0  0  0  0  0
  182.6470  179.2320  137.9670 C   0  0  0  0  0  1  0  0  0  0  0  0
  182.8150  179.1060  141.8350 C   0  0  2  0  0  3  0  0  0  0  0  0
  183.2340  178.9510  140.4250 N   0  0  0  0  0  0  0  0  0  0  0  0
  182.2350  178.9290  139.3770 C   0  0  0  0  0  0  0  0  0  0  0  0
  180.9530  178.6150  139.6780 C   0  0  0  0  0  0  0  0  0  0  0  0
  185.2420  179.1970  142.5190 C   0  0  0  0  0  2  0  0  0  0  0  0
  183.8740  178.5830  142.8330 C   0  0  1  0  0  3  0  0  0  0  0  0
  184.5780  178.2830  145.2230 C   0  0  0  0  0  2  0  0  0  0  0  0
  183.5290  178.8900  144.2980 C   0  0  0  0  0  2  0  0  0  0  0  0
  185.9580  178.8530  144.8950 C   0  0  2  0  0  3  0  0  0  0  0  0
  186.3130  178.6030  143.4280 C   0  0  0  0  0  2  0  0  0  0  0  0
  188.0830  177.5430  145.2360 N   0  0  0  0  0  2  0  0  0  0  0  0
  186.9080  178.4370  147.0840 N   0  0  0  0  0  2  0  0  0  0  0  0
  186.9950  178.2760  145.8030 C   0  0  0  0  0  0  0  0  0  0  0  0
  191.5390  177.1540  146.3880 C   0  0  2  0  0  3  0  0  0  0  0  0
  190.2730  177.9790  146.1870 C   0  0  0  0  0  2  0  0  0  0  0  0
  189.7910  175.8000  145.3110 C   0  0  0  0  0  2  0  0  0  0  0  0
  189.1610  176.9720  146.0300 C   0  0  2  0  0  3  0  0  0  0  0  0
  191.2840  175.8380  145.6300 C   0  0  1  0  0  3  0  0  0  0  0  0
  191.7620  176.8950  147.8180 N   0  0  2  0  0  0  0  0  0  0  0  0
  192.2920  178.1170  148.4350 C   0  0  0  0  0  2  0  0  0  0  0  0
  192.9440  175.4710  149.4260 C   0  0  0  0  0  2  0  0  0  0  0  0
  192.9480  176.6750  150.3350 C   0  0  0  0  0  3  0  0  0  0  0  0
  192.8090  175.8780  147.9550 C   0  0  0  0  0  2  0  0  0  0  0  0
  192.6040  177.8930  149.8920 C   0  0  0  0  0  3  0  0  0  0  0  0
  192.0680  175.7860  144.3930 N   0  0  0  0  0  0  0  0  0  0  0  0
  191.5660  174.7870  143.6240 O   0  0  0  0  0  1  0  0  0  0  0  0
  191.8260  177.0210  143.6540 C   0  0  0  0  0  2  0  0  0  0  0  0
  190.3800  176.9720  141.6240 C   0  0  0  0  0  1  0  0  0  0  0  0
  191.7780  176.7440  142.1610 C   0  0  0  0  0  2  0  0  0  0  0  0
  179.8350  178.5710  138.6620 C   0  0  2  0  0  3  0  0  0  0  0  0
  178.9680  179.8200  138.5830 C   0  0  0  0  0  1  0  0  0  0  0  0
  179.0690  177.2450  138.6200 C   0  0  0  0  0  2  0  0  0  0  0  0
  179.4120  176.3800  137.4170 C   0  0  0  0  0  2  0  0  0  0  0  0
  180.8000  176.2780  137.2900 O   0  0  0  0  0  0  0  0  0  0  0  0
  185.0320  173.2520  137.9800 C   0  0  0  0  0  1  0  0  0  0  0  0
  183.4740  175.9640  135.7560 C   0  0  0  0  0  0  0  0  0  0  0  0
  182.2700  176.4520  135.4480 C   0  0  0  0  0  3  0  0  0  0  0  0
  184.9680  174.1250  136.7430 C   0  0  0  0  0  0  0  0  0  0  0  0
  183.5560  174.7410  136.6450 C   0  0  2  0  0  3  0  0  0  0  0  0
  186.0560  176.2290  135.7440 C   0  0  1  0  0  3  0  0  0  0  0  0
  184.6900  176.6960  135.3410 C   0  0  0  0  0  0  0  0  0  0  0  0
  184.5920  177.7340  134.6350 O   0  0  0  0  0  0  0  0  0  0  0  0
  181.0910  174.2890  135.9880 C   0  0  2  0  0  3  0  0  0  0  0  0
  181.0160  175.8250  135.9880 C   0  0  1  0  0  3  0  0  0  0  0  0
  186.0240  175.2240  136.9040 C   0  0  0  0  0  2  0  0  0  0  0  0
  185.2970  173.2520  135.5360 C   0  0  0  0  0  1  0  0  0  0  0  0
  182.4920  173.6980  136.2570 C   0  0  0  0  0  2  0  0  0  0  0  0
  180.6810  172.2060  134.6000 C   0  0  0  0  0  1  0  0  0  0  0  0
  178.9310  173.9690  134.7500 C   0  0  0  0  0  1  0  0  0  0  0  0
  180.4230  173.6970  134.7460 C   0  0  0  0  0  3  0  0  0  0  0  0
  188.1560  175.5380  134.9630 C   0  0  0  0  0  1  0  0  0  0  0  0
  186.7570  175.6770  134.5940 N   0  0  0  0  0  2  0  0  0  0  0  0
  179.3270  177.7420  141.3320 O   0  0  0  0  0  0  0  0  0  0  0  0
  179.0970  176.3530  141.5080 C   0  0  0  0  0  1  0  0  0  0  0  0
  185.1360  177.9320  139.2840 C   0  0  0  0  0  1  0  0  0  0  0  0
  184.6380  179.1350  140.0600 C   0  0  0  0  0  2  0  0  0  0  0  0
  2 56  1  0  0  0  0
  2  1  2  0  0  0  0
  3  6  1  0  0  0  0
  4  1  1  6  0  0  0
  4  9  1  0  0  0  0
  5  4  1  0  0  0  0
  6  7  2  0  0  0  0
  6  5  1  0  0  0  0
  7  2  1  0  0  0  0
  8 13  1  0  0  0  0
  9  8  1  6  0  0  0
  9 11  1  0  0  0  0
 11 10  1  0  0  0  0
 12 10  1  0  0  0  0
 12 16  1  1  0  0  0
 13 12  1  0  0  0  0
 14 16  1  0  0  0  0
 16 15  2  0  0  0  0
 17 18  1  1  0  0  0
 17 22  1  0  0  0  0
 19 21  1  0  0  0  0
 19 20  1  0  0  0  0
 20 14  1  6  0  0  0
 20 18  1  0  0  0  0
 21 28  1  6  0  0  0
 21 17  1  0  0  0  0
 22 26  1  6  0  0  0
 22 23  1  0  0  0  0
 23 27  1  0  0  0  0
 24 25  1  0  0  0  0
 26 24  1  0  0  0  0
 27 25  2  0  0  0  0
 29 28  1  0  0  0  0
 30 28  1  0  0  0  0
 31 32  1  0  0  0  0
 32 30  1  0  0  0  0
 33 34  1  1  0  0  0
 33  7  1  0  0  0  0
 35 33  1  0  0  0  0
 36 35  1  0  0  0  0
 37 36  1  0  0  0  0
 39 42  1  0  0  0  0
 40 39  2  0  0  0  0
 40 47  1  0  0  0  0
 41 48  1  0  0  0  0
 41 38  1  0  0  0  0
 42 50  1  6  0  0  0
 42 41  1  0  0  0  0
 43 55  1  6  0  0  0
 43 48  1  0  0  0  0
 44 43  1  0  0  0  0
 44 39  1  0  0  0  0
 45 44  2  0  0  0  0
 46 53  1  6  0  0  0
 46 47  1  0  0  0  0
 46 50  1  0  0  0  0
 47 37  1  1  0  0  0
 49 41  1  0  0  0  0
 51 53  1  0  0  0  0
 53 52  1  0  0  0  0
 55 54  1  0  0  0  0
 56 57  1  0  0  0  0
 58 59  1  0  0  0  0
 59  5  1  0  0  0  0
M  END
>  <MODEL>
5

>  <REMARK>
 VINA RESULT:      -2.7      2.059      5.837
  Name = 
  16 active torsions:
  status: ('A' for Active; 'I' for Inactive)
    1  A    between atoms: N_2  and  C_4
    2  A    between atoms: C_3  and  O_22
    3  A    between atoms: C_5  and  C_6
    4  A    between atoms: C_5  and  C_12
    5  A    between atoms: C_6  and  C_50
    6  A    between atoms: N_10  and  C_40
    7  A    between atoms: N_10  and  C_41
    8  A    between atoms: C_12  and  O_54
    9  A    between atoms: C_18  and  N_45
   10  A    between atoms: C_23  and  C_51
   11  A    between atoms: C_24  and  C_42
   12  A    between atoms: N_25  and  C_26
   13  A    between atoms: C_34  and  O_54
   14  A    between atoms: C_36  and  C_40
   15  A    between atoms: N_47  and  C_49
   16  A    between atoms: C_56  and  C_57
                            x       y       z     vdW  Elec       q    Type
                         _______ _______ _______ _____ _____    ______ ____

>  <TORSDO>
F 16

$$$$
=
 OpenBabel11042412443D

 59 64  0  0  1  0  0  0  0  0999 V2000
  187.7030  178.1680  142.2240 C   0  0  0  0  0  3  0  0  0  0  0  0
  186.4360  178.2840  142.6310 C   0  0  0  0  0  0  0  0  0  0  0  0
  184.6470  179.3950  139.4160 C   0  0  0  0  0  1  0  0  0  0  0  0
  188.1550  178.6060  140.8570 C   0  0  2  0  0  3  0  0  0  0  0  0
  187.0190  178.6210  139.9110 N   0  0  0  0  0  0  0  0  0  0  0  0
  185.6890  178.9320  140.3930 C   0  0  0  0  0  0  0  0  0  0  0  0
  185.3970  178.7820  141.7060 C   0  0  0  0  0  0  0  0  0  0  0  0
  188.8600  176.7340  139.3190 C   0  0  0  0  0  2  0  0  0  0  0  0
  189.3460  177.7620  140.3450 C   0  0  1  0  0  3  0  0  0  0  0  0
  191.6210  177.7170  139.2860 C   0  0  0  0  0  2  0  0  0  0  0  0
  190.4540  178.6070  139.6990 C   0  0  0  0  0  2  0  0  0  0  0  0
  191.1450  176.6580  138.2930 C   0  0  2  0  0  3  0  0  0  0  0  0
  190.0080  175.8260  138.8910 C   0  0  0  0  0  2  0  0  0  0  0  0
  192.1000  174.8940  136.7670 N   0  0  0  0  0  2  0  0  0  0  0  0
  193.4140  175.8370  138.4930 N   0  0  0  0  0  2  0  0  0  0  0  0
  192.2810  175.7850  137.8690 C   0  0  0  0  0  0  0  0  0  0  0  0
  195.5160  173.6050  136.4790 C   0  0  2  0  0  3  0  0  0  0  0  0
  194.2530  173.9000  137.2790 C   0  0  0  0  0  2  0  0  0  0  0  0
  193.8130  174.6500  135.0460 C   0  0  0  0  0  2  0  0  0  0  0  0
  193.1530  174.0300  136.2560 C   0  0  2  0  0  3  0  0  0  0  0  0
  195.2940  174.2840  135.1150 C   0  0  1  0  0  3  0  0  0  0  0  0
  195.6920  172.1550  136.3140 N   0  0  2  0  0  0  0  0  0  0  0  0
  197.0140  171.7840  136.8340 C   0  0  0  0  0  2  0  0  0  0  0  0
  195.7280  170.3230  134.6850 C   0  0  0  0  0  2  0  0  0  0  0  0
  196.7170  169.6550  135.6100 C   0  0  0  0  0  3  0  0  0  0  0  0
  195.7120  171.8410  134.8820 C   0  0  0  0  0  2  0  0  0  0  0  0
  197.2810  170.3150  136.6310 C   0  0  0  0  0  3  0  0  0  0  0  0
  196.1200  175.4890  134.9900 N   0  0  0  0  0  0  0  0  0  0  0  0
  195.4690  176.5060  135.6100 O   0  0  0  0  0  1  0  0  0  0  0  0
  197.3470  175.2750  135.7500 C   0  0  0  0  0  2  0  0  0  0  0  0
  199.0590  173.8770  134.5970 C   0  0  0  0  0  1  0  0  0  0  0  0
  198.5520  175.2860  134.8250 C   0  0  0  0  0  2  0  0  0  0  0  0
  184.0450  179.0850  142.3100 C   0  0  2  0  0  3  0  0  0  0  0  0
  183.9310  178.8600  143.8120 C   0  0  0  0  0  1  0  0  0  0  0  0
  182.8560  178.5860  141.4850 C   0  0  0  0  0  2  0  0  0  0  0  0
  182.7610  177.0690  141.4070 C   0  0  0  0  0  2  0  0  0  0  0  0
  182.7120  176.6680  140.0700 O   0  0  0  0  0  0  0  0  0  0  0  0
  182.9070  176.4920  134.8280 C   0  0  0  0  0  1  0  0  0  0  0  0
  181.1570  178.1320  137.8250 C   0  0  0  0  0  0  0  0  0  0  0  0
  180.9300  177.8940  139.1190 C   0  0  0  0  0  3  0  0  0  0  0  0
  181.8310  177.3390  135.4780 C   0  0  0  0  0  0  0  0  0  0  0  0
  181.8310  177.0590  136.9960 C   0  0  2  0  0  3  0  0  0  0  0  0
  181.1980  179.8040  135.8390 C   0  0  1  0  0  3  0  0  0  0  0  0
  180.8720  179.4710  137.2640 C   0  0  0  0  0  0  0  0  0  0  0  0
  180.3480  180.3600  137.9870 O   0  0  0  0  0  0  0  0  0  0  0  0
  181.1000  175.3930  138.8410 C   0  0  2  0  0  3  0  0  0  0  0  0
  181.3530  176.6020  139.7580 C   0  0  1  0  0  3  0  0  0  0  0  0
  182.1750  178.8060  135.2030 C   0  0  0  0  0  2  0  0  0  0  0  0
  180.4970  176.9810  134.8300 C   0  0  0  0  0  1  0  0  0  0  0  0
  181.2720  175.6640  137.3310 C   0  0  0  0  0  2  0  0  0  0  0  0
  179.1690  173.9920  137.9780 C   0  0  0  0  0  1  0  0  0  0  0  0
  179.9410  173.7380  140.3300 C   0  0  0  0  0  1  0  0  0  0  0  0
  179.7740  174.7080  139.1760 C   0  0  0  0  0  3  0  0  0  0  0  0
  179.4700  181.2620  135.2180 C   0  0  0  0  0  1  0  0  0  0  0  0
  179.9750  179.9090  135.0570 N   0  0  0  0  0  2  0  0  0  0  0  0
  186.0660  177.9180  143.9310 O   0  0  0  0  0  0  0  0  0  0  0  0
  186.9830  177.8700  145.0130 C   0  0  0  0  0  1  0  0  0  0  0  0
  186.6490  177.4170  137.8210 C   0  0  0  0  0  1  0  0  0  0  0  0
  187.2710  178.6350  138.4720 C   0  0  0  0  0  2  0  0  0  0  0  0
  1  2  2  0  0  0  0
  2 56  1  0  0  0  0
  3  6  1  0  0  0  0
  4  1  1  1  0  0  0
  5  6  1  0  0  0  0
  5  4  1  0  0  0  0
  6  7  2  0  0  0  0
  7 33  1  0  0  0  0
  7  2  1  0  0  0  0
  9  8  1  6  0  0  0
  9  4  1  0  0  0  0
 10 11  1  0  0  0  0
 11  9  1  0  0  0  0
 12 16  1  1  0  0  0
 12 13  1  0  0  0  0
 12 10  1  0  0  0  0
 13  8  1  0  0  0  0
 14 16  1  0  0  0  0
 16 15  2  0  0  0  0
 17 18  1  1  0  0  0
 19 21  1  0  0  0  0
 19 20  1  0  0  0  0
 20 14  1  1  0  0  0
 20 18  1  0  0  0  0
 21 28  1  1  0  0  0
 21 17  1  0  0  0  0
 22 26  1  6  0  0  0
 22 17  1  0  0  0  0
 22 23  1  0  0  0  0
 24 26  1  0  0  0  0
 24 25  1  0  0  0  0
 25 27  2  0  0  0  0
 27 23  1  0  0  0  0
 28 29  1  0  0  0  0
 28 30  1  0  0  0  0
 31 32  1  0  0  0  0
 32 30  1  0  0  0  0
 33 34  1  1  0  0  0
 35 33  1  0  0  0  0
 36 35  1  0  0  0  0
 37 36  1  0  0  0  0
 38 41  1  0  0  0  0
 39 40  2  0  0  0  0
 40 47  1  0  0  0  0
 41 42  1  0  0  0  0
 42 50  1  6  0  0  0
 42 39  1  0  0  0  0
 43 55  1  6  0  0  0
 43 44  1  0  0  0  0
 44 39  1  0  0  0  0
 44 45  2  0  0  0  0
 46 53  1  6  0  0  0
 46 47  1  0  0  0  0
 47 37  1  6  0  0  0
 48 41  1  0  0  0  0
 48 43  1  0  0  0  0
 49 41  1  0  0  0  0
 50 46  1  0  0  0  0
 51 53  1  0  0  0  0
 53 52  1  0  0  0  0
 55 54  1  0  0  0  0
 56 57  1  0  0  0  0
 58 59  1  0  0  0  0
 59  5  1  0  0  0  0
M  END
>  <MODEL>
6

>  <REMARK>
 VINA RESULT:      -2.5      4.434      8.753
  Name = 
  16 active torsions:
  status: ('A' for Active; 'I' for Inactive)
    1  A    between atoms: N_2  and  C_4
    2  A    between atoms: C_3  and  O_22
    3  A    between atoms: C_5  and  C_6
    4  A    between atoms: C_5  and  C_12
    5  A    between atoms: C_6  and  C_50
    6  A    between atoms: N_10  and  C_40
    7  A    between atoms: N_10  and  C_41
    8  A    between atoms: C_12  and  O_54
    9  A    between atoms: C_18  and  N_45
   10  A    between atoms: C_23  and  C_51
   11  A    between atoms: C_24  and  C_42
   12  A    between atoms: N_25  and  C_26
   13  A    between atoms: C_34  and  O_54
   14  A    between atoms: C_36  and  C_40
   15  A    between atoms: N_47  and  C_49
   16  A    between atoms: C_56  and  C_57
                            x       y       z     vdW  Elec       q    Type
                         _______ _______ _______ _____ _____    ______ ____

>  <TORSDO>
F 16

$$$$
=
 OpenBabel11042412443D

 59 64  0  0  1  0  0  0  0  0999 V2000
  185.3440  177.4740  141.3720 C   0  0  0  0  0  3  0  0  0  0  0  0
  184.1530  177.9960  141.6810 C   0  0  0  0  0  0  0  0  0  0  0  0
  184.8780  179.7570  145.0180 C   0  0  0  0  0  1  0  0  0  0  0  0
  186.5090  177.5030  142.3230 C   0  0  2  0  0  3  0  0  0  0  0  0
  186.3560  178.6010  143.3020 N   0  0  0  0  0  0  0  0  0  0  0  0
  185.0320  179.0000  143.7320 C   0  0  0  0  0  0  0  0  0  0  0  0
  183.9590  178.7060  142.9620 C   0  0  0  0  0  0  0  0  0  0  0  0
  188.7320  176.3590  141.9830 C   0  0  0  0  0  2  0  0  0  0  0  0
  187.8630  177.5540  141.5770 C   0  0  1  0  0  3  0  0  0  0  0  0
  189.0810  177.6720  139.3860 C   0  0  0  0  0  2  0  0  0  0  0  0
  187.7130  177.5480  140.0490 C   0  0  0  0  0  2  0  0  0  0  0  0
  189.9760  176.5100  139.8130 C   0  0  2  0  0  3  0  0  0  0  0  0
  190.1100  176.4610  141.3370 C   0  0  0  0  0  2  0  0  0  0  0  0
  191.6830  175.6480  138.1710 N   0  0  0  0  0  2  0  0  0  0  0  0
  192.1340  177.5600  139.4880 N   0  0  0  0  0  2  0  0  0  0  0  0
  191.3170  176.6120  139.1610 C   0  0  0  0  0  0  0  0  0  0  0  0
  194.0920  174.6420  135.6030 C   0  0  2  0  0  3  0  0  0  0  0  0
  192.7470  175.2120  136.0340 C   0  0  0  0  0  2  0  0  0  0  0  0
  193.9280  174.6980  138.0550 C   0  0  0  0  0  2  0  0  0  0  0  0
  192.9480  175.6800  137.4540 C   0  0  2  0  0  3  0  0  0  0  0  0
  194.7420  174.1220  136.8990 C   0  0  1  0  0  3  0  0  0  0  0  0
  194.9220  175.6890  134.9900 N   0  0  2  0  0  0  0  0  0  0  0  0
  196.3340  175.3540  135.2120 C   0  0  0  0  0  2  0  0  0  0  0  0
  195.4090  178.0920  134.9710 C   0  0  0  0  0  2  0  0  0  0  0  0
  196.8170  177.7000  134.5940 C   0  0  0  0  0  3  0  0  0  0  0  0
  194.6830  176.9530  135.6930 C   0  0  0  0  0  2  0  0  0  0  0  0
  197.2360  176.4290  134.6620 C   0  0  0  0  0  3  0  0  0  0  0  0
  194.7200  172.6580  136.9440 N   0  0  0  0  0  0  0  0  0  0  0  0
  194.5240  172.2050  135.6800 O   0  0  0  0  0  1  0  0  0  0  0  0
  196.0490  172.1990  137.3330 C   0  0  0  0  0  2  0  0  0  0  0  0
  198.4010  171.9860  136.5330 C   0  0  0  0  0  1  0  0  0  0  0  0
  196.9490  172.0890  136.1140 C   0  0  0  0  0  2  0  0  0  0  0  0
  182.5370  179.0710  143.3210 C   0  0  2  0  0  3  0  0  0  0  0  0
  181.6590  177.9160  143.7860 C   0  0  0  0  0  1  0  0  0  0  0  0
  181.8670  180.0460  142.3490 C   0  0  0  0  0  2  0  0  0  0  0  0
  180.4240  179.6890  142.0240 C   0  0  0  0  0  2  0  0  0  0  0  0
  180.3720  178.9910  140.8140 O   0  0  0  0  0  0  0  0  0  0  0  0
  178.9370  176.3740  136.4980 C   0  0  0  0  0  1  0  0  0  0  0  0
  181.6600  178.6070  138.0230 C   0  0  0  0  0  0  0  0  0  0  0  0
  181.8050  179.4990  139.0060 C   0  0  0  0  0  3  0  0  0  0  0  0
  180.1850  177.2320  136.4360 C   0  0  0  0  0  0  0  0  0  0  0  0
  180.2770  178.0670  137.7310 C   0  0  2  0  0  3  0  0  0  0  0  0
  182.7410  177.0030  136.2920 C   0  0  1  0  0  3  0  0  0  0  0  0
  182.8560  178.0710  137.3380 C   0  0  0  0  0  0  0  0  0  0  0  0
  184.0010  178.5090  137.6280 O   0  0  0  0  0  0  0  0  0  0  0  0
  179.3680  180.1500  138.9750 C   0  0  2  0  0  3  0  0  0  0  0  0
  180.6310  179.9450  139.8300 C   0  0  1  0  0  3  0  0  0  0  0  0
  181.3840  176.2860  136.3200 C   0  0  0  0  0  2  0  0  0  0  0  0
  180.0870  178.1110  135.1930 C   0  0  0  0  0  1  0  0  0  0  0  0
  179.2200  179.1860  137.7780 C   0  0  0  0  0  2  0  0  0  0  0  0
  180.3050  182.5030  139.1220 C   0  0  0  0  0  1  0  0  0  0  0  0
  179.0940  181.7680  137.0760 C   0  0  0  0  0  1  0  0  0  0  0  0
  179.1920  181.6180  138.5820 C   0  0  0  0  0  3  0  0  0  0  0  0
  184.4240  177.3660  134.7010 C   0  0  0  0  0  1  0  0  0  0  0  0
  183.0110  177.5600  134.9750 N   0  0  0  0  0  2  0  0  0  0  0  0
  183.0770  177.8980  140.7900 O   0  0  0  0  0  0  0  0  0  0  0  0
  182.7310  176.6950  140.1210 C   0  0  0  0  0  1  0  0  0  0  0  0
  187.8760  178.0490  145.1300 C   0  0  0  0  0  1  0  0  0  0  0  0
  187.5160  179.0630  144.0630 C   0  0  0  0  0  2  0  0  0  0  0  0
  1  2  2  0  0  0  0
  2  7  1  0  0  0  0
  4  1  1  6  0  0  0
  4  5  1  0  0  0  0
  5  6  1  0  0  0  0
  5 59  1  0  0  0  0
  6  3  1  0  0  0  0
  7 33  1  0  0  0  0
  7  6  2  0  0  0  0
  9 11  1  6  0  0  0
  9  8  1  0  0  0  0
  9  4  1  0  0  0  0
 10 12  1  0  0  0  0
 10 11  1  0  0  0  0
 12 16  1  6  0  0  0
 12 13  1  0  0  0  0
 13  8  1  0  0  0  0
 14 16  1  0  0  0  0
 16 15  2  0  0  0  0
 17 18  1  1  0  0  0
 17 21  1  0  0  0  0
 18 20  1  0  0  0  0
 20 19  1  0  0  0  0
 20 14  1  1  0  0  0
 21 28  1  6  0  0  0
 21 19  1  0  0  0  0
 22 23  1  1  0  0  0
 22 17  1  0  0  0  0
 22 26  1  0  0  0  0
 24 26  1  0  0  0  0
 25 27  2  0  0  0  0
 25 24  1  0  0  0  0
 27 23  1  0  0  0  0
 28 30  1  0  0  0  0
 29 28  1  0  0  0  0
 32 31  1  0  0  0  0
 32 30  1  0  0  0  0
 33 34  1  6  0  0  0
 35 33  1  0  0  0  0
 36 35  1  0  0  0  0
 37 36  1  0  0  0  0
 39 40  2  0  0  0  0
 40 47  1  0  0  0  0
 41 38  1  0  0  0  0
 41 42  1  0  0  0  0
 42 50  1  6  0  0  0
 42 39  1  0  0  0  0
 43 55  1  6  0  0  0
 43 48  1  0  0  0  0
 43 44  1  0  0  0  0
 44 45  2  0  0  0  0
 44 39  1  0  0  0  0
 46 53  1  6  0  0  0
 46 47  1  0  0  0  0
 47 37  1  1  0  0  0
 48 41  1  0  0  0  0
 49 41  1  0  0  0  0
 50 46  1  0  0  0  0
 52 53  1  0  0  0  0
 53 51  1  0  0  0  0
 54 55  1  0  0  0  0
 56  2  1  0  0  0  0
 57 56  1  0  0  0  0
 59 58  1  0  0  0  0
M  END
>  <MODEL>
7

>  <REMARK>
 VINA RESULT:      -1.9      4.064      8.992
  Name = 
  16 active torsions:
  status: ('A' for Active; 'I' for Inactive)
    1  A    between atoms: N_2  and  C_4
    2  A    between atoms: C_3  and  O_22
    3  A    between atoms: C_5  and  C_6
    4  A    between atoms: C_5  and  C_12
    5  A    between atoms: C_6  and  C_50
    6  A    between atoms: N_10  and  C_40
    7  A    between atoms: N_10  and  C_41
    8  A    between atoms: C_12  and  O_54
    9  A    between atoms: C_18  and  N_45
   10  A    between atoms: C_23  and  C_51
   11  A    between atoms: C_24  and  C_42
   12  A    between atoms: N_25  and  C_26
   13  A    between atoms: C_34  and  O_54
   14  A    between atoms: C_36  and  C_40
   15  A    between atoms: N_47  and  C_49
   16  A    between atoms: C_56  and  C_57
                            x       y       z     vdW  Elec       q    Type
                         _______ _______ _______ _____ _____    ______ ____

>  <TORSDO>
F 16

$$$$
=
 OpenBabel11042412443D

 59 64  0  0  1  0  0  0  0  0999 V2000
  188.3700  178.7080  138.1560 C   0  0  0  0  0  3  0  0  0  0  0  0
  187.5550  178.3800  137.1490 C   0  0  0  0  0  0  0  0  0  0  0  0
  189.5640  175.6570  135.3280 C   0  0  0  0  0  1  0  0  0  0  0  0
  189.7730  178.1770  138.2630 C   0  0  2  0  0  3  0  0  0  0  0  0
  189.9100  176.9090  137.5150 N   0  0  0  0  0  0  0  0  0  0  0  0
  189.1200  176.6900  136.3220 C   0  0  0  0  0  0  0  0  0  0  0  0
  187.9840  177.4010  136.1290 C   0  0  0  0  0  0  0  0  0  0  0  0
  189.1660  177.3290  140.5610 C   0  0  0  0  0  2  0  0  0  0  0  0
  190.2340  178.0540  139.7350 C   0  0  1  0  0  3  0  0  0  0  0  0
  191.9860  177.2850  141.3580 C   0  0  0  0  0  2  0  0  0  0  0  0
  191.5640  177.3030  139.8930 C   0  0  0  0  0  2  0  0  0  0  0  0
  190.9130  176.6020  142.2040 C   0  0  2  0  0  3  0  0  0  0  0  0
  189.5620  177.3020  142.0330 C   0  0  0  0  0  2  0  0  0  0  0  0
  190.7200  177.4880  144.5560 N   0  0  0  0  0  2  0  0  0  0  0  0
  192.2020  175.7150  144.0520 N   0  0  0  0  0  2  0  0  0  0  0  0
  191.3200  176.5670  143.6410 C   0  0  0  0  0  0  0  0  0  0  0  0
  190.4530  176.4050  148.0440 C   0  0  2  0  0  3  0  0  0  0  0  0
  190.7800  176.1490  146.5780 C   0  0  0  0  0  2  0  0  0  0  0  0
  190.0750  178.4360  146.7100 C   0  0  0  0  0  2  0  0  0  0  0  0
  191.0220  177.5120  145.9790 C   0  0  2  0  0  3  0  0  0  0  0  0
  189.8030  177.8010  148.0720 C   0  0  1  0  0  3  0  0  0  0  0  0
  191.6790  176.3880  148.8550 N   0  0  2  0  0  0  0  0  0  0  0  0
  191.8690  177.7220  149.4400 C   0  0  0  0  0  2  0  0  0  0  0  0
  194.0950  175.9730  148.8100 C   0  0  0  0  0  2  0  0  0  0  0  0
  194.1910  177.0050  149.9070 C   0  0  0  0  0  3  0  0  0  0  0  0
  192.8270  176.1590  147.9720 C   0  0  0  0  0  2  0  0  0  0  0  0
  193.1500  177.7860  150.2310 C   0  0  0  0  0  3  0  0  0  0  0  0
  188.3590  177.7000  148.3040 N   0  0  0  0  0  0  0  0  0  0  0  0
  187.9920  178.7360  149.1010 O   0  0  0  0  0  1  0  0  0  0  0  0
  187.6810  177.9140  147.0300 C   0  0  0  0  0  2  0  0  0  0  0  0
  185.5270  178.5450  145.9440 C   0  0  0  0  0  1  0  0  0  0  0  0
  186.2130  178.2300  147.2580 C   0  0  0  0  0  2  0  0  0  0  0  0
  187.0920  177.2550  134.9180 C   0  0  2  0  0  3  0  0  0  0  0  0
  186.2200  178.4610  134.5940 C   0  0  0  0  0  1  0  0  0  0  0  0
  186.3920  175.8980  134.8060 C   0  0  0  0  0  2  0  0  0  0  0  0
  184.8980  175.9560  135.0870 C   0  0  0  0  0  2  0  0  0  0  0  0
  184.2830  174.7960  134.6090 O   0  0  0  0  0  0  0  0  0  0  0  0
  179.2550  175.5140  135.9300 C   0  0  0  0  0  1  0  0  0  0  0  0
  182.8320  175.2930  137.3010 C   0  0  0  0  0  0  0  0  0  0  0  0
  184.0190  174.7880  136.9570 C   0  0  0  0  0  3  0  0  0  0  0  0
  180.2820  175.4200  137.0410 C   0  0  0  0  0  0  0  0  0  0  0  0
  181.6330  174.9900  136.4300 C   0  0  2  0  0  3  0  0  0  0  0  0
  181.4410  176.8950  138.7970 C   0  0  1  0  0  3  0  0  0  0  0  0
  182.7390  176.2370  138.4360 C   0  0  0  0  0  0  0  0  0  0  0  0
  183.7620  176.5040  139.1220 O   0  0  0  0  0  0  0  0  0  0  0  0
  182.9990  172.9880  135.5140 C   0  0  2  0  0  3  0  0  0  0  0  0
  184.1790  173.9550  135.7170 C   0  0  1  0  0  3  0  0  0  0  0  0
  180.3980  176.8100  137.6750 C   0  0  0  0  0  2  0  0  0  0  0  0
  179.7710  174.4140  138.0670 C   0  0  0  0  0  1  0  0  0  0  0  0
  181.6270  173.5160  135.9840 C   0  0  0  0  0  2  0  0  0  0  0  0
  182.1070  170.6770  136.0600 C   0  0  0  0  0  1  0  0  0  0  0  0
  184.4530  170.9560  135.2770 C   0  0  0  0  0  1  0  0  0  0  0  0
  183.3200  171.5950  136.0570 C   0  0  0  0  0  3  0  0  0  0  0  0
  179.9600  177.2830  140.5720 C   0  0  0  0  0  1  0  0  0  0  0  0
  180.9230  176.3360  140.0370 N   0  0  0  0  0  2  0  0  0  0  0  0
  186.2750  178.9410  137.0540 O   0  0  0  0  0  0  0  0  0  0  0  0
  185.4500  179.1840  138.1830 C   0  0  0  0  0  1  0  0  0  0  0  0
  190.6130  174.5770  137.6660 C   0  0  0  0  0  1  0  0  0  0  0  0
  191.0430  176.0250  137.7840 C   0  0  0  0  0  2  0  0  0  0  0  0
  2  1  2  0  0  0  0
  3  6  1  0  0  0  0
  4  1  1  1  0  0  0
  4  9  1  0  0  0  0
  5 59  1  0  0  0  0
  5  4  1  0  0  0  0
  6  5  1  0  0  0  0
  7  6  2  0  0  0  0
  7  2  1  0  0  0  0
  8 13  1  0  0  0  0
  9 11  1  6  0  0  0
  9  8  1  0  0  0  0
 10 12  1  0  0  0  0
 11 10  1  0  0  0  0
 12 16  1  1  0  0  0
 13 12  1  0  0  0  0
 16 15  2  0  0  0  0
 16 14  1  0  0  0  0
 17 18  1  6  0  0  0
 17 21  1  0  0  0  0
 17 22  1  0  0  0  0
 19 21  1  0  0  0  0
 20 14  1  6  0  0  0
 20 18  1  0  0  0  0
 20 19  1  0  0  0  0
 21 28  1  6  0  0  0
 22 26  1  6  0  0  0
 22 23  1  0  0  0  0
 23 27  1  0  0  0  0
 24 25  1  0  0  0  0
 25 27  2  0  0  0  0
 26 24  1  0  0  0  0
 28 29  1  0  0  0  0
 30 32  1  0  0  0  0
 30 28  1  0  0  0  0
 31 32  1  0  0  0  0
 33 34  1  1  0  0  0
 33  7  1  0  0  0  0
 35 33  1  0  0  0  0
 35 36  1  0  0  0  0
 37 36  1  0  0  0  0
 38 41  1  0  0  0  0
 39 44  1  0  0  0  0
 40 39  2  0  0  0  0
 41 48  1  0  0  0  0
 41 49  1  0  0  0  0
 42 50  1  1  0  0  0
 42 41  1  0  0  0  0
 42 39  1  0  0  0  0
 43 55  1  1  0  0  0
 44 43  1  0  0  0  0
 44 45  2  0  0  0  0
 46 47  1  0  0  0  0
 46 50  1  0  0  0  0
 46 53  1  1  0  0  0
 47 37  1  6  0  0  0
 47 40  1  0  0  0  0
 48 43  1  0  0  0  0
 52 53  1  0  0  0  0
 53 51  1  0  0  0  0
 55 54  1  0  0  0  0
 56  2  1  0  0  0  0
 56 57  1  0  0  0  0
 58 59  1  0  0  0  0
M  END
>  <MODEL>
8

>  <REMARK>
 VINA RESULT:      -1.9      1.410      2.163
  Name = 
  16 active torsions:
  status: ('A' for Active; 'I' for Inactive)
    1  A    between atoms: N_2  and  C_4
    2  A    between atoms: C_3  and  O_22
    3  A    between atoms: C_5  and  C_6
    4  A    between atoms: C_5  and  C_12
    5  A    between atoms: C_6  and  C_50
    6  A    between atoms: N_10  and  C_40
    7  A    between atoms: N_10  and  C_41
    8  A    between atoms: C_12  and  O_54
    9  A    between atoms: C_18  and  N_45
   10  A    between atoms: C_23  and  C_51
   11  A    between atoms: C_24  and  C_42
   12  A    between atoms: N_25  and  C_26
   13  A    between atoms: C_34  and  O_54
   14  A    between atoms: C_36  and  C_40
   15  A    between atoms: N_47  and  C_49
   16  A    between atoms: C_56  and  C_57
                            x       y       z     vdW  Elec       q    Type
                         _______ _______ _______ _____ _____    ______ ____

>  <TORSDO>
F 16

$$$$
