=
 OpenBabel11032420523D

 42 45  0  0  1  0  0  0  0  0999 V2000
  186.1300  178.1470  145.1330 C   0  0  0  0  0  0  0  0  0  0  0  0
  184.9980  178.5330  144.5770 C   0  0  0  0  0  3  0  0  0  0  0  0
  185.0750  178.2460  143.1620 C   0  0  0  0  0  0  0  0  0  0  0  0
  184.0790  178.4300  142.3520 N   0  0  0  0  0  0  0  0  0  0  0  0
  186.3970  177.6600  142.7960 C   0  0  2  0  0  3  0  0  0  0  0  0
  187.0930  177.5410  144.1530 C   0  0  0  0  0  2  0  0  0  0  0  0
  184.1380  178.0970  140.9350 C   0  0  0  0  0  2  0  0  0  0  0  0
  183.0370  178.8290  140.1800 C   0  0  0  0  0  2  0  0  0  0  0  0
  183.3080  180.7360  138.7680 F   0  0  0  0  0  0  0  0  0  0  0  0
  183.5230  179.3720  138.8410 C   0  0  0  0  0  0  0  0  0  0  0  0
  184.8770  179.1240  138.7220 F   0  0  0  0  0  0  0  0  0  0  0  0
  182.8570  178.7430  137.8050 F   0  0  0  0  0  0  0  0  0  0  0  0
  187.1710  178.6280  141.9110 C   0  0  0  0  0  2  0  0  0  0  0  0
  188.7760  177.6270  138.7990 C   0  0  0  0  0  2  0  0  0  0  0  0
  190.4710  177.0490  141.5830 C   0  0  0  0  0  2  0  0  0  0  0  0
  188.2090  177.9180  141.1840 N   0  0  0  0  0  0  0  0  0  0  0  0
  188.3580  178.5990  139.9050 C   0  0  0  0  0  2  0  0  0  0  0  0
  190.8880  177.0940  140.1170 C   0  0  0  0  0  2  0  0  0  0  0  0
  189.4510  178.1340  141.9150 C   0  0  0  0  0  2  0  0  0  0  0  0
  189.7690  176.5450  139.2350 C   0  0  2  0  0  3  0  0  0  0  0  0
  190.3420  175.8950  138.0220 C   0  0  0  0  0  3  0  0  0  0  0  0
  191.6070  175.9220  137.8050 N   0  0  0  0  0  0  0  0  0  0  0  0
  191.3590  173.1170  135.8870 C   0  0  0  0  0  2  0  0  0  0  0  0
  192.8280  172.9920  136.2180 C   0  0  0  0  0  2  0  0  0  0  0  0
  193.1440  174.2190  137.0490 C   0  0  2  0  0  3  0  0  0  0  0  0
  191.0740  174.6050  135.8270 C   0  0  0  0  0  2  0  0  0  0  0  0
  192.1650  175.3000  136.6320 C   0  0  1  0  0  3  0  0  0  0  0  0
  194.6060  174.6720  136.9590 C   0  0  1  0  0  3  0  0  0  0  0  0
  194.6690  176.0020  136.5430 O   0  0  0  0  0  1  0  0  0  0  0  0
  195.5560  174.4630  138.5090 P   0  0  0  0  0  0  0  0  0  0  0  0
  197.2110  174.6470  138.2090 O   0  0  0  0  0  0  0  0  0  0  0  0
  195.1130  175.4830  139.5320 O   0  0  0  0  0  1  0  0  0  0  0  0
  195.2750  172.9100  139.1180 O   0  0  0  0  0  1  0  0  0  0  0  0
  186.3780  178.3080  146.5990 C   0  0  0  0  0  2  0  0  0  0  0  0
  187.3960  177.3090  147.1300 C   0  0  0  0  0  2  0  0  0  0  0  0
  188.4740  178.0210  147.9290 C   0  0  0  0  0  2  0  0  0  0  0  0
  190.1400  176.3070  147.6480 O   0  0  0  0  0  0  0  0  0  0  0  0
  191.8440  176.3120  145.9090 C   0  0  0  0  0  2  0  0  0  0  0  0
  189.9560  178.0040  145.9180 C   0  0  0  0  0  2  0  0  0  0  0  0
  191.5160  176.1450  147.4020 C   0  0  0  0  0  2  0  0  0  0  0  0
  189.8620  177.6670  147.4140 C   0  0  1  0  0  3  0  0  0  0  0  0
  190.6600  176.8940  145.1310 C   0  0  0  0  0  2  0  0  0  0  0  0
  1 34  1  0  0  0  0
  2  1  2  0  0  0  0
  3  2  1  0  0  0  0
  4  3  2  0  0  0  0
  5 13  1  6  0  0  0
  5  3  1  0  0  0  0
  5  6  1  0  0  0  0
  6  1  1  0  0  0  0
  7  4  1  0  0  0  0
  8  7  1  0  0  0  0
  9 10  1  0  0  0  0
 10  8  1  0  0  0  0
 11 10  1  0  0  0  0
 12 10  1  0  0  0  0
 14 20  1  0  0  0  0
 14 17  1  0  0  0  0
 15 19  1  0  0  0  0
 16 13  1  0  0  0  0
 16 19  1  0  0  0  0
 17 16  1  0  0  0  0
 18 15  1  0  0  0  0
 20 21  1  6  0  0  0
 20 18  1  0  0  0  0
 22 21  2  0  0  0  0
 23 24  1  0  0  0  0
 24 25  1  0  0  0  0
 25 28  1  6  0  0  0
 26 23  1  0  0  0  0
 26 27  1  0  0  0  0
 27 25  1  0  0  0  0
 27 22  1  1  0  0  0
 28 29  1  1  0  0  0
 28 30  1  0  0  0  0
 30 33  1  0  0  0  0
 30 32  1  0  0  0  0
 31 30  2  0  0  0  0
 34 35  1  0  0  0  0
 35 36  1  0  0  0  0
 38 40  1  0  0  0  0
 39 41  1  0  0  0  0
 40 37  1  0  0  0  0
 41 37  1  0  0  0  0
 41 36  1  6  0  0  0
 42 38  1  0  0  0  0
 42 39  1  0  0  0  0
M  END
>  <MODEL>
1

>  <REMARK>
 VINA RESULT:      -8.9      0.000      0.000
  Name = 
  13 active torsions:
  status: ('A' for Active; 'I' for Inactive)
    1  A    between atoms: P_2  and  C_22
    2  A    between atoms: C_5  and  C_41
    3  A    between atoms: C_7  and  C_32
    4  A    between atoms: C_9  and  C_29
    5  A    between atoms: C_10  and  C_22
    6  A    between atoms: N_12  and  C_17
    7  A    between atoms: N_14  and  C_31
    8  A    between atoms: N_23  and  C_28
    9  A    between atoms: C_24  and  C_37
   10  A    between atoms: C_24  and  C_38
   11  A    between atoms: C_25  and  C_31
   12  A    between atoms: C_28  and  C_29
   13  A    between atoms: C_32  and  C_37
                            x       y       z     vdW  Elec       q    Type
                         _______ _______ _______ _____ _____    ______ ____

>  <TORSDO>
F 13

$$$$
=
 OpenBabel11032420523D

 42 45  0  0  1  0  0  0  0  0999 V2000
  185.1970  178.5350  145.1040 C   0  0  0  0  0  0  0  0  0  0  0  0
  185.8260  178.3340  146.2450 C   0  0  0  0  0  3  0  0  0  0  0  0
  187.2100  178.0410  145.9460 C   0  0  0  0  0  0  0  0  0  0  0  0
  188.1110  177.8820  146.8650 N   0  0  0  0  0  0  0  0  0  0  0  0
  187.4560  178.0180  144.4740 C   0  0  2  0  0  3  0  0  0  0  0  0
  186.0930  178.4130  143.9050 C   0  0  0  0  0  2  0  0  0  0  0  0
  189.5140  177.6330  146.5660 C   0  0  0  0  0  2  0  0  0  0  0  0
  190.0210  176.4510  147.3810 C   0  0  0  0  0  2  0  0  0  0  0  0
  192.0560  177.1620  148.4080 F   0  0  0  0  0  0  0  0  0  0  0  0
  191.5430  176.3740  147.3940 C   0  0  0  0  0  0  0  0  0  0  0  0
  191.9230  175.0630  147.6100 F   0  0  0  0  0  0  0  0  0  0  0  0
  192.0490  176.7950  146.1790 F   0  0  0  0  0  0  0  0  0  0  0  0
  187.8060  176.6070  144.0240 C   0  0  0  0  0  2  0  0  0  0  0  0
  188.9740  177.0570  140.6030 C   0  0  0  0  0  2  0  0  0  0  0  0
  191.2990  177.0090  142.9600 C   0  0  0  0  0  2  0  0  0  0  0  0
  188.8700  176.6480  143.0370 N   0  0  0  0  0  0  0  0  0  0  0  0
  188.3950  177.4950  141.9510 C   0  0  0  0  0  2  0  0  0  0  0  0
  191.3150  177.4840  141.5110 C   0  0  0  0  0  2  0  0  0  0  0  0
  189.9850  177.3540  143.6550 C   0  0  0  0  0  2  0  0  0  0  0  0
  190.4300  176.5830  140.6530 C   0  0  2  0  0  3  0  0  0  0  0  0
  190.9640  176.5110  139.2630 C   0  0  0  0  0  3  0  0  0  0  0  0
  191.1720  175.3740  138.7030 N   0  0  0  0  0  0  0  0  0  0  0  0
  191.2610  173.3350  135.9740 C   0  0  0  0  0  2  0  0  0  0  0  0
  192.7550  173.4580  136.1700 C   0  0  0  0  0  2  0  0  0  0  0  0
  192.9160  174.4000  137.3460 C   0  0  2  0  0  3  0  0  0  0  0  0
  190.6750  174.6580  136.4290 C   0  0  0  0  0  2  0  0  0  0  0  0
  191.6940  175.2990  137.3630 C   0  0  1  0  0  3  0  0  0  0  0  0
  194.2330  175.1850  137.3370 C   0  0  1  0  0  3  0  0  0  0  0  0
  193.9850  176.5370  137.5750 O   0  0  0  0  0  1  0  0  0  0  0  0
  195.4840  174.5680  138.5210 P   0  0  0  0  0  0  0  0  0  0  0  0
  195.4640  175.5020  139.9320 O   0  0  0  0  0  1  0  0  0  0  0  0
  195.2050  173.1250  138.8690 O   0  0  0  0  0  1  0  0  0  0  0  0
  197.0140  174.6790  137.8080 O   0  0  0  0  0  0  0  0  0  0  0  0
  183.7370  178.8600  145.0610 C   0  0  0  0  0  2  0  0  0  0  0  0
  183.1440  178.6860  143.6700 C   0  0  0  0  0  2  0  0  0  0  0  0
  181.7910  179.3730  143.5790 C   0  0  0  0  0  2  0  0  0  0  0  0
  180.3580  180.1620  141.8130 O   0  0  0  0  0  0  0  0  0  0  0  0
  180.3940  179.3220  139.5290 C   0  0  0  0  0  2  0  0  0  0  0  0
  182.1540  178.6360  141.2190 C   0  0  0  0  0  2  0  0  0  0  0  0
  179.5520  179.6900  140.7620 C   0  0  0  0  0  2  0  0  0  0  0  0
  181.1030  179.0540  142.2600 C   0  0  1  0  0  3  0  0  0  0  0  0
  181.8900  179.2830  139.8560 C   0  0  0  0  0  2  0  0  0  0  0  0
  1  2  2  0  0  0  0
  3  2  1  0  0  0  0
  3  4  2  0  0  0  0
  5 13  1  6  0  0  0
  5  3  1  0  0  0  0
  6  5  1  0  0  0  0
  6  1  1  0  0  0  0
  7  4  1  0  0  0  0
  7  8  1  0  0  0  0
  8 10  1  0  0  0  0
 10 11  1  0  0  0  0
 10  9  1  0  0  0  0
 12 10  1  0  0  0  0
 14 20  1  0  0  0  0
 14 17  1  0  0  0  0
 15 19  1  0  0  0  0
 16 19  1  0  0  0  0
 16 13  1  0  0  0  0
 17 16  1  0  0  0  0
 18 15  1  0  0  0  0
 20 21  1  6  0  0  0
 20 18  1  0  0  0  0
 22 21  2  0  0  0  0
 23 24  1  0  0  0  0
 23 26  1  0  0  0  0
 24 25  1  0  0  0  0
 25 28  1  6  0  0  0
 25 27  1  0  0  0  0
 26 27  1  0  0  0  0
 27 22  1  1  0  0  0
 28 29  1  1  0  0  0
 28 30  1  0  0  0  0
 30 32  1  0  0  0  0
 30 31  1  0  0  0  0
 33 30  2  0  0  0  0
 34  1  1  0  0  0  0
 35 34  1  0  0  0  0
 36 35  1  0  0  0  0
 37 41  1  0  0  0  0
 38 42  1  0  0  0  0
 38 40  1  0  0  0  0
 39 41  1  0  0  0  0
 40 37  1  0  0  0  0
 41 36  1  1  0  0  0
 42 39  1  0  0  0  0
M  END
>  <MODEL>
2

>  <REMARK>
 VINA RESULT:      -8.6      3.982      6.643
  Name = 
  13 active torsions:
  status: ('A' for Active; 'I' for Inactive)
    1  A    between atoms: P_2  and  C_22
    2  A    between atoms: C_5  and  C_41
    3  A    between atoms: C_7  and  C_32
    4  A    between atoms: C_9  and  C_29
    5  A    between atoms: C_10  and  C_22
    6  A    between atoms: N_12  and  C_17
    7  A    between atoms: N_14  and  C_31
    8  A    between atoms: N_23  and  C_28
    9  A    between atoms: C_24  and  C_37
   10  A    between atoms: C_24  and  C_38
   11  A    between atoms: C_25  and  C_31
   12  A    between atoms: C_28  and  C_29
   13  A    between atoms: C_32  and  C_37
                            x       y       z     vdW  Elec       q    Type
                         _______ _______ _______ _____ _____    ______ ____

>  <TORSDO>
F 13

$$$$
=
 OpenBabel11032420523D

 42 45  0  0  1  0  0  0  0  0999 V2000
  184.7040  178.5730  145.2380 C   0  0  0  0  0  0  0  0  0  0  0  0
  185.3480  178.4540  146.3840 C   0  0  0  0  0  3  0  0  0  0  0  0
  186.7410  178.2050  146.0890 C   0  0  0  0  0  0  0  0  0  0  0  0
  187.6520  178.1290  147.0090 N   0  0  0  0  0  0  0  0  0  0  0  0
  186.9800  178.1210  144.6190 C   0  0  2  0  0  3  0  0  0  0  0  0
  185.5990  178.4300  144.0400 C   0  0  0  0  0  2  0  0  0  0  0  0
  189.0630  177.9240  146.7120 C   0  0  0  0  0  2  0  0  0  0  0  0
  189.5390  176.6090  147.3140 C   0  0  0  0  0  2  0  0  0  0  0  0
  191.5800  176.8300  146.0920 F   0  0  0  0  0  0  0  0  0  0  0  0
  191.0590  176.5030  147.3310 C   0  0  0  0  0  0  0  0  0  0  0  0
  191.5590  177.3830  148.2730 F   0  0  0  0  0  0  0  0  0  0  0  0
  191.4410  175.2180  147.6690 F   0  0  0  0  0  0  0  0  0  0  0  0
  187.3870  176.7050  144.2350 C   0  0  0  0  0  2  0  0  0  0  0  0
  188.4520  178.1650  141.0720 C   0  0  0  0  0  2  0  0  0  0  0  0
  190.5050  175.9580  142.4420 C   0  0  0  0  0  2  0  0  0  0  0  0
  188.2630  176.7350  143.0760 N   0  0  0  0  0  0  0  0  0  0  0  0
  188.2590  178.1070  142.5900 C   0  0  0  0  0  2  0  0  0  0  0  0
  190.7020  177.0060  141.3510 C   0  0  0  0  0  2  0  0  0  0  0  0
  189.6100  176.4720  143.5650 C   0  0  0  0  0  2  0  0  0  0  0  0
  189.4350  177.1330  140.5100 C   0  0  2  0  0  3  0  0  0  0  0  0
  189.7820  177.5070  139.1090 C   0  0  0  0  0  3  0  0  0  0  0  0
  189.3960  176.7780  138.1250 N   0  0  0  0  0  0  0  0  0  0  0  0
  187.9960  177.8320  135.2030 C   0  0  0  0  0  2  0  0  0  0  0  0
  188.6450  176.5790  134.6630 C   0  0  0  0  0  2  0  0  0  0  0  0
  189.3820  175.9830  135.8450 C   0  0  2  0  0  3  0  0  0  0  0  0
  188.9090  178.3260  136.3100 C   0  0  0  0  0  2  0  0  0  0  0  0
  189.7350  177.1320  136.7720 C   0  0  1  0  0  3  0  0  0  0  0  0
  190.5990  175.1360  135.4560 C   0  0  1  0  0  3  0  0  0  0  0  0
  191.6930  175.9620  135.1970 O   0  0  0  0  0  1  0  0  0  0  0  0
  191.0610  173.8680  136.6910 P   0  0  0  0  0  0  0  0  0  0  0  0
  192.0530  174.5460  137.8820 O   0  0  0  0  0  1  0  0  0  0  0  0
  189.8200  173.2950  137.3370 O   0  0  0  0  0  1  0  0  0  0  0  0
  191.9030  172.6250  135.9120 O   0  0  0  0  0  0  0  0  0  0  0  0
  183.2320  178.8330  145.1900 C   0  0  0  0  0  2  0  0  0  0  0  0
  182.7140  178.9750  143.7670 C   0  0  0  0  0  2  0  0  0  0  0  0
  181.1950  178.9370  143.7470 C   0  0  0  0  0  2  0  0  0  0  0  0
  179.4710  179.0690  142.0720 O   0  0  0  0  0  0  0  0  0  0  0  0
  179.7880  178.5220  139.7220 C   0  0  0  0  0  2  0  0  0  0  0  0
  181.7450  178.6440  141.3280 C   0  0  0  0  0  2  0  0  0  0  0  0
  178.9360  178.3470  140.9890 C   0  0  0  0  0  2  0  0  0  0  0  0
  180.6770  178.4260  142.4110 C   0  0  1  0  0  3  0  0  0  0  0  0
  181.1350  179.1830  140.0310 C   0  0  0  0  0  2  0  0  0  0  0  0
  1  2  2  0  0  0  0
  3  2  1  0  0  0  0
  3  4  2  0  0  0  0
  5 13  1  1  0  0  0
  5  3  1  0  0  0  0
  6  5  1  0  0  0  0
  6  1  1  0  0  0  0
  7  4  1  0  0  0  0
  7  8  1  0  0  0  0
  8 10  1  0  0  0  0
  9 10  1  0  0  0  0
 10 12  1  0  0  0  0
 10 11  1  0  0  0  0
 14 17  1  0  0  0  0
 15 19  1  0  0  0  0
 16 19  1  0  0  0  0
 16 13  1  0  0  0  0
 17 16  1  0  0  0  0
 18 15  1  0  0  0  0
 20 21  1  6  0  0  0
 20 14  1  0  0  0  0
 20 18  1  0  0  0  0
 22 21  2  0  0  0  0
 23 26  1  0  0  0  0
 24 23  1  0  0  0  0
 24 25  1  0  0  0  0
 25 28  1  6  0  0  0
 25 27  1  0  0  0  0
 26 27  1  0  0  0  0
 27 22  1  1  0  0  0
 28 29  1  1  0  0  0
 28 30  1  0  0  0  0
 30 32  1  0  0  0  0
 30 31  1  0  0  0  0
 33 30  2  0  0  0  0
 34  1  1  0  0  0  0
 35 34  1  0  0  0  0
 36 35  1  0  0  0  0
 37 41  1  0  0  0  0
 38 42  1  0  0  0  0
 38 40  1  0  0  0  0
 39 41  1  0  0  0  0
 40 37  1  0  0  0  0
 41 36  1  1  0  0  0
 42 39  1  0  0  0  0
M  END
>  <MODEL>
3

>  <REMARK>
 VINA RESULT:      -8.4      4.381      7.066
  Name = 
  13 active torsions:
  status: ('A' for Active; 'I' for Inactive)
    1  A    between atoms: P_2  and  C_22
    2  A    between atoms: C_5  and  C_41
    3  A    between atoms: C_7  and  C_32
    4  A    between atoms: C_9  and  C_29
    5  A    between atoms: C_10  and  C_22
    6  A    between atoms: N_12  and  C_17
    7  A    between atoms: N_14  and  C_31
    8  A    between atoms: N_23  and  C_28
    9  A    between atoms: C_24  and  C_37
   10  A    between atoms: C_24  and  C_38
   11  A    between atoms: C_25  and  C_31
   12  A    between atoms: C_28  and  C_29
   13  A    between atoms: C_32  and  C_37
                            x       y       z     vdW  Elec       q    Type
                         _______ _______ _______ _____ _____    ______ ____

>  <TORSDO>
F 13

$$$$
=
 OpenBabel11032420523D

 42 45  0  0  1  0  0  0  0  0999 V2000
  184.9050  178.7230  143.5380 C   0  0  0  0  0  0  0  0  0  0  0  0
  184.2330  179.2560  142.5360 C   0  0  0  0  0  3  0  0  0  0  0  0
  184.9040  178.8960  141.3070 C   0  0  0  0  0  0  0  0  0  0  0  0
  184.4360  179.1970  140.1350 N   0  0  0  0  0  0  0  0  0  0  0  0
  186.1340  178.0950  141.5720 C   0  0  2  0  0  3  0  0  0  0  0  0
  186.1000  177.9290  143.0920 C   0  0  0  0  0  2  0  0  0  0  0  0
  185.0860  178.7950  138.8950 C   0  0  0  0  0  2  0  0  0  0  0  0
  184.3470  177.6160  138.2760 C   0  0  0  0  0  2  0  0  0  0  0  0
  186.2920  177.6620  136.8900 F   0  0  0  0  0  0  0  0  0  0  0  0
  185.0250  177.1180  137.0060 C   0  0  0  0  0  0  0  0  0  0  0  0
  185.1330  175.7410  137.0660 F   0  0  0  0  0  0  0  0  0  0  0  0
  184.2710  177.4620  135.8990 F   0  0  0  0  0  0  0  0  0  0  0  0
  187.3710  178.8880  141.1750 C   0  0  0  0  0  2  0  0  0  0  0  0
  189.2350  177.6260  138.3110 C   0  0  0  0  0  2  0  0  0  0  0  0
  190.3430  176.7330  141.3010 C   0  0  0  0  0  2  0  0  0  0  0  0
  188.3650  178.0040  140.5910 N   0  0  0  0  0  0  0  0  0  0  0  0
  188.8310  178.6520  139.3730 C   0  0  0  0  0  2  0  0  0  0  0  0
  190.9850  176.7070  139.9170 C   0  0  0  0  0  2  0  0  0  0  0  0
  189.4960  177.9840  141.5090 C   0  0  0  0  0  2  0  0  0  0  0  0
  189.9360  176.3780  138.8580 C   0  0  2  0  0  3  0  0  0  0  0  0
  190.5650  175.6400  137.7250 C   0  0  0  0  0  3  0  0  0  0  0  0
  191.7490  175.9390  137.3300 N   0  0  0  0  0  0  0  0  0  0  0  0
  191.8840  172.8630  135.8700 C   0  0  0  0  0  2  0  0  0  0  0  0
  193.3650  173.0160  136.1300 C   0  0  0  0  0  2  0  0  0  0  0  0
  193.5100  174.3910  136.7490 C   0  0  2  0  0  3  0  0  0  0  0  0
  191.3640  174.2630  135.6050 C   0  0  0  0  0  2  0  0  0  0  0  0
  192.3580  175.2330  136.2320 C   0  0  1  0  0  3  0  0  0  0  0  0
  194.8770  175.0410  136.5070 C   0  0  1  0  0  3  0  0  0  0  0  0
  194.7530  176.4300  136.5030 O   0  0  0  0  0  1  0  0  0  0  0  0
  196.1700  174.5400  137.7000 P   0  0  0  0  0  0  0  0  0  0  0  0
  196.4370  172.8720  137.6080 O   0  0  0  0  0  1  0  0  0  0  0  0
  197.4600  175.2720  137.4080 O   0  0  0  0  0  0  0  0  0  0  0  0
  195.6550  174.9310  139.2630 O   0  0  0  0  0  1  0  0  0  0  0  0
  184.4740  178.9090  144.9580 C   0  0  0  0  0  2  0  0  0  0  0  0
  185.6140  179.3630  145.8570 C   0  0  0  0  0  2  0  0  0  0  0  0
  185.7610  178.4270  147.0450 C   0  0  0  0  0  2  0  0  0  0  0  0
  187.8710  178.1370  145.9230 O   0  0  0  0  0  0  0  0  0  0  0  0
  189.8650  177.2000  146.9590 C   0  0  0  0  0  2  0  0  0  0  0  0
  187.7970  177.7430  148.3210 C   0  0  0  0  0  2  0  0  0  0  0  0
  188.9050  177.1960  145.7580 C   0  0  0  0  0  2  0  0  0  0  0  0
  187.0670  177.6500  146.9720 C   0  0  1  0  0  3  0  0  0  0  0  0
  189.2970  177.9970  148.1360 C   0  0  0  0  0  2  0  0  0  0  0  0
  1 34  1  0  0  0  0
  2  1  2  0  0  0  0
  3  5  1  0  0  0  0
  3  2  1  0  0  0  0
  4  3  2  0  0  0  0
  5 13  1  1  0  0  0
  5  6  1  0  0  0  0
  6  1  1  0  0  0  0
  7  4  1  0  0  0  0
  8  7  1  0  0  0  0
  9 10  1  0  0  0  0
 10 11  1  0  0  0  0
 10  8  1  0  0  0  0
 12 10  1  0  0  0  0
 14 20  1  0  0  0  0
 14 17  1  0  0  0  0
 15 19  1  0  0  0  0
 16 13  1  0  0  0  0
 16 19  1  0  0  0  0
 17 16  1  0  0  0  0
 18 15  1  0  0  0  0
 20 21  1  6  0  0  0
 20 18  1  0  0  0  0
 22 21  2  0  0  0  0
 23 24  1  0  0  0  0
 24 25  1  0  0  0  0
 25 28  1  6  0  0  0
 26 23  1  0  0  0  0
 26 27  1  0  0  0  0
 27 25  1  0  0  0  0
 27 22  1  1  0  0  0
 28 29  1  1  0  0  0
 28 30  1  0  0  0  0
 30 33  1  0  0  0  0
 31 30  1  0  0  0  0
 32 30  2  0  0  0  0
 34 35  1  0  0  0  0
 35 36  1  0  0  0  0
 37 41  1  0  0  0  0
 38 42  1  0  0  0  0
 40 37  1  0  0  0  0
 40 38  1  0  0  0  0
 41 36  1  1  0  0  0
 41 39  1  0  0  0  0
 42 39  1  0  0  0  0
M  END
>  <MODEL>
4

>  <REMARK>
 VINA RESULT:      -8.2      1.505      2.165
  Name = 
  13 active torsions:
  status: ('A' for Active; 'I' for Inactive)
    1  A    between atoms: P_2  and  C_22
    2  A    between atoms: C_5  and  C_41
    3  A    between atoms: C_7  and  C_32
    4  A    between atoms: C_9  and  C_29
    5  A    between atoms: C_10  and  C_22
    6  A    between atoms: N_12  and  C_17
    7  A    between atoms: N_14  and  C_31
    8  A    between atoms: N_23  and  C_28
    9  A    between atoms: C_24  and  C_37
   10  A    between atoms: C_24  and  C_38
   11  A    between atoms: C_25  and  C_31
   12  A    between atoms: C_28  and  C_29
   13  A    between atoms: C_32  and  C_37
                            x       y       z     vdW  Elec       q    Type
                         _______ _______ _______ _____ _____    ______ ____

>  <TORSDO>
F 13

$$$$
=
 OpenBabel11032420523D

 42 45  0  0  1  0  0  0  0  0999 V2000
  181.5260  176.4970  138.7470 C   0  0  0  0  0  0  0  0  0  0  0  0
  182.3790  177.0650  137.9160 C   0  0  0  0  0  3  0  0  0  0  0  0
  183.5100  177.5300  138.6860 C   0  0  0  0  0  0  0  0  0  0  0  0
  184.5630  178.0570  138.1430 N   0  0  0  0  0  0  0  0  0  0  0  0
  183.3250  177.2610  140.1420 C   0  0  2  0  0  3  0  0  0  0  0  0
  181.9960  176.5040  140.1730 C   0  0  0  0  0  2  0  0  0  0  0  0
  185.7230  178.4830  138.9120 C   0  0  0  0  0  2  0  0  0  0  0  0
  187.0030  178.0330  138.2220 C   0  0  0  0  0  2  0  0  0  0  0  0
  187.8580  178.7080  140.3480 F   0  0  0  0  0  0  0  0  0  0  0  0
  188.2200  178.1560  139.1320 C   0  0  0  0  0  0  0  0  0  0  0  0
  188.7450  176.8970  139.3500 F   0  0  0  0  0  0  0  0  0  0  0  0
  189.1820  178.9480  138.5330 F   0  0  0  0  0  0  0  0  0  0  0  0
  183.1810  178.5730  140.9020 C   0  0  0  0  0  2  0  0  0  0  0  0
  185.9830  178.3840  143.2210 C   0  0  0  0  0  2  0  0  0  0  0  0
  182.9820  178.7760  144.5640 C   0  0  0  0  0  2  0  0  0  0  0  0
  183.7150  178.4320  142.2450 N   0  0  0  0  0  0  0  0  0  0  0  0
  185.0280  179.0630  142.2370 C   0  0  0  0  0  2  0  0  0  0  0  0
  184.3890  178.9740  145.1180 C   0  0  0  0  0  2  0  0  0  0  0  0
  182.8720  179.2420  143.1160 C   0  0  0  0  0  2  0  0  0  0  0  0
  185.3360  177.9290  144.5340 C   0  0  2  0  0  3  0  0  0  0  0  0
  186.4090  177.6020  145.5160 C   0  0  0  0  0  3  0  0  0  0  0  0
  187.5690  177.2280  145.1110 N   0  0  0  0  0  0  0  0  0  0  0  0
  188.7740  178.1120  148.1740 C   0  0  0  0  0  2  0  0  0  0  0  0
  190.0460  178.3470  147.3930 C   0  0  0  0  0  2  0  0  0  0  0  0
  189.7090  177.9440  145.9710 C   0  0  2  0  0  3  0  0  0  0  0  0
  188.0700  176.9620  147.4800 C   0  0  0  0  0  2  0  0  0  0  0  0
  188.6070  176.9040  146.0550 C   0  0  1  0  0  3  0  0  0  0  0  0
  190.9170  177.4680  145.1570 C   0  0  1  0  0  3  0  0  0  0  0  0
  191.4100  176.2750  145.6870 O   0  0  0  0  0  1  0  0  0  0  0  0
  190.5870  177.2610  143.3700 P   0  0  0  0  0  0  0  0  0  0  0  0
  189.8700  175.7560  143.0790 O   0  0  0  0  0  1  0  0  0  0  0  0
  189.6710  178.3570  142.8790 O   0  0  0  0  0  1  0  0  0  0  0  0
  192.0510  177.3460  142.5280 O   0  0  0  0  0  0  0  0  0  0  0  0
  180.2370  175.9090  138.2660 C   0  0  0  0  0  2  0  0  0  0  0  0
  180.3870  175.1910  136.9340 C   0  0  0  0  0  2  0  0  0  0  0  0
  180.6110  173.7040  137.1530 C   0  0  0  0  0  2  0  0  0  0  0  0
  183.0110  173.6840  137.3380 O   0  0  0  0  0  0  0  0  0  0  0  0
  184.4530  171.9720  136.3830 C   0  0  0  0  0  2  0  0  0  0  0  0
  181.9300  171.7240  136.3900 C   0  0  0  0  0  2  0  0  0  0  0  0
  184.1680  173.4710  136.5670 C   0  0  0  0  0  2  0  0  0  0  0  0
  181.9310  173.2530  136.5440 C   0  0  1  0  0  3  0  0  0  0  0  0
  183.2660  171.1110  136.8240 C   0  0  0  0  0  2  0  0  0  0  0  0
  1  6  1  0  0  0  0
  2  3  1  0  0  0  0
  2  1  2  0  0  0  0
  3  5  1  0  0  0  0
  4  3  2  0  0  0  0
  4  7  1  0  0  0  0
  5  6  1  0  0  0  0
  5 13  1  1  0  0  0
  8  7  1  0  0  0  0
  8 10  1  0  0  0  0
 10 11  1  0  0  0  0
 10  9  1  0  0  0  0
 12 10  1  0  0  0  0
 13 16  1  0  0  0  0
 14 20  1  0  0  0  0
 15 18  1  0  0  0  0
 16 19  1  0  0  0  0
 17 16  1  0  0  0  0
 17 14  1  0  0  0  0
 19 15  1  0  0  0  0
 20 18  1  0  0  0  0
 20 21  1  1  0  0  0
 22 21  2  0  0  0  0
 24 23  1  0  0  0  0
 25 28  1  1  0  0  0
 25 27  1  0  0  0  0
 25 24  1  0  0  0  0
 26 23  1  0  0  0  0
 27 22  1  6  0  0  0
 27 26  1  0  0  0  0
 28 29  1  1  0  0  0
 30 28  1  0  0  0  0
 31 30  1  0  0  0  0
 32 30  1  0  0  0  0
 33 30  2  0  0  0  0
 34  1  1  0  0  0  0
 35 36  1  0  0  0  0
 35 34  1  0  0  0  0
 38 40  1  0  0  0  0
 38 42  1  0  0  0  0
 39 41  1  0  0  0  0
 39 42  1  0  0  0  0
 40 37  1  0  0  0  0
 41 36  1  1  0  0  0
 41 37  1  0  0  0  0
M  END
>  <MODEL>
5

>  <REMARK>
 VINA RESULT:      -7.7      4.301      9.075
  Name = 
  13 active torsions:
  status: ('A' for Active; 'I' for Inactive)
    1  A    between atoms: P_2  and  C_22
    2  A    between atoms: C_5  and  C_41
    3  A    between atoms: C_7  and  C_32
    4  A    between atoms: C_9  and  C_29
    5  A    between atoms: C_10  and  C_22
    6  A    between atoms: N_12  and  C_17
    7  A    between atoms: N_14  and  C_31
    8  A    between atoms: N_23  and  C_28
    9  A    between atoms: C_24  and  C_37
   10  A    between atoms: C_24  and  C_38
   11  A    between atoms: C_25  and  C_31
   12  A    between atoms: C_28  and  C_29
   13  A    between atoms: C_32  and  C_37
                            x       y       z     vdW  Elec       q    Type
                         _______ _______ _______ _____ _____    ______ ____

>  <TORSDO>
F 13

$$$$
=
 OpenBabel11032420523D

 42 45  0  0  1  0  0  0  0  0999 V2000
  183.4360  178.8350  143.3050 C   0  0  0  0  0  0  0  0  0  0  0  0
  183.5830  178.9310  144.6120 C   0  0  0  0  0  3  0  0  0  0  0  0
  184.9840  178.7510  144.9190 C   0  0  0  0  0  0  0  0  0  0  0  0
  185.4640  178.8780  146.1170 N   0  0  0  0  0  0  0  0  0  0  0  0
  185.7800  178.4770  143.6870 C   0  0  2  0  0  3  0  0  0  0  0  0
  184.7300  178.5920  142.5820 C   0  0  0  0  0  2  0  0  0  0  0  0
  186.8820  178.7430  146.4210 C   0  0  0  0  0  2  0  0  0  0  0  0
  187.0830  178.6040  147.9240 C   0  0  0  0  0  2  0  0  0  0  0  0
  188.1190  176.4910  148.3310 F   0  0  0  0  0  0  0  0  0  0  0  0
  188.3640  177.8500  148.2640 C   0  0  0  0  0  0  0  0  0  0  0  0
  189.3000  178.0890  147.2760 F   0  0  0  0  0  0  0  0  0  0  0  0
  188.8650  178.2900  149.4750 F   0  0  0  0  0  0  0  0  0  0  0  0
  186.3260  177.0560  143.7240 C   0  0  0  0  0  2  0  0  0  0  0  0
  188.3120  178.1080  140.8570 C   0  0  0  0  0  2  0  0  0  0  0  0
  189.8320  176.1720  143.0710 C   0  0  0  0  0  2  0  0  0  0  0  0
  187.5110  176.9560  142.8890 N   0  0  0  0  0  0  0  0  0  0  0  0
  187.6700  178.2500  142.2390 C   0  0  0  0  0  2  0  0  0  0  0  0
  190.3610  177.0680  141.9560 C   0  0  0  0  0  2  0  0  0  0  0  0
  188.6450  176.8050  143.7920 C   0  0  0  0  0  2  0  0  0  0  0  0
  189.4070  177.0400  140.7640 C   0  0  2  0  0  3  0  0  0  0  0  0
  190.1660  177.2330  139.4950 C   0  0  0  0  0  3  0  0  0  0  0  0
  190.6860  176.2280  138.8890 N   0  0  0  0  0  0  0  0  0  0  0  0
  190.9790  174.9890  135.7280 C   0  0  0  0  0  2  0  0  0  0  0  0
  192.4150  174.7790  136.1490 C   0  0  0  0  0  2  0  0  0  0  0  0
  192.4920  175.3360  137.5560 C   0  0  2  0  0  3  0  0  0  0  0  0
  190.5110  176.2330  136.4590 C   0  0  0  0  0  2  0  0  0  0  0  0
  191.4250  176.4090  137.6660 C   0  0  1  0  0  3  0  0  0  0  0  0
  193.8860  175.8390  137.9490 C   0  0  1  0  0  3  0  0  0  0  0  0
  193.8110  176.5820  139.1280 O   0  0  0  0  0  1  0  0  0  0  0  0
  195.1390  174.5190  138.1310 P   0  0  0  0  0  0  0  0  0  0  0  0
  194.4160  172.9990  137.9640 O   0  0  0  0  0  1  0  0  0  0  0  0
  196.2190  174.6790  137.0860 O   0  0  0  0  0  0  0  0  0  0  0  0
  195.8360  174.6330  139.6680 O   0  0  0  0  0  1  0  0  0  0  0  0
  182.0960  178.9720  142.6540 C   0  0  0  0  0  2  0  0  0  0  0  0
  182.1740  178.8690  141.1380 C   0  0  0  0  0  2  0  0  0  0  0  0
  181.7680  177.4790  140.6770 C   0  0  0  0  0  2  0  0  0  0  0  0
  182.1820  176.1600  138.7070 O   0  0  0  0  0  0  0  0  0  0  0  0
  184.1590  176.3660  137.3010 C   0  0  0  0  0  2  0  0  0  0  0  0
  183.6840  178.0150  139.1670 C   0  0  0  0  0  2  0  0  0  0  0  0
  183.2050  175.4350  138.0670 C   0  0  0  0  0  2  0  0  0  0  0  0
  182.8080  176.8890  139.7360 C   0  0  1  0  0  3  0  0  0  0  0  0
  183.9310  177.8360  137.6650 C   0  0  0  0  0  2  0  0  0  0  0  0
  1  2  2  0  0  0  0
  2  3  1  0  0  0  0
  3  4  2  0  0  0  0
  4  7  1  0  0  0  0
  5 13  1  1  0  0  0
  5  3  1  0  0  0  0
  6  1  1  0  0  0  0
  6  5  1  0  0  0  0
  7  8  1  0  0  0  0
  8 10  1  0  0  0  0
 10  9  1  0  0  0  0
 10 12  1  0  0  0  0
 11 10  1  0  0  0  0
 14 17  1  0  0  0  0
 15 19  1  0  0  0  0
 16 13  1  0  0  0  0
 16 19  1  0  0  0  0
 17 16  1  0  0  0  0
 18 15  1  0  0  0  0
 20 21  1  6  0  0  0
 20 14  1  0  0  0  0
 20 18  1  0  0  0  0
 22 21  2  0  0  0  0
 23 24  1  0  0  0  0
 23 26  1  0  0  0  0
 24 25  1  0  0  0  0
 25 27  1  0  0  0  0
 25 28  1  6  0  0  0
 26 27  1  0  0  0  0
 27 22  1  1  0  0  0
 28 30  1  0  0  0  0
 28 29  1  1  0  0  0
 30 33  1  0  0  0  0
 31 30  1  0  0  0  0
 32 30  2  0  0  0  0
 34  1  1  0  0  0  0
 35 34  1  0  0  0  0
 36 35  1  0  0  0  0
 37 41  1  0  0  0  0
 38 42  1  0  0  0  0
 38 40  1  0  0  0  0
 39 41  1  0  0  0  0
 40 37  1  0  0  0  0
 41 36  1  1  0  0  0
 42 39  1  0  0  0  0
M  END
>  <MODEL>
6

>  <REMARK>
 VINA RESULT:      -7.5      3.751      6.344
  Name = 
  13 active torsions:
  status: ('A' for Active; 'I' for Inactive)
    1  A    between atoms: P_2  and  C_22
    2  A    between atoms: C_5  and  C_41
    3  A    between atoms: C_7  and  C_32
    4  A    between atoms: C_9  and  C_29
    5  A    between atoms: C_10  and  C_22
    6  A    between atoms: N_12  and  C_17
    7  A    between atoms: N_14  and  C_31
    8  A    between atoms: N_23  and  C_28
    9  A    between atoms: C_24  and  C_37
   10  A    between atoms: C_24  and  C_38
   11  A    between atoms: C_25  and  C_31
   12  A    between atoms: C_28  and  C_29
   13  A    between atoms: C_32  and  C_37
                            x       y       z     vdW  Elec       q    Type
                         _______ _______ _______ _____ _____    ______ ____

>  <TORSDO>
F 13

$$$$
=
 OpenBabel11032420523D

 42 45  0  0  1  0  0  0  0  0999 V2000
  182.9880  176.8940  137.1680 C   0  0  0  0  0  0  0  0  0  0  0  0
  182.1480  177.8520  136.8260 C   0  0  0  0  0  3  0  0  0  0  0  0
  182.2260  178.8920  137.8270 C   0  0  0  0  0  0  0  0  0  0  0  0
  181.5830  180.0140  137.7290 N   0  0  0  0  0  0  0  0  0  0  0  0
  183.1780  178.5280  138.9180 C   0  0  2  0  0  3  0  0  0  0  0  0
  183.7390  177.1900  138.4350 C   0  0  0  0  0  2  0  0  0  0  0  0
  181.6960  181.0820  138.7120 C   0  0  0  0  0  2  0  0  0  0  0  0
  180.5730  182.0910  138.5200 C   0  0  0  0  0  2  0  0  0  0  0  0
  182.2690  183.6400  137.8640 F   0  0  0  0  0  0  0  0  0  0  0  0
  180.9770  183.2290  137.5900 C   0  0  0  0  0  0  0  0  0  0  0  0
  180.9150  182.7840  136.2840 F   0  0  0  0  0  0  0  0  0  0  0  0
  180.1110  184.2970  137.7430 F   0  0  0  0  0  0  0  0  0  0  0  0
  182.4220  178.3210  140.2230 C   0  0  0  0  0  2  0  0  0  0  0  0
  185.7960  178.5600  141.5750 C   0  0  0  0  0  2  0  0  0  0  0  0
  183.3200  178.6290  143.7720 C   0  0  0  0  0  2  0  0  0  0  0  0
  183.3520  178.2950  141.3380 N   0  0  0  0  0  0  0  0  0  0  0  0
  184.5090  179.0820  140.9320 C   0  0  0  0  0  2  0  0  0  0  0  0
  184.7920  179.0180  143.8700 C   0  0  0  0  0  2  0  0  0  0  0  0
  182.7170  179.0260  142.4280 C   0  0  0  0  0  2  0  0  0  0  0  0
  185.6420  178.0760  143.0210 C   0  0  2  0  0  3  0  0  0  0  0  0
  186.9950  177.9180  143.6260 C   0  0  0  0  0  3  0  0  0  0  0  0
  187.4610  176.7490  143.8810 N   0  0  0  0  0  0  0  0  0  0  0  0
  189.6900  178.3350  145.9130 C   0  0  0  0  0  2  0  0  0  0  0  0
  190.6020  178.1740  144.7180 C   0  0  0  0  0  2  0  0  0  0  0  0
  189.7740  177.4190  143.6980 C   0  0  2  0  0  3  0  0  0  0  0  0
  188.7730  177.1270  145.8980 C   0  0  0  0  0  2  0  0  0  0  0  0
  188.7650  176.5910  144.4720 C   0  0  1  0  0  3  0  0  0  0  0  0
  190.6060  176.5820  142.7200 C   0  0  1  0  0  3  0  0  0  0  0  0
  190.1940  175.2500  142.7600 O   0  0  0  0  0  1  0  0  0  0  0  0
  190.5730  177.1870  140.9940 P   0  0  0  0  0  0  0  0  0  0  0  0
  190.2800  175.9040  139.9300 O   0  0  0  0  0  0  0  0  0  0  0  0
  189.4950  178.2330  140.8290 O   0  0  0  0  0  1  0  0  0  0  0  0
  192.0730  177.8770  140.6260 O   0  0  0  0  0  1  0  0  0  0  0  0
  183.1480  175.6600  136.3380 C   0  0  0  0  0  2  0  0  0  0  0  0
  184.6050  175.3560  136.0240 C   0  0  0  0  0  2  0  0  0  0  0  0
  185.2200  176.4810  135.2070 C   0  0  0  0  0  2  0  0  0  0  0  0
  186.7510  178.2060  135.8930 O   0  0  0  0  0  0  0  0  0  0  0  0
  188.6260  177.8630  137.4080 C   0  0  0  0  0  2  0  0  0  0  0  0
  186.9020  176.0490  137.0020 C   0  0  0  0  0  2  0  0  0  0  0  0
  188.1270  178.4430  136.0750 C   0  0  0  0  0  2  0  0  0  0  0  0
  186.6180  176.8170  135.7030 C   0  0  1  0  0  3  0  0  0  0  0  0
  187.5870  176.9360  138.0470 C   0  0  0  0  0  2  0  0  0  0  0  0
  1  6  1  0  0  0  0
  2  1  2  0  0  0  0
  2  3  1  0  0  0  0
  3  5  1  0  0  0  0
  4  3  2  0  0  0  0
  4  7  1  0  0  0  0
  5 13  1  1  0  0  0
  6  5  1  0  0  0  0
  8  7  1  0  0  0  0
 10 12  1  0  0  0  0
 10  9  1  0  0  0  0
 10  8  1  0  0  0  0
 11 10  1  0  0  0  0
 13 16  1  0  0  0  0
 14 20  1  0  0  0  0
 15 18  1  0  0  0  0
 16 19  1  0  0  0  0
 17 16  1  0  0  0  0
 17 14  1  0  0  0  0
 19 15  1  0  0  0  0
 20 21  1  1  0  0  0
 20 18  1  0  0  0  0
 21 22  2  0  0  0  0
 24 23  1  0  0  0  0
 25 28  1  1  0  0  0
 25 27  1  0  0  0  0
 25 24  1  0  0  0  0
 26 23  1  0  0  0  0
 27 22  1  6  0  0  0
 27 26  1  0  0  0  0
 28 29  1  6  0  0  0
 30 28  1  0  0  0  0
 31 30  2  0  0  0  0
 32 30  1  0  0  0  0
 33 30  1  0  0  0  0
 34  1  1  0  0  0  0
 35 34  1  0  0  0  0
 36 35  1  0  0  0  0
 37 40  1  0  0  0  0
 38 42  1  0  0  0  0
 39 42  1  0  0  0  0
 40 38  1  0  0  0  0
 41 36  1  1  0  0  0
 41 37  1  0  0  0  0
 41 39  1  0  0  0  0
M  END
>  <MODEL>
7

>  <REMARK>
 VINA RESULT:      -7.4      3.728      8.004
  Name = 
  13 active torsions:
  status: ('A' for Active; 'I' for Inactive)
    1  A    between atoms: P_2  and  C_22
    2  A    between atoms: C_5  and  C_41
    3  A    between atoms: C_7  and  C_32
    4  A    between atoms: C_9  and  C_29
    5  A    between atoms: C_10  and  C_22
    6  A    between atoms: N_12  and  C_17
    7  A    between atoms: N_14  and  C_31
    8  A    between atoms: N_23  and  C_28
    9  A    between atoms: C_24  and  C_37
   10  A    between atoms: C_24  and  C_38
   11  A    between atoms: C_25  and  C_31
   12  A    between atoms: C_28  and  C_29
   13  A    between atoms: C_32  and  C_37
                            x       y       z     vdW  Elec       q    Type
                         _______ _______ _______ _____ _____    ______ ____

>  <TORSDO>
F 13

$$$$
=
 OpenBabel11032420523D

 42 45  0  0  1  0  0  0  0  0999 V2000
  189.0270  177.6150  140.7010 C   0  0  0  0  0  0  0  0  0  0  0  0
  190.2450  177.1170  140.6190 C   0  0  0  0  0  3  0  0  0  0  0  0
  190.5540  176.9200  139.2210 C   0  0  0  0  0  0  0  0  0  0  0  0
  191.7170  176.5240  138.8050 N   0  0  0  0  0  0  0  0  0  0  0  0
  189.4010  177.2960  138.3510 C   0  0  2  0  0  3  0  0  0  0  0  0
  188.3820  177.8230  139.3610 C   0  0  0  0  0  2  0  0  0  0  0  0
  192.0450  176.3700  137.3950 C   0  0  0  0  0  2  0  0  0  0  0  0
  193.5530  176.2660  137.2170 C   0  0  0  0  0  2  0  0  0  0  0  0
  193.0080  173.9920  137.7020 F   0  0  0  0  0  0  0  0  0  0  0  0
  194.0660  174.8550  137.4780 C   0  0  0  0  0  0  0  0  0  0  0  0
  194.7710  174.4220  136.3710 F   0  0  0  0  0  0  0  0  0  0  0  0
  194.9060  174.8520  138.5760 F   0  0  0  0  0  0  0  0  0  0  0  0
  188.8410  176.0580  137.6630 C   0  0  0  0  0  2  0  0  0  0  0  0
  185.7970  177.9360  136.9740 C   0  0  0  0  0  2  0  0  0  0  0  0
  185.4690  174.6540  137.2720 C   0  0  0  0  0  2  0  0  0  0  0  0
  187.3940  176.1500  137.5720 N   0  0  0  0  0  0  0  0  0  0  0  0
  187.1060  177.2220  136.6280 C   0  0  0  0  0  2  0  0  0  0  0  0
  184.5600  175.7290  136.6840 C   0  0  0  0  0  2  0  0  0  0  0  0
  186.9370  174.9150  136.9480 C   0  0  0  0  0  2  0  0  0  0  0  0
  184.6820  177.0190  137.4900 C   0  0  2  0  0  3  0  0  0  0  0  0
  183.3910  177.7650  137.4650 C   0  0  0  0  0  3  0  0  0  0  0  0
  182.6660  177.8460  138.5220 N   0  0  0  0  0  0  0  0  0  0  0  0
  181.3690  180.9630  138.0590 C   0  0  0  0  0  2  0  0  0  0  0  0
  180.8050  180.7250  139.4410 C   0  0  0  0  0  2  0  0  0  0  0  0
  181.2480  179.3210  139.8030 C   0  0  2  0  0  3  0  0  0  0  0  0
  181.4140  179.6020  137.3910 C   0  0  0  0  0  2  0  0  0  0  0  0
  181.4160  178.5600  138.5020 C   0  0  1  0  0  3  0  0  0  0  0  0
  180.3150  178.6120  140.7930 C   0  0  1  0  0  3  0  0  0  0  0  0
  180.4070  177.2300  140.6290 O   0  0  0  0  0  1  0  0  0  0  0  0
  180.6060  179.0470  142.5460 P   0  0  0  0  0  0  0  0  0  0  0  0
  179.7690  177.9820  143.5590 O   0  0  0  0  0  1  0  0  0  0  0  0
  182.0820  178.9850  142.8600 O   0  0  0  0  0  1  0  0  0  0  0  0
  180.0490  180.6210  142.8190 O   0  0  0  0  0  0  0  0  0  0  0  0
  188.3980  177.9330  142.0210 C   0  0  0  0  0  2  0  0  0  0  0  0
  188.6360  176.8440  143.0560 C   0  0  0  0  0  2  0  0  0  0  0  0
  187.4610  176.7550  144.0160 C   0  0  0  0  0  2  0  0  0  0  0  0
  186.7560  177.2650  146.2600 O   0  0  0  0  0  0  0  0  0  0  0  0
  188.2380  178.0450  148.0260 C   0  0  0  0  0  2  0  0  0  0  0  0
  189.1420  177.2460  145.7970 C   0  0  0  0  0  2  0  0  0  0  0  0
  186.9160  178.2360  147.2650 C   0  0  0  0  0  2  0  0  0  0  0  0
  187.7280  177.5540  145.2830 C   0  0  1  0  0  3  0  0  0  0  0  0
  189.1620  177.0510  147.3170 C   0  0  0  0  0  2  0  0  0  0  0  0
  1 34  1  0  0  0  0
  2  1  2  0  0  0  0
  3  2  1  0  0  0  0
  4  3  2  0  0  0  0
  5 13  1  1  0  0  0
  5  3  1  0  0  0  0
  5  6  1  0  0  0  0
  6  1  1  0  0  0  0
  7  4  1  0  0  0  0
  8  7  1  0  0  0  0
  8 10  1  0  0  0  0
 10  9  1  0  0  0  0
 10 12  1  0  0  0  0
 11 10  1  0  0  0  0
 14 20  1  0  0  0  0
 16 13  1  0  0  0  0
 17 14  1  0  0  0  0
 17 16  1  0  0  0  0
 18 15  1  0  0  0  0
 18 20  1  0  0  0  0
 19 15  1  0  0  0  0
 19 16  1  0  0  0  0
 20 21  1  6  0  0  0
 21 22  2  0  0  0  0
 23 24  1  0  0  0  0
 24 25  1  0  0  0  0
 25 28  1  1  0  0  0
 26 23  1  0  0  0  0
 26 27  1  0  0  0  0
 27 22  1  1  0  0  0
 27 25  1  0  0  0  0
 28 29  1  1  0  0  0
 28 30  1  0  0  0  0
 30 33  2  0  0  0  0
 30 32  1  0  0  0  0
 30 31  1  0  0  0  0
 34 35  1  0  0  0  0
 35 36  1  0  0  0  0
 37 40  1  0  0  0  0
 39 42  1  0  0  0  0
 40 38  1  0  0  0  0
 41 36  1  6  0  0  0
 41 39  1  0  0  0  0
 41 37  1  0  0  0  0
 42 38  1  0  0  0  0
M  END
>  <MODEL>
8

>  <REMARK>
 VINA RESULT:      -7.4      5.722      9.635
  Name = 
  13 active torsions:
  status: ('A' for Active; 'I' for Inactive)
    1  A    between atoms: P_2  and  C_22
    2  A    between atoms: C_5  and  C_41
    3  A    between atoms: C_7  and  C_32
    4  A    between atoms: C_9  and  C_29
    5  A    between atoms: C_10  and  C_22
    6  A    between atoms: N_12  and  C_17
    7  A    between atoms: N_14  and  C_31
    8  A    between atoms: N_23  and  C_28
    9  A    between atoms: C_24  and  C_37
   10  A    between atoms: C_24  and  C_38
   11  A    between atoms: C_25  and  C_31
   12  A    between atoms: C_28  and  C_29
   13  A    between atoms: C_32  and  C_37
                            x       y       z     vdW  Elec       q    Type
                         _______ _______ _______ _____ _____    ______ ____

>  <TORSDO>
F 13

$$$$
=
 OpenBabel11032420523D

 42 45  0  0  1  0  0  0  0  0999 V2000
  189.2390  177.9560  141.5210 C   0  0  0  0  0  0  0  0  0  0  0  0
  188.3130  178.6400  140.8780 C   0  0  0  0  0  3  0  0  0  0  0  0
  188.2500  178.1400  139.5230 C   0  0  0  0  0  0  0  0  0  0  0  0
  187.3720  178.5510  138.6610 N   0  0  0  0  0  0  0  0  0  0  0  0
  189.2620  177.0690  139.2890 C   0  0  2  0  0  3  0  0  0  0  0  0
  189.8960  176.9060  140.6720 C   0  0  0  0  0  2  0  0  0  0  0  0
  187.2760  178.0160  137.3100 C   0  0  0  0  0  2  0  0  0  0  0  0
  186.0910  177.0670  137.2060 C   0  0  0  0  0  2  0  0  0  0  0  0
  186.6440  174.7630  136.9070 F   0  0  0  0  0  0  0  0  0  0  0  0
  186.3510  175.9300  136.2250 C   0  0  0  0  0  0  0  0  0  0  0  0
  185.2170  175.7290  135.4610 F   0  0  0  0  0  0  0  0  0  0  0  0
  187.4040  176.2550  135.3910 F   0  0  0  0  0  0  0  0  0  0  0  0
  190.3150  177.5510  138.3010 C   0  0  0  0  0  2  0  0  0  0  0  0
  193.0620  175.2640  137.5960 C   0  0  0  0  0  2  0  0  0  0  0  0
  190.0990  174.4280  136.3780 C   0  0  0  0  0  2  0  0  0  0  0  0
  190.8800  176.4200  137.5840 N   0  0  0  0  0  0  0  0  0  0  0  0
  191.9340  175.8790  138.4300 C   0  0  0  0  0  2  0  0  0  0  0  0
  191.3820  173.6330  136.5960 C   0  0  0  0  0  2  0  0  0  0  0  0
  189.8370  175.4040  137.5210 C   0  0  0  0  0  2  0  0  0  0  0  0
  192.5980  174.5190  136.3400 C   0  0  2  0  0  3  0  0  0  0  0  0
  193.7300  173.7000  135.8170 C   0  0  0  0  0  3  0  0  0  0  0  0
  194.3280  172.8560  136.5780 N   0  0  0  0  0  0  0  0  0  0  0  0
  195.8690  169.8450  136.9950 C   0  0  0  0  0  2  0  0  0  0  0  0
  197.0770  170.7160  137.2570 C   0  0  0  0  0  2  0  0  0  0  0  0
  196.5820  172.1340  137.0590 C   0  0  2  0  0  3  0  0  0  0  0  0
  195.0280  170.6000  135.9830 C   0  0  0  0  0  2  0  0  0  0  0  0
  195.4250  172.0680  136.0790 C   0  0  1  0  0  3  0  0  0  0  0  0
  197.6740  173.1190  136.6250 C   0  0  1  0  0  3  0  0  0  0  0  0
  197.5830  173.3590  135.2540 O   0  0  0  0  0  1  0  0  0  0  0  0
  197.6620  174.7070  137.5330 P   0  0  0  0  0  0  0  0  0  0  0  0
  197.6060  176.0010  136.4450 O   0  0  0  0  0  0  0  0  0  0  0  0
  196.4640  174.7710  138.4530 O   0  0  0  0  0  1  0  0  0  0  0  0
  199.0740  174.8220  138.4550 O   0  0  0  0  0  1  0  0  0  0  0  0
  189.5600  178.2300  142.9570 C   0  0  0  0  0  2  0  0  0  0  0  0
  189.1450  177.0880  143.8720 C   0  0  0  0  0  2  0  0  0  0  0  0
  187.6660  176.7820  143.7060 C   0  0  0  0  0  2  0  0  0  0  0  0
  187.6920  177.8800  145.8480 O   0  0  0  0  0  0  0  0  0  0  0  0
  185.7170  178.7460  146.9770 C   0  0  0  0  0  2  0  0  0  0  0  0
  185.6100  177.8910  144.5930 C   0  0  0  0  0  2  0  0  0  0  0  0
  187.0020  177.9080  147.0740 C   0  0  0  0  0  2  0  0  0  0  0  0
  186.8900  177.1280  144.9680 C   0  0  1  0  0  3  0  0  0  0  0  0
  185.3690  179.0830  145.5240 C   0  0  0  0  0  2  0  0  0  0  0  0
  1 34  1  0  0  0  0
  2  1  2  0  0  0  0
  3  2  1  0  0  0  0
  4  3  2  0  0  0  0
  5 13  1  6  0  0  0
  5  3  1  0  0  0  0
  5  6  1  0  0  0  0
  6  1  1  0  0  0  0
  7  4  1  0  0  0  0
  8  7  1  0  0  0  0
 10  9  1  0  0  0  0
 10  8  1  0  0  0  0
 11 10  1  0  0  0  0
 12 10  1  0  0  0  0
 14 17  1  0  0  0  0
 15 18  1  0  0  0  0
 15 19  1  0  0  0  0
 16 13  1  0  0  0  0
 16 17  1  0  0  0  0
 19 16  1  0  0  0  0
 20 21  1  1  0  0  0
 20 18  1  0  0  0  0
 20 14  1  0  0  0  0
 21 22  2  0  0  0  0
 23 24  1  0  0  0  0
 25 28  1  6  0  0  0
 25 24  1  0  0  0  0
 26 27  1  0  0  0  0
 26 23  1  0  0  0  0
 27 22  1  1  0  0  0
 27 25  1  0  0  0  0
 28 29  1  6  0  0  0
 28 30  1  0  0  0  0
 30 32  1  0  0  0  0
 30 33  1  0  0  0  0
 31 30  2  0  0  0  0
 34 35  1  0  0  0  0
 36 35  1  0  0  0  0
 37 40  1  0  0  0  0
 38 40  1  0  0  0  0
 39 41  1  0  0  0  0
 39 42  1  0  0  0  0
 41 36  1  6  0  0  0
 41 37  1  0  0  0  0
 42 38  1  0  0  0  0
M  END
>  <MODEL>
9

>  <REMARK>
 VINA RESULT:      -7.3      2.574      4.745
  Name = 
  13 active torsions:
  status: ('A' for Active; 'I' for Inactive)
    1  A    between atoms: P_2  and  C_22
    2  A    between atoms: C_5  and  C_41
    3  A    between atoms: C_7  and  C_32
    4  A    between atoms: C_9  and  C_29
    5  A    between atoms: C_10  and  C_22
    6  A    between atoms: N_12  and  C_17
    7  A    between atoms: N_14  and  C_31
    8  A    between atoms: N_23  and  C_28
    9  A    between atoms: C_24  and  C_37
   10  A    between atoms: C_24  and  C_38
   11  A    between atoms: C_25  and  C_31
   12  A    between atoms: C_28  and  C_29
   13  A    between atoms: C_32  and  C_37
                            x       y       z     vdW  Elec       q    Type
                         _______ _______ _______ _____ _____    ______ ____

>  <TORSDO>
F 13

$$$$
