=
 OpenBabel11032419193D

 25 29  0  0  1  0  0  0  0  0999 V2000
  190.0940  176.1550  141.8790 N   0  0  0  0  0  0  0  0  0  0  0  0
  190.1170  178.2850  143.7260 C   0  0  0  0  0  2  0  0  0  0  0  0
  190.7360  177.2190  141.5210 C   0  0  0  0  0  0  0  0  0  0  0  0
  190.9910  178.3600  142.4780 C   0  0  0  0  0  2  0  0  0  0  0  0
  189.3960  176.0260  143.1450 C   0  0  0  0  0  2  0  0  0  0  0  0
  190.0750  176.8490  144.2440 C   0  0  2  0  0  3  0  0  0  0  0  0
  189.3210  176.7640  145.5020 N   0  0  2  0  0  0  0  0  0  0  0  0
  186.1180  179.1750  147.0070 C   0  0  0  0  0  0  0  0  0  0  0  0
  186.9770  178.0260  147.4610 C   0  0  2  0  0  3  0  0  0  0  0  0
  188.1650  177.6420  145.4160 C   0  0  1  0  0  3  0  0  0  0  0  0
  185.8910  178.3200  144.7020 C   0  0  0  0  0  3  0  0  0  0  0  0
  188.3340  178.4870  148.0640 C   0  0  0  0  0  2  0  0  0  0  0  0
  189.4570  177.4200  147.9650 C   0  0  0  0  0  2  0  0  0  0  0  0
  186.8220  177.1510  144.9130 C   0  0  2  0  0  3  0  0  0  0  0  0
  187.1820  176.9720  146.3750 C   0  0  2  0  0  3  0  0  0  0  0  0
  185.5820  179.2290  145.6370 C   0  0  0  0  0  3  0  0  0  0  0  0
  190.1460  177.3740  146.5710 C   0  0  0  0  0  2  0  0  0  0  0  0
  185.8170  180.0880  147.8210 O   0  0  0  0  0  0  0  0  0  0  0  0
  191.4330  177.2320  140.1990 C   0  0  0  0  0  2  0  0  0  0  0  0
  191.2460  175.0050  138.2360 O   0  0  0  0  0  0  0  0  0  0  0  0
  189.5710  178.0760  138.6270 C   0  0  0  0  0  3  0  0  0  0  0  0
  189.6550  176.2650  137.1060 O   0  0  0  0  0  0  0  0  0  0  0  0
  188.9910  177.5070  137.3150 C   0  0  0  0  0  3  0  0  0  0  0  0
  190.4760  177.0500  139.1190 N   0  0  0  0  0  0  0  0  0  0  0  0
  190.5090  176.0230  138.1550 C   0  0  0  0  0  0  0  0  0  0  0  0
  1  5  1  0  0  0  0
  2  6  1  0  0  0  0
  3  1  2  0  0  0  0
  3  4  1  0  0  0  0
  4  2  1  0  0  0  0
  6  5  1  6  0  0  0
  6  7  1  0  0  0  0
  7 17  1  1  0  0  0
  8  9  1  0  0  0  0
  8 18  2  0  0  0  0
  9 12  1  6  0  0  0
 10  7  1  0  0  0  0
 10 15  1  0  0  0  0
 11 14  1  0  0  0  0
 11 16  2  0  0  0  0
 13 12  1  0  0  0  0
 14 10  1  0  0  0  0
 14 15  1  0  0  0  0
 15  9  1  0  0  0  0
 16  8  1  0  0  0  0
 17 13  1  0  0  0  0
 19  3  1  0  0  0  0
 21 24  1  0  0  0  0
 22 23  1  0  0  0  0
 22 25  1  0  0  0  0
 23 21  2  0  0  0  0
 24 19  1  0  0  0  0
 25 20  2  0  0  0  0
 25 24  1  0  0  0  0
M  END
>  <MODEL>
1

>  <REMARK>
 VINA RESULT:      -8.8      0.000      0.000
  Name = 
  3 active torsions:
  status: ('A' for Active; 'I' for Inactive)
    1  A    between atoms: N_1  and  C_24
    2  A    between atoms: C_16  and  C_19
    3  A    between atoms: N_18  and  C_19
                            x       y       z     vdW  Elec       q    Type
                         _______ _______ _______ _____ _____    ______ ____

>  <TORSDO>
F 3

$$$$
=
 OpenBabel11032419193D

 25 29  0  0  1  0  0  0  0  0999 V2000
  190.4500  176.3880  140.9980 N   0  0  0  0  0  0  0  0  0  0  0  0
  188.2160  177.7290  142.0740 C   0  0  0  0  0  2  0  0  0  0  0  0
  189.8630  177.2400  140.2220 C   0  0  0  0  0  0  0  0  0  0  0  0
  188.7770  178.1630  140.7240 C   0  0  0  0  0  2  0  0  0  0  0  0
  190.0080  176.0940  142.3490 C   0  0  0  0  0  2  0  0  0  0  0  0
  189.3560  177.3170  143.0020 C   0  0  2  0  0  3  0  0  0  0  0  0
  188.8530  176.9870  144.3430 N   0  0  2  0  0  0  0  0  0  0  0  0
  185.9620  178.9670  146.8040 C   0  0  0  0  0  0  0  0  0  0  0  0
  186.9060  177.7970  146.8870 C   0  0  2  0  0  3  0  0  0  0  0  0
  187.6920  177.8160  144.6230 C   0  0  1  0  0  3  0  0  0  0  0  0
  185.3160  178.5040  144.4680 C   0  0  0  0  0  3  0  0  0  0  0  0
  188.3460  178.2090  147.3020 C   0  0  0  0  0  2  0  0  0  0  0  0
  189.4430  177.2240  146.8140 C   0  0  0  0  0  2  0  0  0  0  0  0
  186.2830  177.3580  144.2980 C   0  0  2  0  0  3  0  0  0  0  0  0
  186.9150  176.9520  145.6160 C   0  0  2  0  0  3  0  0  0  0  0  0
  185.1780  179.2280  145.5860 C   0  0  0  0  0  3  0  0  0  0  0  0
  189.8570  177.4450  145.3320 C   0  0  0  0  0  2  0  0  0  0  0  0
  185.8090  179.7160  147.8060 O   0  0  0  0  0  0  0  0  0  0  0  0
  190.4180  177.4740  138.8550 C   0  0  0  0  0  2  0  0  0  0  0  0
  189.0180  179.6420  137.3760 O   0  0  0  0  0  0  0  0  0  0  0  0
  188.6110  176.1510  137.5740 C   0  0  0  0  0  3  0  0  0  0  0  0
  187.5570  178.0220  136.5790 O   0  0  0  0  0  0  0  0  0  0  0  0
  187.4420  176.6060  136.6750 C   0  0  0  0  0  3  0  0  0  0  0  0
  189.3670  177.3610  137.8550 N   0  0  0  0  0  0  0  0  0  0  0  0
  188.6700  178.4360  137.2690 C   0  0  0  0  0  0  0  0  0  0  0  0
  1  5  1  0  0  0  0
  3  4  1  0  0  0  0
  3  1  2  0  0  0  0
  4  2  1  0  0  0  0
  5  6  1  0  0  0  0
  6  2  1  6  0  0  0
  6  7  1  0  0  0  0
  7 10  1  0  0  0  0
  7 17  1  1  0  0  0
  8  9  1  0  0  0  0
  8 18  2  0  0  0  0
  9 12  1  6  0  0  0
 10 15  1  0  0  0  0
 11 16  2  0  0  0  0
 13 12  1  0  0  0  0
 14 11  1  0  0  0  0
 14 10  1  0  0  0  0
 14 15  1  0  0  0  0
 15  9  1  0  0  0  0
 16  8  1  0  0  0  0
 17 13  1  0  0  0  0
 19  3  1  0  0  0  0
 21 24  1  0  0  0  0
 22 23  1  0  0  0  0
 22 25  1  0  0  0  0
 23 21  2  0  0  0  0
 24 19  1  0  0  0  0
 25 20  2  0  0  0  0
 25 24  1  0  0  0  0
M  END
>  <MODEL>
2

>  <REMARK>
 VINA RESULT:      -8.6      1.586      1.900
  Name = 
  3 active torsions:
  status: ('A' for Active; 'I' for Inactive)
    1  A    between atoms: N_1  and  C_24
    2  A    between atoms: C_16  and  C_19
    3  A    between atoms: N_18  and  C_19
                            x       y       z     vdW  Elec       q    Type
                         _______ _______ _______ _____ _____    ______ ____

>  <TORSDO>
F 3

$$$$
=
 OpenBabel11032419193D

 25 29  0  0  1  0  0  0  0  0999 V2000
  190.6680  176.4080  141.0280 N   0  0  0  0  0  0  0  0  0  0  0  0
  188.2220  177.5060  141.8960 C   0  0  0  0  0  2  0  0  0  0  0  0
  190.0380  177.1490  140.1770 C   0  0  0  0  0  0  0  0  0  0  0  0
  188.8180  177.9520  140.5650 C   0  0  0  0  0  2  0  0  0  0  0  0
  190.1740  176.1160  142.3600 C   0  0  0  0  0  2  0  0  0  0  0  0
  189.3370  177.2740  142.9120 C   0  0  2  0  0  3  0  0  0  0  0  0
  188.7880  176.9390  144.2330 N   0  0  2  0  0  0  0  0  0  0  0  0
  185.9230  178.9910  146.6670 C   0  0  0  0  0  0  0  0  0  0  0  0
  186.8140  177.7800  146.7470 C   0  0  2  0  0  3  0  0  0  0  0  0
  187.6560  177.8110  144.5030 C   0  0  1  0  0  3  0  0  0  0  0  0
  185.3160  178.6040  144.3060 C   0  0  0  0  0  3  0  0  0  0  0  0
  188.2600  178.1200  147.2050 C   0  0  0  0  0  2  0  0  0  0  0  0
  189.3250  177.1000  146.7230 C   0  0  0  0  0  2  0  0  0  0  0  0
  186.2380  177.4210  144.1340 C   0  0  2  0  0  3  0  0  0  0  0  0
  186.8190  176.9610  145.4580 C   0  0  2  0  0  3  0  0  0  0  0  0
  185.1810  179.3100  145.4360 C   0  0  0  0  0  3  0  0  0  0  0  0
  189.7850  177.3320  145.2560 C   0  0  0  0  0  2  0  0  0  0  0  0
  185.7770  179.7240  147.6800 O   0  0  0  0  0  0  0  0  0  0  0  0
  190.6530  177.3950  138.8370 C   0  0  0  0  0  2  0  0  0  0  0  0
  193.5930  176.9420  138.8220 O   0  0  0  0  0  0  0  0  0  0  0  0
  190.8260  175.1280  137.6200 C   0  0  0  0  0  3  0  0  0  0  0  0
  193.1900  175.0060  137.6040 O   0  0  0  0  0  0  0  0  0  0  0  0
  192.0400  174.2980  137.1520 C   0  0  0  0  0  3  0  0  0  0  0  0
  191.3900  176.2210  138.3940 N   0  0  0  0  0  0  0  0  0  0  0  0
  192.7920  176.1130  138.3140 C   0  0  0  0  0  0  0  0  0  0  0  0
  1  5  1  0  0  0  0
  3  4  1  0  0  0  0
  3  1  2  0  0  0  0
  4  2  1  0  0  0  0
  5  6  1  0  0  0  0
  6  2  1  6  0  0  0
  6  7  1  0  0  0  0
  7 10  1  0  0  0  0
  7 17  1  1  0  0  0
  8  9  1  0  0  0  0
  8 18  2  0  0  0  0
  9 12  1  6  0  0  0
 10 15  1  0  0  0  0
 11 16  2  0  0  0  0
 13 12  1  0  0  0  0
 14 11  1  0  0  0  0
 14 10  1  0  0  0  0
 14 15  1  0  0  0  0
 15  9  1  0  0  0  0
 16  8  1  0  0  0  0
 17 13  1  0  0  0  0
 19  3  1  0  0  0  0
 21 24  1  0  0  0  0
 22 25  1  0  0  0  0
 23 22  1  0  0  0  0
 23 21  2  0  0  0  0
 24 19  1  0  0  0  0
 25 24  1  0  0  0  0
 25 20  2  0  0  0  0
M  END
>  <MODEL>
3

>  <REMARK>
 VINA RESULT:      -8.5      1.480      1.990
  Name = 
  3 active torsions:
  status: ('A' for Active; 'I' for Inactive)
    1  A    between atoms: N_1  and  C_24
    2  A    between atoms: C_16  and  C_19
    3  A    between atoms: N_18  and  C_19
                            x       y       z     vdW  Elec       q    Type
                         _______ _______ _______ _____ _____    ______ ____

>  <TORSDO>
F 3

$$$$
=
 OpenBabel11032419193D

 25 29  0  0  1  0  0  0  0  0999 V2000
  188.2560  177.7480  139.0810 N   0  0  0  0  0  0  0  0  0  0  0  0
  190.1860  177.5220  141.1230 C   0  0  0  0  0  2  0  0  0  0  0  0
  189.3820  177.2060  138.7490 C   0  0  0  0  0  0  0  0  0  0  0  0
  190.4320  176.8500  139.7760 C   0  0  0  0  0  2  0  0  0  0  0  0
  187.9640  178.2410  140.4130 C   0  0  0  0  0  2  0  0  0  0  0  0
  188.7040  177.4350  141.4840 C   0  0  2  0  0  3  0  0  0  0  0  0
  188.4530  177.9870  142.8220 N   0  0  2  0  0  0  0  0  0  0  0  0
  190.0670  176.9020  146.6370 C   0  0  0  0  0  0  0  0  0  0  0  0
  189.0420  177.8480  146.0710 C   0  0  2  0  0  3  0  0  0  0  0  0
  189.4440  177.4520  143.7420 C   0  0  1  0  0  3  0  0  0  0  0  0
  191.6770  177.2720  144.8030 C   0  0  0  0  0  3  0  0  0  0  0  0
  187.6540  177.1820  145.8580 C   0  0  0  0  0  2  0  0  0  0  0  0
  186.7960  177.8620  144.7590 C   0  0  0  0  0  2  0  0  0  0  0  0
  190.7550  178.1660  144.0100 C   0  0  2  0  0  3  0  0  0  0  0  0
  189.5210  178.5510  144.8020 C   0  0  2  0  0  3  0  0  0  0  0  0
  191.3660  176.7010  145.9750 C   0  0  0  0  0  3  0  0  0  0  0  0
  187.1760  177.4220  143.3160 C   0  0  0  0  0  2  0  0  0  0  0  0
  189.8280  176.3000  147.7170 O   0  0  0  0  0  0  0  0  0  0  0  0
  189.5640  176.7170  137.3490 C   0  0  0  0  0  2  0  0  0  0  0  0
  191.0020  174.1240  137.5860 O   0  0  0  0  0  0  0  0  0  0  0  0
  187.7310  175.0370  136.6630 C   0  0  0  0  0  3  0  0  0  0  0  0
  189.0760  173.0940  136.7970 O   0  0  0  0  0  0  0  0  0  0  0  0
  187.7590  173.5090  136.4490 C   0  0  0  0  0  3  0  0  0  0  0  0
  189.0360  175.3680  137.2100 N   0  0  0  0  0  0  0  0  0  0  0  0
  189.7960  174.1810  137.2280 C   0  0  0  0  0  0  0  0  0  0  0  0
  1  5  1  0  0  0  0
  2  6  1  0  0  0  0
  3  1  2  0  0  0  0
  3  4  1  0  0  0  0
  4  2  1  0  0  0  0
  6  5  1  6  0  0  0
  6  7  1  0  0  0  0
  7 17  1  1  0  0  0
  7 10  1  0  0  0  0
  8 18  2  0  0  0  0
  9 12  1  6  0  0  0
  9  8  1  0  0  0  0
 10 14  1  0  0  0  0
 10 15  1  0  0  0  0
 11 16  2  0  0  0  0
 13 12  1  0  0  0  0
 14 15  1  0  0  0  0
 14 11  1  0  0  0  0
 15  9  1  0  0  0  0
 16  8  1  0  0  0  0
 17 13  1  0  0  0  0
 19  3  1  0  0  0  0
 21 24  1  0  0  0  0
 22 25  1  0  0  0  0
 23 21  2  0  0  0  0
 23 22  1  0  0  0  0
 24 25  1  0  0  0  0
 24 19  1  0  0  0  0
 25 20  2  0  0  0  0
M  END
>  <MODEL>
4

>  <REMARK>
 VINA RESULT:      -7.6      2.192      3.764
  Name = 
  3 active torsions:
  status: ('A' for Active; 'I' for Inactive)
    1  A    between atoms: N_1  and  C_24
    2  A    between atoms: C_16  and  C_19
    3  A    between atoms: N_18  and  C_19
                            x       y       z     vdW  Elec       q    Type
                         _______ _______ _______ _____ _____    ______ ____

>  <TORSDO>
F 3

$$$$
=
 OpenBabel11032419193D

 25 29  0  0  1  0  0  0  0  0999 V2000
  184.1500  178.9940  143.8470 N   0  0  0  0  0  0  0  0  0  0  0  0
  186.7650  178.3530  143.0120 C   0  0  0  0  0  2  0  0  0  0  0  0
  184.2850  178.6240  142.6150 C   0  0  0  0  0  0  0  0  0  0  0  0
  185.5870  178.0730  142.0840 C   0  0  0  0  0  2  0  0  0  0  0  0
  185.2570  179.1030  144.7790 C   0  0  0  0  0  2  0  0  0  0  0  0
  186.3590  178.0880  144.4590 C   0  0  2  0  0  3  0  0  0  0  0  0
  187.5020  178.2540  145.3670 N   0  0  2  0  0  0  0  0  0  0  0  0
  191.3150  176.3050  145.4400 C   0  0  0  0  0  0  0  0  0  0  0  0
  190.5400  177.3040  146.2580 C   0  0  2  0  0  3  0  0  0  0  0  0
  188.6490  177.5570  144.8070 C   0  0  1  0  0  3  0  0  0  0  0  0
  190.5730  177.2380  143.2790 C   0  0  0  0  0  3  0  0  0  0  0  0
  189.5680  176.6350  147.2690 C   0  0  0  0  0  2  0  0  0  0  0  0
  188.3590  177.5270  147.6590 C   0  0  0  0  0  2  0  0  0  0  0  0
  189.6420  178.2520  143.8960 C   0  0  2  0  0  3  0  0  0  0  0  0
  189.8190  178.3410  145.3990 C   0  0  2  0  0  3  0  0  0  0  0  0
  191.3160  176.3630  143.9690 C   0  0  0  0  0  3  0  0  0  0  0  0
  187.2100  177.5040  146.6110 C   0  0  0  0  0  2  0  0  0  0  0  0
  192.0060  175.4280  146.0210 O   0  0  0  0  0  0  0  0  0  0  0  0
  183.0690  178.5310  141.7520 C   0  0  0  0  0  2  0  0  0  0  0  0
  184.1910  180.1100  139.4940 O   0  0  0  0  0  0  0  0  0  0  0  0
  183.0560  176.7960  139.8440 C   0  0  0  0  0  3  0  0  0  0  0  0
  183.8520  178.2470  138.1500 O   0  0  0  0  0  0  0  0  0  0  0  0
  183.4010  176.9100  138.3430 C   0  0  0  0  0  3  0  0  0  0  0  0
  183.4280  178.0800  140.4160 N   0  0  0  0  0  0  0  0  0  0  0  0
  183.8560  178.9040  139.3570 C   0  0  0  0  0  0  0  0  0  0  0  0
  1  5  1  0  0  0  0
  3  1  2  0  0  0  0
  4  3  1  0  0  0  0
  4  2  1  0  0  0  0
  6  2  1  6  0  0  0
  6  5  1  0  0  0  0
  6  7  1  0  0  0  0
  7 17  1  1  0  0  0
  8 18  2  0  0  0  0
  8  9  1  0  0  0  0
  9 12  1  6  0  0  0
 10  7  1  0  0  0  0
 10 15  1  0  0  0  0
 11 14  1  0  0  0  0
 11 16  2  0  0  0  0
 12 13  1  0  0  0  0
 14 10  1  0  0  0  0
 14 15  1  0  0  0  0
 15  9  1  0  0  0  0
 16  8  1  0  0  0  0
 17 13  1  0  0  0  0
 19  3  1  0  0  0  0
 21 24  1  0  0  0  0
 22 23  1  0  0  0  0
 22 25  1  0  0  0  0
 23 21  2  0  0  0  0
 24 19  1  0  0  0  0
 25 20  2  0  0  0  0
 25 24  1  0  0  0  0
M  END
>  <MODEL>
5

>  <REMARK>
 VINA RESULT:      -7.5      3.939      5.582
  Name = 
  3 active torsions:
  status: ('A' for Active; 'I' for Inactive)
    1  A    between atoms: N_1  and  C_24
    2  A    between atoms: C_16  and  C_19
    3  A    between atoms: N_18  and  C_19
                            x       y       z     vdW  Elec       q    Type
                         _______ _______ _______ _____ _____    ______ ____

>  <TORSDO>
F 3

$$$$
=
 OpenBabel11032419193D

 25 29  0  0  1  0  0  0  0  0999 V2000
  190.2500  177.5300  140.3260 N   0  0  0  0  0  0  0  0  0  0  0  0
  188.0040  177.5910  142.0300 C   0  0  0  0  0  2  0  0  0  0  0  0
  189.1960  178.1210  139.8660 C   0  0  0  0  0  0  0  0  0  0  0  0
  187.9890  178.3950  140.7330 C   0  0  0  0  0  2  0  0  0  0  0  0
  190.3130  176.9050  141.6340 C   0  0  0  0  0  2  0  0  0  0  0  0
  189.4040  177.6170  142.6390 C   0  0  2  0  0  3  0  0  0  0  0  0
  189.4260  176.9350  143.9400 N   0  0  2  0  0  0  0  0  0  0  0  0
  187.7740  178.0780  147.7220 C   0  0  0  0  0  0  0  0  0  0  0  0
  188.6200  176.9750  147.1450 C   0  0  2  0  0  3  0  0  0  0  0  0
  188.4980  177.6050  144.8360 C   0  0  1  0  0  3  0  0  0  0  0  0
  186.2750  178.1880  145.7640 C   0  0  0  0  0  3  0  0  0  0  0  0
  190.1290  177.3410  147.0780 C   0  0  0  0  0  2  0  0  0  0  0  0
  190.9120  176.5690  145.9830 C   0  0  0  0  0  2  0  0  0  0  0  0
  187.0500  177.1740  144.9590 C   0  0  2  0  0  3  0  0  0  0  0  0
  188.1090  176.4800  145.7940 C   0  0  2  0  0  3  0  0  0  0  0  0
  186.6030  178.5980  146.9960 C   0  0  0  0  0  3  0  0  0  0  0  0
  190.7490  177.1780  144.5610 C   0  0  0  0  0  2  0  0  0  0  0  0
  188.0450  178.5400  148.8610 O   0  0  0  0  0  0  0  0  0  0  0  0
  189.2520  178.7460  138.5100 C   0  0  0  0  0  2  0  0  0  0  0  0
  190.1140  176.4360  136.8450 O   0  0  0  0  0  0  0  0  0  0  0  0
  187.1650  178.3480  137.0470 C   0  0  0  0  0  3  0  0  0  0  0  0
  188.0750  176.5930  135.7440 O   0  0  0  0  0  0  0  0  0  0  0  0
  186.8960  177.3810  135.8750 C   0  0  0  0  0  3  0  0  0  0  0  0
  188.4710  177.9680  137.5600 N   0  0  0  0  0  0  0  0  0  0  0  0
  188.9710  176.9510  136.7220 C   0  0  0  0  0  0  0  0  0  0  0  0
  1  5  1  0  0  0  0
  2  6  1  0  0  0  0
  3  1  2  0  0  0  0
  3  4  1  0  0  0  0
  4  2  1  0  0  0  0
  6  5  1  6  0  0  0
  6  7  1  0  0  0  0
  7 17  1  1  0  0  0
  7 10  1  0  0  0  0
  8 18  2  0  0  0  0
  9 12  1  6  0  0  0
  9  8  1  0  0  0  0
 10 14  1  0  0  0  0
 10 15  1  0  0  0  0
 11 16  2  0  0  0  0
 13 12  1  0  0  0  0
 14 11  1  0  0  0  0
 14 15  1  0  0  0  0
 15  9  1  0  0  0  0
 16  8  1  0  0  0  0
 17 13  1  0  0  0  0
 19  3  1  0  0  0  0
 21 24  1  0  0  0  0
 22 23  1  0  0  0  0
 22 25  1  0  0  0  0
 23 21  2  0  0  0  0
 24 19  1  0  0  0  0
 25 20  2  0  0  0  0
 25 24  1  0  0  0  0
M  END
>  <MODEL>
6

>  <REMARK>
 VINA RESULT:      -7.4      1.572      2.256
  Name = 
  3 active torsions:
  status: ('A' for Active; 'I' for Inactive)
    1  A    between atoms: N_1  and  C_24
    2  A    between atoms: C_16  and  C_19
    3  A    between atoms: N_18  and  C_19
                            x       y       z     vdW  Elec       q    Type
                         _______ _______ _______ _____ _____    ______ ____

>  <TORSDO>
F 3

$$$$
=
 OpenBabel11032419193D

 25 29  0  0  1  0  0  0  0  0999 V2000
  189.3550  177.5470  138.5720 N   0  0  0  0  0  0  0  0  0  0  0  0
  190.9150  177.5010  140.9200 C   0  0  0  0  0  2  0  0  0  0  0  0
  190.5460  177.0550  138.4610 C   0  0  0  0  0  0  0  0  0  0  0  0
  191.4200  176.7950  139.6660 C   0  0  0  0  0  2  0  0  0  0  0  0
  188.8160  178.0720  139.8130 C   0  0  0  0  0  2  0  0  0  0  0  0
  189.4000  177.3460  141.0280 C   0  0  2  0  0  3  0  0  0  0  0  0
  188.8970  177.9320  142.2790 N   0  0  2  0  0  0  0  0  0  0  0  0
  189.7580  176.9620  146.3600 C   0  0  0  0  0  0  0  0  0  0  0  0
  188.8580  177.8850  145.5830 C   0  0  2  0  0  3  0  0  0  0  0  0
  189.6970  177.4300  143.3850 C   0  0  1  0  0  3  0  0  0  0  0  0
  191.6870  177.2950  144.8550 C   0  0  0  0  0  3  0  0  0  0  0  0
  187.5370  177.2020  145.1290 C   0  0  0  0  0  2  0  0  0  0  0  0
  186.9020  177.8450  143.8680 C   0  0  0  0  0  2  0  0  0  0  0  0
  190.9310  178.1600  143.8770 C   0  0  2  0  0  3  0  0  0  0  0  0
  189.5670  178.5560  144.4090 C   0  0  2  0  0  3  0  0  0  0  0  0
  191.1600  176.7540  145.9620 C   0  0  0  0  0  3  0  0  0  0  0  0
  187.5500  177.3690  142.5360 C   0  0  0  0  0  2  0  0  0  0  0  0
  189.3200  176.3870  147.3910 O   0  0  0  0  0  0  0  0  0  0  0  0
  190.9880  176.5270  137.1350 C   0  0  0  0  0  2  0  0  0  0  0  0
  193.9020  177.1270  137.1480 O   0  0  0  0  0  0  0  0  0  0  0  0
  192.0090  174.1600  137.2340 C   0  0  0  0  0  3  0  0  0  0  0  0
  194.2750  174.8350  137.1180 O   0  0  0  0  0  0  0  0  0  0  0  0
  193.4690  173.6620  137.1710 C   0  0  0  0  0  3  0  0  0  0  0  0
  192.1050  175.6090  137.3020 N   0  0  0  0  0  0  0  0  0  0  0  0
  193.4690  175.9450  137.1900 C   0  0  0  0  0  0  0  0  0  0  0  0
  1  5  1  0  0  0  0
  2  6  1  0  0  0  0
  3  1  2  0  0  0  0
  3  4  1  0  0  0  0
  4  2  1  0  0  0  0
  6  5  1  6  0  0  0
  6  7  1  0  0  0  0
  7 17  1  1  0  0  0
  7 10  1  0  0  0  0
  8 18  2  0  0  0  0
  9 12  1  6  0  0  0
  9  8  1  0  0  0  0
 10 14  1  0  0  0  0
 10 15  1  0  0  0  0
 11 16  2  0  0  0  0
 13 12  1  0  0  0  0
 14 15  1  0  0  0  0
 14 11  1  0  0  0  0
 15  9  1  0  0  0  0
 16  8  1  0  0  0  0
 17 13  1  0  0  0  0
 19 24  1  0  0  0  0
 19  3  1  0  0  0  0
 20 25  2  0  0  0  0
 21 24  1  0  0  0  0
 22 23  1  0  0  0  0
 22 25  1  0  0  0  0
 23 21  2  0  0  0  0
 25 24  1  0  0  0  0
M  END
>  <MODEL>
7

>  <REMARK>
 VINA RESULT:      -7.4      2.240      4.108
  Name = 
  3 active torsions:
  status: ('A' for Active; 'I' for Inactive)
    1  A    between atoms: N_1  and  C_24
    2  A    between atoms: C_16  and  C_19
    3  A    between atoms: N_18  and  C_19
                            x       y       z     vdW  Elec       q    Type
                         _______ _______ _______ _____ _____    ______ ____

>  <TORSDO>
F 3

$$$$
=
 OpenBabel11032419193D

 25 29  0  0  1  0  0  0  0  0999 V2000
  182.9760  178.6710  141.9540 N   0  0  0  0  0  0  0  0  0  0  0  0
  184.7400  178.2540  144.1130 C   0  0  0  0  0  2  0  0  0  0  0  0
  182.5770  179.0900  143.1110 C   0  0  0  0  0  0  0  0  0  0  0  0
  183.4910  179.1050  144.3150 C   0  0  0  0  0  2  0  0  0  0  0  0
  184.2450  178.0020  141.7360 C   0  0  0  0  0  2  0  0  0  0  0  0
  185.3120  178.4940  142.7180 C   0  0  2  0  0  3  0  0  0  0  0  0
  186.5730  177.7610  142.5310 N   0  0  2  0  0  0  0  0  0  0  0  0
  190.1930  177.8040  144.8180 C   0  0  0  0  0  0  0  0  0  0  0  0
  189.6630  177.1870  143.5520 C   0  0  2  0  0  3  0  0  0  0  0  0
  187.3890  177.9230  143.7240 C   0  0  1  0  0  3  0  0  0  0  0  0
  188.0850  177.4850  146.0610 C   0  0  0  0  0  3  0  0  0  0  0  0
  189.7860  178.1280  142.3210 C   0  0  0  0  0  2  0  0  0  0  0  0
  188.7500  177.8350  141.2030 C   0  0  0  0  0  2  0  0  0  0  0  0
  187.3250  176.9410  144.8770 C   0  0  2  0  0  3  0  0  0  0  0  0
  188.2400  176.6540  143.7020 C   0  0  2  0  0  3  0  0  0  0  0  0
  189.3650  177.8780  146.0330 C   0  0  0  0  0  3  0  0  0  0  0  0
  187.3510  178.4540  141.4770 C   0  0  0  0  0  2  0  0  0  0  0  0
  191.3770  178.2310  144.8540 O   0  0  0  0  0  0  0  0  0  0  0  0
  181.2570  179.7820  143.2130 C   0  0  0  0  0  2  0  0  0  0  0  0
  179.6800  177.3600  143.9180 O   0  0  0  0  0  0  0  0  0  0  0  0
  180.0240  179.2990  141.0000 C   0  0  0  0  0  3  0  0  0  0  0  0
  178.9440  177.3170  141.7150 O   0  0  0  0  0  0  0  0  0  0  0  0
  179.1000  178.1410  140.5650 C   0  0  0  0  0  3  0  0  0  0  0  0
  180.2570  179.0850  142.4190 N   0  0  0  0  0  0  0  0  0  0  0  0
  179.6220  177.8770  142.7710 C   0  0  0  0  0  0  0  0  0  0  0  0
  1  3  2  0  0  0  0
  2  4  1  0  0  0  0
  3 19  1  0  0  0  0
  3  4  1  0  0  0  0
  5  1  1  0  0  0  0
  6  5  1  6  0  0  0
  6  2  1  0  0  0  0
  7 17  1  6  0  0  0
  7  6  1  0  0  0  0
  7 10  1  0  0  0  0
  8 18  2  0  0  0  0
  8 16  1  0  0  0  0
  9 12  1  6  0  0  0
  9 15  1  0  0  0  0
  9  8  1  0  0  0  0
 10 14  1  0  0  0  0
 13 17  1  0  0  0  0
 13 12  1  0  0  0  0
 14 11  1  0  0  0  0
 15 10  1  0  0  0  0
 15 14  1  0  0  0  0
 16 11  2  0  0  0  0
 21 24  1  0  0  0  0
 22 25  1  0  0  0  0
 23 21  2  0  0  0  0
 23 22  1  0  0  0  0
 24 25  1  0  0  0  0
 24 19  1  0  0  0  0
 25 20  2  0  0  0  0
M  END
>  <MODEL>
8

>  <REMARK>
 VINA RESULT:      -7.3      4.938      7.579
  Name = 
  3 active torsions:
  status: ('A' for Active; 'I' for Inactive)
    1  A    between atoms: N_1  and  C_24
    2  A    between atoms: C_16  and  C_19
    3  A    between atoms: N_18  and  C_19
                            x       y       z     vdW  Elec       q    Type
                         _______ _______ _______ _____ _____    ______ ____

>  <TORSDO>
F 3

$$$$
=
 OpenBabel11032419193D

 25 29  0  0  1  0  0  0  0  0999 V2000
  184.0930  177.9090  142.6160 N   0  0  0  0  0  0  0  0  0  0  0  0
  186.5960  178.9960  141.9080 C   0  0  0  0  0  2  0  0  0  0  0  0
  184.2650  178.1870  141.3650 C   0  0  0  0  0  0  0  0  0  0  0  0
  185.6120  178.5940  140.8140 C   0  0  0  0  0  2  0  0  0  0  0  0
  185.0980  178.1430  143.6360 C   0  0  0  0  0  2  0  0  0  0  0  0
  186.5130  178.0080  143.0690 C   0  0  2  0  0  3  0  0  0  0  0  0
  187.5200  178.3130  144.0950 N   0  0  2  0  0  0  0  0  0  0  0  0
  191.3280  176.5230  144.8900 C   0  0  0  0  0  0  0  0  0  0  0  0
  190.4290  177.5760  145.4800 C   0  0  2  0  0  3  0  0  0  0  0  0
  188.7460  177.6010  143.7730 C   0  0  1  0  0  3  0  0  0  0  0  0
  190.8660  177.1860  142.5580 C   0  0  0  0  0  3  0  0  0  0  0  0
  189.3430  176.9870  146.4240 C   0  0  0  0  0  2  0  0  0  0  0  0
  188.0740  177.8720  146.5470 C   0  0  0  0  0  2  0  0  0  0  0  0
  189.8380  178.2270  142.9280 C   0  0  2  0  0  3  0  0  0  0  0  0
  189.8090  178.4870  144.4220 C   0  0  2  0  0  3  0  0  0  0  0  0
  191.5270  176.4190  143.4350 C   0  0  0  0  0  3  0  0  0  0  0  0
  187.0780  177.6930  145.3660 C   0  0  0  0  0  2  0  0  0  0  0  0
  191.9530  175.7390  145.6530 O   0  0  0  0  0  0  0  0  0  0  0  0
  183.1650  177.8860  140.3990 C   0  0  0  0  0  2  0  0  0  0  0  0
  180.7820  178.8050  141.9230 O   0  0  0  0  0  0  0  0  0  0  0  0
  182.3880  179.9000  138.9880 C   0  0  0  0  0  3  0  0  0  0  0  0
  180.4610  180.4040  140.2690 O   0  0  0  0  0  0  0  0  0  0  0  0
  181.1550  180.8220  139.0980 C   0  0  0  0  0  3  0  0  0  0  0  0
  182.3460  179.0680  140.1800 N   0  0  0  0  0  0  0  0  0  0  0  0
  181.1630  179.3890  140.8740 C   0  0  0  0  0  0  0  0  0  0  0  0
  1  5  1  0  0  0  0
  3  1  2  0  0  0  0
  4  3  1  0  0  0  0
  4  2  1  0  0  0  0
  6  2  1  6  0  0  0
  6  5  1  0  0  0  0
  6  7  1  0  0  0  0
  7 17  1  1  0  0  0
  8  9  1  0  0  0  0
  8 18  2  0  0  0  0
  9 12  1  6  0  0  0
 10  7  1  0  0  0  0
 10 15  1  0  0  0  0
 11 14  1  0  0  0  0
 11 16  2  0  0  0  0
 12 13  1  0  0  0  0
 14 10  1  0  0  0  0
 14 15  1  0  0  0  0
 15  9  1  0  0  0  0
 16  8  1  0  0  0  0
 17 13  1  0  0  0  0
 19  3  1  0  0  0  0
 21 23  2  0  0  0  0
 21 24  1  0  0  0  0
 22 25  1  0  0  0  0
 23 22  1  0  0  0  0
 24 19  1  0  0  0  0
 24 25  1  0  0  0  0
 25 20  2  0  0  0  0
M  END
>  <MODEL>
9

>  <REMARK>
 VINA RESULT:      -7.3      4.682      6.477
  Name = 
  3 active torsions:
  status: ('A' for Active; 'I' for Inactive)
    1  A    between atoms: N_1  and  C_24
    2  A    between atoms: C_16  and  C_19
    3  A    between atoms: N_18  and  C_19
                            x       y       z     vdW  Elec       q    Type
                         _______ _______ _______ _____ _____    ______ ____

>  <TORSDO>
F 3

$$$$
