=
 OpenBabel11042412253D

 60 64  0  0  1  0  0  0  0  0999 V2000
  189.5040  176.9480  137.4640 C   0  0  1  0  0  3  0  0  0  0  0  0
  193.2090  176.4230  136.7010 N   0  0  0  0  0  2  0  0  0  0  0  0
  195.5460  175.9360  136.0840 N   0  0  0  0  0  2  0  0  0  0  0  0
  190.9600  177.0040  137.5210 N   0  0  0  0  0  2  0  0  0  0  0  0
  191.7880  176.3020  136.5960 C   0  0  0  0  0  0  0  0  0  0  0  0
  193.7730  174.6780  135.2470 O   0  0  0  0  0  0  0  0  0  0  0  0
  194.1560  175.6370  135.9710 C   0  0  0  0  0  0  0  0  0  0  0  0
  191.2670  175.5870  135.6970 O   0  0  0  0  0  0  0  0  0  0  0  0
  197.3520  175.8830  134.6050 O   0  0  0  0  0  1  0  0  0  0  0  0
  196.5750  175.1070  135.4690 C   0  0  1  0  0  3  0  0  0  0  0  0
  197.4350  174.4190  136.5430 C   0  0  1  0  0  3  0  0  0  0  0  0
  196.9610  173.9850  138.9010 C   0  0  0  0  0  2  0  0  0  0  0  0
  197.2250  175.0930  137.8930 C   0  0  0  0  0  2  0  0  0  0  0  0
  194.9680  172.8290  137.9890 C   0  0  0  0  0  1  0  0  0  0  0  0
  196.4840  172.2980  135.7180 O   0  0  0  0  0  1  0  0  0  0  0  0
  196.4890  172.7770  138.1100 C   0  0  1  0  0  3  0  0  0  0  0  0
  197.1830  172.9190  136.7620 C   0  0  2  0  0  3  0  0  0  0  0  0
  187.7880  177.8640  141.3150 C   0  0  0  0  0  0  0  0  0  0  0  0
  189.5550  176.8930  139.9670 C   0  0  0  0  0  3  0  0  0  0  0  0
  187.6550  177.9380  138.8890 C   0  0  0  0  0  3  0  0  0  0  0  0
  188.8860  177.2710  138.7970 C   0  0  0  0  0  0  0  0  0  0  0  0
  189.0070  177.1860  141.2190 C   0  0  0  0  0  3  0  0  0  0  0  0
  187.1120  178.2340  140.1440 C   0  0  0  0  0  3  0  0  0  0  0  0
  188.2800  177.2780  146.7630 C   0  0  2  0  0  3  0  0  0  0  0  0
  184.9740  177.8800  142.1770 O   0  0  0  0  0  0  0  0  0  0  0  0
  186.7920  178.9370  147.8110 C   0  0  0  0  0  3  0  0  0  0  0  0
  187.7930  177.8100  145.4100 C   0  0  0  0  0  2  0  0  0  0  0  0
  188.6570  178.2400  149.0650 O   0  0  0  0  0  1  0  0  0  0  0  0
  185.9900  178.9180  146.6210 N   0  0  0  0  0  0  0  0  0  0  0  0
  187.9060  178.2040  147.8960 C   0  0  0  0  0  0  0  0  0  0  0  0
  185.8800  178.0980  143.0210 C   0  0  0  0  0  0  0  0  0  0  0  0
  186.3950  178.3730  145.5090 C   0  0  0  0  0  0  0  0  0  0  0  0
  187.2590  178.1470  142.6170 N   0  0  0  0  0  2  0  0  0  0  0  0
  185.5110  178.3650  144.3790 N   0  0  0  0  0  2  0  0  0  0  0  0
  189.7520  176.9970  146.7110 C   0  0  0  0  0  0  0  0  0  0  0  0
  191.8060  177.0110  146.0200 O   0  0  0  0  0  0  0  0  0  0  0  0
  190.4600  176.1140  147.6840 C   0  0  0  0  0  3  0  0  0  0  0  0
  190.5330  177.4720  145.8030 N   0  0  0  0  0  0  0  0  0  0  0  0
  191.8990  176.1710  147.1640 C   0  0  0  0  0  3  0  0  0  0  0  0
  188.9660  177.7700  136.2870 C   0  0  2  0  0  3  0  0  0  0  0  0
  188.1670  179.0210  136.6630 C   0  0  0  0  0  2  0  0  0  0  0  0
  187.2530  179.4990  135.5450 C   0  0  0  0  0  1  0  0  0  0  0  0
  188.2870  176.9070  135.2300 C   0  0  0  0  0  2  0  0  0  0  0  0
  187.9380  174.5220  135.7720 C   0  0  0  0  0  1  0  0  0  0  0  0
  187.3470  175.9150  135.8880 C   0  0  2  0  0  3  0  0  0  0  0  0
  186.0540  175.9530  135.2180 N   0  0  0  0  0  2  0  0  0  0  0  0
  184.1250  177.2570  135.1580 O   0  0  0  0  0  1  0  0  0  0  0  0
  185.1940  176.8590  135.9670 C   0  0  1  0  0  3  0  0  0  0  0  0
  184.6690  176.1690  137.2220 C   0  0  1  0  0  3  0  0  0  0  0  0
  183.4830  176.9310  137.7910 C   0  0  2  0  0  3  0  0  0  0  0  0
  182.3170  175.3760  139.1650 F   0  0  0  0  0  0  0  0  0  0  0  0
  183.8020  177.4590  139.0430 O   0  0  0  0  0  1  0  0  0  0  0  0
  182.8720  174.8470  136.9030 C   0  0  1  0  0  3  0  0  0  0  0  0
  182.3870  175.8990  137.8800 C   0  0  2  0  0  0  0  0  0  0  0  0
  184.2760  174.8470  136.9230 O   0  0  0  0  0  0  0  0  0  0  0  0
  183.0380  172.4180  136.3680 C   0  0  0  0  0  1  0  0  0  0  0  0
  182.3230  173.4590  137.2080 C   0  0  0  0  0  2  0  0  0  0  0  0
  181.0190  176.4790  137.4940 C   0  0  0  0  0  2  0  0  0  0  0  0
  180.2130  177.0120  138.6770 C   0  0  0  0  0  2  0  0  0  0  0  0
  179.3200  178.1610  138.2440 C   0  0  0  0  0  1  0  0  0  0  0  0
  1  4  1  1  0  0  0
  1 21  1  0  0  0  0
  5  2  1  0  0  0  0
  5  4  1  0  0  0  0
  6  7  2  0  0  0  0
  7  3  1  0  0  0  0
  7  2  1  0  0  0  0
  8  5  2  0  0  0  0
 10  9  1  6  0  0  0
 10  3  1  0  0  0  0
 11 10  1  6  0  0  0
 11 17  1  0  0  0  0
 11 13  1  0  0  0  0
 13 12  1  0  0  0  0
 16 14  1  6  0  0  0
 16 12  1  0  0  0  0
 17 15  1  6  0  0  0
 17 16  1  0  0  0  0
 18 33  1  0  0  0  0
 19 22  2  0  0  0  0
 20 23  1  0  0  0  0
 21 20  2  0  0  0  0
 21 19  1  0  0  0  0
 22 18  1  0  0  0  0
 23 18  2  0  0  0  0
 24 35  1  6  0  0  0
 24 30  1  0  0  0  0
 25 31  2  0  0  0  0
 26 30  2  0  0  0  0
 27 32  1  0  0  0  0
 27 24  1  0  0  0  0
 29 26  1  0  0  0  0
 30 28  1  0  0  0  0
 31 34  1  0  0  0  0
 32 29  2  0  0  0  0
 33 31  1  0  0  0  0
 34 32  1  0  0  0  0
 35 37  1  0  0  0  0
 36 39  1  0  0  0  0
 38 36  1  0  0  0  0
 38 35  2  0  0  0  0
 39 37  2  0  0  0  0
 40 43  1  1  0  0  0
 40 41  1  0  0  0  0
 40  1  1  0  0  0  0
 42 41  1  0  0  0  0
 43 45  1  0  0  0  0
 45 44  1  6  0  0  0
 46 45  1  0  0  0  0
 46 48  1  0  0  0  0
 48 47  1  6  0  0  0
 49 48  1  6  0  0  0
 49 50  1  0  0  0  0
 50 54  1  0  0  0  0
 50 52  1  1  0  0  0
 53 55  1  0  0  0  0
 53 57  1  1  0  0  0
 53 54  1  0  0  0  0
 54 51  1  1  0  0  0
 55 49  1  0  0  0  0
 56 57  1  0  0  0  0
 58 54  1  0  0  0  0
 58 59  1  0  0  0  0
 60 59  1  0  0  0  0
M  END
>  <MODEL>
1

>  <REMARK>
 VINA RESULT:      -6.9      0.000      0.000
  Name = 
  16 active torsions:
  status: ('A' for Active; 'I' for Inactive)
    1  A    between atoms: C_1  and  C_58
    2  A    between atoms: C_2  and  C_15
    3  A    between atoms: C_2  and  C_33
    4  A    between atoms: C_2  and  C_41
    5  A    between atoms: C_3  and  C_11
    6  A    between atoms: N_6  and  C_58
    7  A    between atoms: N_8  and  C_15
    8  A    between atoms: C_9  and  C_53
    9  A    between atoms: C_13  and  N_47
   10  A    between atoms: C_15  and  C_35
   11  A    between atoms: C_25  and  C_27
   12  A    between atoms: C_25  and  N_45
   13  A    between atoms: C_30  and  C_46
   14  A    between atoms: C_41  and  C_57
   15  A    between atoms: N_45  and  C_57
   16  A    between atoms: C_50  and  C_53
                            x       y       z     vdW  Elec       q    Type
                         _______ _______ _______ _____ _____    ______ ____

>  <TORSDO>
F 16

$$$$
=
 OpenBabel11042412253D

 60 64  0  0  1  0  0  0  0  0999 V2000
  189.7010  176.4780  136.9650 C   0  0  1  0  0  3  0  0  0  0  0  0
  193.0750  174.9440  136.0450 N   0  0  0  0  0  2  0  0  0  0  0  0
  195.1780  173.7770  135.5030 N   0  0  0  0  0  2  0  0  0  0  0  0
  191.1060  176.3110  136.6140 N   0  0  0  0  0  2  0  0  0  0  0  0
  191.6950  175.0280  136.4100 C   0  0  0  0  0  0  0  0  0  0  0  0
  193.3450  172.6460  136.3900 O   0  0  0  0  0  0  0  0  0  0  0  0
  193.8390  173.7350  135.9930 C   0  0  0  0  0  0  0  0  0  0  0  0
  191.0000  173.9840  136.5470 O   0  0  0  0  0  0  0  0  0  0  0  0
  195.6250  171.6730  134.5940 O   0  0  0  0  0  1  0  0  0  0  0  0
  196.0550  172.6140  135.5340 C   0  0  1  0  0  3  0  0  0  0  0  0
  197.5180  173.0270  135.2950 C   0  0  1  0  0  3  0  0  0  0  0  0
  198.6750  175.1100  135.8370 C   0  0  0  0  0  2  0  0  0  0  0  0
  197.5940  174.5080  134.9520 C   0  0  0  0  0  2  0  0  0  0  0  0
  197.8940  174.6080  138.1340 C   0  0  0  0  0  1  0  0  0  0  0  0
  198.0140  171.9170  137.4410 O   0  0  0  0  0  1  0  0  0  0  0  0
  198.8430  174.1730  137.0210 C   0  0  1  0  0  3  0  0  0  0  0  0
  198.4910  172.8000  136.4630 C   0  0  2  0  0  3  0  0  0  0  0  0
  189.2520  177.1100  141.2090 C   0  0  0  0  0  0  0  0  0  0  0  0
  190.5070  176.2420  139.3240 C   0  0  0  0  0  3  0  0  0  0  0  0
  188.3920  177.3600  138.9500 C   0  0  0  0  0  3  0  0  0  0  0  0
  189.5230  176.7020  138.4410 C   0  0  0  0  0  0  0  0  0  0  0  0
  190.3700  176.4430  140.7000 C   0  0  0  0  0  3  0  0  0  0  0  0
  188.2610  177.5630  140.3270 C   0  0  0  0  0  3  0  0  0  0  0  0
  186.2750  178.9550  145.4510 C   0  0  2  0  0  3  0  0  0  0  0  0
  191.3500  177.9430  143.0980 O   0  0  0  0  0  0  0  0  0  0  0  0
  187.2520  177.9970  147.4990 C   0  0  0  0  0  3  0  0  0  0  0  0
  187.3700  178.2150  144.6740 C   0  0  0  0  0  2  0  0  0  0  0  0
  184.9680  178.5600  147.5740 O   0  0  0  0  0  1  0  0  0  0  0  0
  188.5050  177.8860  146.8070 N   0  0  0  0  0  0  0  0  0  0  0  0
  186.1650  178.4600  146.8740 C   0  0  0  0  0  0  0  0  0  0  0  0
  190.1800  177.7540  143.5170 C   0  0  0  0  0  0  0  0  0  0  0  0
  188.6100  178.0220  145.5160 C   0  0  0  0  0  0  0  0  0  0  0  0
  189.1490  177.2980  142.6270 N   0  0  0  0  0  2  0  0  0  0  0  0
  189.9080  177.9350  144.9120 N   0  0  0  0  0  2  0  0  0  0  0  0
  184.9720  178.8790  144.7130 C   0  0  0  0  0  0  0  0  0  0  0  0
  182.8520  178.6190  144.3430 O   0  0  0  0  0  0  0  0  0  0  0  0
  184.8510  179.0200  143.2320 C   0  0  0  0  0  3  0  0  0  0  0  0
  183.8420  178.6550  145.2910 N   0  0  0  0  0  0  0  0  0  0  0  0
  183.3430  178.8460  143.0270 C   0  0  0  0  0  3  0  0  0  0  0  0
  189.0280  177.5230  136.0670 C   0  0  2  0  0  3  0  0  0  0  0  0
  189.0270  178.9560  136.6060 C   0  0  0  0  0  2  0  0  0  0  0  0
  187.6570  179.6130  136.5400 C   0  0  0  0  0  1  0  0  0  0  0  0
  187.6700  177.0650  135.5480 C   0  0  0  0  0  2  0  0  0  0  0  0
  187.5820  174.6390  135.0870 C   0  0  0  0  0  1  0  0  0  0  0  0
  187.3160  175.7100  136.1300 C   0  0  2  0  0  3  0  0  0  0  0  0
  185.9080  175.6910  136.4990 N   0  0  0  0  0  2  0  0  0  0  0  0
  184.5500  175.5190  134.6140 O   0  0  0  0  0  1  0  0  0  0  0  0
  185.1730  176.4250  135.4770 C   0  0  1  0  0  3  0  0  0  0  0  0
  184.1290  177.3270  136.1260 C   0  0  1  0  0  3  0  0  0  0  0  0
  182.8430  176.5560  136.3770 C   0  0  2  0  0  3  0  0  0  0  0  0
  181.6760  177.7770  138.0550 F   0  0  0  0  0  0  0  0  0  0  0  0
  181.8070  177.0730  135.5960 O   0  0  0  0  0  1  0  0  0  0  0  0
  183.9520  177.1250  138.3640 C   0  0  1  0  0  3  0  0  0  0  0  0
  182.5790  176.7420  137.8500 C   0  0  2  0  0  0  0  0  0  0  0  0
  184.6150  177.8350  137.3500 O   0  0  0  0  0  0  0  0  0  0  0  0
  183.9770  179.4210  139.3370 C   0  0  0  0  0  1  0  0  0  0  0  0
  183.8960  177.9390  139.6510 C   0  0  0  0  0  2  0  0  0  0  0  0
  182.0400  175.4620  138.5030 C   0  0  0  0  0  2  0  0  0  0  0  0
  180.7410  175.6610  139.2840 C   0  0  0  0  0  2  0  0  0  0  0  0
  179.6970  174.6460  138.8560 C   0  0  0  0  0  1  0  0  0  0  0  0
  1  4  1  1  0  0  0
  1 21  1  0  0  0  0
  2  5  1  0  0  0  0
  3 10  1  0  0  0  0
  3  7  1  0  0  0  0
  5  8  2  0  0  0  0
  5  4  1  0  0  0  0
  7  2  1  0  0  0  0
  7  6  2  0  0  0  0
 10  9  1  6  0  0  0
 11 10  1  1  0  0  0
 11 17  1  0  0  0  0
 12 16  1  0  0  0  0
 13 11  1  0  0  0  0
 13 12  1  0  0  0  0
 16 14  1  1  0  0  0
 17 16  1  0  0  0  0
 17 15  1  1  0  0  0
 18 33  1  0  0  0  0
 19 22  2  0  0  0  0
 20 23  1  0  0  0  0
 21 20  2  0  0  0  0
 21 19  1  0  0  0  0
 22 18  1  0  0  0  0
 23 18  2  0  0  0  0
 24 35  1  6  0  0  0
 24 30  1  0  0  0  0
 25 31  2  0  0  0  0
 27 24  1  0  0  0  0
 27 32  1  0  0  0  0
 29 26  1  0  0  0  0
 30 26  2  0  0  0  0
 30 28  1  0  0  0  0
 31 34  1  0  0  0  0
 32 29  2  0  0  0  0
 33 31  1  0  0  0  0
 34 32  1  0  0  0  0
 35 38  2  0  0  0  0
 36 38  1  0  0  0  0
 37 35  1  0  0  0  0
 39 37  2  0  0  0  0
 39 36  1  0  0  0  0
 40 43  1  1  0  0  0
 40 41  1  0  0  0  0
 40  1  1  0  0  0  0
 42 41  1  0  0  0  0
 43 45  1  0  0  0  0
 45 44  1  6  0  0  0
 45 46  1  0  0  0  0
 48 47  1  6  0  0  0
 48 46  1  0  0  0  0
 49 48  1  1  0  0  0
 49 50  1  0  0  0  0
 49 55  1  0  0  0  0
 50 52  1  6  0  0  0
 50 54  1  0  0  0  0
 53 57  1  1  0  0  0
 54 51  1  1  0  0  0
 54 53  1  0  0  0  0
 54 58  1  0  0  0  0
 55 53  1  0  0  0  0
 56 57  1  0  0  0  0
 58 59  1  0  0  0  0
 60 59  1  0  0  0  0
M  END
>  <MODEL>
2

>  <REMARK>
 VINA RESULT:      -6.8      1.963      3.476
  Name = 
  16 active torsions:
  status: ('A' for Active; 'I' for Inactive)
    1  A    between atoms: C_1  and  C_58
    2  A    between atoms: C_2  and  C_15
    3  A    between atoms: C_2  and  C_33
    4  A    between atoms: C_2  and  C_41
    5  A    between atoms: C_3  and  C_11
    6  A    between atoms: N_6  and  C_58
    7  A    between atoms: N_8  and  C_15
    8  A    between atoms: C_9  and  C_53
    9  A    between atoms: C_13  and  N_47
   10  A    between atoms: C_15  and  C_35
   11  A    between atoms: C_25  and  C_27
   12  A    between atoms: C_25  and  N_45
   13  A    between atoms: C_30  and  C_46
   14  A    between atoms: C_41  and  C_57
   15  A    between atoms: N_45  and  C_57
   16  A    between atoms: C_50  and  C_53
                            x       y       z     vdW  Elec       q    Type
                         _______ _______ _______ _____ _____    ______ ____

>  <TORSDO>
F 16

$$$$
=
 OpenBabel11042412253D

 60 64  0  0  1  0  0  0  0  0999 V2000
  181.8700  178.6210  140.7110 C   0  0  1  0  0  3  0  0  0  0  0  0
  181.3340  175.6950  138.3160 N   0  0  0  0  0  2  0  0  0  0  0  0
  180.7970  173.8020  136.8300 N   0  0  0  0  0  2  0  0  0  0  0  0
  182.1000  177.5120  139.7910 N   0  0  0  0  0  2  0  0  0  0  0  0
  181.0320  176.7540  139.2280 C   0  0  0  0  0  0  0  0  0  0  0  0
  179.2120  174.7100  138.2760 O   0  0  0  0  0  0  0  0  0  0  0  0
  180.3890  174.7390  137.8250 C   0  0  0  0  0  0  0  0  0  0  0  0
  179.8370  177.0210  139.5320 O   0  0  0  0  0  0  0  0  0  0  0  0
  178.9430  173.2410  135.5270 O   0  0  0  0  0  1  0  0  0  0  0  0
  179.9290  172.7250  136.3710 C   0  0  1  0  0  3  0  0  0  0  0  0
  180.7490  171.6220  135.6790 C   0  0  1  0  0  3  0  0  0  0  0  0
  183.0290  171.6690  134.8030 C   0  0  0  0  0  2  0  0  0  0  0  0
  181.6290  172.2260  134.5950 C   0  0  0  0  0  2  0  0  0  0  0  0
  183.5950  172.3590  137.1140 C   0  0  0  0  0  1  0  0  0  0  0  0
  181.3830  170.8920  137.9490 O   0  0  0  0  0  1  0  0  0  0  0  0
  183.1040  171.2030  136.2480 C   0  0  1  0  0  3  0  0  0  0  0  0
  181.6770  170.7920  136.5820 C   0  0  2  0  0  3  0  0  0  0  0  0
  184.6890  178.5210  143.9750 C   0  0  0  0  0  0  0  0  0  0  0  0
  184.0310  177.8740  141.7320 C   0  0  0  0  0  3  0  0  0  0  0  0
  182.5640  179.2690  143.0620 C   0  0  0  0  0  3  0  0  0  0  0  0
  182.8370  178.5930  141.8620 C   0  0  0  0  0  0  0  0  0  0  0  0
  184.9500  177.8370  142.7840 C   0  0  0  0  0  3  0  0  0  0  0  0
  183.4890  179.2330  144.1110 C   0  0  0  0  0  3  0  0  0  0  0  0
  189.6190  176.7620  145.6660 C   0  0  2  0  0  3  0  0  0  0  0  0
  184.2270  178.1150  146.8530 O   0  0  0  0  0  0  0  0  0  0  0  0
  190.1780  178.0160  147.7120 C   0  0  0  0  0  3  0  0  0  0  0  0
  188.3010  177.5440  145.6400 C   0  0  0  0  0  2  0  0  0  0  0  0
  191.9820  177.2070  146.4350 O   0  0  0  0  0  1  0  0  0  0  0  0
  188.7730  178.2010  147.9390 N   0  0  0  0  0  0  0  0  0  0  0  0
  190.6150  177.3750  146.6230 C   0  0  0  0  0  0  0  0  0  0  0  0
  185.4040  178.2090  146.4230 C   0  0  0  0  0  0  0  0  0  0  0  0
  187.8740  177.9550  147.0290 C   0  0  0  0  0  0  0  0  0  0  0  0
  185.6570  178.4580  145.0310 N   0  0  0  0  0  2  0  0  0  0  0  0
  186.4890  178.1320  147.3560 N   0  0  0  0  0  2  0  0  0  0  0  0
  190.1680  176.6200  144.2790 C   0  0  0  0  0  0  0  0  0  0  0  0
  190.5410  175.7950  142.3090 O   0  0  0  0  0  0  0  0  0  0  0  0
  191.1600  177.5620  143.6810 C   0  0  0  0  0  3  0  0  0  0  0  0
  189.8530  175.6530  143.4860 N   0  0  0  0  0  0  0  0  0  0  0  0
  191.3760  176.9470  142.2950 C   0  0  0  0  0  3  0  0  0  0  0  0
  181.8000  179.9560  139.9590 C   0  0  2  0  0  3  0  0  0  0  0  0
  180.3940  180.5220  139.7450 C   0  0  0  0  0  2  0  0  0  0  0  0
  179.6450  180.7580  141.0480 C   0  0  0  0  0  1  0  0  0  0  0  0
  182.6600  179.9670  138.7000 C   0  0  0  0  0  2  0  0  0  0  0  0
  185.0050  179.5210  139.3390 C   0  0  0  0  0  1  0  0  0  0  0  0
  183.7340  178.8990  138.7890 C   0  0  2  0  0  3  0  0  0  0  0  0
  183.9910  178.3560  137.4630 N   0  0  0  0  0  2  0  0  0  0  0  0
  184.3400  176.0570  137.3280 O   0  0  0  0  0  1  0  0  0  0  0  0
  184.9610  177.2790  137.6060 C   0  0  1  0  0  3  0  0  0  0  0  0
  186.1320  177.4970  136.6530 C   0  0  1  0  0  3  0  0  0  0  0  0
  187.0350  178.6070  137.1670 C   0  0  2  0  0  3  0  0  0  0  0  0
  189.1340  178.2780  136.0920 F   0  0  0  0  0  0  0  0  0  0  0  0
  187.0100  179.6960  136.2940 O   0  0  0  0  0  1  0  0  0  0  0  0
  188.0570  176.4970  137.2620 C   0  0  1  0  0  3  0  0  0  0  0  0
  188.4020  177.9720  137.2320 C   0  0  2  0  0  0  0  0  0  0  0  0
  186.8810  176.3080  136.5200 O   0  0  0  0  0  0  0  0  0  0  0  0
  188.7620  174.1590  136.7590 C   0  0  0  0  0  1  0  0  0  0  0  0
  189.1820  175.6160  136.7330 C   0  0  0  0  0  2  0  0  0  0  0  0
  189.1860  178.4210  138.4730 C   0  0  0  0  0  2  0  0  0  0  0  0
  189.0670  177.4690  139.6620 C   0  0  0  0  0  2  0  0  0  0  0  0
  188.2570  178.1030  140.7780 C   0  0  0  0  0  1  0  0  0  0  0  0
  1  4  1  6  0  0  0
  1 21  1  0  0  0  0
  2  5  1  0  0  0  0
  3  7  1  0  0  0  0
  5  8  2  0  0  0  0
  5  4  1  0  0  0  0
  7  6  2  0  0  0  0
  7  2  1  0  0  0  0
 10  9  1  6  0  0  0
 10  3  1  0  0  0  0
 11 10  1  1  0  0  0
 11 17  1  0  0  0  0
 12 16  1  0  0  0  0
 13 12  1  0  0  0  0
 13 11  1  0  0  0  0
 16 17  1  0  0  0  0
 16 14  1  1  0  0  0
 17 15  1  1  0  0  0
 18 23  1  0  0  0  0
 18 33  1  0  0  0  0
 19 21  2  0  0  0  0
 19 22  1  0  0  0  0
 20 23  2  0  0  0  0
 21 20  1  0  0  0  0
 22 18  2  0  0  0  0
 24 35  1  6  0  0  0
 24 30  1  0  0  0  0
 26 29  1  0  0  0  0
 27 24  1  0  0  0  0
 27 32  1  0  0  0  0
 28 30  1  0  0  0  0
 30 26  2  0  0  0  0
 31 25  2  0  0  0  0
 31 34  1  0  0  0  0
 32 34  1  0  0  0  0
 32 29  2  0  0  0  0
 33 31  1  0  0  0  0
 36 38  1  0  0  0  0
 37 35  1  0  0  0  0
 38 35  2  0  0  0  0
 39 36  1  0  0  0  0
 39 37  2  0  0  0  0
 40 43  1  6  0  0  0
 40  1  1  0  0  0  0
 41 40  1  0  0  0  0
 41 42  1  0  0  0  0
 43 45  1  0  0  0  0
 45 44  1  6  0  0  0
 46 48  1  0  0  0  0
 46 45  1  0  0  0  0
 48 47  1  6  0  0  0
 49 50  1  0  0  0  0
 49 48  1  1  0  0  0
 50 52  1  6  0  0  0
 50 54  1  0  0  0  0
 53 57  1  6  0  0  0
 54 51  1  6  0  0  0
 54 53  1  0  0  0  0
 54 58  1  0  0  0  0
 55 49  1  0  0  0  0
 55 53  1  0  0  0  0
 57 56  1  0  0  0  0
 58 59  1  0  0  0  0
 59 60  1  0  0  0  0
M  END
>  <MODEL>
3

>  <REMARK>
 VINA RESULT:      -6.7      4.315      8.830
  Name = 
  16 active torsions:
  status: ('A' for Active; 'I' for Inactive)
    1  A    between atoms: C_1  and  C_58
    2  A    between atoms: C_2  and  C_15
    3  A    between atoms: C_2  and  C_33
    4  A    between atoms: C_2  and  C_41
    5  A    between atoms: C_3  and  C_11
    6  A    between atoms: N_6  and  C_58
    7  A    between atoms: N_8  and  C_15
    8  A    between atoms: C_9  and  C_53
    9  A    between atoms: C_13  and  N_47
   10  A    between atoms: C_15  and  C_35
   11  A    between atoms: C_25  and  C_27
   12  A    between atoms: C_25  and  N_45
   13  A    between atoms: C_30  and  C_46
   14  A    between atoms: C_41  and  C_57
   15  A    between atoms: N_45  and  C_57
   16  A    between atoms: C_50  and  C_53
                            x       y       z     vdW  Elec       q    Type
                         _______ _______ _______ _____ _____    ______ ____

>  <TORSDO>
F 16

$$$$
=
 OpenBabel11042412253D

 60 64  0  0  1  0  0  0  0  0999 V2000
  191.1840  176.9740  137.9900 C   0  0  1  0  0  3  0  0  0  0  0  0
  194.0960  174.5980  137.3130 N   0  0  0  0  0  2  0  0  0  0  0  0
  196.0780  173.2210  136.8060 N   0  0  0  0  0  2  0  0  0  0  0  0
  191.9860  175.7710  137.8020 N   0  0  0  0  0  2  0  0  0  0  0  0
  193.3690  175.8210  137.4590 C   0  0  0  0  0  0  0  0  0  0  0  0
  196.0110  175.4970  136.3130 O   0  0  0  0  0  0  0  0  0  0  0  0
  195.4250  174.4900  136.7930 C   0  0  0  0  0  0  0  0  0  0  0  0
  193.9390  176.9330  137.2930 O   0  0  0  0  0  0  0  0  0  0  0  0
  198.3790  173.5720  136.9840 O   0  0  0  0  0  1  0  0  0  0  0  0
  197.3790  173.0090  136.1870 C   0  0  1  0  0  3  0  0  0  0  0  0
  197.6270  171.5110  135.9390 C   0  0  1  0  0  3  0  0  0  0  0  0
  197.5790  169.6280  137.4970 C   0  0  0  0  0  2  0  0  0  0  0  0
  198.3410  170.8940  137.1350 C   0  0  0  0  0  2  0  0  0  0  0  0
  195.2830  170.4400  137.9550 C   0  0  0  0  0  1  0  0  0  0  0  0
  195.2380  171.3790  135.3370 O   0  0  0  0  0  1  0  0  0  0  0  0
  196.1820  169.7760  136.9150 C   0  0  1  0  0  3  0  0  0  0  0  0
  196.3820  170.6460  135.6820 C   0  0  2  0  0  3  0  0  0  0  0  0
  187.2090  176.4490  136.3980 C   0  0  0  0  0  0  0  0  0  0  0  0
  189.2100  175.5410  137.4250 C   0  0  0  0  0  3  0  0  0  0  0  0
  189.0930  177.9020  136.8970 C   0  0  0  0  0  3  0  0  0  0  0  0
  189.8000  176.8110  137.4250 C   0  0  0  0  0  0  0  0  0  0  0  0
  187.9220  175.3620  136.9120 C   0  0  0  0  0  3  0  0  0  0  0  0
  187.8030  177.7190  136.3880 C   0  0  0  0  0  3  0  0  0  0  0  0
  181.7850  176.4890  137.3160 C   0  0  2  0  0  3  0  0  0  0  0  0
  186.2850  174.2840  134.6310 O   0  0  0  0  0  0  0  0  0  0  0  0
  180.6740  176.3900  135.1190 C   0  0  0  0  0  3  0  0  0  0  0  0
  183.1170  176.4400  136.5580 C   0  0  0  0  0  2  0  0  0  0  0  0
  179.4740  177.4010  136.8730 O   0  0  0  0  0  1  0  0  0  0  0  0
  181.8470  175.7500  134.5940 N   0  0  0  0  0  0  0  0  0  0  0  0
  180.6270  176.7910  136.3940 C   0  0  0  0  0  0  0  0  0  0  0  0
  185.4580  175.1280  135.0590 C   0  0  0  0  0  0  0  0  0  0  0  0
  182.9770  175.7130  135.2410 C   0  0  0  0  0  0  0  0  0  0  0  0
  185.8900  176.2250  135.8810 N   0  0  0  0  0  2  0  0  0  0  0  0
  184.0870  175.0180  134.6570 N   0  0  0  0  0  2  0  0  0  0  0  0
  181.8740  177.4510  138.4610 C   0  0  0  0  0  0  0  0  0  0  0  0
  182.2310  179.2870  139.5580 O   0  0  0  0  0  0  0  0  0  0  0  0
  181.6000  177.0760  139.8800 C   0  0  0  0  0  3  0  0  0  0  0  0
  182.2230  178.6850  138.3270 N   0  0  0  0  0  0  0  0  0  0  0  0
  181.8490  178.4020  140.6050 C   0  0  0  0  0  3  0  0  0  0  0  0
  191.2340  177.4470  139.4480 C   0  0  2  0  0  3  0  0  0  0  0  0
  192.5610  177.2120  140.1760 C   0  0  0  0  0  2  0  0  0  0  0  0
  192.4040  177.1370  141.6860 C   0  0  0  0  0  1  0  0  0  0  0  0
  190.0130  177.0110  140.2500 C   0  0  0  0  0  2  0  0  0  0  0  0
  189.5740  178.6290  142.0650 C   0  0  0  0  0  1  0  0  0  0  0  0
  189.1920  178.2210  140.6540 C   0  0  2  0  0  3  0  0  0  0  0  0
  187.7760  177.8830  140.6110 N   0  0  0  0  0  2  0  0  0  0  0  0
  186.1290  179.4590  141.0940 O   0  0  0  0  0  1  0  0  0  0  0  0
  187.1090  178.6390  141.6630 C   0  0  1  0  0  3  0  0  0  0  0  0
  186.4700  177.6870  142.6690 C   0  0  1  0  0  3  0  0  0  0  0  0
  187.4840  177.2720  143.7240 C   0  0  2  0  0  3  0  0  0  0  0  0
  186.2040  176.5120  145.5830 F   0  0  0  0  0  0  0  0  0  0  0  0
  187.7480  175.9040  143.6320 O   0  0  0  0  0  1  0  0  0  0  0  0
  185.7920  178.6450  144.5930 C   0  0  1  0  0  3  0  0  0  0  0  0
  186.8240  177.6270  145.0330 C   0  0  2  0  0  0  0  0  0  0  0  0
  185.3690  178.3060  143.2970 O   0  0  0  0  0  0  0  0  0  0  0  0
  183.3500  179.1140  144.7840 C   0  0  0  0  0  1  0  0  0  0  0  0
  184.6060  178.7360  145.5450 C   0  0  0  0  0  2  0  0  0  0  0  0
  187.8260  178.2010  146.0450 C   0  0  0  0  0  2  0  0  0  0  0  0
  189.2620  177.7230  145.8380 C   0  0  0  0  0  2  0  0  0  0  0  0
  189.7810  177.0270  147.0830 C   0  0  0  0  0  1  0  0  0  0  0  0
  1  4  1  1  0  0  0
  1 40  1  0  0  0  0
  2  5  1  0  0  0  0
  5  4  1  0  0  0  0
  6  7  2  0  0  0  0
  7  3  1  0  0  0  0
  7  2  1  0  0  0  0
  8  5  2  0  0  0  0
 10  3  1  0  0  0  0
 10  9  1  1  0  0  0
 11 10  1  1  0  0  0
 11 13  1  0  0  0  0
 13 12  1  0  0  0  0
 16 12  1  0  0  0  0
 16 14  1  1  0  0  0
 17 15  1  1  0  0  0
 17 11  1  0  0  0  0
 17 16  1  0  0  0  0
 18 22  1  0  0  0  0
 20 21  2  0  0  0  0
 21 19  1  0  0  0  0
 21  1  1  0  0  0  0
 22 19  2  0  0  0  0
 23 18  2  0  0  0  0
 23 20  1  0  0  0  0
 24 35  1  1  0  0  0
 25 31  2  0  0  0  0
 26 30  2  0  0  0  0
 27 24  1  0  0  0  0
 29 26  1  0  0  0  0
 29 32  2  0  0  0  0
 30 28  1  0  0  0  0
 30 24  1  0  0  0  0
 31 33  1  0  0  0  0
 32 27  1  0  0  0  0
 33 18  1  0  0  0  0
 34 31  1  0  0  0  0
 34 32  1  0  0  0  0
 35 37  1  0  0  0  0
 36 39  1  0  0  0  0
 37 39  2  0  0  0  0
 38 35  2  0  0  0  0
 38 36  1  0  0  0  0
 40 41  1  1  0  0  0
 40 43  1  0  0  0  0
 41 42  1  0  0  0  0
 43 45  1  0  0  0  0
 45 44  1  1  0  0  0
 46 45  1  0  0  0  0
 46 48  1  0  0  0  0
 48 47  1  6  0  0  0
 49 48  1  6  0  0  0
 49 55  1  0  0  0  0
 49 50  1  0  0  0  0
 50 52  1  1  0  0  0
 50 54  1  0  0  0  0
 53 54  1  0  0  0  0
 53 57  1  1  0  0  0
 54 51  1  1  0  0  0
 54 58  1  0  0  0  0
 55 53  1  0  0  0  0
 56 57  1  0  0  0  0
 59 58  1  0  0  0  0
 59 60  1  0  0  0  0
M  END
>  <MODEL>
4

>  <REMARK>
 VINA RESULT:      -6.6      2.600      7.933
  Name = 
  16 active torsions:
  status: ('A' for Active; 'I' for Inactive)
    1  A    between atoms: C_1  and  C_58
    2  A    between atoms: C_2  and  C_15
    3  A    between atoms: C_2  and  C_33
    4  A    between atoms: C_2  and  C_41
    5  A    between atoms: C_3  and  C_11
    6  A    between atoms: N_6  and  C_58
    7  A    between atoms: N_8  and  C_15
    8  A    between atoms: C_9  and  C_53
    9  A    between atoms: C_13  and  N_47
   10  A    between atoms: C_15  and  C_35
   11  A    between atoms: C_25  and  C_27
   12  A    between atoms: C_25  and  N_45
   13  A    between atoms: C_30  and  C_46
   14  A    between atoms: C_41  and  C_57
   15  A    between atoms: N_45  and  C_57
   16  A    between atoms: C_50  and  C_53
                            x       y       z     vdW  Elec       q    Type
                         _______ _______ _______ _____ _____    ______ ____

>  <TORSDO>
F 16

$$$$
=
 OpenBabel11042412253D

 60 64  0  0  1  0  0  0  0  0999 V2000
  189.3250  176.3830  137.1500 C   0  0  1  0  0  3  0  0  0  0  0  0
  192.6020  174.8770  135.8960 N   0  0  0  0  0  2  0  0  0  0  0  0
  194.6720  173.7380  135.1880 N   0  0  0  0  0  2  0  0  0  0  0  0
  190.6490  176.2220  136.5620 N   0  0  0  0  0  2  0  0  0  0  0  0
  191.3130  174.9610  136.5090 C   0  0  0  0  0  0  0  0  0  0  0  0
  193.1570  172.7300  136.6430 O   0  0  0  0  0  0  0  0  0  0  0  0
  193.4580  173.7310  135.9380 C   0  0  0  0  0  0  0  0  0  0  0  0
  190.7630  173.9360  136.9960 O   0  0  0  0  0  0  0  0  0  0  0  0
  195.1770  171.5380  134.5940 O   0  0  0  0  0  1  0  0  0  0  0  0
  195.6490  172.6620  135.2770 C   0  0  1  0  0  3  0  0  0  0  0  0
  197.0160  173.1200  134.7400 C   0  0  1  0  0  3  0  0  0  0  0  0
  198.3320  175.1090  135.2740 C   0  0  0  0  0  2  0  0  0  0  0  0
  197.0460  174.6370  134.6120 C   0  0  0  0  0  2  0  0  0  0  0  0
  198.1390  174.2590  137.5940 C   0  0  0  0  0  1  0  0  0  0  0  0
  198.0030  171.7040  136.5020 O   0  0  0  0  0  1  0  0  0  0  0  0
  198.7650  174.0050  136.2250 C   0  0  1  0  0  3  0  0  0  0  0  0
  198.2450  172.7290  135.5770 C   0  0  2  0  0  3  0  0  0  0  0  0
  189.6020  176.8370  141.4320 C   0  0  0  0  0  0  0  0  0  0  0  0
  190.5980  176.2430  139.3020 C   0  0  0  0  0  3  0  0  0  0  0  0
  188.2930  176.9800  139.3890 C   0  0  0  0  0  3  0  0  0  0  0  0
  189.3990  176.5420  138.6440 C   0  0  0  0  0  0  0  0  0  0  0  0
  190.6970  176.3870  140.6880 C   0  0  0  0  0  3  0  0  0  0  0  0
  188.3980  177.1270  140.7760 C   0  0  0  0  0  3  0  0  0  0  0  0
  187.4520  178.6270  146.1680 C   0  0  2  0  0  3  0  0  0  0  0  0
  192.0180  177.5140  142.9690 O   0  0  0  0  0  0  0  0  0  0  0  0
  188.7120  177.5530  147.9920 C   0  0  0  0  0  3  0  0  0  0  0  0
  188.3700  177.8770  145.1970 C   0  0  0  0  0  2  0  0  0  0  0  0
  186.5000  178.2000  148.4660 O   0  0  0  0  0  1  0  0  0  0  0  0
  189.8270  177.4220  147.0970 N   0  0  0  0  0  0  0  0  0  0  0  0
  187.5580  178.0810  147.5730 C   0  0  0  0  0  0  0  0  0  0  0  0
  190.9270  177.3540  143.5720 C   0  0  0  0  0  0  0  0  0  0  0  0
  189.7220  177.6040  145.8120 C   0  0  0  0  0  0  0  0  0  0  0  0
  189.7430  176.9720  142.8520 N   0  0  0  0  0  2  0  0  0  0  0  0
  190.8980  177.4910  144.9980 N   0  0  0  0  0  2  0  0  0  0  0  0
  186.0440  178.6290  145.6570 C   0  0  0  0  0  0  0  0  0  0  0  0
  183.8880  178.8540  145.6240 O   0  0  0  0  0  0  0  0  0  0  0  0
  185.6610  178.1820  144.2850 C   0  0  0  0  0  3  0  0  0  0  0  0
  185.0310  178.9910  146.3680 N   0  0  0  0  0  0  0  0  0  0  0  0
  184.1420  178.3740  144.3090 C   0  0  0  0  0  3  0  0  0  0  0  0
  188.5270  177.4740  136.4240 C   0  0  2  0  0  3  0  0  0  0  0  0
  189.1300  178.8800  136.4760 C   0  0  0  0  0  2  0  0  0  0  0  0
  188.5490  179.7340  137.5930 C   0  0  0  0  0  1  0  0  0  0  0  0
  187.0410  177.4350  136.7570 C   0  0  0  0  0  2  0  0  0  0  0  0
  186.7470  175.6110  135.1170 C   0  0  0  0  0  1  0  0  0  0  0  0
  186.4940  176.0340  136.5520 C   0  0  2  0  0  3  0  0  0  0  0  0
  185.0620  176.0280  136.8170 N   0  0  0  0  0  2  0  0  0  0  0  0
  183.6250  177.7110  136.0890 O   0  0  0  0  0  1  0  0  0  0  0  0
  184.6400  177.4100  137.0030 C   0  0  1  0  0  3  0  0  0  0  0  0
  184.1370  177.6170  138.4280 C   0  0  1  0  0  3  0  0  0  0  0  0
  184.1030  179.0990  138.7680 C   0  0  2  0  0  3  0  0  0  0  0  0
  182.5950  179.3060  140.5990 F   0  0  0  0  0  0  0  0  0  0  0  0
  185.0210  179.3850  139.7810 O   0  0  0  0  0  1  0  0  0  0  0  0
  181.9570  178.1660  138.6000 C   0  0  1  0  0  3  0  0  0  0  0  0
  182.6840  179.3460  139.2130 C   0  0  2  0  0  0  0  0  0  0  0  0
  182.8420  177.0760  138.5720 O   0  0  0  0  0  0  0  0  0  0  0  0
  180.9590  176.7590  140.4000 C   0  0  0  0  0  1  0  0  0  0  0  0
  180.6760  177.8080  139.3420 C   0  0  0  0  0  2  0  0  0  0  0  0
  182.1500  180.6940  138.7100 C   0  0  0  0  0  2  0  0  0  0  0  0
  180.7450  180.6230  138.1120 C   0  0  0  0  0  2  0  0  0  0  0  0
  180.5310  181.7440  137.1120 C   0  0  0  0  0  1  0  0  0  0  0  0
  1  4  1  6  0  0  0
  1 21  1  0  0  0  0
  2  7  1  0  0  0  0
  2  5  1  0  0  0  0
  3 10  1  0  0  0  0
  3  7  1  0  0  0  0
  5  4  1  0  0  0  0
  5  8  2  0  0  0  0
  7  6  2  0  0  0  0
 10  9  1  6  0  0  0
 11 10  1  1  0  0  0
 11 17  1  0  0  0  0
 12 16  1  0  0  0  0
 13 11  1  0  0  0  0
 13 12  1  0  0  0  0
 16 14  1  1  0  0  0
 17 16  1  0  0  0  0
 17 15  1  1  0  0  0
 18 33  1  0  0  0  0
 19 22  1  0  0  0  0
 20 23  2  0  0  0  0
 21 19  2  0  0  0  0
 21 20  1  0  0  0  0
 22 18  2  0  0  0  0
 23 18  1  0  0  0  0
 24 35  1  6  0  0  0
 24 30  1  0  0  0  0
 25 31  2  0  0  0  0
 27 32  1  0  0  0  0
 27 24  1  0  0  0  0
 29 26  1  0  0  0  0
 30 26  2  0  0  0  0
 30 28  1  0  0  0  0
 31 34  1  0  0  0  0
 32 29  2  0  0  0  0
 33 31  1  0  0  0  0
 34 32  1  0  0  0  0
 35 38  2  0  0  0  0
 36 38  1  0  0  0  0
 37 39  2  0  0  0  0
 37 35  1  0  0  0  0
 39 36  1  0  0  0  0
 40 41  1  1  0  0  0
 40 43  1  0  0  0  0
 40  1  1  0  0  0  0
 41 42  1  0  0  0  0
 45 44  1  6  0  0  0
 45 43  1  0  0  0  0
 45 46  1  0  0  0  0
 46 48  1  0  0  0  0
 48 47  1  6  0  0  0
 49 48  1  6  0  0  0
 49 55  1  0  0  0  0
 49 50  1  0  0  0  0
 50 54  1  0  0  0  0
 50 52  1  1  0  0  0
 53 54  1  0  0  0  0
 53 57  1  1  0  0  0
 54 51  1  1  0  0  0
 55 53  1  0  0  0  0
 57 56  1  0  0  0  0
 58 54  1  0  0  0  0
 59 58  1  0  0  0  0
 60 59  1  0  0  0  0
M  END
>  <MODEL>
5

>  <REMARK>
 VINA RESULT:      -6.1      2.095      3.490
  Name = 
  16 active torsions:
  status: ('A' for Active; 'I' for Inactive)
    1  A    between atoms: C_1  and  C_58
    2  A    between atoms: C_2  and  C_15
    3  A    between atoms: C_2  and  C_33
    4  A    between atoms: C_2  and  C_41
    5  A    between atoms: C_3  and  C_11
    6  A    between atoms: N_6  and  C_58
    7  A    between atoms: N_8  and  C_15
    8  A    between atoms: C_9  and  C_53
    9  A    between atoms: C_13  and  N_47
   10  A    between atoms: C_15  and  C_35
   11  A    between atoms: C_25  and  C_27
   12  A    between atoms: C_25  and  N_45
   13  A    between atoms: C_30  and  C_46
   14  A    between atoms: C_41  and  C_57
   15  A    between atoms: N_45  and  C_57
   16  A    between atoms: C_50  and  C_53
                            x       y       z     vdW  Elec       q    Type
                         _______ _______ _______ _____ _____    ______ ____

>  <TORSDO>
F 16

$$$$
=
 OpenBabel11042412253D

 60 64  0  0  1  0  0  0  0  0999 V2000
  185.1250  178.1250  142.4620 C   0  0  1  0  0  3  0  0  0  0  0  0
  182.7980  179.9600  140.0530 N   0  0  0  0  0  2  0  0  0  0  0  0
  181.2930  180.9790  138.3870 N   0  0  0  0  0  2  0  0  0  0  0  0
  184.3710  179.1670  141.7750 N   0  0  0  0  0  2  0  0  0  0  0  0
  183.5250  178.8890  140.6620 C   0  0  0  0  0  0  0  0  0  0  0  0
  182.1200  178.8160  138.1280 O   0  0  0  0  0  0  0  0  0  0  0  0
  182.0680  179.8650  138.8260 C   0  0  0  0  0  0  0  0  0  0  0  0
  183.4200  177.7110  140.2250 O   0  0  0  0  0  0  0  0  0  0  0  0
  180.1440  179.7230  136.7890 O   0  0  0  0  0  1  0  0  0  0  0  0
  180.6220  181.0000  137.0940 C   0  0  1  0  0  3  0  0  0  0  0  0
  179.4950  182.0460  137.0810 C   0  0  1  0  0  3  0  0  0  0  0  0
  179.3200  184.1870  138.2460 C   0  0  0  0  0  2  0  0  0  0  0  0
  179.3540  182.6810  138.4580 C   0  0  0  0  0  2  0  0  0  0  0  0
  181.4590  184.6630  137.0900 C   0  0  0  0  0  1  0  0  0  0  0  0
  180.5870  182.9630  135.0680 O   0  0  0  0  0  1  0  0  0  0  0  0
  179.9590  184.4540  136.8940 C   0  0  1  0  0  3  0  0  0  0  0  0
  179.6500  183.2040  136.0810 C   0  0  2  0  0  3  0  0  0  0  0  0
  188.9760  177.5520  140.6040 C   0  0  0  0  0  0  0  0  0  0  0  0
  186.7390  178.4880  140.5820 C   0  0  0  0  0  3  0  0  0  0  0  0
  187.4600  177.1370  142.4580 C   0  0  0  0  0  3  0  0  0  0  0  0
  186.4710  177.9080  141.8280 C   0  0  0  0  0  0  0  0  0  0  0  0
  187.9830  178.3080  139.9730 C   0  0  0  0  0  3  0  0  0  0  0  0
  188.7060  176.9630  141.8470 C   0  0  0  0  0  3  0  0  0  0  0  0
  192.0260  174.7020  137.0220 C   0  0  2  0  0  3  0  0  0  0  0  0
  191.6740  177.8530  141.7410 O   0  0  0  0  0  0  0  0  0  0  0  0
  193.9970  176.0790  136.4850 C   0  0  0  0  0  3  0  0  0  0  0  0
  191.5860  175.8340  137.9570 C   0  0  0  0  0  2  0  0  0  0  0  0
  193.3080  174.5290  134.8550 O   0  0  0  0  0  1  0  0  0  0  0  0
  193.8450  176.7290  137.7560 N   0  0  0  0  0  0  0  0  0  0  0  0
  193.1290  175.1440  136.0880 C   0  0  0  0  0  0  0  0  0  0  0  0
  191.5450  177.4960  140.5430 C   0  0  0  0  0  0  0  0  0  0  0  0
  192.7710  176.6080  138.4840 C   0  0  0  0  0  0  0  0  0  0  0  0
  190.2410  177.3910  139.9470 N   0  0  0  0  0  2  0  0  0  0  0  0
  192.7210  177.2620  139.7590 N   0  0  0  0  0  2  0  0  0  0  0  0
  190.8440  174.1410  136.2910 C   0  0  0  0  0  0  0  0  0  0  0  0
  189.6040  172.7470  135.1880 O   0  0  0  0  0  0  0  0  0  0  0  0
  189.6040  174.9210  136.0040 C   0  0  0  0  0  3  0  0  0  0  0  0
  190.8050  172.9420  135.8190 N   0  0  0  0  0  0  0  0  0  0  0  0
  188.7610  173.8930  135.2430 C   0  0  0  0  0  3  0  0  0  0  0  0
  185.1560  178.3730  143.9750 C   0  0  2  0  0  3  0  0  0  0  0  0
  184.4170  179.6240  144.4570 C   0  0  0  0  0  2  0  0  0  0  0  0
  182.9250  179.3960  144.6450 C   0  0  0  0  0  1  0  0  0  0  0  0
  186.5530  178.2240  144.5660 C   0  0  0  0  0  2  0  0  0  0  0  0
  185.0110  177.5350  146.3700 C   0  0  0  0  0  1  0  0  0  0  0  0
  186.4710  177.6540  145.9700 C   0  0  2  0  0  3  0  0  0  0  0  0
  187.1590  178.5420  146.8960 N   0  0  0  0  0  2  0  0  0  0  0  0
  187.7660  176.3770  147.5040 O   0  0  0  0  0  1  0  0  0  0  0  0
  188.0600  177.7290  147.7010 C   0  0  1  0  0  3  0  0  0  0  0  0
  189.5080  178.0090  147.3120 C   0  0  1  0  0  3  0  0  0  0  0  0
  190.1880  176.7320  146.8420 C   0  0  2  0  0  3  0  0  0  0  0  0
  192.0600  177.4380  145.5500 F   0  0  0  0  0  0  0  0  0  0  0  0
  191.2120  176.3760  147.7220 O   0  0  0  0  0  1  0  0  0  0  0  0
  189.8690  178.2750  145.1030 C   0  0  1  0  0  3  0  0  0  0  0  0
  190.7200  177.0780  145.4740 C   0  0  2  0  0  0  0  0  0  0  0  0
  189.5600  178.9730  146.2820 O   0  0  0  0  0  0  0  0  0  0  0  0
  191.9800  179.4560  144.5010 C   0  0  0  0  0  1  0  0  0  0  0  0
  190.5440  179.1910  144.0900 C   0  0  0  0  0  2  0  0  0  0  0  0
  190.5640  175.9130  144.4860 C   0  0  0  0  0  2  0  0  0  0  0  0
  191.8860  175.3980  143.9180 C   0  0  0  0  0  2  0  0  0  0  0  0
  192.4320  174.2680  144.7710 C   0  0  0  0  0  1  0  0  0  0  0  0
  1  4  1  6  0  0  0
  1 40  1  0  0  0  0
  2  5  1  0  0  0  0
  3  7  1  0  0  0  0
  5  4  1  0  0  0  0
  6  7  2  0  0  0  0
  7  2  1  0  0  0  0
  8  5  2  0  0  0  0
 10  9  1  1  0  0  0
 10  3  1  0  0  0  0
 11 10  1  1  0  0  0
 11 13  1  0  0  0  0
 12 13  1  0  0  0  0
 16 14  1  1  0  0  0
 16 12  1  0  0  0  0
 17 15  1  6  0  0  0
 17 16  1  0  0  0  0
 17 11  1  0  0  0  0
 18 23  1  0  0  0  0
 19 21  2  0  0  0  0
 21 20  1  0  0  0  0
 21  1  1  0  0  0  0
 22 19  1  0  0  0  0
 22 18  2  0  0  0  0
 23 20  2  0  0  0  0
 24 35  1  6  0  0  0
 24 27  1  0  0  0  0
 26 29  1  0  0  0  0
 27 32  1  0  0  0  0
 28 30  1  0  0  0  0
 29 32  2  0  0  0  0
 30 26  2  0  0  0  0
 30 24  1  0  0  0  0
 31 25  2  0  0  0  0
 32 34  1  0  0  0  0
 33 31  1  0  0  0  0
 33 18  1  0  0  0  0
 34 31  1  0  0  0  0
 36 39  1  0  0  0  0
 36 38  1  0  0  0  0
 37 35  1  0  0  0  0
 38 35  2  0  0  0  0
 39 37  2  0  0  0  0
 40 41  1  6  0  0  0
 40 43  1  0  0  0  0
 41 42  1  0  0  0  0
 43 45  1  0  0  0  0
 45 44  1  1  0  0  0
 45 46  1  0  0  0  0
 46 48  1  0  0  0  0
 48 47  1  6  0  0  0
 49 48  1  6  0  0  0
 50 49  1  0  0  0  0
 50 52  1  1  0  0  0
 53 57  1  6  0  0  0
 53 54  1  0  0  0  0
 53 55  1  0  0  0  0
 54 51  1  1  0  0  0
 54 50  1  0  0  0  0
 55 49  1  0  0  0  0
 57 56  1  0  0  0  0
 58 54  1  0  0  0  0
 59 58  1  0  0  0  0
 59 60  1  0  0  0  0
M  END
>  <MODEL>
6

>  <REMARK>
 VINA RESULT:      -6.0      3.528     12.280
  Name = 
  16 active torsions:
  status: ('A' for Active; 'I' for Inactive)
    1  A    between atoms: C_1  and  C_58
    2  A    between atoms: C_2  and  C_15
    3  A    between atoms: C_2  and  C_33
    4  A    between atoms: C_2  and  C_41
    5  A    between atoms: C_3  and  C_11
    6  A    between atoms: N_6  and  C_58
    7  A    between atoms: N_8  and  C_15
    8  A    between atoms: C_9  and  C_53
    9  A    between atoms: C_13  and  N_47
   10  A    between atoms: C_15  and  C_35
   11  A    between atoms: C_25  and  C_27
   12  A    between atoms: C_25  and  N_45
   13  A    between atoms: C_30  and  C_46
   14  A    between atoms: C_41  and  C_57
   15  A    between atoms: N_45  and  C_57
   16  A    between atoms: C_50  and  C_53
                            x       y       z     vdW  Elec       q    Type
                         _______ _______ _______ _____ _____    ______ ____

>  <TORSDO>
F 16

$$$$
=
 OpenBabel11042412253D

 60 64  0  0  1  0  0  0  0  0999 V2000
  181.2130  178.7030  140.8410 C   0  0  1  0  0  3  0  0  0  0  0  0
  181.1640  175.8870  138.2630 N   0  0  0  0  0  2  0  0  0  0  0  0
  181.0160  173.9650  136.7250 N   0  0  0  0  0  2  0  0  0  0  0  0
  181.5160  177.8650  139.6870 N   0  0  0  0  0  2  0  0  0  0  0  0
  180.8270  176.6450  139.4280 C   0  0  0  0  0  0  0  0  0  0  0  0
  180.0190  173.9270  138.8300 O   0  0  0  0  0  0  0  0  0  0  0  0
  180.6950  174.5650  137.9790 C   0  0  0  0  0  0  0  0  0  0  0  0
  179.9300  176.2440  140.2190 O   0  0  0  0  0  0  0  0  0  0  0  0
  179.3540  172.5070  135.9770 O   0  0  0  0  0  1  0  0  0  0  0  0
  180.6790  172.5830  136.4130 C   0  0  1  0  0  3  0  0  0  0  0  0
  181.6530  172.0050  135.3720 C   0  0  1  0  0  3  0  0  0  0  0  0
  183.8740  172.7700  134.6980 C   0  0  0  0  0  2  0  0  0  0  0  0
  182.3970  173.1320  134.6690 C   0  0  0  0  0  2  0  0  0  0  0  0
  184.3700  172.5390  137.1150 C   0  0  0  0  0  1  0  0  0  0  0  0
  182.4520  170.5250  137.1780 O   0  0  0  0  0  1  0  0  0  0  0  0
  184.0580  171.7740  135.8310 C   0  0  1  0  0  3  0  0  0  0  0  0
  182.7260  171.0400  135.9030 C   0  0  2  0  0  3  0  0  0  0  0  0
  184.3150  178.5430  143.8350 C   0  0  0  0  0  0  0  0  0  0  0  0
  182.0320  179.0360  143.1840 C   0  0  0  0  0  3  0  0  0  0  0  0
  183.6020  178.2140  141.5350 C   0  0  0  0  0  3  0  0  0  0  0  0
  182.3100  178.6460  141.8690 C   0  0  0  0  0  0  0  0  0  0  0  0
  183.0300  178.9870  144.1610 C   0  0  0  0  0  3  0  0  0  0  0  0
  184.5980  178.1620  142.5160 C   0  0  0  0  0  3  0  0  0  0  0  0
  189.3280  176.9020  145.3980 C   0  0  2  0  0  3  0  0  0  0  0  0
  183.9400  178.1360  146.7260 O   0  0  0  0  0  0  0  0  0  0  0  0
  189.9120  178.1750  147.4250 C   0  0  0  0  0  3  0  0  0  0  0  0
  187.9920  177.6540  145.4050 C   0  0  0  0  0  2  0  0  0  0  0  0
  191.6990  177.4030  146.1030 O   0  0  0  0  0  1  0  0  0  0  0  0
  188.5100  178.3290  147.6900 N   0  0  0  0  0  0  0  0  0  0  0  0
  190.3340  177.5410  146.3270 C   0  0  0  0  0  0  0  0  0  0  0  0
  185.1030  178.2550  146.2640 C   0  0  0  0  0  0  0  0  0  0  0  0
  187.5930  178.0600  146.8040 C   0  0  0  0  0  0  0  0  0  0  0  0
  185.3120  178.5060  144.8650 N   0  0  0  0  0  2  0  0  0  0  0  0
  186.2130  178.2060  147.1680 N   0  0  0  0  0  2  0  0  0  0  0  0
  189.8420  176.7680  143.9970 C   0  0  0  0  0  0  0  0  0  0  0  0
  190.3980  175.8610  142.1080 O   0  0  0  0  0  0  0  0  0  0  0  0
  190.4420  177.8960  143.2250 C   0  0  0  0  0  3  0  0  0  0  0  0
  189.8400  175.6570  143.3430 N   0  0  0  0  0  0  0  0  0  0  0  0
  190.8000  177.2110  141.9020 C   0  0  0  0  0  3  0  0  0  0  0  0
  180.8090  180.1180  140.4060 C   0  0  2  0  0  3  0  0  0  0  0  0
  179.5230  180.2140  139.5810 C   0  0  0  0  0  2  0  0  0  0  0  0
  178.9310  181.6150  139.5690 C   0  0  0  0  0  1  0  0  0  0  0  0
  181.9730  180.9050  139.8160 C   0  0  0  0  0  2  0  0  0  0  0  0
  180.9470  180.4750  137.6100 C   0  0  0  0  0  1  0  0  0  0  0  0
  182.2460  180.4520  138.3940 C   0  0  2  0  0  3  0  0  0  0  0  0
  182.7820  179.0980  138.4100 N   0  0  0  0  0  2  0  0  0  0  0  0
  184.7790  180.2360  138.7870 O   0  0  0  0  0  1  0  0  0  0  0  0
  184.1980  179.1790  138.0800 C   0  0  1  0  0  3  0  0  0  0  0  0
  184.8950  177.8690  138.4360 C   0  0  1  0  0  3  0  0  0  0  0  0
  184.9020  176.9290  137.2400 C   0  0  2  0  0  3  0  0  0  0  0  0
  186.6510  175.3690  137.6570 F   0  0  0  0  0  0  0  0  0  0  0  0
  184.1300  175.7970  137.5090 O   0  0  0  0  0  1  0  0  0  0  0  0
  187.0450  177.7210  137.7750 C   0  0  1  0  0  3  0  0  0  0  0  0
  186.3570  176.5830  137.0490 C   0  0  2  0  0  0  0  0  0  0  0  0
  186.2240  178.1180  138.8420 O   0  0  0  0  0  0  0  0  0  0  0  0
  189.2390  178.6080  138.5590 C   0  0  0  0  0  1  0  0  0  0  0  0
  188.4380  177.3530  138.2680 C   0  0  0  0  0  2  0  0  0  0  0  0
  186.7400  176.5110  135.5640 C   0  0  0  0  0  2  0  0  0  0  0  0
  186.8010  177.8720  134.8720 C   0  0  0  0  0  2  0  0  0  0  0  0
  188.2390  178.2690  134.5940 C   0  0  0  0  0  1  0  0  0  0  0  0
  1  4  1  6  0  0  0
  1 21  1  0  0  0  0
  2  5  1  0  0  0  0
  3  7  1  0  0  0  0
  5  4  1  0  0  0  0
  5  8  2  0  0  0  0
  7  2  1  0  0  0  0
  7  6  2  0  0  0  0
 10  9  1  6  0  0  0
 10  3  1  0  0  0  0
 11 17  1  0  0  0  0
 11 10  1  1  0  0  0
 12 16  1  0  0  0  0
 13 12  1  0  0  0  0
 13 11  1  0  0  0  0
 16 17  1  0  0  0  0
 16 14  1  1  0  0  0
 17 15  1  1  0  0  0
 18 22  1  0  0  0  0
 18 33  1  0  0  0  0
 19 22  2  0  0  0  0
 20 21  2  0  0  0  0
 20 23  1  0  0  0  0
 21 19  1  0  0  0  0
 23 18  2  0  0  0  0
 24 35  1  6  0  0  0
 24 27  1  0  0  0  0
 24 30  1  0  0  0  0
 26 29  1  0  0  0  0
 27 32  1  0  0  0  0
 28 30  1  0  0  0  0
 30 26  2  0  0  0  0
 31 25  2  0  0  0  0
 31 34  1  0  0  0  0
 32 34  1  0  0  0  0
 32 29  2  0  0  0  0
 33 31  1  0  0  0  0
 36 38  1  0  0  0  0
 37 35  1  0  0  0  0
 38 35  2  0  0  0  0
 39 36  1  0  0  0  0
 39 37  2  0  0  0  0
 40 41  1  6  0  0  0
 40  1  1  0  0  0  0
 42 41  1  0  0  0  0
 43 40  1  0  0  0  0
 45 44  1  6  0  0  0
 45 46  1  0  0  0  0
 45 43  1  0  0  0  0
 48 46  1  0  0  0  0
 48 47  1  1  0  0  0
 49 48  1  6  0  0  0
 49 55  1  0  0  0  0
 50 52  1  1  0  0  0
 50 49  1  0  0  0  0
 53 57  1  1  0  0  0
 53 55  1  0  0  0  0
 54 50  1  0  0  0  0
 54 51  1  1  0  0  0
 54 53  1  0  0  0  0
 57 56  1  0  0  0  0
 58 54  1  0  0  0  0
 59 58  1  0  0  0  0
 60 59  1  0  0  0  0
M  END
>  <MODEL>
7

>  <REMARK>
 VINA RESULT:      -5.6      4.515      8.715
  Name = 
  16 active torsions:
  status: ('A' for Active; 'I' for Inactive)
    1  A    between atoms: C_1  and  C_58
    2  A    between atoms: C_2  and  C_15
    3  A    between atoms: C_2  and  C_33
    4  A    between atoms: C_2  and  C_41
    5  A    between atoms: C_3  and  C_11
    6  A    between atoms: N_6  and  C_58
    7  A    between atoms: N_8  and  C_15
    8  A    between atoms: C_9  and  C_53
    9  A    between atoms: C_13  and  N_47
   10  A    between atoms: C_15  and  C_35
   11  A    between atoms: C_25  and  C_27
   12  A    between atoms: C_25  and  N_45
   13  A    between atoms: C_30  and  C_46
   14  A    between atoms: C_41  and  C_57
   15  A    between atoms: N_45  and  C_57
   16  A    between atoms: C_50  and  C_53
                            x       y       z     vdW  Elec       q    Type
                         _______ _______ _______ _____ _____    ______ ____

>  <TORSDO>
F 16

$$$$
=
 OpenBabel11042412253D

 60 64  0  0  1  0  0  0  0  0999 V2000
  182.8370  178.5890  138.7990 C   0  0  1  0  0  3  0  0  0  0  0  0
  185.7950  177.9180  136.4790 N   0  0  0  0  0  2  0  0  0  0  0  0
  187.7380  177.3160  135.0850 N   0  0  0  0  0  2  0  0  0  0  0  0
  183.8930  178.7480  137.8060 N   0  0  0  0  0  2  0  0  0  0  0  0
  184.7980  177.6950  137.4800 C   0  0  0  0  0  0  0  0  0  0  0  0
  187.0840  176.0110  136.9000 O   0  0  0  0  0  0  0  0  0  0  0  0
  186.8780  177.0290  136.1860 C   0  0  0  0  0  0  0  0  0  0  0  0
  184.7130  176.5830  138.0680 O   0  0  0  0  0  0  0  0  0  0  0  0
  190.0570  177.3500  134.8220 O   0  0  0  0  0  1  0  0  0  0  0  0
  188.9290  176.5260  134.8000 C   0  0  1  0  0  3  0  0  0  0  0  0
  189.0590  175.3580  135.7930 C   0  0  1  0  0  3  0  0  0  0  0  0
  190.7430  173.5930  135.9360 C   0  0  0  0  0  2  0  0  0  0  0  0
  189.6020  174.1260  135.0830 C   0  0  0  0  0  2  0  0  0  0  0  0
  192.3160  175.5030  136.0630 C   0  0  0  0  0  1  0  0  0  0  0  0
  190.2570  176.9450  137.2540 O   0  0  0  0  0  1  0  0  0  0  0  0
  191.2160  174.7470  136.8040 C   0  0  1  0  0  3  0  0  0  0  0  0
  189.9680  175.5950  137.0100 C   0  0  2  0  0  3  0  0  0  0  0  0
  184.4530  178.7320  142.7960 C   0  0  0  0  0  0  0  0  0  0  0  0
  184.6930  179.0770  140.4080 C   0  0  0  0  0  3  0  0  0  0  0  0
  182.6120  178.2150  141.2970 C   0  0  0  0  0  3  0  0  0  0  0  0
  183.3840  178.6260  140.1990 C   0  0  0  0  0  0  0  0  0  0  0  0
  185.2240  179.1270  141.6990 C   0  0  0  0  0  3  0  0  0  0  0  0
  183.1460  178.2710  142.5880 C   0  0  0  0  0  3  0  0  0  0  0  0
  188.4610  177.1030  146.1940 C   0  0  2  0  0  3  0  0  0  0  0  0
  183.0840  178.7670  145.4010 O   0  0  0  0  0  0  0  0  0  0  0  0
  188.4410  178.6280  148.1280 C   0  0  0  0  0  3  0  0  0  0  0  0
  187.2800  177.9100  145.6440 C   0  0  0  0  0  2  0  0  0  0  0  0
  190.4900  177.5890  147.6150 O   0  0  0  0  0  1  0  0  0  0  0  0
  187.0530  178.8840  147.8670 N   0  0  0  0  0  0  0  0  0  0  0  0
  189.1490  177.8220  147.3310 C   0  0  0  0  0  0  0  0  0  0  0  0
  184.3400  178.7630  145.3630 C   0  0  0  0  0  0  0  0  0  0  0  0
  186.4700  178.5320  146.7570 C   0  0  0  0  0  0  0  0  0  0  0  0
  185.0340  178.7980  144.1060 N   0  0  0  0  0  2  0  0  0  0  0  0
  185.0690  178.7940  146.5970 N   0  0  0  0  0  2  0  0  0  0  0  0
  189.4060  176.7430  145.0860 C   0  0  0  0  0  0  0  0  0  0  0  0
  190.1170  176.0580  143.1570 O   0  0  0  0  0  0  0  0  0  0  0  0
  190.8920  176.8000  145.2160 C   0  0  0  0  0  3  0  0  0  0  0  0
  189.0180  176.3240  143.9310 N   0  0  0  0  0  0  0  0  0  0  0  0
  191.3420  176.3250  143.8310 C   0  0  0  0  0  3  0  0  0  0  0  0
  181.6800  179.5600  138.5320 C   0  0  2  0  0  3  0  0  0  0  0  0
  182.0760  181.0260  138.3370 C   0  0  0  0  0  2  0  0  0  0  0  0
  181.0270  181.8290  137.5850 C   0  0  0  0  0  1  0  0  0  0  0  0
  180.5160  179.3660  139.4980 C   0  0  0  0  0  2  0  0  0  0  0  0
  179.0570  177.4410  140.0150 C   0  0  0  0  0  1  0  0  0  0  0  0
  179.5120  178.3880  138.9200 C   0  0  2  0  0  3  0  0  0  0  0  0
  180.1360  177.6280  137.8470 N   0  0  0  0  0  2  0  0  0  0  0  0
  179.1830  178.0930  135.7730 O   0  0  0  0  0  1  0  0  0  0  0  0
  179.0940  177.2650  136.8960 C   0  0  1  0  0  3  0  0  0  0  0  0
  179.2470  175.8060  136.4800 C   0  0  1  0  0  3  0  0  0  0  0  0
  180.6710  175.5310  136.0220 C   0  0  2  0  0  3  0  0  0  0  0  0
  180.9600  173.1740  136.1990 F   0  0  0  0  0  0  0  0  0  0  0  0
  180.6900  175.2070  134.6640 O   0  0  0  0  0  1  0  0  0  0  0  0
  180.1520  174.4570  138.0430 C   0  0  1  0  0  3  0  0  0  0  0  0
  181.1190  174.3740  136.8800 C   0  0  2  0  0  0  0  0  0  0  0  0
  178.9310  174.9540  137.5600 O   0  0  0  0  0  0  0  0  0  0  0  0
  179.9420  173.3170  140.2500 C   0  0  0  0  0  1  0  0  0  0  0  0
  179.9550  173.1200  138.7460 C   0  0  0  0  0  2  0  0  0  0  0  0
  182.5830  174.5180  137.3180 C   0  0  0  0  0  2  0  0  0  0  0  0
  183.5550  173.6280  136.5430 C   0  0  0  0  0  2  0  0  0  0  0  0
  184.5580  172.9840  137.4830 C   0  0  0  0  0  1  0  0  0  0  0  0
  1  4  1  6  0  0  0
  1 21  1  0  0  0  0
  2  5  1  0  0  0  0
  3  7  1  0  0  0  0
  5  4  1  0  0  0  0
  5  8  2  0  0  0  0
  7  2  1  0  0  0  0
  7  6  2  0  0  0  0
 10  9  1  1  0  0  0
 10  3  1  0  0  0  0
 11 10  1  6  0  0  0
 11 17  1  0  0  0  0
 12 16  1  0  0  0  0
 13 11  1  0  0  0  0
 13 12  1  0  0  0  0
 16 14  1  6  0  0  0
 16 17  1  0  0  0  0
 17 15  1  6  0  0  0
 18 33  1  0  0  0  0
 19 22  1  0  0  0  0
 20 23  2  0  0  0  0
 21 19  2  0  0  0  0
 21 20  1  0  0  0  0
 22 18  2  0  0  0  0
 23 18  1  0  0  0  0
 24 35  1  6  0  0  0
 24 30  1  0  0  0  0
 27 24  1  0  0  0  0
 27 32  1  0  0  0  0
 29 26  1  0  0  0  0
 30 28  1  0  0  0  0
 30 26  2  0  0  0  0
 31 25  2  0  0  0  0
 31 34  1  0  0  0  0
 32 29  2  0  0  0  0
 33 31  1  0  0  0  0
 34 32  1  0  0  0  0
 35 37  1  0  0  0  0
 36 39  1  0  0  0  0
 36 38  1  0  0  0  0
 38 35  2  0  0  0  0
 39 37  2  0  0  0  0
 40 41  1  1  0  0  0
 40  1  1  0  0  0  0
 40 43  1  0  0  0  0
 42 41  1  0  0  0  0
 45 43  1  0  0  0  0
 45 44  1  1  0  0  0
 46 45  1  0  0  0  0
 48 47  1  6  0  0  0
 48 46  1  0  0  0  0
 49 48  1  1  0  0  0
 49 55  1  0  0  0  0
 50 52  1  6  0  0  0
 50 49  1  0  0  0  0
 50 54  1  0  0  0  0
 53 57  1  6  0  0  0
 54 51  1  6  0  0  0
 54 58  1  0  0  0  0
 54 53  1  0  0  0  0
 55 53  1  0  0  0  0
 57 56  1  0  0  0  0
 59 58  1  0  0  0  0
 59 60  1  0  0  0  0
M  END
>  <MODEL>
8

>  <REMARK>
 VINA RESULT:      -5.5      3.262      5.672
  Name = 
  16 active torsions:
  status: ('A' for Active; 'I' for Inactive)
    1  A    between atoms: C_1  and  C_58
    2  A    between atoms: C_2  and  C_15
    3  A    between atoms: C_2  and  C_33
    4  A    between atoms: C_2  and  C_41
    5  A    between atoms: C_3  and  C_11
    6  A    between atoms: N_6  and  C_58
    7  A    between atoms: N_8  and  C_15
    8  A    between atoms: C_9  and  C_53
    9  A    between atoms: C_13  and  N_47
   10  A    between atoms: C_15  and  C_35
   11  A    between atoms: C_25  and  C_27
   12  A    between atoms: C_25  and  N_45
   13  A    between atoms: C_30  and  C_46
   14  A    between atoms: C_41  and  C_57
   15  A    between atoms: N_45  and  C_57
   16  A    between atoms: C_50  and  C_53
                            x       y       z     vdW  Elec       q    Type
                         _______ _______ _______ _____ _____    ______ ____

>  <TORSDO>
F 16

$$$$
=
 OpenBabel11042412253D

 60 64  0  0  1  0  0  0  0  0999 V2000
  188.4370  177.1640  139.4320 C   0  0  1  0  0  3  0  0  0  0  0  0
  189.2570  177.6070  143.1360 N   0  0  0  0  0  2  0  0  0  0  0  0
  189.8850  177.7180  145.5180 N   0  0  0  0  0  2  0  0  0  0  0  0
  188.4470  177.6420  140.8100 N   0  0  0  0  0  2  0  0  0  0  0  0
  189.2860  177.0700  141.8100 C   0  0  0  0  0  0  0  0  0  0  0  0
  190.4490  175.8900  144.1880 O   0  0  0  0  0  0  0  0  0  0  0  0
  189.8960  177.0200  144.2740 C   0  0  0  0  0  0  0  0  0  0  0  0
  190.0450  176.1040  141.5230 O   0  0  0  0  0  0  0  0  0  0  0  0
  191.7650  177.4320  146.8710 O   0  0  0  0  0  1  0  0  0  0  0  0
  190.4060  177.1320  146.7450 C   0  0  1  0  0  3  0  0  0  0  0  0
  189.6030  177.6160  147.9650 C   0  0  1  0  0  3  0  0  0  0  0  0
  187.7240  179.1720  148.0960 C   0  0  0  0  0  2  0  0  0  0  0  0
  189.2100  179.0760  147.7870 C   0  0  0  0  0  2  0  0  0  0  0  0
  186.6880  177.6060  146.4790 C   0  0  0  0  0  1  0  0  0  0  0  0
  188.2170  175.5990  147.6500 O   0  0  0  0  0  1  0  0  0  0  0  0
  187.1490  177.7750  147.9240 C   0  0  1  0  0  3  0  0  0  0  0  0
  188.3060  176.8500  148.2760 C   0  0  2  0  0  3  0  0  0  0  0  0
  184.5930  177.8500  137.5970 C   0  0  0  0  0  0  0  0  0  0  0  0
  186.1890  178.2660  139.3750 C   0  0  0  0  0  3  0  0  0  0  0  0
  186.7470  176.7240  137.5940 C   0  0  0  0  0  3  0  0  0  0  0  0
  187.1000  177.3850  138.7800 C   0  0  0  0  0  0  0  0  0  0  0  0
  184.9420  178.4950  138.7870 C   0  0  0  0  0  3  0  0  0  0  0  0
  185.5000  176.9590  137.0060 C   0  0  0  0  0  3  0  0  0  0  0  0
  180.3800  181.3400  137.0250 C   0  0  2  0  0  3  0  0  0  0  0  0
  182.3200  176.0040  137.2990 O   0  0  0  0  0  0  0  0  0  0  0  0
  179.0250  180.5410  135.1290 C   0  0  0  0  0  3  0  0  0  0  0  0
  181.2960  180.1360  136.7760 C   0  0  0  0  0  2  0  0  0  0  0  0
  178.9310  182.8440  135.6070 O   0  0  0  0  0  1  0  0  0  0  0  0
  179.5260  179.2190  135.3740 N   0  0  0  0  0  0  0  0  0  0  0  0
  179.4400  181.5760  135.8650 C   0  0  0  0  0  0  0  0  0  0  0  0
  182.1950  177.2010  136.9380 C   0  0  0  0  0  0  0  0  0  0  0  0
  180.5400  178.9850  136.1570 C   0  0  0  0  0  0  0  0  0  0  0  0
  183.3050  178.1110  137.0250 N   0  0  0  0  0  2  0  0  0  0  0  0
  180.9490  177.6270  136.3750 N   0  0  0  0  0  2  0  0  0  0  0  0
  181.1940  182.5530  137.3610 C   0  0  0  0  0  0  0  0  0  0  0  0
  182.6660  183.8140  138.3320 O   0  0  0  0  0  0  0  0  0  0  0  0
  180.9790  183.8920  136.7380 C   0  0  0  0  0  3  0  0  0  0  0  0
  182.1360  182.5530  138.2410 N   0  0  0  0  0  0  0  0  0  0  0  0
  182.0460  184.7360  137.4420 C   0  0  0  0  0  3  0  0  0  0  0  0
  189.6360  177.7130  138.6490 C   0  0  2  0  0  3  0  0  0  0  0  0
  189.4050  179.0490  137.9360 C   0  0  0  0  0  2  0  0  0  0  0  0
  189.3840  178.9160  136.4210 C   0  0  0  0  0  1  0  0  0  0  0  0
  190.2960  176.6580  137.7690 C   0  0  0  0  0  2  0  0  0  0  0  0
  192.1180  177.2540  139.3280 C   0  0  0  0  0  1  0  0  0  0  0  0
  191.5810  176.1700  138.4110 C   0  0  2  0  0  3  0  0  0  0  0  0
  192.5620  175.8810  137.3740 N   0  0  0  0  0  2  0  0  0  0  0  0
  191.6060  173.9440  136.5030 O   0  0  0  0  0  1  0  0  0  0  0  0
  192.6730  174.4330  137.2620 C   0  0  1  0  0  3  0  0  0  0  0  0
  193.9960  174.0570  136.6030 C   0  0  1  0  0  3  0  0  0  0  0  0
  195.1580  174.7200  137.3270 C   0  0  2  0  0  3  0  0  0  0  0  0
  197.0870  173.4500  136.7490 F   0  0  0  0  0  0  0  0  0  0  0  0
  195.7880  175.6420  136.4900 O   0  0  0  0  0  1  0  0  0  0  0  0
  195.1290  172.3910  137.6150 C   0  0  1  0  0  3  0  0  0  0  0  0
  196.0710  173.5760  137.6890 C   0  0  2  0  0  0  0  0  0  0  0  0
  194.1720  172.6570  136.6220 O   0  0  0  0  0  0  0  0  0  0  0  0
  194.8530  170.0110  136.9270 C   0  0  0  0  0  1  0  0  0  0  0  0
  195.8490  171.0780  137.3390 C   0  0  0  0  0  2  0  0  0  0  0  0
  196.6890  173.7520  139.0820 C   0  0  0  0  0  2  0  0  0  0  0  0
  197.5360  175.0150  139.2320 C   0  0  0  0  0  2  0  0  0  0  0  0
  197.5640  175.4750  140.6780 C   0  0  0  0  0  1  0  0  0  0  0  0
  1  4  1  1  0  0  0
  2  7  1  0  0  0  0
  3 10  1  0  0  0  0
  4  5  1  0  0  0  0
  5  2  1  0  0  0  0
  6  7  2  0  0  0  0
  7  3  1  0  0  0  0
  8  5  2  0  0  0  0
 10  9  1  1  0  0  0
 11 10  1  6  0  0  0
 11 17  1  0  0  0  0
 13 11  1  0  0  0  0
 13 12  1  0  0  0  0
 16 14  1  6  0  0  0
 16 12  1  0  0  0  0
 16 17  1  0  0  0  0
 17 15  1  6  0  0  0
 18 22  1  0  0  0  0
 20 21  2  0  0  0  0
 21 19  1  0  0  0  0
 21  1  1  0  0  0  0
 22 19  2  0  0  0  0
 23 20  1  0  0  0  0
 23 18  2  0  0  0  0
 24 35  1  6  0  0  0
 26 29  1  0  0  0  0
 26 30  2  0  0  0  0
 27 24  1  0  0  0  0
 28 30  1  0  0  0  0
 29 32  2  0  0  0  0
 30 24  1  0  0  0  0
 31 33  1  0  0  0  0
 31 25  2  0  0  0  0
 32 34  1  0  0  0  0
 32 27  1  0  0  0  0
 33 18  1  0  0  0  0
 34 31  1  0  0  0  0
 35 38  2  0  0  0  0
 37 35  1  0  0  0  0
 37 39  2  0  0  0  0
 38 36  1  0  0  0  0
 39 36  1  0  0  0  0
 40 43  1  6  0  0  0
 40  1  1  0  0  0  0
 41 40  1  0  0  0  0
 42 41  1  0  0  0  0
 43 45  1  0  0  0  0
 45 44  1  1  0  0  0
 46 45  1  0  0  0  0
 48 47  1  6  0  0  0
 48 46  1  0  0  0  0
 49 55  1  0  0  0  0
 49 48  1  1  0  0  0
 49 50  1  0  0  0  0
 50 52  1  6  0  0  0
 50 54  1  0  0  0  0
 53 57  1  6  0  0  0
 53 54  1  0  0  0  0
 54 51  1  6  0  0  0
 54 58  1  0  0  0  0
 55 53  1  0  0  0  0
 56 57  1  0  0  0  0
 58 59  1  0  0  0  0
 59 60  1  0  0  0  0
M  END
>  <MODEL>
9

>  <REMARK>
 VINA RESULT:      -5.3      3.706     11.170
  Name = 
  16 active torsions:
  status: ('A' for Active; 'I' for Inactive)
    1  A    between atoms: C_1  and  C_58
    2  A    between atoms: C_2  and  C_15
    3  A    between atoms: C_2  and  C_33
    4  A    between atoms: C_2  and  C_41
    5  A    between atoms: C_3  and  C_11
    6  A    between atoms: N_6  and  C_58
    7  A    between atoms: N_8  and  C_15
    8  A    between atoms: C_9  and  C_53
    9  A    between atoms: C_13  and  N_47
   10  A    between atoms: C_15  and  C_35
   11  A    between atoms: C_25  and  C_27
   12  A    between atoms: C_25  and  N_45
   13  A    between atoms: C_30  and  C_46
   14  A    between atoms: C_41  and  C_57
   15  A    between atoms: N_45  and  C_57
   16  A    between atoms: C_50  and  C_53
                            x       y       z     vdW  Elec       q    Type
                         _______ _______ _______ _____ _____    ______ ____

>  <TORSDO>
F 16

$$$$
