=
 OpenBabel11042411383D

 45 50  0  0  1  0  0  0  0  0999 V2000
  189.7280  177.8490  140.2410 C   0  0  0  0  0  0  0  0  0  0  0  0
  191.3310  177.4650  140.5700 S   0  0  0  0  0  0  0  0  0  0  0  0
  189.0190  177.9730  141.3470 N   0  0  0  0  0  0  0  0  0  0  0  0
  188.9340  178.0210  139.1270 C   0  0  0  0  0  0  0  0  0  0  0  0
  189.6600  177.7760  142.4920 N   0  0  0  0  0  0  0  0  0  0  0  0
  186.4200  178.4420  138.8190 C   0  0  0  0  0  1  0  0  0  0  0  0
  187.6490  178.2470  139.6420 C   0  0  0  0  0  0  0  0  0  0  0  0
  187.7310  178.2170  141.0470 C   0  0  0  0  0  0  0  0  0  0  0  0
  190.9700  177.4990  142.2460 C   0  0  0  0  0  0  0  0  0  0  0  0
  184.4510  179.2380  142.6470 C   0  0  0  0  0  3  0  0  0  0  0  0
  184.5680  178.6750  143.9220 C   0  0  0  0  0  0  0  0  0  0  0  0
  186.7470  177.8010  143.3200 C   0  0  0  0  0  3  0  0  0  0  0  0
  185.4810  179.0850  141.7160 C   0  0  0  0  0  3  0  0  0  0  0  0
  183.4680  178.8590  144.9070 C   0  0  0  0  0  1  0  0  0  0  0  0
  185.7210  177.9530  144.2590 C   0  0  0  0  0  0  0  0  0  0  0  0
  185.8580  177.4070  145.4930 F   0  0  0  0  0  0  0  0  0  0  0  0
  186.6390  178.3650  142.0410 C   0  0  0  0  0  0  0  0  0  0  0  0
  191.9140  175.6920  143.6540 C   0  0  0  0  0  2  0  0  0  0  0  0
  191.4670  175.6320  145.0380 N   0  0  0  0  0  0  0  0  0  0  0  0
  191.5850  177.8510  144.5520 N   0  0  0  0  0  2  0  0  0  0  0  0
  191.9630  177.1860  143.3170 C   0  0  2  0  0  3  0  0  0  0  0  0
  191.2990  176.8260  145.4830 C   0  0  0  0  0  0  0  0  0  0  0  0
  190.7160  177.1600  147.1460 S   0  0  0  0  0  0  0  0  0  0  0  0
  188.1170  177.6890  147.8830 C   0  0  0  0  0  1  0  0  0  0  0  0
  188.9910  177.5100  146.6560 C   0  0  0  0  0  0  0  0  0  0  0  0
  188.4970  176.4800  145.8790 F   0  0  0  0  0  0  0  0  0  0  0  0
  188.9640  178.6750  145.9180 F   0  0  0  0  0  0  0  0  0  0  0  0
  189.2950  177.8140  137.6870 C   0  0  0  0  0  2  0  0  0  0  0  0
  189.7030  176.4050  137.4000 C   0  0  0  0  0  0  0  0  0  0  0  0
  191.0520  176.0640  137.1980 C   0  0  0  0  0  0  0  0  0  0  0  0
  188.7160  175.4160  137.3340 C   0  0  0  0  0  3  0  0  0  0  0  0
  189.0640  174.0920  137.0600 C   0  0  0  0  0  3  0  0  0  0  0  0
  190.4030  173.7520  136.8560 C   0  0  0  0  0  3  0  0  0  0  0  0
  191.4030  174.7330  136.9260 C   0  0  0  0  0  0  0  0  0  0  0  0
  192.0150  177.0210  137.2550 F   0  0  0  0  0  0  0  0  0  0  0  0
  192.7800  174.3970  136.7040 N   0  0  0  0  0  2  0  0  0  0  0  0
  193.9090  172.3330  136.0590 C   0  0  2  0  0  3  0  0  0  0  0  0
  196.1660  171.2770  136.7690 C   0  0  0  0  0  1  0  0  0  0  0  0
  195.4630  174.9790  137.7270 O   0  0  0  0  0  0  0  0  0  0  0  0
  196.1070  173.3320  135.3250 C   0  0  0  0  0  1  0  0  0  0  0  0
  193.4000  173.1860  137.2240 C   0  0  1  0  0  3  0  0  0  0  0  0
  195.3480  172.9060  139.1510 O   0  0  0  0  0  0  0  0  0  0  0  0
  193.5050  171.0080  136.2440 O   0  0  0  0  0  1  0  0  0  0  0  0
  195.3950  172.5390  136.4050 C   0  0  0  0  0  0  0  0  0  0  0  0
  195.0340  173.5390  137.8250 S   0  0  0  0  0  0  0  0  0  0  0  0
  1  2  1  0  0  0  0
  1  3  1  0  0  0  0
  2  9  1  0  0  0  0
  3  5  1  0  0  0  0
  4  7  1  0  0  0  0
  4  1  2  0  0  0  0
  6  7  1  0  0  0  0
  7  8  2  0  0  0  0
  8  3  1  0  0  0  0
  8 17  1  0  0  0  0
  9  5  2  0  0  0  0
 10 11  1  0  0  0  0
 11 15  2  0  0  0  0
 11 14  1  0  0  0  0
 12 15  1  0  0  0  0
 13 17  1  0  0  0  0
 13 10  2  0  0  0  0
 15 16  1  0  0  0  0
 17 12  2  0  0  0  0
 18 19  1  0  0  0  0
 19 22  2  0  0  0  0
 20 22  1  0  0  0  0
 21  9  1  6  0  0  0
 21 18  1  0  0  0  0
 21 20  1  0  0  0  0
 22 23  1  0  0  0  0
 25 23  1  0  0  0  0
 25 24  1  0  0  0  0
 26 25  1  0  0  0  0
 27 25  1  0  0  0  0
 28  4  1  0  0  0  0
 29 28  1  0  0  0  0
 30 35  1  0  0  0  0
 30 29  2  0  0  0  0
 31 29  1  0  0  0  0
 32 31  2  0  0  0  0
 33 34  2  0  0  0  0
 33 32  1  0  0  0  0
 34 30  1  0  0  0  0
 36 34  1  0  0  0  0
 37 43  1  1  0  0  0
 37 44  1  0  0  0  0
 37 41  1  0  0  0  0
 39 45  2  0  0  0  0
 40 44  1  0  0  0  0
 41 36  1  6  0  0  0
 41 45  1  0  0  0  0
 44 38  1  0  0  0  0
 44 45  1  0  0  0  0
 45 42  2  0  0  0  0
M  END
>  <MODEL>
1

>  <REMARK>
 VINA RESULT:      -9.7      0.000      0.000
  Name = 
  8 active torsions:
  status: ('A' for Active; 'I' for Inactive)
    1  A    between atoms: C_6  and  C_32
    2  A    between atoms: C_9  and  N_18
    3  A    between atoms: C_15  and  S_16
    4  A    between atoms: S_16  and  C_36
    5  A    between atoms: C_17  and  C_32
    6  A    between atoms: N_18  and  C_37
    7  A    between atoms: C_28  and  C_34
    8  A    between atoms: C_31  and  C_40
                            x       y       z     vdW  Elec       q    Type
                         _______ _______ _______ _____ _____    ______ ____

>  <TORSDO>
F 8

$$$$
=
 OpenBabel11042411383D

 45 50  0  0  1  0  0  0  0  0999 V2000
  184.7960  178.7040  141.2460 C   0  0  0  0  0  0  0  0  0  0  0  0
  185.4790  178.7110  139.7100 S   0  0  0  0  0  0  0  0  0  0  0  0
  185.7140  178.6070  142.1880 N   0  0  0  0  0  0  0  0  0  0  0  0
  183.5300  178.7190  141.7930 C   0  0  0  0  0  0  0  0  0  0  0  0
  186.9760  178.5280  141.7850 N   0  0  0  0  0  0  0  0  0  0  0  0
  182.6640  178.5240  144.2020 C   0  0  0  0  0  1  0  0  0  0  0  0
  183.7430  178.6040  143.1750 C   0  0  0  0  0  0  0  0  0  0  0  0
  185.1310  178.5400  143.3980 C   0  0  0  0  0  0  0  0  0  0  0  0
  187.0320  178.5900  140.4260 C   0  0  0  0  0  0  0  0  0  0  0  0
  186.0820  178.8960  147.0490 C   0  0  0  0  0  3  0  0  0  0  0  0
  187.2290  178.0980  147.1240 C   0  0  0  0  0  0  0  0  0  0  0  0
  187.0030  177.5760  144.7680 C   0  0  0  0  0  3  0  0  0  0  0  0
  185.4040  179.0350  145.8360 C   0  0  0  0  0  3  0  0  0  0  0  0
  187.9490  177.9710  148.4200 C   0  0  0  0  0  1  0  0  0  0  0  0
  187.6900  177.4350  145.9790 C   0  0  0  0  0  0  0  0  0  0  0  0
  188.8040  176.6630  146.0290 F   0  0  0  0  0  0  0  0  0  0  0  0
  185.8550  178.3770  144.6840 C   0  0  0  0  0  0  0  0  0  0  0  0
  188.4520  177.0730  139.0760 C   0  0  0  0  0  2  0  0  0  0  0  0
  189.6370  176.5300  139.7220 N   0  0  0  0  0  0  0  0  0  0  0  0
  189.4410  178.6450  140.5340 N   0  0  0  0  0  2  0  0  0  0  0  0
  188.3020  178.4880  139.6470 C   0  0  2  0  0  3  0  0  0  0  0  0
  190.1400  177.4160  140.5060 C   0  0  0  0  0  0  0  0  0  0  0  0
  191.5930  177.1020  141.5090 S   0  0  0  0  0  0  0  0  0  0  0  0
  191.4780  175.9360  143.9990 C   0  0  0  0  0  1  0  0  0  0  0  0
  190.6730  176.8160  143.0610 C   0  0  0  0  0  0  0  0  0  0  0  0
  189.4560  176.2200  142.7910 F   0  0  0  0  0  0  0  0  0  0  0  0
  190.4460  178.0290  143.6760 F   0  0  0  0  0  0  0  0  0  0  0  0
  182.2100  178.6630  141.0850 C   0  0  0  0  0  2  0  0  0  0  0  0
  182.3310  178.1170  139.6990 C   0  0  0  0  0  0  0  0  0  0  0  0
  182.5820  176.7530  139.4720 C   0  0  0  0  0  0  0  0  0  0  0  0
  182.1870  178.9890  138.6140 C   0  0  0  0  0  3  0  0  0  0  0  0
  182.3000  178.5110  137.3080 C   0  0  0  0  0  3  0  0  0  0  0  0
  182.5530  177.1580  137.0810 C   0  0  0  0  0  3  0  0  0  0  0  0
  182.6930  176.2710  138.1590 C   0  0  0  0  0  0  0  0  0  0  0  0
  182.7280  175.9010  140.5220 F   0  0  0  0  0  0  0  0  0  0  0  0
  182.9680  174.8810  137.9380 N   0  0  0  0  0  2  0  0  0  0  0  0
  184.5050  172.9940  137.7830 C   0  0  2  0  0  3  0  0  0  0  0  0
  185.3850  171.6130  135.7740 C   0  0  0  0  0  1  0  0  0  0  0  0
  182.3620  173.9920  135.2120 O   0  0  0  0  0  0  0  0  0  0  0  0
  183.0010  171.3960  136.5350 C   0  0  0  0  0  1  0  0  0  0  0  0
  184.1750  174.4010  137.2790 C   0  0  1  0  0  3  0  0  0  0  0  0
  184.7820  174.3040  134.5940 O   0  0  0  0  0  0  0  0  0  0  0  0
  185.8610  172.9270  138.1140 O   0  0  0  0  0  1  0  0  0  0  0  0
  184.2050  172.3140  136.4330 C   0  0  0  0  0  0  0  0  0  0  0  0
  183.8000  173.8440  135.6340 S   0  0  0  0  0  0  0  0  0  0  0  0
  1  4  2  0  0  0  0
  1  3  1  0  0  0  0
  2  9  1  0  0  0  0
  2  1  1  0  0  0  0
  3  8  1  0  0  0  0
  4  7  1  0  0  0  0
  5  3  1  0  0  0  0
  7  8  2  0  0  0  0
  7  6  1  0  0  0  0
  8 17  1  0  0  0  0
  9  5  2  0  0  0  0
 10 11  1  0  0  0  0
 11 14  1  0  0  0  0
 12 15  1  0  0  0  0
 13 10  2  0  0  0  0
 15 16  1  0  0  0  0
 15 11  2  0  0  0  0
 17 12  2  0  0  0  0
 17 13  1  0  0  0  0
 18 21  1  0  0  0  0
 18 19  1  0  0  0  0
 19 22  2  0  0  0  0
 21  9  1  1  0  0  0
 21 20  1  0  0  0  0
 22 20  1  0  0  0  0
 22 23  1  0  0  0  0
 23 25  1  0  0  0  0
 25 27  1  0  0  0  0
 25 24  1  0  0  0  0
 26 25  1  0  0  0  0
 28  4  1  0  0  0  0
 29 28  1  0  0  0  0
 30 29  1  0  0  0  0
 30 35  1  0  0  0  0
 31 29  2  0  0  0  0
 32 31  1  0  0  0  0
 33 32  2  0  0  0  0
 33 34  1  0  0  0  0
 34 30  2  0  0  0  0
 36 34  1  0  0  0  0
 37 43  1  6  0  0  0
 38 44  1  0  0  0  0
 39 45  2  0  0  0  0
 41 37  1  0  0  0  0
 41 36  1  1  0  0  0
 42 45  2  0  0  0  0
 44 40  1  0  0  0  0
 44 37  1  0  0  0  0
 45 44  1  0  0  0  0
 45 41  1  0  0  0  0
M  END
>  <MODEL>
2

>  <REMARK>
 VINA RESULT:      -9.6      4.461      7.244
  Name = 
  8 active torsions:
  status: ('A' for Active; 'I' for Inactive)
    1  A    between atoms: C_6  and  C_32
    2  A    between atoms: C_9  and  N_18
    3  A    between atoms: C_15  and  S_16
    4  A    between atoms: S_16  and  C_36
    5  A    between atoms: C_17  and  C_32
    6  A    between atoms: N_18  and  C_37
    7  A    between atoms: C_28  and  C_34
    8  A    between atoms: C_31  and  C_40
                            x       y       z     vdW  Elec       q    Type
                         _______ _______ _______ _____ _____    ______ ____

>  <TORSDO>
F 8

$$$$
=
 OpenBabel11042411383D

 45 50  0  0  1  0  0  0  0  0999 V2000
  189.6980  177.8370  140.2800 C   0  0  0  0  0  0  0  0  0  0  0  0
  191.3030  177.4290  140.5690 S   0  0  0  0  0  0  0  0  0  0  0  0
  189.0130  177.9530  141.4020 N   0  0  0  0  0  0  0  0  0  0  0  0
  188.8840  178.0340  139.1850 C   0  0  0  0  0  0  0  0  0  0  0  0
  189.6760  177.7310  142.5300 N   0  0  0  0  0  0  0  0  0  0  0  0
  186.3690  178.4910  138.9350 C   0  0  0  0  0  1  0  0  0  0  0  0
  187.6120  178.2690  139.7290 C   0  0  0  0  0  0  0  0  0  0  0  0
  187.7230  178.2170  141.1320 C   0  0  0  0  0  0  0  0  0  0  0  0
  190.9770  177.4420  142.2530 C   0  0  0  0  0  0  0  0  0  0  0  0
  184.4670  179.2100  142.7970 C   0  0  0  0  0  3  0  0  0  0  0  0
  184.6250  178.6710  144.0780 C   0  0  0  0  0  0  0  0  0  0  0  0
  186.8030  177.8220  143.4360 C   0  0  0  0  0  3  0  0  0  0  0  0
  185.4760  179.0590  141.8430 C   0  0  0  0  0  3  0  0  0  0  0  0
  183.5470  178.8520  145.0870 C   0  0  0  0  0  1  0  0  0  0  0  0
  185.7980  177.9730  144.3970 C   0  0  0  0  0  0  0  0  0  0  0  0
  185.9750  177.4500  145.6360 F   0  0  0  0  0  0  0  0  0  0  0  0
  186.6530  178.3640  142.1500 C   0  0  0  0  0  0  0  0  0  0  0  0
  191.8940  175.6130  143.6500 C   0  0  0  0  0  2  0  0  0  0  0  0
  191.4850  175.5810  145.0460 N   0  0  0  0  0  0  0  0  0  0  0  0
  191.6700  177.7900  144.5370 N   0  0  0  0  0  2  0  0  0  0  0  0
  191.9880  177.1010  143.2980 C   0  0  2  0  0  3  0  0  0  0  0  0
  191.3730  176.7830  145.4850 C   0  0  0  0  0  0  0  0  0  0  0  0
  190.8500  177.1530  147.1600 S   0  0  0  0  0  0  0  0  0  0  0  0
  188.2500  177.5080  147.9910 C   0  0  0  0  0  1  0  0  0  0  0  0
  189.0970  177.4420  146.7330 C   0  0  0  0  0  0  0  0  0  0  0  0
  188.6340  176.4340  145.9110 F   0  0  0  0  0  0  0  0  0  0  0  0
  188.9930  178.6440  146.0650 F   0  0  0  0  0  0  0  0  0  0  0  0
  189.2120  177.8450  137.7350 C   0  0  0  0  0  2  0  0  0  0  0  0
  188.9320  176.4540  137.2660 C   0  0  0  0  0  0  0  0  0  0  0  0
  187.8020  176.1630  136.4810 C   0  0  0  0  0  0  0  0  0  0  0  0
  189.8180  175.4300  137.6180 C   0  0  0  0  0  3  0  0  0  0  0  0
  189.5810  174.1190  137.2010 C   0  0  0  0  0  3  0  0  0  0  0  0
  188.4580  173.8280  136.4250 C   0  0  0  0  0  3  0  0  0  0  0  0
  187.5650  174.8460  136.0590 C   0  0  0  0  0  0  0  0  0  0  0  0
  186.9340  177.1510  136.1400 F   0  0  0  0  0  0  0  0  0  0  0  0
  186.3990  174.5550  135.2740 N   0  0  0  0  0  2  0  0  0  0  0  0
  185.1170  174.0550  137.2870 C   0  0  2  0  0  3  0  0  0  0  0  0
  182.5880  174.2040  137.8350 C   0  0  0  0  0  1  0  0  0  0  0  0
  183.8930  175.9120  134.5940 O   0  0  0  0  0  0  0  0  0  0  0  0
  183.9660  176.2860  137.5530 C   0  0  0  0  0  1  0  0  0  0  0  0
  185.2600  173.8050  135.7840 C   0  0  1  0  0  3  0  0  0  0  0  0
  182.6620  173.7340  134.8730 O   0  0  0  0  0  0  0  0  0  0  0  0
  184.9430  172.8350  137.9460 O   0  0  0  0  0  1  0  0  0  0  0  0
  183.7950  174.8330  137.1500 C   0  0  0  0  0  0  0  0  0  0  0  0
  183.7430  174.6400  135.3880 S   0  0  0  0  0  0  0  0  0  0  0  0
  1  2  1  0  0  0  0
  1  3  1  0  0  0  0
  2  9  1  0  0  0  0
  3  5  1  0  0  0  0
  4  7  1  0  0  0  0
  4  1  2  0  0  0  0
  6  7  1  0  0  0  0
  7  8  2  0  0  0  0
  8  3  1  0  0  0  0
  8 17  1  0  0  0  0
  9  5  2  0  0  0  0
 10 11  1  0  0  0  0
 11 15  2  0  0  0  0
 11 14  1  0  0  0  0
 12 15  1  0  0  0  0
 13 17  1  0  0  0  0
 13 10  2  0  0  0  0
 15 16  1  0  0  0  0
 17 12  2  0  0  0  0
 18 19  1  0  0  0  0
 19 22  2  0  0  0  0
 20 22  1  0  0  0  0
 21  9  1  6  0  0  0
 21 18  1  0  0  0  0
 21 20  1  0  0  0  0
 22 23  1  0  0  0  0
 25 23  1  0  0  0  0
 25 24  1  0  0  0  0
 26 25  1  0  0  0  0
 27 25  1  0  0  0  0
 28  4  1  0  0  0  0
 29 31  1  0  0  0  0
 29 28  1  0  0  0  0
 30 29  2  0  0  0  0
 32 31  2  0  0  0  0
 33 32  1  0  0  0  0
 34 33  2  0  0  0  0
 34 30  1  0  0  0  0
 35 30  1  0  0  0  0
 36 34  1  0  0  0  0
 37 43  1  1  0  0  0
 39 45  2  0  0  0  0
 41 36  1  6  0  0  0
 41 37  1  0  0  0  0
 42 45  2  0  0  0  0
 44 37  1  0  0  0  0
 44 40  1  0  0  0  0
 44 38  1  0  0  0  0
 45 41  1  0  0  0  0
 45 44  1  0  0  0  0
M  END
>  <MODEL>
3

>  <REMARK>
 VINA RESULT:      -9.4      3.639      5.350
  Name = 
  8 active torsions:
  status: ('A' for Active; 'I' for Inactive)
    1  A    between atoms: C_6  and  C_32
    2  A    between atoms: C_9  and  N_18
    3  A    between atoms: C_15  and  S_16
    4  A    between atoms: S_16  and  C_36
    5  A    between atoms: C_17  and  C_32
    6  A    between atoms: N_18  and  C_37
    7  A    between atoms: C_28  and  C_34
    8  A    between atoms: C_31  and  C_40
                            x       y       z     vdW  Elec       q    Type
                         _______ _______ _______ _____ _____    ______ ____

>  <TORSDO>
F 8

$$$$
=
 OpenBabel11042411383D

 45 50  0  0  1  0  0  0  0  0999 V2000
  184.6000  178.7310  140.4240 C   0  0  0  0  0  0  0  0  0  0  0  0
  185.2470  178.7240  138.8730 S   0  0  0  0  0  0  0  0  0  0  0  0
  185.5320  178.5650  141.3430 N   0  0  0  0  0  0  0  0  0  0  0  0
  183.3500  178.8120  141.0000 C   0  0  0  0  0  0  0  0  0  0  0  0
  186.7770  178.4190  140.9090 N   0  0  0  0  0  0  0  0  0  0  0  0
  182.5280  178.6290  143.4260 C   0  0  0  0  0  1  0  0  0  0  0  0
  183.5860  178.6620  142.3750 C   0  0  0  0  0  0  0  0  0  0  0  0
  184.9730  178.5120  142.5650 C   0  0  0  0  0  0  0  0  0  0  0  0
  186.8060  178.4990  139.5500 C   0  0  0  0  0  0  0  0  0  0  0  0
  187.4910  177.1640  145.0560 C   0  0  0  0  0  3  0  0  0  0  0  0
  187.1170  177.8310  146.2270 C   0  0  0  0  0  0  0  0  0  0  0  0
  185.3490  178.9540  145.0090 C   0  0  0  0  0  3  0  0  0  0  0  0
  186.7910  177.3900  143.8680 C   0  0  0  0  0  3  0  0  0  0  0  0
  187.8640  177.5690  147.4880 C   0  0  0  0  0  1  0  0  0  0  0  0
  186.0440  178.7300  146.2030 C   0  0  0  0  0  0  0  0  0  0  0  0
  185.6600  179.3810  147.3300 F   0  0  0  0  0  0  0  0  0  0  0  0
  185.7150  178.2870  143.8310 C   0  0  0  0  0  0  0  0  0  0  0  0
  188.2150  176.8690  138.3270 C   0  0  0  0  0  2  0  0  0  0  0  0
  189.4350  176.4270  138.9850 N   0  0  0  0  0  0  0  0  0  0  0  0
  189.2150  178.6170  139.5600 N   0  0  0  0  0  2  0  0  0  0  0  0
  188.0500  178.3350  138.7400 C   0  0  2  0  0  3  0  0  0  0  0  0
  189.9430  177.4070  139.6440 C   0  0  0  0  0  0  0  0  0  0  0  0
  191.4380  177.2400  140.6200 S   0  0  0  0  0  0  0  0  0  0  0  0
  191.5380  176.6720  143.3110 C   0  0  0  0  0  1  0  0  0  0  0  0
  190.5830  177.1440  142.2310 C   0  0  0  0  0  0  0  0  0  0  0  0
  189.5080  176.2800  142.1500 F   0  0  0  0  0  0  0  0  0  0  0  0
  190.1190  178.3990  142.5670 F   0  0  0  0  0  0  0  0  0  0  0  0
  182.0140  178.8460  140.3230 C   0  0  0  0  0  2  0  0  0  0  0  0
  181.5850  177.4970  139.8430 C   0  0  0  0  0  0  0  0  0  0  0  0
  182.0260  176.9880  138.6090 C   0  0  0  0  0  0  0  0  0  0  0  0
  180.7280  176.7350  140.6450 C   0  0  0  0  0  3  0  0  0  0  0  0
  180.3050  175.4750  140.2220 C   0  0  0  0  0  3  0  0  0  0  0  0
  180.7400  174.9690  138.9950 C   0  0  0  0  0  3  0  0  0  0  0  0
  181.6040  175.7200  138.1840 C   0  0  0  0  0  0  0  0  0  0  0  0
  182.8540  177.7260  137.8220 F   0  0  0  0  0  0  0  0  0  0  0  0
  182.0450  175.2160  136.9160 N   0  0  0  0  0  2  0  0  0  0  0  0
  182.9020  173.6460  135.2580 C   0  0  2  0  0  3  0  0  0  0  0  0
  185.1700  172.4150  135.0210 C   0  0  0  0  0  1  0  0  0  0  0  0
  184.8980  175.3360  137.5730 O   0  0  0  0  0  0  0  0  0  0  0  0
  185.0040  174.8910  134.6260 C   0  0  0  0  0  1  0  0  0  0  0  0
  182.6610  173.9070  136.7470 C   0  0  1  0  0  3  0  0  0  0  0  0
  184.8880  172.8510  137.9760 O   0  0  0  0  0  0  0  0  0  0  0  0
  182.4460  172.3650  134.9330 O   0  0  0  0  0  1  0  0  0  0  0  0
  184.4360  173.7010  135.3770 C   0  0  0  0  0  0  0  0  0  0  0  0
  184.3950  173.9880  137.1270 S   0  0  0  0  0  0  0  0  0  0  0  0
  1  4  2  0  0  0  0
  1  3  1  0  0  0  0
  2  9  1  0  0  0  0
  2  1  1  0  0  0  0
  3  8  1  0  0  0  0
  4  7  1  0  0  0  0
  5  3  1  0  0  0  0
  7  8  2  0  0  0  0
  7  6  1  0  0  0  0
  8 17  1  0  0  0  0
  9  5  2  0  0  0  0
 10 11  1  0  0  0  0
 11 14  1  0  0  0  0
 12 15  1  0  0  0  0
 13 10  2  0  0  0  0
 15 11  2  0  0  0  0
 15 16  1  0  0  0  0
 17 13  1  0  0  0  0
 17 12  2  0  0  0  0
 18 21  1  0  0  0  0
 18 19  1  0  0  0  0
 19 22  2  0  0  0  0
 20 22  1  0  0  0  0
 21  9  1  1  0  0  0
 21 20  1  0  0  0  0
 22 23  1  0  0  0  0
 23 25  1  0  0  0  0
 25 27  1  0  0  0  0
 25 24  1  0  0  0  0
 26 25  1  0  0  0  0
 28  4  1  0  0  0  0
 29 28  1  0  0  0  0
 29 31  1  0  0  0  0
 30 29  2  0  0  0  0
 32 31  2  0  0  0  0
 33 32  1  0  0  0  0
 34 30  1  0  0  0  0
 34 33  2  0  0  0  0
 35 30  1  0  0  0  0
 36 34  1  0  0  0  0
 37 43  1  1  0  0  0
 37 44  1  0  0  0  0
 37 41  1  0  0  0  0
 38 44  1  0  0  0  0
 40 44  1  0  0  0  0
 41 36  1  6  0  0  0
 41 45  1  0  0  0  0
 44 45  1  0  0  0  0
 45 39  2  0  0  0  0
 45 42  2  0  0  0  0
M  END
>  <MODEL>
4

>  <REMARK>
 VINA RESULT:      -9.2      4.696      7.437
  Name = 
  8 active torsions:
  status: ('A' for Active; 'I' for Inactive)
    1  A    between atoms: C_6  and  C_32
    2  A    between atoms: C_9  and  N_18
    3  A    between atoms: C_15  and  S_16
    4  A    between atoms: S_16  and  C_36
    5  A    between atoms: C_17  and  C_32
    6  A    between atoms: N_18  and  C_37
    7  A    between atoms: C_28  and  C_34
    8  A    between atoms: C_31  and  C_40
                            x       y       z     vdW  Elec       q    Type
                         _______ _______ _______ _____ _____    ______ ____

>  <TORSDO>
F 8

$$$$
=
 OpenBabel11042411383D

 45 50  0  0  1  0  0  0  0  0999 V2000
  188.8760  177.6730  140.6520 C   0  0  0  0  0  0  0  0  0  0  0  0
  187.3130  178.1360  140.2420 S   0  0  0  0  0  0  0  0  0  0  0  0
  188.9860  177.4150  141.9420 N   0  0  0  0  0  0  0  0  0  0  0  0
  190.0930  177.5370  140.0180 C   0  0  0  0  0  0  0  0  0  0  0  0
  187.8910  177.5630  142.6750 N   0  0  0  0  0  0  0  0  0  0  0  0
  192.4510  176.9740  140.8620 C   0  0  0  0  0  1  0  0  0  0  0  0
  190.9860  177.1850  141.0420 C   0  0  0  0  0  0  0  0  0  0  0  0
  190.2610  177.1090  142.2460 C   0  0  0  0  0  0  0  0  0  0  0  0
  186.8520  177.9460  141.8830 C   0  0  0  0  0  0  0  0  0  0  0  0
  190.9450  177.4060  145.9610 C   0  0  0  0  0  3  0  0  0  0  0  0
  191.7220  176.2670  146.1990 C   0  0  0  0  0  0  0  0  0  0  0  0
  191.5370  175.6680  143.8590 C   0  0  0  0  0  3  0  0  0  0  0  0
  190.4720  177.6740  144.6750 C   0  0  0  0  0  3  0  0  0  0  0  0
  192.2300  176.0020  147.5730 C   0  0  0  0  0  1  0  0  0  0  0  0
  192.0170  175.3950  145.1440 C   0  0  0  0  0  0  0  0  0  0  0  0
  192.7760  174.2900  145.3520 F   0  0  0  0  0  0  0  0  0  0  0  0
  190.7610  176.8100  143.6100 C   0  0  0  0  0  0  0  0  0  0  0  0
  185.3010  179.7520  142.5720 C   0  0  0  0  0  2  0  0  0  0  0  0
  185.1130  179.9500  144.0010 N   0  0  0  0  0  0  0  0  0  0  0  0
  185.3350  177.7010  143.7420 N   0  0  0  0  0  2  0  0  0  0  0  0
  185.4830  178.2400  142.4010 C   0  0  2  0  0  3  0  0  0  0  0  0
  185.1410  178.8110  144.5970 C   0  0  0  0  0  0  0  0  0  0  0  0
  184.9800  178.6500  146.3750 S   0  0  0  0  0  0  0  0  0  0  0  0
  187.1270  178.3260  148.0660 C   0  0  0  0  0  1  0  0  0  0  0  0
  186.6770  178.0310  146.6470 C   0  0  0  0  0  0  0  0  0  0  0  0
  187.5480  178.6170  145.7500 F   0  0  0  0  0  0  0  0  0  0  0  0
  186.6900  176.6660  146.4520 F   0  0  0  0  0  0  0  0  0  0  0  0
  190.4480  177.8810  138.6030 C   0  0  0  0  0  2  0  0  0  0  0  0
  190.7410  176.6680  137.7800 C   0  0  0  0  0  0  0  0  0  0  0  0
  192.0570  176.3380  137.4110 C   0  0  0  0  0  0  0  0  0  0  0  0
  189.6780  175.8520  137.3770 C   0  0  0  0  0  3  0  0  0  0  0  0
  189.9190  174.7160  136.6020 C   0  0  0  0  0  3  0  0  0  0  0  0
  191.2240  174.3900  136.2310 C   0  0  0  0  0  3  0  0  0  0  0  0
  192.2990  175.1950  136.6340 C   0  0  0  0  0  0  0  0  0  0  0  0
  193.0930  177.1300  137.7940 F   0  0  0  0  0  0  0  0  0  0  0  0
  193.6430  174.8770  136.2460 N   0  0  0  0  0  2  0  0  0  0  0  0
  195.5460  173.4390  135.7350 C   0  0  2  0  0  3  0  0  0  0  0  0
  197.4160  172.4190  137.2120 C   0  0  0  0  0  1  0  0  0  0  0  0
  195.1830  175.2250  138.7150 O   0  0  0  0  0  0  0  0  0  0  0  0
  197.3700  174.8820  136.7160 C   0  0  0  0  0  1  0  0  0  0  0  0
  194.3060  173.6330  136.6120 C   0  0  1  0  0  3  0  0  0  0  0  0
  195.1010  172.7370  139.0930 O   0  0  0  0  0  0  0  0  0  0  0  0
  195.5600  172.1340  135.2350 O   0  0  0  0  0  1  0  0  0  0  0  0
  196.5400  173.6250  136.8970 C   0  0  0  0  0  0  0  0  0  0  0  0
  195.2550  173.8530  138.0980 S   0  0  0  0  0  0  0  0  0  0  0  0
  1  3  1  0  0  0  0
  2  1  1  0  0  0  0
  2  9  1  0  0  0  0
  3  8  1  0  0  0  0
  3  5  1  0  0  0  0
  4  1  2  0  0  0  0
  4  7  1  0  0  0  0
  6  7  1  0  0  0  0
  7  8  2  0  0  0  0
  8 17  1  0  0  0  0
  9  5  2  0  0  0  0
 10 11  1  0  0  0  0
 11 14  1  0  0  0  0
 12 15  1  0  0  0  0
 13 10  2  0  0  0  0
 15 16  1  0  0  0  0
 15 11  2  0  0  0  0
 17 12  2  0  0  0  0
 17 13  1  0  0  0  0
 18 19  1  0  0  0  0
 19 22  2  0  0  0  0
 20 22  1  0  0  0  0
 21  9  1  1  0  0  0
 21 18  1  0  0  0  0
 21 20  1  0  0  0  0
 22 23  1  0  0  0  0
 23 25  1  0  0  0  0
 25 24  1  0  0  0  0
 26 25  1  0  0  0  0
 27 25  1  0  0  0  0
 28  4  1  0  0  0  0
 29 28  1  0  0  0  0
 30 29  1  0  0  0  0
 30 35  1  0  0  0  0
 31 29  2  0  0  0  0
 32 31  1  0  0  0  0
 33 32  2  0  0  0  0
 33 34  1  0  0  0  0
 34 30  2  0  0  0  0
 36 34  1  0  0  0  0
 37 43  1  1  0  0  0
 37 41  1  0  0  0  0
 37 44  1  0  0  0  0
 40 44  1  0  0  0  0
 41 36  1  6  0  0  0
 41 45  1  0  0  0  0
 44 38  1  0  0  0  0
 44 45  1  0  0  0  0
 45 39  2  0  0  0  0
 45 42  2  0  0  0  0
M  END
>  <MODEL>
5

>  <REMARK>
 VINA RESULT:      -9.1      2.060      4.348
  Name = 
  8 active torsions:
  status: ('A' for Active; 'I' for Inactive)
    1  A    between atoms: C_6  and  C_32
    2  A    between atoms: C_9  and  N_18
    3  A    between atoms: C_15  and  S_16
    4  A    between atoms: S_16  and  C_36
    5  A    between atoms: C_17  and  C_32
    6  A    between atoms: N_18  and  C_37
    7  A    between atoms: C_28  and  C_34
    8  A    between atoms: C_31  and  C_40
                            x       y       z     vdW  Elec       q    Type
                         _______ _______ _______ _____ _____    ______ ____

>  <TORSDO>
F 8

$$$$
=
 OpenBabel11042411383D

 45 50  0  0  1  0  0  0  0  0999 V2000
  188.0230  178.0860  140.0170 C   0  0  0  0  0  0  0  0  0  0  0  0
  186.7710  178.5440  138.9930 S   0  0  0  0  0  0  0  0  0  0  0  0
  187.6430  178.0800  141.2800 N   0  0  0  0  0  0  0  0  0  0  0  0
  189.3580  177.7640  139.9040 C   0  0  0  0  0  0  0  0  0  0  0  0
  186.3860  178.4280  141.5270 N   0  0  0  0  0  0  0  0  0  0  0  0
  191.1860  177.2500  141.6330 C   0  0  0  0  0  1  0  0  0  0  0  0
  189.7870  177.5710  141.2260 C   0  0  0  0  0  0  0  0  0  0  0  0
  188.6830  177.7720  142.0750 C   0  0  0  0  0  0  0  0  0  0  0  0
  185.7450  178.7040  140.3570 C   0  0  0  0  0  0  0  0  0  0  0  0
  189.7600  177.8860  145.7070 C   0  0  0  0  0  3  0  0  0  0  0  0
  188.5620  177.5990  146.3690 C   0  0  0  0  0  0  0  0  0  0  0  0
  187.4350  177.4350  144.2290 C   0  0  0  0  0  3  0  0  0  0  0  0
  189.7940  177.9420  144.3120 C   0  0  0  0  0  3  0  0  0  0  0  0
  188.5450  177.5290  147.8550 C   0  0  0  0  0  1  0  0  0  0  0  0
  187.3950  177.3740  145.6270 C   0  0  0  0  0  0  0  0  0  0  0  0
  186.2240  177.0860  146.2490 F   0  0  0  0  0  0  0  0  0  0  0  0
  188.6340  177.7180  143.5580 C   0  0  0  0  0  0  0  0  0  0  0  0
  183.4740  178.4020  141.3000 C   0  0  0  0  0  2  0  0  0  0  0  0
  182.5240  177.6430  140.5000 N   0  0  0  0  0  0  0  0  0  0  0  0
  183.7600  178.8140  138.9920 N   0  0  0  0  0  2  0  0  0  0  0  0
  184.3270  179.1670  140.2820 C   0  0  2  0  0  3  0  0  0  0  0  0
  182.7170  177.8950  139.2550 C   0  0  0  0  0  0  0  0  0  0  0  0
  181.7590  177.1160  137.9540 S   0  0  0  0  0  0  0  0  0  0  0  0
  181.7740  174.4250  137.3810 C   0  0  0  0  0  1  0  0  0  0  0  0
  182.0950  175.4040  138.4950 C   0  0  0  0  0  0  0  0  0  0  0  0
  181.3440  175.1010  139.6130 F   0  0  0  0  0  0  0  0  0  0  0  0
  183.4320  175.2910  138.8140 F   0  0  0  0  0  0  0  0  0  0  0  0
  190.2250  177.8040  138.6820 C   0  0  0  0  0  2  0  0  0  0  0  0
  190.4960  176.4410  138.1320 C   0  0  0  0  0  0  0  0  0  0  0  0
  191.7890  175.8900  138.1530 C   0  0  0  0  0  0  0  0  0  0  0  0
  189.4350  175.7080  137.5890 C   0  0  0  0  0  3  0  0  0  0  0  0
  189.6570  174.4360  137.0610 C   0  0  0  0  0  3  0  0  0  0  0  0
  190.9410  173.8890  137.0780 C   0  0  0  0  0  3  0  0  0  0  0  0
  192.0120  174.6090  137.6260 C   0  0  0  0  0  0  0  0  0  0  0  0
  192.8260  176.5990  138.6740 F   0  0  0  0  0  0  0  0  0  0  0  0
  193.3390  174.0630  137.6350 N   0  0  0  0  0  2  0  0  0  0  0  0
  195.4380  174.1670  138.8720 C   0  0  2  0  0  3  0  0  0  0  0  0
  197.8950  174.5160  138.1240 C   0  0  0  0  0  1  0  0  0  0  0  0
  195.2200  173.7340  135.4130 O   0  0  0  0  0  0  0  0  0  0  0  0
  196.6910  172.3690  137.6190 C   0  0  0  0  0  1  0  0  0  0  0  0
  194.5320  174.8670  137.8560 C   0  0  1  0  0  3  0  0  0  0  0  0
  196.2900  175.9300  136.0200 O   0  0  0  0  0  0  0  0  0  0  0  0
  195.8530  175.0900  139.8360 O   0  0  0  0  0  1  0  0  0  0  0  0
  196.5470  173.8620  137.8470 C   0  0  0  0  0  0  0  0  0  0  0  0
  195.6790  174.6500  136.5160 S   0  0  0  0  0  0  0  0  0  0  0  0
  1  3  1  0  0  0  0
  2  1  1  0  0  0  0
  2  9  1  0  0  0  0
  3  5  1  0  0  0  0
  3  8  1  0  0  0  0
  4  1  2  0  0  0  0
  4  7  1  0  0  0  0
  7  6  1  0  0  0  0
  7  8  2  0  0  0  0
  8 17  1  0  0  0  0
  9  5  2  0  0  0  0
 10 11  1  0  0  0  0
 11 14  1  0  0  0  0
 12 15  1  0  0  0  0
 13 10  2  0  0  0  0
 15 16  1  0  0  0  0
 15 11  2  0  0  0  0
 17 12  2  0  0  0  0
 17 13  1  0  0  0  0
 19 18  1  0  0  0  0
 20 22  1  0  0  0  0
 20 21  1  0  0  0  0
 21  9  1  6  0  0  0
 21 18  1  0  0  0  0
 22 19  2  0  0  0  0
 23 25  1  0  0  0  0
 23 22  1  0  0  0  0
 24 25  1  0  0  0  0
 25 27  1  0  0  0  0
 25 26  1  0  0  0  0
 28  4  1  0  0  0  0
 29 30  1  0  0  0  0
 29 28  1  0  0  0  0
 30 35  1  0  0  0  0
 31 29  2  0  0  0  0
 32 33  2  0  0  0  0
 32 31  1  0  0  0  0
 33 34  1  0  0  0  0
 34 36  1  0  0  0  0
 34 30  2  0  0  0  0
 37 43  1  1  0  0  0
 39 45  2  0  0  0  0
 40 44  1  0  0  0  0
 41 36  1  6  0  0  0
 41 37  1  0  0  0  0
 42 45  2  0  0  0  0
 44 38  1  0  0  0  0
 44 37  1  0  0  0  0
 45 44  1  0  0  0  0
 45 41  1  0  0  0  0
M  END
>  <MODEL>
6

>  <REMARK>
 VINA RESULT:      -8.9      3.328      5.722
  Name = 
  8 active torsions:
  status: ('A' for Active; 'I' for Inactive)
    1  A    between atoms: C_6  and  C_32
    2  A    between atoms: C_9  and  N_18
    3  A    between atoms: C_15  and  S_16
    4  A    between atoms: S_16  and  C_36
    5  A    between atoms: C_17  and  C_32
    6  A    between atoms: N_18  and  C_37
    7  A    between atoms: C_28  and  C_34
    8  A    between atoms: C_31  and  C_40
                            x       y       z     vdW  Elec       q    Type
                         _______ _______ _______ _____ _____    ______ ____

>  <TORSDO>
F 8

$$$$
=
 OpenBabel11042411383D

 45 50  0  0  1  0  0  0  0  0999 V2000
  188.2140  177.6430  139.1090 C   0  0  0  0  0  0  0  0  0  0  0  0
  187.9440  178.3260  140.6210 S   0  0  0  0  0  0  0  0  0  0  0  0
  189.3480  176.9680  139.0740 N   0  0  0  0  0  0  0  0  0  0  0  0
  187.6000  177.6370  137.8750 C   0  0  0  0  0  0  0  0  0  0  0  0
  190.0630  176.9450  140.1910 N   0  0  0  0  0  0  0  0  0  0  0  0
  188.2660  176.6610  135.5950 C   0  0  0  0  0  1  0  0  0  0  0  0
  188.4700  176.9050  137.0520 C   0  0  0  0  0  0  0  0  0  0  0  0
  189.5640  176.4900  137.8350 C   0  0  0  0  0  0  0  0  0  0  0  0
  189.4180  177.6400  141.1680 C   0  0  0  0  0  0  0  0  0  0  0  0
  191.8080  173.6060  136.8320 C   0  0  0  0  0  3  0  0  0  0  0  0
  193.0340  174.2520  136.6440 C   0  0  0  0  0  0  0  0  0  0  0  0
  191.9960  176.3640  137.2210 C   0  0  0  0  0  3  0  0  0  0  0  0
  190.6830  174.3380  137.2190 C   0  0  0  0  0  3  0  0  0  0  0  0
  194.2270  173.4560  136.2460 C   0  0  0  0  0  1  0  0  0  0  0  0
  193.1280  175.6360  136.8380 C   0  0  0  0  0  0  0  0  0  0  0  0
  194.3100  176.2800  136.6680 F   0  0  0  0  0  0  0  0  0  0  0  0
  190.7630  175.7240  137.4170 C   0  0  0  0  0  0  0  0  0  0  0  0
  190.3670  176.4940  143.1480 C   0  0  0  0  0  2  0  0  0  0  0  0
  189.4900  176.3260  144.2970 N   0  0  0  0  0  0  0  0  0  0  0  0
  188.9330  178.3500  143.4210 N   0  0  0  0  0  2  0  0  0  0  0  0
  189.9710  177.8440  142.5400 C   0  0  2  0  0  3  0  0  0  0  0  0
  188.7270  177.3550  144.4050 C   0  0  0  0  0  0  0  0  0  0  0  0
  187.4800  177.5000  145.6850 S   0  0  0  0  0  0  0  0  0  0  0  0
  188.0340  178.2530  148.2740 C   0  0  0  0  0  1  0  0  0  0  0  0
  188.6640  177.5700  147.0740 C   0  0  0  0  0  0  0  0  0  0  0  0
  189.8040  178.2520  146.6950 F   0  0  0  0  0  0  0  0  0  0  0  0
  189.0130  176.2840  147.4280 F   0  0  0  0  0  0  0  0  0  0  0  0
  186.3880  178.4010  137.4350 C   0  0  0  0  0  2  0  0  0  0  0  0
  185.1180  177.7820  137.9230 C   0  0  0  0  0  0  0  0  0  0  0  0
  184.2390  178.4880  138.7620 C   0  0  0  0  0  0  0  0  0  0  0  0
  184.8080  176.4750  137.5310 C   0  0  0  0  0  3  0  0  0  0  0  0
  183.6340  175.8670  137.9750 C   0  0  0  0  0  3  0  0  0  0  0  0
  182.7610  176.5660  138.8110 C   0  0  0  0  0  3  0  0  0  0  0  0
  183.0560  177.8790  139.2070 C   0  0  0  0  0  0  0  0  0  0  0  0
  184.5360  179.7560  139.1520 F   0  0  0  0  0  0  0  0  0  0  0  0
  182.1730  178.6000  140.0770 N   0  0  0  0  0  2  0  0  0  0  0  0
  181.6250  179.1320  142.3940 C   0  0  2  0  0  3  0  0  0  0  0  0
  179.4680  178.8280  143.7970 C   0  0  0  0  0  1  0  0  0  0  0  0
  179.2540  178.3910  139.9390 O   0  0  0  0  0  0  0  0  0  0  0  0
  179.5810  180.5510  141.9710 C   0  0  0  0  0  1  0  0  0  0  0  0
  181.6440  178.0460  141.3160 C   0  0  1  0  0  3  0  0  0  0  0  0
  179.3130  176.6420  141.7490 O   0  0  0  0  0  0  0  0  0  0  0  0
  182.1770  178.6240  143.5730 O   0  0  0  0  0  1  0  0  0  0  0  0
  180.0880  179.2060  142.4580 C   0  0  0  0  0  0  0  0  0  0  0  0
  179.8720  177.9390  141.2360 S   0  0  0  0  0  0  0  0  0  0  0  0
  1  2  1  0  0  0  0
  2  9  1  0  0  0  0
  3  1  1  0  0  0  0
  3  5  1  0  0  0  0
  4  1  2  0  0  0  0
  5  9  2  0  0  0  0
  6  7  1  0  0  0  0
  7  8  2  0  0  0  0
  7  4  1  0  0  0  0
  8  3  1  0  0  0  0
 10 13  1  0  0  0  0
 11 10  2  0  0  0  0
 11 15  1  0  0  0  0
 12 17  1  0  0  0  0
 13 17  2  0  0  0  0
 14 11  1  0  0  0  0
 15 12  2  0  0  0  0
 16 15  1  0  0  0  0
 17  8  1  0  0  0  0
 18 19  1  0  0  0  0
 19 22  2  0  0  0  0
 20 22  1  0  0  0  0
 21  9  1  6  0  0  0
 21 18  1  0  0  0  0
 21 20  1  0  0  0  0
 22 23  1  0  0  0  0
 23 25  1  0  0  0  0
 25 27  1  0  0  0  0
 25 24  1  0  0  0  0
 26 25  1  0  0  0  0
 28  4  1  0  0  0  0
 28 29  1  0  0  0  0
 29 30  1  0  0  0  0
 30 35  1  0  0  0  0
 30 34  2  0  0  0  0
 31 29  2  0  0  0  0
 31 32  1  0  0  0  0
 32 33  2  0  0  0  0
 33 34  1  0  0  0  0
 34 36  1  0  0  0  0
 37 44  1  0  0  0  0
 37 43  1  1  0  0  0
 39 45  2  0  0  0  0
 40 44  1  0  0  0  0
 41 36  1  6  0  0  0
 41 37  1  0  0  0  0
 44 38  1  0  0  0  0
 45 41  1  0  0  0  0
 45 42  2  0  0  0  0
 45 44  1  0  0  0  0
M  END
>  <MODEL>
7

>  <REMARK>
 VINA RESULT:      -8.8      5.187      9.558
  Name = 
  8 active torsions:
  status: ('A' for Active; 'I' for Inactive)
    1  A    between atoms: C_6  and  C_32
    2  A    between atoms: C_9  and  N_18
    3  A    between atoms: C_15  and  S_16
    4  A    between atoms: S_16  and  C_36
    5  A    between atoms: C_17  and  C_32
    6  A    between atoms: N_18  and  C_37
    7  A    between atoms: C_28  and  C_34
    8  A    between atoms: C_31  and  C_40
                            x       y       z     vdW  Elec       q    Type
                         _______ _______ _______ _____ _____    ______ ____

>  <TORSDO>
F 8

$$$$
=
 OpenBabel11042411383D

 45 50  0  0  1  0  0  0  0  0999 V2000
  186.5940  178.3060  139.3100 C   0  0  0  0  0  0  0  0  0  0  0  0
  185.6040  178.4260  137.9570 S   0  0  0  0  0  0  0  0  0  0  0  0
  185.8940  178.2970  140.4290 N   0  0  0  0  0  0  0  0  0  0  0  0
  187.9460  178.2660  139.5770 C   0  0  0  0  0  0  0  0  0  0  0  0
  184.5750  178.3860  140.3070 N   0  0  0  0  0  0  0  0  0  0  0  0
  189.2980  178.2560  141.7600 C   0  0  0  0  0  1  0  0  0  0  0  0
  188.0280  178.2490  140.9780 C   0  0  0  0  0  0  0  0  0  0  0  0
  186.7170  178.2640  141.4910 C   0  0  0  0  0  0  0  0  0  0  0  0
  184.2350  178.4490  138.9900 C   0  0  0  0  0  0  0  0  0  0  0  0
  186.5970  177.6130  145.2220 C   0  0  0  0  0  3  0  0  0  0  0  0
  185.4480  178.3170  145.5980 C   0  0  0  0  0  0  0  0  0  0  0  0
  185.1300  178.9990  143.2940 C   0  0  0  0  0  3  0  0  0  0  0  0
  187.0060  177.6000  143.8870 C   0  0  0  0  0  3  0  0  0  0  0  0
  185.0180  178.3100  147.0220 C   0  0  0  0  0  1  0  0  0  0  0  0
  184.7130  179.0140  144.6300 C   0  0  0  0  0  0  0  0  0  0  0  0
  183.5910  179.6950  144.9710 F   0  0  0  0  0  0  0  0  0  0  0  0
  186.2790  178.2920  142.9090 C   0  0  0  0  0  0  0  0  0  0  0  0
  182.3580  180.0410  138.7040 C   0  0  0  0  0  2  0  0  0  0  0  0
  181.2670  179.9520  139.6630 N   0  0  0  0  0  0  0  0  0  0  0  0
  181.9370  177.8040  139.3320 N   0  0  0  0  0  2  0  0  0  0  0  0
  182.8310  178.5960  138.5060 C   0  0  2  0  0  3  0  0  0  0  0  0
  181.0740  178.7210  139.9770 C   0  0  0  0  0  0  0  0  0  0  0  0
  179.8310  178.2120  141.1660 S   0  0  0  0  0  0  0  0  0  0  0  0
  180.1860  178.2560  143.8950 C   0  0  0  0  0  1  0  0  0  0  0  0
  180.6900  178.9080  142.6210 C   0  0  0  0  0  0  0  0  0  0  0  0
  180.4890  180.2740  142.6850 F   0  0  0  0  0  0  0  0  0  0  0  0
  182.0410  178.6630  142.5010 F   0  0  0  0  0  0  0  0  0  0  0  0
  189.0880  178.4140  138.6190 C   0  0  0  0  0  2  0  0  0  0  0  0
  189.6090  177.0940  138.1470 C   0  0  0  0  0  0  0  0  0  0  0  0
  190.9640  176.7500  138.2960 C   0  0  0  0  0  0  0  0  0  0  0  0
  188.7220  176.1920  137.5490 C   0  0  0  0  0  3  0  0  0  0  0  0
  189.1790  174.9550  137.0920 C   0  0  0  0  0  3  0  0  0  0  0  0
  190.5250  174.6130  137.2360 C   0  0  0  0  0  3  0  0  0  0  0  0
  191.4230  175.5050  137.8400 C   0  0  0  0  0  0  0  0  0  0  0  0
  191.8320  177.6240  138.8720 F   0  0  0  0  0  0  0  0  0  0  0  0
  192.8110  175.1700  137.9800 N   0  0  0  0  0  2  0  0  0  0  0  0
  193.8200  174.0130  136.0850 C   0  0  2  0  0  3  0  0  0  0  0  0
  196.0280  172.6810  135.8200 C   0  0  0  0  0  1  0  0  0  0  0  0
  195.5350  174.8480  139.0110 O   0  0  0  0  0  0  0  0  0  0  0  0
  196.0580  175.1790  136.0930 C   0  0  0  0  0  1  0  0  0  0  0  0
  193.3730  173.8990  137.5450 C   0  0  1  0  0  3  0  0  0  0  0  0
  195.3300  172.3560  138.7190 O   0  0  0  0  0  0  0  0  0  0  0  0
  193.3490  172.9090  135.3690 O   0  0  0  0  0  1  0  0  0  0  0  0
  195.3200  173.8930  136.4130 C   0  0  0  0  0  0  0  0  0  0  0  0
  195.0320  173.7160  138.1550 S   0  0  0  0  0  0  0  0  0  0  0  0
  1  4  2  0  0  0  0
  1  3  1  0  0  0  0
  2  9  1  0  0  0  0
  2  1  1  0  0  0  0
  3  8  1  0  0  0  0
  4  7  1  0  0  0  0
  5  3  1  0  0  0  0
  7  8  2  0  0  0  0
  7  6  1  0  0  0  0
  8 17  1  0  0  0  0
  9  5  2  0  0  0  0
 10 11  1  0  0  0  0
 11 14  1  0  0  0  0
 12 15  1  0  0  0  0
 13 10  2  0  0  0  0
 15 16  1  0  0  0  0
 15 11  2  0  0  0  0
 17 12  2  0  0  0  0
 17 13  1  0  0  0  0
 18 19  1  0  0  0  0
 19 22  2  0  0  0  0
 20 22  1  0  0  0  0
 21 18  1  0  0  0  0
 21  9  1  1  0  0  0
 21 20  1  0  0  0  0
 22 23  1  0  0  0  0
 23 25  1  0  0  0  0
 25 26  1  0  0  0  0
 25 24  1  0  0  0  0
 27 25  1  0  0  0  0
 28  4  1  0  0  0  0
 29 30  1  0  0  0  0
 29 28  1  0  0  0  0
 30 35  1  0  0  0  0
 31 29  2  0  0  0  0
 32 33  2  0  0  0  0
 32 31  1  0  0  0  0
 33 34  1  0  0  0  0
 34 36  1  0  0  0  0
 34 30  2  0  0  0  0
 37 43  1  6  0  0  0
 37 44  1  0  0  0  0
 37 41  1  0  0  0  0
 38 44  1  0  0  0  0
 40 44  1  0  0  0  0
 41 36  1  1  0  0  0
 41 45  1  0  0  0  0
 44 45  1  0  0  0  0
 45 42  2  0  0  0  0
 45 39  2  0  0  0  0
M  END
>  <MODEL>
8

>  <REMARK>
 VINA RESULT:      -8.8      3.438      5.535
  Name = 
  8 active torsions:
  status: ('A' for Active; 'I' for Inactive)
    1  A    between atoms: C_6  and  C_32
    2  A    between atoms: C_9  and  N_18
    3  A    between atoms: C_15  and  S_16
    4  A    between atoms: S_16  and  C_36
    5  A    between atoms: C_17  and  C_32
    6  A    between atoms: N_18  and  C_37
    7  A    between atoms: C_28  and  C_34
    8  A    between atoms: C_31  and  C_40
                            x       y       z     vdW  Elec       q    Type
                         _______ _______ _______ _____ _____    ______ ____

>  <TORSDO>
F 8

$$$$
=
 OpenBabel11042411383D

 45 50  0  0  1  0  0  0  0  0999 V2000
  184.6910  177.6540  137.9640 C   0  0  0  0  0  0  0  0  0  0  0  0
  183.9810  178.7540  139.0170 S   0  0  0  0  0  0  0  0  0  0  0  0
  183.9890  176.5400  137.8750 N   0  0  0  0  0  0  0  0  0  0  0  0
  185.8380  177.5730  137.2040 C   0  0  0  0  0  0  0  0  0  0  0  0
  182.8840  176.4710  138.6070 N   0  0  0  0  0  0  0  0  0  0  0  0
  186.8570  175.7050  135.7670 C   0  0  0  0  0  1  0  0  0  0  0  0
  185.7980  176.2890  136.6400 C   0  0  0  0  0  0  0  0  0  0  0  0
  184.6170  175.6590  137.0760 C   0  0  0  0  0  0  0  0  0  0  0  0
  182.7140  177.6330  139.2970 C   0  0  0  0  0  0  0  0  0  0  0  0
  184.2550  171.8880  137.1900 C   0  0  0  0  0  3  0  0  0  0  0  0
  183.2620  171.6680  136.2300 C   0  0  0  0  0  0  0  0  0  0  0  0
  183.1420  174.0550  135.8270 C   0  0  0  0  0  3  0  0  0  0  0  0
  184.6910  173.1870  137.4620 C   0  0  0  0  0  3  0  0  0  0  0  0
  182.8180  170.2770  135.9410 C   0  0  0  0  0  1  0  0  0  0  0  0
  182.7030  172.7560  135.5470 C   0  0  0  0  0  0  0  0  0  0  0  0
  181.7450  172.5630  134.6060 F   0  0  0  0  0  0  0  0  0  0  0  0
  184.1400  174.2840  136.7850 C   0  0  0  0  0  0  0  0  0  0  0  0
  181.2140  179.3570  140.2540 C   0  0  0  0  0  2  0  0  0  0  0  0
  181.5120  179.8150  141.6030 N   0  0  0  0  0  0  0  0  0  0  0  0
  182.0230  177.5990  141.6070 N   0  0  0  0  0  2  0  0  0  0  0  0
  181.5880  177.8710  140.2480 C   0  0  2  0  0  3  0  0  0  0  0  0
  181.9500  178.8300  142.3010 C   0  0  0  0  0  0  0  0  0  0  0  0
  182.4600  179.0110  144.0110 S   0  0  0  0  0  0  0  0  0  0  0  0
  185.0930  178.2560  144.2840 C   0  0  0  0  0  1  0  0  0  0  0  0
  184.2220  179.3150  143.6340 C   0  0  0  0  0  0  0  0  0  0  0  0
  184.5970  180.5670  144.0830 F   0  0  0  0  0  0  0  0  0  0  0  0
  184.4020  179.2610  142.2680 F   0  0  0  0  0  0  0  0  0  0  0  0
  186.9820  178.5400  137.1400 C   0  0  0  0  0  2  0  0  0  0  0  0
  188.1440  178.1020  137.9710 C   0  0  0  0  0  0  0  0  0  0  0  0
  188.1310  178.2360  139.3700 C   0  0  0  0  0  0  0  0  0  0  0  0
  189.2600  177.5470  137.3350 C   0  0  0  0  0  3  0  0  0  0  0  0
  190.3640  177.1350  138.0830 C   0  0  0  0  0  3  0  0  0  0  0  0
  190.3530  177.2720  139.4720 C   0  0  0  0  0  3  0  0  0  0  0  0
  189.2390  177.8190  140.1230 C   0  0  0  0  0  0  0  0  0  0  0  0
  187.0520  178.7790  139.9950 F   0  0  0  0  0  0  0  0  0  0  0  0
  189.2240  177.9770  141.5490 N   0  0  0  0  0  2  0  0  0  0  0  0
  190.3900  178.5270  143.6190 C   0  0  2  0  0  3  0  0  0  0  0  0
  191.0510  177.1100  145.6860 C   0  0  0  0  0  1  0  0  0  0  0  0
  188.5340  175.6090  143.1300 O   0  0  0  0  0  0  0  0  0  0  0  0
  188.6490  177.7040  145.2510 C   0  0  0  0  0  1  0  0  0  0  0  0
  190.3380  177.5950  142.4060 C   0  0  1  0  0  3  0  0  0  0  0  0
  190.9850  175.1240  143.4380 O   0  0  0  0  0  0  0  0  0  0  0  0
  191.7020  178.9720  143.8060 O   0  0  0  0  0  1  0  0  0  0  0  0
  190.0040  177.4270  144.6270 C   0  0  0  0  0  0  0  0  0  0  0  0
  189.9090  176.1710  143.3780 S   0  0  0  0  0  0  0  0  0  0  0  0
  1  2  1  0  0  0  0
  2  9  1  0  0  0  0
  3  1  1  0  0  0  0
  3  5  1  0  0  0  0
  4  1  2  0  0  0  0
  5  9  2  0  0  0  0
  6  7  1  0  0  0  0
  7  8  2  0  0  0  0
  7  4  1  0  0  0  0
  8  3  1  0  0  0  0
 10 13  1  0  0  0  0
 11 10  2  0  0  0  0
 12 17  1  0  0  0  0
 14 11  1  0  0  0  0
 15 12  2  0  0  0  0
 15 11  1  0  0  0  0
 16 15  1  0  0  0  0
 17  8  1  0  0  0  0
 17 13  2  0  0  0  0
 18 19  1  0  0  0  0
 19 22  2  0  0  0  0
 20 22  1  0  0  0  0
 21  9  1  6  0  0  0
 21 18  1  0  0  0  0
 21 20  1  0  0  0  0
 22 23  1  0  0  0  0
 25 23  1  0  0  0  0
 25 26  1  0  0  0  0
 25 24  1  0  0  0  0
 27 25  1  0  0  0  0
 28  4  1  0  0  0  0
 28 29  1  0  0  0  0
 29 30  1  0  0  0  0
 30 35  1  0  0  0  0
 30 34  2  0  0  0  0
 31 29  2  0  0  0  0
 31 32  1  0  0  0  0
 32 33  2  0  0  0  0
 33 34  1  0  0  0  0
 34 36  1  0  0  0  0
 37 43  1  1  0  0  0
 37 44  1  0  0  0  0
 39 45  2  0  0  0  0
 41 36  1  6  0  0  0
 41 45  1  0  0  0  0
 41 37  1  0  0  0  0
 44 40  1  0  0  0  0
 44 38  1  0  0  0  0
 45 42  2  0  0  0  0
 45 44  1  0  0  0  0
M  END
>  <MODEL>
9

>  <REMARK>
 VINA RESULT:      -8.8      4.889      8.203
  Name = 
  8 active torsions:
  status: ('A' for Active; 'I' for Inactive)
    1  A    between atoms: C_6  and  C_32
    2  A    between atoms: C_9  and  N_18
    3  A    between atoms: C_15  and  S_16
    4  A    between atoms: S_16  and  C_36
    5  A    between atoms: C_17  and  C_32
    6  A    between atoms: N_18  and  C_37
    7  A    between atoms: C_28  and  C_34
    8  A    between atoms: C_31  and  C_40
                            x       y       z     vdW  Elec       q    Type
                         _______ _______ _______ _____ _____    ______ ____

>  <TORSDO>
F 8

$$$$
