=
 OpenBabel11042412213D

 44 49  0  0  1  0  0  0  0  0999 V2000
  184.9120  176.8020  138.3430 O   0  0  0  0  0  0  0  0  0  0  0  0
  181.2820  172.0380  135.6270 N   0  0  0  0  0  2  0  0  0  0  0  0
  182.2860  174.9090  137.3030 C   0  0  0  0  0  0  0  0  0  0  0  0
  184.3160  176.2380  137.2090 C   0  0  0  0  0  2  0  0  0  0  0  0
  181.9950  177.2640  137.7870 C   0  0  1  0  0  3  0  0  0  0  0  0
  182.3500  172.6760  136.3880 C   0  0  0  0  0  2  0  0  0  0  0  0
  184.1320  178.7230  140.5750 C   0  0  0  0  0  1  0  0  0  0  0  0
  183.2600  180.1310  138.7440 C   0  0  0  0  0  1  0  0  0  0  0  0
  181.7190  173.7380  137.1970 C   0  0  0  0  0  0  0  0  0  0  0  0
  180.0300  172.3770  136.3010 C   0  0  0  0  0  2  0  0  0  0  0  0
  182.8410  176.0840  137.4210 C   0  0  0  0  0  0  0  0  0  0  0  0
  184.7200  178.1830  138.2020 C   0  0  1  0  0  3  0  0  0  0  0  0
  180.2500  173.6300  137.1270 C   0  0  1  0  0  3  0  0  0  0  0  0
  183.6000  178.6940  139.1430 C   0  0  0  0  0  0  0  0  0  0  0  0
  182.3980  177.8050  139.1020 N   0  0  0  0  0  0  0  0  0  0  0  0
  180.3090  174.4220  139.4800 C   0  0  0  0  0  2  0  0  0  0  0  0
  179.6580  173.4480  138.5150 C   0  0  0  0  0  3  0  0  0  0  0  0
  178.9310  174.7160  138.9230 C   0  0  0  0  0  2  0  0  0  0  0  0
  181.9450  178.2970  136.6600 C   0  0  0  0  0  2  0  0  0  0  0  0
  181.4940  177.6700  135.4290 N   0  0  0  0  0  1  0  0  0  0  0  0
  181.2220  178.3910  139.7460 C   0  0  0  0  0  2  0  0  0  0  0  0
  180.7250  177.4830  140.8560 C   0  0  0  0  0  2  0  0  0  0  0  0
  179.7190  178.2070  141.7370 C   0  0  0  0  0  2  0  0  0  0  0  0
  181.4800  178.6570  143.6810 C   0  0  0  0  0  2  0  0  0  0  0  0
  180.0410  178.7410  144.1480 C   0  0  0  0  0  2  0  0  0  0  0  0
  180.3950  179.1470  142.7330 C   0  0  0  0  0  0  0  0  0  0  0  0
  180.2100  180.5280  142.5700 O   0  0  0  0  0  0  0  0  0  0  0  0
  179.0030  180.6990  141.8780 C   0  0  0  0  0  2  0  0  0  0  0  0
  179.0960  181.8430  141.0440 O   0  0  0  0  0  0  0  0  0  0  0  0
  178.9310  180.7680  139.0010 O   0  0  0  0  0  0  0  0  0  0  0  0
  179.3550  181.7410  139.6780 C   0  0  0  0  0  3  0  0  0  0  0  0
  186.0450  178.9310  138.3520 C   0  0  0  0  0  2  0  0  0  0  0  0
  188.1170  177.7620  135.4350 C   0  0  0  0  0  3  0  0  0  0  0  0
  189.0730  176.7900  137.4240 C   0  0  0  0  0  3  0  0  0  0  0  0
  188.1150  177.4190  138.2270 C   0  0  0  0  0  0  0  0  0  0  0  0
  187.1490  178.3940  136.2150 C   0  0  0  0  0  3  0  0  0  0  0  0
  187.1300  178.2310  137.6030 C   0  0  0  0  0  0  0  0  0  0  0  0
  189.0830  176.9560  136.0330 C   0  0  0  0  0  0  0  0  0  0  0  0
  189.9850  174.9570  134.8880 C   0  0  0  0  0  1  0  0  0  0  0  0
  190.0450  176.3360  135.2290 O   0  0  0  0  0  0  0  0  0  0  0  0
  188.2170  177.2060  139.6130 O   0  0  0  0  0  0  0  0  0  0  0  0
  188.4350  178.4560  141.6420 C   0  0  0  0  0  2  0  0  0  0  0  0
  189.1650  177.8130  140.4780 C   0  0  0  0  0  3  0  0  0  0  0  0
  189.1300  177.1230  141.8290 C   0  0  0  0  0  2  0  0  0  0  0  0
  2 10  1  0  0  0  0
  2  6  1  0  0  0  0
  3 11  2  0  0  0  0
  4 11  1  0  0  0  0
  4  1  1  0  0  0  0
  5 19  1  6  0  0  0
  5 15  1  0  0  0  0
  6  9  1  0  0  0  0
  8 14  1  0  0  0  0
  9  3  2  0  0  0  0
 10 13  1  0  0  0  0
 11  5  1  0  0  0  0
 12  1  1  0  0  0  0
 12 32  1  1  0  0  0
 12 14  1  0  0  0  0
 13  9  1  0  0  0  0
 13 17  1  1  0  0  0
 14  7  1  0  0  0  0
 15 14  1  0  0  0  0
 15 21  1  0  0  0  0
 17 18  1  0  0  0  0
 17 16  1  0  0  0  0
 18 16  1  0  0  0  0
 20 19  1  0  0  0  0
 21 22  1  0  0  0  0
 22 23  1  0  0  0  0
 23 26  1  0  0  0  0
 24 25  1  0  0  0  0
 26 24  1  0  0  0  0
 26 25  1  0  0  0  0
 27 26  1  0  0  0  0
 28 27  1  0  0  0  0
 29 28  1  0  0  0  0
 30 31  2  0  0  0  0
 31 29  1  0  0  0  0
 33 38  2  0  0  0  0
 33 36  1  0  0  0  0
 34 35  2  0  0  0  0
 35 41  1  0  0  0  0
 36 37  2  0  0  0  0
 37 35  1  0  0  0  0
 37 32  1  0  0  0  0
 38 34  1  0  0  0  0
 39 40  1  0  0  0  0
 40 38  1  0  0  0  0
 41 43  1  0  0  0  0
 42 44  1  0  0  0  0
 43 42  1  0  0  0  0
 43 44  1  0  0  0  0
M  END
>  <MODEL>
1

>  <REMARK>
 VINA RESULT:      -4.9      0.000      0.000
  Name = 
  15 active torsions:
  status: ('A' for Active; 'I' for Inactive)
    1  A    between atoms: O_5  and  C_23
    2  A    between atoms: O_5  and  C_35
    3  A    between atoms: O_7  and  C_35
    4  A    between atoms: O_7  and  C_41
    5  A    between atoms: C_11  and  C_19
    6  A    between atoms: C_11  and  N_42
    7  A    between atoms: C_12  and  C_36
    8  A    between atoms: C_14  and  C_18
    9  A    between atoms: C_16  and  C_19
   10  A    between atoms: C_16  and  C_23
   11  A    between atoms: C_21  and  C_32
   12  A    between atoms: C_21  and  C_34
   13  A    between atoms: O_25  and  C_38
   14  A    between atoms: C_29  and  O_43
   15  A    between atoms: C_33  and  O_43
                            x       y       z     vdW  Elec       q    Type
                         _______ _______ _______ _____ _____    ______ ____

>  <TORSDO>
F 15

$$$$
=
 OpenBabel11042412213D

 44 49  0  0  1  0  0  0  0  0999 V2000
  183.4940  176.6060  138.0270 O   0  0  0  0  0  0  0  0  0  0  0  0
  179.0620  178.5540  142.4770 N   0  0  0  0  0  2  0  0  0  0  0  0
  181.9940  178.1420  140.6640 C   0  0  0  0  0  0  0  0  0  0  0  0
  182.4260  177.4380  138.3810 C   0  0  0  0  0  2  0  0  0  0  0  0
  183.9870  179.0810  139.6590 C   0  0  1  0  0  3  0  0  0  0  0  0
  179.8220  177.6670  141.6050 C   0  0  0  0  0  2  0  0  0  0  0  0
  186.5320  176.6210  138.2640 C   0  0  0  0  0  1  0  0  0  0  0  0
  186.3560  178.9280  137.4000 C   0  0  0  0  0  1  0  0  0  0  0  0
  181.2390  178.0650  141.7270 C   0  0  0  0  0  0  0  0  0  0  0  0
  180.0160  179.1270  143.4250 C   0  0  0  0  0  2  0  0  0  0  0  0
  182.7630  178.2200  139.6130 C   0  0  0  0  0  0  0  0  0  0  0  0
  184.3660  177.4280  137.3000 C   0  0  1  0  0  3  0  0  0  0  0  0
  181.4060  179.0340  142.8250 C   0  0  1  0  0  3  0  0  0  0  0  0
  185.6000  177.8280  138.1470 C   0  0  0  0  0  0  0  0  0  0  0  0
  185.2070  178.2570  139.5250 N   0  0  0  0  0  0  0  0  0  0  0  0
  183.7940  178.5470  143.3000 C   0  0  0  0  0  2  0  0  0  0  0  0
  182.3850  178.5080  143.8620 C   0  0  0  0  0  3  0  0  0  0  0  0
  183.3360  179.6190  144.2680 C   0  0  0  0  0  2  0  0  0  0  0  0
  183.8960  180.2510  138.6780 C   0  0  0  0  0  2  0  0  0  0  0  0
  182.6680  180.9950  138.9050 N   0  0  0  0  0  1  0  0  0  0  0  0
  186.2930  178.9070  140.2610 C   0  0  0  0  0  2  0  0  0  0  0  0
  186.3050  178.4330  141.7030 C   0  0  0  0  0  2  0  0  0  0  0  0
  187.7230  178.1190  142.1560 C   0  0  0  0  0  2  0  0  0  0  0  0
  186.8810  177.2130  144.5120 C   0  0  0  0  0  2  0  0  0  0  0  0
  188.3180  177.6950  144.5370 C   0  0  0  0  0  2  0  0  0  0  0  0
  187.7540  177.0790  143.2730 C   0  0  0  0  0  0  0  0  0  0  0  0
  188.3830  175.8520  143.0170 O   0  0  0  0  0  0  0  0  0  0  0  0
  189.6100  176.1420  142.4040 C   0  0  0  0  0  2  0  0  0  0  0  0
  190.6510  175.4610  143.0860 O   0  0  0  0  0  0  0  0  0  0  0  0
  191.8010  177.3820  143.6700 O   0  0  0  0  0  0  0  0  0  0  0  0
  191.6270  176.1430  143.8110 C   0  0  0  0  0  3  0  0  0  0  0  0
  184.7170  176.7880  135.9560 C   0  0  0  0  0  2  0  0  0  0  0  0
  181.6720  175.0270  134.6160 C   0  0  0  0  0  3  0  0  0  0  0  0
  183.0340  173.3640  135.7110 C   0  0  0  0  0  3  0  0  0  0  0  0
  183.9970  174.3260  136.0360 C   0  0  0  0  0  0  0  0  0  0  0  0
  182.6160  176.0030  134.9350 C   0  0  0  0  0  3  0  0  0  0  0  0
  183.7750  175.6730  135.6440 C   0  0  0  0  0  0  0  0  0  0  0  0
  181.8740  173.7030  135.0020 C   0  0  0  0  0  0  0  0  0  0  0  0
  179.9190  172.3020  135.5830 C   0  0  0  0  0  1  0  0  0  0  0  0
  180.9140  172.7430  134.6660 O   0  0  0  0  0  0  0  0  0  0  0  0
  185.1350  173.8690  136.7240 O   0  0  0  0  0  0  0  0  0  0  0  0
  186.8130  172.4750  135.7400 C   0  0  0  0  0  2  0  0  0  0  0  0
  185.6420  172.5430  136.7010 C   0  0  0  0  0  3  0  0  0  0  0  0
  187.0630  172.5360  137.2330 C   0  0  0  0  0  2  0  0  0  0  0  0
  1  4  1  0  0  0  0
  2 10  1  0  0  0  0
  3  9  2  0  0  0  0
  4 11  1  0  0  0  0
  5 19  1  6  0  0  0
  6  9  1  0  0  0  0
  6  2  1  0  0  0  0
  8 14  1  0  0  0  0
  9 13  1  0  0  0  0
 11  5  1  0  0  0  0
 11  3  2  0  0  0  0
 12 32  1  6  0  0  0
 12  1  1  0  0  0  0
 12 14  1  0  0  0  0
 13 10  1  0  0  0  0
 13 17  1  1  0  0  0
 14  7  1  0  0  0  0
 14 15  1  0  0  0  0
 15  5  1  0  0  0  0
 15 21  1  0  0  0  0
 16 17  1  0  0  0  0
 16 18  1  0  0  0  0
 17 18  1  0  0  0  0
 19 20  1  0  0  0  0
 21 22  1  0  0  0  0
 22 23  1  0  0  0  0
 23 26  1  0  0  0  0
 24 25  1  0  0  0  0
 26 24  1  0  0  0  0
 26 25  1  0  0  0  0
 27 26  1  0  0  0  0
 28 27  1  0  0  0  0
 28 29  1  0  0  0  0
 29 31  1  0  0  0  0
 30 31  2  0  0  0  0
 33 36  2  0  0  0  0
 33 38  1  0  0  0  0
 34 35  1  0  0  0  0
 35 41  1  0  0  0  0
 36 37  1  0  0  0  0
 37 32  1  0  0  0  0
 37 35  2  0  0  0  0
 38 34  2  0  0  0  0
 40 38  1  0  0  0  0
 40 39  1  0  0  0  0
 42 43  1  0  0  0  0
 42 44  1  0  0  0  0
 43 41  1  0  0  0  0
 43 44  1  0  0  0  0
M  END
>  <MODEL>
2

>  <REMARK>
 VINA RESULT:      -4.8      3.202      7.398
  Name = 
  15 active torsions:
  status: ('A' for Active; 'I' for Inactive)
    1  A    between atoms: O_5  and  C_23
    2  A    between atoms: O_5  and  C_35
    3  A    between atoms: O_7  and  C_35
    4  A    between atoms: O_7  and  C_41
    5  A    between atoms: C_11  and  C_19
    6  A    between atoms: C_11  and  N_42
    7  A    between atoms: C_12  and  C_36
    8  A    between atoms: C_14  and  C_18
    9  A    between atoms: C_16  and  C_19
   10  A    between atoms: C_16  and  C_23
   11  A    between atoms: C_21  and  C_32
   12  A    between atoms: C_21  and  C_34
   13  A    between atoms: O_25  and  C_38
   14  A    between atoms: C_29  and  O_43
   15  A    between atoms: C_33  and  O_43
                            x       y       z     vdW  Elec       q    Type
                         _______ _______ _______ _____ _____    ______ ____

>  <TORSDO>
F 15

$$$$
=
 OpenBabel11042412213D

 44 49  0  0  1  0  0  0  0  0999 V2000
  184.3090  176.2580  137.8860 O   0  0  0  0  0  0  0  0  0  0  0  0
  180.3840  178.5610  142.6340 N   0  0  0  0  0  2  0  0  0  0  0  0
  183.1160  177.9640  140.5750 C   0  0  0  0  0  0  0  0  0  0  0  0
  183.3060  177.1420  138.2990 C   0  0  0  0  0  2  0  0  0  0  0  0
  185.0320  178.7860  139.3430 C   0  0  1  0  0  3  0  0  0  0  0  0
  181.0300  177.6090  141.7380 C   0  0  0  0  0  2  0  0  0  0  0  0
  187.3550  176.1780  137.8360 C   0  0  0  0  0  1  0  0  0  0  0  0
  187.1670  178.4480  136.8810 C   0  0  0  0  0  1  0  0  0  0  0  0
  182.4640  177.9620  141.7070 C   0  0  0  0  0  0  0  0  0  0  0  0
  181.4420  179.1420  143.4590 C   0  0  0  0  0  2  0  0  0  0  0  0
  183.7830  177.9680  139.4540 C   0  0  0  0  0  0  0  0  0  0  0  0
  185.1320  177.0150  137.0420 C   0  0  1  0  0  3  0  0  0  0  0  0
  182.7650  178.9740  142.7360 C   0  0  1  0  0  3  0  0  0  0  0  0
  186.4540  177.4100  137.7490 C   0  0  0  0  0  0  0  0  0  0  0  0
  186.2070  177.9150  139.1350 N   0  0  0  0  0  0  0  0  0  0  0  0
  185.2000  178.8640  143.2090 C   0  0  0  0  0  2  0  0  0  0  0  0
  183.8220  178.4610  143.7010 C   0  0  0  0  0  3  0  0  0  0  0  0
  184.5420  179.6390  144.3320 C   0  0  0  0  0  2  0  0  0  0  0  0
  184.8830  179.9130  138.3190 C   0  0  0  0  0  2  0  0  0  0  0  0
  183.8760  180.8610  138.7660 N   0  0  0  0  0  1  0  0  0  0  0  0
  187.3780  178.5590  139.7320 C   0  0  0  0  0  2  0  0  0  0  0  0
  187.6600  177.9660  141.1010 C   0  0  0  0  0  2  0  0  0  0  0  0
  188.9960  177.2390  141.1090 C   0  0  0  0  0  2  0  0  0  0  0  0
  191.1600  177.0140  142.6410 C   0  0  0  0  0  2  0  0  0  0  0  0
  190.1470  175.9110  142.8740 C   0  0  0  0  0  2  0  0  0  0  0  0
  189.6740  177.2940  142.4760 C   0  0  0  0  0  0  0  0  0  0  0  0
  188.9730  177.8840  143.5390 O   0  0  0  0  0  0  0  0  0  0  0  0
  188.3380  176.8460  144.2350 C   0  0  0  0  0  2  0  0  0  0  0  0
  188.4410  177.0810  145.6300 O   0  0  0  0  0  0  0  0  0  0  0  0
  190.6300  177.1020  146.3800 O   0  0  0  0  0  0  0  0  0  0  0  0
  189.5460  177.7170  146.1920 C   0  0  0  0  0  3  0  0  0  0  0  0
  185.3340  176.3030  135.7040 C   0  0  0  0  0  2  0  0  0  0  0  0
  182.1140  174.6790  134.6240 C   0  0  0  0  0  3  0  0  0  0  0  0
  183.4040  173.0040  135.7840 C   0  0  0  0  0  3  0  0  0  0  0  0
  184.4460  173.9120  135.9970 C   0  0  0  0  0  0  0  0  0  0  0  0
  183.1370  175.6040  134.8310 C   0  0  0  0  0  3  0  0  0  0  0  0
  184.3020  175.2410  135.5150 C   0  0  0  0  0  0  0  0  0  0  0  0
  182.2400  173.3750  135.1000 C   0  0  0  0  0  0  0  0  0  0  0  0
  181.0190  171.2990  135.6690 C   0  0  0  0  0  1  0  0  0  0  0  0
  181.2000  172.4670  134.8760 O   0  0  0  0  0  0  0  0  0  0  0  0
  185.5810  173.4240  136.6700 O   0  0  0  0  0  0  0  0  0  0  0  0
  187.4290  172.9490  135.2260 C   0  0  0  0  0  2  0  0  0  0  0  0
  186.4290  172.3810  136.2150 C   0  0  0  0  0  3  0  0  0  0  0  0
  187.8550  172.6630  136.6510 C   0  0  0  0  0  2  0  0  0  0  0  0
  1  4  1  0  0  0  0
  2 10  1  0  0  0  0
  3  9  2  0  0  0  0
  4 11  1  0  0  0  0
  5 19  1  6  0  0  0
  5 11  1  0  0  0  0
  6  2  1  0  0  0  0
  8 14  1  0  0  0  0
  9  6  1  0  0  0  0
  9 13  1  0  0  0  0
 11  3  2  0  0  0  0
 12 32  1  6  0  0  0
 12 14  1  0  0  0  0
 12  1  1  0  0  0  0
 13 10  1  0  0  0  0
 13 17  1  1  0  0  0
 14  7  1  0  0  0  0
 14 15  1  0  0  0  0
 15  5  1  0  0  0  0
 15 21  1  0  0  0  0
 16 17  1  0  0  0  0
 16 18  1  0  0  0  0
 17 18  1  0  0  0  0
 19 20  1  0  0  0  0
 21 22  1  0  0  0  0
 22 23  1  0  0  0  0
 23 26  1  0  0  0  0
 24 25  1  0  0  0  0
 26 24  1  0  0  0  0
 26 25  1  0  0  0  0
 26 27  1  0  0  0  0
 27 28  1  0  0  0  0
 28 29  1  0  0  0  0
 29 31  1  0  0  0  0
 31 30  2  0  0  0  0
 33 36  2  0  0  0  0
 33 38  1  0  0  0  0
 34 35  1  0  0  0  0
 35 41  1  0  0  0  0
 36 37  1  0  0  0  0
 37 32  1  0  0  0  0
 37 35  2  0  0  0  0
 38 34  2  0  0  0  0
 40 38  1  0  0  0  0
 40 39  1  0  0  0  0
 42 43  1  0  0  0  0
 42 44  1  0  0  0  0
 43 44  1  0  0  0  0
 43 41  1  0  0  0  0
M  END
>  <MODEL>
3

>  <REMARK>
 VINA RESULT:      -4.7      3.390      7.585
  Name = 
  15 active torsions:
  status: ('A' for Active; 'I' for Inactive)
    1  A    between atoms: O_5  and  C_23
    2  A    between atoms: O_5  and  C_35
    3  A    between atoms: O_7  and  C_35
    4  A    between atoms: O_7  and  C_41
    5  A    between atoms: C_11  and  C_19
    6  A    between atoms: C_11  and  N_42
    7  A    between atoms: C_12  and  C_36
    8  A    between atoms: C_14  and  C_18
    9  A    between atoms: C_16  and  C_19
   10  A    between atoms: C_16  and  C_23
   11  A    between atoms: C_21  and  C_32
   12  A    between atoms: C_21  and  C_34
   13  A    between atoms: O_25  and  C_38
   14  A    between atoms: C_29  and  O_43
   15  A    between atoms: C_33  and  O_43
                            x       y       z     vdW  Elec       q    Type
                         _______ _______ _______ _____ _____    ______ ____

>  <TORSDO>
F 15

$$$$
=
 OpenBabel11042412213D

 44 49  0  0  1  0  0  0  0  0999 V2000
  188.3720  176.0960  138.1900 O   0  0  0  0  0  0  0  0  0  0  0  0
  187.6760  170.2350  135.2890 N   0  0  0  0  0  2  0  0  0  0  0  0
  187.2380  173.5430  136.2510 C   0  0  0  0  0  0  0  0  0  0  0  0
  188.7520  175.1920  137.1920 C   0  0  0  0  0  2  0  0  0  0  0  0
  186.7340  175.8430  135.6830 C   0  0  1  0  0  3  0  0  0  0  0  0
  187.8930  171.2210  136.3410 C   0  0  0  0  0  2  0  0  0  0  0  0
  186.2690  178.2660  138.5780 C   0  0  0  0  0  1  0  0  0  0  0  0
  186.9920  179.0410  136.3470 C   0  0  0  0  0  1  0  0  0  0  0  0
  186.8940  172.2890  136.1360 C   0  0  0  0  0  0  0  0  0  0  0  0
  186.3240  170.4600  134.7790 C   0  0  0  0  0  2  0  0  0  0  0  0
  187.5650  174.8010  136.3660 C   0  0  0  0  0  0  0  0  0  0  0  0
  188.3640  177.3470  137.5590 C   0  0  1  0  0  3  0  0  0  0  0  0
  185.9130  171.8820  135.1130 C   0  0  1  0  0  3  0  0  0  0  0  0
  186.9180  177.8210  137.2670 C   0  0  0  0  0  0  0  0  0  0  0  0
  186.0880  176.7260  136.6760 N   0  0  0  0  0  0  0  0  0  0  0  0
  183.6290  172.8240  134.8630 C   0  0  0  0  0  2  0  0  0  0  0  0
  184.5040  171.8950  135.6840 C   0  0  0  0  0  3  0  0  0  0  0  0
  183.5400  171.3250  134.6600 C   0  0  0  0  0  2  0  0  0  0  0  0
  187.5230  176.5740  134.5960 C   0  0  0  0  0  2  0  0  0  0  0  0
  188.9050  176.1230  134.5950 N   0  0  0  0  0  1  0  0  0  0  0  0
  184.8160  177.1960  136.1260 C   0  0  0  0  0  2  0  0  0  0  0  0
  183.6590  176.4690  136.7870 C   0  0  0  0  0  2  0  0  0  0  0  0
  182.9150  177.3910  137.7400 C   0  0  0  0  0  2  0  0  0  0  0  0
  181.6040  175.3840  138.8950 C   0  0  0  0  0  2  0  0  0  0  0  0
  180.9180  176.7230  139.0700 C   0  0  0  0  0  2  0  0  0  0  0  0
  182.4290  176.6590  138.9880 C   0  0  0  0  0  0  0  0  0  0  0  0
  182.9900  177.0140  140.2240 O   0  0  0  0  0  0  0  0  0  0  0  0
  182.4540  178.2620  140.5730 C   0  0  0  0  0  2  0  0  0  0  0  0
  183.4890  179.0990  141.0630 O   0  0  0  0  0  0  0  0  0  0  0  0
  185.5340  179.1360  142.1450 O   0  0  0  0  0  0  0  0  0  0  0  0
  184.3600  178.6850  142.0690 C   0  0  0  0  0  3  0  0  0  0  0  0
  189.1990  178.3560  138.3500 C   0  0  0  0  0  2  0  0  0  0  0  0
  188.7160  177.5140  141.9870 C   0  0  0  0  0  3  0  0  0  0  0  0
  190.9310  176.7840  141.3740 C   0  0  0  0  0  3  0  0  0  0  0  0
  190.7420  177.2210  140.0580 C   0  0  0  0  0  0  0  0  0  0  0  0
  188.5080  177.9630  140.6820 C   0  0  0  0  0  3  0  0  0  0  0  0
  189.5060  177.8290  139.7120 C   0  0  0  0  0  0  0  0  0  0  0  0
  189.9270  176.9230  142.3400 C   0  0  0  0  0  0  0  0  0  0  0  0
  189.3830  177.0180  144.7520 C   0  0  0  0  0  1  0  0  0  0  0  0
  190.1090  176.4790  143.6540 O   0  0  0  0  0  0  0  0  0  0  0  0
  191.8060  177.0040  139.1640 O   0  0  0  0  0  0  0  0  0  0  0  0
  192.1050  176.2310  136.9180 C   0  0  0  0  0  2  0  0  0  0  0  0
  192.0060  175.8380  138.3800 C   0  0  0  0  0  3  0  0  0  0  0  0
  193.3610  175.9110  137.7020 C   0  0  0  0  0  2  0  0  0  0  0  0
  2  6  1  0  0  0  0
  3 11  2  0  0  0  0
  4  1  1  0  0  0  0
  5 19  1  6  0  0  0
  5 11  1  0  0  0  0
  5 15  1  0  0  0  0
  8 14  1  0  0  0  0
  9  3  2  0  0  0  0
  9  6  1  0  0  0  0
 10 13  1  0  0  0  0
 10  2  1  0  0  0  0
 11  4  1  0  0  0  0
 12  1  1  0  0  0  0
 12 32  1  1  0  0  0
 13 17  1  1  0  0  0
 13  9  1  0  0  0  0
 14 12  1  0  0  0  0
 14  7  1  0  0  0  0
 15 14  1  0  0  0  0
 16 17  1  0  0  0  0
 18 16  1  0  0  0  0
 18 17  1  0  0  0  0
 20 19  1  0  0  0  0
 21 15  1  0  0  0  0
 21 22  1  0  0  0  0
 22 23  1  0  0  0  0
 23 26  1  0  0  0  0
 24 26  1  0  0  0  0
 24 25  1  0  0  0  0
 26 25  1  0  0  0  0
 26 27  1  0  0  0  0
 27 28  1  0  0  0  0
 28 29  1  0  0  0  0
 29 31  1  0  0  0  0
 31 30  2  0  0  0  0
 32 37  1  0  0  0  0
 33 38  1  0  0  0  0
 34 38  2  0  0  0  0
 35 34  1  0  0  0  0
 36 33  2  0  0  0  0
 37 35  2  0  0  0  0
 37 36  1  0  0  0  0
 38 40  1  0  0  0  0
 40 39  1  0  0  0  0
 41 35  1  0  0  0  0
 42 44  1  0  0  0  0
 42 43  1  0  0  0  0
 43 41  1  0  0  0  0
 44 43  1  0  0  0  0
M  END
>  <MODEL>
4

>  <REMARK>
 VINA RESULT:      -4.6      3.010      5.591
  Name = 
  15 active torsions:
  status: ('A' for Active; 'I' for Inactive)
    1  A    between atoms: O_5  and  C_23
    2  A    between atoms: O_5  and  C_35
    3  A    between atoms: O_7  and  C_35
    4  A    between atoms: O_7  and  C_41
    5  A    between atoms: C_11  and  C_19
    6  A    between atoms: C_11  and  N_42
    7  A    between atoms: C_12  and  C_36
    8  A    between atoms: C_14  and  C_18
    9  A    between atoms: C_16  and  C_19
   10  A    between atoms: C_16  and  C_23
   11  A    between atoms: C_21  and  C_32
   12  A    between atoms: C_21  and  C_34
   13  A    between atoms: O_25  and  C_38
   14  A    between atoms: C_29  and  O_43
   15  A    between atoms: C_33  and  O_43
                            x       y       z     vdW  Elec       q    Type
                         _______ _______ _______ _____ _____    ______ ____

>  <TORSDO>
F 15

$$$$
=
 OpenBabel11042412213D

 44 49  0  0  1  0  0  0  0  0999 V2000
  187.1910  175.7060  137.2780 O   0  0  0  0  0  0  0  0  0  0  0  0
  188.1100  178.3810  143.2160 N   0  0  0  0  0  2  0  0  0  0  0  0
  188.6080  177.1790  139.9970 C   0  0  0  0  0  0  0  0  0  0  0  0
  187.0990  176.8130  138.1300 C   0  0  0  0  0  2  0  0  0  0  0  0
  189.6110  177.4090  137.8040 C   0  0  1  0  0  3  0  0  0  0  0  0
  187.6470  177.4480  142.1950 C   0  0  0  0  0  2  0  0  0  0  0  0
  189.2690  174.4510  135.4380 C   0  0  0  0  0  1  0  0  0  0  0  0
  189.5730  176.7520  134.5950 C   0  0  0  0  0  1  0  0  0  0  0  0
  188.7890  177.2100  141.2900 C   0  0  0  0  0  0  0  0  0  0  0  0
  189.5700  178.3270  143.2000 C   0  0  0  0  0  2  0  0  0  0  0  0
  188.4430  177.1410  138.7030 C   0  0  0  0  0  0  0  0  0  0  0  0
  187.6170  176.2300  136.0510 C   0  0  1  0  0  3  0  0  0  0  0  0
  190.0190  177.7990  141.8510 C   0  0  1  0  0  3  0  0  0  0  0  0
  189.1160  175.9280  135.8000 C   0  0  0  0  0  0  0  0  0  0  0  0
  189.9450  176.2070  137.0130 N   0  0  0  0  0  0  0  0  0  0  0  0
  191.6370  176.8050  143.4510 C   0  0  0  0  0  2  0  0  0  0  0  0
  191.0870  176.7350  142.0380 C   0  0  0  0  0  3  0  0  0  0  0  0
  190.6270  175.7370  143.0850 C   0  0  0  0  0  2  0  0  0  0  0  0
  189.4110  178.6820  136.9790 C   0  0  0  0  0  2  0  0  0  0  0  0
  189.0430  179.7860  137.8490 N   0  0  0  0  0  1  0  0  0  0  0  0
  191.3830  176.2090  136.7430 C   0  0  0  0  0  2  0  0  0  0  0  0
  192.1070  175.3390  137.7540 C   0  0  0  0  0  2  0  0  0  0  0  0
  192.9690  174.3000  137.0530 C   0  0  0  0  0  2  0  0  0  0  0  0
  194.7850  175.3810  135.4380 C   0  0  0  0  0  2  0  0  0  0  0  0
  195.0650  173.9270  135.7610 C   0  0  0  0  0  2  0  0  0  0  0  0
  194.3840  174.8070  136.7890 C   0  0  0  0  0  0  0  0  0  0  0  0
  195.2330  175.0040  137.8880 O   0  0  0  0  0  0  0  0  0  0  0  0
  195.2880  173.7880  138.5840 C   0  0  0  0  0  2  0  0  0  0  0  0
  196.2990  173.8580  139.5770 O   0  0  0  0  0  0  0  0  0  0  0  0
  196.9640  175.8010  140.6430 O   0  0  0  0  0  0  0  0  0  0  0  0
  197.1270  174.9710  139.7100 C   0  0  0  0  0  3  0  0  0  0  0  0
  186.6950  175.7740  134.9190 C   0  0  0  0  0  2  0  0  0  0  0  0
  183.4080  177.2060  136.0680 C   0  0  0  0  0  3  0  0  0  0  0  0
  183.1400  174.8120  135.9460 C   0  0  0  0  0  3  0  0  0  0  0  0
  184.4590  174.6580  135.5060 C   0  0  0  0  0  0  0  0  0  0  0  0
  184.7280  177.0750  135.6370 C   0  0  0  0  0  3  0  0  0  0  0  0
  185.2680  175.8160  135.3570 C   0  0  0  0  0  0  0  0  0  0  0  0
  182.6070  176.0770  136.2260 C   0  0  0  0  0  0  0  0  0  0  0  0
  180.2070  176.4550  135.7560 C   0  0  0  0  0  1  0  0  0  0  0  0
  181.2860  176.2360  136.6570 O   0  0  0  0  0  0  0  0  0  0  0  0
  184.8810  173.3460  135.2270 O   0  0  0  0  0  0  0  0  0  0  0  0
  184.6450  170.9980  135.6280 C   0  0  0  0  0  2  0  0  0  0  0  0
  185.1150  172.3270  136.1880 C   0  0  0  0  0  3  0  0  0  0  0  0
  186.1220  171.3350  135.6380 C   0  0  0  0  0  2  0  0  0  0  0  0
  1  4  1  0  0  0  0
  3  9  2  0  0  0  0
  4 11  1  0  0  0  0
  5 19  1  6  0  0  0
  5 11  1  0  0  0  0
  6  2  1  0  0  0  0
  7 14  1  0  0  0  0
  8 14  1  0  0  0  0
  9 13  1  0  0  0  0
  9  6  1  0  0  0  0
 10  2  1  0  0  0  0
 11  3  2  0  0  0  0
 12 32  1  6  0  0  0
 12  1  1  0  0  0  0
 13 17  1  1  0  0  0
 13 10  1  0  0  0  0
 14 12  1  0  0  0  0
 14 15  1  0  0  0  0
 15  5  1  0  0  0  0
 17 18  1  0  0  0  0
 17 16  1  0  0  0  0
 18 16  1  0  0  0  0
 19 20  1  0  0  0  0
 21 15  1  0  0  0  0
 21 22  1  0  0  0  0
 23 22  1  0  0  0  0
 24 25  1  0  0  0  0
 24 26  1  0  0  0  0
 25 26  1  0  0  0  0
 26 23  1  0  0  0  0
 26 27  1  0  0  0  0
 27 28  1  0  0  0  0
 28 29  1  0  0  0  0
 29 31  1  0  0  0  0
 31 30  2  0  0  0  0
 32 37  1  0  0  0  0
 33 38  1  0  0  0  0
 34 38  2  0  0  0  0
 35 34  1  0  0  0  0
 36 33  2  0  0  0  0
 37 35  2  0  0  0  0
 37 36  1  0  0  0  0
 38 40  1  0  0  0  0
 39 40  1  0  0  0  0
 41 35  1  0  0  0  0
 41 43  1  0  0  0  0
 42 44  1  0  0  0  0
 42 43  1  0  0  0  0
 44 43  1  0  0  0  0
M  END
>  <MODEL>
5

>  <REMARK>
 VINA RESULT:      -4.6      4.532     10.934
  Name = 
  15 active torsions:
  status: ('A' for Active; 'I' for Inactive)
    1  A    between atoms: O_5  and  C_23
    2  A    between atoms: O_5  and  C_35
    3  A    between atoms: O_7  and  C_35
    4  A    between atoms: O_7  and  C_41
    5  A    between atoms: C_11  and  C_19
    6  A    between atoms: C_11  and  N_42
    7  A    between atoms: C_12  and  C_36
    8  A    between atoms: C_14  and  C_18
    9  A    between atoms: C_16  and  C_19
   10  A    between atoms: C_16  and  C_23
   11  A    between atoms: C_21  and  C_32
   12  A    between atoms: C_21  and  C_34
   13  A    between atoms: O_25  and  C_38
   14  A    between atoms: C_29  and  O_43
   15  A    between atoms: C_33  and  O_43
                            x       y       z     vdW  Elec       q    Type
                         _______ _______ _______ _____ _____    ______ ____

>  <TORSDO>
F 15

$$$$
=
 OpenBabel11042412213D

 44 49  0  0  1  0  0  0  0  0999 V2000
  188.3640  175.6930  137.5620 O   0  0  0  0  0  0  0  0  0  0  0  0
  185.3680  170.4500  134.9580 N   0  0  0  0  0  2  0  0  0  0  0  0
  186.0100  173.5840  136.3080 C   0  0  0  0  0  0  0  0  0  0  0  0
  188.0230  174.9340  136.4370 C   0  0  0  0  0  2  0  0  0  0  0  0
  185.6430  175.9780  136.3180 C   0  0  1  0  0  3  0  0  0  0  0  0
  186.2510  171.2330  135.8140 C   0  0  0  0  0  2  0  0  0  0  0  0
  187.1330  177.9330  139.2210 C   0  0  0  0  0  1  0  0  0  0  0  0
  186.6960  178.9970  137.0360 C   0  0  0  0  0  1  0  0  0  0  0  0
  185.4680  172.3960  136.2790 C   0  0  0  0  0  0  0  0  0  0  0  0
  184.0020  170.8610  135.2780 C   0  0  0  0  0  2  0  0  0  0  0  0
  186.5370  174.7770  136.3470 C   0  0  0  0  0  0  0  0  0  0  0  0
  188.2200  177.0260  137.1550 C   0  0  1  0  0  3  0  0  0  0  0  0
  184.0490  172.2390  135.9110 C   0  0  1  0  0  3  0  0  0  0  0  0
  186.9260  177.6550  137.7320 C   0  0  0  0  0  0  0  0  0  0  0  0
  185.7540  176.7380  137.5810 N   0  0  0  0  0  0  0  0  0  0  0  0
  182.0630  173.2970  136.9620 C   0  0  0  0  0  2  0  0  0  0  0  0
  183.1660  172.2720  137.1480 C   0  0  0  0  0  3  0  0  0  0  0  0
  181.7640  171.8230  136.7800 C   0  0  0  0  0  2  0  0  0  0  0  0
  185.8500  176.8100  135.0520 C   0  0  0  0  0  2  0  0  0  0  0  0
  184.5820  177.3660  134.6090 N   0  0  0  0  0  1  0  0  0  0  0  0
  184.4710  177.3910  137.8480 C   0  0  0  0  0  2  0  0  0  0  0  0
  183.3820  176.3500  138.0290 C   0  0  0  0  0  2  0  0  0  0  0  0
  182.9370  176.2800  139.4810 C   0  0  0  0  0  2  0  0  0  0  0  0
  180.3450  175.7470  139.2060 C   0  0  0  0  0  2  0  0  0  0  0  0
  180.8240  176.8630  138.2990 C   0  0  0  0  0  2  0  0  0  0  0  0
  181.4710  176.6670  139.6550 C   0  0  0  0  0  0  0  0  0  0  0  0
  181.1670  177.7510  140.4910 O   0  0  0  0  0  0  0  0  0  0  0  0
  182.3750  178.4090  140.7610 C   0  0  0  0  0  2  0  0  0  0  0  0
  182.5000  178.6110  142.1600 O   0  0  0  0  0  0  0  0  0  0  0  0
  183.8400  178.6310  144.0470 O   0  0  0  0  0  0  0  0  0  0  0  0
  183.7420  178.6590  142.7910 C   0  0  0  0  0  3  0  0  0  0  0  0
  189.4880  177.8250  137.4620 C   0  0  0  0  0  2  0  0  0  0  0  0
  192.1280  175.5110  136.1050 C   0  0  0  0  0  3  0  0  0  0  0  0
  192.5520  175.7710  138.4650 C   0  0  0  0  0  3  0  0  0  0  0  0
  191.4620  176.6380  138.5940 C   0  0  0  0  0  0  0  0  0  0  0  0
  191.0340  176.3690  136.2120 C   0  0  0  0  0  3  0  0  0  0  0  0
  190.6860  176.9340  137.4420 C   0  0  0  0  0  0  0  0  0  0  0  0
  192.8930  175.2060  137.2290 C   0  0  0  0  0  0  0  0  0  0  0  0
  195.2290  174.7680  136.5420 C   0  0  0  0  0  1  0  0  0  0  0  0
  193.9880  174.3460  137.0930 O   0  0  0  0  0  0  0  0  0  0  0  0
  191.2290  177.1700  139.8750 O   0  0  0  0  0  0  0  0  0  0  0  0
  190.9160  176.8580  142.2270 C   0  0  0  0  0  2  0  0  0  0  0  0
  190.3360  176.6390  140.8430 C   0  0  0  0  0  3  0  0  0  0  0  0
  189.8140  177.7630  141.7180 C   0  0  0  0  0  2  0  0  0  0  0  0
  2 10  1  0  0  0  0
  2  6  1  0  0  0  0
  3 11  2  0  0  0  0
  4  1  1  0  0  0  0
  5 19  1  6  0  0  0
  5 11  1  0  0  0  0
  5 15  1  0  0  0  0
  6  9  1  0  0  0  0
  8 14  1  0  0  0  0
  9  3  2  0  0  0  0
 10 13  1  0  0  0  0
 11  4  1  0  0  0  0
 12 32  1  1  0  0  0
 12  1  1  0  0  0  0
 12 14  1  0  0  0  0
 13  9  1  0  0  0  0
 13 17  1  1  0  0  0
 14  7  1  0  0  0  0
 15 14  1  0  0  0  0
 15 21  1  0  0  0  0
 16 17  1  0  0  0  0
 18 16  1  0  0  0  0
 18 17  1  0  0  0  0
 20 19  1  0  0  0  0
 21 22  1  0  0  0  0
 22 23  1  0  0  0  0
 23 26  1  0  0  0  0
 24 26  1  0  0  0  0
 25 24  1  0  0  0  0
 25 26  1  0  0  0  0
 26 27  1  0  0  0  0
 27 28  1  0  0  0  0
 28 29  1  0  0  0  0
 29 31  1  0  0  0  0
 31 30  2  0  0  0  0
 33 36  2  0  0  0  0
 33 38  1  0  0  0  0
 34 35  1  0  0  0  0
 35 41  1  0  0  0  0
 36 37  1  0  0  0  0
 37 32  1  0  0  0  0
 37 35  2  0  0  0  0
 38 34  2  0  0  0  0
 39 40  1  0  0  0  0
 40 38  1  0  0  0  0
 41 43  1  0  0  0  0
 43 44  1  0  0  0  0
 43 42  1  0  0  0  0
 44 42  1  0  0  0  0
M  END
>  <MODEL>
6

>  <REMARK>
 VINA RESULT:      -4.6      2.648      4.241
  Name = 
  15 active torsions:
  status: ('A' for Active; 'I' for Inactive)
    1  A    between atoms: O_5  and  C_23
    2  A    between atoms: O_5  and  C_35
    3  A    between atoms: O_7  and  C_35
    4  A    between atoms: O_7  and  C_41
    5  A    between atoms: C_11  and  C_19
    6  A    between atoms: C_11  and  N_42
    7  A    between atoms: C_12  and  C_36
    8  A    between atoms: C_14  and  C_18
    9  A    between atoms: C_16  and  C_19
   10  A    between atoms: C_16  and  C_23
   11  A    between atoms: C_21  and  C_32
   12  A    between atoms: C_21  and  C_34
   13  A    between atoms: O_25  and  C_38
   14  A    between atoms: C_29  and  O_43
   15  A    between atoms: C_33  and  O_43
                            x       y       z     vdW  Elec       q    Type
                         _______ _______ _______ _____ _____    ______ ____

>  <TORSDO>
F 15

$$$$
=
 OpenBabel11042412213D

 44 49  0  0  1  0  0  0  0  0999 V2000
  187.5320  175.6760  136.1770 O   0  0  0  0  0  0  0  0  0  0  0  0
  182.6630  179.3090  138.6950 N   0  0  0  0  0  2  0  0  0  0  0  0
  185.7370  177.7910  138.1430 C   0  0  0  0  0  0  0  0  0  0  0  0
  186.7680  176.8480  136.1580 C   0  0  0  0  0  2  0  0  0  0  0  0
  188.1550  177.9120  138.0860 C   0  0  1  0  0  3  0  0  0  0  0  0
  183.3520  178.1630  138.1130 C   0  0  0  0  0  2  0  0  0  0  0  0
  190.0290  174.6390  137.5830 C   0  0  0  0  0  1  0  0  0  0  0  0
  191.0150  176.8070  136.9290 C   0  0  0  0  0  1  0  0  0  0  0  0
  184.6460  178.0450  138.8150 C   0  0  0  0  0  0  0  0  0  0  0  0
  183.2960  179.5650  139.9880 C   0  0  0  0  0  2  0  0  0  0  0  0
  186.8360  177.5330  137.4880 C   0  0  0  0  0  0  0  0  0  0  0  0
  188.8450  176.0960  135.9250 C   0  0  1  0  0  3  0  0  0  0  0  0
  184.6860  178.9570  139.9730 C   0  0  1  0  0  3  0  0  0  0  0  0
  189.6970  176.0870  137.2200 C   0  0  0  0  0  0  0  0  0  0  0  0
  188.9630  176.7060  138.3660 N   0  0  0  0  0  0  0  0  0  0  0  0
  186.0960  178.7900  142.0100 C   0  0  0  0  0  2  0  0  0  0  0  0
  184.9270  178.1820  141.2590 C   0  0  0  0  0  3  0  0  0  0  0  0
  184.6770  179.0900  142.4490 C   0  0  0  0  0  2  0  0  0  0  0  0
  188.8690  178.9800  137.2570 C   0  0  0  0  0  2  0  0  0  0  0  0
  187.9200  179.9960  136.8320 N   0  0  0  0  0  1  0  0  0  0  0  0
  189.8190  176.9760  139.5230 C   0  0  0  0  0  2  0  0  0  0  0  0
  188.9760  177.4090  140.7080 C   0  0  0  0  0  2  0  0  0  0  0  0
  189.2920  176.5650  141.9330 C   0  0  0  0  0  2  0  0  0  0  0  0
  191.5180  177.6500  142.9050 C   0  0  0  0  0  2  0  0  0  0  0  0
  191.0260  176.4700  143.7180 C   0  0  0  0  0  2  0  0  0  0  0  0
  190.0280  177.3610  143.0080 C   0  0  0  0  0  0  0  0  0  0  0  0
  189.2640  178.0670  143.9490 O   0  0  0  0  0  0  0  0  0  0  0  0
  188.9340  177.1630  144.9680 C   0  0  0  0  0  2  0  0  0  0  0  0
  188.2440  177.8480  146.0010 O   0  0  0  0  0  0  0  0  0  0  0  0
  186.0460  177.4740  145.3820 O   0  0  0  0  0  0  0  0  0  0  0  0
  186.9150  178.2480  145.8620 C   0  0  0  0  0  3  0  0  0  0  0  0
  189.4570  175.2970  134.7740 C   0  0  0  0  0  2  0  0  0  0  0  0
  187.1490  172.3290  134.9610 C   0  0  0  0  0  3  0  0  0  0  0  0
  189.4050  171.4780  134.9410 C   0  0  0  0  0  3  0  0  0  0  0  0
  189.9240  172.7740  134.8570 C   0  0  0  0  0  0  0  0  0  0  0  0
  187.6440  173.6310  134.8840 C   0  0  0  0  0  3  0  0  0  0  0  0
  189.0210  173.8710  134.8360 C   0  0  0  0  0  0  0  0  0  0  0  0
  188.0240  171.2460  134.9900 C   0  0  0  0  0  0  0  0  0  0  0  0
  186.1070  169.6830  134.9850 C   0  0  0  0  0  1  0  0  0  0  0  0
  187.5010  169.9510  135.0640 O   0  0  0  0  0  0  0  0  0  0  0  0
  191.3240  172.8890  134.7830 O   0  0  0  0  0  0  0  0  0  0  0  0
  193.2070  171.4180  134.9190 C   0  0  0  0  0  2  0  0  0  0  0  0
  192.2520  172.3100  135.6890 C   0  0  0  0  0  3  0  0  0  0  0  0
  193.6500  172.7980  135.3590 C   0  0  0  0  0  2  0  0  0  0  0  0
  2 10  1  0  0  0  0
  3  9  2  0  0  0  0
  4  1  1  0  0  0  0
  4 11  1  0  0  0  0
  5 19  1  6  0  0  0
  5 15  1  0  0  0  0
  6  2  1  0  0  0  0
  6  9  1  0  0  0  0
  8 14  1  0  0  0  0
  9 13  1  0  0  0  0
 11  5  1  0  0  0  0
 11  3  2  0  0  0  0
 12 32  1  6  0  0  0
 12  1  1  0  0  0  0
 12 14  1  0  0  0  0
 13 10  1  0  0  0  0
 13 17  1  1  0  0  0
 14  7  1  0  0  0  0
 14 15  1  0  0  0  0
 15 21  1  0  0  0  0
 16 18  1  0  0  0  0
 17 16  1  0  0  0  0
 17 18  1  0  0  0  0
 20 19  1  0  0  0  0
 21 22  1  0  0  0  0
 22 23  1  0  0  0  0
 23 26  1  0  0  0  0
 24 26  1  0  0  0  0
 24 25  1  0  0  0  0
 26 25  1  0  0  0  0
 26 27  1  0  0  0  0
 27 28  1  0  0  0  0
 28 29  1  0  0  0  0
 30 31  2  0  0  0  0
 31 29  1  0  0  0  0
 32 37  1  0  0  0  0
 33 38  1  0  0  0  0
 34 38  2  0  0  0  0
 35 34  1  0  0  0  0
 36 33  2  0  0  0  0
 37 35  2  0  0  0  0
 37 36  1  0  0  0  0
 38 40  1  0  0  0  0
 39 40  1  0  0  0  0
 41 35  1  0  0  0  0
 41 43  1  0  0  0  0
 42 44  1  0  0  0  0
 42 43  1  0  0  0  0
 44 43  1  0  0  0  0
M  END
>  <MODEL>
7

>  <REMARK>
 VINA RESULT:      -4.5      4.137      7.731
  Name = 
  15 active torsions:
  status: ('A' for Active; 'I' for Inactive)
    1  A    between atoms: O_5  and  C_23
    2  A    between atoms: O_5  and  C_35
    3  A    between atoms: O_7  and  C_35
    4  A    between atoms: O_7  and  C_41
    5  A    between atoms: C_11  and  C_19
    6  A    between atoms: C_11  and  N_42
    7  A    between atoms: C_12  and  C_36
    8  A    between atoms: C_14  and  C_18
    9  A    between atoms: C_16  and  C_19
   10  A    between atoms: C_16  and  C_23
   11  A    between atoms: C_21  and  C_32
   12  A    between atoms: C_21  and  C_34
   13  A    between atoms: O_25  and  C_38
   14  A    between atoms: C_29  and  O_43
   15  A    between atoms: C_33  and  O_43
                            x       y       z     vdW  Elec       q    Type
                         _______ _______ _______ _____ _____    ______ ____

>  <TORSDO>
F 15

$$$$
=
 OpenBabel11042412213D

 44 49  0  0  1  0  0  0  0  0999 V2000
  188.1760  176.1720  138.3640 O   0  0  0  0  0  0  0  0  0  0  0  0
  187.7370  170.2940  135.4470 N   0  0  0  0  0  2  0  0  0  0  0  0
  187.1780  173.5880  136.3910 C   0  0  0  0  0  0  0  0  0  0  0  0
  188.6130  175.2780  137.3800 C   0  0  0  0  0  2  0  0  0  0  0  0
  186.6300  175.8740  135.8040 C   0  0  1  0  0  3  0  0  0  0  0  0
  187.8930  171.2860  136.5050 C   0  0  0  0  0  2  0  0  0  0  0  0
  186.0030  178.2840  138.6790 C   0  0  0  0  0  1  0  0  0  0  0  0
  186.7780  179.0780  136.4730 C   0  0  0  0  0  1  0  0  0  0  0  0
  186.8720  172.3250  136.2650 C   0  0  0  0  0  0  0  0  0  0  0  0
  186.3980  170.4810  134.8930 C   0  0  0  0  0  2  0  0  0  0  0  0
  187.4660  174.8550  136.5150 C   0  0  0  0  0  0  0  0  0  0  0  0
  188.1550  177.4220  137.7320 C   0  0  1  0  0  3  0  0  0  0  0  0
  185.9370  171.8910  135.2100 C   0  0  1  0  0  3  0  0  0  0  0  0
  186.7070  177.8560  137.3910 C   0  0  0  0  0  0  0  0  0  0  0  0
  185.9270  176.7390  136.7740 N   0  0  0  0  0  0  0  0  0  0  0  0
  184.2340  173.1320  136.5240 C   0  0  0  0  0  2  0  0  0  0  0  0
  184.5100  171.8660  135.7340 C   0  0  0  0  0  3  0  0  0  0  0  0
  183.7220  172.9990  135.1040 C   0  0  0  0  0  2  0  0  0  0  0  0
  187.4340  176.6260  134.7430 C   0  0  0  0  0  2  0  0  0  0  0  0
  188.7500  176.0250  134.5970 N   0  0  0  0  0  1  0  0  0  0  0  0
  184.6620  177.1740  136.1810 C   0  0  0  0  0  2  0  0  0  0  0  0
  183.5100  176.8600  137.1180 C   0  0  0  0  0  2  0  0  0  0  0  0
  182.2440  176.5540  136.3330 C   0  0  0  0  0  2  0  0  0  0  0  0
  180.6670  174.4490  136.7400 C   0  0  0  0  0  2  0  0  0  0  0  0
  179.9000  175.7160  136.4210 C   0  0  0  0  0  2  0  0  0  0  0  0
  181.2130  175.8030  137.1710 C   0  0  0  0  0  0  0  0  0  0  0  0
  180.9840  176.2380  138.4850 O   0  0  0  0  0  0  0  0  0  0  0  0
  180.2260  177.4130  138.4000 C   0  0  0  0  0  2  0  0  0  0  0  0
  180.8000  178.4070  139.2350 O   0  0  0  0  0  0  0  0  0  0  0  0
  181.4780  179.7440  137.4720 O   0  0  0  0  0  0  0  0  0  0  0  0
  181.4410  179.5290  138.7120 C   0  0  0  0  0  3  0  0  0  0  0  0
  188.9350  178.4540  138.5480 C   0  0  0  0  0  2  0  0  0  0  0  0
  188.7950  177.3960  142.1580 C   0  0  0  0  0  3  0  0  0  0  0  0
  190.9760  176.7960  141.3240 C   0  0  0  0  0  3  0  0  0  0  0  0
  190.6600  177.2960  140.0560 C   0  0  0  0  0  0  0  0  0  0  0  0
  188.4600  177.9050  140.9040 C   0  0  0  0  0  3  0  0  0  0  0  0
  189.3760  177.8680  139.8480 C   0  0  0  0  0  0  0  0  0  0  0  0
  190.0530  176.8400  142.3760 C   0  0  0  0  0  0  0  0  0  0  0  0
  191.6800  175.9460  144.0120 C   0  0  0  0  0  1  0  0  0  0  0  0
  190.3620  176.3330  143.6430 O   0  0  0  0  0  0  0  0  0  0  0  0
  191.6520  177.1740  139.0660 O   0  0  0  0  0  0  0  0  0  0  0  0
  192.0310  176.3250  136.8600 C   0  0  0  0  0  2  0  0  0  0  0  0
  191.9570  175.9940  138.3390 C   0  0  0  0  0  3  0  0  0  0  0  0
  193.3050  176.1530  137.6610 C   0  0  0  0  0  2  0  0  0  0  0  0
  2  6  1  0  0  0  0
  3 11  2  0  0  0  0
  4  1  1  0  0  0  0
  5 19  1  6  0  0  0
  5 11  1  0  0  0  0
  5 15  1  0  0  0  0
  8 14  1  0  0  0  0
  9  3  2  0  0  0  0
  9  6  1  0  0  0  0
 10 13  1  0  0  0  0
 10  2  1  0  0  0  0
 11  4  1  0  0  0  0
 12  1  1  0  0  0  0
 12 32  1  1  0  0  0
 13 17  1  1  0  0  0
 13  9  1  0  0  0  0
 14 12  1  0  0  0  0
 14  7  1  0  0  0  0
 15 14  1  0  0  0  0
 17 16  1  0  0  0  0
 18 17  1  0  0  0  0
 18 16  1  0  0  0  0
 20 19  1  0  0  0  0
 21 15  1  0  0  0  0
 21 22  1  0  0  0  0
 23 22  1  0  0  0  0
 23 26  1  0  0  0  0
 24 26  1  0  0  0  0
 25 24  1  0  0  0  0
 25 26  1  0  0  0  0
 26 27  1  0  0  0  0
 28 27  1  0  0  0  0
 28 29  1  0  0  0  0
 30 31  2  0  0  0  0
 31 29  1  0  0  0  0
 32 37  1  0  0  0  0
 33 38  1  0  0  0  0
 34 38  2  0  0  0  0
 35 34  1  0  0  0  0
 36 33  2  0  0  0  0
 37 35  2  0  0  0  0
 37 36  1  0  0  0  0
 38 40  1  0  0  0  0
 40 39  1  0  0  0  0
 41 35  1  0  0  0  0
 42 44  1  0  0  0  0
 42 43  1  0  0  0  0
 43 41  1  0  0  0  0
 44 43  1  0  0  0  0
M  END
>  <MODEL>
8

>  <REMARK>
 VINA RESULT:      -4.4      2.988      5.533
  Name = 
  15 active torsions:
  status: ('A' for Active; 'I' for Inactive)
    1  A    between atoms: O_5  and  C_23
    2  A    between atoms: O_5  and  C_35
    3  A    between atoms: O_7  and  C_35
    4  A    between atoms: O_7  and  C_41
    5  A    between atoms: C_11  and  C_19
    6  A    between atoms: C_11  and  N_42
    7  A    between atoms: C_12  and  C_36
    8  A    between atoms: C_14  and  C_18
    9  A    between atoms: C_16  and  C_19
   10  A    between atoms: C_16  and  C_23
   11  A    between atoms: C_21  and  C_32
   12  A    between atoms: C_21  and  C_34
   13  A    between atoms: O_25  and  C_38
   14  A    between atoms: C_29  and  O_43
   15  A    between atoms: C_33  and  O_43
                            x       y       z     vdW  Elec       q    Type
                         _______ _______ _______ _____ _____    ______ ____

>  <TORSDO>
F 15

$$$$
=
 OpenBabel11042412213D

 44 49  0  0  1  0  0  0  0  0999 V2000
  188.3740  176.2960  138.2920 O   0  0  0  0  0  0  0  0  0  0  0  0
  187.6650  170.3720  135.5250 N   0  0  0  0  0  2  0  0  0  0  0  0
  187.1410  173.6480  136.5510 C   0  0  0  0  0  0  0  0  0  0  0  0
  188.6570  175.4130  137.2440 C   0  0  0  0  0  2  0  0  0  0  0  0
  186.3840  175.8990  136.0740 C   0  0  1  0  0  3  0  0  0  0  0  0
  187.9730  171.3820  136.5320 C   0  0  0  0  0  2  0  0  0  0  0  0
  186.2030  178.3100  139.0110 C   0  0  0  0  0  1  0  0  0  0  0  0
  186.5060  179.1140  136.6960 C   0  0  0  0  0  1  0  0  0  0  0  0
  186.8770  172.3710  136.4890 C   0  0  0  0  0  0  0  0  0  0  0  0
  186.2370  170.4920  135.2360 C   0  0  0  0  0  2  0  0  0  0  0  0
  187.3880  174.9280  136.6150 C   0  0  0  0  0  0  0  0  0  0  0  0
  188.1730  177.5370  137.6720 C   0  0  1  0  0  3  0  0  0  0  0  0
  185.7790  171.8820  135.6330 C   0  0  1  0  0  3  0  0  0  0  0  0
  186.6680  177.9010  137.6140 C   0  0  0  0  0  0  0  0  0  0  0  0
  185.8390  176.7410  137.1590 N   0  0  0  0  0  0  0  0  0  0  0  0
  184.2810  173.0740  137.2140 C   0  0  0  0  0  2  0  0  0  0  0  0
  184.4820  171.7970  136.4190 C   0  0  0  0  0  3  0  0  0  0  0  0
  183.5200  172.8600  135.9220 C   0  0  0  0  0  2  0  0  0  0  0  0
  186.9350  176.6760  134.8770 C   0  0  0  0  0  2  0  0  0  0  0  0
  188.2960  176.2530  134.5940 N   0  0  0  0  0  1  0  0  0  0  0  0
  184.4650  177.1110  136.8180 C   0  0  0  0  0  2  0  0  0  0  0  0
  183.5030  176.5690  137.8590 C   0  0  0  0  0  2  0  0  0  0  0  0
  182.4260  177.5920  138.1850 C   0  0  0  0  0  2  0  0  0  0  0  0
  182.1760  178.6630  140.6080 C   0  0  0  0  0  2  0  0  0  0  0  0
  183.1760  177.5260  140.5590 C   0  0  0  0  0  2  0  0  0  0  0  0
  181.9720  177.5070  139.6400 C   0  0  0  0  0  0  0  0  0  0  0  0
  181.1080  176.4630  140.0040 O   0  0  0  0  0  0  0  0  0  0  0  0
  180.0040  176.5290  139.1440 C   0  0  0  0  0  2  0  0  0  0  0  0
  179.3800  175.2560  139.0780 O   0  0  0  0  0  0  0  0  0  0  0  0
  180.7810  174.1340  137.6170 O   0  0  0  0  0  0  0  0  0  0  0  0
  179.6140  174.3730  138.0250 C   0  0  0  0  0  3  0  0  0  0  0  0
  189.0460  178.6120  138.3220 C   0  0  0  0  0  2  0  0  0  0  0  0
  189.3600  177.8530  141.9960 C   0  0  0  0  0  3  0  0  0  0  0  0
  191.3770  177.0710  140.9300 C   0  0  0  0  0  3  0  0  0  0  0  0
  190.9110  177.4850  139.6780 C   0  0  0  0  0  0  0  0  0  0  0  0
  188.8770  178.2790  140.7590 C   0  0  0  0  0  3  0  0  0  0  0  0
  189.6360  178.1080  139.5970 C   0  0  0  0  0  0  0  0  0  0  0  0
  190.6110  177.2480  142.0900 C   0  0  0  0  0  0  0  0  0  0  0  0
  191.3070  175.4580  143.6500 C   0  0  0  0  0  1  0  0  0  0  0  0
  191.0700  176.8260  143.3420 O   0  0  0  0  0  0  0  0  0  0  0  0
  191.7490  177.2310  138.5780 O   0  0  0  0  0  0  0  0  0  0  0  0
  192.2150  175.9150  136.6350 C   0  0  0  0  0  2  0  0  0  0  0  0
  192.1930  175.9520  138.1510 C   0  0  0  0  0  3  0  0  0  0  0  0
  193.5060  176.0960  137.4050 C   0  0  0  0  0  2  0  0  0  0  0  0
  2  6  1  0  0  0  0
  3 11  2  0  0  0  0
  4  1  1  0  0  0  0
  5 19  1  6  0  0  0
  5 11  1  0  0  0  0
  5 15  1  0  0  0  0
  8 14  1  0  0  0  0
  9  6  1  0  0  0  0
  9  3  2  0  0  0  0
 10  2  1  0  0  0  0
 10 13  1  0  0  0  0
 11  4  1  0  0  0  0
 12  1  1  0  0  0  0
 12 32  1  1  0  0  0
 13 17  1  1  0  0  0
 13  9  1  0  0  0  0
 14 12  1  0  0  0  0
 14  7  1  0  0  0  0
 15 14  1  0  0  0  0
 17 16  1  0  0  0  0
 18 17  1  0  0  0  0
 18 16  1  0  0  0  0
 20 19  1  0  0  0  0
 21 15  1  0  0  0  0
 21 22  1  0  0  0  0
 22 23  1  0  0  0  0
 23 26  1  0  0  0  0
 25 24  1  0  0  0  0
 26 27  1  0  0  0  0
 26 25  1  0  0  0  0
 26 24  1  0  0  0  0
 28 27  1  0  0  0  0
 29 28  1  0  0  0  0
 30 31  2  0  0  0  0
 31 29  1  0  0  0  0
 32 37  1  0  0  0  0
 33 38  1  0  0  0  0
 34 38  2  0  0  0  0
 35 34  1  0  0  0  0
 36 33  2  0  0  0  0
 37 35  2  0  0  0  0
 37 36  1  0  0  0  0
 38 40  1  0  0  0  0
 40 39  1  0  0  0  0
 41 35  1  0  0  0  0
 42 44  1  0  0  0  0
 42 43  1  0  0  0  0
 43 41  1  0  0  0  0
 44 43  1  0  0  0  0
M  END
>  <MODEL>
9

>  <REMARK>
 VINA RESULT:      -4.4      3.079      5.326
  Name = 
  15 active torsions:
  status: ('A' for Active; 'I' for Inactive)
    1  A    between atoms: O_5  and  C_23
    2  A    between atoms: O_5  and  C_35
    3  A    between atoms: O_7  and  C_35
    4  A    between atoms: O_7  and  C_41
    5  A    between atoms: C_11  and  C_19
    6  A    between atoms: C_11  and  N_42
    7  A    between atoms: C_12  and  C_36
    8  A    between atoms: C_14  and  C_18
    9  A    between atoms: C_16  and  C_19
   10  A    between atoms: C_16  and  C_23
   11  A    between atoms: C_21  and  C_32
   12  A    between atoms: C_21  and  C_34
   13  A    between atoms: O_25  and  C_38
   14  A    between atoms: C_29  and  O_43
   15  A    between atoms: C_33  and  O_43
                            x       y       z     vdW  Elec       q    Type
                         _______ _______ _______ _____ _____    ______ ____

>  <TORSDO>
F 15

$$$$
