=
 OpenBabel11042413073D

 32 35  0  0  1  0  0  0  0  0999 V2000
  190.4550  175.9920  142.4340 O   0  0  0  0  0  1  0  0  0  0  0  0
  189.7510  177.4410  140.6180 C   0  0  0  0  0  0  0  0  0  0  0  0
  188.8200  178.3690  140.1080 C   0  0  0  0  0  0  0  0  0  0  0  0
  189.0380  179.0100  138.8940 O   0  0  0  0  0  1  0  0  0  0  0  0
  189.4930  176.8190  141.8590 C   0  0  0  0  0  0  0  0  0  0  0  0
  188.2830  177.0730  142.5410 C   0  0  0  0  0  0  0  0  0  0  0  0
  187.6500  178.6490  140.8150 C   0  0  0  0  0  3  0  0  0  0  0  0
  187.3840  178.0050  142.0210 C   0  0  0  0  0  3  0  0  0  0  0  0
  190.9280  176.3670  138.6580 N   0  0  0  0  0  0  0  0  0  0  0  0
  191.5660  175.7000  137.4950 C   0  0  2  0  0  0  0  0  0  0  0  0
  192.1080  176.6270  136.6050 O   0  0  0  0  0  1  0  0  0  0  0  0
  190.9860  177.1310  139.8620 C   0  0  0  0  0  0  0  0  0  0  0  0
  190.1940  175.6430  137.5690 C   0  0  0  0  0  2  0  0  0  0  0  0
  192.1000  177.5630  140.2610 O   0  0  0  0  0  0  0  0  0  0  0  0
  192.3980  174.4940  137.9010 C   0  0  0  0  0  2  0  0  0  0  0  0
  194.2200  173.1590  136.8030 C   0  0  0  0  0  1  0  0  0  0  0  0
  193.7870  174.5410  137.2680 C   0  0  2  0  0  3  0  0  0  0  0  0
  194.7860  175.1530  138.1500 N   0  0  0  0  0  2  0  0  0  0  0  0
  195.5010  174.1330  138.9120 C   0  0  0  0  0  2  0  0  0  0  0  0
  197.2700  175.0950  140.3430 C   0  0  0  0  0  1  0  0  0  0  0  0
  196.9680  174.4950  138.9880 C   0  0  0  0  0  2  0  0  0  0  0  0
  187.9560  176.4410  143.7890 N   0  0  0  0  0  2  0  0  0  0  0  0
  188.1460  178.2270  147.9950 C   0  0  0  0  0  3  0  0  0  0  0  0
  188.1930  176.9660  145.1040 C   0  0  0  0  0  0  0  0  0  0  0  0
  185.9380  178.7100  147.3510 O   0  0  0  0  0  0  0  0  0  0  0  0
  187.1800  178.1710  147.0900 C   0  0  0  0  0  0  0  0  0  0  0  0
  187.1960  177.5930  145.7600 C   0  0  0  0  0  0  0  0  0  0  0  0
  185.0440  178.5480  146.2620 C   0  0  0  0  0  3  0  0  0  0  0  0
  189.4990  176.8080  145.5890 O   0  0  0  0  0  0  0  0  0  0  0  0
  190.0700  177.1200  146.8260 C   0  0  0  0  0  3  0  0  0  0  0  0
  189.5060  177.7200  147.8690 C   0  0  0  0  0  3  0  0  0  0  0  0
  185.8450  177.8420  145.1640 C   0  0  0  0  0  3  0  0  0  0  0  0
  2  5  1  0  0  0  0
  3  2  2  0  0  0  0
  3  7  1  0  0  0  0
  4  3  1  0  0  0  0
  5  1  1  0  0  0  0
  5  6  2  0  0  0  0
  6 22  1  0  0  0  0
  7  8  2  0  0  0  0
  8  6  1  0  0  0  0
  9 12  1  0  0  0  0
 10 11  1  6  0  0  0
 10 13  1  0  0  0  0
 10 15  1  0  0  0  0
 10  9  1  0  0  0  0
 12 14  2  0  0  0  0
 12  2  1  0  0  0  0
 13  9  1  0  0  0  0
 17 16  1  1  0  0  0
 17 15  1  0  0  0  0
 17 18  1  0  0  0  0
 18 19  1  0  0  0  0
 19 21  1  0  0  0  0
 21 20  1  0  0  0  0
 22 24  1  0  0  0  0
 24 29  1  0  0  0  0
 24 27  2  0  0  0  0
 26 25  1  0  0  0  0
 26 23  2  0  0  0  0
 27 26  1  0  0  0  0
 28 25  1  0  0  0  0
 29 30  1  0  0  0  0
 30 31  2  0  0  0  0
 31 23  1  0  0  0  0
 32 27  1  0  0  0  0
 32 28  2  0  0  0  0
M  END
>  <MODEL>
1

>  <REMARK>
 VINA RESULT:      -8.6      0.000      0.000
  Name = 
  8 active torsions:
  status: ('A' for Active; 'I' for Inactive)
    1  A    between atoms: N_1  and  C_13
    2  A    between atoms: N_1  and  C_30
    3  A    between atoms: C_3  and  C_8
    4  A    between atoms: C_3  and  C_30
    5  A    between atoms: C_5  and  C_22
    6  A    between atoms: C_10  and  N_24
    7  A    between atoms: C_13  and  C_23
    8  A    between atoms: C_21  and  N_24
                            x       y       z     vdW  Elec       q    Type
                         _______ _______ _______ _____ _____    ______ ____

>  <TORSDO>
F 8

$$$$
=
 OpenBabel11042413073D

 32 35  0  0  1  0  0  0  0  0999 V2000
  189.8020  177.1920  141.3360 O   0  0  0  0  0  1  0  0  0  0  0  0
  187.7590  178.1440  140.4380 C   0  0  0  0  0  0  0  0  0  0  0  0
  186.4480  178.6120  140.6610 C   0  0  0  0  0  0  0  0  0  0  0  0
  185.7150  179.2080  139.6400 O   0  0  0  0  0  1  0  0  0  0  0  0
  188.4680  177.5520  141.5050 C   0  0  0  0  0  0  0  0  0  0  0  0
  187.8420  177.3690  142.7570 C   0  0  0  0  0  0  0  0  0  0  0  0
  185.8560  178.4700  141.9170 C   0  0  0  0  0  3  0  0  0  0  0  0
  186.5490  177.8530  142.9560 C   0  0  0  0  0  3  0  0  0  0  0  0
  188.2260  177.2550  138.1200 N   0  0  0  0  0  0  0  0  0  0  0  0
  188.4820  176.6740  136.7780 C   0  0  2  0  0  0  0  0  0  0  0  0
  187.8570  177.4100  135.7720 O   0  0  0  0  0  1  0  0  0  0  0  0
  188.3820  178.2790  139.1010 C   0  0  0  0  0  0  0  0  0  0  0  0
  187.6640  175.9580  137.6200 C   0  0  0  0  0  2  0  0  0  0  0  0
  189.0360  179.3150  138.8080 O   0  0  0  0  0  0  0  0  0  0  0  0
  189.9320  176.2550  136.5930 C   0  0  0  0  0  2  0  0  0  0  0  0
  191.6710  176.4910  138.3890 C   0  0  0  0  0  1  0  0  0  0  0  0
  190.5050  175.6600  137.8770 C   0  0  2  0  0  3  0  0  0  0  0  0
  190.8710  174.2480  137.7280 N   0  0  0  0  0  2  0  0  0  0  0  0
  190.8690  173.8560  136.3210 C   0  0  0  0  0  2  0  0  0  0  0  0
  193.3010  173.5640  136.6530 C   0  0  0  0  0  1  0  0  0  0  0  0
  192.0550  172.9570  136.0460 C   0  0  0  0  0  2  0  0  0  0  0  0
  188.5070  176.7420  143.8660 N   0  0  0  0  0  2  0  0  0  0  0  0
  188.8900  177.9460  148.2610 C   0  0  0  0  0  3  0  0  0  0  0  0
  188.4480  177.1480  145.2420 C   0  0  0  0  0  0  0  0  0  0  0  0
  191.0430  177.1360  147.7810 O   0  0  0  0  0  0  0  0  0  0  0  0
  189.7470  177.4160  147.4020 C   0  0  0  0  0  0  0  0  0  0  0  0
  189.5490  177.0460  146.0140 C   0  0  0  0  0  0  0  0  0  0  0  0
  191.8010  176.5750  146.7220 C   0  0  0  0  0  3  0  0  0  0  0  0
  187.1950  177.5910  145.6860 O   0  0  0  0  0  0  0  0  0  0  0  0
  186.7820  178.1210  146.9120 C   0  0  0  0  0  3  0  0  0  0  0  0
  187.4930  178.2870  148.0220 C   0  0  0  0  0  3  0  0  0  0  0  0
  190.8420  176.4620  145.5340 C   0  0  0  0  0  3  0  0  0  0  0  0
  1  5  1  0  0  0  0
  2  3  2  0  0  0  0
  2  5  1  0  0  0  0
  3  7  1  0  0  0  0
  4  3  1  0  0  0  0
  5  6  2  0  0  0  0
  6  8  1  0  0  0  0
  6 22  1  0  0  0  0
  7  8  2  0  0  0  0
  9 12  1  0  0  0  0
 10 11  1  6  0  0  0
 10 13  1  0  0  0  0
 10  9  1  0  0  0  0
 12  2  1  0  0  0  0
 13  9  1  0  0  0  0
 14 12  2  0  0  0  0
 15 10  1  0  0  0  0
 15 17  1  0  0  0  0
 17 16  1  6  0  0  0
 18 17  1  0  0  0  0
 19 18  1  0  0  0  0
 21 19  1  0  0  0  0
 21 20  1  0  0  0  0
 22 24  1  0  0  0  0
 24 29  1  0  0  0  0
 24 27  2  0  0  0  0
 26 25  1  0  0  0  0
 26 23  2  0  0  0  0
 27 26  1  0  0  0  0
 28 25  1  0  0  0  0
 29 30  1  0  0  0  0
 30 31  2  0  0  0  0
 31 23  1  0  0  0  0
 32 27  1  0  0  0  0
 32 28  2  0  0  0  0
M  END
>  <MODEL>
2

>  <REMARK>
 VINA RESULT:      -8.3      2.188      3.530
  Name = 
  8 active torsions:
  status: ('A' for Active; 'I' for Inactive)
    1  A    between atoms: N_1  and  C_13
    2  A    between atoms: N_1  and  C_30
    3  A    between atoms: C_3  and  C_8
    4  A    between atoms: C_3  and  C_30
    5  A    between atoms: C_5  and  C_22
    6  A    between atoms: C_10  and  N_24
    7  A    between atoms: C_13  and  C_23
    8  A    between atoms: C_21  and  N_24
                            x       y       z     vdW  Elec       q    Type
                         _______ _______ _______ _____ _____    ______ ____

>  <TORSDO>
F 8

$$$$
=
 OpenBabel11042413073D

 32 35  0  0  1  0  0  0  0  0999 V2000
  187.0940  178.5150  140.9050 O   0  0  0  0  0  1  0  0  0  0  0  0
  184.7050  178.6880  141.2980 C   0  0  0  0  0  0  0  0  0  0  0  0
  183.6340  178.7260  142.2130 C   0  0  0  0  0  0  0  0  0  0  0  0
  182.3350  178.9750  141.7870 O   0  0  0  0  0  1  0  0  0  0  0  0
  186.0100  178.4380  141.7750 C   0  0  0  0  0  0  0  0  0  0  0  0
  186.2230  178.1610  143.1430 C   0  0  0  0  0  0  0  0  0  0  0  0
  183.8630  178.4990  143.5710 C   0  0  0  0  0  3  0  0  0  0  0  0
  185.1480  178.2180  144.0310 C   0  0  0  0  0  3  0  0  0  0  0  0
  183.9820  177.8550  139.0250 N   0  0  0  0  0  0  0  0  0  0  0  0
  183.5620  177.3050  137.7120 C   0  0  2  0  0  0  0  0  0  0  0  0
  182.3690  177.8780  137.2720 O   0  0  0  0  0  1  0  0  0  0  0  0
  184.4610  178.9130  139.8540 C   0  0  0  0  0  0  0  0  0  0  0  0
  183.4810  176.4600  138.7940 C   0  0  0  0  0  2  0  0  0  0  0  0
  184.6500  180.0500  139.3490 O   0  0  0  0  0  0  0  0  0  0  0  0
  184.7230  177.1780  136.7370 C   0  0  0  0  0  2  0  0  0  0  0  0
  186.8780  178.4330  137.0300 C   0  0  0  0  0  1  0  0  0  0  0  0
  186.0640  177.2230  137.4640 C   0  0  2  0  0  3  0  0  0  0  0  0
  186.8250  175.9790  137.3180 N   0  0  0  0  0  2  0  0  0  0  0  0
  186.0570  174.9840  136.5750 C   0  0  0  0  0  2  0  0  0  0  0  0
  184.9070  173.1090  137.7020 C   0  0  0  0  0  1  0  0  0  0  0  0
  186.2430  173.6230  137.2110 C   0  0  0  0  0  2  0  0  0  0  0  0
  187.5240  177.8680  143.6760 N   0  0  0  0  0  2  0  0  0  0  0  0
  189.2330  177.5980  147.9100 C   0  0  0  0  0  3  0  0  0  0  0  0
  187.8930  177.8180  145.0630 C   0  0  0  0  0  0  0  0  0  0  0  0
  191.0510  176.8960  146.5970 O   0  0  0  0  0  0  0  0  0  0  0  0
  189.7490  177.3340  146.7190 C   0  0  0  0  0  0  0  0  0  0  0  0
  189.1380  177.4320  145.4080 C   0  0  0  0  0  0  0  0  0  0  0  0
  191.4150  176.6700  145.2450 C   0  0  0  0  0  3  0  0  0  0  0  0
  186.8750  178.1480  145.9680 O   0  0  0  0  0  0  0  0  0  0  0  0
  186.8810  178.2770  147.3600 C   0  0  0  0  0  3  0  0  0  0  0  0
  187.8800  178.0530  148.2060 C   0  0  0  0  0  3  0  0  0  0  0  0
  190.1650  176.9790  144.4170 C   0  0  0  0  0  3  0  0  0  0  0  0
  1  5  1  0  0  0  0
  2  5  2  0  0  0  0
  2  3  1  0  0  0  0
  3  7  2  0  0  0  0
  4  3  1  0  0  0  0
  5  6  1  0  0  0  0
  6 22  1  0  0  0  0
  6  8  2  0  0  0  0
  7  8  1  0  0  0  0
  9 12  1  0  0  0  0
 10 11  1  6  0  0  0
 10 13  1  0  0  0  0
 10  9  1  0  0  0  0
 12  2  1  0  0  0  0
 13  9  1  0  0  0  0
 14 12  2  0  0  0  0
 15 17  1  0  0  0  0
 15 10  1  0  0  0  0
 17 16  1  6  0  0  0
 18 17  1  0  0  0  0
 19 21  1  0  0  0  0
 19 18  1  0  0  0  0
 21 20  1  0  0  0  0
 22 24  1  0  0  0  0
 23 31  1  0  0  0  0
 24 27  2  0  0  0  0
 24 29  1  0  0  0  0
 25 26  1  0  0  0  0
 26 23  2  0  0  0  0
 27 26  1  0  0  0  0
 28 25  1  0  0  0  0
 29 30  1  0  0  0  0
 30 31  2  0  0  0  0
 32 28  2  0  0  0  0
 32 27  1  0  0  0  0
M  END
>  <MODEL>
3

>  <REMARK>
 VINA RESULT:      -8.2      4.592      6.488
  Name = 
  8 active torsions:
  status: ('A' for Active; 'I' for Inactive)
    1  A    between atoms: N_1  and  C_13
    2  A    between atoms: N_1  and  C_30
    3  A    between atoms: C_3  and  C_8
    4  A    between atoms: C_3  and  C_30
    5  A    between atoms: C_5  and  C_22
    6  A    between atoms: C_10  and  N_24
    7  A    between atoms: C_13  and  C_23
    8  A    between atoms: C_21  and  N_24
                            x       y       z     vdW  Elec       q    Type
                         _______ _______ _______ _____ _____    ______ ____

>  <TORSDO>
F 8

$$$$
=
 OpenBabel11042413073D

 32 35  0  0  1  0  0  0  0  0999 V2000
  188.5260  178.9010  140.2960 O   0  0  0  0  0  1  0  0  0  0  0  0
  189.8140  177.0220  139.4600 C   0  0  0  0  0  0  0  0  0  0  0  0
  190.0390  176.0730  138.4420 C   0  0  0  0  0  0  0  0  0  0  0  0
  191.1290  175.2120  138.4930 O   0  0  0  0  0  1  0  0  0  0  0  0
  188.6980  177.8820  139.3640 C   0  0  0  0  0  0  0  0  0  0  0  0
  187.7840  177.7400  138.2970 C   0  0  0  0  0  0  0  0  0  0  0  0
  189.1570  175.9760  137.3660 C   0  0  0  0  0  3  0  0  0  0  0  0
  188.0370  176.8030  137.2960 C   0  0  0  0  0  3  0  0  0  0  0  0
  190.3430  176.6620  141.9040 N   0  0  0  0  0  0  0  0  0  0  0  0
  190.5910  176.4430  143.3510 C   0  0  2  0  0  0  0  0  0  0  0  0
  191.5630  175.4660  143.5640 O   0  0  0  0  0  1  0  0  0  0  0  0
  190.7410  177.1160  140.6110 C   0  0  0  0  0  0  0  0  0  0  0  0
  189.3820  176.0140  142.8550 C   0  0  0  0  0  2  0  0  0  0  0  0
  191.9030  177.5750  140.4530 O   0  0  0  0  0  0  0  0  0  0  0  0
  190.6710  177.7460  144.1310 C   0  0  0  0  0  2  0  0  0  0  0  0
  191.2440  176.7960  146.3840 C   0  0  0  0  0  1  0  0  0  0  0  0
  190.2070  177.5570  145.5740 C   0  0  2  0  0  3  0  0  0  0  0  0
  188.8850  176.9280  145.6610 N   0  0  0  0  0  2  0  0  0  0  0  0
  187.9240  177.8240  146.2990 C   0  0  0  0  0  2  0  0  0  0  0  0
  186.4630  177.7530  144.3080 C   0  0  0  0  0  1  0  0  0  0  0  0
  186.5310  177.5100  145.8000 C   0  0  0  0  0  2  0  0  0  0  0  0
  186.6160  178.5660  138.1700 N   0  0  0  0  0  2  0  0  0  0  0  0
  182.5350  177.8390  140.1030 C   0  0  0  0  0  3  0  0  0  0  0  0
  185.3930  178.4420  138.9130 C   0  0  0  0  0  0  0  0  0  0  0  0
  182.2540  176.8780  137.9770 O   0  0  0  0  0  0  0  0  0  0  0  0
  183.0230  177.5440  138.9080 C   0  0  0  0  0  0  0  0  0  0  0  0
  184.3350  177.8190  138.3550 C   0  0  0  0  0  0  0  0  0  0  0  0
  182.9540  176.6560  136.7640 C   0  0  0  0  0  3  0  0  0  0  0  0
  185.3970  179.0370  140.1830 O   0  0  0  0  0  0  0  0  0  0  0  0
  184.4360  179.0560  141.1980 C   0  0  0  0  0  3  0  0  0  0  0  0
  183.2100  178.5450  141.1850 C   0  0  0  0  0  3  0  0  0  0  0  0
  184.3320  177.2950  136.9530 C   0  0  0  0  0  3  0  0  0  0  0  0
  2 12  1  0  0  0  0
  3  4  1  0  0  0  0
  3  2  2  0  0  0  0
  5  2  1  0  0  0  0
  5  1  1  0  0  0  0
  6  5  2  0  0  0  0
  7  3  1  0  0  0  0
  8  7  2  0  0  0  0
  8  6  1  0  0  0  0
  9 13  1  0  0  0  0
  9 10  1  0  0  0  0
 10 11  1  1  0  0  0
 10 15  1  0  0  0  0
 12  9  1  0  0  0  0
 13 10  1  0  0  0  0
 14 12  2  0  0  0  0
 15 17  1  0  0  0  0
 17 18  1  0  0  0  0
 17 16  1  1  0  0  0
 18 19  1  0  0  0  0
 20 21  1  0  0  0  0
 21 19  1  0  0  0  0
 22  6  1  0  0  0  0
 22 24  1  0  0  0  0
 23 31  1  0  0  0  0
 24 29  1  0  0  0  0
 25 26  1  0  0  0  0
 26 23  2  0  0  0  0
 27 26  1  0  0  0  0
 27 24  2  0  0  0  0
 28 32  2  0  0  0  0
 28 25  1  0  0  0  0
 29 30  1  0  0  0  0
 31 30  2  0  0  0  0
 32 27  1  0  0  0  0
M  END
>  <MODEL>
4

>  <REMARK>
 VINA RESULT:      -8.1      3.298      7.563
  Name = 
  8 active torsions:
  status: ('A' for Active; 'I' for Inactive)
    1  A    between atoms: N_1  and  C_13
    2  A    between atoms: N_1  and  C_30
    3  A    between atoms: C_3  and  C_8
    4  A    between atoms: C_3  and  C_30
    5  A    between atoms: C_5  and  C_22
    6  A    between atoms: C_10  and  N_24
    7  A    between atoms: C_13  and  C_23
    8  A    between atoms: C_21  and  N_24
                            x       y       z     vdW  Elec       q    Type
                         _______ _______ _______ _____ _____    ______ ____

>  <TORSDO>
F 8

$$$$
=
 OpenBabel11042413073D

 32 35  0  0  1  0  0  0  0  0999 V2000
  188.4360  178.9210  140.6470 O   0  0  0  0  0  1  0  0  0  0  0  0
  189.6720  177.0890  139.6460 C   0  0  0  0  0  0  0  0  0  0  0  0
  189.8400  176.1940  138.5690 C   0  0  0  0  0  0  0  0  0  0  0  0
  190.9290  175.3320  138.5150 O   0  0  0  0  0  1  0  0  0  0  0  0
  188.5550  177.9510  139.6550 C   0  0  0  0  0  0  0  0  0  0  0  0
  187.5850  177.8650  138.6330 C   0  0  0  0  0  0  0  0  0  0  0  0
  188.9000  176.1520  137.5380 C   0  0  0  0  0  3  0  0  0  0  0  0
  187.7810  176.9810  137.5720 C   0  0  0  0  0  3  0  0  0  0  0  0
  190.3160  176.6470  142.0480 N   0  0  0  0  0  0  0  0  0  0  0  0
  190.6320  176.3820  143.4740 C   0  0  2  0  0  0  0  0  0  0  0  0
  191.5820  175.3700  143.6110 O   0  0  0  0  0  1  0  0  0  0  0  0
  190.6610  177.1230  140.7480 C   0  0  0  0  0  0  0  0  0  0  0  0
  189.3850  176.0040  143.0320 C   0  0  0  0  0  2  0  0  0  0  0  0
  191.8270  177.5500  140.5400 O   0  0  0  0  0  0  0  0  0  0  0  0
  190.7940  177.6600  144.2810 C   0  0  0  0  0  2  0  0  0  0  0  0
  191.6380  176.5200  146.3530 C   0  0  0  0  0  1  0  0  0  0  0  0
  190.5530  177.4100  145.7680 C   0  0  2  0  0  3  0  0  0  0  0  0
  189.2130  176.8800  146.0390 N   0  0  0  0  0  2  0  0  0  0  0  0
  188.2250  177.9540  146.0650 C   0  0  0  0  0  2  0  0  0  0  0  0
  185.7800  178.2550  145.8650 C   0  0  0  0  0  1  0  0  0  0  0  0
  186.9820  177.5150  145.3200 C   0  0  0  0  0  2  0  0  0  0  0  0
  186.4130  178.6960  138.6130 N   0  0  0  0  0  2  0  0  0  0  0  0
  182.1860  177.6260  139.9960 C   0  0  0  0  0  3  0  0  0  0  0  0
  185.0640  178.2840  138.8840 C   0  0  0  0  0  0  0  0  0  0  0  0
  183.1540  178.4650  141.9660 O   0  0  0  0  0  0  0  0  0  0  0  0
  183.2310  178.1380  140.6290 C   0  0  0  0  0  0  0  0  0  0  0  0
  184.5560  178.4410  140.1240 C   0  0  0  0  0  0  0  0  0  0  0  0
  184.3730  178.9980  142.4580 C   0  0  0  0  0  3  0  0  0  0  0  0
  184.3860  177.6970  137.8070 O   0  0  0  0  0  0  0  0  0  0  0  0
  183.0680  177.2500  137.6770 C   0  0  0  0  0  3  0  0  0  0  0  0
  182.1110  177.2180  138.5980 C   0  0  0  0  0  3  0  0  0  0  0  0
  185.3490  178.9700  141.2790 C   0  0  0  0  0  3  0  0  0  0  0  0
  2  5  1  0  0  0  0
  2 12  1  0  0  0  0
  3  2  2  0  0  0  0
  4  3  1  0  0  0  0
  5  1  1  0  0  0  0
  6  5  2  0  0  0  0
  7  8  2  0  0  0  0
  7  3  1  0  0  0  0
  8  6  1  0  0  0  0
  9 13  1  0  0  0  0
  9 10  1  0  0  0  0
 10 11  1  1  0  0  0
 10 15  1  0  0  0  0
 12  9  1  0  0  0  0
 13 10  1  0  0  0  0
 14 12  2  0  0  0  0
 15 17  1  0  0  0  0
 17 18  1  0  0  0  0
 17 16  1  6  0  0  0
 18 19  1  0  0  0  0
 21 20  1  0  0  0  0
 21 19  1  0  0  0  0
 22  6  1  0  0  0  0
 22 24  1  0  0  0  0
 23 26  2  0  0  0  0
 24 27  2  0  0  0  0
 25 28  1  0  0  0  0
 26 25  1  0  0  0  0
 27 26  1  0  0  0  0
 27 32  1  0  0  0  0
 29 24  1  0  0  0  0
 30 29  1  0  0  0  0
 30 31  2  0  0  0  0
 31 23  1  0  0  0  0
 32 28  2  0  0  0  0
M  END
>  <MODEL>
5

>  <REMARK>
 VINA RESULT:      -8.0      3.300      7.369
  Name = 
  8 active torsions:
  status: ('A' for Active; 'I' for Inactive)
    1  A    between atoms: N_1  and  C_13
    2  A    between atoms: N_1  and  C_30
    3  A    between atoms: C_3  and  C_8
    4  A    between atoms: C_3  and  C_30
    5  A    between atoms: C_5  and  C_22
    6  A    between atoms: C_10  and  N_24
    7  A    between atoms: C_13  and  C_23
    8  A    between atoms: C_21  and  N_24
                            x       y       z     vdW  Elec       q    Type
                         _______ _______ _______ _____ _____    ______ ____

>  <TORSDO>
F 8

$$$$
=
 OpenBabel11042413073D

 32 35  0  0  1  0  0  0  0  0999 V2000
  186.0080  178.2890  142.2580 O   0  0  0  0  0  1  0  0  0  0  0  0
  186.8900  177.6630  144.4300 C   0  0  0  0  0  0  0  0  0  0  0  0
  186.7050  177.5720  145.8250 C   0  0  0  0  0  0  0  0  0  0  0  0
  187.6500  176.9520  146.6340 O   0  0  0  0  0  1  0  0  0  0  0  0
  185.9010  178.2940  143.6460 C   0  0  0  0  0  0  0  0  0  0  0  0
  184.7790  178.8880  144.2630 C   0  0  0  0  0  0  0  0  0  0  0  0
  185.5680  178.1190  146.4190 C   0  0  0  0  0  3  0  0  0  0  0  0
  184.6130  178.7730  145.6440 C   0  0  0  0  0  3  0  0  0  0  0  0
  189.3800  177.6980  144.0110 N   0  0  0  0  0  0  0  0  0  0  0  0
  190.8460  177.7800  143.7860 C   0  0  2  0  0  0  0  0  0  0  0  0
  191.5160  176.7040  144.3700 O   0  0  0  0  0  1  0  0  0  0  0  0
  188.1040  177.0960  143.8000 C   0  0  0  0  0  0  0  0  0  0  0  0
  190.2950  178.7040  144.6430 C   0  0  0  0  0  2  0  0  0  0  0  0
  188.0250  176.0590  143.0900 O   0  0  0  0  0  0  0  0  0  0  0  0
  191.1950  178.1810  142.3620 C   0  0  0  0  0  2  0  0  0  0  0  0
  192.7470  177.2660  140.6130 C   0  0  0  0  0  1  0  0  0  0  0  0
  191.5630  176.9630  141.5180 C   0  0  2  0  0  3  0  0  0  0  0  0
  190.4230  176.4390  140.7590 N   0  0  0  0  0  2  0  0  0  0  0  0
  189.5520  177.5230  140.3150 C   0  0  0  0  0  2  0  0  0  0  0  0
  189.9720  176.2320  138.2500 C   0  0  0  0  0  1  0  0  0  0  0  0
  189.5380  177.5730  138.8020 C   0  0  0  0  0  2  0  0  0  0  0  0
  183.7610  179.5720  143.5150 N   0  0  0  0  0  2  0  0  0  0  0  0
  179.9950  177.7650  141.6530 C   0  0  0  0  0  3  0  0  0  0  0  0
  182.4990  179.0330  143.0910 C   0  0  0  0  0  0  0  0  0  0  0  0
  181.4240  177.9500  139.7970 O   0  0  0  0  0  0  0  0  0  0  0  0
  181.1630  178.1190  141.1400 C   0  0  0  0  0  0  0  0  0  0  0  0
  182.3170  178.7030  141.7960 C   0  0  0  0  0  0  0  0  0  0  0  0
  182.7260  178.3890  139.4450 C   0  0  0  0  0  3  0  0  0  0  0  0
  181.5220  178.9310  144.0900 O   0  0  0  0  0  0  0  0  0  0  0  0
  180.2290  178.3980  144.0690 C   0  0  0  0  0  3  0  0  0  0  0  0
  179.5620  177.8900  143.0390 C   0  0  0  0  0  3  0  0  0  0  0  0
  183.3490  178.9310  140.7340 C   0  0  0  0  0  3  0  0  0  0  0  0
  1  5  1  0  0  0  0
  2  3  1  0  0  0  0
  3  7  2  0  0  0  0
  3  4  1  0  0  0  0
  5  6  1  0  0  0  0
  5  2  2  0  0  0  0
  6  8  2  0  0  0  0
  8  7  1  0  0  0  0
  9 13  1  0  0  0  0
 10  9  1  0  0  0  0
 10 11  1  1  0  0  0
 10 13  1  0  0  0  0
 12  9  1  0  0  0  0
 12  2  1  0  0  0  0
 14 12  2  0  0  0  0
 15 10  1  0  0  0  0
 17 16  1  6  0  0  0
 17 15  1  0  0  0  0
 18 17  1  0  0  0  0
 19 18  1  0  0  0  0
 20 21  1  0  0  0  0
 21 19  1  0  0  0  0
 22  6  1  0  0  0  0
 23 31  1  0  0  0  0
 24 22  1  0  0  0  0
 24 29  1  0  0  0  0
 25 26  1  0  0  0  0
 26 23  2  0  0  0  0
 26 27  1  0  0  0  0
 27 24  2  0  0  0  0
 28 25  1  0  0  0  0
 28 32  2  0  0  0  0
 30 29  1  0  0  0  0
 31 30  2  0  0  0  0
 32 27  1  0  0  0  0
M  END
>  <MODEL>
6

>  <REMARK>
 VINA RESULT:      -7.6      3.719      6.925
  Name = 
  8 active torsions:
  status: ('A' for Active; 'I' for Inactive)
    1  A    between atoms: N_1  and  C_13
    2  A    between atoms: N_1  and  C_30
    3  A    between atoms: C_3  and  C_8
    4  A    between atoms: C_3  and  C_30
    5  A    between atoms: C_5  and  C_22
    6  A    between atoms: C_10  and  N_24
    7  A    between atoms: C_13  and  C_23
    8  A    between atoms: C_21  and  N_24
                            x       y       z     vdW  Elec       q    Type
                         _______ _______ _______ _____ _____    ______ ____

>  <TORSDO>
F 8

$$$$
=
 OpenBabel11042413073D

 32 35  0  0  1  0  0  0  0  0999 V2000
  186.9430  178.2920  141.2400 O   0  0  0  0  0  1  0  0  0  0  0  0
  184.6110  178.6030  141.8340 C   0  0  0  0  0  0  0  0  0  0  0  0
  183.6330  178.7570  142.8380 C   0  0  0  0  0  0  0  0  0  0  0  0
  182.3100  179.0340  142.5140 O   0  0  0  0  0  1  0  0  0  0  0  0
  185.9440  178.3300  142.2090 C   0  0  0  0  0  0  0  0  0  0  0  0
  186.2740  178.1430  143.5690 C   0  0  0  0  0  0  0  0  0  0  0  0
  183.9800  178.6200  144.1820 C   0  0  0  0  0  3  0  0  0  0  0  0
  185.2910  178.3140  144.5430 C   0  0  0  0  0  3  0  0  0  0  0  0
  183.4670  177.7220  139.7610 N   0  0  0  0  0  0  0  0  0  0  0  0
  182.7920  177.1460  138.5710 C   0  0  2  0  0  0  0  0  0  0  0  0
  181.6880  177.9080  138.1870 O   0  0  0  0  0  1  0  0  0  0  0  0
  184.2410  178.7330  140.4060 C   0  0  0  0  0  0  0  0  0  0  0  0
  182.6810  176.4450  139.7490 C   0  0  0  0  0  2  0  0  0  0  0  0
  184.5840  179.7530  139.7520 O   0  0  0  0  0  0  0  0  0  0  0  0
  183.7780  176.6890  137.5070 C   0  0  0  0  0  2  0  0  0  0  0  0
  185.0390  174.6240  136.8390 C   0  0  0  0  0  1  0  0  0  0  0  0
  183.6980  175.1800  137.2890 C   0  0  2  0  0  3  0  0  0  0  0  0
  182.6190  174.8010  136.3720 N   0  0  0  0  0  2  0  0  0  0  0  0
  182.0450  173.5130  136.7480 C   0  0  0  0  0  2  0  0  0  0  0  0
  180.0420  174.9240  137.0660 C   0  0  0  0  0  1  0  0  0  0  0  0
  180.8130  173.7370  137.5990 C   0  0  0  0  0  2  0  0  0  0  0  0
  187.6080  177.8300  144.0010 N   0  0  0  0  0  2  0  0  0  0  0  0
  189.6340  177.5600  148.0920 C   0  0  0  0  0  3  0  0  0  0  0  0
  188.0810  177.7800  145.3560 C   0  0  0  0  0  0  0  0  0  0  0  0
  191.3460  176.8540  146.6450 O   0  0  0  0  0  0  0  0  0  0  0  0
  190.0580  177.2940  146.8660 C   0  0  0  0  0  0  0  0  0  0  0  0
  189.3480  177.3930  145.6050 C   0  0  0  0  0  0  0  0  0  0  0  0
  191.6050  176.6270  145.2690 C   0  0  0  0  0  3  0  0  0  0  0  0
  187.1350  178.1120  146.3360 O   0  0  0  0  0  0  0  0  0  0  0  0
  187.2480  178.2420  147.7240 C   0  0  0  0  0  3  0  0  0  0  0  0
  188.3090  178.0170  148.4910 C   0  0  0  0  0  3  0  0  0  0  0  0
  190.2960  176.9370  144.5390 C   0  0  0  0  0  3  0  0  0  0  0  0
  1  5  1  0  0  0  0
  2  5  2  0  0  0  0
  2  3  1  0  0  0  0
  3  7  2  0  0  0  0
  4  3  1  0  0  0  0
  5  6  1  0  0  0  0
  6 22  1  0  0  0  0
  6  8  2  0  0  0  0
  7  8  1  0  0  0  0
  9 12  1  0  0  0  0
 10 11  1  6  0  0  0
 10 13  1  0  0  0  0
 10  9  1  0  0  0  0
 12  2  1  0  0  0  0
 13  9  1  0  0  0  0
 14 12  2  0  0  0  0
 15 10  1  0  0  0  0
 17 16  1  6  0  0  0
 17 15  1  0  0  0  0
 18 19  1  0  0  0  0
 18 17  1  0  0  0  0
 19 21  1  0  0  0  0
 20 21  1  0  0  0  0
 22 24  1  0  0  0  0
 23 31  1  0  0  0  0
 24 27  2  0  0  0  0
 24 29  1  0  0  0  0
 25 26  1  0  0  0  0
 26 23  2  0  0  0  0
 27 26  1  0  0  0  0
 28 25  1  0  0  0  0
 29 30  1  0  0  0  0
 30 31  2  0  0  0  0
 32 28  2  0  0  0  0
 32 27  1  0  0  0  0
M  END
>  <MODEL>
7

>  <REMARK>
 VINA RESULT:      -7.6      5.027      7.784
  Name = 
  8 active torsions:
  status: ('A' for Active; 'I' for Inactive)
    1  A    between atoms: N_1  and  C_13
    2  A    between atoms: N_1  and  C_30
    3  A    between atoms: C_3  and  C_8
    4  A    between atoms: C_3  and  C_30
    5  A    between atoms: C_5  and  C_22
    6  A    between atoms: C_10  and  N_24
    7  A    between atoms: C_13  and  C_23
    8  A    between atoms: C_21  and  N_24
                            x       y       z     vdW  Elec       q    Type
                         _______ _______ _______ _____ _____    ______ ____

>  <TORSDO>
F 8

$$$$
=
 OpenBabel11042413073D

 32 35  0  0  1  0  0  0  0  0999 V2000
  187.9990  177.5420  141.0960 O   0  0  0  0  0  1  0  0  0  0  0  0
  190.0510  177.1890  139.8510 C   0  0  0  0  0  0  0  0  0  0  0  0
  191.4570  177.0870  139.8490 C   0  0  0  0  0  0  0  0  0  0  0  0
  192.1490  176.7250  138.6980 O   0  0  0  0  0  1  0  0  0  0  0  0
  189.3900  177.5520  141.0440 C   0  0  0  0  0  0  0  0  0  0  0  0
  190.1360  177.8780  142.1970 C   0  0  0  0  0  0  0  0  0  0  0  0
  192.1820  177.3630  141.0080 C   0  0  0  0  0  3  0  0  0  0  0  0
  191.5260  177.7560  142.1730 C   0  0  0  0  0  3  0  0  0  0  0  0
  188.9760  177.9600  137.6990 N   0  0  0  0  0  0  0  0  0  0  0  0
  188.3480  178.4750  136.4560 C   0  0  2  0  0  0  0  0  0  0  0  0
  188.9830  177.9800  135.3170 O   0  0  0  0  0  1  0  0  0  0  0  0
  189.2810  176.9110  138.6160 C   0  0  0  0  0  0  0  0  0  0  0  0
  189.0560  179.3780  137.2160 C   0  0  0  0  0  2  0  0  0  0  0  0
  188.9110  175.7370  138.3510 O   0  0  0  0  0  0  0  0  0  0  0  0
  186.8290  178.4570  136.5210 C   0  0  0  0  0  2  0  0  0  0  0  0
  185.4030  176.7470  137.6830 C   0  0  0  0  0  1  0  0  0  0  0  0
  186.3380  177.9320  137.8680 C   0  0  2  0  0  3  0  0  0  0  0  0
  185.7260  178.9800  138.6910 N   0  0  0  0  0  2  0  0  0  0  0  0
  184.7800  178.4080  139.6440 C   0  0  0  0  0  2  0  0  0  0  0  0
  184.2950  178.2530  142.0620 C   0  0  0  0  0  1  0  0  0  0  0  0
  184.9260  179.1020  140.9800 C   0  0  0  0  0  2  0  0  0  0  0  0
  189.5150  178.2860  143.4260 N   0  0  0  0  0  2  0  0  0  0  0  0
  189.7380  176.6050  147.6740 C   0  0  0  0  0  3  0  0  0  0  0  0
  189.7640  177.7460  144.7340 C   0  0  0  0  0  0  0  0  0  0  0  0
  187.4900  177.2720  147.5230 O   0  0  0  0  0  0  0  0  0  0  0  0
  188.7490  177.1450  146.9780 C   0  0  0  0  0  0  0  0  0  0  0  0
  188.7560  177.6720  145.6270 C   0  0  0  0  0  0  0  0  0  0  0  0
  186.5740  177.8720  146.6220 C   0  0  0  0  0  3  0  0  0  0  0  0
  191.0900  177.3690  144.9870 O   0  0  0  0  0  0  0  0  0  0  0  0
  191.6810  176.7530  146.0940 C   0  0  0  0  0  3  0  0  0  0  0  0
  191.1190  176.4130  147.2480 C   0  0  0  0  0  3  0  0  0  0  0  0
  187.3760  178.1890  145.3580 C   0  0  0  0  0  3  0  0  0  0  0  0
  2  5  1  0  0  0  0
  3  2  2  0  0  0  0
  3  7  1  0  0  0  0
  4  3  1  0  0  0  0
  5  1  1  0  0  0  0
  5  6  2  0  0  0  0
  6 22  1  0  0  0  0
  7  8  2  0  0  0  0
  8  6  1  0  0  0  0
  9 12  1  0  0  0  0
 10 11  1  6  0  0  0
 10 15  1  0  0  0  0
 10 13  1  0  0  0  0
 10  9  1  0  0  0  0
 12  2  1  0  0  0  0
 13  9  1  0  0  0  0
 14 12  2  0  0  0  0
 15 17  1  0  0  0  0
 17 16  1  6  0  0  0
 17 18  1  0  0  0  0
 18 19  1  0  0  0  0
 19 21  1  0  0  0  0
 21 20  1  0  0  0  0
 22 24  1  0  0  0  0
 24 29  1  0  0  0  0
 24 27  2  0  0  0  0
 26 25  1  0  0  0  0
 26 23  2  0  0  0  0
 27 26  1  0  0  0  0
 28 25  1  0  0  0  0
 29 30  1  0  0  0  0
 30 31  2  0  0  0  0
 31 23  1  0  0  0  0
 32 27  1  0  0  0  0
 32 28  2  0  0  0  0
M  END
>  <MODEL>
8

>  <REMARK>
 VINA RESULT:      -7.6      2.972      5.554
  Name = 
  8 active torsions:
  status: ('A' for Active; 'I' for Inactive)
    1  A    between atoms: N_1  and  C_13
    2  A    between atoms: N_1  and  C_30
    3  A    between atoms: C_3  and  C_8
    4  A    between atoms: C_3  and  C_30
    5  A    between atoms: C_5  and  C_22
    6  A    between atoms: C_10  and  N_24
    7  A    between atoms: C_13  and  C_23
    8  A    between atoms: C_21  and  N_24
                            x       y       z     vdW  Elec       q    Type
                         _______ _______ _______ _____ _____    ______ ____

>  <TORSDO>
F 8

$$$$
=
 OpenBabel11042413073D

 32 35  0  0  1  0  0  0  0  0999 V2000
  188.5510  178.8360  139.8290 O   0  0  0  0  0  1  0  0  0  0  0  0
  189.6050  177.1880  141.2650 C   0  0  0  0  0  0  0  0  0  0  0  0
  189.5360  176.3660  142.4090 C   0  0  0  0  0  0  0  0  0  0  0  0
  190.5400  175.4470  142.6930 O   0  0  0  0  0  1  0  0  0  0  0  0
  188.5590  178.1020  141.0120 C   0  0  0  0  0  0  0  0  0  0  0  0
  187.4970  178.2370  141.9320 C   0  0  0  0  0  0  0  0  0  0  0  0
  188.4570  176.4730  143.2860 C   0  0  0  0  0  3  0  0  0  0  0  0
  187.4460  177.4020  143.0490 C   0  0  0  0  0  3  0  0  0  0  0  0
  190.6230  176.4340  139.0800 N   0  0  0  0  0  0  0  0  0  0  0  0
  191.1710  175.9510  137.7880 C   0  0  2  0  0  0  0  0  0  0  0  0
  191.5020  177.0100  136.9420 O   0  0  0  0  0  1  0  0  0  0  0  0
  190.7580  177.0870  140.3420 C   0  0  0  0  0  0  0  0  0  0  0  0
  189.8320  175.7360  138.0150 C   0  0  0  0  0  2  0  0  0  0  0  0
  191.8660  177.6000  140.6510 O   0  0  0  0  0  0  0  0  0  0  0  0
  192.1620  174.8120  137.9650 C   0  0  0  0  0  2  0  0  0  0  0  0
  193.8690  174.1540  136.2450 C   0  0  0  0  0  1  0  0  0  0  0  0
  193.5130  175.1500  137.3380 C   0  0  2  0  0  3  0  0  0  0  0  0
  194.5820  175.2660  138.3340 N   0  0  0  0  0  2  0  0  0  0  0  0
  195.4430  174.0870  138.3120 C   0  0  0  0  0  2  0  0  0  0  0  0
  197.6040  174.6940  137.2770 C   0  0  0  0  0  1  0  0  0  0  0  0
  196.8730  174.5000  138.5880 C   0  0  0  0  0  2  0  0  0  0  0  0
  186.4260  179.1750  141.7400 N   0  0  0  0  0  2  0  0  0  0  0  0
  182.0770  178.3920  140.5620 C   0  0  0  0  0  3  0  0  0  0  0  0
  185.1240  178.8920  141.2040 C   0  0  0  0  0  0  0  0  0  0  0  0
  181.9170  178.6710  142.8890 O   0  0  0  0  0  0  0  0  0  0  0  0
  182.6590  178.6220  141.7290 C   0  0  0  0  0  0  0  0  0  0  0  0
  184.0590  178.8510  142.0300 C   0  0  0  0  0  0  0  0  0  0  0  0
  182.7210  178.9280  144.0290 C   0  0  0  0  0  3  0  0  0  0  0  0
  185.0830  178.6340  139.8270 O   0  0  0  0  0  0  0  0  0  0  0  0
  184.0100  178.3980  138.9620 C   0  0  0  0  0  3  0  0  0  0  0  0
  182.7180  178.2970  139.2560 C   0  0  0  0  0  3  0  0  0  0  0  0
  184.1600  179.0210  143.5150 C   0  0  0  0  0  3  0  0  0  0  0  0
  1  5  1  0  0  0  0
  2  3  1  0  0  0  0
  3  4  1  0  0  0  0
  3  7  2  0  0  0  0
  5  2  2  0  0  0  0
  5  6  1  0  0  0  0
  6  8  2  0  0  0  0
  8  7  1  0  0  0  0
  9 12  1  0  0  0  0
 10 11  1  6  0  0  0
 10 15  1  0  0  0  0
 10 13  1  0  0  0  0
 10  9  1  0  0  0  0
 12 14  2  0  0  0  0
 12  2  1  0  0  0  0
 13  9  1  0  0  0  0
 17 16  1  6  0  0  0
 17 15  1  0  0  0  0
 17 18  1  0  0  0  0
 19 18  1  0  0  0  0
 19 21  1  0  0  0  0
 20 21  1  0  0  0  0
 22  6  1  0  0  0  0
 23 26  2  0  0  0  0
 24 22  1  0  0  0  0
 24 27  2  0  0  0  0
 25 28  1  0  0  0  0
 26 27  1  0  0  0  0
 26 25  1  0  0  0  0
 27 32  1  0  0  0  0
 29 24  1  0  0  0  0
 30 31  2  0  0  0  0
 30 29  1  0  0  0  0
 31 23  1  0  0  0  0
 32 28  2  0  0  0  0
M  END
>  <MODEL>
9

>  <REMARK>
 VINA RESULT:      -7.5      2.578      4.439
  Name = 
  8 active torsions:
  status: ('A' for Active; 'I' for Inactive)
    1  A    between atoms: N_1  and  C_13
    2  A    between atoms: N_1  and  C_30
    3  A    between atoms: C_3  and  C_8
    4  A    between atoms: C_3  and  C_30
    5  A    between atoms: C_5  and  C_22
    6  A    between atoms: C_10  and  N_24
    7  A    between atoms: C_13  and  C_23
    8  A    between atoms: C_21  and  N_24
                            x       y       z     vdW  Elec       q    Type
                         _______ _______ _______ _____ _____    ______ ____

>  <TORSDO>
F 8

$$$$
