=
 OpenBabel11042412253D

 26 26  0  0  1  0  0  0  0  0999 V2000
  190.4670  177.1930  145.4630 C   0  0  0  0  0  0  0  0  0  0  0  0
  188.1760  177.8630  145.9750 C   0  0  0  0  0  0  0  0  0  0  0  0
  189.1860  177.5730  145.0520 C   0  0  0  0  0  3  0  0  0  0  0  0
  189.7370  177.3590  147.7700 C   0  0  0  0  0  3  0  0  0  0  0  0
  187.4350  177.9530  148.4200 C   0  0  0  0  0  1  0  0  0  0  0  0
  188.4580  177.7420  147.3580 C   0  0  0  0  0  0  0  0  0  0  0  0
  190.7470  177.0890  146.8400 C   0  0  0  0  0  0  0  0  0  0  0  0
  192.0450  176.7070  147.3000 N   0  0  0  0  0  2  0  0  0  0  0  0
  192.3680  175.4090  147.5130 O   0  0  0  0  0  1  0  0  0  0  0  0
  186.9290  178.2450  145.4520 O   0  0  0  0  0  0  0  0  0  0  0  0
  186.1840  177.5060  144.4920 C   0  0  0  0  0  2  0  0  0  0  0  0
  186.0840  178.2650  143.2570 N   0  0  0  0  0  2  0  0  0  0  0  0
  184.6820  178.2770  142.8780 C   0  0  1  0  0  3  0  0  0  0  0  0
  183.9210  179.1210  143.8510 C   0  0  0  0  0  3  0  0  0  0  0  0
  182.6410  178.8750  144.1170 C   0  0  0  0  0  2  0  0  0  0  0  0
  184.5500  178.8260  141.4640 C   0  0  0  0  0  2  0  0  0  0  0  0
  185.6610  179.6080  141.1460 O   0  0  0  0  0  1  0  0  0  0  0  0
  191.4740  176.8950  144.3850 C   0  0  1  0  0  3  0  0  0  0  0  0
  191.3890  175.5070  143.8140 C   0  0  0  0  0  0  0  0  0  0  0  0
  190.3330  175.1330  142.9920 O   0  0  0  0  0  0  0  0  0  0  0  0
  192.2760  174.6630  144.1050 O   0  0  0  0  0  1  0  0  0  0  0  0
  191.6990  178.0480  143.3960 C   0  0  2  0  0  3  0  0  0  0  0  0
  191.2850  179.4100  143.9330 C   0  0  0  0  0  1  0  0  0  0  0  0
  189.8270  177.9550  141.9280 O   0  0  0  0  0  1  0  0  0  0  0  0
  191.8280  177.3470  140.9930 O   0  0  0  0  0  0  0  0  0  0  0  0
  191.0630  177.7740  142.0720 C   0  0  0  0  0  0  0  0  0  0  0  0
  1  7  1  0  0  0  0
  2  6  2  0  0  0  0
  3  1  2  0  0  0  0
  3  2  1  0  0  0  0
  6  4  1  0  0  0  0
  6  5  1  0  0  0  0
  7  8  1  0  0  0  0
  7  4  2  0  0  0  0
  8  9  1  0  0  0  0
 10  2  1  0  0  0  0
 11 10  1  0  0  0  0
 12 11  1  0  0  0  0
 13 16  1  6  0  0  0
 13 12  1  0  0  0  0
 13 14  1  0  0  0  0
 14 15  2  0  0  0  0
 17 16  1  0  0  0  0
 18 19  1  6  0  0  0
 18  1  1  0  0  0  0
 19 21  1  0  0  0  0
 20 19  2  0  0  0  0
 22 23  1  1  0  0  0
 22 18  1  0  0  0  0
 24 26  1  0  0  0  0
 25 26  2  0  0  0  0
 26 22  1  0  0  0  0
M  END
>  <MODEL>
1

>  <REMARK>
 VINA RESULT:      -7.7      0.000      0.000
  Name = 
  11 active torsions:
  status: ('A' for Active; 'I' for Inactive)
    1  A    between atoms: C_1  and  C_21
    2  A    between atoms: C_3  and  O_14
    3  A    between atoms: C_6  and  C_17
    4  A    between atoms: C_6  and  C_21
    5  A    between atoms: C_7  and  CA_24
    6  A    between atoms: C_9  and  C_21
    7  A    between atoms: C_10  and  CA_24
    8  A    between atoms: N_11  and  C_20
    9  A    between atoms: N_11  and  CA_24
   10  A    between atoms: O_14  and  C_20
   11  A    between atoms: N_18  and  C_23
                            x       y       z     vdW  Elec       q    Type
                         _______ _______ _______ _____ _____    ______ ____

>  <TORSDO>
F 11

$$$$
=
 OpenBabel11042412253D

 26 26  0  0  1  0  0  0  0  0999 V2000
  188.1650  177.3840  144.6830 C   0  0  0  0  0  0  0  0  0  0  0  0
  186.0100  177.9940  143.7110 C   0  0  0  0  0  0  0  0  0  0  0  0
  187.3200  177.5220  143.5780 C   0  0  0  0  0  3  0  0  0  0  0  0
  186.3700  178.1750  146.1100 C   0  0  0  0  0  3  0  0  0  0  0  0
  184.1280  178.7530  145.2660 C   0  0  0  0  0  1  0  0  0  0  0  0
  185.5270  178.3150  145.0040 C   0  0  0  0  0  0  0  0  0  0  0  0
  187.6840  177.7190  145.9650 C   0  0  0  0  0  0  0  0  0  0  0  0
  188.5190  177.5940  147.1190 N   0  0  0  0  0  2  0  0  0  0  0  0
  187.9970  177.4310  148.3570 O   0  0  0  0  0  1  0  0  0  0  0  0
  185.2520  178.1030  142.5340 O   0  0  0  0  0  0  0  0  0  0  0  0
  185.1060  179.2890  141.7630 C   0  0  0  0  0  2  0  0  0  0  0  0
  185.8530  179.1640  140.5220 N   0  0  0  0  0  2  0  0  0  0  0  0
  184.9420  178.6180  139.5320 C   0  0  1  0  0  3  0  0  0  0  0  0
  183.8880  179.6340  139.2250 C   0  0  0  0  0  3  0  0  0  0  0  0
  182.6760  179.2620  138.8190 C   0  0  0  0  0  2  0  0  0  0  0  0
  185.7260  178.2540  138.2780 C   0  0  0  0  0  2  0  0  0  0  0  0
  187.0740  178.5700  138.4450 O   0  0  0  0  0  1  0  0  0  0  0  0
  189.5500  176.8570  144.4260 C   0  0  1  0  0  3  0  0  0  0  0  0
  189.8100  176.4350  143.0070 C   0  0  0  0  0  0  0  0  0  0  0  0
  189.6860  177.3370  141.9570 O   0  0  0  0  0  0  0  0  0  0  0  0
  190.1180  175.2390  142.7640 O   0  0  0  0  0  1  0  0  0  0  0  0
  190.6640  177.6380  145.1400 C   0  0  2  0  0  3  0  0  0  0  0  0
  191.4490  178.5650  144.2240 C   0  0  0  0  0  1  0  0  0  0  0  0
  191.8610  176.9990  147.0970 O   0  0  0  0  0  1  0  0  0  0  0  0
  192.0920  175.5860  145.3090 O   0  0  0  0  0  0  0  0  0  0  0  0
  191.5770  176.7320  145.9010 C   0  0  0  0  0  0  0  0  0  0  0  0
  1  7  1  0  0  0  0
  2  6  2  0  0  0  0
  3  2  1  0  0  0  0
  3  1  2  0  0  0  0
  6  5  1  0  0  0  0
  6  4  1  0  0  0  0
  7  4  2  0  0  0  0
  7  8  1  0  0  0  0
  8  9  1  0  0  0  0
 10  2  1  0  0  0  0
 11 10  1  0  0  0  0
 12 11  1  0  0  0  0
 13 16  1  6  0  0  0
 13 12  1  0  0  0  0
 14 13  1  0  0  0  0
 15 14  2  0  0  0  0
 16 17  1  0  0  0  0
 18 19  1  6  0  0  0
 18  1  1  0  0  0  0
 18 22  1  0  0  0  0
 20 19  2  0  0  0  0
 21 19  1  0  0  0  0
 22 23  1  6  0  0  0
 22 26  1  0  0  0  0
 25 26  2  0  0  0  0
 26 24  1  0  0  0  0
M  END
>  <MODEL>
2

>  <REMARK>
 VINA RESULT:      -7.6      2.005      3.565
  Name = 
  11 active torsions:
  status: ('A' for Active; 'I' for Inactive)
    1  A    between atoms: C_1  and  C_21
    2  A    between atoms: C_3  and  O_14
    3  A    between atoms: C_6  and  C_17
    4  A    between atoms: C_6  and  C_21
    5  A    between atoms: C_7  and  CA_24
    6  A    between atoms: C_9  and  C_21
    7  A    between atoms: C_10  and  CA_24
    8  A    between atoms: N_11  and  C_20
    9  A    between atoms: N_11  and  CA_24
   10  A    between atoms: O_14  and  C_20
   11  A    between atoms: N_18  and  C_23
                            x       y       z     vdW  Elec       q    Type
                         _______ _______ _______ _____ _____    ______ ____

>  <TORSDO>
F 11

$$$$
=
 OpenBabel11042412253D

 26 26  0  0  1  0  0  0  0  0999 V2000
  183.9130  178.6320  142.3320 C   0  0  0  0  0  0  0  0  0  0  0  0
  185.7220  178.2440  143.9240 C   0  0  0  0  0  0  0  0  0  0  0  0
  185.2390  178.2930  142.6120 C   0  0  0  0  0  3  0  0  0  0  0  0
  183.5200  178.9150  144.7090 C   0  0  0  0  0  3  0  0  0  0  0  0
  185.2760  178.6250  146.4120 C   0  0  0  0  0  1  0  0  0  0  0  0
  184.8450  178.5720  144.9880 C   0  0  0  0  0  0  0  0  0  0  0  0
  183.0400  178.9440  143.3950 C   0  0  0  0  0  0  0  0  0  0  0  0
  181.6770  179.2930  143.1480 N   0  0  0  0  0  2  0  0  0  0  0  0
  180.6570  178.5210  143.5920 O   0  0  0  0  0  1  0  0  0  0  0  0
  187.0680  177.8810  144.0920 O   0  0  0  0  0  0  0  0  0  0  0  0
  187.6440  176.6540  143.6610 C   0  0  0  0  0  2  0  0  0  0  0  0
  189.0220  176.5710  144.1160 N   0  0  0  0  0  2  0  0  0  0  0  0
  189.2760  177.7560  144.9160 C   0  0  1  0  0  3  0  0  0  0  0  0
  189.6050  177.3400  146.3150 C   0  0  0  0  0  3  0  0  0  0  0  0
  188.6500  177.1990  147.2300 C   0  0  0  0  0  2  0  0  0  0  0  0
  190.4270  178.5390  144.2980 C   0  0  0  0  0  2  0  0  0  0  0  0
  191.6470  177.9640  144.6580 O   0  0  0  0  0  1  0  0  0  0  0  0
  183.5030  178.6640  140.8850 C   0  0  1  0  0  3  0  0  0  0  0  0
  184.5140  179.2810  139.9590 C   0  0  0  0  0  0  0  0  0  0  0  0
  185.8290  178.8320  139.9310 O   0  0  0  0  0  1  0  0  0  0  0  0
  184.1700  180.2370  139.2160 O   0  0  0  0  0  0  0  0  0  0  0  0
  182.7960  177.3890  140.4010 C   0  0  2  0  0  3  0  0  0  0  0  0
  183.4210  176.7720  139.1580 C   0  0  0  0  0  1  0  0  0  0  0  0
  180.9070  178.7360  139.8660 O   0  0  0  0  0  0  0  0  0  0  0  0
  180.4310  176.5610  140.4040 O   0  0  0  0  0  1  0  0  0  0  0  0
  181.3290  177.6040  140.2170 C   0  0  0  0  0  0  0  0  0  0  0  0
  1  3  2  0  0  0  0
  1  7  1  0  0  0  0
  2 10  1  0  0  0  0
  2  6  2  0  0  0  0
  3  2  1  0  0  0  0
  4  6  1  0  0  0  0
  6  5  1  0  0  0  0
  7  4  2  0  0  0  0
  8  7  1  0  0  0  0
  8  9  1  0  0  0  0
 11 10  1  0  0  0  0
 11 12  1  0  0  0  0
 12 13  1  0  0  0  0
 13 16  1  6  0  0  0
 13 14  1  0  0  0  0
 14 15  2  0  0  0  0
 16 17  1  0  0  0  0
 18 19  1  6  0  0  0
 18  1  1  0  0  0  0
 20 19  1  0  0  0  0
 21 19  2  0  0  0  0
 22 23  1  6  0  0  0
 22 18  1  0  0  0  0
 24 26  2  0  0  0  0
 26 22  1  0  0  0  0
 26 25  1  0  0  0  0
M  END
>  <MODEL>
3

>  <REMARK>
 VINA RESULT:      -7.3      2.788      7.782
  Name = 
  11 active torsions:
  status: ('A' for Active; 'I' for Inactive)
    1  A    between atoms: C_1  and  C_21
    2  A    between atoms: C_3  and  O_14
    3  A    between atoms: C_6  and  C_17
    4  A    between atoms: C_6  and  C_21
    5  A    between atoms: C_7  and  CA_24
    6  A    between atoms: C_9  and  C_21
    7  A    between atoms: C_10  and  CA_24
    8  A    between atoms: N_11  and  C_20
    9  A    between atoms: N_11  and  CA_24
   10  A    between atoms: O_14  and  C_20
   11  A    between atoms: N_18  and  C_23
                            x       y       z     vdW  Elec       q    Type
                         _______ _______ _______ _____ _____    ______ ____

>  <TORSDO>
F 11

$$$$
=
 OpenBabel11042412253D

 26 26  0  0  1  0  0  0  0  0999 V2000
  188.7950  177.7390  145.6370 C   0  0  0  0  0  0  0  0  0  0  0  0
  186.7310  177.8720  144.3400 C   0  0  0  0  0  0  0  0  0  0  0  0
  188.1000  177.5980  144.4340 C   0  0  0  0  0  3  0  0  0  0  0  0
  186.7270  178.4170  146.7100 C   0  0  0  0  0  3  0  0  0  0  0  0
  184.5650  178.5210  145.5320 C   0  0  0  0  0  1  0  0  0  0  0  0
  186.0350  178.2780  145.5040 C   0  0  0  0  0  0  0  0  0  0  0  0
  188.1000  178.1580  146.7900 C   0  0  0  0  0  0  0  0  0  0  0  0
  188.7760  178.3180  148.0390 N   0  0  0  0  0  2  0  0  0  0  0  0
  188.1760  178.0140  149.2140 O   0  0  0  0  0  1  0  0  0  0  0  0
  186.1360  177.7060  143.0790 O   0  0  0  0  0  0  0  0  0  0  0  0
  186.3620  178.5430  141.9510 C   0  0  0  0  0  2  0  0  0  0  0  0
  185.1680  179.3230  141.6710 N   0  0  0  0  0  2  0  0  0  0  0  0
  184.2870  178.4800  140.8810 C   0  0  1  0  0  3  0  0  0  0  0  0
  182.8700  178.7490  141.2780 C   0  0  0  0  0  3  0  0  0  0  0  0
  182.5060  178.7570  142.5570 C   0  0  0  0  0  2  0  0  0  0  0  0
  184.5020  178.7770  139.4030 C   0  0  0  0  0  2  0  0  0  0  0  0
  184.4380  180.1520  139.1750 O   0  0  0  0  0  1  0  0  0  0  0  0
  190.2620  177.4070  145.6270 C   0  0  1  0  0  3  0  0  0  0  0  0
  190.7470  176.6630  146.8400 C   0  0  0  0  0  0  0  0  0  0  0  0
  191.9320  177.0180  147.4730 O   0  0  0  0  0  1  0  0  0  0  0  0
  190.0810  175.6870  147.2740 O   0  0  0  0  0  0  0  0  0  0  0  0
  190.7950  176.9450  144.2620 C   0  0  2  0  0  3  0  0  0  0  0  0
  191.6760  175.7070  144.3330 C   0  0  0  0  0  1  0  0  0  0  0  0
  191.8620  179.0710  144.1610 O   0  0  0  0  0  1  0  0  0  0  0  0
  191.7180  177.9580  142.1640 O   0  0  0  0  0  0  0  0  0  0  0  0
  191.4790  178.0530  143.5300 C   0  0  0  0  0  0  0  0  0  0  0  0
  1  7  1  0  0  0  0
  2  3  1  0  0  0  0
  2  6  2  0  0  0  0
  3  1  2  0  0  0  0
  4  7  2  0  0  0  0
  6  5  1  0  0  0  0
  6  4  1  0  0  0  0
  7  8  1  0  0  0  0
  8  9  1  0  0  0  0
 10  2  1  0  0  0  0
 11 10  1  0  0  0  0
 12 11  1  0  0  0  0
 13 16  1  6  0  0  0
 13 14  1  0  0  0  0
 13 12  1  0  0  0  0
 14 15  2  0  0  0  0
 17 16  1  0  0  0  0
 18  1  1  0  0  0  0
 18 19  1  1  0  0  0
 19 21  2  0  0  0  0
 19 20  1  0  0  0  0
 22 23  1  1  0  0  0
 22 18  1  0  0  0  0
 25 26  2  0  0  0  0
 26 24  1  0  0  0  0
 26 22  1  0  0  0  0
M  END
>  <MODEL>
4

>  <REMARK>
 VINA RESULT:      -7.3      1.890      2.956
  Name = 
  11 active torsions:
  status: ('A' for Active; 'I' for Inactive)
    1  A    between atoms: C_1  and  C_21
    2  A    between atoms: C_3  and  O_14
    3  A    between atoms: C_6  and  C_17
    4  A    between atoms: C_6  and  C_21
    5  A    between atoms: C_7  and  CA_24
    6  A    between atoms: C_9  and  C_21
    7  A    between atoms: C_10  and  CA_24
    8  A    between atoms: N_11  and  C_20
    9  A    between atoms: N_11  and  CA_24
   10  A    between atoms: O_14  and  C_20
   11  A    between atoms: N_18  and  C_23
                            x       y       z     vdW  Elec       q    Type
                         _______ _______ _______ _____ _____    ______ ____

>  <TORSDO>
F 11

$$$$
=
 OpenBabel11042412253D

 26 26  0  0  1  0  0  0  0  0999 V2000
  190.4170  176.9880  140.4210 C   0  0  0  0  0  0  0  0  0  0  0  0
  189.5980  176.5450  142.6770 C   0  0  0  0  0  0  0  0  0  0  0  0
  189.4020  176.5860  141.2930 C   0  0  0  0  0  3  0  0  0  0  0  0
  191.8840  177.2960  142.3280 C   0  0  0  0  0  3  0  0  0  0  0  0
  191.2040  176.8160  144.6470 C   0  0  0  0  0  1  0  0  0  0  0  0
  190.8670  176.8970  143.1990 C   0  0  0  0  0  0  0  0  0  0  0  0
  191.6740  177.3520  140.9460 C   0  0  0  0  0  0  0  0  0  0  0  0
  192.7360  177.7710  140.0870 N   0  0  0  0  0  2  0  0  0  0  0  0
  193.8880  177.0660  139.9880 O   0  0  0  0  0  1  0  0  0  0  0  0
  188.5060  176.1360  143.4610 O   0  0  0  0  0  0  0  0  0  0  0  0
  187.4080  176.9620  143.8260 C   0  0  0  0  0  2  0  0  0  0  0  0
  187.8050  177.8630  144.8960 N   0  0  0  0  0  2  0  0  0  0  0  0
  186.8930  177.6350  146.0030 C   0  0  1  0  0  3  0  0  0  0  0  0
  187.6240  177.8530  147.2900 C   0  0  0  0  0  3  0  0  0  0  0  0
  188.6490  177.0780  147.6350 C   0  0  0  0  0  2  0  0  0  0  0  0
  185.7110  178.5880  145.8830 C   0  0  0  0  0  2  0  0  0  0  0  0
  185.4990  179.2460  147.0950 O   0  0  0  0  0  1  0  0  0  0  0  0
  190.1010  176.9850  138.9500 C   0  0  1  0  0  3  0  0  0  0  0  0
  190.9700  176.0780  138.1230 C   0  0  0  0  0  0  0  0  0  0  0  0
  191.6280  176.5500  136.9940 O   0  0  0  0  0  0  0  0  0  0  0  0
  191.0810  174.8660  138.4430 O   0  0  0  0  0  1  0  0  0  0  0  0
  188.5990  177.0020  138.6280 C   0  0  2  0  0  3  0  0  0  0  0  0
  188.2020  176.0710  137.4920 C   0  0  0  0  0  1  0  0  0  0  0  0
  186.8830  178.6520  138.5620 O   0  0  0  0  0  1  0  0  0  0  0  0
  188.9730  179.3990  137.9970 O   0  0  0  0  0  0  0  0  0  0  0  0
  188.1000  178.3900  138.3870 C   0  0  0  0  0  0  0  0  0  0  0  0
  1  7  2  0  0  0  0
  1  3  1  0  0  0  0
  2  6  1  0  0  0  0
  2 10  1  0  0  0  0
  3  2  2  0  0  0  0
  4  6  2  0  0  0  0
  6  5  1  0  0  0  0
  7  4  1  0  0  0  0
  8  7  1  0  0  0  0
  9  8  1  0  0  0  0
 10 11  1  0  0  0  0
 11 12  1  0  0  0  0
 12 13  1  0  0  0  0
 13 16  1  6  0  0  0
 13 14  1  0  0  0  0
 14 15  2  0  0  0  0
 16 17  1  0  0  0  0
 18 19  1  1  0  0  0
 18  1  1  0  0  0  0
 19 21  1  0  0  0  0
 20 19  2  0  0  0  0
 22 23  1  6  0  0  0
 22 18  1  0  0  0  0
 25 26  2  0  0  0  0
 26 24  1  0  0  0  0
 26 22  1  0  0  0  0
M  END
>  <MODEL>
5

>  <REMARK>
 VINA RESULT:      -7.2      3.167      5.410
  Name = 
  11 active torsions:
  status: ('A' for Active; 'I' for Inactive)
    1  A    between atoms: C_1  and  C_21
    2  A    between atoms: C_3  and  O_14
    3  A    between atoms: C_6  and  C_17
    4  A    between atoms: C_6  and  C_21
    5  A    between atoms: C_7  and  CA_24
    6  A    between atoms: C_9  and  C_21
    7  A    between atoms: C_10  and  CA_24
    8  A    between atoms: N_11  and  C_20
    9  A    between atoms: N_11  and  CA_24
   10  A    between atoms: O_14  and  C_20
   11  A    between atoms: N_18  and  C_23
                            x       y       z     vdW  Elec       q    Type
                         _______ _______ _______ _____ _____    ______ ____

>  <TORSDO>
F 11

$$$$
=
 OpenBabel11042412253D

 26 26  0  0  1  0  0  0  0  0999 V2000
  189.3290  177.7760  145.1940 C   0  0  0  0  0  0  0  0  0  0  0  0
  187.4520  178.0240  146.7350 C   0  0  0  0  0  0  0  0  0  0  0  0
  187.9850  178.0670  145.4420 C   0  0  0  0  0  3  0  0  0  0  0  0
  189.6390  177.3570  147.5630 C   0  0  0  0  0  3  0  0  0  0  0  0
  187.8130  177.5020  149.2110 C   0  0  0  0  0  1  0  0  0  0  0  0
  188.2960  177.6520  147.8100 C   0  0  0  0  0  0  0  0  0  0  0  0
  190.1680  177.4200  146.2690 C   0  0  0  0  0  0  0  0  0  0  0  0
  191.5490  177.1180  146.0560 N   0  0  0  0  0  2  0  0  0  0  0  0
  192.1290  176.0270  146.6100 O   0  0  0  0  0  1  0  0  0  0  0  0
  186.0920  178.3460  146.8710 O   0  0  0  0  0  0  0  0  0  0  0  0
  185.0570  177.9120  145.9960 C   0  0  0  0  0  2  0  0  0  0  0  0
  184.1260  179.0030  145.7580 N   0  0  0  0  0  2  0  0  0  0  0  0
  184.2040  179.3250  144.3440 C   0  0  1  0  0  3  0  0  0  0  0  0
  184.9730  178.2530  143.6400 C   0  0  0  0  0  3  0  0  0  0  0  0
  185.2090  178.3240  142.3330 C   0  0  0  0  0  2  0  0  0  0  0  0
  182.7950  179.4410  143.7790 C   0  0  0  0  0  2  0  0  0  0  0  0
  181.9680  178.4690  144.3440 O   0  0  0  0  0  1  0  0  0  0  0  0
  189.7930  177.8410  143.7640 C   0  0  1  0  0  3  0  0  0  0  0  0
  191.1180  178.5240  143.5650 C   0  0  0  0  0  0  0  0  0  0  0  0
  191.3150  179.8390  143.9690 O   0  0  0  0  0  1  0  0  0  0  0  0
  192.0560  177.9020  143.0010 O   0  0  0  0  0  0  0  0  0  0  0  0
  189.5370  176.5590  142.9580 C   0  0  2  0  0  3  0  0  0  0  0  0
  190.5520  175.4560  143.2190 C   0  0  0  0  0  1  0  0  0  0  0  0
  188.4420  177.5280  141.0790 O   0  0  0  0  0  1  0  0  0  0  0  0
  190.3590  176.3690  140.5980 O   0  0  0  0  0  0  0  0  0  0  0  0
  189.4080  176.8400  141.4970 C   0  0  0  0  0  0  0  0  0  0  0  0
  1  3  2  0  0  0  0
  1  7  1  0  0  0  0
  2 10  1  0  0  0  0
  2  6  2  0  0  0  0
  3  2  1  0  0  0  0
  4  6  1  0  0  0  0
  6  5  1  0  0  0  0
  7  4  2  0  0  0  0
  8  7  1  0  0  0  0
  8  9  1  0  0  0  0
 11 10  1  0  0  0  0
 12 11  1  0  0  0  0
 13 14  1  6  0  0  0
 13 12  1  0  0  0  0
 15 14  2  0  0  0  0
 16 13  1  0  0  0  0
 16 17  1  0  0  0  0
 18 19  1  1  0  0  0
 18  1  1  0  0  0  0
 19 20  1  0  0  0  0
 21 19  2  0  0  0  0
 22 23  1  6  0  0  0
 22 18  1  0  0  0  0
 24 26  1  0  0  0  0
 25 26  2  0  0  0  0
 26 22  1  0  0  0  0
M  END
>  <MODEL>
6

>  <REMARK>
 VINA RESULT:      -7.2      1.795      2.476
  Name = 
  11 active torsions:
  status: ('A' for Active; 'I' for Inactive)
    1  A    between atoms: C_1  and  C_21
    2  A    between atoms: C_3  and  O_14
    3  A    between atoms: C_6  and  C_17
    4  A    between atoms: C_6  and  C_21
    5  A    between atoms: C_7  and  CA_24
    6  A    between atoms: C_9  and  C_21
    7  A    between atoms: C_10  and  CA_24
    8  A    between atoms: N_11  and  C_20
    9  A    between atoms: N_11  and  CA_24
   10  A    between atoms: O_14  and  C_20
   11  A    between atoms: N_18  and  C_23
                            x       y       z     vdW  Elec       q    Type
                         _______ _______ _______ _____ _____    ______ ____

>  <TORSDO>
F 11

$$$$
=
 OpenBabel11042412253D

 26 26  0  0  1  0  0  0  0  0999 V2000
  188.0340  177.4140  144.7600 C   0  0  0  0  0  0  0  0  0  0  0  0
  185.9720  178.3800  143.8790 C   0  0  0  0  0  0  0  0  0  0  0  0
  187.2580  177.8630  143.6880 C   0  0  0  0  0  3  0  0  0  0  0  0
  186.2140  177.9710  146.2640 C   0  0  0  0  0  3  0  0  0  0  0  0
  184.0570  178.8830  145.4960 C   0  0  0  0  0  1  0  0  0  0  0  0
  185.4410  178.4230  145.1910 C   0  0  0  0  0  0  0  0  0  0  0  0
  187.5060  177.4720  146.0660 C   0  0  0  0  0  0  0  0  0  0  0  0
  188.2690  177.0250  147.1880 N   0  0  0  0  0  2  0  0  0  0  0  0
  188.4870  177.8220  148.2600 O   0  0  0  0  0  1  0  0  0  0  0  0
  185.2860  178.8130  142.7330 O   0  0  0  0  0  0  0  0  0  0  0  0
  184.3070  178.0560  142.0310 C   0  0  0  0  0  2  0  0  0  0  0  0
  183.3280  178.9500  141.4350 N   0  0  0  0  0  2  0  0  0  0  0  0
  182.0170  178.4100  141.7450 C   0  0  1  0  0  3  0  0  0  0  0  0
  181.4170  179.1970  142.8670 C   0  0  0  0  0  3  0  0  0  0  0  0
  180.6930  178.6010  143.8110 C   0  0  0  0  0  2  0  0  0  0  0  0
  181.1390  178.4830  140.5020 C   0  0  0  0  0  2  0  0  0  0  0  0
  181.5720  179.5140  139.6680 O   0  0  0  0  0  1  0  0  0  0  0  0
  189.3980  176.8670  144.4400 C   0  0  1  0  0  3  0  0  0  0  0  0
  189.5660  176.3850  143.0250 C   0  0  0  0  0  0  0  0  0  0  0  0
  189.1580  177.1640  141.9490 O   0  0  0  0  0  0  0  0  0  0  0  0
  190.0600  175.2470  142.8140 O   0  0  0  0  0  1  0  0  0  0  0  0
  190.5580  177.6690  145.0490 C   0  0  2  0  0  3  0  0  0  0  0  0
  191.3100  178.5260  144.0410 C   0  0  0  0  0  1  0  0  0  0  0  0
  191.7550  177.0660  147.0170 O   0  0  0  0  0  1  0  0  0  0  0  0
  192.0580  175.6690  145.2270 O   0  0  0  0  0  0  0  0  0  0  0  0
  191.4940  176.7940  145.8170 C   0  0  0  0  0  0  0  0  0  0  0  0
  1  7  1  0  0  0  0
  2  6  2  0  0  0  0
  3  2  1  0  0  0  0
  3  1  2  0  0  0  0
  6  5  1  0  0  0  0
  6  4  1  0  0  0  0
  7  4  2  0  0  0  0
  7  8  1  0  0  0  0
  8  9  1  0  0  0  0
 10  2  1  0  0  0  0
 11 10  1  0  0  0  0
 12 13  1  0  0  0  0
 12 11  1  0  0  0  0
 13 16  1  6  0  0  0
 13 14  1  0  0  0  0
 14 15  2  0  0  0  0
 17 16  1  0  0  0  0
 18 19  1  6  0  0  0
 18  1  1  0  0  0  0
 18 22  1  0  0  0  0
 20 19  2  0  0  0  0
 21 19  1  0  0  0  0
 22 23  1  6  0  0  0
 22 26  1  0  0  0  0
 25 26  2  0  0  0  0
 26 24  1  0  0  0  0
M  END
>  <MODEL>
7

>  <REMARK>
 VINA RESULT:      -7.1      2.090      3.372
  Name = 
  11 active torsions:
  status: ('A' for Active; 'I' for Inactive)
    1  A    between atoms: C_1  and  C_21
    2  A    between atoms: C_3  and  O_14
    3  A    between atoms: C_6  and  C_17
    4  A    between atoms: C_6  and  C_21
    5  A    between atoms: C_7  and  CA_24
    6  A    between atoms: C_9  and  C_21
    7  A    between atoms: C_10  and  CA_24
    8  A    between atoms: N_11  and  C_20
    9  A    between atoms: N_11  and  CA_24
   10  A    between atoms: O_14  and  C_20
   11  A    between atoms: N_18  and  C_23
                            x       y       z     vdW  Elec       q    Type
                         _______ _______ _______ _____ _____    ______ ____

>  <TORSDO>
F 11

$$$$
=
 OpenBabel11042412253D

 26 26  0  0  1  0  0  0  0  0999 V2000
  188.1400  177.5050  143.5680 C   0  0  0  0  0  0  0  0  0  0  0  0
  186.8400  178.4180  141.7150 C   0  0  0  0  0  0  0  0  0  0  0  0
  188.0380  177.9210  142.2380 C   0  0  0  0  0  3  0  0  0  0  0  0
  185.7990  178.0560  143.8830 C   0  0  0  0  0  3  0  0  0  0  0  0
  184.3590  178.9160  142.0780 C   0  0  0  0  0  1  0  0  0  0  0  0
  185.6990  178.4750  142.5540 C   0  0  0  0  0  0  0  0  0  0  0  0
  187.0060  177.5770  144.4030 C   0  0  0  0  0  0  0  0  0  0  0  0
  187.0710  177.1630  145.7690 N   0  0  0  0  0  2  0  0  0  0  0  0
  186.8160  178.0240  146.7830 O   0  0  0  0  0  1  0  0  0  0  0  0
  186.8530  178.8180  140.3690 O   0  0  0  0  0  0  0  0  0  0  0  0
  187.5430  178.1470  139.3230 C   0  0  0  0  0  2  0  0  0  0  0  0
  188.7950  178.8310  139.0410 N   0  0  0  0  0  2  0  0  0  0  0  0
  189.4390  178.1080  137.9600 C   0  0  1  0  0  3  0  0  0  0  0  0
  190.3660  177.0860  138.5390 C   0  0  0  0  0  3  0  0  0  0  0  0
  191.3700  176.5870  137.8230 C   0  0  0  0  0  2  0  0  0  0  0  0
  188.3740  177.4460  137.0950 C   0  0  0  0  0  2  0  0  0  0  0  0
  188.6930  177.5900  135.7450 O   0  0  0  0  0  1  0  0  0  0  0  0
  189.4730  176.9760  144.0220 C   0  0  1  0  0  3  0  0  0  0  0  0
  190.2950  176.3300  142.9420 C   0  0  0  0  0  0  0  0  0  0  0  0
  190.9770  177.0970  142.0050 O   0  0  0  0  0  0  0  0  0  0  0  0
  190.3440  175.0750  142.8690 O   0  0  0  0  0  1  0  0  0  0  0  0
  190.2110  177.8930  145.0100 C   0  0  2  0  0  3  0  0  0  0  0  0
  191.1970  178.8440  144.3490 C   0  0  0  0  0  1  0  0  0  0  0  0
  192.0430  176.7020  145.9570 O   0  0  0  0  0  0  0  0  0  0  0  0
  190.1910  176.8640  147.2960 O   0  0  0  0  0  1  0  0  0  0  0  0
  190.8640  177.1150  146.1060 C   0  0  0  0  0  0  0  0  0  0  0  0
  1 18  1  0  0  0  0
  1  7  1  0  0  0  0
  2  3  1  0  0  0  0
  2  6  2  0  0  0  0
  3  1  2  0  0  0  0
  4  7  2  0  0  0  0
  5  6  1  0  0  0  0
  6  4  1  0  0  0  0
  7  8  1  0  0  0  0
  8  9  1  0  0  0  0
 10  2  1  0  0  0  0
 11 10  1  0  0  0  0
 12 11  1  0  0  0  0
 13 16  1  1  0  0  0
 13 14  1  0  0  0  0
 13 12  1  0  0  0  0
 15 14  2  0  0  0  0
 17 16  1  0  0  0  0
 18 19  1  6  0  0  0
 18 22  1  0  0  0  0
 20 19  2  0  0  0  0
 21 19  1  0  0  0  0
 22 23  1  6  0  0  0
 22 26  1  0  0  0  0
 24 26  2  0  0  0  0
 26 25  1  0  0  0  0
M  END
>  <MODEL>
8

>  <REMARK>
 VINA RESULT:      -7.0      2.869      5.344
  Name = 
  11 active torsions:
  status: ('A' for Active; 'I' for Inactive)
    1  A    between atoms: C_1  and  C_21
    2  A    between atoms: C_3  and  O_14
    3  A    between atoms: C_6  and  C_17
    4  A    between atoms: C_6  and  C_21
    5  A    between atoms: C_7  and  CA_24
    6  A    between atoms: C_9  and  C_21
    7  A    between atoms: C_10  and  CA_24
    8  A    between atoms: N_11  and  C_20
    9  A    between atoms: N_11  and  CA_24
   10  A    between atoms: O_14  and  C_20
   11  A    between atoms: N_18  and  C_23
                            x       y       z     vdW  Elec       q    Type
                         _______ _______ _______ _____ _____    ______ ____

>  <TORSDO>
F 11

$$$$
=
 OpenBabel11042412253D

 26 26  0  0  1  0  0  0  0  0999 V2000
  187.9550  177.4610  144.4760 C   0  0  0  0  0  0  0  0  0  0  0  0
  185.9780  178.1810  143.2370 C   0  0  0  0  0  0  0  0  0  0  0  0
  187.2890  177.6950  143.2700 C   0  0  0  0  0  3  0  0  0  0  0  0
  185.9680  178.1800  145.6690 C   0  0  0  0  0  3  0  0  0  0  0  0
  183.8860  178.8600  144.5400 C   0  0  0  0  0  1  0  0  0  0  0  0
  185.3060  178.4160  144.4620 C   0  0  0  0  0  0  0  0  0  0  0  0
  187.2860  177.7110  145.6920 C   0  0  0  0  0  0  0  0  0  0  0  0
  187.9340  177.4870  146.9460 N   0  0  0  0  0  2  0  0  0  0  0  0
  187.7670  178.3320  147.9900 O   0  0  0  0  0  1  0  0  0  0  0  0
  185.4100  178.3900  141.9700 O   0  0  0  0  0  0  0  0  0  0  0  0
  186.0680  179.0060  140.8700 C   0  0  0  0  0  2  0  0  0  0  0  0
  185.7700  178.2780  139.6480 N   0  0  0  0  0  2  0  0  0  0  0  0
  186.8730  178.5150  138.7330 C   0  0  1  0  0  3  0  0  0  0  0  0
  188.0250  177.6420  139.1210 C   0  0  0  0  0  3  0  0  0  0  0  0
  189.2010  177.7470  138.5080 C   0  0  0  0  0  2  0  0  0  0  0  0
  186.4180  178.2130  137.3120 C   0  0  0  0  0  2  0  0  0  0  0  0
  185.9710  176.8950  137.2190 O   0  0  0  0  0  1  0  0  0  0  0  0
  189.3590  176.9280  144.3940 C   0  0  1  0  0  3  0  0  0  0  0  0
  189.7760  176.4630  143.0270 C   0  0  0  0  0  0  0  0  0  0  0  0
  189.8530  177.3510  141.9600 O   0  0  0  0  0  0  0  0  0  0  0  0
  190.0350  175.2460  142.8400 O   0  0  0  0  0  1  0  0  0  0  0  0
  190.3870  177.7320  145.2050 C   0  0  2  0  0  3  0  0  0  0  0  0
  191.2160  178.6930  144.3670 C   0  0  0  0  0  1  0  0  0  0  0  0
  192.0560  176.0530  145.4610 O   0  0  0  0  0  0  0  0  0  0  0  0
  191.2190  176.9000  147.4180 O   0  0  0  0  0  1  0  0  0  0  0  0
  191.2600  176.8430  146.0300 C   0  0  0  0  0  0  0  0  0  0  0  0
  1  7  1  0  0  0  0
  2  3  1  0  0  0  0
  2  6  2  0  0  0  0
  3  1  2  0  0  0  0
  4  7  2  0  0  0  0
  6  5  1  0  0  0  0
  6  4  1  0  0  0  0
  7  8  1  0  0  0  0
  8  9  1  0  0  0  0
 10  2  1  0  0  0  0
 11 10  1  0  0  0  0
 12 11  1  0  0  0  0
 13 16  1  6  0  0  0
 13 14  1  0  0  0  0
 13 12  1  0  0  0  0
 15 14  2  0  0  0  0
 17 16  1  0  0  0  0
 18 19  1  6  0  0  0
 18  1  1  0  0  0  0
 18 22  1  0  0  0  0
 20 19  2  0  0  0  0
 21 19  1  0  0  0  0
 22 23  1  6  0  0  0
 22 26  1  0  0  0  0
 24 26  2  0  0  0  0
 26 25  1  0  0  0  0
M  END
>  <MODEL>
9

>  <REMARK>
 VINA RESULT:      -6.7      2.482      4.331
  Name = 
  11 active torsions:
  status: ('A' for Active; 'I' for Inactive)
    1  A    between atoms: C_1  and  C_21
    2  A    between atoms: C_3  and  O_14
    3  A    between atoms: C_6  and  C_17
    4  A    between atoms: C_6  and  C_21
    5  A    between atoms: C_7  and  CA_24
    6  A    between atoms: C_9  and  C_21
    7  A    between atoms: C_10  and  CA_24
    8  A    between atoms: N_11  and  C_20
    9  A    between atoms: N_11  and  CA_24
   10  A    between atoms: O_14  and  C_20
   11  A    between atoms: N_18  and  C_23
                            x       y       z     vdW  Elec       q    Type
                         _______ _______ _______ _____ _____    ______ ____

>  <TORSDO>
F 11

$$$$
