=
 OpenBabel11042411203D

 25 29  0  0  1  0  0  0  0  0999 V2000
  188.6120  177.0720  147.9970 O   0  0  0  0  0  0  0  0  0  0  0  0
  181.4370  177.2380  140.0210 C   0  0  0  0  0  0  0  0  0  0  0  0
  183.6160  177.4280  139.8990 C   0  0  0  0  0  3  0  0  0  0  0  0
  187.9110  177.3720  146.9960 C   0  0  0  0  0  0  0  0  0  0  0  0
  184.9460  178.5510  143.9700 C   0  0  0  0  0  0  0  0  0  0  0  0
  181.0890  178.5270  142.0680 N   0  0  0  0  0  0  0  0  0  0  0  0
  185.6580  178.3860  141.8510 C   0  0  0  0  0  2  0  0  0  0  0  0
  184.2480  178.9230  141.8130 C   0  0  2  0  0  3  0  0  0  0  0  0
  188.3420  177.2780  145.7510 O   0  0  0  0  0  0  0  0  0  0  0  0
  185.0530  178.4530  145.3710 C   0  0  0  0  0  3  0  0  0  0  0  0
  183.8900  178.9190  143.2630 C   0  0  2  0  0  3  0  0  0  0  0  0
  180.0900  176.8860  139.7210 N   0  0  0  0  0  1  0  0  0  0  0  0
  186.2860  177.9970  145.8490 C   0  0  0  0  0  0  0  0  0  0  0  0
  183.3160  178.0530  141.0390 C   0  0  0  0  0  0  0  0  0  0  0  0
  182.4380  176.8900  139.2840 N   0  0  0  0  0  0  0  0  0  0  0  0
  187.3300  177.6660  145.0170 C   0  0  0  0  0  0  0  0  0  0  0  0
  187.2340  177.7580  143.6240 C   0  0  0  0  0  0  0  0  0  0  0  0
  181.8700  177.9970  141.1730 C   0  0  0  0  0  0  0  0  0  0  0  0
  186.6640  177.8040  147.0860 O   0  0  0  0  0  0  0  0  0  0  0  0
  182.6230  179.3930  143.8240 C   0  0  0  0  0  3  0  0  0  0  0  0
  181.4150  179.2470  143.2710 C   0  0  0  0  0  3  0  0  0  0  0  0
  185.9980  178.2160  143.1220 C   0  0  0  0  0  0  0  0  0  0  0  0
  188.3960  177.4390  142.7400 C   0  0  0  0  0  2  0  0  0  0  0  0
  188.6400  176.0040  142.7460 N   0  0  0  0  0  2  0  0  0  0  0  0
  190.0800  175.8420  142.8270 C   0  0  0  0  0  1  0  0  0  0  0  0
  2 18  1  0  0  0  0
  3 14  2  0  0  0  0
  4 19  1  0  0  0  0
  4  1  2  0  0  0  0
  5 10  1  0  0  0  0
  6 21  1  0  0  0  0
  7 22  1  0  0  0  0
  8  7  1  1  0  0  0
  8 11  1  0  0  0  0
  9  4  1  0  0  0  0
 10 13  2  0  0  0  0
 11 20  1  1  0  0  0
 11  5  1  0  0  0  0
 12  2  1  0  0  0  0
 13 19  1  0  0  0  0
 14 18  1  0  0  0  0
 14  8  1  0  0  0  0
 15  3  1  0  0  0  0
 15  2  2  0  0  0  0
 16  9  1  0  0  0  0
 16 13  1  0  0  0  0
 17 16  2  0  0  0  0
 18  6  2  0  0  0  0
 21 20  2  0  0  0  0
 22 17  1  0  0  0  0
 22  5  2  0  0  0  0
 23 24  1  0  0  0  0
 23 17  1  0  0  0  0
 24 25  1  0  0  0  0
M  END
>  <MODEL>
1

>  <REMARK>
 VINA RESULT:      -8.6      0.000      0.000
  Name = 
  2 active torsions:
  status: ('A' for Active; 'I' for Inactive)
    1  A    between atoms: N_3  and  C_17
    2  A    between atoms: C_17  and  C_19
                            x       y       z     vdW  Elec       q    Type
                         _______ _______ _______ _____ _____    ______ ____

>  <TORSDO>
F 2

$$$$
=
 OpenBabel11042411203D

 25 29  0  0  1  0  0  0  0  0999 V2000
  189.1000  179.2270  136.8280 O   0  0  0  0  0  0  0  0  0  0  0  0
  188.4190  178.0330  147.4700 C   0  0  0  0  0  0  0  0  0  0  0  0
  189.6960  176.9540  146.0560 C   0  0  0  0  0  3  0  0  0  0  0  0
  188.9620  178.7820  137.9970 C   0  0  0  0  0  0  0  0  0  0  0  0
  187.8560  177.5660  142.0760 C   0  0  0  0  0  0  0  0  0  0  0  0
  186.4150  178.1900  146.0800 N   0  0  0  0  0  2  0  0  0  0  0  0
  189.4140  176.3600  143.1460 C   0  0  0  0  0  2  0  0  0  0  0  0
  188.2290  176.4920  144.0730 C   0  0  2  0  0  3  0  0  0  0  0  0
  189.8830  178.0660  138.6180 O   0  0  0  0  0  0  0  0  0  0  0  0
  187.3100  178.2900  140.9990 C   0  0  0  0  0  3  0  0  0  0  0  0
  187.3160  177.3550  143.2660 C   0  0  2  0  0  3  0  0  0  0  0  0
  187.9560  178.6970  148.6420 N   0  0  0  0  0  1  0  0  0  0  0  0
  188.1230  178.3850  139.8640 C   0  0  0  0  0  0  0  0  0  0  0  0
  188.5730  177.1550  145.3640 C   0  0  0  0  0  0  0  0  0  0  0  0
  189.6050  177.5360  147.3620 N   0  0  0  0  0  2  0  0  0  0  0  0
  189.3710  177.8100  139.7950 C   0  0  0  0  0  0  0  0  0  0  0  0
  189.9230  177.0890  140.8590 C   0  0  0  0  0  0  0  0  0  0  0  0
  187.6560  177.8440  146.2570 C   0  0  0  0  0  0  0  0  0  0  0  0
  187.8830  178.9930  138.7320 O   0  0  0  0  0  0  0  0  0  0  0  0
  185.9710  177.7740  143.6680 C   0  0  0  0  0  3  0  0  0  0  0  0
  185.5860  178.0980  144.9060 C   0  0  0  0  0  3  0  0  0  0  0  0
  189.1180  176.9830  142.0130 C   0  0  0  0  0  0  0  0  0  0  0  0
  191.2610  176.4330  140.7460 C   0  0  0  0  0  2  0  0  0  0  0  0
  192.3120  177.4180  140.9540 N   0  0  0  0  0  2  0  0  0  0  0  0
  193.1940  177.3140  139.8060 C   0  0  0  0  0  1  0  0  0  0  0  0
  1  4  2  0  0  0  0
  2 12  1  0  0  0  0
  3 15  1  0  0  0  0
  4  9  1  0  0  0  0
  4 19  1  0  0  0  0
  5 11  1  0  0  0  0
  6 18  1  0  0  0  0
  8  7  1  6  0  0  0
  8 14  1  0  0  0  0
  9 16  1  0  0  0  0
 10  5  2  0  0  0  0
 11 20  1  6  0  0  0
 11  8  1  0  0  0  0
 13 10  1  0  0  0  0
 14  3  2  0  0  0  0
 14 18  1  0  0  0  0
 15  2  1  0  0  0  0
 16 13  2  0  0  0  0
 16 17  1  0  0  0  0
 17 22  2  0  0  0  0
 18  2  2  0  0  0  0
 19 13  1  0  0  0  0
 20 21  2  0  0  0  0
 21  6  1  0  0  0  0
 22  5  1  0  0  0  0
 22  7  1  0  0  0  0
 23 17  1  0  0  0  0
 23 24  1  0  0  0  0
 25 24  1  0  0  0  0
M  END
>  <MODEL>
2

>  <REMARK>
 VINA RESULT:      -8.4      4.773      6.980
  Name = 
  2 active torsions:
  status: ('A' for Active; 'I' for Inactive)
    1  A    between atoms: N_3  and  C_17
    2  A    between atoms: C_17  and  C_19
                            x       y       z     vdW  Elec       q    Type
                         _______ _______ _______ _____ _____    ______ ____

>  <TORSDO>
F 2

$$$$
=
 OpenBabel11042411203D

 25 29  0  0  1  0  0  0  0  0999 V2000
  184.0870  180.2930  138.9750 O   0  0  0  0  0  0  0  0  0  0  0  0
  190.9780  177.3980  146.6750 C   0  0  0  0  0  0  0  0  0  0  0  0
  191.0150  176.8800  144.5470 C   0  0  0  0  0  3  0  0  0  0  0  0
  184.8230  179.6590  139.7760 C   0  0  0  0  0  0  0  0  0  0  0  0
  186.9080  177.6170  143.0660 C   0  0  0  0  0  0  0  0  0  0  0  0
  188.5620  177.2730  147.0220 N   0  0  0  0  0  0  0  0  0  0  0  0
  188.8610  176.6770  142.4930 C   0  0  0  0  0  2  0  0  0  0  0  0
  188.6280  176.3800  143.9560 C   0  0  2  0  0  3  0  0  0  0  0  0
  185.9690  179.1020  139.4280 O   0  0  0  0  0  0  0  0  0  0  0  0
  185.7200  178.3410  142.8490 C   0  0  0  0  0  3  0  0  0  0  0  0
  187.3490  177.1080  144.2050 C   0  0  2  0  0  3  0  0  0  0  0  0
  191.3960  177.7480  147.9910 N   0  0  0  0  0  1  0  0  0  0  0  0
  185.5240  178.7970  141.5400 C   0  0  0  0  0  0  0  0  0  0  0  0
  189.7120  176.9060  144.8340 C   0  0  0  0  0  0  0  0  0  0  0  0
  191.8000  177.2220  145.6960 N   0  0  0  0  0  0  0  0  0  0  0  0
  186.4240  178.5570  140.5280 C   0  0  0  0  0  0  0  0  0  0  0  0
  187.6080  177.8400  140.7330 C   0  0  0  0  0  0  0  0  0  0  0  0
  189.6080  177.2130  146.2510 C   0  0  0  0  0  0  0  0  0  0  0  0
  184.5280  179.4910  141.0550 O   0  0  0  0  0  0  0  0  0  0  0  0
  186.6190  177.1270  145.4750 C   0  0  0  0  0  3  0  0  0  0  0  0
  187.1640  177.1600  146.6950 C   0  0  0  0  0  3  0  0  0  0  0  0
  187.8230  177.3720  142.0460 C   0  0  0  0  0  0  0  0  0  0  0  0
  188.5490  177.5500  139.6080 C   0  0  0  0  0  2  0  0  0  0  0  0
  189.0820  178.7960  139.0790 N   0  0  0  0  0  2  0  0  0  0  0  0
  188.9820  178.6940  137.6350 C   0  0  0  0  0  1  0  0  0  0  0  0
  1  4  2  0  0  0  0
  2 12  1  0  0  0  0
  3 14  2  0  0  0  0
  3 15  1  0  0  0  0
  4 19  1  0  0  0  0
  5 11  1  0  0  0  0
  8  7  1  6  0  0  0
  8 11  1  0  0  0  0
  8 14  1  0  0  0  0
  9  4  1  0  0  0  0
  9 16  1  0  0  0  0
 10  5  1  0  0  0  0
 11 20  1  6  0  0  0
 13 10  2  0  0  0  0
 14 18  1  0  0  0  0
 15  2  2  0  0  0  0
 16 17  2  0  0  0  0
 16 13  1  0  0  0  0
 17 22  1  0  0  0  0
 18  2  1  0  0  0  0
 18  6  2  0  0  0  0
 19 13  1  0  0  0  0
 20 21  2  0  0  0  0
 21  6  1  0  0  0  0
 22  7  1  0  0  0  0
 22  5  2  0  0  0  0
 23 17  1  0  0  0  0
 24 23  1  0  0  0  0
 25 24  1  0  0  0  0
M  END
>  <MODEL>
3

>  <REMARK>
 VINA RESULT:      -8.1      4.354      7.218
  Name = 
  2 active torsions:
  status: ('A' for Active; 'I' for Inactive)
    1  A    between atoms: N_3  and  C_17
    2  A    between atoms: C_17  and  C_19
                            x       y       z     vdW  Elec       q    Type
                         _______ _______ _______ _____ _____    ______ ____

>  <TORSDO>
F 2

$$$$
=
 OpenBabel11042411203D

 25 29  0  0  1  0  0  0  0  0999 V2000
  191.5750  175.3970  143.6350 O   0  0  0  0  0  0  0  0  0  0  0  0
  181.4380  178.3440  141.7130 C   0  0  0  0  0  0  0  0  0  0  0  0
  183.1860  178.5440  140.4100 C   0  0  0  0  0  3  0  0  0  0  0  0
  190.5220  176.0270  143.3540 C   0  0  0  0  0  0  0  0  0  0  0  0
  186.7070  178.1960  143.0710 C   0  0  0  0  0  0  0  0  0  0  0  0
  182.5280  178.8600  143.8390 N   0  0  0  0  0  0  0  0  0  0  0  0
  186.1050  178.7580  140.9860 C   0  0  0  0  0  2  0  0  0  0  0  0
  185.0450  179.2900  141.9210 C   0  0  2  0  0  3  0  0  0  0  0  0
  190.1790  176.3600  142.1230 O   0  0  0  0  0  0  0  0  0  0  0  0
  187.5340  177.6260  144.0580 C   0  0  0  0  0  3  0  0  0  0  0  0
  185.5390  178.7940  143.2400 C   0  0  2  0  0  3  0  0  0  0  0  0
  180.1050  178.1280  142.1680 N   0  0  0  0  0  1  0  0  0  0  0  0
  188.7040  177.0210  143.5860 C   0  0  0  0  0  0  0  0  0  0  0  0
  183.6880  178.7450  141.6290 C   0  0  0  0  0  0  0  0  0  0  0  0
  181.7830  178.2600  140.4720 N   0  0  0  0  0  0  0  0  0  0  0  0
  189.0350  176.9840  142.2520 C   0  0  0  0  0  0  0  0  0  0  0  0
  188.2220  177.5480  141.2630 C   0  0  0  0  0  0  0  0  0  0  0  0
  182.5700  178.6600  142.5540 C   0  0  0  0  0  0  0  0  0  0  0  0
  189.6430  176.4150  144.2640 O   0  0  0  0  0  0  0  0  0  0  0  0
  184.9070  179.0600  144.5350 C   0  0  0  0  0  3  0  0  0  0  0  0
  183.5930  179.1230  144.7710 C   0  0  0  0  0  3  0  0  0  0  0  0
  187.0360  178.1620  141.7190 C   0  0  0  0  0  0  0  0  0  0  0  0
  188.6240  177.5390  139.8230 C   0  0  0  0  0  2  0  0  0  0  0  0
  188.9920  178.8840  139.4060 N   0  0  0  0  0  2  0  0  0  0  0  0
  189.0490  178.8530  137.9560 C   0  0  0  0  0  1  0  0  0  0  0  0
  2 12  1  0  0  0  0
  2 18  1  0  0  0  0
  3 15  1  0  0  0  0
  3 14  2  0  0  0  0
  4  1  2  0  0  0  0
  4 19  1  0  0  0  0
  5 11  1  0  0  0  0
  5 10  1  0  0  0  0
  6 21  1  0  0  0  0
  7 22  1  0  0  0  0
  8  7  1  6  0  0  0
  8 11  1  0  0  0  0
  9 16  1  0  0  0  0
  9  4  1  0  0  0  0
 11 20  1  1  0  0  0
 13 10  2  0  0  0  0
 13 19  1  0  0  0  0
 14  8  1  0  0  0  0
 14 18  1  0  0  0  0
 15  2  2  0  0  0  0
 16 13  1  0  0  0  0
 17 22  1  0  0  0  0
 17 16  2  0  0  0  0
 18  6  2  0  0  0  0
 20 21  2  0  0  0  0
 22  5  2  0  0  0  0
 23 17  1  0  0  0  0
 24 23  1  0  0  0  0
 25 24  1  0  0  0  0
M  END
>  <MODEL>
4

>  <REMARK>
 VINA RESULT:      -8.1      2.187      3.095
  Name = 
  2 active torsions:
  status: ('A' for Active; 'I' for Inactive)
    1  A    between atoms: N_3  and  C_17
    2  A    between atoms: C_17  and  C_19
                            x       y       z     vdW  Elec       q    Type
                         _______ _______ _______ _____ _____    ______ ____

>  <TORSDO>
F 2

$$$$
=
 OpenBabel11042411203D

 25 29  0  0  1  0  0  0  0  0999 V2000
  180.4780  179.9060  143.5510 O   0  0  0  0  0  0  0  0  0  0  0  0
  191.1210  178.6260  144.0140 C   0  0  0  0  0  0  0  0  0  0  0  0
  189.7570  178.1150  142.3790 C   0  0  0  0  0  3  0  0  0  0  0  0
  181.6510  179.4520  143.5380 C   0  0  0  0  0  0  0  0  0  0  0  0
  185.7250  177.9340  144.2000 C   0  0  0  0  0  0  0  0  0  0  0  0
  189.6840  177.9820  145.8820 N   0  0  0  0  0  0  0  0  0  0  0  0
  186.8520  177.4360  142.3280 C   0  0  0  0  0  2  0  0  0  0  0  0
  187.7500  177.1050  143.4970 C   0  0  2  0  0  3  0  0  0  0  0  0
  182.3050  179.1540  142.4290 O   0  0  0  0  0  0  0  0  0  0  0  0
  184.6230  178.3810  144.9530 C   0  0  0  0  0  3  0  0  0  0  0  0
  186.9060  177.5400  144.6490 C   0  0  2  0  0  3  0  0  0  0  0  0
  192.2700  179.0680  144.7310 N   0  0  0  0  0  1  0  0  0  0  0  0
  183.5060  178.7750  144.2090 C   0  0  0  0  0  0  0  0  0  0  0  0
  189.0360  177.8600  143.4720 C   0  0  0  0  0  0  0  0  0  0  0  0
  191.0500  178.6270  142.7250 N   0  0  0  0  0  0  0  0  0  0  0  0
  183.4750  178.7290  142.8340 C   0  0  0  0  0  0  0  0  0  0  0  0
  184.5650  178.2870  142.0760 C   0  0  0  0  0  0  0  0  0  0  0  0
  189.8950  178.1460  144.6090 C   0  0  0  0  0  0  0  0  0  0  0  0
  182.3580  179.2330  144.6350 O   0  0  0  0  0  0  0  0  0  0  0  0
  187.2700  177.4080  146.0620 C   0  0  0  0  0  3  0  0  0  0  0  0
  188.4930  177.5670  146.5770 C   0  0  0  0  0  3  0  0  0  0  0  0
  185.7010  177.8860  142.8090 C   0  0  0  0  0  0  0  0  0  0  0  0
  184.4940  178.2000  140.5860 C   0  0  0  0  0  2  0  0  0  0  0  0
  184.8380  179.4880  140.0010 N   0  0  0  0  0  2  0  0  0  0  0  0
  183.7630  179.8100  139.0800 C   0  0  0  0  0  1  0  0  0  0  0  0
  2 18  1  0  0  0  0
  2 12  1  0  0  0  0
  3 15  1  0  0  0  0
  3 14  2  0  0  0  0
  4  1  2  0  0  0  0
  4 19  1  0  0  0  0
  5 11  1  0  0  0  0
  5 10  1  0  0  0  0
  6 21  1  0  0  0  0
  7 22  1  0  0  0  0
  8  7  1  6  0  0  0
  8 11  1  0  0  0  0
  9 16  1  0  0  0  0
  9  4  1  0  0  0  0
 11 20  1  1  0  0  0
 13 19  1  0  0  0  0
 13 10  2  0  0  0  0
 14  8  1  0  0  0  0
 14 18  1  0  0  0  0
 15  2  2  0  0  0  0
 16 13  1  0  0  0  0
 17 22  1  0  0  0  0
 17 16  2  0  0  0  0
 18  6  2  0  0  0  0
 20 21  2  0  0  0  0
 22  5  2  0  0  0  0
 23 17  1  0  0  0  0
 24 23  1  0  0  0  0
 25 24  1  0  0  0  0
M  END
>  <MODEL>
5

>  <REMARK>
 VINA RESULT:      -8.1      3.042      6.782
  Name = 
  2 active torsions:
  status: ('A' for Active; 'I' for Inactive)
    1  A    between atoms: N_3  and  C_17
    2  A    between atoms: C_17  and  C_19
                            x       y       z     vdW  Elec       q    Type
                         _______ _______ _______ _____ _____    ______ ____

>  <TORSDO>
F 2

$$$$
=
 OpenBabel11042411203D

 25 29  0  0  1  0  0  0  0  0999 V2000
  188.8390  178.5430  150.0060 O   0  0  0  0  0  0  0  0  0  0  0  0
  188.6810  178.5760  139.2770 C   0  0  0  0  0  0  0  0  0  0  0  0
  187.0300  178.1910  140.6640 C   0  0  0  0  0  3  0  0  0  0  0  0
  188.7020  178.2530  148.7900 C   0  0  0  0  0  0  0  0  0  0  0  0
  188.9300  177.1760  144.5320 C   0  0  0  0  0  0  0  0  0  0  0  0
  190.4500  177.4340  140.5170 N   0  0  0  0  0  0  0  0  0  0  0  0
  186.9590  177.1650  143.4640 C   0  0  0  0  0  2  0  0  0  0  0  0
  188.0150  176.7510  142.4680 C   0  0  2  0  0  3  0  0  0  0  0  0
  187.5350  178.2420  148.1700 O   0  0  0  0  0  0  0  0  0  0  0  0
  189.7910  177.3380  145.6340 C   0  0  0  0  0  3  0  0  0  0  0  0
  189.2570  176.8640  143.2880 C   0  0  2  0  0  3  0  0  0  0  0  0
  189.4240  179.0270  138.1500 N   0  0  0  0  0  1  0  0  0  0  0  0
  189.1710  177.7110  146.8320 C   0  0  0  0  0  0  0  0  0  0  0  0
  188.0830  177.6570  141.2840 C   0  0  0  0  0  0  0  0  0  0  0  0
  187.4170  178.7960  139.4240 N   0  0  0  0  0  0  0  0  0  0  0  0
  187.8140  177.9060  146.9370 C   0  0  0  0  0  0  0  0  0  0  0  0
  186.9490  177.7470  145.8480 C   0  0  0  0  0  0  0  0  0  0  0  0
  189.2210  177.8450  140.4010 C   0  0  0  0  0  0  0  0  0  0  0  0
  189.7140  177.9360  148.0000 O   0  0  0  0  0  0  0  0  0  0  0  0
  190.6080  176.5320  142.8290 C   0  0  0  0  0  3  0  0  0  0  0  0
  191.1000  176.7530  141.6070 C   0  0  0  0  0  3  0  0  0  0  0  0
  187.5550  177.3720  144.6310 C   0  0  0  0  0  0  0  0  0  0  0  0
  185.4710  177.9170  145.9950 C   0  0  0  0  0  2  0  0  0  0  0  0
  185.1180  179.3200  145.8320 N   0  0  0  0  0  2  0  0  0  0  0  0
  184.2120  179.3760  144.7000 C   0  0  0  0  0  1  0  0  0  0  0  0
  2 15  2  0  0  0  0
  2 18  1  0  0  0  0
  3 14  2  0  0  0  0
  4  1  2  0  0  0  0
  5 22  2  0  0  0  0
  5 10  1  0  0  0  0
  6 21  1  0  0  0  0
  7 22  1  0  0  0  0
  8 11  1  0  0  0  0
  8  7  1  1  0  0  0
  9  4  1  0  0  0  0
 10 13  2  0  0  0  0
 11 20  1  1  0  0  0
 11  5  1  0  0  0  0
 12  2  1  0  0  0  0
 13 16  1  0  0  0  0
 13 19  1  0  0  0  0
 14  8  1  0  0  0  0
 15  3  1  0  0  0  0
 16  9  1  0  0  0  0
 17 23  1  0  0  0  0
 17 16  2  0  0  0  0
 18  6  2  0  0  0  0
 18 14  1  0  0  0  0
 19  4  1  0  0  0  0
 21 20  2  0  0  0  0
 22 17  1  0  0  0  0
 24 23  1  0  0  0  0
 25 24  1  0  0  0  0
M  END
>  <MODEL>
6

>  <REMARK>
 VINA RESULT:      -7.8      3.181      5.621
  Name = 
  2 active torsions:
  status: ('A' for Active; 'I' for Inactive)
    1  A    between atoms: N_3  and  C_17
    2  A    between atoms: C_17  and  C_19
                            x       y       z     vdW  Elec       q    Type
                         _______ _______ _______ _____ _____    ______ ____

>  <TORSDO>
F 2

$$$$
=
 OpenBabel11042411203D

 25 29  0  0  1  0  0  0  0  0999 V2000
  187.6450  176.9250  148.7780 O   0  0  0  0  0  0  0  0  0  0  0  0
  189.5620  176.1110  138.2520 C   0  0  0  0  0  0  0  0  0  0  0  0
  191.0020  176.3320  139.8870 C   0  0  0  0  0  3  0  0  0  0  0  0
  188.0270  177.1040  147.5930 C   0  0  0  0  0  0  0  0  0  0  0  0
  188.6840  177.9000  143.3180 C   0  0  0  0  0  0  0  0  0  0  0  0
  187.8250  177.5980  139.1140 N   0  0  0  0  0  0  0  0  0  0  0  0
  190.7780  177.5300  142.6100 C   0  0  0  0  0  2  0  0  0  0  0  0
  189.9840  178.0310  141.4280 C   0  0  2  0  0  3  0  0  0  0  0  0
  189.2650  176.8900  147.1860 O   0  0  0  0  0  0  0  0  0  0  0  0
  187.6380  177.9510  144.2590 C   0  0  0  0  0  3  0  0  0  0  0  0
  188.6220  178.1710  142.0240 C   0  0  2  0  0  3  0  0  0  0  0  0
  188.9500  175.7020  137.0330 N   0  0  0  0  0  1  0  0  0  0  0  0
  187.9820  177.5730  145.5620 C   0  0  0  0  0  0  0  0  0  0  0  0
  189.9640  177.0660  140.2910 C   0  0  0  0  0  0  0  0  0  0  0  0
  190.7310  175.7090  138.6250 N   0  0  0  0  0  0  0  0  0  0  0  0
  189.2530  177.1780  145.9090 C   0  0  0  0  0  0  0  0  0  0  0  0
  190.2990  177.1230  144.9820 C   0  0  0  0  0  0  0  0  0  0  0  0
  188.9710  176.9940  139.2320 C   0  0  0  0  0  0  0  0  0  0  0  0
  187.2240  177.5180  146.6250 O   0  0  0  0  0  0  0  0  0  0  0  0
  187.4390  178.6750  141.3230 C   0  0  0  0  0  3  0  0  0  0  0  0
  187.1260  178.4470  140.0440 C   0  0  0  0  0  3  0  0  0  0  0  0
  189.9720  177.5010  143.6630 C   0  0  0  0  0  0  0  0  0  0  0  0
  191.6840  176.7370  145.3910 C   0  0  0  0  0  2  0  0  0  0  0  0
  191.8460  176.9310  146.8240 N   0  0  0  0  0  2  0  0  0  0  0  0
  192.4050  175.6930  147.3360 C   0  0  0  0  0  1  0  0  0  0  0  0
  2 15  2  0  0  0  0
  2 18  1  0  0  0  0
  3 14  2  0  0  0  0
  4  1  2  0  0  0  0
  5 22  2  0  0  0  0
  5 10  1  0  0  0  0
  6 18  2  0  0  0  0
  6 21  1  0  0  0  0
  7 22  1  0  0  0  0
  8 11  1  0  0  0  0
  8  7  1  1  0  0  0
  9  4  1  0  0  0  0
 10 13  2  0  0  0  0
 11 20  1  1  0  0  0
 11  5  1  0  0  0  0
 12  2  1  0  0  0  0
 13 16  1  0  0  0  0
 13 19  1  0  0  0  0
 14  8  1  0  0  0  0
 15  3  1  0  0  0  0
 16  9  1  0  0  0  0
 17 23  1  0  0  0  0
 17 16  2  0  0  0  0
 18 14  1  0  0  0  0
 19  4  1  0  0  0  0
 21 20  2  0  0  0  0
 22 17  1  0  0  0  0
 23 24  1  0  0  0  0
 24 25  1  0  0  0  0
M  END
>  <MODEL>
7

>  <REMARK>
 VINA RESULT:      -7.6      3.919      5.426
  Name = 
  2 active torsions:
  status: ('A' for Active; 'I' for Inactive)
    1  A    between atoms: N_3  and  C_17
    2  A    between atoms: C_17  and  C_19
                            x       y       z     vdW  Elec       q    Type
                         _______ _______ _______ _____ _____    ______ ____

>  <TORSDO>
F 2

$$$$
=
 OpenBabel11042411203D

 25 29  0  0  1  0  0  0  0  0999 V2000
  184.7680  178.2790  146.8860 O   0  0  0  0  0  0  0  0  0  0  0  0
  189.6420  175.6760  137.6880 C   0  0  0  0  0  0  0  0  0  0  0  0
  190.5380  176.4210  139.5430 C   0  0  0  0  0  3  0  0  0  0  0  0
  185.4530  178.2720  145.8310 C   0  0  0  0  0  0  0  0  0  0  0  0
  187.2230  178.2900  141.8060 C   0  0  0  0  0  0  0  0  0  0  0  0
  187.6160  177.0420  137.7080 N   0  0  0  0  0  0  0  0  0  0  0  0
  189.4560  178.0900  141.7660 C   0  0  0  0  0  2  0  0  0  0  0  0
  188.9890  178.2290  140.3360 C   0  0  2  0  0  3  0  0  0  0  0  0
  186.7700  178.1610  145.8180 O   0  0  0  0  0  0  0  0  0  0  0  0
  185.9540  178.3770  142.4080 C   0  0  0  0  0  3  0  0  0  0  0  0
  187.5080  178.2880  140.5130 C   0  0  2  0  0  3  0  0  0  0  0  0
  189.4370  174.9510  136.4800 N   0  0  0  0  0  1  0  0  0  0  0  0
  185.9460  178.3170  143.8060 C   0  0  0  0  0  0  0  0  0  0  0  0
  189.3710  177.0640  139.4860 C   0  0  0  0  0  0  0  0  0  0  0  0
  190.6870  175.5280  138.4320 N   0  0  0  0  0  2  0  0  0  0  0  0
  187.0950  178.1850  144.5500 C   0  0  0  0  0  0  0  0  0  0  0  0
  188.3610  178.0970  143.9620 C   0  0  0  0  0  0  0  0  0  0  0  0
  188.7280  176.6430  138.2530 C   0  0  0  0  0  0  0  0  0  0  0  0
  184.9260  178.3670  144.6220 O   0  0  0  0  0  0  0  0  0  0  0  0
  186.5330  178.4680  139.4350 C   0  0  0  0  0  2  0  0  0  0  0  0
  186.6140  177.9490  138.2060 C   0  0  0  0  0  3  0  0  0  0  0  0
  188.3900  178.1560  142.5530 C   0  0  0  0  0  0  0  0  0  0  0  0
  189.6010  178.0020  144.7910 C   0  0  0  0  0  2  0  0  0  0  0  0
  189.9790  176.6060  144.9530 N   0  0  0  0  0  2  0  0  0  0  0  0
  191.3850  176.5270  144.6010 C   0  0  0  0  0  1  0  0  0  0  0  0
  2 18  2  0  0  0  0
  2 15  1  0  0  0  0
  4  1  2  0  0  0  0
  5 10  2  0  0  0  0
  5 22  1  0  0  0  0
  6 21  2  0  0  0  0
  6 18  1  0  0  0  0
  7 22  1  0  0  0  0
  8 11  1  0  0  0  0
  8  7  1  1  0  0  0
  9  4  1  0  0  0  0
 10 13  1  0  0  0  0
 11 20  1  1  0  0  0
 11  5  1  0  0  0  0
 12  2  1  0  0  0  0
 13 16  2  0  0  0  0
 13 19  1  0  0  0  0
 14  3  2  0  0  0  0
 14  8  1  0  0  0  0
 15  3  1  0  0  0  0
 16  9  1  0  0  0  0
 17 16  1  0  0  0  0
 17 23  1  0  0  0  0
 18 14  1  0  0  0  0
 19  4  1  0  0  0  0
 21 20  1  0  0  0  0
 22 17  2  0  0  0  0
 23 24  1  0  0  0  0
 25 24  1  0  0  0  0
M  END
>  <MODEL>
8

>  <REMARK>
 VINA RESULT:      -7.5      3.464      5.280
  Name = 
  2 active torsions:
  status: ('A' for Active; 'I' for Inactive)
    1  A    between atoms: N_3  and  C_17
    2  A    between atoms: C_17  and  C_19
                            x       y       z     vdW  Elec       q    Type
                         _______ _______ _______ _____ _____    ______ ____

>  <TORSDO>
F 2

$$$$
=
 OpenBabel11042411203D

 25 29  0  0  1  0  0  0  0  0999 V2000
  191.6000  175.2720  136.0800 O   0  0  0  0  0  0  0  0  0  0  0  0
  188.1320  177.1840  146.0530 C   0  0  0  0  0  0  0  0  0  0  0  0
  187.2050  177.7580  144.1530 C   0  0  0  0  0  3  0  0  0  0  0  0
  191.1940  175.7990  137.1480 C   0  0  0  0  0  0  0  0  0  0  0  0
  190.4270  177.5080  141.1270 C   0  0  0  0  0  0  0  0  0  0  0  0
  190.4650  177.5560  145.4280 N   0  0  0  0  0  2  0  0  0  0  0  0
  188.3350  178.2510  141.4370 C   0  0  0  0  0  2  0  0  0  0  0  0
  189.1050  178.5270  142.7060 C   0  0  2  0  0  3  0  0  0  0  0  0
  189.9610  176.2410  137.3190 O   0  0  0  0  0  0  0  0  0  0  0  0
  191.4870  176.9210  140.4090 C   0  0  0  0  0  3  0  0  0  0  0  0
  190.4350  177.9330  142.3800 C   0  0  2  0  0  3  0  0  0  0  0  0
  188.3050  176.7530  147.3990 N   0  0  0  0  0  1  0  0  0  0  0  0
  191.1830  176.5280  139.1010 C   0  0  0  0  0  0  0  0  0  0  0  0
  188.5110  177.8630  143.9010 C   0  0  0  0  0  0  0  0  0  0  0  0
  186.9750  177.3000  145.4920 N   0  0  0  0  0  2  0  0  0  0  0  0
  189.9370  176.7010  138.5440 C   0  0  0  0  0  0  0  0  0  0  0  0
  188.8770  177.2820  139.2480 C   0  0  0  0  0  0  0  0  0  0  0  0
  189.1970  177.5270  145.1380 C   0  0  0  0  0  0  0  0  0  0  0  0
  191.9580  175.9590  138.2160 O   0  0  0  0  0  0  0  0  0  0  0  0
  191.6100  177.9540  143.2550 C   0  0  0  0  0  3  0  0  0  0  0  0
  191.6020  177.8270  144.5860 C   0  0  0  0  0  3  0  0  0  0  0  0
  189.1640  177.6840  140.5700 C   0  0  0  0  0  0  0  0  0  0  0  0
  187.5440  177.5030  138.6090 C   0  0  0  0  0  2  0  0  0  0  0  0
  187.5950  178.6860  137.7620 N   0  0  0  0  0  2  0  0  0  0  0  0
  187.1730  178.2530  136.4420 C   0  0  0  0  0  1  0  0  0  0  0  0
  1  4  2  0  0  0  0
  2 12  1  0  0  0  0
  3 15  1  0  0  0  0
  4  9  1  0  0  0  0
  4 19  1  0  0  0  0
  5 11  1  0  0  0  0
  8  7  1  6  0  0  0
  8 14  1  0  0  0  0
  9 16  1  0  0  0  0
 10  5  2  0  0  0  0
 11  8  1  0  0  0  0
 11 20  1  6  0  0  0
 13 10  1  0  0  0  0
 14  3  2  0  0  0  0
 14 18  1  0  0  0  0
 15  2  1  0  0  0  0
 16 13  2  0  0  0  0
 16 17  1  0  0  0  0
 17 22  2  0  0  0  0
 18  6  1  0  0  0  0
 18  2  2  0  0  0  0
 19 13  1  0  0  0  0
 20 21  2  0  0  0  0
 21  6  1  0  0  0  0
 22  5  1  0  0  0  0
 22  7  1  0  0  0  0
 23 17  1  0  0  0  0
 24 23  1  0  0  0  0
 25 24  1  0  0  0  0
M  END
>  <MODEL>
9

>  <REMARK>
 VINA RESULT:      -7.4      5.236      7.983
  Name = 
  2 active torsions:
  status: ('A' for Active; 'I' for Inactive)
    1  A    between atoms: N_3  and  C_17
    2  A    between atoms: C_17  and  C_19
                            x       y       z     vdW  Elec       q    Type
                         _______ _______ _______ _____ _____    ______ ____

>  <TORSDO>
F 2

$$$$
