=
 OpenBabel11042410273D

 29 33  0  0  1  0  0  0  0  0999 V2000
  187.1600  178.0160  142.3000 S   0  0  0  0  0  0  0  0  0  0  0  0
  188.6690  177.7030  142.9830 C   0  0  0  0  0  0  0  0  0  0  0  0
  190.8960  177.0830  144.6980 C   0  0  1  0  0  0  0  0  0  0  0  0
  186.2850  177.7570  143.7130 C   0  0  0  0  0  0  0  0  0  0  0  0
  191.5060  178.3990  144.2800 C   0  0  0  0  0  2  0  0  0  0  0  0
  190.0210  177.8680  142.3310 C   0  0  1  0  0  3  0  0  0  0  0  0
  187.1540  177.4480  144.7560 C   0  0  0  0  0  3  0  0  0  0  0  0
  189.5560  177.1850  145.1790 O   0  0  0  0  0  0  0  0  0  0  0  0
  188.4870  177.4360  144.3280 C   0  0  0  0  0  0  0  0  0  0  0  0
  191.1850  177.3450  143.2170 C   0  0  2  0  0  3  0  0  0  0  0  0
  190.0380  177.2440  140.9970 N   0  0  1  0  0  0  0  0  0  0  0  0
  189.1770  177.9880  140.1670 N   0  0  0  0  0  2  0  0  0  0  0  0
  189.7120  177.8710  138.8260 C   0  0  0  0  0  2  0  0  0  0  0  0
  191.1470  177.4850  139.0110 C   0  0  1  0  0  3  0  0  0  0  0  0
  191.3310  177.3580  140.4440 N   0  0  0  0  0  2  0  0  0  0  0  0
  191.4490  176.1870  138.3240 C   0  0  0  0  0  0  0  0  0  0  0  0
  191.2850  174.2400  137.2610 C   0  0  0  0  0  3  0  0  0  0  0  0
  193.6030  176.5080  137.2920 N   0  0  0  0  0  1  0  0  0  0  0  0
  190.5450  175.3670  137.8100 C   0  0  0  0  0  3  0  0  0  0  0  0
  192.8180  175.6300  138.1420 C   0  0  2  0  0  3  0  0  0  0  0  0
  192.5570  174.3820  137.4420 N   0  0  0  0  0  0  0  0  0  0  0  0
  184.8890  177.8530  143.7920 O   0  0  0  0  0  0  0  0  0  0  0  0
  182.6950  178.8070  144.1980 C   0  0  0  0  0  1  0  0  0  0  0  0
  184.7100  180.2170  144.1060 C   0  0  0  0  0  1  0  0  0  0  0  0
  184.3910  178.6960  146.0130 C   0  0  0  0  0  1  0  0  0  0  0  0
  184.1790  178.8590  144.5170 C   0  0  0  0  0  0  0  0  0  0  0  0
  191.8540  176.1850  145.4580 C   0  0  0  0  0  2  0  0  0  0  0  0
  191.6440  176.3330  146.9260 C   0  0  0  0  0  3  0  0  0  0  0  0
  192.5650  175.9780  147.7420 N   0  0  0  0  0  2  0  0  0  0  0  0
  1  2  1  0  0  0  0
  1  4  1  0  0  0  0
  2  9  2  0  0  0  0
  3  8  1  0  0  0  0
  3 27  1  1  0  0  0
  4 22  1  0  0  0  0
  4  7  2  0  0  0  0
  5  3  1  0  0  0  0
  6  2  1  1  0  0  0
  6 10  1  0  0  0  0
  9  7  1  0  0  0  0
  9  8  1  0  0  0  0
 10  5  1  1  0  0  0
 10  3  1  0  0  0  0
 11 12  1  6  0  0  0
 11  6  1  0  0  0  0
 13 14  1  0  0  0  0
 13 12  1  0  0  0  0
 14 16  1  6  0  0  0
 14 15  1  0  0  0  0
 15 11  1  0  0  0  0
 17 21  2  0  0  0  0
 17 19  1  0  0  0  0
 19 16  2  0  0  0  0
 20 18  1  6  0  0  0
 20 16  1  0  0  0  0
 21 20  1  0  0  0  0
 22 26  1  0  0  0  0
 23 26  1  0  0  0  0
 24 26  1  0  0  0  0
 26 25  1  0  0  0  0
 27 28  1  0  0  0  0
 28 29  2  0  0  0  0
M  END
>  <MODEL>
1

>  <REMARK>
 VINA RESULT:      -8.4      0.000      0.000
  Name = 
  6 active torsions:
  status: ('A' for Active; 'I' for Inactive)
    1  A    between atoms: C_1  and  C_25
    2  A    between atoms: C_6  and  C_23
    3  A    between atoms: C_7  and  O_10
    4  A    between atoms: O_10  and  C_27
    5  A    between atoms: C_11  and  N_18
    6  A    between atoms: C_14  and  C_23
                            x       y       z     vdW  Elec       q    Type
                         _______ _______ _______ _____ _____    ______ ____

>  <TORSDO>
F 6

$$$$
=
 OpenBabel11042410273D

 29 33  0  0  1  0  0  0  0  0999 V2000
  188.3080  177.7750  141.9130 S   0  0  0  0  0  0  0  0  0  0  0  0
  188.4780  177.8300  140.2370 C   0  0  0  0  0  0  0  0  0  0  0  0
  189.3440  177.6320  137.4990 C   0  0  1  0  0  0  0  0  0  0  0  0
  189.7710  176.9980  142.2000 C   0  0  0  0  0  0  0  0  0  0  0  0
  189.1570  179.1270  137.3960 C   0  0  0  0  0  2  0  0  0  0  0  0
  187.5750  178.5280  139.2470 C   0  0  1  0  0  3  0  0  0  0  0  0
  190.4390  176.7900  140.9960 C   0  0  0  0  0  3  0  0  0  0  0  0
  190.1550  177.2190  138.5980 O   0  0  0  0  0  0  0  0  0  0  0  0
  189.7020  177.2740  139.9090 C   0  0  0  0  0  0  0  0  0  0  0  0
  187.9650  178.2420  137.7710 C   0  0  2  0  0  3  0  0  0  0  0  0
  186.1630  178.1990  139.5060 N   0  0  1  0  0  0  0  0  0  0  0  0
  185.5560  179.3380  140.0710 N   0  0  0  0  0  2  0  0  0  0  0  0
  184.1670  179.2960  139.6640 C   0  0  0  0  0  2  0  0  0  0  0  0
  184.1400  178.4090  138.4580 C   0  0  1  0  0  3  0  0  0  0  0  0
  185.5080  177.9590  138.2800 N   0  0  0  0  0  2  0  0  0  0  0  0
  183.2250  177.2400  138.6690 C   0  0  0  0  0  0  0  0  0  0  0  0
  181.7540  175.7990  139.5080 C   0  0  0  0  0  3  0  0  0  0  0  0
  182.5290  176.5800  136.4580 N   0  0  0  0  0  1  0  0  0  0  0  0
  182.4500  177.0580  139.7270 C   0  0  0  0  0  3  0  0  0  0  0  0
  183.0780  176.1040  137.7170 C   0  0  2  0  0  3  0  0  0  0  0  0
  182.0990  175.2610  138.3850 N   0  0  0  0  0  0  0  0  0  0  0  0
  190.2220  176.6350  143.4770 O   0  0  0  0  0  0  0  0  0  0  0  0
  191.2760  178.7760  143.9190 C   0  0  0  0  0  1  0  0  0  0  0  0
  191.5500  176.8710  145.4520 C   0  0  0  0  0  1  0  0  0  0  0  0
  189.3640  177.9880  145.3000 C   0  0  0  0  0  1  0  0  0  0  0  0
  190.5860  177.5570  144.5070 C   0  0  0  0  0  0  0  0  0  0  0  0
  189.5660  176.9550  136.1600 C   0  0  0  0  0  2  0  0  0  0  0  0
  189.9000  175.5160  136.3600 C   0  0  0  0  0  3  0  0  0  0  0  0
  188.9720  174.6770  136.6360 N   0  0  0  0  0  2  0  0  0  0  0  0
  1  4  1  0  0  0  0
  2  1  1  0  0  0  0
  3 27  1  6  0  0  0
  3 10  1  0  0  0  0
  3  8  1  0  0  0  0
  4 22  1  0  0  0  0
  5  3  1  0  0  0  0
  6 11  1  0  0  0  0
  6  2  1  1  0  0  0
  7  4  2  0  0  0  0
  8  9  1  0  0  0  0
  9  2  2  0  0  0  0
  9  7  1  0  0  0  0
 10  5  1  6  0  0  0
 10  6  1  0  0  0  0
 11 15  1  6  0  0  0
 11 12  1  0  0  0  0
 13 12  1  0  0  0  0
 14 16  1  1  0  0  0
 14 13  1  0  0  0  0
 15 14  1  0  0  0  0
 16 19  2  0  0  0  0
 17 19  1  0  0  0  0
 20 18  1  6  0  0  0
 20 21  1  0  0  0  0
 20 16  1  0  0  0  0
 21 17  2  0  0  0  0
 22 26  1  0  0  0  0
 23 26  1  0  0  0  0
 26 25  1  0  0  0  0
 26 24  1  0  0  0  0
 27 28  1  0  0  0  0
 28 29  2  0  0  0  0
M  END
>  <MODEL>
2

>  <REMARK>
 VINA RESULT:      -7.4      3.939      7.384
  Name = 
  6 active torsions:
  status: ('A' for Active; 'I' for Inactive)
    1  A    between atoms: C_1  and  C_25
    2  A    between atoms: C_6  and  C_23
    3  A    between atoms: C_7  and  O_10
    4  A    between atoms: O_10  and  C_27
    5  A    between atoms: C_11  and  N_18
    6  A    between atoms: C_14  and  C_23
                            x       y       z     vdW  Elec       q    Type
                         _______ _______ _______ _____ _____    ______ ____

>  <TORSDO>
F 6

$$$$
=
 OpenBabel11042410273D

 29 33  0  0  1  0  0  0  0  0999 V2000
  187.0070  178.5050  142.0250 S   0  0  0  0  0  0  0  0  0  0  0  0
  188.5060  178.0480  142.6490 C   0  0  0  0  0  0  0  0  0  0  0  0
  190.7030  177.0470  144.2160 C   0  0  1  0  0  0  0  0  0  0  0  0
  186.1050  177.9030  143.3110 C   0  0  0  0  0  0  0  0  0  0  0  0
  191.3030  178.4310  144.1460 C   0  0  0  0  0  2  0  0  0  0  0  0
  189.8690  178.3780  142.0900 C   0  0  1  0  0  3  0  0  0  0  0  0
  186.9560  177.3570  144.2690 C   0  0  0  0  0  3  0  0  0  0  0  0
  189.3510  177.0190  144.6740 O   0  0  0  0  0  0  0  0  0  0  0  0
  188.2970  177.4600  143.8830 C   0  0  0  0  0  0  0  0  0  0  0  0
  191.0200  177.6650  142.8510 C   0  0  2  0  0  3  0  0  0  0  0  0
  189.9230  178.0980  140.6450 N   0  0  1  0  0  0  0  0  0  0  0  0
  191.2260  177.6550  140.3440 N   0  0  0  0  0  2  0  0  0  0  0  0
  191.0940  176.7520  139.2190 C   0  0  0  0  0  2  0  0  0  0  0  0
  189.6620  176.3120  139.2390 C   0  0  1  0  0  3  0  0  0  0  0  0
  189.0540  177.0280  140.3430 N   0  0  0  0  0  2  0  0  0  0  0  0
  188.9770  176.6510  137.9490 C   0  0  0  0  0  0  0  0  0  0  0  0
  187.6620  176.6330  136.1560 C   0  0  0  0  0  3  0  0  0  0  0  0
  189.0060  179.0590  137.8380 N   0  0  0  0  0  1  0  0  0  0  0  0
  188.0140  175.9390  137.3850 C   0  0  0  0  0  3  0  0  0  0  0  0
  189.3050  177.8370  137.1100 C   0  0  2  0  0  3  0  0  0  0  0  0
  188.3790  177.6970  135.9970 N   0  0  0  0  0  0  0  0  0  0  0  0
  184.7070  177.9650  143.3760 O   0  0  0  0  0  0  0  0  0  0  0  0
  184.6160  180.3060  144.0080 C   0  0  0  0  0  1  0  0  0  0  0  0
  183.9540  178.5280  145.5760 C   0  0  0  0  0  1  0  0  0  0  0  0
  182.5290  179.0080  143.6290 C   0  0  0  0  0  1  0  0  0  0  0  0
  183.9660  178.9380  144.1180 C   0  0  0  0  0  0  0  0  0  0  0  0
  191.6560  175.9990  144.7570 C   0  0  0  0  0  2  0  0  0  0  0  0
  191.9690  176.2780  146.1880 C   0  0  0  0  0  3  0  0  0  0  0  0
  192.1990  175.3080  146.9930 N   0  0  0  0  0  2  0  0  0  0  0  0
  1  2  1  0  0  0  0
  1  4  1  0  0  0  0
  2  9  2  0  0  0  0
  3  8  1  0  0  0  0
  3 27  1  1  0  0  0
  4 22  1  0  0  0  0
  4  7  2  0  0  0  0
  5  3  1  0  0  0  0
  6  2  1  1  0  0  0
  6 10  1  0  0  0  0
  9  7  1  0  0  0  0
  9  8  1  0  0  0  0
 10  5  1  1  0  0  0
 10  3  1  0  0  0  0
 11 15  1  1  0  0  0
 11  6  1  0  0  0  0
 12 11  1  0  0  0  0
 13 14  1  0  0  0  0
 13 12  1  0  0  0  0
 14 16  1  6  0  0  0
 14 15  1  0  0  0  0
 17 19  1  0  0  0  0
 19 16  2  0  0  0  0
 20 18  1  1  0  0  0
 20 16  1  0  0  0  0
 21 17  2  0  0  0  0
 21 20  1  0  0  0  0
 22 26  1  0  0  0  0
 23 26  1  0  0  0  0
 25 26  1  0  0  0  0
 26 24  1  0  0  0  0
 27 28  1  0  0  0  0
 28 29  2  0  0  0  0
M  END
>  <MODEL>
3

>  <REMARK>
 VINA RESULT:      -7.3      1.541      2.303
  Name = 
  6 active torsions:
  status: ('A' for Active; 'I' for Inactive)
    1  A    between atoms: C_1  and  C_25
    2  A    between atoms: C_6  and  C_23
    3  A    between atoms: C_7  and  O_10
    4  A    between atoms: O_10  and  C_27
    5  A    between atoms: C_11  and  N_18
    6  A    between atoms: C_14  and  C_23
                            x       y       z     vdW  Elec       q    Type
                         _______ _______ _______ _____ _____    ______ ____

>  <TORSDO>
F 6

$$$$
=
 OpenBabel11042410273D

 29 33  0  0  1  0  0  0  0  0999 V2000
  185.6850  178.7580  140.7910 S   0  0  0  0  0  0  0  0  0  0  0  0
  187.0200  178.3440  141.7340 C   0  0  0  0  0  0  0  0  0  0  0  0
  188.8530  177.6000  143.8260 C   0  0  1  0  0  0  0  0  0  0  0  0
  184.5600  178.6230  142.0330 C   0  0  0  0  0  0  0  0  0  0  0  0
  189.6400  178.8450  143.4940 C   0  0  0  0  0  2  0  0  0  0  0  0
  188.4740  178.3710  141.3260 C   0  0  1  0  0  3  0  0  0  0  0  0
  185.2050  178.2800  143.2190 C   0  0  0  0  0  3  0  0  0  0  0  0
  187.4640  177.8320  144.0610 O   0  0  0  0  0  0  0  0  0  0  0  0
  186.5850  178.1410  143.0310 C   0  0  0  0  0  0  0  0  0  0  0  0
  189.4160  177.7850  142.4130 C   0  0  2  0  0  3  0  0  0  0  0  0
  188.6650  177.7020  140.0280 N   0  0  1  0  0  0  0  0  0  0  0  0
  188.6100  178.6890  139.0250 N   0  0  0  0  0  2  0  0  0  0  0  0
  189.4610  178.2190  137.9520 C   0  0  0  0  0  2  0  0  0  0  0  0
  190.3770  177.2200  138.5900 C   0  0  1  0  0  3  0  0  0  0  0  0
  189.9600  177.1450  139.9760 N   0  0  0  0  0  2  0  0  0  0  0  0
  190.2550  175.8790  137.9290 C   0  0  0  0  0  0  0  0  0  0  0  0
  189.5030  174.0890  136.8450 C   0  0  0  0  0  3  0  0  0  0  0  0
  192.4680  175.3730  137.1210 N   0  0  0  0  0  1  0  0  0  0  0  0
  189.1700  175.4220  137.3230 C   0  0  0  0  0  3  0  0  0  0  0  0
  191.3420  174.8620  137.8830 C   0  0  2  0  0  3  0  0  0  0  0  0
  190.7170  173.7700  137.1540 N   0  0  0  0  0  0  0  0  0  0  0  0
  183.1850  178.8380  141.8640 O   0  0  0  0  0  0  0  0  0  0  0  0
  182.5930  179.3560  139.5690 C   0  0  0  0  0  1  0  0  0  0  0  0
  180.9580  178.3750  141.1250 C   0  0  0  0  0  1  0  0  0  0  0  0
  182.8320  176.9980  140.3210 C   0  0  0  0  0  1  0  0  0  0  0  0
  182.4220  178.4010  140.7370 C   0  0  0  0  0  0  0  0  0  0  0  0
  189.5810  176.6530  144.7590 C   0  0  0  0  0  2  0  0  0  0  0  0
  189.7620  177.2860  146.0960 C   0  0  0  0  0  3  0  0  0  0  0  0
  189.1830  176.7870  147.1240 N   0  0  0  0  0  2  0  0  0  0  0  0
  1  2  1  0  0  0  0
  1  4  1  0  0  0  0
  2  9  2  0  0  0  0
  3  8  1  0  0  0  0
  3 27  1  1  0  0  0
  4  7  2  0  0  0  0
  5  3  1  0  0  0  0
  6  2  1  1  0  0  0
  6 10  1  0  0  0  0
  9  7  1  0  0  0  0
  9  8  1  0  0  0  0
 10  5  1  1  0  0  0
 10  3  1  0  0  0  0
 11 12  1  6  0  0  0
 11  6  1  0  0  0  0
 13 14  1  0  0  0  0
 13 12  1  0  0  0  0
 14 16  1  6  0  0  0
 14 15  1  0  0  0  0
 15 11  1  0  0  0  0
 17 21  2  0  0  0  0
 17 19  1  0  0  0  0
 19 16  2  0  0  0  0
 20 18  1  6  0  0  0
 20 16  1  0  0  0  0
 21 20  1  0  0  0  0
 22  4  1  0  0  0  0
 23 26  1  0  0  0  0
 25 26  1  0  0  0  0
 26 24  1  0  0  0  0
 26 22  1  0  0  0  0
 27 28  1  0  0  0  0
 28 29  2  0  0  0  0
M  END
>  <MODEL>
4

>  <REMARK>
 VINA RESULT:      -7.2      2.182      2.704
  Name = 
  6 active torsions:
  status: ('A' for Active; 'I' for Inactive)
    1  A    between atoms: C_1  and  C_25
    2  A    between atoms: C_6  and  C_23
    3  A    between atoms: C_7  and  O_10
    4  A    between atoms: O_10  and  C_27
    5  A    between atoms: C_11  and  N_18
    6  A    between atoms: C_14  and  C_23
                            x       y       z     vdW  Elec       q    Type
                         _______ _______ _______ _____ _____    ______ ____

>  <TORSDO>
F 6

$$$$
=
 OpenBabel11042410273D

 29 33  0  0  1  0  0  0  0  0999 V2000
  188.9080  177.8620  143.5060 S   0  0  0  0  0  0  0  0  0  0  0  0
  188.7350  177.7830  141.8300 C   0  0  0  0  0  0  0  0  0  0  0  0
  188.8550  177.1430  139.0270 C   0  0  1  0  0  0  0  0  0  0  0  0
  189.9440  176.5430  143.6250 C   0  0  0  0  0  0  0  0  0  0  0  0
  189.2860  178.5690  138.7820 C   0  0  0  0  0  2  0  0  0  0  0  0
  188.0190  178.7680  140.9360 C   0  0  1  0  0  3  0  0  0  0  0  0
  190.2010  176.0290  142.3560 C   0  0  0  0  0  3  0  0  0  0  0  0
  189.6310  176.4580  140.0090 O   0  0  0  0  0  0  0  0  0  0  0  0
  189.5230  176.7460  141.3640 C   0  0  0  0  0  0  0  0  0  0  0  0
  187.9410  178.2930  139.4590 C   0  0  2  0  0  3  0  0  0  0  0  0
  186.6840  179.0850  141.4720 N   0  0  1  0  0  0  0  0  0  0  0  0
  185.8310  179.3250  140.3780 N   0  0  0  0  0  2  0  0  0  0  0  0
  184.5060  178.9250  140.8060 C   0  0  0  0  0  2  0  0  0  0  0  0
  184.7330  177.9920  141.9560 C   0  0  1  0  0  3  0  0  0  0  0  0
  186.1700  177.9560  142.1450 N   0  0  0  0  0  2  0  0  0  0  0  0
  184.0510  178.4910  143.1960 C   0  0  0  0  0  0  0  0  0  0  0  0
  182.5410  179.1460  144.6900 C   0  0  0  0  0  3  0  0  0  0  0  0
  185.4710  177.7950  145.0150 N   0  0  0  0  0  1  0  0  0  0  0  0
  182.7430  178.6280  143.3450 C   0  0  0  0  0  3  0  0  0  0  0  0
  184.7630  178.9210  144.4310 C   0  0  2  0  0  3  0  0  0  0  0  0
  183.6670  179.3110  145.3030 N   0  0  0  0  0  0  0  0  0  0  0  0
  190.4580  176.0640  144.8380 O   0  0  0  0  0  0  0  0  0  0  0  0
  189.9080  177.3860  146.7970 C   0  0  0  0  0  1  0  0  0  0  0  0
  191.6800  178.0810  145.2370 C   0  0  0  0  0  1  0  0  0  0  0  0
  192.0430  176.1180  146.6750 C   0  0  0  0  0  1  0  0  0  0  0  0
  191.0040  176.8840  145.8740 C   0  0  0  0  0  0  0  0  0  0  0  0
  188.4960  176.3920  137.7590 C   0  0  0  0  0  2  0  0  0  0  0  0
  189.6880  175.6690  137.2330 C   0  0  0  0  0  3  0  0  0  0  0  0
  189.7960  174.4040  137.4040 N   0  0  0  0  0  2  0  0  0  0  0  0
  1  4  1  0  0  0  0
  2  1  1  0  0  0  0
  3 27  1  6  0  0  0
  3 10  1  0  0  0  0
  3  8  1  0  0  0  0
  4 22  1  0  0  0  0
  5  3  1  0  0  0  0
  6 11  1  0  0  0  0
  6  2  1  1  0  0  0
  7  4  2  0  0  0  0
  8  9  1  0  0  0  0
  9  2  2  0  0  0  0
  9  7  1  0  0  0  0
 10  5  1  6  0  0  0
 10  6  1  0  0  0  0
 11 12  1  6  0  0  0
 11 15  1  0  0  0  0
 12 13  1  0  0  0  0
 13 14  1  0  0  0  0
 14 15  1  0  0  0  0
 14 16  1  1  0  0  0
 16 19  2  0  0  0  0
 16 20  1  0  0  0  0
 17 21  2  0  0  0  0
 19 17  1  0  0  0  0
 20 18  1  1  0  0  0
 20 21  1  0  0  0  0
 22 26  1  0  0  0  0
 24 26  1  0  0  0  0
 26 25  1  0  0  0  0
 26 23  1  0  0  0  0
 28 29  2  0  0  0  0
 28 27  1  0  0  0  0
M  END
>  <MODEL>
5

>  <REMARK>
 VINA RESULT:      -7.0      2.821      7.481
  Name = 
  6 active torsions:
  status: ('A' for Active; 'I' for Inactive)
    1  A    between atoms: C_1  and  C_25
    2  A    between atoms: C_6  and  C_23
    3  A    between atoms: C_7  and  O_10
    4  A    between atoms: O_10  and  C_27
    5  A    between atoms: C_11  and  N_18
    6  A    between atoms: C_14  and  C_23
                            x       y       z     vdW  Elec       q    Type
                         _______ _______ _______ _____ _____    ______ ____

>  <TORSDO>
F 6

$$$$
=
 OpenBabel11042410273D

 29 33  0  0  1  0  0  0  0  0999 V2000
  185.0350  179.1670  140.5240 S   0  0  0  0  0  0  0  0  0  0  0  0
  186.4650  178.4900  141.1060 C   0  0  0  0  0  0  0  0  0  0  0  0
  188.5280  177.1570  142.6070 C   0  0  1  0  0  0  0  0  0  0  0  0
  184.0810  178.6720  141.8190 C   0  0  0  0  0  0  0  0  0  0  0  0
  189.3170  178.4420  142.5470 C   0  0  0  0  0  2  0  0  0  0  0  0
  187.8500  178.6340  140.5220 C   0  0  1  0  0  3  0  0  0  0  0  0
  184.8650  177.9930  142.7490 C   0  0  0  0  0  3  0  0  0  0  0  0
  187.1950  177.3110  143.0940 O   0  0  0  0  0  0  0  0  0  0  0  0
  186.1990  177.9120  142.3350 C   0  0  0  0  0  0  0  0  0  0  0  0
  188.9030  177.7500  141.2460 C   0  0  2  0  0  3  0  0  0  0  0  0
  187.8350  178.3770  139.0720 N   0  0  1  0  0  0  0  0  0  0  0  0
  188.8720  179.1360  138.4940 N   0  0  0  0  0  2  0  0  0  0  0  0
  189.3120  178.3930  137.3310 C   0  0  0  0  0  2  0  0  0  0  0  0
  188.8590  176.9860  137.5720 C   0  0  1  0  0  3  0  0  0  0  0  0
  188.1460  177.0220  138.8340 N   0  0  0  0  0  2  0  0  0  0  0  0
  187.9570  176.5140  136.4700 C   0  0  0  0  0  0  0  0  0  0  0  0
  186.5090  176.4150  134.7860 C   0  0  0  0  0  3  0  0  0  0  0  0
  188.9920  174.5070  135.6290 N   0  0  0  0  0  1  0  0  0  0  0  0
  187.2240  177.2980  135.6950 C   0  0  0  0  0  3  0  0  0  0  0  0
  187.7480  175.0850  136.1090 C   0  0  2  0  0  3  0  0  0  0  0  0
  186.7990  175.1760  135.0110 N   0  0  0  0  0  0  0  0  0  0  0  0
  182.7080  178.9310  141.9170 O   0  0  0  0  0  0  0  0  0  0  0  0
  182.2050  177.1940  140.2990 C   0  0  0  0  0  1  0  0  0  0  0  0
  181.4570  179.5140  139.9630 C   0  0  0  0  0  1  0  0  0  0  0  0
  180.4150  178.1560  141.7300 C   0  0  0  0  0  1  0  0  0  0  0  0
  181.7180  178.4470  141.0060 C   0  0  0  0  0  0  0  0  0  0  0  0
  189.3330  175.9740  143.1090 C   0  0  0  0  0  2  0  0  0  0  0  0
  190.4500  176.4430  143.9780 C   0  0  0  0  0  3  0  0  0  0  0  0
  191.6230  175.9470  143.8350 N   0  0  0  0  0  2  0  0  0  0  0  0
  1  2  1  0  0  0  0
  1  4  1  0  0  0  0
  2  9  2  0  0  0  0
  3  8  1  0  0  0  0
  3 27  1  1  0  0  0
  4 22  1  0  0  0  0
  4  7  2  0  0  0  0
  5  3  1  0  0  0  0
  6  2  1  1  0  0  0
  6 10  1  0  0  0  0
  9  7  1  0  0  0  0
  9  8  1  0  0  0  0
 10  5  1  1  0  0  0
 10  3  1  0  0  0  0
 11 12  1  6  0  0  0
 11  6  1  0  0  0  0
 13 14  1  0  0  0  0
 13 12  1  0  0  0  0
 14 16  1  6  0  0  0
 14 15  1  0  0  0  0
 15 11  1  0  0  0  0
 17 21  2  0  0  0  0
 17 19  1  0  0  0  0
 19 16  2  0  0  0  0
 20 18  1  6  0  0  0
 20 16  1  0  0  0  0
 21 20  1  0  0  0  0
 23 26  1  0  0  0  0
 24 26  1  0  0  0  0
 26 25  1  0  0  0  0
 26 22  1  0  0  0  0
 27 28  1  0  0  0  0
 29 28  2  0  0  0  0
M  END
>  <MODEL>
6

>  <REMARK>
 VINA RESULT:      -7.0      3.044      3.906
  Name = 
  6 active torsions:
  status: ('A' for Active; 'I' for Inactive)
    1  A    between atoms: C_1  and  C_25
    2  A    between atoms: C_6  and  C_23
    3  A    between atoms: C_7  and  O_10
    4  A    between atoms: O_10  and  C_27
    5  A    between atoms: C_11  and  N_18
    6  A    between atoms: C_14  and  C_23
                            x       y       z     vdW  Elec       q    Type
                         _______ _______ _______ _____ _____    ______ ____

>  <TORSDO>
F 6

$$$$
=
 OpenBabel11042410273D

 29 33  0  0  1  0  0  0  0  0999 V2000
  187.7280  178.6260  140.9840 S   0  0  0  0  0  0  0  0  0  0  0  0
  187.5640  178.0920  139.3930 C   0  0  0  0  0  0  0  0  0  0  0  0
  187.8610  176.8890  136.7950 C   0  0  1  0  0  0  0  0  0  0  0  0
  189.1880  177.8410  141.2690 C   0  0  0  0  0  0  0  0  0  0  0  0
  187.7150  178.2710  136.2060 C   0  0  0  0  0  2  0  0  0  0  0  0
  186.5110  178.5050  138.3930 C   0  0  1  0  0  3  0  0  0  0  0  0
  189.5950  177.1690  140.1190 C   0  0  0  0  0  3  0  0  0  0  0  0
  188.8580  176.7890  137.8110 O   0  0  0  0  0  0  0  0  0  0  0  0
  188.6760  177.3320  139.0770 C   0  0  0  0  0  0  0  0  0  0  0  0
  186.5880  177.6960  137.0690 C   0  0  2  0  0  3  0  0  0  0  0  0
  185.1660  178.4340  138.9900 N   0  0  1  0  0  0  0  0  0  0  0  0
  184.7290  179.7540  139.2160 N   0  0  0  0  0  2  0  0  0  0  0  0
  183.2860  179.7250  139.0960 C   0  0  0  0  0  2  0  0  0  0  0  0
  182.9850  178.4910  138.3010 C   0  0  1  0  0  3  0  0  0  0  0  0
  184.2710  177.8650  138.0590 N   0  0  0  0  0  2  0  0  0  0  0  0
  182.0850  177.5650  139.0640 C   0  0  0  0  0  0  0  0  0  0  0  0
  180.5870  176.7150  140.4710 C   0  0  0  0  0  3  0  0  0  0  0  0
  181.5870  175.7710  137.5340 N   0  0  0  0  0  1  0  0  0  0  0  0
  181.2310  177.9350  140.0070 C   0  0  0  0  0  3  0  0  0  0  0  0
  182.0430  176.0890  138.8760 C   0  0  2  0  0  3  0  0  0  0  0  0
  181.0350  175.6790  139.8410 N   0  0  0  0  0  0  0  0  0  0  0  0
  189.8690  177.8860  142.4930 O   0  0  0  0  0  0  0  0  0  0  0  0
  191.0370  176.0140  143.5020 C   0  0  0  0  0  1  0  0  0  0  0  0
  188.5910  176.0030  143.2280 C   0  0  0  0  0  1  0  0  0  0  0  0
  189.6120  177.5160  144.8780 C   0  0  0  0  0  1  0  0  0  0  0  0
  189.7920  176.8830  143.5090 C   0  0  0  0  0  0  0  0  0  0  0  0
  187.7860  175.7800  135.7640 C   0  0  0  0  0  2  0  0  0  0  0  0
  188.5490  174.5880  136.2340 C   0  0  0  0  0  3  0  0  0  0  0  0
  187.9230  173.5580  136.6670 N   0  0  0  0  0  2  0  0  0  0  0  0
  1  4  1  0  0  0  0
  2  1  1  0  0  0  0
  3 27  1  6  0  0  0
  3 10  1  0  0  0  0
  3  8  1  0  0  0  0
  4 22  1  0  0  0  0
  5  3  1  0  0  0  0
  6 11  1  0  0  0  0
  6  2  1  1  0  0  0
  7  4  2  0  0  0  0
  8  9  1  0  0  0  0
  9  2  2  0  0  0  0
  9  7  1  0  0  0  0
 10  5  1  6  0  0  0
 10  6  1  0  0  0  0
 11 15  1  6  0  0  0
 11 12  1  0  0  0  0
 13 12  1  0  0  0  0
 14 16  1  1  0  0  0
 14 13  1  0  0  0  0
 15 14  1  0  0  0  0
 16 19  2  0  0  0  0
 19 17  1  0  0  0  0
 20 18  1  6  0  0  0
 20 16  1  0  0  0  0
 20 21  1  0  0  0  0
 21 17  2  0  0  0  0
 22 26  1  0  0  0  0
 23 26  1  0  0  0  0
 24 26  1  0  0  0  0
 26 25  1  0  0  0  0
 27 28  1  0  0  0  0
 28 29  2  0  0  0  0
M  END
>  <MODEL>
7

>  <REMARK>
 VINA RESULT:      -6.9      4.347      8.126
  Name = 
  6 active torsions:
  status: ('A' for Active; 'I' for Inactive)
    1  A    between atoms: C_1  and  C_25
    2  A    between atoms: C_6  and  C_23
    3  A    between atoms: C_7  and  O_10
    4  A    between atoms: O_10  and  C_27
    5  A    between atoms: C_11  and  N_18
    6  A    between atoms: C_14  and  C_23
                            x       y       z     vdW  Elec       q    Type
                         _______ _______ _______ _____ _____    ______ ____

>  <TORSDO>
F 6

$$$$
=
 OpenBabel11042410273D

 29 33  0  0  1  0  0  0  0  0999 V2000
  192.0210  176.3820  138.4720 S   0  0  0  0  0  0  0  0  0  0  0  0
  190.3750  176.3800  138.1090 C   0  0  0  0  0  0  0  0  0  0  0  0
  187.7140  175.8280  137.1590 C   0  0  1  0  0  0  0  0  0  0  0  0
  192.3720  174.9600  137.6460 C   0  0  0  0  0  0  0  0  0  0  0  0
  187.7110  177.2110  136.5520 C   0  0  0  0  0  2  0  0  0  0  0  0
  189.3680  177.4630  138.4160 C   0  0  1  0  0  3  0  0  0  0  0  0
  191.2170  174.4660  137.0440 C   0  0  0  0  0  3  0  0  0  0  0  0
  188.8430  175.0340  136.7980 O   0  0  0  0  0  0  0  0  0  0  0  0
  190.1120  175.2840  137.3060 C   0  0  0  0  0  0  0  0  0  0  0  0
  187.9130  177.0510  138.0610 C   0  0  2  0  0  3  0  0  0  0  0  0
  189.4780  177.8960  139.8190 N   0  0  1  0  0  0  0  0  0  0  0  0
  188.3110  178.6180  140.1360 N   0  0  0  0  0  2  0  0  0  0  0  0
  188.0830  178.4100  141.5520 C   0  0  0  0  0  2  0  0  0  0  0  0
  188.8400  177.1620  141.8900 C   0  0  1  0  0  3  0  0  0  0  0  0
  189.4940  176.7620  140.6590 N   0  0  0  0  0  2  0  0  0  0  0  0
  189.8540  177.4230  142.9640 C   0  0  0  0  0  0  0  0  0  0  0  0
  191.6120  178.1500  144.1160 C   0  0  0  0  0  3  0  0  0  0  0  0
  188.6290  177.2670  145.0340 N   0  0  0  0  0  1  0  0  0  0  0  0
  190.9160  178.2040  142.8390 C   0  0  0  0  0  3  0  0  0  0  0  0
  189.8130  176.8160  144.3230 C   0  0  2  0  0  3  0  0  0  0  0  0
  190.9990  177.3760  144.9510 N   0  0  0  0  0  0  0  0  0  0  0  0
  193.6510  174.3890  137.5870 O   0  0  0  0  0  0  0  0  0  0  0  0
  194.3920  173.3690  135.5140 C   0  0  0  0  0  1  0  0  0  0  0  0
  195.9730  174.5010  137.0240 C   0  0  0  0  0  1  0  0  0  0  0  0
  194.3370  175.8420  135.7680 C   0  0  0  0  0  1  0  0  0  0  0  0
  194.5560  174.5220  136.4890 C   0  0  0  0  0  0  0  0  0  0  0  0
  186.3520  175.1630  137.1600 C   0  0  0  0  0  2  0  0  0  0  0  0
  186.5020  173.6820  137.2280 C   0  0  0  0  0  3  0  0  0  0  0  0
  185.7030  172.9910  137.9520 N   0  0  0  0  0  2  0  0  0  0  0  0
  2  1  1  0  0  0  0
  3 27  1  1  0  0  0
  3 10  1  0  0  0  0
  4  1  1  0  0  0  0
  5  3  1  0  0  0  0
  6  2  1  1  0  0  0
  6 11  1  0  0  0  0
  7  9  1  0  0  0  0
  7  4  2  0  0  0  0
  8  3  1  0  0  0  0
  8  9  1  0  0  0  0
  9  2  2  0  0  0  0
 10  5  1  6  0  0  0
 10  6  1  0  0  0  0
 11 12  1  1  0  0  0
 11 15  1  0  0  0  0
 12 13  1  0  0  0  0
 13 14  1  0  0  0  0
 14 16  1  1  0  0  0
 15 14  1  0  0  0  0
 16 20  1  0  0  0  0
 17 21  2  0  0  0  0
 19 16  2  0  0  0  0
 19 17  1  0  0  0  0
 20 21  1  0  0  0  0
 20 18  1  1  0  0  0
 22  4  1  0  0  0  0
 23 26  1  0  0  0  0
 25 26  1  0  0  0  0
 26 24  1  0  0  0  0
 26 22  1  0  0  0  0
 27 28  1  0  0  0  0
 28 29  2  0  0  0  0
M  END
>  <MODEL>
8

>  <REMARK>
 VINA RESULT:      -6.8      3.788      8.868
  Name = 
  6 active torsions:
  status: ('A' for Active; 'I' for Inactive)
    1  A    between atoms: C_1  and  C_25
    2  A    between atoms: C_6  and  C_23
    3  A    between atoms: C_7  and  O_10
    4  A    between atoms: O_10  and  C_27
    5  A    between atoms: C_11  and  N_18
    6  A    between atoms: C_14  and  C_23
                            x       y       z     vdW  Elec       q    Type
                         _______ _______ _______ _____ _____    ______ ____

>  <TORSDO>
F 6

$$$$
=
 OpenBabel11042410273D

 29 33  0  0  1  0  0  0  0  0999 V2000
  186.6470  177.2600  143.2870 S   0  0  0  0  0  0  0  0  0  0  0  0
  187.6010  177.5350  141.9250 C   0  0  0  0  0  0  0  0  0  0  0  0
  188.6940  178.3100  139.3770 C   0  0  1  0  0  0  0  0  0  0  0  0
  185.2960  178.0780  142.7070 C   0  0  0  0  0  0  0  0  0  0  0  0
  189.0000  176.8520  139.1340 C   0  0  0  0  0  2  0  0  0  0  0  0
  188.9720  176.9690  141.6380 C   0  0  1  0  0  3  0  0  0  0  0  0
  185.5510  178.5590  141.4250 C   0  0  0  0  0  3  0  0  0  0  0  0
  187.3410  178.5690  139.7490 O   0  0  0  0  0  0  0  0  0  0  0  0
  186.8440  178.2330  141.0020 C   0  0  0  0  0  0  0  0  0  0  0  0
  189.6080  177.5570  140.3490 C   0  0  2  0  0  3  0  0  0  0  0  0
  189.8600  177.1350  142.8020 N   0  0  1  0  0  0  0  0  0  0  0  0
  190.3270  178.4640  142.7970 N   0  0  0  0  0  2  0  0  0  0  0  0
  190.5500  178.8160  144.1840 C   0  0  0  0  0  2  0  0  0  0  0  0
  189.7190  177.8500  144.9700 C   0  0  1  0  0  3  0  0  0  0  0  0
  189.1120  176.9740  143.9870 N   0  0  0  0  0  2  0  0  0  0  0  0
  190.5680  177.0620  145.9240 C   0  0  0  0  0  0  0  0  0  0  0  0
  192.2240  175.9210  146.8730 C   0  0  0  0  0  3  0  0  0  0  0  0
  189.8730  177.7760  148.1190 N   0  0  0  0  0  1  0  0  0  0  0  0
  191.8020  176.6470  145.6840 C   0  0  0  0  0  3  0  0  0  0  0  0
  190.1250  176.6200  147.2750 C   0  0  2  0  0  3  0  0  0  0  0  0
  191.2910  175.9040  147.7670 N   0  0  0  0  0  0  0  0  0  0  0  0
  184.1060  178.2270  143.4330 O   0  0  0  0  0  0  0  0  0  0  0  0
  184.4530  178.4910  145.8190 C   0  0  0  0  0  1  0  0  0  0  0  0
  182.4490  179.3870  144.7080 C   0  0  0  0  0  1  0  0  0  0  0  0
  184.6320  180.4380  144.2840 C   0  0  0  0  0  1  0  0  0  0  0  0
  183.9290  179.1160  144.5380 C   0  0  0  0  0  0  0  0  0  0  0  0
  189.3440  179.2420  138.3730 C   0  0  0  0  0  2  0  0  0  0  0  0
  188.8280  178.9620  137.0020 C   0  0  0  0  0  3  0  0  0  0  0  0
  187.6420  179.3220  136.6800 N   0  0  0  0  0  2  0  0  0  0  0  0
  2  1  1  0  0  0  0
  3 27  1  6  0  0  0
  3  8  1  0  0  0  0
  3 10  1  0  0  0  0
  4  1  1  0  0  0  0
  4 22  1  0  0  0  0
  5  3  1  0  0  0  0
  6  2  1  1  0  0  0
  6 11  1  0  0  0  0
  7  4  2  0  0  0  0
  8  9  1  0  0  0  0
  9  7  1  0  0  0  0
  9  2  2  0  0  0  0
 10  5  1  6  0  0  0
 10  6  1  0  0  0  0
 11 12  1  1  0  0  0
 11 15  1  0  0  0  0
 12 13  1  0  0  0  0
 13 14  1  0  0  0  0
 14 16  1  1  0  0  0
 15 14  1  0  0  0  0
 16 20  1  0  0  0  0
 17 21  2  0  0  0  0
 19 16  2  0  0  0  0
 19 17  1  0  0  0  0
 20 21  1  0  0  0  0
 20 18  1  1  0  0  0
 22 26  1  0  0  0  0
 25 26  1  0  0  0  0
 26 24  1  0  0  0  0
 26 23  1  0  0  0  0
 28 27  1  0  0  0  0
 29 28  2  0  0  0  0
M  END
>  <MODEL>
9

>  <REMARK>
 VINA RESULT:      -6.6      2.755      6.335
  Name = 
  6 active torsions:
  status: ('A' for Active; 'I' for Inactive)
    1  A    between atoms: C_1  and  C_25
    2  A    between atoms: C_6  and  C_23
    3  A    between atoms: C_7  and  O_10
    4  A    between atoms: O_10  and  C_27
    5  A    between atoms: C_11  and  N_18
    6  A    between atoms: C_14  and  C_23
                            x       y       z     vdW  Elec       q    Type
                         _______ _______ _______ _____ _____    ______ ____

>  <TORSDO>
F 6

$$$$
