=
 OpenBabel11042413163D

 70 76  0  0  1  0  0  0  0  0999 V2000
  189.7570  176.9040  137.8500 C   0  0  0  0  0  2  0  0  0  0  0  0
  191.1430  176.3560  135.8360 C   0  0  0  0  0  0  0  0  0  0  0  0
  189.1290  177.8280  135.5620 C   0  0  0  0  0  2  0  0  0  0  0  0
  189.9850  176.9840  136.4030 N   0  0  0  0  0  0  0  0  0  0  0  0
  187.5360  178.1200  137.5380 C   0  0  2  0  0  3  0  0  0  0  0  0
  192.0710  175.6720  136.6810 N   0  0  0  0  0  2  0  0  0  0  0  0
  187.6830  177.7650  136.0500 C   0  0  0  0  0  2  0  0  0  0  0  0
  188.8680  178.0510  138.3180 C   0  0  1  0  0  3  0  0  0  0  0  0
  191.3540  176.4210  134.5940 O   0  0  0  0  0  0  0  0  0  0  0  0
  194.9010  173.0430  137.1300 C   0  0  1  0  0  3  0  0  0  0  0  0
  193.6680  173.8640  137.0560 C   0  0  2  0  0  0  0  0  0  0  0  0
  194.7550  171.9540  138.2030 C   0  0  0  0  0  2  0  0  0  0  0  0
  194.0960  175.8790  138.2870 O   0  0  0  0  0  1  0  0  0  0  0  0
  193.0490  171.7780  136.1290 C   0  0  0  0  0  2  0  0  0  0  0  0
  194.7780  170.5740  137.5490 C   0  0  0  0  0  2  0  0  0  0  0  0
  193.3000  175.0700  136.1720 C   0  0  2  0  0  3  0  0  0  0  0  0
  194.0060  172.8820  135.9860 N   0  0  2  0  0  0  0  0  0  0  0  0
  193.7720  170.4590  136.3990 C   0  0  0  0  0  2  0  0  0  0  0  0
  194.4380  175.1980  137.1130 C   0  0  2  0  0  3  0  0  0  0  0  0
  186.4650  177.2340  138.1560 C   0  0  0  0  0  2  0  0  0  0  0  0
  185.3790  177.0440  137.2090 N   0  0  0  0  0  2  0  0  0  0  0  0
  184.1310  172.8050  136.5270 O   0  0  0  0  0  1  0  0  0  0  0  0
  184.8460  175.7110  137.4300 C   0  0  2  0  0  3  0  0  0  0  0  0
  186.2270  173.9190  136.6160 N   0  0  0  0  0  0  0  0  0  0  0  0
  185.9850  174.7640  137.7790 C   0  0  0  0  0  2  0  0  0  0  0  0
  184.2730  175.1770  136.1330 C   0  0  1  0  0  3  0  0  0  0  0  0
  184.9220  173.8130  135.9520 C   0  0  0  0  0  0  0  0  0  0  0  0
  185.0980  173.5520  134.5940 O   0  0  0  0  0  1  0  0  0  0  0  0
  186.7250  172.6270  137.0790 C   0  0  0  0  0  2  0  0  0  0  0  0
  188.1080  172.5650  136.8870 O   0  0  0  0  0  0  0  0  0  0  0  0
  188.3180  173.1910  135.6560 C   0  0  0  0  0  2  0  0  0  0  0  0
  189.0300  170.9470  135.2570 O   0  0  0  0  0  1  0  0  0  0  0  0
  188.7700  172.1660  134.6280 C   0  0  0  0  0  2  0  0  0  0  0  0
  182.7460  175.1390  136.1530 C   0  0  0  0  0  2  0  0  0  0  0  0
  182.2030  175.3700  137.5580 C   0  0  0  0  0  2  0  0  0  0  0  0
  181.1500  174.3270  137.9040 C   0  0  0  0  0  2  0  0  0  0  0  0
  180.5160  173.7560  136.6460 C   0  0  0  0  0  2  0  0  0  0  0  0
  179.4390  172.7530  137.0240 C   0  0  0  0  0  2  0  0  0  0  0  0
  180.0150  171.3520  136.9810 C   0  0  0  0  0  1  0  0  0  0  0  0
  188.6630  177.9770  139.7260 O   0  0  0  0  0  0  0  0  0  0  0  0
  189.4000  177.6710  141.9970 C   0  0  0  0  0  3  0  0  0  0  0  0
  190.4110  177.4400  142.9350 C   0  0  0  0  0  0  0  0  0  0  0  0
  189.7010  177.7500  140.6340 C   0  0  0  0  0  0  0  0  0  0  0  0
  192.0440  177.3590  141.1400 C   0  0  0  0  0  3  0  0  0  0  0  0
  191.0290  177.5920  140.2070 C   0  0  0  0  0  3  0  0  0  0  0  0
  191.7380  177.2870  142.5000 C   0  0  0  0  0  3  0  0  0  0  0  0
  190.2760  176.2630  145.0740 C   0  0  0  0  0  3  0  0  0  0  0  0
  190.0520  177.3550  144.3570 C   0  0  0  0  0  3  0  0  0  0  0  0
  189.8870  176.2010  146.5090 C   0  0  0  0  0  2  0  0  0  0  0  0
  187.7620  177.2970  145.7420 C   0  0  0  0  0  2  0  0  0  0  0  0
  186.6840  178.8640  147.4640 C   0  0  0  0  0  2  0  0  0  0  0  0
  188.3230  177.1380  148.0730 O   0  0  0  0  0  0  0  0  0  0  0  0
  187.8030  178.4020  148.4160 C   0  0  2  0  0  3  0  0  0  0  0  0
  188.8750  177.2930  146.7940 C   0  0  1  0  0  3  0  0  0  0  0  0
  187.2820  178.3760  149.8350 C   0  0  0  0  0  1  0  0  0  0  0  0
  186.4560  177.8860  146.3040 C   0  0  1  0  0  3  0  0  0  0  0  0
  185.6630  178.5440  145.2240 C   0  0  0  0  0  0  0  0  0  0  0  0
  184.3970  179.1390  145.5240 N   0  0  0  0  0  2  0  0  0  0  0  0
  186.0950  178.5340  144.0400 O   0  0  0  0  0  0  0  0  0  0  0  0
  183.5710  179.5930  144.5510 O   0  0  0  0  0  0  0  0  0  0  0  0
  183.1860  178.4500  143.8470 C   0  0  0  0  0  2  0  0  0  0  0  0
  182.2290  178.8200  142.7150 C   0  0  0  0  0  2  0  0  0  0  0  0
  180.2900  180.4190  143.0130 C   0  0  0  0  0  1  0  0  0  0  0  0
  180.7790  178.9910  143.1760 C   0  0  1  0  0  3  0  0  0  0  0  0
  179.6510  177.8270  142.3500 S   0  0  0  0  0  0  0  0  0  0  0  0
  180.3190  178.2170  140.7100 C   0  0  1  0  0  3  0  0  0  0  0  0
  180.0310  177.1790  139.8430 F   0  0  0  0  0  0  0  0  0  0  0  0
  179.6920  179.4940  140.1810 C   0  0  0  0  0  2  0  0  0  0  0  0
  181.2880  181.6350  138.8960 O   0  0  0  0  0  0  0  0  0  0  0  0
  180.7190  180.1940  138.7950 P   0  0  0  0  0  0  0  0  0  0  0  0
  1  8  1  0  0  0  0
  2  4  1  0  0  0  0
  2  6  1  0  0  0  0
  3  7  1  0  0  0  0
  3  4  1  0  0  0  0
  4  1  1  0  0  0  0
  5 20  1  1  0  0  0
  5  8  1  0  0  0  0
  7  5  1  0  0  0  0
  8 40  1  1  0  0  0
  9  2  2  0  0  0  0
 10 12  1  1  0  0  0
 11 19  1  0  0  0  0
 11 10  1  0  0  0  0
 14 18  1  0  0  0  0
 15 12  1  0  0  0  0
 16  6  1  0  0  0  0
 16 11  1  0  0  0  0
 16 19  1  0  0  0  0
 17 14  1  0  0  0  0
 17 11  1  0  0  0  0
 17 10  1  0  0  0  0
 18 15  1  0  0  0  0
 19 13  1  0  0  0  0
 21 23  1  0  0  0  0
 21 20  1  0  0  0  0
 23 25  1  0  0  0  0
 24 29  1  0  0  0  0
 24 25  1  0  0  0  0
 26 34  1  0  0  0  0
 26 23  1  0  0  0  0
 27 26  1  0  0  0  0
 27 22  1  0  0  0  0
 27 24  1  0  0  0  0
 28 27  1  0  0  0  0
 30 29  1  0  0  0  0
 31 30  1  0  0  0  0
 33 32  1  0  0  0  0
 33 31  1  0  0  0  0
 34 35  1  0  0  0  0
 35 36  1  0  0  0  0
 37 38  1  0  0  0  0
 37 36  1  0  0  0  0
 39 38  1  0  0  0  0
 40 43  1  0  0  0  0
 41 42  1  0  0  0  0
 42 48  1  0  0  0  0
 43 41  2  0  0  0  0
 44 46  1  0  0  0  0
 45 43  1  0  0  0  0
 45 44  2  0  0  0  0
 46 42  2  0  0  0  0
 47 49  1  0  0  0  0
 48 47  2  0  0  0  0
 49 54  1  0  0  0  0
 50 56  1  0  0  0  0
 50 54  1  0  0  0  0
 51 53  1  0  0  0  0
 52 53  1  0  0  0  0
 53 55  1  0  0  0  0
 54 52  1  0  0  0  0
 56 51  1  0  0  0  0
 57 58  1  0  0  0  0
 57 56  1  0  0  0  0
 59 57  2  0  0  0  0
 60 58  1  0  0  0  0
 61 60  1  0  0  0  0
 62 64  1  0  0  0  0
 62 61  1  0  0  0  0
 63 64  1  0  0  0  0
 65 64  1  0  0  0  0
 66 65  1  0  0  0  0
 67 66  1  0  0  0  0
 68 66  1  0  0  0  0
 70 69  2  0  0  0  0
 70 68  1  0  0  0  0
M  END
>  <MODEL>
1

>  <REMARK>
 VINA RESULT:      -5.1      0.000      0.000
  Name = 
  27 active torsions:
  status: ('A' for Active; 'I' for Inactive)
    1  A    between atoms: C_5  and  N_32
    2  A    between atoms: C_5  and  O_36
    3  A    between atoms: C_9  and  C_16
    4  A    between atoms: C_10  and  C_11
    5  A    between atoms: C_10  and  S_64
    6  A    between atoms: C_11  and  P_55
    7  A    between atoms: C_14  and  C_23
    8  A    between atoms: C_15  and  C_23
    9  A    between atoms: C_15  and  C_57
   10  A    between atoms: C_16  and  O_36
   11  A    between atoms: C_18  and  C_19
   12  A    between atoms: C_19  and  C_41
   13  A    between atoms: C_20  and  C_65
   14  A    between atoms: N_25  and  O_62
   15  A    between atoms: C_29  and  C_63
   16  A    between atoms: C_30  and  N_31
   17  A    between atoms: N_31  and  C_54
   18  A    between atoms: O_33  and  C_39
   19  A    between atoms: O_33  and  C_58
   20  A    between atoms: C_42  and  C_43
   21  A    between atoms: C_42  and  C_57
   22  A    between atoms: C_45  and  C_54
   23  A    between atoms: N_46  and  C_56
   24  A    between atoms: C_52  and  C_60
   25  A    between atoms: C_52  and  C_61
   26  A    between atoms: C_60  and  S_64
   27  A    between atoms: C_61  and  O_62
                            x       y       z     vdW  Elec       q    Type
                         _______ _______ _______ _____ _____    ______ ____

>  <TORSDO>
F 27

$$$$
=
 OpenBabel11042413163D

 70 76  0  0  1  0  0  0  0  0999 V2000
  189.5540  177.1620  137.6430 C   0  0  0  0  0  2  0  0  0  0  0  0
  191.1230  176.4510  135.8240 C   0  0  0  0  0  0  0  0  0  0  0  0
  188.9800  177.5990  135.2010 C   0  0  0  0  0  2  0  0  0  0  0  0
  189.8660  177.0210  136.2170 N   0  0  0  0  0  0  0  0  0  0  0  0
  187.2370  178.0280  137.0190 C   0  0  2  0  0  3  0  0  0  0  0  0
  192.0620  176.0380  136.8190 N   0  0  0  0  0  2  0  0  0  0  0  0
  187.5200  177.4450  135.6250 C   0  0  0  0  0  2  0  0  0  0  0  0
  188.5130  178.2560  137.8590 C   0  0  1  0  0  3  0  0  0  0  0  0
  191.4070  176.3280  134.6020 O   0  0  0  0  0  0  0  0  0  0  0  0
  194.8960  173.4820  137.5680 C   0  0  1  0  0  3  0  0  0  0  0  0
  193.6560  174.2640  137.3430 C   0  0  2  0  0  0  0  0  0  0  0  0
  194.6290  172.3230  138.5380 C   0  0  0  0  0  2  0  0  0  0  0  0
  193.7950  176.2100  138.7410 O   0  0  0  0  0  1  0  0  0  0  0  0
  193.2840  172.2220  136.2090 C   0  0  0  0  0  2  0  0  0  0  0  0
  194.8150  170.9890  137.8190 C   0  0  0  0  0  2  0  0  0  0  0  0
  193.3820  175.5110  136.4820 C   0  0  2  0  0  3  0  0  0  0  0  0
  194.2030  173.3650  136.2860 N   0  0  2  0  0  0  0  0  0  0  0  0
  194.0110  170.9140  136.5160 C   0  0  0  0  0  2  0  0  0  0  0  0
  194.3480  175.6170  137.6000 C   0  0  2  0  0  3  0  0  0  0  0  0
  186.2320  177.1380  137.7340 C   0  0  0  0  0  2  0  0  0  0  0  0
  185.0460  176.9770  136.9100 N   0  0  0  0  0  2  0  0  0  0  0  0
  183.4030  172.8260  136.6650 O   0  0  0  0  0  1  0  0  0  0  0  0
  184.4360  175.7120  137.2800 C   0  0  2  0  0  3  0  0  0  0  0  0
  185.5770  173.7600  136.4610 N   0  0  0  0  0  0  0  0  0  0  0  0
  185.5280  174.6950  137.5800 C   0  0  0  0  0  2  0  0  0  0  0  0
  183.6880  175.1470  136.0890 C   0  0  1  0  0  3  0  0  0  0  0  0
  184.2050  173.7230  135.9420 C   0  0  0  0  0  0  0  0  0  0  0  0
  184.2150  173.3630  134.5950 O   0  0  0  0  0  1  0  0  0  0  0  0
  186.0190  172.4610  136.9640 C   0  0  0  0  0  2  0  0  0  0  0  0
  186.5800  171.7240  135.9180 O   0  0  0  0  0  0  0  0  0  0  0  0
  187.9440  171.6750  136.2170 C   0  0  0  0  0  2  0  0  0  0  0  0
  189.7000  173.0990  136.9860 O   0  0  0  0  0  1  0  0  0  0  0  0
  188.5140  173.0850  136.2510 C   0  0  0  0  0  2  0  0  0  0  0  0
  182.1740  175.2410  136.2650 C   0  0  0  0  0  2  0  0  0  0  0  0
  181.6450  176.5970  135.8130 C   0  0  0  0  0  2  0  0  0  0  0  0
  180.1230  176.6200  135.8560 C   0  0  0  0  0  2  0  0  0  0  0  0
  179.6170  177.8920  136.5140 C   0  0  0  0  0  2  0  0  0  0  0  0
  179.3410  178.9450  135.4540 C   0  0  0  0  0  2  0  0  0  0  0  0
  180.5940  179.7640  135.2140 C   0  0  0  0  0  1  0  0  0  0  0  0
  188.2240  178.3990  139.2480 O   0  0  0  0  0  0  0  0  0  0  0  0
  188.7260  178.1400  141.5870 C   0  0  0  0  0  3  0  0  0  0  0  0
  189.6010  177.7880  142.6200 C   0  0  0  0  0  0  0  0  0  0  0  0
  189.1280  178.0430  140.2520 C   0  0  0  0  0  0  0  0  0  0  0  0
  191.2990  177.2290  140.9760 C   0  0  0  0  0  3  0  0  0  0  0  0
  190.4200  177.5840  139.9490 C   0  0  0  0  0  3  0  0  0  0  0  0
  190.8940  177.3340  142.3080 C   0  0  0  0  0  3  0  0  0  0  0  0
  189.3380  176.9300  144.8940 C   0  0  0  0  0  3  0  0  0  0  0  0
  189.1370  177.8960  144.0090 C   0  0  0  0  0  3  0  0  0  0  0  0
  188.8420  177.0620  146.2910 C   0  0  0  0  0  2  0  0  0  0  0  0
  186.5840  177.7450  145.4320 C   0  0  0  0  0  2  0  0  0  0  0  0
  185.4950  179.6850  146.7090 C   0  0  0  0  0  2  0  0  0  0  0  0
  187.3130  178.3250  147.6470 O   0  0  0  0  0  0  0  0  0  0  0  0
  186.7110  179.5990  147.6500 C   0  0  2  0  0  3  0  0  0  0  0  0
  187.7610  178.1240  146.3340 C   0  0  1  0  0  3  0  0  0  0  0  0
  186.2920  179.9670  149.0540 C   0  0  0  0  0  1  0  0  0  0  0  0
  185.2730  178.3920  145.9120 C   0  0  1  0  0  3  0  0  0  0  0  0
  184.3540  178.6470  144.7630 C   0  0  0  0  0  0  0  0  0  0  0  0
  184.6240  178.0630  143.4860 N   0  0  0  0  0  2  0  0  0  0  0  0
  183.3660  179.4130  144.9150 O   0  0  0  0  0  0  0  0  0  0  0  0
  183.9180  178.4020  142.3810 O   0  0  0  0  0  0  0  0  0  0  0  0
  184.8040  178.2140  141.3180 C   0  0  0  0  0  2  0  0  0  0  0  0
  184.4100  179.0940  140.1330 C   0  0  0  0  0  2  0  0  0  0  0  0
  182.7250  179.1330  138.2450 C   0  0  0  0  0  1  0  0  0  0  0  0
  182.9370  178.9580  139.7380 C   0  0  1  0  0  3  0  0  0  0  0  0
  182.2120  177.3910  140.3110 S   0  0  0  0  0  0  0  0  0  0  0  0
  180.8280  178.2340  141.1240 C   0  0  1  0  0  3  0  0  0  0  0  0
  180.4420  179.3180  140.3580 F   0  0  0  0  0  0  0  0  0  0  0  0
  179.6520  177.2860  141.2710 C   0  0  0  0  0  2  0  0  0  0  0  0
  178.9510  174.7100  139.9840 O   0  0  0  0  0  0  0  0  0  0  0  0
  179.5730  176.1230  139.8190 P   0  0  0  0  0  0  0  0  0  0  0  0
  1  8  1  0  0  0  0
  2  4  1  0  0  0  0
  2  6  1  0  0  0  0
  3  7  1  0  0  0  0
  3  4  1  0  0  0  0
  4  1  1  0  0  0  0
  5 20  1  1  0  0  0
  5  8  1  0  0  0  0
  7  5  1  0  0  0  0
  8 40  1  1  0  0  0
  9  2  2  0  0  0  0
 10 12  1  1  0  0  0
 11 10  1  0  0  0  0
 11 19  1  0  0  0  0
 14 17  1  0  0  0  0
 14 18  1  0  0  0  0
 15 12  1  0  0  0  0
 16  6  1  0  0  0  0
 16 11  1  0  0  0  0
 16 19  1  0  0  0  0
 17 11  1  0  0  0  0
 17 10  1  0  0  0  0
 18 15  1  0  0  0  0
 19 13  1  0  0  0  0
 21 23  1  0  0  0  0
 21 20  1  0  0  0  0
 23 25  1  0  0  0  0
 24 29  1  0  0  0  0
 24 25  1  0  0  0  0
 26 34  1  0  0  0  0
 26 23  1  0  0  0  0
 27 26  1  0  0  0  0
 27 24  1  0  0  0  0
 27 22  1  0  0  0  0
 28 27  1  0  0  0  0
 30 31  1  0  0  0  0
 30 29  1  0  0  0  0
 31 33  1  0  0  0  0
 33 32  1  0  0  0  0
 35 36  1  0  0  0  0
 35 34  1  0  0  0  0
 36 37  1  0  0  0  0
 38 37  1  0  0  0  0
 39 38  1  0  0  0  0
 40 43  1  0  0  0  0
 41 42  1  0  0  0  0
 42 48  1  0  0  0  0
 43 41  2  0  0  0  0
 44 46  1  0  0  0  0
 45 43  1  0  0  0  0
 45 44  2  0  0  0  0
 46 42  2  0  0  0  0
 47 49  1  0  0  0  0
 48 47  2  0  0  0  0
 49 54  1  0  0  0  0
 50 56  1  0  0  0  0
 50 54  1  0  0  0  0
 51 53  1  0  0  0  0
 52 53  1  0  0  0  0
 53 55  1  0  0  0  0
 54 52  1  0  0  0  0
 56 51  1  0  0  0  0
 57 59  2  0  0  0  0
 57 56  1  0  0  0  0
 58 57  1  0  0  0  0
 60 58  1  0  0  0  0
 61 60  1  0  0  0  0
 62 61  1  0  0  0  0
 63 64  1  0  0  0  0
 64 62  1  0  0  0  0
 64 65  1  0  0  0  0
 65 66  1  0  0  0  0
 66 68  1  0  0  0  0
 67 66  1  0  0  0  0
 70 69  2  0  0  0  0
 70 68  1  0  0  0  0
M  END
>  <MODEL>
2

>  <REMARK>
 VINA RESULT:      -4.9      1.880      2.358
  Name = 
  27 active torsions:
  status: ('A' for Active; 'I' for Inactive)
    1  A    between atoms: C_5  and  N_32
    2  A    between atoms: C_5  and  O_36
    3  A    between atoms: C_9  and  C_16
    4  A    between atoms: C_10  and  C_11
    5  A    between atoms: C_10  and  S_64
    6  A    between atoms: C_11  and  P_55
    7  A    between atoms: C_14  and  C_23
    8  A    between atoms: C_15  and  C_23
    9  A    between atoms: C_15  and  C_57
   10  A    between atoms: C_16  and  O_36
   11  A    between atoms: C_18  and  C_19
   12  A    between atoms: C_19  and  C_41
   13  A    between atoms: C_20  and  C_65
   14  A    between atoms: N_25  and  O_62
   15  A    between atoms: C_29  and  C_63
   16  A    between atoms: C_30  and  N_31
   17  A    between atoms: N_31  and  C_54
   18  A    between atoms: O_33  and  C_39
   19  A    between atoms: O_33  and  C_58
   20  A    between atoms: C_42  and  C_43
   21  A    between atoms: C_42  and  C_57
   22  A    between atoms: C_45  and  C_54
   23  A    between atoms: N_46  and  C_56
   24  A    between atoms: C_52  and  C_60
   25  A    between atoms: C_52  and  C_61
   26  A    between atoms: C_60  and  S_64
   27  A    between atoms: C_61  and  O_62
                            x       y       z     vdW  Elec       q    Type
                         _______ _______ _______ _____ _____    ______ ____

>  <TORSDO>
F 27

$$$$
=
 OpenBabel11042413163D

 70 76  0  0  1  0  0  0  0  0999 V2000
  188.0000  175.5040  136.1690 C   0  0  0  0  0  2  0  0  0  0  0  0
  189.2400  173.3470  135.8760 C   0  0  0  0  0  0  0  0  0  0  0  0
  187.1120  173.7100  134.5950 C   0  0  0  0  0  2  0  0  0  0  0  0
  188.0940  174.1610  135.5870 N   0  0  0  0  0  0  0  0  0  0  0  0
  185.6810  175.7570  135.1360 C   0  0  2  0  0  3  0  0  0  0  0  0
  190.2820  173.8520  136.7130 N   0  0  0  0  0  2  0  0  0  0  0  0
  185.7220  174.2310  134.9550 C   0  0  0  0  0  2  0  0  0  0  0  0
  187.0770  176.3870  135.3350 C   0  0  1  0  0  3  0  0  0  0  0  0
  189.3360  172.1920  135.3790 O   0  0  0  0  0  0  0  0  0  0  0  0
  194.1570  173.6230  136.4810 C   0  0  1  0  0  3  0  0  0  0  0  0
  192.7190  173.9600  136.6120 C   0  0  2  0  0  0  0  0  0  0  0  0
  194.9620  174.8620  136.0620 C   0  0  0  0  0  2  0  0  0  0  0  0
  191.6430  173.2230  134.5970 O   0  0  0  0  0  1  0  0  0  0  0  0
  193.7480  175.0190  138.4590 C   0  0  0  0  0  2  0  0  0  0  0  0
  195.9290  175.2540  137.1770 C   0  0  0  0  0  2  0  0  0  0  0  0
  191.5010  173.0970  136.9900 C   0  0  2  0  0  3  0  0  0  0  0  0
  193.5660  173.7130  137.8150 N   0  0  2  0  0  0  0  0  0  0  0  0
  195.2290  175.3910  138.5330 C   0  0  0  0  0  2  0  0  0  0  0  0
  192.2610  172.7580  135.7640 C   0  0  2  0  0  3  0  0  0  0  0  0
  184.7320  176.0970  136.2740 C   0  0  0  0  0  2  0  0  0  0  0  0
  184.6000  174.9530  137.1610 N   0  0  0  0  0  2  0  0  0  0  0  0
  180.1720  174.5120  136.7310 O   0  0  0  0  0  1  0  0  0  0  0  0
  183.1900  174.8210  137.4830 C   0  0  2  0  0  3  0  0  0  0  0  0
  182.0280  173.1060  136.2630 N   0  0  0  0  0  0  0  0  0  0  0  0
  182.8060  173.3490  137.4730 C   0  0  0  0  0  2  0  0  0  0  0  0
  182.3610  175.4520  136.3830 C   0  0  1  0  0  3  0  0  0  0  0  0
  181.3550  174.3810  135.9880 C   0  0  0  0  0  0  0  0  0  0  0  0
  181.0680  174.4840  134.6270 O   0  0  0  0  0  1  0  0  0  0  0  0
  181.0840  172.0230  136.5310 C   0  0  0  0  0  2  0  0  0  0  0  0
  180.9260  171.2490  135.3780 O   0  0  0  0  0  0  0  0  0  0  0  0
  182.2080  171.1780  134.8270 C   0  0  0  0  0  2  0  0  0  0  0  0
  183.9180  170.1610  136.1470 O   0  0  0  0  0  1  0  0  0  0  0  0
  182.8810  169.8840  135.2540 C   0  0  0  0  0  2  0  0  0  0  0  0
  181.7230  176.7670  136.8270 C   0  0  0  0  0  2  0  0  0  0  0  0
  181.4950  177.7010  135.6460 C   0  0  0  0  0  2  0  0  0  0  0  0
  180.1280  177.4530  135.0230 C   0  0  0  0  0  2  0  0  0  0  0  0
  179.4000  178.7630  134.7700 C   0  0  0  0  0  2  0  0  0  0  0  0
  180.3000  179.9310  135.1360 C   0  0  0  0  0  2  0  0  0  0  0  0
  179.7010  181.2180  134.6070 C   0  0  0  0  0  1  0  0  0  0  0  0
  187.0010  177.6950  135.8960 O   0  0  0  0  0  0  0  0  0  0  0  0
  187.8160  177.3210  138.1300 C   0  0  0  0  0  3  0  0  0  0  0  0
  188.5980  177.6970  139.2260 C   0  0  0  0  0  0  0  0  0  0  0  0
  187.7910  178.1060  136.9730 C   0  0  0  0  0  0  0  0  0  0  0  0
  189.3480  179.6580  138.0070 C   0  0  0  0  0  3  0  0  0  0  0  0
  188.5620  179.2780  136.9140 C   0  0  0  0  0  3  0  0  0  0  0  0
  189.3630  178.8730  139.1610 C   0  0  0  0  0  3  0  0  0  0  0  0
  188.7290  177.3380  141.6420 C   0  0  0  0  0  3  0  0  0  0  0  0
  188.6020  176.8400  140.4200 C   0  0  0  0  0  3  0  0  0  0  0  0
  188.7450  176.4430  142.8300 C   0  0  0  0  0  2  0  0  0  0  0  0
  186.9880  177.5200  144.2640 C   0  0  0  0  0  2  0  0  0  0  0  0
  187.8140  178.3010  146.5640 C   0  0  0  0  0  2  0  0  0  0  0  0
  189.0140  176.6390  145.2100 O   0  0  0  0  0  0  0  0  0  0  0  0
  189.1570  177.6560  146.1740 C   0  0  2  0  0  3  0  0  0  0  0  0
  188.4860  177.2700  144.0740 C   0  0  1  0  0  3  0  0  0  0  0  0
  189.8310  177.1020  147.4090 C   0  0  0  0  0  1  0  0  0  0  0  0
  186.6380  177.7530  145.7440 C   0  0  1  0  0  3  0  0  0  0  0  0
  185.4560  178.6570  145.8740 C   0  0  0  0  0  0  0  0  0  0  0  0
  184.4200  178.6290  144.8890 N   0  0  0  0  0  2  0  0  0  0  0  0
  185.3990  179.4740  146.8330 O   0  0  0  0  0  0  0  0  0  0  0  0
  183.4210  179.5440  144.8750 O   0  0  0  0  0  0  0  0  0  0  0  0
  182.4380  178.9880  144.0540 C   0  0  0  0  0  2  0  0  0  0  0  0
  183.0770  178.1120  142.9780 C   0  0  0  0  0  2  0  0  0  0  0  0
  184.5670  179.0640  141.1680 C   0  0  0  0  0  1  0  0  0  0  0  0
  183.1400  178.7840  141.6040 C   0  0  1  0  0  3  0  0  0  0  0  0
  182.2540  177.8340  140.3300 S   0  0  0  0  0  0  0  0  0  0  0  0
  180.8230  178.9460  140.3810 C   0  0  1  0  0  3  0  0  0  0  0  0
  181.0970  180.0020  141.2310 F   0  0  0  0  0  0  0  0  0  0  0  0
  180.5330  179.4880  138.9940 C   0  0  0  0  0  2  0  0  0  0  0  0
  181.6680  181.7490  137.4510 O   0  0  0  0  0  0  0  0  0  0  0  0
  181.1810  181.2260  138.8290 P   0  0  0  0  0  0  0  0  0  0  0  0
  2  6  1  0  0  0  0
  3  7  1  0  0  0  0
  3  4  1  0  0  0  0
  4  2  1  0  0  0  0
  4  1  1  0  0  0  0
  5  8  1  0  0  0  0
  5 20  1  1  0  0  0
  6 16  1  0  0  0  0
  7  5  1  0  0  0  0
  8 40  1  1  0  0  0
  8  1  1  0  0  0  0
  9  2  2  0  0  0  0
 10 12  1  1  0  0  0
 10 11  1  0  0  0  0
 10 17  1  0  0  0  0
 11 16  1  0  0  0  0
 11 17  1  0  0  0  0
 12 15  1  0  0  0  0
 13 19  1  0  0  0  0
 14 18  1  0  0  0  0
 15 18  1  0  0  0  0
 17 14  1  0  0  0  0
 19 11  1  0  0  0  0
 19 16  1  0  0  0  0
 20 21  1  0  0  0  0
 21 23  1  0  0  0  0
 24 29  1  0  0  0  0
 24 25  1  0  0  0  0
 25 23  1  0  0  0  0
 26 34  1  0  0  0  0
 26 23  1  0  0  0  0
 27 24  1  0  0  0  0
 27 26  1  0  0  0  0
 27 22  1  0  0  0  0
 28 27  1  0  0  0  0
 30 29  1  0  0  0  0
 31 33  1  0  0  0  0
 31 30  1  0  0  0  0
 33 32  1  0  0  0  0
 35 34  1  0  0  0  0
 36 35  1  0  0  0  0
 37 36  1  0  0  0  0
 37 38  1  0  0  0  0
 39 38  1  0  0  0  0
 40 43  1  0  0  0  0
 41 42  1  0  0  0  0
 42 48  1  0  0  0  0
 43 41  2  0  0  0  0
 44 46  1  0  0  0  0
 45 43  1  0  0  0  0
 45 44  2  0  0  0  0
 46 42  2  0  0  0  0
 47 49  1  0  0  0  0
 48 47  2  0  0  0  0
 49 54  1  0  0  0  0
 50 56  1  0  0  0  0
 52 53  1  0  0  0  0
 53 51  1  0  0  0  0
 53 55  1  0  0  0  0
 54 50  1  0  0  0  0
 54 52  1  0  0  0  0
 56 57  1  0  0  0  0
 56 51  1  0  0  0  0
 57 59  2  0  0  0  0
 58 57  1  0  0  0  0
 60 58  1  0  0  0  0
 61 60  1  0  0  0  0
 62 61  1  0  0  0  0
 63 64  1  0  0  0  0
 64 62  1  0  0  0  0
 65 66  1  0  0  0  0
 65 64  1  0  0  0  0
 66 67  1  0  0  0  0
 68 66  1  0  0  0  0
 69 70  2  0  0  0  0
 70 68  1  0  0  0  0
M  END
>  <MODEL>
3

>  <REMARK>
 VINA RESULT:      -4.6      2.342      3.933
  Name = 
  27 active torsions:
  status: ('A' for Active; 'I' for Inactive)
    1  A    between atoms: C_5  and  N_32
    2  A    between atoms: C_5  and  O_36
    3  A    between atoms: C_9  and  C_16
    4  A    between atoms: C_10  and  C_11
    5  A    between atoms: C_10  and  S_64
    6  A    between atoms: C_11  and  P_55
    7  A    between atoms: C_14  and  C_23
    8  A    between atoms: C_15  and  C_23
    9  A    between atoms: C_15  and  C_57
   10  A    between atoms: C_16  and  O_36
   11  A    between atoms: C_18  and  C_19
   12  A    between atoms: C_19  and  C_41
   13  A    between atoms: C_20  and  C_65
   14  A    between atoms: N_25  and  O_62
   15  A    between atoms: C_29  and  C_63
   16  A    between atoms: C_30  and  N_31
   17  A    between atoms: N_31  and  C_54
   18  A    between atoms: O_33  and  C_39
   19  A    between atoms: O_33  and  C_58
   20  A    between atoms: C_42  and  C_43
   21  A    between atoms: C_42  and  C_57
   22  A    between atoms: C_45  and  C_54
   23  A    between atoms: N_46  and  C_56
   24  A    between atoms: C_52  and  C_60
   25  A    between atoms: C_52  and  C_61
   26  A    between atoms: C_60  and  S_64
   27  A    between atoms: C_61  and  O_62
                            x       y       z     vdW  Elec       q    Type
                         _______ _______ _______ _____ _____    ______ ____

>  <TORSDO>
F 27

$$$$
=
 OpenBabel11042413163D

 70 76  0  0  1  0  0  0  0  0999 V2000
  182.5190  178.2610  138.9550 C   0  0  0  0  0  2  0  0  0  0  0  0
  180.3440  178.7550  137.8130 C   0  0  0  0  0  0  0  0  0  0  0  0
  181.0370  176.3630  138.1250 C   0  0  0  0  0  2  0  0  0  0  0  0
  181.3200  177.7970  138.2480 N   0  0  0  0  0  0  0  0  0  0  0  0
  183.3900  175.8640  138.9880 C   0  0  2  0  0  3  0  0  0  0  0  0
  180.5390  180.1460  138.0800 N   0  0  0  0  0  2  0  0  0  0  0  0
  182.3350  175.5870  137.9050 C   0  0  0  0  0  2  0  0  0  0  0  0
  183.1060  177.1410  139.8080 C   0  0  1  0  0  3  0  0  0  0  0  0
  179.3070  178.3710  137.2080 O   0  0  0  0  0  0  0  0  0  0  0  0
  179.6670  183.9110  137.6570 C   0  0  1  0  0  3  0  0  0  0  0  0
  180.2310  182.5420  137.7290 C   0  0  2  0  0  0  0  0  0  0  0  0
  180.7900  184.9570  137.7160 C   0  0  0  0  0  2  0  0  0  0  0  0
  179.9710  181.7980  139.9960 O   0  0  0  0  0  1  0  0  0  0  0  0
  180.8360  183.3200  135.5790 C   0  0  0  0  0  2  0  0  0  0  0  0
  180.8550  185.7250  136.3980 C   0  0  0  0  0  2  0  0  0  0  0  0
  179.5520  181.1600  137.7200 C   0  0  2  0  0  3  0  0  0  0  0  0
  179.6800  183.0830  136.4530 N   0  0  2  0  0  0  0  0  0  0  0  0
  180.9290  184.7930  135.1840 C   0  0  0  0  0  2  0  0  0  0  0  0
  179.2520  182.0930  138.8320 C   0  0  2  0  0  3  0  0  0  0  0  0
  184.7670  175.8920  138.3430 C   0  0  0  0  0  2  0  0  0  0  0  0
  185.1690  174.5420  137.9840 N   0  0  0  0  0  2  0  0  0  0  0  0
  187.8170  175.9030  134.6500 O   0  0  0  0  0  1  0  0  0  0  0  0
  186.3020  174.6570  137.0830 C   0  0  2  0  0  3  0  0  0  0  0  0
  187.0290  176.9080  136.6520 N   0  0  0  0  0  0  0  0  0  0  0  0
  187.2120  175.7800  137.5580 C   0  0  0  0  0  2  0  0  0  0  0  0
  185.8150  175.0960  135.7170 C   0  0  1  0  0  3  0  0  0  0  0  0
  186.6760  176.3000  135.3640 C   0  0  0  0  0  0  0  0  0  0  0  0
  185.9350  177.2010  134.5990 O   0  0  0  0  0  1  0  0  0  0  0  0
  188.2800  177.6590  136.5910 C   0  0  0  0  0  2  0  0  0  0  0  0
  188.1860  178.7890  137.4080 O   0  0  0  0  0  0  0  0  0  0  0  0
  187.1740  179.5560  136.8260 C   0  0  0  0  0  2  0  0  0  0  0  0
  185.8330  179.0250  138.7290 O   0  0  0  0  0  1  0  0  0  0  0  0
  185.8180  179.0910  137.3350 C   0  0  0  0  0  2  0  0  0  0  0  0
  185.8820  173.9650  134.6930 C   0  0  0  0  0  2  0  0  0  0  0  0
  184.5570  173.2180  134.6020 C   0  0  0  0  0  2  0  0  0  0  0  0
  184.7860  171.7130  134.6470 C   0  0  0  0  0  2  0  0  0  0  0  0
  183.5950  171.0010  135.2670 C   0  0  0  0  0  2  0  0  0  0  0  0
  182.6630  172.0170  135.9040 C   0  0  0  0  0  2  0  0  0  0  0  0
  182.9580  172.1150  137.3870 C   0  0  0  0  0  1  0  0  0  0  0  0
  184.2620  177.6010  140.5040 O   0  0  0  0  0  0  0  0  0  0  0  0
  185.0700  177.6720  142.7700 C   0  0  0  0  0  3  0  0  0  0  0  0
  185.0460  178.2080  144.0610 C   0  0  0  0  0  0  0  0  0  0  0  0
  184.2050  178.1580  141.7840 C   0  0  0  0  0  0  0  0  0  0  0  0
  183.2830  179.7350  143.3860 C   0  0  0  0  0  3  0  0  0  0  0  0
  183.3100  179.1940  142.0970 C   0  0  0  0  0  3  0  0  0  0  0  0
  184.1450  179.2410  144.3670 C   0  0  0  0  0  3  0  0  0  0  0  0
  186.7960  178.4610  145.7510 C   0  0  0  0  0  3  0  0  0  0  0  0
  185.9770  177.6750  145.0650 C   0  0  0  0  0  3  0  0  0  0  0  0
  187.7390  177.8910  146.7510 C   0  0  0  0  0  2  0  0  0  0  0  0
  188.8790  177.4720  144.5530 C   0  0  0  0  0  2  0  0  0  0  0  0
  191.0100  176.0500  144.7070 C   0  0  0  0  0  2  0  0  0  0  0  0
  190.0420  177.2180  146.6400 O   0  0  0  0  0  0  0  0  0  0  0  0
  190.7960  176.1000  146.2320 C   0  0  2  0  0  3  0  0  0  0  0  0
  188.7900  177.0710  146.0280 C   0  0  1  0  0  3  0  0  0  0  0  0
  192.1350  176.0980  146.9310 C   0  0  0  0  0  1  0  0  0  0  0  0
  190.2740  177.1790  143.9730 C   0  0  1  0  0  3  0  0  0  0  0  0
  190.1880  176.8730  142.5130 C   0  0  0  0  0  0  0  0  0  0  0  0
  189.5860  177.8110  141.6180 N   0  0  0  0  0  2  0  0  0  0  0  0
  190.6080  175.7650  142.0840 O   0  0  0  0  0  0  0  0  0  0  0  0
  189.3340  177.5040  140.3220 O   0  0  0  0  0  0  0  0  0  0  0  0
  190.5660  177.0940  139.8060 C   0  0  0  0  0  2  0  0  0  0  0  0
  190.6230  177.3480  138.3010 C   0  0  0  0  0  2  0  0  0  0  0  0
  193.0420  176.6080  138.3570 C   0  0  0  0  0  1  0  0  0  0  0  0
  191.7310  176.5640  137.5930 C   0  0  1  0  0  3  0  0  0  0  0  0
  191.2460  174.8450  137.2470 S   0  0  0  0  0  0  0  0  0  0  0  0
  192.9120  174.4020  136.6840 C   0  0  1  0  0  3  0  0  0  0  0  0
  193.2580  173.1730  137.2120 F   0  0  0  0  0  0  0  0  0  0  0  0
  192.9460  174.3190  135.1690 C   0  0  0  0  0  2  0  0  0  0  0  0
  195.9080  174.2250  135.1800 O   0  0  0  0  0  0  0  0  0  0  0  0
  194.5880  173.6550  134.5940 P   0  0  0  0  0  0  0  0  0  0  0  0
  1  8  1  0  0  0  0
  2  6  1  0  0  0  0
  2  4  1  0  0  0  0
  3  4  1  0  0  0  0
  4  1  1  0  0  0  0
  5 20  1  6  0  0  0
  5  8  1  0  0  0  0
  7  3  1  0  0  0  0
  7  5  1  0  0  0  0
  8 40  1  6  0  0  0
  9  2  2  0  0  0  0
 10 12  1  6  0  0  0
 10 11  1  0  0  0  0
 11 19  1  0  0  0  0
 14 17  1  0  0  0  0
 15 12  1  0  0  0  0
 16 11  1  0  0  0  0
 16  6  1  0  0  0  0
 16 19  1  0  0  0  0
 17 10  1  0  0  0  0
 17 11  1  0  0  0  0
 18 14  1  0  0  0  0
 18 15  1  0  0  0  0
 19 13  1  0  0  0  0
 21 20  1  0  0  0  0
 22 27  1  0  0  0  0
 23 25  1  0  0  0  0
 23 21  1  0  0  0  0
 24 25  1  0  0  0  0
 26 23  1  0  0  0  0
 27 26  1  0  0  0  0
 27 24  1  0  0  0  0
 28 27  1  0  0  0  0
 29 24  1  0  0  0  0
 29 30  1  0  0  0  0
 31 33  1  0  0  0  0
 31 30  1  0  0  0  0
 33 32  1  0  0  0  0
 34 26  1  0  0  0  0
 35 36  1  0  0  0  0
 35 34  1  0  0  0  0
 36 37  1  0  0  0  0
 37 38  1  0  0  0  0
 38 39  1  0  0  0  0
 40 43  1  0  0  0  0
 41 42  1  0  0  0  0
 42 46  2  0  0  0  0
 42 48  1  0  0  0  0
 43 45  1  0  0  0  0
 43 41  2  0  0  0  0
 44 46  1  0  0  0  0
 45 44  2  0  0  0  0
 47 49  1  0  0  0  0
 48 47  2  0  0  0  0
 50 54  1  0  0  0  0
 51 53  1  0  0  0  0
 53 52  1  0  0  0  0
 53 55  1  0  0  0  0
 54 52  1  0  0  0  0
 54 49  1  0  0  0  0
 56 50  1  0  0  0  0
 56 51  1  0  0  0  0
 57 56  1  0  0  0  0
 58 57  1  0  0  0  0
 59 57  2  0  0  0  0
 60 58  1  0  0  0  0
 61 60  1  0  0  0  0
 62 61  1  0  0  0  0
 64 62  1  0  0  0  0
 64 63  1  0  0  0  0
 65 64  1  0  0  0  0
 66 67  1  0  0  0  0
 66 65  1  0  0  0  0
 68 66  1  0  0  0  0
 70 68  1  0  0  0  0
 70 69  2  0  0  0  0
M  END
>  <MODEL>
4

>  <REMARK>
 VINA RESULT:      -4.5      4.249      9.841
  Name = 
  27 active torsions:
  status: ('A' for Active; 'I' for Inactive)
    1  A    between atoms: C_5  and  N_32
    2  A    between atoms: C_5  and  O_36
    3  A    between atoms: C_9  and  C_16
    4  A    between atoms: C_10  and  C_11
    5  A    between atoms: C_10  and  S_64
    6  A    between atoms: C_11  and  P_55
    7  A    between atoms: C_14  and  C_23
    8  A    between atoms: C_15  and  C_23
    9  A    between atoms: C_15  and  C_57
   10  A    between atoms: C_16  and  O_36
   11  A    between atoms: C_18  and  C_19
   12  A    between atoms: C_19  and  C_41
   13  A    between atoms: C_20  and  C_65
   14  A    between atoms: N_25  and  O_62
   15  A    between atoms: C_29  and  C_63
   16  A    between atoms: C_30  and  N_31
   17  A    between atoms: N_31  and  C_54
   18  A    between atoms: O_33  and  C_39
   19  A    between atoms: O_33  and  C_58
   20  A    between atoms: C_42  and  C_43
   21  A    between atoms: C_42  and  C_57
   22  A    between atoms: C_45  and  C_54
   23  A    between atoms: N_46  and  C_56
   24  A    between atoms: C_52  and  C_60
   25  A    between atoms: C_52  and  C_61
   26  A    between atoms: C_60  and  S_64
   27  A    between atoms: C_61  and  O_62
                            x       y       z     vdW  Elec       q    Type
                         _______ _______ _______ _____ _____    ______ ____

>  <TORSDO>
F 27

$$$$
=
 OpenBabel11042413163D

 70 76  0  0  1  0  0  0  0  0999 V2000
  189.4030  177.4660  137.9340 C   0  0  0  0  0  2  0  0  0  0  0  0
  190.7030  176.9780  135.8490 C   0  0  0  0  0  0  0  0  0  0  0  0
  188.5560  178.2670  135.6690 C   0  0  0  0  0  2  0  0  0  0  0  0
  189.5320  177.5230  136.4740 N   0  0  0  0  0  0  0  0  0  0  0  0
  187.0700  178.4810  137.7370 C   0  0  2  0  0  3  0  0  0  0  0  0
  191.7360  176.3990  136.6490 N   0  0  0  0  0  2  0  0  0  0  0  0
  187.1540  178.0960  136.2510 C   0  0  0  0  0  2  0  0  0  0  0  0
  188.4490  178.5470  138.4310 C   0  0  1  0  0  3  0  0  0  0  0  0
  190.8290  177.0240  134.5950 O   0  0  0  0  0  0  0  0  0  0  0  0
  195.1230  174.5690  137.1930 C   0  0  1  0  0  3  0  0  0  0  0  0
  193.7400  175.1010  137.1590 C   0  0  2  0  0  0  0  0  0  0  0  0
  195.3930  173.8620  138.5290 C   0  0  0  0  0  2  0  0  0  0  0  0
  193.8800  177.4420  137.6670 O   0  0  0  0  0  1  0  0  0  0  0  0
  193.4780  172.7560  136.9950 C   0  0  0  0  0  2  0  0  0  0  0  0
  195.6290  172.3720  138.2910 C   0  0  0  0  0  2  0  0  0  0  0  0
  192.9780  175.8880  136.0760 C   0  0  2  0  0  3  0  0  0  0  0  0
  194.1260  173.9060  136.3540 N   0  0  2  0  0  0  0  0  0  0  0  0
  194.5130  171.7320  137.4580 C   0  0  0  0  0  2  0  0  0  0  0  0
  194.1860  176.4970  136.6810 C   0  0  2  0  0  3  0  0  0  0  0  0
  186.1190  177.5270  138.4440 C   0  0  0  0  0  2  0  0  0  0  0  0
  184.7490  177.9760  138.2610 N   0  0  0  0  0  2  0  0  0  0  0  0
  182.5060  174.6840  136.2320 O   0  0  0  0  0  1  0  0  0  0  0  0
  183.9360  176.7920  138.0430 C   0  0  2  0  0  3  0  0  0  0  0  0
  184.8050  175.2530  136.4120 N   0  0  0  0  0  0  0  0  0  0  0  0
  184.8440  175.5890  137.8300 C   0  0  0  0  0  2  0  0  0  0  0  0
  183.1700  176.9420  136.7440 C   0  0  1  0  0  3  0  0  0  0  0  0
  183.4700  175.6690  135.9650 C   0  0  0  0  0  0  0  0  0  0  0  0
  183.4890  175.9480  134.5990 O   0  0  0  0  0  1  0  0  0  0  0  0
  185.0180  173.8160  136.2710 C   0  0  0  0  0  2  0  0  0  0  0  0
  186.3890  173.5530  136.1960 O   0  0  0  0  0  0  0  0  0  0  0  0
  186.4940  172.1790  136.4230 C   0  0  0  0  0  2  0  0  0  0  0  0
  188.7200  172.6980  135.7320 O   0  0  0  0  0  1  0  0  0  0  0  0
  187.9590  171.7720  136.4480 C   0  0  0  0  0  2  0  0  0  0  0  0
  181.6810  177.1860  136.9820 C   0  0  0  0  0  2  0  0  0  0  0  0
  180.9620  177.5370  135.6860 C   0  0  0  0  0  2  0  0  0  0  0  0
  179.5910  178.1320  135.9770 C   0  0  0  0  0  2  0  0  0  0  0  0
  179.4740  179.5340  135.4050 C   0  0  0  0  0  2  0  0  0  0  0  0
  180.8040  179.9580  134.8050 C   0  0  0  0  0  2  0  0  0  0  0  0
  180.9520  181.4620  134.9110 C   0  0  0  0  0  1  0  0  0  0  0  0
  188.3390  178.4980  139.8510 O   0  0  0  0  0  0  0  0  0  0  0  0
  189.1750  178.0440  142.0620 C   0  0  0  0  0  3  0  0  0  0  0  0
  190.1880  177.6070  142.9210 C   0  0  0  0  0  0  0  0  0  0  0  0
  189.3760  178.0590  140.6780 C   0  0  0  0  0  0  0  0  0  0  0  0
  191.6200  177.1870  141.0050 C   0  0  0  0  0  3  0  0  0  0  0  0
  190.6040  177.6270  140.1510 C   0  0  0  0  0  3  0  0  0  0  0  0
  191.4150  177.1800  142.3860 C   0  0  0  0  0  3  0  0  0  0  0  0
  190.4460  176.6720  145.1660 C   0  0  0  0  0  3  0  0  0  0  0  0
  189.9340  177.5980  144.3680 C   0  0  0  0  0  3  0  0  0  0  0  0
  190.1590  176.6810  146.6260 C   0  0  0  0  0  2  0  0  0  0  0  0
  187.9010  177.3850  145.7830 C   0  0  0  0  0  2  0  0  0  0  0  0
  186.4770  178.6720  147.4850 C   0  0  0  0  0  2  0  0  0  0  0  0
  188.3820  177.2630  148.1340 O   0  0  0  0  0  0  0  0  0  0  0  0
  187.6220  178.3970  148.4790 C   0  0  2  0  0  3  0  0  0  0  0  0
  188.9490  177.5560  146.8860 C   0  0  1  0  0  3  0  0  0  0  0  0
  187.0550  178.2320  149.8710 C   0  0  0  0  0  1  0  0  0  0  0  0
  186.4860  177.7030  146.2950 C   0  0  1  0  0  3  0  0  0  0  0  0
  185.6300  178.2350  145.1930 C   0  0  0  0  0  0  0  0  0  0  0  0
  184.2470  178.5120  145.4290 N   0  0  0  0  0  2  0  0  0  0  0  0
  186.1230  178.3960  144.0440 O   0  0  0  0  0  0  0  0  0  0  0  0
  183.3990  178.8310  144.4210 O   0  0  0  0  0  0  0  0  0  0  0  0
  182.1270  178.7850  144.9960 C   0  0  0  0  0  2  0  0  0  0  0  0
  181.1570  178.0380  144.0830 C   0  0  0  0  0  2  0  0  0  0  0  0
  182.0990  179.5390  142.2770 C   0  0  0  0  0  1  0  0  0  0  0  0
  180.8900  178.7580  142.7590 C   0  0  1  0  0  3  0  0  0  0  0  0
  180.2990  177.6260  141.4640 S   0  0  0  0  0  0  0  0  0  0  0  0
  179.1950  178.8790  140.7570 C   0  0  1  0  0  3  0  0  0  0  0  0
  178.9310  179.8420  141.7130 F   0  0  0  0  0  0  0  0  0  0  0  0
  179.8530  179.5370  139.5580 C   0  0  0  0  0  2  0  0  0  0  0  0
  179.5430  182.4780  139.3800 O   0  0  0  0  0  0  0  0  0  0  0  0
  178.9310  181.0830  139.0820 P   0  0  0  0  0  0  0  0  0  0  0  0
  1  8  1  0  0  0  0
  2  4  1  0  0  0  0
  2  6  1  0  0  0  0
  3  7  1  0  0  0  0
  3  4  1  0  0  0  0
  4  1  1  0  0  0  0
  5  8  1  0  0  0  0
  5 20  1  1  0  0  0
  7  5  1  0  0  0  0
  8 40  1  1  0  0  0
  9  2  2  0  0  0  0
 10 12  1  1  0  0  0
 11 10  1  0  0  0  0
 14 18  1  0  0  0  0
 15 12  1  0  0  0  0
 16  6  1  0  0  0  0
 16 19  1  0  0  0  0
 16 11  1  0  0  0  0
 17 14  1  0  0  0  0
 17 11  1  0  0  0  0
 17 10  1  0  0  0  0
 18 15  1  0  0  0  0
 19 11  1  0  0  0  0
 19 13  1  0  0  0  0
 21 20  1  0  0  0  0
 23 21  1  0  0  0  0
 24 25  1  0  0  0  0
 25 23  1  0  0  0  0
 26 34  1  0  0  0  0
 26 23  1  0  0  0  0
 27 22  1  0  0  0  0
 27 24  1  0  0  0  0
 27 26  1  0  0  0  0
 28 27  1  0  0  0  0
 29 24  1  0  0  0  0
 30 29  1  0  0  0  0
 30 31  1  0  0  0  0
 31 33  1  0  0  0  0
 32 33  1  0  0  0  0
 35 36  1  0  0  0  0
 35 34  1  0  0  0  0
 37 36  1  0  0  0  0
 38 39  1  0  0  0  0
 38 37  1  0  0  0  0
 40 43  1  0  0  0  0
 41 42  1  0  0  0  0
 42 48  1  0  0  0  0
 43 41  2  0  0  0  0
 44 46  1  0  0  0  0
 45 43  1  0  0  0  0
 45 44  2  0  0  0  0
 46 42  2  0  0  0  0
 47 49  1  0  0  0  0
 48 47  2  0  0  0  0
 49 54  1  0  0  0  0
 50 56  1  0  0  0  0
 50 54  1  0  0  0  0
 51 53  1  0  0  0  0
 52 53  1  0  0  0  0
 53 55  1  0  0  0  0
 54 52  1  0  0  0  0
 56 51  1  0  0  0  0
 57 58  1  0  0  0  0
 57 56  1  0  0  0  0
 59 57  2  0  0  0  0
 60 61  1  0  0  0  0
 60 58  1  0  0  0  0
 62 61  1  0  0  0  0
 63 64  1  0  0  0  0
 64 62  1  0  0  0  0
 65 64  1  0  0  0  0
 66 65  1  0  0  0  0
 66 67  1  0  0  0  0
 68 66  1  0  0  0  0
 70 69  2  0  0  0  0
 70 68  1  0  0  0  0
M  END
>  <MODEL>
5

>  <REMARK>
 VINA RESULT:      -3.7      1.701      2.277
  Name = 
  27 active torsions:
  status: ('A' for Active; 'I' for Inactive)
    1  A    between atoms: C_5  and  N_32
    2  A    between atoms: C_5  and  O_36
    3  A    between atoms: C_9  and  C_16
    4  A    between atoms: C_10  and  C_11
    5  A    between atoms: C_10  and  S_64
    6  A    between atoms: C_11  and  P_55
    7  A    between atoms: C_14  and  C_23
    8  A    between atoms: C_15  and  C_23
    9  A    between atoms: C_15  and  C_57
   10  A    between atoms: C_16  and  O_36
   11  A    between atoms: C_18  and  C_19
   12  A    between atoms: C_19  and  C_41
   13  A    between atoms: C_20  and  C_65
   14  A    between atoms: N_25  and  O_62
   15  A    between atoms: C_29  and  C_63
   16  A    between atoms: C_30  and  N_31
   17  A    between atoms: N_31  and  C_54
   18  A    between atoms: O_33  and  C_39
   19  A    between atoms: O_33  and  C_58
   20  A    between atoms: C_42  and  C_43
   21  A    between atoms: C_42  and  C_57
   22  A    between atoms: C_45  and  C_54
   23  A    between atoms: N_46  and  C_56
   24  A    between atoms: C_52  and  C_60
   25  A    between atoms: C_52  and  C_61
   26  A    between atoms: C_60  and  S_64
   27  A    between atoms: C_61  and  O_62
                            x       y       z     vdW  Elec       q    Type
                         _______ _______ _______ _____ _____    ______ ____

>  <TORSDO>
F 27

$$$$
=
 OpenBabel11042413163D

 70 76  0  0  1  0  0  0  0  0999 V2000
  188.4060  177.0500  137.4330 C   0  0  0  0  0  2  0  0  0  0  0  0
  190.2430  176.6040  135.7890 C   0  0  0  0  0  0  0  0  0  0  0  0
  187.9070  176.9510  134.9380 C   0  0  0  0  0  2  0  0  0  0  0  0
  188.8490  176.8150  136.0550 N   0  0  0  0  0  0  0  0  0  0  0  0
  185.9880  177.0790  136.6200 C   0  0  2  0  0  3  0  0  0  0  0  0
  191.1870  176.6380  136.8610 N   0  0  0  0  0  2  0  0  0  0  0  0
  186.5320  176.4220  135.3400 C   0  0  0  0  0  2  0  0  0  0  0  0
  187.0750  177.7960  137.4490 C   0  0  1  0  0  3  0  0  0  0  0  0
  190.6380  176.4050  134.6080 O   0  0  0  0  0  0  0  0  0  0  0  0
  194.4310  174.5720  137.4380 C   0  0  1  0  0  3  0  0  0  0  0  0
  193.0790  175.1310  137.1980 C   0  0  2  0  0  0  0  0  0  0  0  0
  194.3290  173.1540  138.0190 C   0  0  0  0  0  2  0  0  0  0  0  0
  192.5870  176.5840  139.0440 O   0  0  0  0  0  1  0  0  0  0  0  0
  193.3360  173.4670  135.5370 C   0  0  0  0  0  2  0  0  0  0  0  0
  194.9090  172.1440  137.0320 C   0  0  0  0  0  2  0  0  0  0  0  0
  192.6240  176.4950  136.6450 C   0  0  2  0  0  3  0  0  0  0  0  0
  193.9450  174.6940  136.0650 N   0  0  2  0  0  0  0  0  0  0  0  0
  194.3080  172.2910  135.6290 C   0  0  0  0  0  2  0  0  0  0  0  0
  193.3970  176.4610  137.9090 C   0  0  2  0  0  3  0  0  0  0  0  0
  185.2420  176.0330  137.4350 C   0  0  0  0  0  2  0  0  0  0  0  0
  184.4010  175.2360  136.5590 N   0  0  0  0  0  2  0  0  0  0  0  0
  179.9740  175.2270  137.1840 O   0  0  0  0  0  1  0  0  0  0  0  0
  183.0340  175.6900  136.7460 C   0  0  2  0  0  3  0  0  0  0  0  0
  181.8340  174.5890  138.5160 N   0  0  0  0  0  0  0  0  0  0  0  0
  182.7120  175.7190  138.2340 C   0  0  0  0  0  2  0  0  0  0  0  0
  182.0800  174.6710  136.1570 C   0  0  1  0  0  3  0  0  0  0  0  0
  181.0860  174.3760  137.2710 C   0  0  0  0  0  0  0  0  0  0  0  0
  180.6680  173.0480  137.1880 O   0  0  0  0  0  1  0  0  0  0  0  0
  180.9660  174.9470  139.6340 C   0  0  0  0  0  2  0  0  0  0  0  0
  181.4030  176.1490  140.1980 O   0  0  0  0  0  0  0  0  0  0  0  0
  180.3780  177.0570  139.9220 C   0  0  0  0  0  2  0  0  0  0  0  0
  179.7930  178.3540  141.8400 O   0  0  0  0  0  1  0  0  0  0  0  0
  179.4710  177.1920  141.1360 C   0  0  0  0  0  2  0  0  0  0  0  0
  181.4330  175.1710  134.8660 C   0  0  0  0  0  2  0  0  0  0  0  0
  179.9810  175.5720  135.0930 C   0  0  0  0  0  2  0  0  0  0  0  0
  179.7320  176.9890  134.5950 C   0  0  0  0  0  2  0  0  0  0  0  0
  180.1310  178.0120  135.6440 C   0  0  0  0  0  2  0  0  0  0  0  0
  181.1320  178.9910  135.0520 C   0  0  0  0  0  2  0  0  0  0  0  0
  180.8460  180.3850  135.5730 C   0  0  0  0  0  1  0  0  0  0  0  0
  186.6570  178.0350  138.7910 O   0  0  0  0  0  0  0  0  0  0  0  0
  185.0770  178.7530  140.4590 C   0  0  0  0  0  3  0  0  0  0  0  0
  183.8240  179.2570  140.8210 C   0  0  0  0  0  0  0  0  0  0  0  0
  185.3930  178.5360  139.1140 C   0  0  0  0  0  0  0  0  0  0  0  0
  183.1900  179.3390  138.4780 C   0  0  0  0  0  3  0  0  0  0  0  0
  184.4440  178.8330  138.1220 C   0  0  0  0  0  3  0  0  0  0  0  0
  182.8780  179.5470  139.8220 C   0  0  0  0  0  3  0  0  0  0  0  0
  183.4470  178.4760  143.1070 C   0  0  0  0  0  3  0  0  0  0  0  0
  183.5340  179.4790  142.2440 C   0  0  0  0  0  3  0  0  0  0  0  0
  183.1380  178.7300  144.5400 C   0  0  0  0  0  2  0  0  0  0  0  0
  185.4860  177.8400  144.5010 C   0  0  0  0  0  2  0  0  0  0  0  0
  186.8130  178.2280  146.6620 C   0  0  0  0  0  2  0  0  0  0  0  0
  184.8050  179.5180  146.0810 O   0  0  0  0  0  0  0  0  0  0  0  0
  185.5800  179.0140  147.1440 C   0  0  2  0  0  3  0  0  0  0  0  0
  184.3570  178.3920  145.3760 C   0  0  1  0  0  3  0  0  0  0  0  0
  186.0210  180.1480  148.0410 C   0  0  0  0  0  1  0  0  0  0  0  0
  186.8650  178.0930  145.1340 C   0  0  1  0  0  3  0  0  0  0  0  0
  187.8320  177.0230  144.7450 C   0  0  0  0  0  0  0  0  0  0  0  0
  187.6230  176.2680  143.5490 N   0  0  0  0  0  2  0  0  0  0  0  0
  188.8070  176.7610  145.4990 O   0  0  0  0  0  0  0  0  0  0  0  0
  188.3740  175.1810  143.2480 O   0  0  0  0  0  0  0  0  0  0  0  0
  189.4030  175.6700  142.4400 C   0  0  0  0  0  2  0  0  0  0  0  0
  188.8940  176.8140  141.5650 C   0  0  0  0  0  2  0  0  0  0  0  0
  189.6100  178.8910  140.3090 C   0  0  0  0  0  1  0  0  0  0  0  0
  189.9950  177.4880  140.7430 C   0  0  1  0  0  3  0  0  0  0  0  0
  191.5940  177.5000  141.6110 S   0  0  0  0  0  0  0  0  0  0  0  0
  191.0590  178.8100  142.7470 C   0  0  1  0  0  3  0  0  0  0  0  0
  189.8010  178.5040  143.2320 F   0  0  0  0  0  0  0  0  0  0  0  0
  192.0280  178.9200  143.9100 C   0  0  0  0  0  2  0  0  0  0  0  0
  191.8890  176.3010  145.2890 O   0  0  0  0  0  0  0  0  0  0  0  0
  191.4970  177.8040  145.3020 P   0  0  0  0  0  0  0  0  0  0  0  0
  1  8  1  0  0  0  0
  2  4  1  0  0  0  0
  2  6  1  0  0  0  0
  3  7  1  0  0  0  0
  3  4  1  0  0  0  0
  4  1  1  0  0  0  0
  5 20  1  1  0  0  0
  5  8  1  0  0  0  0
  7  5  1  0  0  0  0
  8 40  1  1  0  0  0
  9  2  2  0  0  0  0
 10 12  1  1  0  0  0
 11 10  1  0  0  0  0
 11 19  1  0  0  0  0
 14 18  1  0  0  0  0
 14 17  1  0  0  0  0
 15 12  1  0  0  0  0
 16  6  1  0  0  0  0
 16 11  1  0  0  0  0
 16 19  1  0  0  0  0
 17 11  1  0  0  0  0
 17 10  1  0  0  0  0
 18 15  1  0  0  0  0
 19 13  1  0  0  0  0
 21 23  1  0  0  0  0
 21 20  1  0  0  0  0
 22 27  1  0  0  0  0
 23 25  1  0  0  0  0
 24 29  1  0  0  0  0
 25 24  1  0  0  0  0
 26 23  1  0  0  0  0
 26 27  1  0  0  0  0
 27 24  1  0  0  0  0
 28 27  1  0  0  0  0
 29 30  1  0  0  0  0
 31 30  1  0  0  0  0
 31 33  1  0  0  0  0
 33 32  1  0  0  0  0
 34 35  1  0  0  0  0
 34 26  1  0  0  0  0
 36 35  1  0  0  0  0
 36 37  1  0  0  0  0
 38 39  1  0  0  0  0
 38 37  1  0  0  0  0
 40 43  1  0  0  0  0
 41 42  1  0  0  0  0
 42 48  1  0  0  0  0
 43 41  2  0  0  0  0
 44 46  1  0  0  0  0
 45 44  2  0  0  0  0
 45 43  1  0  0  0  0
 46 42  2  0  0  0  0
 47 49  1  0  0  0  0
 48 47  2  0  0  0  0
 49 54  1  0  0  0  0
 50 56  1  0  0  0  0
 50 54  1  0  0  0  0
 51 53  1  0  0  0  0
 52 53  1  0  0  0  0
 53 55  1  0  0  0  0
 54 52  1  0  0  0  0
 56 51  1  0  0  0  0
 57 56  1  0  0  0  0
 57 59  2  0  0  0  0
 58 57  1  0  0  0  0
 60 58  1  0  0  0  0
 61 60  1  0  0  0  0
 62 61  1  0  0  0  0
 63 64  1  0  0  0  0
 64 62  1  0  0  0  0
 64 65  1  0  0  0  0
 65 66  1  0  0  0  0
 66 67  1  0  0  0  0
 66 68  1  0  0  0  0
 68 70  1  0  0  0  0
 69 70  2  0  0  0  0
M  END
>  <MODEL>
6

>  <REMARK>
 VINA RESULT:      -3.3      3.405      6.235
  Name = 
  27 active torsions:
  status: ('A' for Active; 'I' for Inactive)
    1  A    between atoms: C_5  and  N_32
    2  A    between atoms: C_5  and  O_36
    3  A    between atoms: C_9  and  C_16
    4  A    between atoms: C_10  and  C_11
    5  A    between atoms: C_10  and  S_64
    6  A    between atoms: C_11  and  P_55
    7  A    between atoms: C_14  and  C_23
    8  A    between atoms: C_15  and  C_23
    9  A    between atoms: C_15  and  C_57
   10  A    between atoms: C_16  and  O_36
   11  A    between atoms: C_18  and  C_19
   12  A    between atoms: C_19  and  C_41
   13  A    between atoms: C_20  and  C_65
   14  A    between atoms: N_25  and  O_62
   15  A    between atoms: C_29  and  C_63
   16  A    between atoms: C_30  and  N_31
   17  A    between atoms: N_31  and  C_54
   18  A    between atoms: O_33  and  C_39
   19  A    between atoms: O_33  and  C_58
   20  A    between atoms: C_42  and  C_43
   21  A    between atoms: C_42  and  C_57
   22  A    between atoms: C_45  and  C_54
   23  A    between atoms: N_46  and  C_56
   24  A    between atoms: C_52  and  C_60
   25  A    between atoms: C_52  and  C_61
   26  A    between atoms: C_60  and  S_64
   27  A    between atoms: C_61  and  O_62
                            x       y       z     vdW  Elec       q    Type
                         _______ _______ _______ _____ _____    ______ ____

>  <TORSDO>
F 27

$$$$
=
 OpenBabel11042413163D

 70 76  0  0  1  0  0  0  0  0999 V2000
  187.6510  176.9420  137.2260 C   0  0  0  0  0  2  0  0  0  0  0  0
  189.5740  177.2660  135.6530 C   0  0  0  0  0  0  0  0  0  0  0  0
  187.4050  178.4350  135.1780 C   0  0  0  0  0  2  0  0  0  0  0  0
  188.2000  177.5060  135.9880 N   0  0  0  0  0  0  0  0  0  0  0  0
  185.3550  177.8530  136.5880 C   0  0  2  0  0  3  0  0  0  0  0  0
  190.3990  176.4950  136.5290 N   0  0  0  0  0  2  0  0  0  0  0  0
  185.9380  178.0100  135.1740 C   0  0  0  0  0  2  0  0  0  0  0  0
  186.4360  177.7400  137.6860 C   0  0  1  0  0  3  0  0  0  0  0  0
  190.0600  177.7480  134.5940 O   0  0  0  0  0  0  0  0  0  0  0  0
  193.4800  174.1380  136.8050 C   0  0  1  0  0  3  0  0  0  0  0  0
  192.1720  174.8210  136.6550 C   0  0  2  0  0  0  0  0  0  0  0  0
  193.2740  172.6720  137.2150 C   0  0  0  0  0  2  0  0  0  0  0  0
  191.8050  176.0750  138.6680 O   0  0  0  0  0  1  0  0  0  0  0  0
  192.2910  173.3540  134.8040 C   0  0  0  0  0  2  0  0  0  0  0  0
  193.7680  171.7470  136.1050 C   0  0  0  0  0  2  0  0  0  0  0  0
  191.8200  176.2720  136.2750 C   0  0  2  0  0  3  0  0  0  0  0  0
  192.9950  174.4600  135.4640 N   0  0  2  0  0  0  0  0  0  0  0  0
  193.1710  172.1060  134.7400 C   0  0  0  0  0  2  0  0  0  0  0  0
  192.5960  176.0280  137.5140 C   0  0  2  0  0  3  0  0  0  0  0  0
  184.3990  176.6700  136.6030 C   0  0  0  0  0  2  0  0  0  0  0  0
  185.1530  175.4290  136.6510 N   0  0  0  0  0  2  0  0  0  0  0  0
  181.5290  172.8180  136.8350 O   0  0  0  0  0  1  0  0  0  0  0  0
  184.2280  174.3800  137.0430 C   0  0  2  0  0  3  0  0  0  0  0  0
  183.2300  173.1750  135.2170 N   0  0  0  0  0  0  0  0  0  0  0  0
  184.3870  173.1920  136.1050 C   0  0  0  0  0  2  0  0  0  0  0  0
  182.8070  174.8600  136.8340 C   0  0  1  0  0  3  0  0  0  0  0  0
  182.1440  173.7690  136.0060 C   0  0  0  0  0  0  0  0  0  0  0  0
  181.1930  174.3350  135.1570 O   0  0  0  0  0  1  0  0  0  0  0  0
  182.9560  171.7910  134.8420 C   0  0  0  0  0  2  0  0  0  0  0  0
  183.5470  170.9310  135.7720 O   0  0  0  0  0  0  0  0  0  0  0  0
  182.8610  169.7240  135.6160 C   0  0  0  0  0  2  0  0  0  0  0  0
  180.4760  169.6380  135.5260 O   0  0  0  0  0  1  0  0  0  0  0  0
  181.6120  169.9470  134.7760 C   0  0  0  0  0  2  0  0  0  0  0  0
  182.0980  175.1490  138.1570 C   0  0  0  0  0  2  0  0  0  0  0  0
  180.8250  175.9570  137.9400 C   0  0  0  0  0  2  0  0  0  0  0  0
  180.9150  177.3010  138.6490 C   0  0  0  0  0  2  0  0  0  0  0  0
  180.8680  178.4460  137.6520 C   0  0  0  0  0  2  0  0  0  0  0  0
  180.3200  177.9500  136.3250 C   0  0  0  0  0  2  0  0  0  0  0  0
  181.1880  178.4640  135.1940 C   0  0  0  0  0  1  0  0  0  0  0  0
  185.9160  177.1970  138.8980 O   0  0  0  0  0  0  0  0  0  0  0  0
  185.3750  177.8340  141.1550 C   0  0  0  0  0  3  0  0  0  0  0  0
  184.6090  178.5610  142.0710 C   0  0  0  0  0  0  0  0  0  0  0  0
  185.1260  177.9360  139.7830 C   0  0  0  0  0  0  0  0  0  0  0  0
  183.3330  179.5110  140.2360 C   0  0  0  0  0  3  0  0  0  0  0  0
  184.1010  178.7800  139.3250 C   0  0  0  0  0  3  0  0  0  0  0  0
  183.5820  179.4000  141.6050 C   0  0  0  0  0  3  0  0  0  0  0  0
  183.9880  178.6440  144.4350 C   0  0  0  0  0  3  0  0  0  0  0  0
  184.9080  178.4320  143.5040 C   0  0  0  0  0  3  0  0  0  0  0  0
  184.3250  178.5200  145.8790 C   0  0  0  0  0  2  0  0  0  0  0  0
  186.5970  178.5210  144.8110 C   0  0  0  0  0  2  0  0  0  0  0  0
  188.5070  177.7850  146.3580 C   0  0  0  0  0  2  0  0  0  0  0  0
  186.3320  178.5580  147.1990 O   0  0  0  0  0  0  0  0  0  0  0  0
  187.4360  177.7230  147.4630 C   0  0  2  0  0  3  0  0  0  0  0  0
  185.7660  178.0680  146.0140 C   0  0  1  0  0  3  0  0  0  0  0  0
  188.0560  178.0950  148.7900 C   0  0  0  0  0  1  0  0  0  0  0  0
  188.0840  178.6700  145.1770 C   0  0  1  0  0  3  0  0  0  0  0  0
  188.9520  178.3960  143.9930 C   0  0  0  0  0  0  0  0  0  0  0  0
  190.3330  178.7660  144.0140 N   0  0  0  0  0  2  0  0  0  0  0  0
  188.4500  177.8760  142.9600 O   0  0  0  0  0  0  0  0  0  0  0  0
  191.1110  178.6930  142.9070 O   0  0  0  0  0  0  0  0  0  0  0  0
  191.7230  177.4400  142.9830 C   0  0  0  0  0  2  0  0  0  0  0  0
  192.0130  177.0760  144.4380 C   0  0  0  0  0  2  0  0  0  0  0  0
  190.7680  174.9930  143.7200 C   0  0  0  0  0  1  0  0  0  0  0  0
  191.3310  175.7820  144.8890 C   0  0  1  0  0  3  0  0  0  0  0  0
  192.4290  174.7400  145.8970 S   0  0  0  0  0  0  0  0  0  0  0  0
  192.6100  176.0200  147.1690 C   0  0  1  0  0  3  0  0  0  0  0  0
  191.3980  176.6620  147.3430 F   0  0  0  0  0  0  0  0  0  0  0  0
  193.0330  175.3930  148.4850 C   0  0  0  0  0  2  0  0  0  0  0  0
  193.1350  178.1090  149.6670 O   0  0  0  0  0  0  0  0  0  0  0  0
  192.8110  176.6050  149.8800 P   0  0  0  0  0  0  0  0  0  0  0  0
  1  8  1  0  0  0  0
  2  4  1  0  0  0  0
  2  6  1  0  0  0  0
  3  4  1  0  0  0  0
  4  1  1  0  0  0  0
  5 20  1  6  0  0  0
  5  8  1  0  0  0  0
  7  3  1  0  0  0  0
  7  5  1  0  0  0  0
  8 40  1  1  0  0  0
  9  2  2  0  0  0  0
 10 12  1  6  0  0  0
 11 10  1  0  0  0  0
 11 19  1  0  0  0  0
 14 17  1  0  0  0  0
 15 12  1  0  0  0  0
 16  6  1  0  0  0  0
 16 11  1  0  0  0  0
 16 19  1  0  0  0  0
 17 11  1  0  0  0  0
 17 10  1  0  0  0  0
 18 14  1  0  0  0  0
 18 15  1  0  0  0  0
 19 13  1  0  0  0  0
 20 21  1  0  0  0  0
 21 23  1  0  0  0  0
 24 27  1  0  0  0  0
 24 25  1  0  0  0  0
 25 23  1  0  0  0  0
 26 23  1  0  0  0  0
 26 34  1  0  0  0  0
 27 26  1  0  0  0  0
 27 22  1  0  0  0  0
 28 27  1  0  0  0  0
 29 24  1  0  0  0  0
 29 30  1  0  0  0  0
 31 30  1  0  0  0  0
 33 32  1  0  0  0  0
 33 31  1  0  0  0  0
 35 34  1  0  0  0  0
 35 36  1  0  0  0  0
 37 36  1  0  0  0  0
 38 37  1  0  0  0  0
 39 38  1  0  0  0  0
 40 43  1  0  0  0  0
 41 42  1  0  0  0  0
 42 48  1  0  0  0  0
 43 41  2  0  0  0  0
 44 46  1  0  0  0  0
 45 43  1  0  0  0  0
 45 44  2  0  0  0  0
 46 42  2  0  0  0  0
 47 49  1  0  0  0  0
 48 47  2  0  0  0  0
 49 54  1  0  0  0  0
 50 56  1  0  0  0  0
 50 54  1  0  0  0  0
 51 53  1  0  0  0  0
 52 53  1  0  0  0  0
 53 55  1  0  0  0  0
 54 52  1  0  0  0  0
 56 51  1  0  0  0  0
 57 58  1  0  0  0  0
 57 56  1  0  0  0  0
 59 57  2  0  0  0  0
 60 61  1  0  0  0  0
 60 58  1  0  0  0  0
 61 62  1  0  0  0  0
 62 64  1  0  0  0  0
 63 64  1  0  0  0  0
 64 65  1  0  0  0  0
 65 66  1  0  0  0  0
 66 67  1  0  0  0  0
 66 68  1  0  0  0  0
 68 70  1  0  0  0  0
 69 70  2  0  0  0  0
M  END
>  <MODEL>
7

>  <REMARK>
 VINA RESULT:      -2.6      3.869      6.392
  Name = 
  27 active torsions:
  status: ('A' for Active; 'I' for Inactive)
    1  A    between atoms: C_5  and  N_32
    2  A    between atoms: C_5  and  O_36
    3  A    between atoms: C_9  and  C_16
    4  A    between atoms: C_10  and  C_11
    5  A    between atoms: C_10  and  S_64
    6  A    between atoms: C_11  and  P_55
    7  A    between atoms: C_14  and  C_23
    8  A    between atoms: C_15  and  C_23
    9  A    between atoms: C_15  and  C_57
   10  A    between atoms: C_16  and  O_36
   11  A    between atoms: C_18  and  C_19
   12  A    between atoms: C_19  and  C_41
   13  A    between atoms: C_20  and  C_65
   14  A    between atoms: N_25  and  O_62
   15  A    between atoms: C_29  and  C_63
   16  A    between atoms: C_30  and  N_31
   17  A    between atoms: N_31  and  C_54
   18  A    between atoms: O_33  and  C_39
   19  A    between atoms: O_33  and  C_58
   20  A    between atoms: C_42  and  C_43
   21  A    between atoms: C_42  and  C_57
   22  A    between atoms: C_45  and  C_54
   23  A    between atoms: N_46  and  C_56
   24  A    between atoms: C_52  and  C_60
   25  A    between atoms: C_52  and  C_61
   26  A    between atoms: C_60  and  S_64
   27  A    between atoms: C_61  and  O_62
                            x       y       z     vdW  Elec       q    Type
                         _______ _______ _______ _____ _____    ______ ____

>  <TORSDO>
F 27

$$$$
=
 OpenBabel11042413163D

 70 76  0  0  1  0  0  0  0  0999 V2000
  187.3320  178.5820  141.2200 C   0  0  0  0  0  2  0  0  0  0  0  0
  188.8300  177.6510  143.0000 C   0  0  0  0  0  0  0  0  0  0  0  0
  186.3830  177.0930  143.0550 C   0  0  0  0  0  2  0  0  0  0  0  0
  187.5110  177.8170  142.4580 N   0  0  0  0  0  0  0  0  0  0  0  0
  184.8070  178.2970  141.4440 C   0  0  2  0  0  3  0  0  0  0  0  0
  189.9550  178.2190  142.3260 N   0  0  0  0  0  2  0  0  0  0  0  0
  185.0970  177.9030  142.9010 C   0  0  0  0  0  2  0  0  0  0  0  0
  186.0390  178.1750  140.5210 C   0  0  1  0  0  3  0  0  0  0  0  0
  188.9990  176.9920  144.0620 O   0  0  0  0  0  0  0  0  0  0  0  0
  192.3570  177.0980  145.1710 C   0  0  1  0  0  3  0  0  0  0  0  0
  191.2940  177.3300  144.1640 C   0  0  2  0  0  0  0  0  0  0  0  0
  191.7890  176.3530  146.3880 C   0  0  0  0  0  2  0  0  0  0  0  0
  190.5560  179.5970  144.4380 O   0  0  0  0  0  1  0  0  0  0  0  0
  191.7130  175.0050  144.0590 C   0  0  0  0  0  2  0  0  0  0  0  0
  192.4290  174.9710  146.4960 C   0  0  0  0  0  2  0  0  0  0  0  0
  191.3260  178.0290  142.7920 C   0  0  2  0  0  3  0  0  0  0  0  0
  192.3630  176.3150  143.9360 N   0  0  2  0  0  0  0  0  0  0  0  0
  192.3430  174.1850  145.1840 C   0  0  0  0  0  2  0  0  0  0  0  0
  191.6380  178.8240  144.0040 C   0  0  2  0  0  3  0  0  0  0  0  0
  184.2070  179.6940  141.4180 C   0  0  0  0  0  2  0  0  0  0  0  0
  182.7570  179.6060  141.4230 N   0  0  0  0  0  2  0  0  0  0  0  0
  180.2750  178.4910  137.8760 O   0  0  0  0  0  1  0  0  0  0  0  0
  182.3360  179.3760  140.0520 C   0  0  2  0  0  3  0  0  0  0  0  0
  180.1460  180.2080  139.5110 N   0  0  0  0  0  0  0  0  0  0  0  0
  181.5550  180.5840  139.5550 C   0  0  0  0  0  2  0  0  0  0  0  0
  181.3510  178.2260  140.0140 C   0  0  1  0  0  3  0  0  0  0  0  0
  180.1520  178.7640  139.2470 C   0  0  0  0  0  0  0  0  0  0  0  0
  178.9810  178.1860  139.7370 O   0  0  0  0  0  1  0  0  0  0  0  0
  179.4990  180.9680  138.4450 C   0  0  0  0  0  2  0  0  0  0  0  0
  179.2110  182.2580  138.9010 O   0  0  0  0  0  0  0  0  0  0  0  0
  179.3930  183.0720  137.7810 C   0  0  0  0  0  2  0  0  0  0  0  0
  181.4020  183.3620  136.5230 O   0  0  0  0  0  1  0  0  0  0  0  0
  180.8140  183.6130  137.7640 C   0  0  0  0  0  2  0  0  0  0  0  0
  181.9620  176.9670  139.4040 C   0  0  0  0  0  2  0  0  0  0  0  0
  181.3220  175.7070  139.9730 C   0  0  0  0  0  2  0  0  0  0  0  0
  180.0490  175.3610  139.2120 C   0  0  0  0  0  2  0  0  0  0  0  0
  180.2670  175.4650  137.7120 C   0  0  0  0  0  2  0  0  0  0  0  0
  181.7290  175.2110  137.3860 C   0  0  0  0  0  2  0  0  0  0  0  0
  181.8670  173.8740  136.6860 C   0  0  0  0  0  1  0  0  0  0  0  0
  185.8770  178.9110  139.3100 O   0  0  0  0  0  0  0  0  0  0  0  0
  187.0500  177.9800  137.4250 C   0  0  0  0  0  3  0  0  0  0  0  0
  187.0550  177.3670  136.1680 C   0  0  0  0  0  0  0  0  0  0  0  0
  185.8420  178.3030  138.0520 C   0  0  0  0  0  0  0  0  0  0  0  0
  184.6270  177.3890  136.1580 C   0  0  0  0  0  3  0  0  0  0  0  0
  184.6280  178.0040  137.4130 C   0  0  0  0  0  3  0  0  0  0  0  0
  185.8350  177.0750  135.5340 C   0  0  0  0  0  3  0  0  0  0  0  0
  189.2310  176.2510  136.1440 C   0  0  0  0  0  3  0  0  0  0  0  0
  188.3450  177.0360  135.5480 C   0  0  0  0  0  3  0  0  0  0  0  0
  190.5360  175.9460  135.4970 C   0  0  0  0  0  2  0  0  0  0  0  0
  191.8890  173.8320  135.5350 C   0  0  0  0  0  2  0  0  0  0  0  0
  190.5690  171.7060  134.9700 C   0  0  0  0  0  2  0  0  0  0  0  0
  189.4920  173.7910  135.6950 O   0  0  0  0  0  0  0  0  0  0  0  0
  189.3320  172.6230  134.9250 C   0  0  2  0  0  3  0  0  0  0  0  0
  190.5670  174.4790  135.1160 C   0  0  1  0  0  3  0  0  0  0  0  0
  188.1170  171.8580  135.3980 C   0  0  0  0  0  1  0  0  0  0  0  0
  191.7280  172.3190  135.7670 C   0  0  1  0  0  3  0  0  0  0  0  0
  192.9990  171.5970  135.4630 C   0  0  0  0  0  0  0  0  0  0  0  0
  194.2580  172.1960  135.7810 N   0  0  0  0  0  2  0  0  0  0  0  0
  192.9560  170.4770  134.8870 O   0  0  0  0  0  0  0  0  0  0  0  0
  195.4310  171.6560  135.3710 O   0  0  0  0  0  0  0  0  0  0  0  0
  196.0820  172.6890  134.6910 C   0  0  0  0  0  2  0  0  0  0  0  0
  196.7150  173.6630  135.6840 C   0  0  0  0  0  2  0  0  0  0  0  0
  198.6750  172.2130  136.3620 C   0  0  0  0  0  1  0  0  0  0  0  0
  197.4460  172.9680  136.8350 C   0  0  1  0  0  3  0  0  0  0  0  0
  197.8770  174.1220  138.1740 S   0  0  0  0  0  0  0  0  0  0  0  0
  196.2300  173.9970  138.9230 C   0  0  1  0  0  3  0  0  0  0  0  0
  196.1430  174.8850  139.9780 F   0  0  0  0  0  0  0  0  0  0  0  0
  195.1640  174.3360  137.8980 C   0  0  0  0  0  2  0  0  0  0  0  0
  193.3080  176.6120  137.5050 O   0  0  0  0  0  0  0  0  0  0  0  0
  194.0970  175.7320  138.5120 P   0  0  0  0  0  0  0  0  0  0  0  0
  1  4  1  0  0  0  0
  2  9  2  0  0  0  0
  4  2  1  0  0  0  0
  4  3  1  0  0  0  0
  5 20  1  1  0  0  0
  5  7  1  0  0  0  0
  6 16  1  0  0  0  0
  6  2  1  0  0  0  0
  7  3  1  0  0  0  0
  8 40  1  6  0  0  0
  8  1  1  0  0  0  0
  8  5  1  0  0  0  0
 10 12  1  1  0  0  0
 11 10  1  0  0  0  0
 12 15  1  0  0  0  0
 14 18  1  0  0  0  0
 16 19  1  0  0  0  0
 16 11  1  0  0  0  0
 17 14  1  0  0  0  0
 17 11  1  0  0  0  0
 17 10  1  0  0  0  0
 18 15  1  0  0  0  0
 19 11  1  0  0  0  0
 19 13  1  0  0  0  0
 20 21  1  0  0  0  0
 22 27  1  0  0  0  0
 23 21  1  0  0  0  0
 24 25  1  0  0  0  0
 25 23  1  0  0  0  0
 26 23  1  0  0  0  0
 27 24  1  0  0  0  0
 27 28  1  0  0  0  0
 27 26  1  0  0  0  0
 29 30  1  0  0  0  0
 29 24  1  0  0  0  0
 31 30  1  0  0  0  0
 32 33  1  0  0  0  0
 33 31  1  0  0  0  0
 34 35  1  0  0  0  0
 34 26  1  0  0  0  0
 36 35  1  0  0  0  0
 37 36  1  0  0  0  0
 38 37  1  0  0  0  0
 39 38  1  0  0  0  0
 41 43  1  0  0  0  0
 42 41  2  0  0  0  0
 43 40  1  0  0  0  0
 44 45  1  0  0  0  0
 45 43  2  0  0  0  0
 46 44  2  0  0  0  0
 46 42  1  0  0  0  0
 48 47  2  0  0  0  0
 48 42  1  0  0  0  0
 49 47  1  0  0  0  0
 50 56  1  0  0  0  0
 51 56  1  0  0  0  0
 53 51  1  0  0  0  0
 53 55  1  0  0  0  0
 53 52  1  0  0  0  0
 54 49  1  0  0  0  0
 54 50  1  0  0  0  0
 54 52  1  0  0  0  0
 57 56  1  0  0  0  0
 57 58  1  0  0  0  0
 59 57  2  0  0  0  0
 60 58  1  0  0  0  0
 61 60  1  0  0  0  0
 61 62  1  0  0  0  0
 62 64  1  0  0  0  0
 63 64  1  0  0  0  0
 64 65  1  0  0  0  0
 65 66  1  0  0  0  0
 66 67  1  0  0  0  0
 68 70  1  0  0  0  0
 68 66  1  0  0  0  0
 69 70  2  0  0  0  0
M  END
>  <MODEL>
8

>  <REMARK>
 VINA RESULT:      -2.5      4.510     10.927
  Name = 
  27 active torsions:
  status: ('A' for Active; 'I' for Inactive)
    1  A    between atoms: C_5  and  N_32
    2  A    between atoms: C_5  and  O_36
    3  A    between atoms: C_9  and  C_16
    4  A    between atoms: C_10  and  C_11
    5  A    between atoms: C_10  and  S_64
    6  A    between atoms: C_11  and  P_55
    7  A    between atoms: C_14  and  C_23
    8  A    between atoms: C_15  and  C_23
    9  A    between atoms: C_15  and  C_57
   10  A    between atoms: C_16  and  O_36
   11  A    between atoms: C_18  and  C_19
   12  A    between atoms: C_19  and  C_41
   13  A    between atoms: C_20  and  C_65
   14  A    between atoms: N_25  and  O_62
   15  A    between atoms: C_29  and  C_63
   16  A    between atoms: C_30  and  N_31
   17  A    between atoms: N_31  and  C_54
   18  A    between atoms: O_33  and  C_39
   19  A    between atoms: O_33  and  C_58
   20  A    between atoms: C_42  and  C_43
   21  A    between atoms: C_42  and  C_57
   22  A    between atoms: C_45  and  C_54
   23  A    between atoms: N_46  and  C_56
   24  A    between atoms: C_52  and  C_60
   25  A    between atoms: C_52  and  C_61
   26  A    between atoms: C_60  and  S_64
   27  A    between atoms: C_61  and  O_62
                            x       y       z     vdW  Elec       q    Type
                         _______ _______ _______ _____ _____    ______ ____

>  <TORSDO>
F 27

$$$$
=
 OpenBabel11042413163D

 70 76  0  0  1  0  0  0  0  0999 V2000
  188.4920  177.1590  137.5530 C   0  0  0  0  0  2  0  0  0  0  0  0
  190.2150  176.6750  135.8000 C   0  0  0  0  0  0  0  0  0  0  0  0
  187.8660  177.1910  135.0850 C   0  0  0  0  0  2  0  0  0  0  0  0
  188.8510  176.9550  136.1460 N   0  0  0  0  0  0  0  0  0  0  0  0
  186.0430  177.3610  136.8670 C   0  0  2  0  0  3  0  0  0  0  0  0
  191.2120  176.6100  136.8230 N   0  0  0  0  0  2  0  0  0  0  0  0
  186.4820  176.7260  135.5380 C   0  0  0  0  0  2  0  0  0  0  0  0
  187.2110  177.9790  137.6660 C   0  0  1  0  0  3  0  0  0  0  0  0
  190.5400  176.5020  134.5940 O   0  0  0  0  0  0  0  0  0  0  0  0
  194.3880  174.4120  137.2760 C   0  0  1  0  0  3  0  0  0  0  0  0
  193.0500  175.0260  137.0980 C   0  0  2  0  0  0  0  0  0  0  0  0
  194.2570  173.0190  137.9090 C   0  0  0  0  0  2  0  0  0  0  0  0
  192.7360  176.5570  138.9200 O   0  0  0  0  0  1  0  0  0  0  0  0
  193.1310  173.3030  135.4810 C   0  0  0  0  0  2  0  0  0  0  0  0
  194.7300  171.9530  136.9230 C   0  0  0  0  0  2  0  0  0  0  0  0
  192.6260  176.3930  136.5280 C   0  0  2  0  0  3  0  0  0  0  0  0
  193.8250  174.5150  135.9310 N   0  0  2  0  0  0  0  0  0  0  0  0
  194.0530  172.0860  135.5550 C   0  0  0  0  0  2  0  0  0  0  0  0
  193.4710  176.3610  137.7450 C   0  0  2  0  0  3  0  0  0  0  0  0
  185.2770  176.3280  137.6800 C   0  0  0  0  0  2  0  0  0  0  0  0
  184.4260  175.5440  136.8010 N   0  0  0  0  0  2  0  0  0  0  0  0
  179.9960  176.0030  136.4180 O   0  0  0  0  0  1  0  0  0  0  0  0
  183.0560  175.9530  137.0530 C   0  0  2  0  0  3  0  0  0  0  0  0
  181.4320  174.1840  136.9350 N   0  0  0  0  0  0  0  0  0  0  0  0
  182.3430  174.8670  137.8460 C   0  0  0  0  0  2  0  0  0  0  0  0
  182.3060  176.0380  135.7390 C   0  0  1  0  0  3  0  0  0  0  0  0
  181.0510  175.2040  135.9510 C   0  0  0  0  0  0  0  0  0  0  0  0
  180.6820  174.5950  134.7510 O   0  0  0  0  0  1  0  0  0  0  0  0
  180.2900  173.6950  137.7040 C   0  0  0  0  0  2  0  0  0  0  0  0
  180.5480  172.3950  138.1450 O   0  0  0  0  0  0  0  0  0  0  0  0
  179.8110  171.5800  137.2810 C   0  0  0  0  0  2  0  0  0  0  0  0
  180.1770  170.7580  135.0700 O   0  0  0  0  0  1  0  0  0  0  0  0
  180.7520  170.8470  136.3390 C   0  0  0  0  0  2  0  0  0  0  0  0
  182.0280  177.4830  135.3290 C   0  0  0  0  0  2  0  0  0  0  0  0
  180.8790  178.0770  136.1350 C   0  0  0  0  0  2  0  0  0  0  0  0
  181.2040  179.5020  136.5620 C   0  0  0  0  0  2  0  0  0  0  0  0
  180.1060  180.0690  137.4440 C   0  0  0  0  0  2  0  0  0  0  0  0
  179.0900  180.8080  136.5890 C   0  0  0  0  0  2  0  0  0  0  0  0
  179.3920  182.2930  136.6130 C   0  0  0  0  0  1  0  0  0  0  0  0
  186.8740  178.1880  139.0350 O   0  0  0  0  0  0  0  0  0  0  0  0
  185.4100  178.9220  140.7990 C   0  0  0  0  0  3  0  0  0  0  0  0
  184.1580  179.3530  141.2510 C   0  0  0  0  0  0  0  0  0  0  0  0
  185.6080  178.6100  139.4500 C   0  0  0  0  0  0  0  0  0  0  0  0
  183.2900  179.1700  138.9910 C   0  0  0  0  0  3  0  0  0  0  0  0
  184.5420  178.7370  138.5450 C   0  0  0  0  0  3  0  0  0  0  0  0
  183.0960  179.4730  140.3390 C   0  0  0  0  0  3  0  0  0  0  0  0
  183.5460  178.7900  143.5500 C   0  0  0  0  0  3  0  0  0  0  0  0
  183.9940  179.6780  142.6740 C   0  0  0  0  0  3  0  0  0  0  0  0
  183.3750  179.1530  144.9830 C   0  0  0  0  0  2  0  0  0  0  0  0
  185.5980  177.9950  144.8410 C   0  0  0  0  0  2  0  0  0  0  0  0
  186.9990  178.0990  146.9880 C   0  0  0  0  0  2  0  0  0  0  0  0
  185.1500  179.6490  146.5250 O   0  0  0  0  0  0  0  0  0  0  0  0
  185.8760  178.9980  147.5400 C   0  0  2  0  0  3  0  0  0  0  0  0
  184.5590  178.6260  145.7700 C   0  0  1  0  0  3  0  0  0  0  0  0
  186.4650  180.0180  148.4870 C   0  0  0  0  0  1  0  0  0  0  0  0
  187.0090  178.0460  145.4540 C   0  0  1  0  0  3  0  0  0  0  0  0
  187.8340  176.8930  144.9850 C   0  0  0  0  0  0  0  0  0  0  0  0
  187.5820  176.3040  143.7060 N   0  0  0  0  0  2  0  0  0  0  0  0
  188.7220  176.4150  145.7400 O   0  0  0  0  0  0  0  0  0  0  0  0
  188.1880  175.1560  143.3160 O   0  0  0  0  0  0  0  0  0  0  0  0
  189.4110  175.5630  142.7780 C   0  0  0  0  0  2  0  0  0  0  0  0
  189.4170  177.0740  142.5520 C   0  0  0  0  0  2  0  0  0  0  0  0
  190.9500  179.0860  142.6280 C   0  0  0  0  0  1  0  0  0  0  0  0
  190.8020  177.6320  142.2130 C   0  0  1  0  0  3  0  0  0  0  0  0
  192.1420  176.6240  142.9160 S   0  0  0  0  0  0  0  0  0  0  0  0
  191.6590  177.0190  144.6180 C   0  0  1  0  0  3  0  0  0  0  0  0
  190.3780  177.5400  144.6170 F   0  0  0  0  0  0  0  0  0  0  0  0
  191.6850  175.7660  145.4730 C   0  0  0  0  0  2  0  0  0  0  0  0
  190.6530  177.3380  147.7630 O   0  0  0  0  0  0  0  0  0  0  0  0
  191.6070  176.2130  147.2790 P   0  0  0  0  0  0  0  0  0  0  0  0
  1  8  1  0  0  0  0
  2  4  1  0  0  0  0
  2  6  1  0  0  0  0
  3  7  1  0  0  0  0
  3  4  1  0  0  0  0
  4  1  1  0  0  0  0
  5  8  1  0  0  0  0
  5 20  1  1  0  0  0
  7  5  1  0  0  0  0
  8 40  1  1  0  0  0
  9  2  2  0  0  0  0
 10 12  1  1  0  0  0
 11 10  1  0  0  0  0
 11 19  1  0  0  0  0
 14 18  1  0  0  0  0
 14 17  1  0  0  0  0
 15 12  1  0  0  0  0
 16  6  1  0  0  0  0
 16 11  1  0  0  0  0
 16 19  1  0  0  0  0
 17 11  1  0  0  0  0
 17 10  1  0  0  0  0
 18 15  1  0  0  0  0
 19 13  1  0  0  0  0
 21 23  1  0  0  0  0
 21 20  1  0  0  0  0
 23 25  1  0  0  0  0
 24 29  1  0  0  0  0
 24 25  1  0  0  0  0
 26 27  1  0  0  0  0
 26 23  1  0  0  0  0
 27 22  1  0  0  0  0
 27 24  1  0  0  0  0
 28 27  1  0  0  0  0
 29 30  1  0  0  0  0
 31 30  1  0  0  0  0
 32 33  1  0  0  0  0
 33 31  1  0  0  0  0
 34 26  1  0  0  0  0
 34 35  1  0  0  0  0
 35 36  1  0  0  0  0
 36 37  1  0  0  0  0
 38 39  1  0  0  0  0
 38 37  1  0  0  0  0
 40 43  1  0  0  0  0
 41 42  1  0  0  0  0
 42 48  1  0  0  0  0
 43 41  2  0  0  0  0
 44 46  1  0  0  0  0
 45 44  2  0  0  0  0
 45 43  1  0  0  0  0
 46 42  2  0  0  0  0
 47 49  1  0  0  0  0
 48 47  2  0  0  0  0
 49 54  1  0  0  0  0
 50 56  1  0  0  0  0
 50 54  1  0  0  0  0
 51 53  1  0  0  0  0
 52 53  1  0  0  0  0
 53 55  1  0  0  0  0
 54 52  1  0  0  0  0
 56 51  1  0  0  0  0
 57 56  1  0  0  0  0
 57 59  2  0  0  0  0
 58 57  1  0  0  0  0
 60 58  1  0  0  0  0
 61 60  1  0  0  0  0
 62 61  1  0  0  0  0
 64 62  1  0  0  0  0
 64 63  1  0  0  0  0
 64 65  1  0  0  0  0
 65 66  1  0  0  0  0
 66 68  1  0  0  0  0
 67 66  1  0  0  0  0
 68 70  1  0  0  0  0
 70 69  2  0  0  0  0
M  END
>  <MODEL>
9

>  <REMARK>
 VINA RESULT:      -2.2      3.523      6.195
  Name = 
  27 active torsions:
  status: ('A' for Active; 'I' for Inactive)
    1  A    between atoms: C_5  and  N_32
    2  A    between atoms: C_5  and  O_36
    3  A    between atoms: C_9  and  C_16
    4  A    between atoms: C_10  and  C_11
    5  A    between atoms: C_10  and  S_64
    6  A    between atoms: C_11  and  P_55
    7  A    between atoms: C_14  and  C_23
    8  A    between atoms: C_15  and  C_23
    9  A    between atoms: C_15  and  C_57
   10  A    between atoms: C_16  and  O_36
   11  A    between atoms: C_18  and  C_19
   12  A    between atoms: C_19  and  C_41
   13  A    between atoms: C_20  and  C_65
   14  A    between atoms: N_25  and  O_62
   15  A    between atoms: C_29  and  C_63
   16  A    between atoms: C_30  and  N_31
   17  A    between atoms: N_31  and  C_54
   18  A    between atoms: O_33  and  C_39
   19  A    between atoms: O_33  and  C_58
   20  A    between atoms: C_42  and  C_43
   21  A    between atoms: C_42  and  C_57
   22  A    between atoms: C_45  and  C_54
   23  A    between atoms: N_46  and  C_56
   24  A    between atoms: C_52  and  C_60
   25  A    between atoms: C_52  and  C_61
   26  A    between atoms: C_60  and  S_64
   27  A    between atoms: C_61  and  O_62
                            x       y       z     vdW  Elec       q    Type
                         _______ _______ _______ _____ _____    ______ ____

>  <TORSDO>
F 27

$$$$
