=
 OpenBabel11032419423D

 49 56  0  0  1  0  0  0  0  0999 V2000
  187.9520  173.4450  136.3930 C   0  0  1  0  0  3  0  0  0  0  0  0
  191.1050  176.2560  136.4720 C   0  0  0  0  0  2  0  0  0  0  0  0
  190.0530  176.3730  137.5810 C   0  0  2  0  0  3  0  0  0  0  0  0
  188.1120  171.4960  134.8560 C   0  0  0  0  0  1  0  0  0  0  0  0
  189.8980  173.2550  134.9100 C   0  0  0  0  0  2  0  0  0  0  0  0
  194.7540  171.8600  137.7370 C   0  0  0  0  0  2  0  0  0  0  0  0
  188.3820  172.9810  135.0030 C   0  0  2  0  0  3  0  0  0  0  0  0
  189.0520  174.3220  136.8340 C   0  0  0  0  0  0  0  0  0  0  0  0
  196.7990  174.8880  138.4210 O   0  0  0  0  0  0  0  0  0  0  0  0
  193.8320  173.8680  136.5890 C   0  0  0  0  0  0  0  0  0  0  0  0
  196.0670  174.1450  137.7110 C   0  0  0  0  0  0  0  0  0  0  0  0
  194.8940  174.6910  137.0950 N   0  0  0  0  0  2  0  0  0  0  0  0
  196.4830  172.3940  137.5470 S   0  0  0  0  0  0  0  0  0  0  0  0
  191.4260  174.8150  136.2250 C   0  0  0  0  0  0  0  0  0  0  0  0
  188.9110  175.5080  137.3180 N   0  0  0  0  0  0  0  0  0  0  0  0
  190.3220  173.7980  136.2720 C   0  0  2  0  0  3  0  0  0  0  0  0
  193.9600  172.3750  136.5410 C   0  0  0  0  0  2  0  0  0  0  0  0
  192.6490  174.3850  136.3980 C   0  0  0  0  0  0  0  0  0  0  0  0
  186.0420  176.9100  134.6110 C   0  0  0  0  0  3  0  0  0  0  0  0
  184.3080  174.1630  137.8250 C   0  0  0  0  0  3  0  0  0  0  0  0
  185.7650  172.3000  138.1340 O   0  0  0  0  0  0  0  0  0  0  0  0
  186.1640  175.0320  135.8860 C   0  0  0  0  0  0  0  0  0  0  0  0
  184.8720  176.8130  135.5050 N   0  0  0  0  0  0  0  0  0  0  0  0
  186.9010  175.7630  134.9250 N   0  0  0  0  0  0  0  0  0  0  0  0
  186.5520  173.9590  136.5750 C   0  0  0  0  0  0  0  0  0  0  0  0
  185.5590  173.3960  137.5420 C   0  0  0  0  0  0  0  0  0  0  0  0
  184.0500  175.2760  137.1820 N   0  0  0  0  0  0  0  0  0  0  0  0
  184.9450  175.7040  136.1510 C   0  0  0  0  0  0  0  0  0  0  0  0
  187.5830  178.9170  138.4470 O   0  0  0  0  0  0  0  0  0  0  0  0
  189.6080  177.8270  137.7920 C   0  0  2  0  0  3  0  0  0  0  0  0
  188.4930  177.9160  138.8200 C   0  0  1  0  0  3  0  0  0  0  0  0
  187.7430  179.1320  137.0580 C   0  0  0  0  0  2  0  0  0  0  0  0
  188.9310  178.3420  136.5500 C   0  0  0  0  0  2  0  0  0  0  0  0
  189.0540  178.2370  140.2030 C   0  0  0  0  0  2  0  0  0  0  0  0
  187.9880  178.1670  141.1920 N   0  0  0  0  0  2  0  0  0  0  0  0
  188.2510  177.0010  142.0340 C   0  0  0  0  0  2  0  0  0  0  0  0
  190.7350  177.5600  143.5620 C   0  0  0  0  0  2  0  0  0  0  0  0
  191.7190  175.6890  144.7320 N   0  0  0  0  0  1  0  0  0  0  0  0
  189.5090  178.0520  145.5730 C   0  0  1  0  0  3  0  0  0  0  0  0
  188.5260  176.9860  147.5900 C   0  0  0  0  0  2  0  0  0  0  0  0
  187.1560  177.0900  144.1980 N   0  0  0  0  0  0  0  0  0  0  0  0
  191.6190  177.1420  144.7170 C   0  0  2  0  0  3  0  0  0  0  0  0
  187.0460  177.3260  145.6440 C   0  0  1  0  0  3  0  0  0  0  0  0
  188.4110  177.3060  146.2930 C   0  0  0  0  0  0  0  0  0  0  0  0
  190.9120  177.6110  145.9850 C   0  0  0  0  0  2  0  0  0  0  0  0
  189.4280  177.8010  144.1430 N   0  0  0  0  0  0  0  0  0  0  0  0
  188.2180  177.3660  143.4920 C   0  0  0  0  0  0  0  0  0  0  0  0
  184.9960  178.6910  145.1970 C   0  0  0  0  0  1  0  0  0  0  0  0
  186.3470  178.6620  145.8820 C   0  0  0  0  0  2  0  0  0  0  0  0
  1 25  1  6  0  0  0
  1  8  1  0  0  0  0
  3  2  1  6  0  0  0
  3 30  1  0  0  0  0
  5  7  1  0  0  0  0
  7  4  1  1  0  0  0
  7  1  1  0  0  0  0
  8 15  2  0  0  0  0
 10 12  1  0  0  0  0
 11  9  2  0  0  0  0
 12 11  1  0  0  0  0
 13 11  1  0  0  0  0
 13  6  1  0  0  0  0
 14 16  1  0  0  0  0
 14 18  2  0  0  0  0
 14  2  1  0  0  0  0
 15  3  1  0  0  0  0
 16  5  1  6  0  0  0
 16  8  1  0  0  0  0
 17 10  1  0  0  0  0
 17  6  1  0  0  0  0
 18 10  2  0  0  0  0
 19 24  2  0  0  0  0
 19 23  1  0  0  0  0
 22 28  1  0  0  0  0
 22 25  2  0  0  0  0
 23 28  2  0  0  0  0
 24 22  1  0  0  0  0
 25 26  1  0  0  0  0
 26 20  1  0  0  0  0
 26 21  2  0  0  0  0
 27 20  2  0  0  0  0
 28 27  1  0  0  0  0
 29 31  1  0  0  0  0
 30 33  1  6  0  0  0
 30 31  1  0  0  0  0
 31 34  1  1  0  0  0
 32 29  1  0  0  0  0
 33 32  1  0  0  0  0
 34 35  1  0  0  0  0
 35 36  1  0  0  0  0
 36 47  1  0  0  0  0
 37 46  1  0  0  0  0
 37 42  1  0  0  0  0
 39 45  1  1  0  0  0
 39 44  1  0  0  0  0
 41 43  1  0  0  0  0
 42 38  1  1  0  0  0
 42 45  1  0  0  0  0
 43 49  1  6  0  0  0
 43 44  1  0  0  0  0
 44 40  2  0  0  0  0
 46 39  1  0  0  0  0
 47 46  1  0  0  0  0
 47 41  2  0  0  0  0
 48 49  1  0  0  0  0
M  END
>  <MODEL>
1

>  <REMARK>
 VINA RESULT:      -9.0      0.000      0.000
  Name = 
  7 active torsions:
  status: ('A' for Active; 'I' for Inactive)
    1  A    between atoms: C_3  and  C_42
    2  A    between atoms: C_8  and  C_14
    3  A    between atoms: C_13  and  N_39
    4  A    between atoms: C_13  and  C_41
    5  A    between atoms: C_18  and  C_47
    6  A    between atoms: C_20  and  C_31
    7  A    between atoms: N_39  and  C_47
                            x       y       z     vdW  Elec       q    Type
                         _______ _______ _______ _____ _____    ______ ____

>  <TORSDO>
F 7

$$$$
=
 OpenBabel11032419423D

 49 56  0  0  1  0  0  0  0  0999 V2000
  182.7090  176.0710  137.0120 C   0  0  1  0  0  3  0  0  0  0  0  0
  185.7410  178.6330  138.4600 C   0  0  0  0  0  2  0  0  0  0  0  0
  184.8820  177.9210  139.5120 C   0  0  2  0  0  3  0  0  0  0  0  0
  182.6770  175.4870  134.5940 C   0  0  0  0  0  1  0  0  0  0  0  0
  184.3900  177.0630  135.5250 C   0  0  0  0  0  2  0  0  0  0  0  0
  189.6860  174.8700  136.3330 C   0  0  0  0  0  2  0  0  0  0  0  0
  182.9190  176.6000  135.5940 C   0  0  2  0  0  3  0  0  0  0  0  0
  183.8380  176.6330  137.7750 C   0  0  0  0  0  0  0  0  0  0  0  0
  191.7180  177.0970  138.5090 O   0  0  0  0  0  0  0  0  0  0  0  0
  188.5250  177.0270  136.7790 C   0  0  0  0  0  0  0  0  0  0  0  0
  190.9040  176.8490  137.5780 C   0  0  0  0  0  0  0  0  0  0  0  0
  189.6280  177.5030  137.5640 N   0  0  0  0  0  2  0  0  0  0  0  0
  191.3430  175.6240  136.3240 S   0  0  0  0  0  0  0  0  0  0  0  0
  186.0630  177.6890  137.3430 C   0  0  0  0  0  0  0  0  0  0  0  0
  183.7410  177.2560  138.8990 N   0  0  0  0  0  0  0  0  0  0  0  0
  185.0150  176.7210  136.8740 C   0  0  2  0  0  3  0  0  0  0  0  0
  188.6900  175.8980  135.8060 C   0  0  0  0  0  2  0  0  0  0  0  0
  187.3100  177.4000  137.0790 C   0  0  0  0  0  0  0  0  0  0  0  0
  180.3280  179.6200  137.7610 C   0  0  0  0  0  3  0  0  0  0  0  0
  179.3600  175.3400  139.0360 C   0  0  0  0  0  3  0  0  0  0  0  0
  180.9430  173.8520  138.0520 O   0  0  0  0  0  0  0  0  0  0  0  0
  180.7800  177.3930  137.7190 C   0  0  0  0  0  0  0  0  0  0  0  0
  179.3490  178.8780  138.5790 N   0  0  0  0  0  0  0  0  0  0  0  0
  181.2880  178.6300  137.2600 N   0  0  0  0  0  0  0  0  0  0  0  0
  181.3420  176.1880  137.6250 C   0  0  0  0  0  0  0  0  0  0  0  0
  180.5750  175.0490  138.2160 C   0  0  0  0  0  0  0  0  0  0  0  0
  178.9310  176.5720  139.1750 N   0  0  0  0  0  0  0  0  0  0  0  0
  179.5980  177.6220  138.4670 C   0  0  0  0  0  0  0  0  0  0  0  0
  183.9990  178.7000  142.9670 O   0  0  0  0  0  0  0  0  0  0  0  0
  184.4320  178.8810  140.6220 C   0  0  2  0  0  3  0  0  0  0  0  0
  184.9590  178.4390  141.9760 C   0  0  1  0  0  3  0  0  0  0  0  0
  182.7460  178.8080  142.3180 C   0  0  0  0  0  2  0  0  0  0  0  0
  182.9420  178.7780  140.8170 C   0  0  0  0  0  2  0  0  0  0  0  0
  186.2500  179.1760  142.3230 C   0  0  0  0  0  2  0  0  0  0  0  0
  187.3770  178.5230  141.6700 N   0  0  0  0  0  2  0  0  0  0  0  0
  187.6060  177.2550  142.3620 C   0  0  0  0  0  2  0  0  0  0  0  0
  190.4330  177.7180  143.1440 C   0  0  0  0  0  2  0  0  0  0  0  0
  191.7000  175.7660  143.7940 N   0  0  0  0  0  1  0  0  0  0  0  0
  189.8540  177.9980  145.4620 C   0  0  1  0  0  3  0  0  0  0  0  0
  189.4940  176.7320  147.5680 C   0  0  0  0  0  2  0  0  0  0  0  0
  187.1930  177.1230  144.7490 N   0  0  0  0  0  0  0  0  0  0  0  0
  191.6130  177.2110  143.9460 C   0  0  2  0  0  3  0  0  0  0  0  0
  187.5120  177.2210  146.1800 C   0  0  1  0  0  3  0  0  0  0  0  0
  189.0080  177.1670  146.3980 C   0  0  0  0  0  0  0  0  0  0  0  0
  191.3120  177.5480  145.4030 C   0  0  0  0  0  2  0  0  0  0  0  0
  189.3550  177.8790  144.1010 N   0  0  0  0  0  0  0  0  0  0  0  0
  188.0040  177.4830  143.7940 C   0  0  0  0  0  0  0  0  0  0  0  0
  185.6000  178.8330  146.0740 C   0  0  0  0  0  1  0  0  0  0  0  0
  186.9250  178.5160  146.7360 C   0  0  0  0  0  2  0  0  0  0  0  0
  1 25  1  1  0  0  0
  1  8  1  0  0  0  0
  3  2  1  6  0  0  0
  3 30  1  0  0  0  0
  5  7  1  0  0  0  0
  7  4  1  6  0  0  0
  7  1  1  0  0  0  0
  8 15  2  0  0  0  0
 10 18  2  0  0  0  0
 10 12  1  0  0  0  0
 11  9  2  0  0  0  0
 12 11  1  0  0  0  0
 13  6  1  0  0  0  0
 13 11  1  0  0  0  0
 14  2  1  0  0  0  0
 15  3  1  0  0  0  0
 16  5  1  6  0  0  0
 16 14  1  0  0  0  0
 16  8  1  0  0  0  0
 17  6  1  0  0  0  0
 17 10  1  0  0  0  0
 18 14  2  0  0  0  0
 19 23  1  0  0  0  0
 20 27  2  0  0  0  0
 21 26  2  0  0  0  0
 22 28  1  0  0  0  0
 24 22  1  0  0  0  0
 24 19  2  0  0  0  0
 25 22  2  0  0  0  0
 25 26  1  0  0  0  0
 26 20  1  0  0  0  0
 28 23  2  0  0  0  0
 28 27  1  0  0  0  0
 30 33  1  1  0  0  0
 30 31  1  0  0  0  0
 31 34  1  1  0  0  0
 31 29  1  0  0  0  0
 32 29  1  0  0  0  0
 33 32  1  0  0  0  0
 35 34  1  0  0  0  0
 35 36  1  0  0  0  0
 36 47  1  0  0  0  0
 37 42  1  0  0  0  0
 37 46  1  0  0  0  0
 39 45  1  6  0  0  0
 39 44  1  0  0  0  0
 41 43  1  0  0  0  0
 42 38  1  1  0  0  0
 42 45  1  0  0  0  0
 43 44  1  0  0  0  0
 43 49  1  6  0  0  0
 44 40  2  0  0  0  0
 46 39  1  0  0  0  0
 47 46  1  0  0  0  0
 47 41  2  0  0  0  0
 48 49  1  0  0  0  0
M  END
>  <MODEL>
2

>  <REMARK>
 VINA RESULT:      -8.9      3.243      5.061
  Name = 
  7 active torsions:
  status: ('A' for Active; 'I' for Inactive)
    1  A    between atoms: C_3  and  C_42
    2  A    between atoms: C_8  and  C_14
    3  A    between atoms: C_13  and  N_39
    4  A    between atoms: C_13  and  C_41
    5  A    between atoms: C_18  and  C_47
    6  A    between atoms: C_20  and  C_31
    7  A    between atoms: N_39  and  C_47
                            x       y       z     vdW  Elec       q    Type
                         _______ _______ _______ _____ _____    ______ ____

>  <TORSDO>
F 7

$$$$
=
 OpenBabel11032419423D

 49 56  0  0  1  0  0  0  0  0999 V2000
  186.4800  177.4880  144.7240 C   0  0  1  0  0  3  0  0  0  0  0  0
  186.3160  179.2870  140.9050 C   0  0  0  0  0  2  0  0  0  0  0  0
  187.2850  178.1100  141.0690 C   0  0  2  0  0  3  0  0  0  0  0  0
  184.7630  178.0940  146.4180 C   0  0  0  0  0  1  0  0  0  0  0  0
  184.7890  179.1720  144.1550 C   0  0  0  0  0  2  0  0  0  0  0  0
  180.8640  177.2280  140.3700 C   0  0  0  0  0  2  0  0  0  0  0  0
  185.6530  178.6290  145.3130 C   0  0  2  0  0  3  0  0  0  0  0  0
  186.4090  177.7080  143.2680 C   0  0  0  0  0  0  0  0  0  0  0  0
  181.7040  178.3240  136.9180 O   0  0  0  0  0  0  0  0  0  0  0  0
  182.7570  178.8450  140.3550 C   0  0  0  0  0  0  0  0  0  0  0  0
  181.5770  178.4820  138.1630 C   0  0  0  0  0  0  0  0  0  0  0  0
  182.6840  178.9770  138.9280 N   0  0  0  0  0  2  0  0  0  0  0  0
  180.0240  178.0130  138.9580 S   0  0  0  0  0  0  0  0  0  0  0  0
  185.0350  178.9950  141.6240 C   0  0  0  0  0  0  0  0  0  0  0  0
  187.4190  177.7290  142.4680 N   0  0  0  0  0  0  0  0  0  0  0  0
  185.0810  178.2860  142.9470 C   0  0  2  0  0  3  0  0  0  0  0  0
  181.6030  178.3120  141.1490 C   0  0  0  0  0  2  0  0  0  0  0  0
  183.9120  178.9500  140.9550 C   0  0  0  0  0  0  0  0  0  0  0  0
  188.0630  178.5540  148.6220 C   0  0  0  0  0  3  0  0  0  0  0  0
  190.3400  176.6190  145.1650 C   0  0  0  0  0  3  0  0  0  0  0  0
  188.8020  176.0490  143.4350 O   0  0  0  0  0  0  0  0  0  0  0  0
  188.0920  177.6020  146.5580 C   0  0  0  0  0  0  0  0  0  0  0  0
  189.4380  178.1720  148.2470 N   0  0  0  0  0  0  0  0  0  0  0  0
  187.2120  178.2260  147.4730 N   0  0  0  0  0  0  0  0  0  0  0  0
  187.8370  177.2120  145.3100 C   0  0  0  0  0  0  0  0  0  0  0  0
  188.9730  176.5860  144.5640 C   0  0  0  0  0  0  0  0  0  0  0  0
  190.5300  177.1250  146.3600 N   0  0  0  0  0  0  0  0  0  0  0  0
  189.3970  177.5730  147.1100 C   0  0  0  0  0  0  0  0  0  0  0  0
  190.1600  177.2530  138.9910 O   0  0  0  0  0  0  0  0  0  0  0  0
  188.6540  178.4100  140.4430 C   0  0  2  0  0  3  0  0  0  0  0  0
  188.8280  177.6750  139.1260 C   0  0  1  0  0  3  0  0  0  0  0  0
  190.7220  177.2180  140.2880 C   0  0  0  0  0  2  0  0  0  0  0  0
  189.7470  177.8060  141.2860 C   0  0  0  0  0  2  0  0  0  0  0  0
  188.4660  178.5780  137.9490 C   0  0  0  0  0  2  0  0  0  0  0  0
  187.0840  178.3390  137.5560 N   0  0  0  0  0  2  0  0  0  0  0  0
  187.1050  177.3840  136.4480 C   0  0  0  0  0  2  0  0  0  0  0  0
  188.3570  174.7360  136.9350 C   0  0  0  0  0  2  0  0  0  0  0  0
  188.5680  173.2800  135.0180 N   0  0  0  0  0  1  0  0  0  0  0  0
  186.2320  173.6960  137.3730 C   0  0  1  0  0  3  0  0  0  0  0  0
  184.3230  172.5710  136.2520 C   0  0  0  0  0  2  0  0  0  0  0  0
  185.0110  176.1580  136.4780 N   0  0  0  0  0  0  0  0  0  0  0  0
  188.4780  173.3000  136.4710 C   0  0  2  0  0  3  0  0  0  0  0  0
  184.1310  174.9970  136.6680 C   0  0  1  0  0  3  0  0  0  0  0  0
  184.9270  173.7110  136.6140 C   0  0  0  0  0  0  0  0  0  0  0  0
  187.1920  172.6040  136.9060 C   0  0  0  0  0  2  0  0  0  0  0  0
  186.9420  174.9490  137.1690 N   0  0  0  0  0  0  0  0  0  0  0  0
  186.2830  176.1660  136.7670 C   0  0  0  0  0  0  0  0  0  0  0  0
  181.9330  174.7990  137.8490 C   0  0  0  0  0  1  0  0  0  0  0  0
  183.4020  175.1330  138.0020 C   0  0  0  0  0  2  0  0  0  0  0  0
  1 25  1  1  0  0  0
  1  7  1  0  0  0  0
  2 14  1  0  0  0  0
  3  2  1  1  0  0  0
  3 15  1  0  0  0  0
  5  7  1  0  0  0  0
  6 17  1  0  0  0  0
  7  4  1  1  0  0  0
  8  1  1  0  0  0  0
  9 11  2  0  0  0  0
 10 18  2  0  0  0  0
 10 17  1  0  0  0  0
 11 12  1  0  0  0  0
 11 13  1  0  0  0  0
 12 10  1  0  0  0  0
 13  6  1  0  0  0  0
 14 16  1  0  0  0  0
 15  8  2  0  0  0  0
 16  8  1  0  0  0  0
 16  5  1  1  0  0  0
 18 14  2  0  0  0  0
 20 27  2  0  0  0  0
 21 26  2  0  0  0  0
 22 28  1  0  0  0  0
 22 24  1  0  0  0  0
 23 19  1  0  0  0  0
 24 19  2  0  0  0  0
 25 22  2  0  0  0  0
 26 20  1  0  0  0  0
 26 25  1  0  0  0  0
 27 28  1  0  0  0  0
 28 23  2  0  0  0  0
 29 31  1  0  0  0  0
 29 32  1  0  0  0  0
 30  3  1  0  0  0  0
 30 33  1  1  0  0  0
 31 34  1  6  0  0  0
 31 30  1  0  0  0  0
 32 33  1  0  0  0  0
 35 34  1  0  0  0  0
 36 47  1  0  0  0  0
 36 35  1  0  0  0  0
 37 46  1  0  0  0  0
 39 45  1  6  0  0  0
 40 44  2  0  0  0  0
 41 43  1  0  0  0  0
 41 47  2  0  0  0  0
 42 38  1  6  0  0  0
 42 45  1  0  0  0  0
 42 37  1  0  0  0  0
 43 49  1  1  0  0  0
 44 43  1  0  0  0  0
 44 39  1  0  0  0  0
 46 39  1  0  0  0  0
 47 46  1  0  0  0  0
 48 49  1  0  0  0  0
M  END
>  <MODEL>
3

>  <REMARK>
 VINA RESULT:      -8.6      3.868     10.253
  Name = 
  7 active torsions:
  status: ('A' for Active; 'I' for Inactive)
    1  A    between atoms: C_3  and  C_42
    2  A    between atoms: C_8  and  C_14
    3  A    between atoms: C_13  and  N_39
    4  A    between atoms: C_13  and  C_41
    5  A    between atoms: C_18  and  C_47
    6  A    between atoms: C_20  and  C_31
    7  A    between atoms: N_39  and  C_47
                            x       y       z     vdW  Elec       q    Type
                         _______ _______ _______ _____ _____    ______ ____

>  <TORSDO>
F 7

$$$$
=
 OpenBabel11032419423D

 49 56  0  0  1  0  0  0  0  0999 V2000
  186.4260  177.5020  144.8530 C   0  0  1  0  0  3  0  0  0  0  0  0
  186.1730  179.3660  141.0710 C   0  0  0  0  0  2  0  0  0  0  0  0
  187.1500  178.1920  141.1940 C   0  0  2  0  0  3  0  0  0  0  0  0
  184.7410  178.0690  146.5930 C   0  0  0  0  0  1  0  0  0  0  0  0
  184.7150  179.1870  144.3490 C   0  0  0  0  0  2  0  0  0  0  0  0
  180.7210  177.2900  140.6130 C   0  0  0  0  0  2  0  0  0  0  0  0
  185.6050  178.6280  145.4800 C   0  0  2  0  0  3  0  0  0  0  0  0
  186.3230  177.7470  143.4030 C   0  0  0  0  0  0  0  0  0  0  0  0
  181.4830  178.4500  137.1640 O   0  0  0  0  0  0  0  0  0  0  0  0
  182.6060  178.9160  140.5870 C   0  0  0  0  0  0  0  0  0  0  0  0
  181.3820  178.5860  138.4140 C   0  0  0  0  0  0  0  0  0  0  0  0
  182.5020  179.0730  139.1640 N   0  0  0  0  0  2  0  0  0  0  0  0
  179.8470  178.0950  139.2330 S   0  0  0  0  0  0  0  0  0  0  0  0
  184.9080  179.0560  141.8110 C   0  0  0  0  0  0  0  0  0  0  0  0
  187.3160  177.7870  142.5830 N   0  0  0  0  0  0  0  0  0  0  0  0
  184.9850  178.3240  143.1200 C   0  0  2  0  0  3  0  0  0  0  0  0
  181.4700  178.3630  141.3950 C   0  0  0  0  0  2  0  0  0  0  0  0
  183.7730  179.0160  141.1650 C   0  0  0  0  0  0  0  0  0  0  0  0
  188.1140  178.5860  148.7010 C   0  0  0  0  0  3  0  0  0  0  0  0
  190.2910  176.6150  145.2000 C   0  0  0  0  0  3  0  0  0  0  0  0
  188.7050  176.0410  143.5140 O   0  0  0  0  0  0  0  0  0  0  0  0
  188.0850  177.6190  146.6440 C   0  0  0  0  0  0  0  0  0  0  0  0
  189.4770  178.1930  148.2940 N   0  0  0  0  0  0  0  0  0  0  0  0
  187.2320  178.2540  147.5770 N   0  0  0  0  0  0  0  0  0  0  0  0
  187.7960  177.2220  145.4050 C   0  0  0  0  0  0  0  0  0  0  0  0
  188.9080  176.5850  144.6350 C   0  0  0  0  0  0  0  0  0  0  0  0
  190.5140  177.1280  146.3860 N   0  0  0  0  0  0  0  0  0  0  0  0
  189.4030  177.5870  147.1630 C   0  0  0  0  0  0  0  0  0  0  0  0
  190.1470  177.2740  139.3230 O   0  0  0  0  0  0  0  0  0  0  0  0
  188.5050  178.5100  140.5450 C   0  0  2  0  0  3  0  0  0  0  0  0
  188.7800  177.5890  139.3690 C   0  0  1  0  0  3  0  0  0  0  0  0
  190.6730  177.5030  140.6160 C   0  0  0  0  0  2  0  0  0  0  0  0
  189.6230  178.1540  141.4900 C   0  0  0  0  0  2  0  0  0  0  0  0
  188.3720  178.2510  138.0550 C   0  0  0  0  0  2  0  0  0  0  0  0
  189.4300  178.0740  137.0690 N   0  0  0  0  0  2  0  0  0  0  0  0
  188.7940  177.6630  135.8180 C   0  0  0  0  0  2  0  0  0  0  0  0
  185.8840  177.1400  135.5430 C   0  0  0  0  0  2  0  0  0  0  0  0
  184.6000  177.1170  137.5890 N   0  0  0  0  0  1  0  0  0  0  0  0
  186.1810  174.7680  135.8130 C   0  0  1  0  0  3  0  0  0  0  0  0
  186.3230  172.9850  137.5370 C   0  0  0  0  0  2  0  0  0  0  0  0
  188.9280  175.3400  136.5040 N   0  0  0  0  0  0  0  0  0  0  0  0
  184.6320  176.6250  136.2190 C   0  0  2  0  0  3  0  0  0  0  0  0
  188.4410  173.9740  136.7420 C   0  0  1  0  0  3  0  0  0  0  0  0
  186.9320  173.9560  136.8410 C   0  0  0  0  0  0  0  0  0  0  0  0
  184.7520  175.1040  136.2330 C   0  0  0  0  0  2  0  0  0  0  0  0
  186.8380  176.0490  135.6130 N   0  0  0  0  0  0  0  0  0  0  0  0
  188.2260  176.2760  135.9290 C   0  0  0  0  0  0  0  0  0  0  0  0
  190.4390  173.0220  135.5730 C   0  0  0  0  0  1  0  0  0  0  0  0
  188.9260  173.0660  135.6140 C   0  0  0  0  0  2  0  0  0  0  0  0
  1 25  1  1  0  0  0
  1  7  1  0  0  0  0
  2 14  1  0  0  0  0
  3  2  1  1  0  0  0
  3 15  1  0  0  0  0
  5  7  1  0  0  0  0
  6 17  1  0  0  0  0
  7  4  1  1  0  0  0
  8  1  1  0  0  0  0
  9 11  2  0  0  0  0
 10 18  2  0  0  0  0
 10 17  1  0  0  0  0
 11 12  1  0  0  0  0
 11 13  1  0  0  0  0
 12 10  1  0  0  0  0
 13  6  1  0  0  0  0
 14 16  1  0  0  0  0
 15  8  2  0  0  0  0
 16  8  1  0  0  0  0
 16  5  1  1  0  0  0
 18 14  2  0  0  0  0
 20 27  2  0  0  0  0
 21 26  2  0  0  0  0
 22 28  1  0  0  0  0
 22 24  1  0  0  0  0
 23 19  1  0  0  0  0
 24 19  2  0  0  0  0
 25 22  2  0  0  0  0
 26 20  1  0  0  0  0
 26 25  1  0  0  0  0
 27 28  1  0  0  0  0
 28 23  2  0  0  0  0
 29 31  1  0  0  0  0
 29 32  1  0  0  0  0
 30  3  1  0  0  0  0
 30 33  1  1  0  0  0
 31 34  1  6  0  0  0
 31 30  1  0  0  0  0
 32 33  1  0  0  0  0
 35 34  1  0  0  0  0
 36 47  1  0  0  0  0
 36 35  1  0  0  0  0
 37 46  1  0  0  0  0
 37 42  1  0  0  0  0
 39 45  1  1  0  0  0
 39 44  1  0  0  0  0
 41 43  1  0  0  0  0
 42 45  1  0  0  0  0
 42 38  1  1  0  0  0
 43 49  1  6  0  0  0
 43 44  1  0  0  0  0
 44 40  2  0  0  0  0
 46 39  1  0  0  0  0
 46 47  1  0  0  0  0
 47 41  2  0  0  0  0
 48 49  1  0  0  0  0
M  END
>  <MODEL>
4

>  <REMARK>
 VINA RESULT:      -8.2      3.681     10.551
  Name = 
  7 active torsions:
  status: ('A' for Active; 'I' for Inactive)
    1  A    between atoms: C_3  and  C_42
    2  A    between atoms: C_8  and  C_14
    3  A    between atoms: C_13  and  N_39
    4  A    between atoms: C_13  and  C_41
    5  A    between atoms: C_18  and  C_47
    6  A    between atoms: C_20  and  C_31
    7  A    between atoms: N_39  and  C_47
                            x       y       z     vdW  Elec       q    Type
                         _______ _______ _______ _____ _____    ______ ____

>  <TORSDO>
F 7

$$$$
=
 OpenBabel11032419423D

 49 56  0  0  1  0  0  0  0  0999 V2000
  188.3720  173.6270  136.3880 C   0  0  1  0  0  3  0  0  0  0  0  0
  191.4250  176.4590  137.1030 C   0  0  0  0  0  2  0  0  0  0  0  0
  190.2980  176.3860  138.1410 C   0  0  2  0  0  3  0  0  0  0  0  0
  188.6940  171.9340  134.5940 C   0  0  0  0  0  1  0  0  0  0  0  0
  190.4170  173.7010  135.0330 C   0  0  0  0  0  2  0  0  0  0  0  0
  195.1150  171.9980  137.9560 C   0  0  0  0  0  2  0  0  0  0  0  0
  188.9070  173.3850  134.9780 C   0  0  2  0  0  3  0  0  0  0  0  0
  189.4130  174.4500  137.0300 C   0  0  0  0  0  0  0  0  0  0  0  0
  197.0160  174.9310  139.2230 O   0  0  0  0  0  0  0  0  0  0  0  0
  194.2110  174.1360  137.0570 C   0  0  0  0  0  0  0  0  0  0  0  0
  196.3570  174.2880  138.3610 C   0  0  0  0  0  0  0  0  0  0  0  0
  195.2100  174.8960  137.7520 N   0  0  0  0  0  2  0  0  0  0  0  0
  196.8360  172.5900  137.9690 S   0  0  0  0  0  0  0  0  0  0  0  0
  191.8060  175.0780  136.6690 C   0  0  0  0  0  0  0  0  0  0  0  0
  189.2040  175.5470  137.6720 N   0  0  0  0  0  0  0  0  0  0  0  0
  190.7330  174.0430  136.4870 C   0  0  2  0  0  3  0  0  0  0  0  0
  194.3870  172.6700  136.7970 C   0  0  0  0  0  2  0  0  0  0  0  0
  193.0270  174.6510  136.8620 C   0  0  0  0  0  0  0  0  0  0  0  0
  186.4270  177.1790  134.8290 C   0  0  0  0  0  3  0  0  0  0  0  0
  184.6420  174.1000  137.6950 C   0  0  0  0  0  3  0  0  0  0  0  0
  186.1480  172.2630  137.9090 O   0  0  0  0  0  0  0  0  0  0  0  0
  186.5560  175.1980  135.9360 C   0  0  0  0  0  0  0  0  0  0  0  0
  185.2200  176.9660  135.6520 N   0  0  0  0  0  0  0  0  0  0  0  0
  187.3100  176.0350  135.0820 N   0  0  0  0  0  0  0  0  0  0  0  0
  186.9470  174.0790  136.5450 C   0  0  0  0  0  0  0  0  0  0  0  0
  185.9310  173.4010  137.4080 C   0  0  0  0  0  0  0  0  0  0  0  0
  184.3750  175.2580  137.1420 N   0  0  0  0  0  0  0  0  0  0  0  0
  185.3030  175.8060  136.1990 C   0  0  0  0  0  0  0  0  0  0  0  0
  187.9050  178.6510  139.7110 O   0  0  0  0  0  0  0  0  0  0  0  0
  189.7960  177.7830  138.5330 C   0  0  2  0  0  3  0  0  0  0  0  0
  188.9610  177.7290  139.8000 C   0  0  1  0  0  3  0  0  0  0  0  0
  187.7050  178.9270  138.3380 C   0  0  0  0  0  2  0  0  0  0  0  0
  188.7960  178.2730  137.5190 C   0  0  0  0  0  2  0  0  0  0  0  0
  189.8110  178.0560  141.0250 C   0  0  0  0  0  2  0  0  0  0  0  0
  188.9480  178.2450  142.1830 N   0  0  0  0  0  2  0  0  0  0  0  0
  188.8420  176.9540  142.8620 C   0  0  0  0  0  2  0  0  0  0  0  0
  186.0930  177.3550  143.9120 C   0  0  0  0  0  2  0  0  0  0  0  0
  185.3670  179.6440  144.1730 N   0  0  0  0  0  1  0  0  0  0  0  0
  186.8640  177.4380  146.1890 C   0  0  1  0  0  3  0  0  0  0  0  0
  187.7350  178.9940  147.9170 C   0  0  0  0  0  2  0  0  0  0  0  0
  189.5500  177.4810  145.1220 N   0  0  0  0  0  0  0  0  0  0  0  0
  185.1540  178.2850  144.6490 C   0  0  2  0  0  3  0  0  0  0  0  0
  189.3860  177.7650  146.5540 C   0  0  1  0  0  3  0  0  0  0  0  0
  187.9740  178.2190  146.8500 C   0  0  0  0  0  0  0  0  0  0  0  0
  185.5430  178.2000  146.1220 C   0  0  0  0  0  2  0  0  0  0  0  0
  187.2140  177.1460  144.8080 N   0  0  0  0  0  0  0  0  0  0  0  0
  188.5740  177.1330  144.3300 C   0  0  0  0  0  0  0  0  0  0  0  0
  191.2150  176.1980  147.2390 C   0  0  0  0  0  1  0  0  0  0  0  0
  189.7370  176.5140  147.3550 C   0  0  0  0  0  2  0  0  0  0  0  0
  1 25  1  6  0  0  0
  1  8  1  0  0  0  0
  3  2  1  6  0  0  0
  3 30  1  0  0  0  0
  6 13  1  0  0  0  0
  7  4  1  1  0  0  0
  7  5  1  0  0  0  0
  7  1  1  0  0  0  0
  8 15  2  0  0  0  0
 10 12  1  0  0  0  0
 11  9  2  0  0  0  0
 12 11  1  0  0  0  0
 13 11  1  0  0  0  0
 14 18  2  0  0  0  0
 14  2  1  0  0  0  0
 15  3  1  0  0  0  0
 16  5  1  6  0  0  0
 16 14  1  0  0  0  0
 16  8  1  0  0  0  0
 17 10  1  0  0  0  0
 17  6  1  0  0  0  0
 18 10  2  0  0  0  0
 19 24  2  0  0  0  0
 19 23  1  0  0  0  0
 22 28  1  0  0  0  0
 22 25  2  0  0  0  0
 23 28  2  0  0  0  0
 24 22  1  0  0  0  0
 25 26  1  0  0  0  0
 26 20  1  0  0  0  0
 26 21  2  0  0  0  0
 27 20  2  0  0  0  0
 28 27  1  0  0  0  0
 29 31  1  0  0  0  0
 30 33  1  6  0  0  0
 30 31  1  0  0  0  0
 31 34  1  1  0  0  0
 32 29  1  0  0  0  0
 33 32  1  0  0  0  0
 34 35  1  0  0  0  0
 35 36  1  0  0  0  0
 36 47  1  0  0  0  0
 37 42  1  0  0  0  0
 37 46  1  0  0  0  0
 39 45  1  6  0  0  0
 39 44  1  0  0  0  0
 41 43  1  0  0  0  0
 42 38  1  6  0  0  0
 42 45  1  0  0  0  0
 43 44  1  0  0  0  0
 43 49  1  1  0  0  0
 44 40  2  0  0  0  0
 46 39  1  0  0  0  0
 47 46  1  0  0  0  0
 47 41  2  0  0  0  0
 48 49  1  0  0  0  0
M  END
>  <MODEL>
5

>  <REMARK>
 VINA RESULT:      -8.2      1.004      2.351
  Name = 
  7 active torsions:
  status: ('A' for Active; 'I' for Inactive)
    1  A    between atoms: C_3  and  C_42
    2  A    between atoms: C_8  and  C_14
    3  A    between atoms: C_13  and  N_39
    4  A    between atoms: C_13  and  C_41
    5  A    between atoms: C_18  and  C_47
    6  A    between atoms: C_20  and  C_31
    7  A    between atoms: N_39  and  C_47
                            x       y       z     vdW  Elec       q    Type
                         _______ _______ _______ _____ _____    ______ ____

>  <TORSDO>
F 7

$$$$
=
 OpenBabel11032419423D

 49 56  0  0  1  0  0  0  0  0999 V2000
  181.0090  180.5290  138.9230 C   0  0  1  0  0  3  0  0  0  0  0  0
  183.4330  177.2430  140.0070 C   0  0  0  0  0  2  0  0  0  0  0  0
  183.8850  178.0580  138.7900 C   0  0  2  0  0  3  0  0  0  0  0  0
  179.2170  181.2710  140.4800 C   0  0  0  0  0  1  0  0  0  0  0  0
  180.6480  179.2810  141.0050 C   0  0  0  0  0  2  0  0  0  0  0  0
  184.8520  180.1320  144.8940 C   0  0  0  0  0  2  0  0  0  0  0  0
  179.9220  180.0650  139.8910 C   0  0  2  0  0  3  0  0  0  0  0  0
  182.1640  179.6700  139.2420 C   0  0  0  0  0  0  0  0  0  0  0  0
  187.3180  177.3510  144.8020 O   0  0  0  0  0  0  0  0  0  0  0  0
  184.0870  178.2750  143.4220 C   0  0  0  0  0  0  0  0  0  0  0  0
  186.1560  177.8440  144.7860 C   0  0  0  0  0  0  0  0  0  0  0  0
  185.2600  177.5040  143.7200 N   0  0  0  0  0  2  0  0  0  0  0  0
  185.6790  179.0190  146.0730 S   0  0  0  0  0  0  0  0  0  0  0  0
  182.9380  178.1620  141.0800 C   0  0  0  0  0  0  0  0  0  0  0  0
  182.8610  179.0100  138.3820 N   0  0  0  0  0  0  0  0  0  0  0  0
  182.1400  179.3760  140.6970 C   0  0  2  0  0  3  0  0  0  0  0  0
  183.6470  179.4010  144.3100 C   0  0  0  0  0  2  0  0  0  0  0  0
  183.5270  178.1730  142.2470 C   0  0  0  0  0  0  0  0  0  0  0  0
  181.1780  184.0710  136.4220 C   0  0  0  0  0  3  0  0  0  0  0  0
  179.4850  179.9820  135.2860 C   0  0  0  0  0  3  0  0  0  0  0  0
  179.9720  178.4220  137.0230 O   0  0  0  0  0  0  0  0  0  0  0  0
  180.8260  181.8760  136.8920 C   0  0  0  0  0  0  0  0  0  0  0  0
  180.4360  183.4200  135.3260 N   0  0  0  0  0  0  0  0  0  0  0  0
  181.3660  183.0520  137.4600 N   0  0  0  0  0  0  0  0  0  0  0  0
  180.6540  180.6880  137.4710 C   0  0  0  0  0  0  0  0  0  0  0  0
  180.0420  179.6170  136.6240 C   0  0  0  0  0  0  0  0  0  0  0  0
  179.5960  181.2060  134.8300 N   0  0  0  0  0  0  0  0  0  0  0  0
  180.3250  182.1680  135.5990 C   0  0  0  0  0  0  0  0  0  0  0  0
  185.1970  177.4920  135.4310 O   0  0  0  0  0  0  0  0  0  0  0  0
  184.2970  177.1530  137.6200 C   0  0  2  0  0  3  0  0  0  0  0  0
  185.3920  177.7970  136.7880 C   0  0  1  0  0  3  0  0  0  0  0  0
  183.8360  177.1370  135.2730 C   0  0  0  0  0  2  0  0  0  0  0  0
  183.1680  177.0510  136.6280 C   0  0  0  0  0  2  0  0  0  0  0  0
  186.7670  177.2970  137.2210 C   0  0  0  0  0  2  0  0  0  0  0  0
  187.5240  178.3940  137.8080 N   0  0  0  0  0  2  0  0  0  0  0  0
  187.7830  178.0470  139.2050 C   0  0  0  0  0  2  0  0  0  0  0  0
  188.8720  177.3580  141.8800 C   0  0  0  0  0  2  0  0  0  0  0  0
  190.1700  179.0700  142.9840 N   0  0  0  0  0  1  0  0  0  0  0  0
  190.9290  176.5330  140.9440 C   0  0  1  0  0  3  0  0  0  0  0  0
  193.1940  177.2560  140.2250 C   0  0  0  0  0  2  0  0  0  0  0  0
  190.0330  177.6020  138.4130 N   0  0  0  0  0  0  0  0  0  0  0  0
  189.9510  177.6330  142.9050 C   0  0  2  0  0  3  0  0  0  0  0  0
  191.4300  177.1530  138.5020 C   0  0  1  0  0  3  0  0  0  0  0  0
  191.8900  177.1260  139.9420 C   0  0  0  0  0  0  0  0  0  0  0  0
  191.2150  176.9580  142.3830 C   0  0  0  0  0  2  0  0  0  0  0  0
  189.5760  176.9880  140.6670 N   0  0  0  0  0  0  0  0  0  0  0  0
  189.1610  177.4710  139.3740 C   0  0  0  0  0  0  0  0  0  0  0  0
  192.0480  175.8840  136.4340 C   0  0  0  0  0  1  0  0  0  0  0  0
  191.5530  175.7730  137.8620 C   0  0  0  0  0  2  0  0  0  0  0  0
  1 25  1  6  0  0  0
  1  8  1  0  0  0  0
  1  7  1  0  0  0  0
  2 14  1  0  0  0  0
  3  2  1  1  0  0  0
  6 13  1  0  0  0  0
  7  4  1  1  0  0  0
  7  5  1  0  0  0  0
  8 16  1  0  0  0  0
 10 12  1  0  0  0  0
 10 17  1  0  0  0  0
 11  9  2  0  0  0  0
 11 13  1  0  0  0  0
 12 11  1  0  0  0  0
 14 18  2  0  0  0  0
 15  3  1  0  0  0  0
 15  8  2  0  0  0  0
 16  5  1  6  0  0  0
 16 14  1  0  0  0  0
 17  6  1  0  0  0  0
 18 10  2  0  0  0  0
 19 24  2  0  0  0  0
 20 26  1  0  0  0  0
 22 24  1  0  0  0  0
 22 25  2  0  0  0  0
 23 28  2  0  0  0  0
 23 19  1  0  0  0  0
 26 21  2  0  0  0  0
 26 25  1  0  0  0  0
 27 20  2  0  0  0  0
 27 28  1  0  0  0  0
 28 22  1  0  0  0  0
 29 31  1  0  0  0  0
 30 33  1  6  0  0  0
 30  3  1  0  0  0  0
 31 34  1  1  0  0  0
 31 30  1  0  0  0  0
 32 29  1  0  0  0  0
 32 33  1  0  0  0  0
 34 35  1  0  0  0  0
 35 36  1  0  0  0  0
 36 47  1  0  0  0  0
 37 42  1  0  0  0  0
 39 45  1  1  0  0  0
 41 43  1  0  0  0  0
 41 47  2  0  0  0  0
 42 38  1  6  0  0  0
 43 49  1  1  0  0  0
 43 44  1  0  0  0  0
 44 40  2  0  0  0  0
 44 39  1  0  0  0  0
 45 42  1  0  0  0  0
 46 39  1  0  0  0  0
 46 37  1  0  0  0  0
 47 46  1  0  0  0  0
 48 49  1  0  0  0  0
M  END
>  <MODEL>
6

>  <REMARK>
 VINA RESULT:      -8.1      5.126      8.962
  Name = 
  7 active torsions:
  status: ('A' for Active; 'I' for Inactive)
    1  A    between atoms: C_3  and  C_42
    2  A    between atoms: C_8  and  C_14
    3  A    between atoms: C_13  and  N_39
    4  A    between atoms: C_13  and  C_41
    5  A    between atoms: C_18  and  C_47
    6  A    between atoms: C_20  and  C_31
    7  A    between atoms: N_39  and  C_47
                            x       y       z     vdW  Elec       q    Type
                         _______ _______ _______ _____ _____    ______ ____

>  <TORSDO>
F 7

$$$$
=
 OpenBabel11032419423D

 49 56  0  0  1  0  0  0  0  0999 V2000
  182.9080  177.5190  139.5010 C   0  0  1  0  0  3  0  0  0  0  0  0
  186.3570  179.1780  141.2910 C   0  0  0  0  0  2  0  0  0  0  0  0
  185.4850  178.2820  142.1790 C   0  0  2  0  0  3  0  0  0  0  0  0
  182.6240  177.6960  137.0360 C   0  0  0  0  0  1  0  0  0  0  0  0
  184.5990  178.7220  138.1910 C   0  0  0  0  0  2  0  0  0  0  0  0
  189.5890  175.8190  137.7530 C   0  0  0  0  0  2  0  0  0  0  0  0
  183.0870  178.4230  138.2830 C   0  0  2  0  0  3  0  0  0  0  0  0
  184.1550  177.6980  140.2670 C   0  0  0  0  0  0  0  0  0  0  0  0
  192.0560  177.0530  140.2460 O   0  0  0  0  0  0  0  0  0  0  0  0
  188.7690  177.8570  138.9260 C   0  0  0  0  0  0  0  0  0  0  0  0
  191.1510  177.1870  139.3770 C   0  0  0  0  0  0  0  0  0  0  0  0
  189.9800  177.9510  139.6910 N   0  0  0  0  0  2  0  0  0  0  0  0
  191.3290  176.3540  137.7830 S   0  0  0  0  0  0  0  0  0  0  0  0
  186.4670  178.5840  139.9200 C   0  0  0  0  0  0  0  0  0  0  0  0
  184.2230  177.9610  141.5270 N   0  0  0  0  0  0  0  0  0  0  0  0
  185.2650  177.9230  139.3080 C   0  0  2  0  0  3  0  0  0  0  0  0
  188.7080  177.0610  137.6560 C   0  0  0  0  0  2  0  0  0  0  0  0
  187.6400  178.2530  139.4500 C   0  0  0  0  0  0  0  0  0  0  0  0
  179.9220  174.4430  140.1730 C   0  0  0  0  0  3  0  0  0  0  0  0
  179.6460  178.8480  141.3550 C   0  0  0  0  0  3  0  0  0  0  0  0
  181.7460  179.9020  140.9470 O   0  0  0  0  0  0  0  0  0  0  0  0
  180.8670  176.5000  140.3770 C   0  0  0  0  0  0  0  0  0  0  0  0
  178.9510  175.4060  140.7260 N   0  0  0  0  0  0  0  0  0  0  0  0
  181.1480  175.2000  139.8970 N   0  0  0  0  0  0  0  0  0  0  0  0
  181.6170  177.5960  140.2660 C   0  0  0  0  0  0  0  0  0  0  0  0
  181.0570  178.8470  140.8650 C   0  0  0  0  0  0  0  0  0  0  0  0
  178.9310  177.7490  141.3270 N   0  0  0  0  0  0  0  0  0  0  0  0
  179.5470  176.5330  140.8930 C   0  0  0  0  0  0  0  0  0  0  0  0
  183.7950  178.4760  145.4080 O   0  0  0  0  0  0  0  0  0  0  0  0
  185.2510  178.9080  143.5610 C   0  0  2  0  0  3  0  0  0  0  0  0
  184.7300  177.8780  144.5480 C   0  0  1  0  0  3  0  0  0  0  0  0
  183.3160  179.6390  144.7620 C   0  0  0  0  0  2  0  0  0  0  0  0
  184.1070  179.8850  143.4950 C   0  0  0  0  0  2  0  0  0  0  0  0
  185.8720  177.2930  145.3750 C   0  0  0  0  0  2  0  0  0  0  0  0
  186.2670  178.2440  146.4050 N   0  0  0  0  0  2  0  0  0  0  0  0
  187.5150  177.7570  146.9920 C   0  0  0  0  0  2  0  0  0  0  0  0
  189.9950  176.2210  147.5450 C   0  0  0  0  0  2  0  0  0  0  0  0
  191.9200  177.5050  148.2420 N   0  0  0  0  0  1  0  0  0  0  0  0
  190.7720  176.4620  145.2810 C   0  0  1  0  0  3  0  0  0  0  0  0
  192.0600  177.9760  143.7920 C   0  0  0  0  0  2  0  0  0  0  0  0
  188.5820  178.3040  144.8820 N   0  0  0  0  0  0  0  0  0  0  0  0
  191.5070  176.2590  147.6110 C   0  0  2  0  0  3  0  0  0  0  0  0
  189.6050  178.2320  143.8300 C   0  0  1  0  0  3  0  0  0  0  0  0
  190.8960  177.6670  144.3800 C   0  0  0  0  0  0  0  0  0  0  0  0
  191.9960  176.2390  146.1660 C   0  0  0  0  0  2  0  0  0  0  0  0
  189.6560  176.6370  146.1970 N   0  0  0  0  0  0  0  0  0  0  0  0
  188.5600  177.5350  145.9340 C   0  0  0  0  0  0  0  0  0  0  0  0
  188.4500  176.1020  143.2010 C   0  0  0  0  0  1  0  0  0  0  0  0
  189.0800  177.3780  142.6800 C   0  0  0  0  0  2  0  0  0  0  0  0
  1 25  1  1  0  0  0
  1  8  1  0  0  0  0
  3  2  1  6  0  0  0
  3 30  1  0  0  0  0
  5  7  1  0  0  0  0
  6 13  1  0  0  0  0
  7  4  1  6  0  0  0
  7  1  1  0  0  0  0
  8 15  2  0  0  0  0
 10 18  2  0  0  0  0
 10 12  1  0  0  0  0
 11 12  1  0  0  0  0
 11  9  2  0  0  0  0
 13 11  1  0  0  0  0
 14  2  1  0  0  0  0
 15  3  1  0  0  0  0
 16  5  1  6  0  0  0
 16 14  1  0  0  0  0
 16  8  1  0  0  0  0
 17  6  1  0  0  0  0
 17 10  1  0  0  0  0
 18 14  2  0  0  0  0
 19 23  1  0  0  0  0
 22 28  1  0  0  0  0
 23 28  2  0  0  0  0
 24 19  2  0  0  0  0
 24 22  1  0  0  0  0
 25 22  2  0  0  0  0
 25 26  1  0  0  0  0
 26 21  2  0  0  0  0
 26 20  1  0  0  0  0
 27 20  2  0  0  0  0
 28 27  1  0  0  0  0
 30 33  1  6  0  0  0
 30 31  1  0  0  0  0
 31 34  1  1  0  0  0
 31 29  1  0  0  0  0
 32 29  1  0  0  0  0
 33 32  1  0  0  0  0
 34 35  1  0  0  0  0
 35 36  1  0  0  0  0
 37 42  1  0  0  0  0
 39 45  1  1  0  0  0
 39 46  1  0  0  0  0
 40 44  2  0  0  0  0
 41 47  2  0  0  0  0
 42 38  1  6  0  0  0
 43 49  1  6  0  0  0
 43 44  1  0  0  0  0
 43 41  1  0  0  0  0
 44 39  1  0  0  0  0
 45 42  1  0  0  0  0
 46 37  1  0  0  0  0
 47 46  1  0  0  0  0
 47 36  1  0  0  0  0
 49 48  1  0  0  0  0
M  END
>  <MODEL>
7

>  <REMARK>
 VINA RESULT:      -7.8      3.745      6.492
  Name = 
  7 active torsions:
  status: ('A' for Active; 'I' for Inactive)
    1  A    between atoms: C_3  and  C_42
    2  A    between atoms: C_8  and  C_14
    3  A    between atoms: C_13  and  N_39
    4  A    between atoms: C_13  and  C_41
    5  A    between atoms: C_18  and  C_47
    6  A    between atoms: C_20  and  C_31
    7  A    between atoms: N_39  and  C_47
                            x       y       z     vdW  Elec       q    Type
                         _______ _______ _______ _____ _____    ______ ____

>  <TORSDO>
F 7

$$$$
=
 OpenBabel11032419423D

 49 56  0  0  1  0  0  0  0  0999 V2000
  180.9880  180.2470  138.7580 C   0  0  1  0  0  3  0  0  0  0  0  0
  183.6240  177.1270  139.8370 C   0  0  0  0  0  2  0  0  0  0  0  0
  184.0130  177.9610  138.6120 C   0  0  2  0  0  3  0  0  0  0  0  0
  179.1670  180.8850  140.3270 C   0  0  0  0  0  1  0  0  0  0  0  0
  180.7260  178.9920  140.8500 C   0  0  0  0  0  2  0  0  0  0  0  0
  184.9020  180.1300  144.6940 C   0  0  0  0  0  2  0  0  0  0  0  0
  179.9420  179.7220  139.7390 C   0  0  2  0  0  3  0  0  0  0  0  0
  182.1980  179.4640  139.0710 C   0  0  0  0  0  0  0  0  0  0  0  0
  187.5370  177.5090  144.5950 O   0  0  0  0  0  0  0  0  0  0  0  0
  184.2420  178.2200  143.2400 C   0  0  0  0  0  0  0  0  0  0  0  0
  186.3470  177.9270  144.5880 C   0  0  0  0  0  0  0  0  0  0  0  0
  185.4650  177.5260  143.5310 N   0  0  0  0  0  2  0  0  0  0  0  0
  185.8080  179.0780  145.8720 S   0  0  0  0  0  0  0  0  0  0  0  0
  183.0820  178.0200  140.9100 C   0  0  0  0  0  0  0  0  0  0  0  0
  182.9270  178.8440  138.2080 N   0  0  0  0  0  0  0  0  0  0  0  0
  182.2060  179.1780  140.5270 C   0  0  2  0  0  3  0  0  0  0  0  0
  183.7410  179.3210  144.1260 C   0  0  0  0  0  2  0  0  0  0  0  0
  183.6800  178.0750  142.0710 C   0  0  0  0  0  0  0  0  0  0  0  0
  180.9660  183.7670  136.2200 C   0  0  0  0  0  3  0  0  0  0  0  0
  179.4530  179.5930  135.1440 C   0  0  0  0  0  3  0  0  0  0  0  0
  180.0300  178.0750  136.8910 O   0  0  0  0  0  0  0  0  0  0  0  0
  180.7220  181.5630  136.7150 C   0  0  0  0  0  0  0  0  0  0  0  0
  180.2440  183.0710  135.1390 N   0  0  0  0  0  0  0  0  0  0  0  0
  181.2130  182.7690  137.2660 N   0  0  0  0  0  0  0  0  0  0  0  0
  180.6110  180.3740  137.3080 C   0  0  0  0  0  0  0  0  0  0  0  0
  180.0410  179.2680  136.4790 C   0  0  0  0  0  0  0  0  0  0  0  0
  179.5020  180.8160  134.6740 N   0  0  0  0  0  0  0  0  0  0  0  0
  180.1940  181.8190  135.4250 C   0  0  0  0  0  0  0  0  0  0  0  0
  185.0170  177.4310  135.1420 O   0  0  0  0  0  0  0  0  0  0  0  0
  184.4700  177.0770  137.4430 C   0  0  2  0  0  3  0  0  0  0  0  0
  185.2980  177.8690  136.4470 C   0  0  1  0  0  3  0  0  0  0  0  0
  183.7550  176.7920  135.1790 C   0  0  0  0  0  2  0  0  0  0  0  0
  183.2820  176.6710  136.6110 C   0  0  0  0  0  2  0  0  0  0  0  0
  186.7900  177.6970  136.7220 C   0  0  0  0  0  2  0  0  0  0  0  0
  187.0210  176.4250  137.3930 N   0  0  0  0  0  2  0  0  0  0  0  0
  188.4550  176.1510  137.3230 C   0  0  0  0  0  2  0  0  0  0  0  0
  191.3830  176.6490  137.2820 C   0  0  0  0  0  2  0  0  0  0  0  0
  192.7850  174.8750  138.1330 N   0  0  0  0  0  1  0  0  0  0  0  0
  191.3620  177.5710  139.5030 C   0  0  1  0  0  3  0  0  0  0  0  0
  191.5180  176.9380  141.8990 C   0  0  0  0  0  2  0  0  0  0  0  0
  188.6160  176.6870  139.6840 N   0  0  0  0  0  0  0  0  0  0  0  0
  192.7230  176.3110  137.8990 C   0  0  2  0  0  3  0  0  0  0  0  0
  189.2620  177.1470  140.9220 C   0  0  1  0  0  3  0  0  0  0  0  0
  190.7670  177.0700  140.7980 C   0  0  0  0  0  0  0  0  0  0  0  0
  192.7690  177.0420  139.2380 C   0  0  0  0  0  2  0  0  0  0  0  0
  190.5580  177.1200  138.3780 N   0  0  0  0  0  0  0  0  0  0  0  0
  189.1760  176.7320  138.5080 C   0  0  0  0  0  0  0  0  0  0  0  0
  187.3140  178.7160  141.0260 C   0  0  0  0  0  1  0  0  0  0  0  0
  188.8090  178.5730  141.2210 C   0  0  0  0  0  2  0  0  0  0  0  0
  1 25  1  6  0  0  0
  1  8  1  0  0  0  0
  1  7  1  0  0  0  0
  2 14  1  0  0  0  0
  3  2  1  1  0  0  0
  6 13  1  0  0  0  0
  7  4  1  1  0  0  0
  7  5  1  0  0  0  0
  8 16  1  0  0  0  0
 10 12  1  0  0  0  0
 10 17  1  0  0  0  0
 11  9  2  0  0  0  0
 11 13  1  0  0  0  0
 12 11  1  0  0  0  0
 14 18  2  0  0  0  0
 15  3  1  0  0  0  0
 15  8  2  0  0  0  0
 16  5  1  6  0  0  0
 16 14  1  0  0  0  0
 17  6  1  0  0  0  0
 18 10  2  0  0  0  0
 19 24  2  0  0  0  0
 20 26  1  0  0  0  0
 22 24  1  0  0  0  0
 22 25  2  0  0  0  0
 23 28  2  0  0  0  0
 23 19  1  0  0  0  0
 26 21  2  0  0  0  0
 26 25  1  0  0  0  0
 27 20  2  0  0  0  0
 27 28  1  0  0  0  0
 28 22  1  0  0  0  0
 29 32  1  0  0  0  0
 29 31  1  0  0  0  0
 30 33  1  6  0  0  0
 30  3  1  0  0  0  0
 31 34  1  1  0  0  0
 31 30  1  0  0  0  0
 32 33  1  0  0  0  0
 34 35  1  0  0  0  0
 36 35  1  0  0  0  0
 36 47  1  0  0  0  0
 37 42  1  0  0  0  0
 37 46  1  0  0  0  0
 39 45  1  6  0  0  0
 39 44  1  0  0  0  0
 41 43  1  0  0  0  0
 42 38  1  1  0  0  0
 42 45  1  0  0  0  0
 43 49  1  6  0  0  0
 44 43  1  0  0  0  0
 44 40  2  0  0  0  0
 46 47  1  0  0  0  0
 46 39  1  0  0  0  0
 47 41  2  0  0  0  0
 48 49  1  0  0  0  0
M  END
>  <MODEL>
8

>  <REMARK>
 VINA RESULT:      -7.8      5.030      8.721
  Name = 
  7 active torsions:
  status: ('A' for Active; 'I' for Inactive)
    1  A    between atoms: C_3  and  C_42
    2  A    between atoms: C_8  and  C_14
    3  A    between atoms: C_13  and  N_39
    4  A    between atoms: C_13  and  C_41
    5  A    between atoms: C_18  and  C_47
    6  A    between atoms: C_20  and  C_31
    7  A    between atoms: N_39  and  C_47
                            x       y       z     vdW  Elec       q    Type
                         _______ _______ _______ _____ _____    ______ ____

>  <TORSDO>
F 7

$$$$
=
 OpenBabel11032419423D

 49 56  0  0  1  0  0  0  0  0999 V2000
  182.9720  176.3710  137.0150 C   0  0  1  0  0  3  0  0  0  0  0  0
  185.8490  178.7530  138.9900 C   0  0  0  0  0  2  0  0  0  0  0  0
  184.8130  178.0520  139.8760 C   0  0  2  0  0  3  0  0  0  0  0  0
  183.2830  175.8570  134.6020 C   0  0  0  0  0  1  0  0  0  0  0  0
  184.8960  177.3290  135.8330 C   0  0  0  0  0  2  0  0  0  0  0  0
  189.9180  174.8790  137.3520 C   0  0  0  0  0  2  0  0  0  0  0  0
  183.4150  176.9300  135.6650 C   0  0  2  0  0  3  0  0  0  0  0  0
  183.9940  176.8610  137.9590 C   0  0  0  0  0  0  0  0  0  0  0  0
  191.6840  176.9510  139.8830 O   0  0  0  0  0  0  0  0  0  0  0  0
  188.7890  177.0730  137.6910 C   0  0  0  0  0  0  0  0  0  0  0  0
  191.0110  176.7670  138.8320 C   0  0  0  0  0  0  0  0  0  0  0  0
  189.7790  177.4770  138.6490 N   0  0  0  0  0  2  0  0  0  0  0  0
  191.5860  175.5580  137.6170 S   0  0  0  0  0  0  0  0  0  0  0  0
  186.2990  177.8270  137.9020 C   0  0  0  0  0  0  0  0  0  0  0  0
  183.7520  177.4550  139.0760 N   0  0  0  0  0  0  0  0  0  0  0  0
  185.2960  176.9210  137.2480 C   0  0  2  0  0  3  0  0  0  0  0  0
  189.0550  175.9650  136.7160 C   0  0  0  0  0  2  0  0  0  0  0  0
  187.5590  177.4910  137.8180 C   0  0  0  0  0  0  0  0  0  0  0  0
  180.6010  179.9890  137.3570 C   0  0  0  0  0  3  0  0  0  0  0  0
  179.3450  175.7580  138.5380 C   0  0  0  0  0  3  0  0  0  0  0  0
  181.0150  174.2140  137.8170 O   0  0  0  0  0  0  0  0  0  0  0  0
  180.9950  177.7510  137.4140 C   0  0  0  0  0  0  0  0  0  0  0  0
  179.4940  179.2860  138.0340 N   0  0  0  0  0  0  0  0  0  0  0  0
  181.5970  178.9670  137.0160 N   0  0  0  0  0  0  0  0  0  0  0  0
  181.5330  176.5320  137.4200 C   0  0  0  0  0  0  0  0  0  0  0  0
  180.6590  175.4220  137.9090 C   0  0  0  0  0  0  0  0  0  0  0  0
  178.9330  177.0010  138.5950 N   0  0  0  0  0  0  0  0  0  0  0  0
  179.7230  178.0220  137.9780 C   0  0  0  0  0  0  0  0  0  0  0  0
  183.6780  178.8290  143.2570 O   0  0  0  0  0  0  0  0  0  0  0  0
  184.2390  178.9990  140.9380 C   0  0  2  0  0  3  0  0  0  0  0  0
  184.7100  178.6140  142.3300 C   0  0  1  0  0  3  0  0  0  0  0  0
  182.4620  178.8480  142.5330 C   0  0  0  0  0  2  0  0  0  0  0  0
  182.7490  178.8060  141.0470 C   0  0  0  0  0  2  0  0  0  0  0  0
  185.9300  179.4360  142.7370 C   0  0  0  0  0  2  0  0  0  0  0  0
  187.1420  178.7790  142.2660 N   0  0  0  0  0  2  0  0  0  0  0  0
  187.1430  177.4230  142.8130 C   0  0  0  0  0  2  0  0  0  0  0  0
  185.9390  177.4070  145.5280 C   0  0  0  0  0  2  0  0  0  0  0  0
  185.7210  179.5520  146.6180 N   0  0  0  0  0  1  0  0  0  0  0  0
  188.0860  177.1900  146.5910 C   0  0  1  0  0  3  0  0  0  0  0  0
  189.9950  178.5190  147.4620 C   0  0  0  0  0  2  0  0  0  0  0  0
  189.2560  177.6410  143.9870 N   0  0  0  0  0  0  0  0  0  0  0  0
  185.8330  178.1200  146.8590 C   0  0  2  0  0  3  0  0  0  0  0  0
  190.1560  177.6750  145.1480 C   0  0  1  0  0  3  0  0  0  0  0  0
  189.3800  177.9490  146.4170 C   0  0  0  0  0  0  0  0  0  0  0  0
  187.1370  177.8340  147.5990 C   0  0  0  0  0  2  0  0  0  0  0  0
  187.3550  177.1560  145.3350 N   0  0  0  0  0  0  0  0  0  0  0  0
  187.9890  177.3400  144.0540 C   0  0  0  0  0  0  0  0  0  0  0  0
  191.8930  176.2060  144.1030 C   0  0  0  0  0  1  0  0  0  0  0  0
  190.9030  176.3470  145.2410 C   0  0  0  0  0  2  0  0  0  0  0  0
  1 25  1  1  0  0  0
  1  8  1  0  0  0  0
  3  2  1  6  0  0  0
  3 30  1  0  0  0  0
  6 13  1  0  0  0  0
  7  4  1  6  0  0  0
  7  5  1  0  0  0  0
  7  1  1  0  0  0  0
  8 15  2  0  0  0  0
 10 18  2  0  0  0  0
 10 12  1  0  0  0  0
 11  9  2  0  0  0  0
 12 11  1  0  0  0  0
 13 11  1  0  0  0  0
 14  2  1  0  0  0  0
 15  3  1  0  0  0  0
 16  5  1  6  0  0  0
 16 14  1  0  0  0  0
 16  8  1  0  0  0  0
 17  6  1  0  0  0  0
 17 10  1  0  0  0  0
 18 14  2  0  0  0  0
 19 23  1  0  0  0  0
 20 27  2  0  0  0  0
 21 26  2  0  0  0  0
 22 25  2  0  0  0  0
 22 28  1  0  0  0  0
 24 19  2  0  0  0  0
 24 22  1  0  0  0  0
 25 26  1  0  0  0  0
 26 20  1  0  0  0  0
 28 23  2  0  0  0  0
 28 27  1  0  0  0  0
 30 33  1  1  0  0  0
 30 31  1  0  0  0  0
 31 34  1  1  0  0  0
 31 29  1  0  0  0  0
 32 29  1  0  0  0  0
 33 32  1  0  0  0  0
 35 34  1  0  0  0  0
 35 36  1  0  0  0  0
 36 47  1  0  0  0  0
 37 42  1  0  0  0  0
 39 45  1  1  0  0  0
 41 47  2  0  0  0  0
 41 43  1  0  0  0  0
 42 38  1  6  0  0  0
 42 45  1  0  0  0  0
 43 49  1  1  0  0  0
 43 44  1  0  0  0  0
 44 39  1  0  0  0  0
 44 40  2  0  0  0  0
 46 37  1  0  0  0  0
 46 39  1  0  0  0  0
 47 46  1  0  0  0  0
 48 49  1  0  0  0  0
M  END
>  <MODEL>
9

>  <REMARK>
 VINA RESULT:      -7.6      3.319      5.532
  Name = 
  7 active torsions:
  status: ('A' for Active; 'I' for Inactive)
    1  A    between atoms: C_3  and  C_42
    2  A    between atoms: C_8  and  C_14
    3  A    between atoms: C_13  and  N_39
    4  A    between atoms: C_13  and  C_41
    5  A    between atoms: C_18  and  C_47
    6  A    between atoms: C_20  and  C_31
    7  A    between atoms: N_39  and  C_47
                            x       y       z     vdW  Elec       q    Type
                         _______ _______ _______ _____ _____    ______ ____

>  <TORSDO>
F 7

$$$$
