=
 OpenBabel11032420433D

 45 49  0  0  1  0  0  0  0  0999 V2000
  189.0310  176.7740  143.9350 C   0  0  1  0  0  3  0  0  0  0  0  0
  185.5420  177.8920  144.7680 N   0  0  0  0  0  0  0  0  0  0  0  0
  187.5060  177.7990  146.2410 C   0  0  0  0  0  2  0  0  0  0  0  0
  191.3270  177.6830  143.6360 C   0  0  1  0  0  3  0  0  0  0  0  0
  191.1940  176.8400  145.1860 S   0  0  0  0  0  0  0  0  0  0  0  0
  191.8220  175.4780  145.0920 O   0  0  0  0  0  0  0  0  0  0  0  0
  189.0070  177.8750  146.0510 C   0  0  0  0  0  2  0  0  0  0  0  0
  189.8920  177.7660  143.1260 C   0  0  1  0  0  3  0  0  0  0  0  0
  191.8000  177.6100  146.3300 O   0  0  0  0  0  0  0  0  0  0  0  0
  186.8000  177.5930  144.9310 C   0  0  0  0  0  0  0  0  0  0  0  0
  189.4800  176.6940  145.3330 N   0  0  1  0  0  0  0  0  0  0  0  0
  187.5180  176.9900  143.7540 C   0  0  0  0  0  2  0  0  0  0  0  0
  188.0430  177.6310  138.6910 C   0  0  0  0  0  2  0  0  0  0  0  0
  190.9550  176.7450  140.9870 C   0  0  0  0  0  2  0  0  0  0  0  0
  189.8250  177.4970  141.6510 C   0  0  0  0  0  0  0  0  0  0  0  0
  189.3410  177.8910  137.8940 C   0  0  1  0  0  3  0  0  0  0  0  0
  188.8430  177.9560  140.9190 C   0  0  0  0  0  0  0  0  0  0  0  0
  187.9840  178.3270  140.0180 C   0  0  0  0  0  3  0  0  0  0  0  0
  190.6610  177.7250  138.6710 C   0  0  0  0  0  2  0  0  0  0  0  0
  190.7360  176.4360  139.4940 C   0  0  0  0  0  2  0  0  0  0  0  0
  189.3720  177.0280  136.6440 C   0  0  0  0  0  2  0  0  0  0  0  0
  188.4440  175.1820  135.5340 C   0  0  0  0  0  2  0  0  0  0  0  0
  189.3440  174.5570  136.4960 C   0  0  2  0  0  3  0  0  0  0  0  0
  188.6070  175.8020  136.8580 N   0  0  0  0  0  0  0  0  0  0  0  0
  190.7960  174.7640  136.0570 C   0  0  0  0  0  2  0  0  0  0  0  0
  191.7140  173.8180  136.8130 C   0  0  0  0  0  2  0  0  0  0  0  0
  194.1330  174.0830  137.1070 C   0  0  1  0  0  0  0  0  0  0  0  0
  193.0430  175.7400  136.6240 C   0  0  0  0  0  2  0  0  0  0  0  0
  192.7880  174.5700  137.4610 N   0  0  0  0  0  0  0  0  0  0  0  0
  194.1510  172.8390  136.3400 N   0  0  0  0  0  1  0  0  0  0  0  0
  194.4350  175.2740  136.2330 C   0  0  0  0  0  2  0  0  0  0  0  0
  195.0530  174.0170  138.3200 C   0  0  0  0  0  2  0  0  0  0  0  0
  196.2440  174.8210  138.0980 N   0  0  0  0  0  2  0  0  0  0  0  0
  197.3630  173.8970  138.0290 C   0  0  0  0  0  1  0  0  0  0  0  0
  184.6050  178.4180  145.7260 C   0  0  0  0  0  0  0  0  0  0  0  0
  184.9210  178.4160  146.9440 O   0  0  0  0  0  0  0  0  0  0  0  0
  183.3040  179.0400  145.3340 C   0  0  0  0  0  2  0  0  0  0  0  0
  183.4500  179.7590  144.0760 N   0  0  0  0  0  2  0  0  0  0  0  0
  182.8930  178.9210  143.0250 C   0  0  0  0  0  2  0  0  0  0  0  0
  184.2840  177.4720  141.7430 F   0  0  0  0  0  0  0  0  0  0  0  0
  183.2650  179.1890  140.6910 F   0  0  0  0  0  0  0  0  0  0  0  0
  183.8710  178.7860  141.8670 C   0  0  0  0  0  0  0  0  0  0  0  0
  184.9720  179.5850  142.1080 F   0  0  0  0  0  0  0  0  0  0  0  0
  190.9700  180.0090  144.1220 F   0  0  0  0  0  0  0  0  0  0  0  0
  191.9340  179.0730  143.7830 C   0  0  0  0  0  2  0  0  0  0  0  0
  1 12  1  1  0  0  0
  1 11  1  0  0  0  0
  2 10  2  0  0  0  0
  2 35  1  0  0  0  0
  4 45  1  1  0  0  0
  4  5  1  0  0  0  0
  5 11  1  0  0  0  0
  5  9  2  0  0  0  0
  6  5  2  0  0  0  0
  7  3  1  0  0  0  0
  8 15  1  6  0  0  0
  8  4  1  0  0  0  0
  8  1  1  0  0  0  0
 10  3  1  0  0  0  0
 11  7  1  1  0  0  0
 12 10  1  0  0  0  0
 13 18  1  0  0  0  0
 14 15  1  0  0  0  0
 16 21  1  6  0  0  0
 16 19  1  0  0  0  0
 16 13  1  0  0  0  0
 17 15  2  0  0  0  0
 18 17  2  0  0  0  0
 19 20  1  0  0  0  0
 20 14  1  0  0  0  0
 21 24  1  0  0  0  0
 22 23  1  0  0  0  0
 22 24  1  0  0  0  0
 23 25  1  6  0  0  0
 23 24  1  0  0  0  0
 25 26  1  0  0  0  0
 26 29  1  0  0  0  0
 27 30  1  6  0  0  0
 27 29  1  0  0  0  0
 27 32  1  0  0  0  0
 28 29  1  0  0  0  0
 31 28  1  0  0  0  0
 31 27  1  0  0  0  0
 33 32  1  0  0  0  0
 34 33  1  0  0  0  0
 35 36  2  0  0  0  0
 37 35  1  0  0  0  0
 38 37  1  0  0  0  0
 39 38  1  0  0  0  0
 40 42  1  0  0  0  0
 41 42  1  0  0  0  0
 42 43  1  0  0  0  0
 42 39  1  0  0  0  0
 45 44  1  0  0  0  0
M  END
>  <MODEL>
1

>  <REMARK>
 VINA RESULT:      -8.1      0.000      0.000
  Name = 
  14 active torsions:
  status: ('A' for Active; 'I' for Inactive)
    1  A    between atoms: C_3  and  C_36
    2  A    between atoms: N_4  and  C_12
    3  A    between atoms: C_10  and  C_34
    4  A    between atoms: C_12  and  C_38
    5  A    between atoms: N_13  and  C_22
    6  A    between atoms: N_13  and  C_38
    7  A    between atoms: C_14  and  C_19
    8  A    between atoms: C_14  and  N_42
    9  A    between atoms: N_15  and  C_20
   10  A    between atoms: C_17  and  C_22
   11  A    between atoms: C_18  and  C_30
   12  A    between atoms: C_20  and  C_23
   13  A    between atoms: C_23  and  C_39
   14  A    between atoms: N_25  and  C_36
                            x       y       z     vdW  Elec       q    Type
                         _______ _______ _______ _____ _____    ______ ____

>  <TORSDO>
F 14

$$$$
=
 OpenBabel11032420433D

 45 49  0  0  1  0  0  0  0  0999 V2000
  189.0170  176.8990  143.6920 C   0  0  1  0  0  3  0  0  0  0  0  0
  185.5340  177.9710  144.6050 N   0  0  0  0  0  0  0  0  0  0  0  0
  187.4800  177.6950  146.0790 C   0  0  0  0  0  2  0  0  0  0  0  0
  191.3280  177.8020  143.5130 C   0  0  1  0  0  3  0  0  0  0  0  0
  191.1670  176.8010  144.9630 S   0  0  0  0  0  0  0  0  0  0  0  0
  191.7780  175.4480  144.7320 O   0  0  0  0  0  0  0  0  0  0  0  0
  188.9840  177.7690  145.9130 C   0  0  0  0  0  2  0  0  0  0  0  0
  189.9000  177.9590  143.0010 C   0  0  1  0  0  3  0  0  0  0  0  0
  191.7700  177.4370  146.1890 O   0  0  0  0  0  0  0  0  0  0  0  0
  186.7860  177.6390  144.7470 C   0  0  0  0  0  0  0  0  0  0  0  0
  189.4490  176.6650  145.0780 N   0  0  1  0  0  0  0  0  0  0  0  0
  187.5090  177.1540  143.5200 C   0  0  0  0  0  2  0  0  0  0  0  0
  191.3580  176.8890  138.5470 C   0  0  0  0  0  2  0  0  0  0  0  0
  188.6870  178.4710  140.7630 C   0  0  0  0  0  2  0  0  0  0  0  0
  189.8460  177.8490  141.5050 C   0  0  0  0  0  0  0  0  0  0  0  0
  189.9870  176.5080  137.9430 C   0  0  1  0  0  3  0  0  0  0  0  0
  190.7460  177.1710  140.8400 C   0  0  0  0  0  0  0  0  0  0  0  0
  191.5100  176.5430  139.9980 C   0  0  0  0  0  3  0  0  0  0  0  0
  188.7460  176.9320  138.7530 C   0  0  0  0  0  2  0  0  0  0  0  0
  188.7850  178.3870  139.2270 C   0  0  0  0  0  2  0  0  0  0  0  0
  189.8740  177.0340  136.5230 C   0  0  0  0  0  2  0  0  0  0  0  0
  189.5340  174.8240  135.8150 C   0  0  0  0  0  2  0  0  0  0  0  0
  189.3080  175.5900  134.5940 C   0  0  2  0  0  3  0  0  0  0  0  0
  190.3430  176.0280  135.5730 N   0  0  0  0  0  0  0  0  0  0  0  0
  187.9700  176.3280  134.6850 C   0  0  0  0  0  2  0  0  0  0  0  0
  186.8480  175.3470  134.9780 C   0  0  0  0  0  2  0  0  0  0  0  0
  185.0780  175.6910  136.6400 C   0  0  1  0  0  0  0  0  0  0  0  0
  186.0430  177.3390  135.9200 C   0  0  0  0  0  2  0  0  0  0  0  0
  185.6250  176.0710  135.3250 N   0  0  0  0  0  0  0  0  0  0  0  0
  185.7310  174.5420  137.2650 N   0  0  0  0  0  1  0  0  0  0  0  0
  185.4940  176.9850  137.2910 C   0  0  0  0  0  2  0  0  0  0  0  0
  183.5620  175.5320  136.6020 C   0  0  0  0  0  2  0  0  0  0  0  0
  183.1210  174.6270  137.6510 N   0  0  0  0  0  2  0  0  0  0  0  0
  181.7510  174.2630  137.3370 C   0  0  0  0  0  1  0  0  0  0  0  0
  184.5940  178.4060  145.6040 C   0  0  0  0  0  0  0  0  0  0  0  0
  184.9190  178.3240  146.8170 O   0  0  0  0  0  0  0  0  0  0  0  0
  183.2750  179.0250  145.2660 C   0  0  0  0  0  2  0  0  0  0  0  0
  183.3670  179.7410  144.0020 N   0  0  0  0  0  2  0  0  0  0  0  0
  182.7300  178.9180  142.9840 C   0  0  0  0  0  2  0  0  0  0  0  0
  184.0700  177.4300  141.6930 F   0  0  0  0  0  0  0  0  0  0  0  0
  182.9710  179.0860  140.6240 F   0  0  0  0  0  0  0  0  0  0  0  0
  183.6460  178.7430  141.7810 C   0  0  0  0  0  0  0  0  0  0  0  0
  184.7470  179.5640  141.9260 F   0  0  0  0  0  0  0  0  0  0  0  0
  190.9790  180.1120  144.0750 F   0  0  0  0  0  0  0  0  0  0  0  0
  191.9520  179.1600  143.8130 C   0  0  0  0  0  2  0  0  0  0  0  0
  1 12  1  1  0  0  0
  1 11  1  0  0  0  0
  2 10  2  0  0  0  0
  2 35  1  0  0  0  0
  4 45  1  1  0  0  0
  4  5  1  0  0  0  0
  5 11  1  0  0  0  0
  5  9  2  0  0  0  0
  6  5  2  0  0  0  0
  7  3  1  0  0  0  0
  8 15  1  6  0  0  0
  8  4  1  0  0  0  0
  8  1  1  0  0  0  0
 10  3  1  0  0  0  0
 11  7  1  1  0  0  0
 12 10  1  0  0  0  0
 13 18  1  0  0  0  0
 14 15  1  0  0  0  0
 16 21  1  6  0  0  0
 16 13  1  0  0  0  0
 16 19  1  0  0  0  0
 17 15  2  0  0  0  0
 18 17  2  0  0  0  0
 19 20  1  0  0  0  0
 20 14  1  0  0  0  0
 23 25  1  1  0  0  0
 23 24  1  0  0  0  0
 23 22  1  0  0  0  0
 24 22  1  0  0  0  0
 24 21  1  0  0  0  0
 25 26  1  0  0  0  0
 26 29  1  0  0  0  0
 27 30  1  1  0  0  0
 27 31  1  0  0  0  0
 28 31  1  0  0  0  0
 29 28  1  0  0  0  0
 29 27  1  0  0  0  0
 32 27  1  0  0  0  0
 32 33  1  0  0  0  0
 34 33  1  0  0  0  0
 35 36  2  0  0  0  0
 37 35  1  0  0  0  0
 38 37  1  0  0  0  0
 39 38  1  0  0  0  0
 40 42  1  0  0  0  0
 41 42  1  0  0  0  0
 42 43  1  0  0  0  0
 42 39  1  0  0  0  0
 45 44  1  0  0  0  0
M  END
>  <MODEL>
2

>  <REMARK>
 VINA RESULT:      -7.5      2.174      4.751
  Name = 
  14 active torsions:
  status: ('A' for Active; 'I' for Inactive)
    1  A    between atoms: C_3  and  C_36
    2  A    between atoms: N_4  and  C_12
    3  A    between atoms: C_10  and  C_34
    4  A    between atoms: C_12  and  C_38
    5  A    between atoms: N_13  and  C_22
    6  A    between atoms: N_13  and  C_38
    7  A    between atoms: C_14  and  C_19
    8  A    between atoms: C_14  and  N_42
    9  A    between atoms: N_15  and  C_20
   10  A    between atoms: C_17  and  C_22
   11  A    between atoms: C_18  and  C_30
   12  A    between atoms: C_20  and  C_23
   13  A    between atoms: C_23  and  C_39
   14  A    between atoms: N_25  and  C_36
                            x       y       z     vdW  Elec       q    Type
                         _______ _______ _______ _____ _____    ______ ____

>  <TORSDO>
F 14

$$$$
=
 OpenBabel11032420433D

 45 49  0  0  1  0  0  0  0  0999 V2000
  188.8070  176.7850  139.7250 C   0  0  1  0  0  3  0  0  0  0  0  0
  189.6120  178.2350  143.0960 N   0  0  0  0  0  0  0  0  0  0  0  0
  191.1670  177.4690  141.3550 C   0  0  0  0  0  2  0  0  0  0  0  0
  188.9350  177.3450  137.3040 C   0  0  1  0  0  3  0  0  0  0  0  0
  190.2030  176.1920  137.7390 S   0  0  0  0  0  0  0  0  0  0  0  0
  189.8180  174.8060  137.3020 O   0  0  0  0  0  0  0  0  0  0  0  0
  191.1240  177.3380  139.8470 C   0  0  0  0  0  2  0  0  0  0  0  0
  188.3490  177.7840  138.6430 C   0  0  1  0  0  3  0  0  0  0  0  0
  191.5510  176.5550  137.1720 O   0  0  0  0  0  0  0  0  0  0  0  0
  189.7940  177.7020  141.9220 C   0  0  0  0  0  0  0  0  0  0  0  0
  190.1700  176.3010  139.4620 N   0  0  1  0  0  0  0  0  0  0  0  0
  188.5650  177.2860  141.1600 C   0  0  0  0  0  2  0  0  0  0  0  0
  183.9230  177.3270  136.8230 C   0  0  0  0  0  2  0  0  0  0  0  0
  186.1140  178.6380  139.6550 C   0  0  0  0  0  2  0  0  0  0  0  0
  186.8530  177.8900  138.5700 C   0  0  0  0  0  0  0  0  0  0  0  0
  183.1590  177.0670  138.1420 C   0  0  1  0  0  3  0  0  0  0  0  0
  186.1730  177.2930  137.6250 C   0  0  0  0  0  0  0  0  0  0  0  0
  185.3160  176.7740  136.7990 C   0  0  0  0  0  3  0  0  0  0  0  0
  183.9160  177.4000  139.4420 C   0  0  0  0  0  2  0  0  0  0  0  0
  184.5960  178.7720  139.4270 C   0  0  0  0  0  2  0  0  0  0  0  0
  181.8250  177.7930  138.1270 C   0  0  0  0  0  2  0  0  0  0  0  0
  180.7470  179.3880  136.7870 C   0  0  0  0  0  2  0  0  0  0  0  0
  180.9780  180.1170  138.0300 C   0  0  2  0  0  3  0  0  0  0  0  0
  181.9800  179.1240  137.5460 N   0  0  0  0  0  0  0  0  0  0  0  0
  180.0260  179.6060  139.1150 C   0  0  0  0  0  2  0  0  0  0  0  0
  180.4330  180.1550  140.4720 C   0  0  0  0  0  2  0  0  0  0  0  0
  180.7750  179.2960  142.7430 C   0  0  1  0  0  0  0  0  0  0  0  0
  179.9830  178.0280  141.3520 C   0  0  0  0  0  2  0  0  0  0  0  0
  180.9910  179.0860  141.2990 N   0  0  0  0  0  0  0  0  0  0  0  0
  180.2240  180.6040  143.0950 N   0  0  0  0  0  1  0  0  0  0  0  0
  179.7300  178.2130  142.8380 C   0  0  0  0  0  2  0  0  0  0  0  0
  182.0190  178.9640  143.5590 C   0  0  0  0  0  2  0  0  0  0  0  0
  183.2160  179.1490  142.7560 N   0  0  0  0  0  2  0  0  0  0  0  0
  184.2820  178.4250  143.4250 C   0  0  0  0  0  1  0  0  0  0  0  0
  190.5930  178.6650  144.0570 C   0  0  0  0  0  0  0  0  0  0  0  0
  190.9890  179.8590  144.0230 O   0  0  0  0  0  0  0  0  0  0  0  0
  191.1070  177.7810  145.1480 C   0  0  0  0  0  2  0  0  0  0  0  0
  190.0560  176.8810  145.6010 N   0  0  0  0  0  2  0  0  0  0  0  0
  190.0900  176.8650  147.0560 C   0  0  0  0  0  2  0  0  0  0  0  0
  188.0830  176.6730  148.3270 F   0  0  0  0  0  0  0  0  0  0  0  0
  189.2760  178.5820  148.4870 F   0  0  0  0  0  0  0  0  0  0  0  0
  188.8720  177.5730  147.6330 C   0  0  0  0  0  0  0  0  0  0  0  0
  188.1340  178.1180  146.6010 F   0  0  0  0  0  0  0  0  0  0  0  0
  189.2330  179.7280  137.2010 F   0  0  0  0  0  0  0  0  0  0  0  0
  189.4790  178.5400  136.5300 C   0  0  0  0  0  2  0  0  0  0  0  0
  1 12  1  1  0  0  0
  2 35  1  0  0  0  0
  3 10  1  0  0  0  0
  4 45  1  1  0  0  0
  4  5  1  0  0  0  0
  4  8  1  0  0  0  0
  5 11  1  0  0  0  0
  6  5  2  0  0  0  0
  7  3  1  0  0  0  0
  8 15  1  6  0  0  0
  8  1  1  0  0  0  0
  9  5  2  0  0  0  0
 10  2  2  0  0  0  0
 11  1  1  0  0  0  0
 11  7  1  6  0  0  0
 12 10  1  0  0  0  0
 13 16  1  0  0  0  0
 15 14  1  0  0  0  0
 16 21  1  6  0  0  0
 16 19  1  0  0  0  0
 17 15  2  0  0  0  0
 18 13  1  0  0  0  0
 18 17  2  0  0  0  0
 20 19  1  0  0  0  0
 20 14  1  0  0  0  0
 22 24  1  0  0  0  0
 22 23  1  0  0  0  0
 23 25  1  1  0  0  0
 24 23  1  0  0  0  0
 24 21  1  0  0  0  0
 25 26  1  0  0  0  0
 26 29  1  0  0  0  0
 27 31  1  0  0  0  0
 27 30  1  1  0  0  0
 27 32  1  0  0  0  0
 28 31  1  0  0  0  0
 29 28  1  0  0  0  0
 29 27  1  0  0  0  0
 33 34  1  0  0  0  0
 33 32  1  0  0  0  0
 35 37  1  0  0  0  0
 36 35  2  0  0  0  0
 37 38  1  0  0  0  0
 38 39  1  0  0  0  0
 39 42  1  0  0  0  0
 42 40  1  0  0  0  0
 42 41  1  0  0  0  0
 43 42  1  0  0  0  0
 45 44  1  0  0  0  0
M  END
>  <MODEL>
3

>  <REMARK>
 VINA RESULT:      -7.3      3.798      9.164
  Name = 
  14 active torsions:
  status: ('A' for Active; 'I' for Inactive)
    1  A    between atoms: C_3  and  C_36
    2  A    between atoms: N_4  and  C_12
    3  A    between atoms: C_10  and  C_34
    4  A    between atoms: C_12  and  C_38
    5  A    between atoms: N_13  and  C_22
    6  A    between atoms: N_13  and  C_38
    7  A    between atoms: C_14  and  C_19
    8  A    between atoms: C_14  and  N_42
    9  A    between atoms: N_15  and  C_20
   10  A    between atoms: C_17  and  C_22
   11  A    between atoms: C_18  and  C_30
   12  A    between atoms: C_20  and  C_23
   13  A    between atoms: C_23  and  C_39
   14  A    between atoms: N_25  and  C_36
                            x       y       z     vdW  Elec       q    Type
                         _______ _______ _______ _____ _____    ______ ____

>  <TORSDO>
F 14

$$$$
=
 OpenBabel11032420433D

 45 49  0  0  1  0  0  0  0  0999 V2000
  181.9820  177.4050  138.5000 C   0  0  1  0  0  3  0  0  0  0  0  0
  184.5730  175.3790  136.6840 N   0  0  0  0  0  0  0  0  0  0  0  0
  182.7410  176.7140  135.7360 C   0  0  0  0  0  2  0  0  0  0  0  0
  181.3180  179.7680  138.9060 C   0  0  1  0  0  3  0  0  0  0  0  0
  180.2230  179.0110  137.7410 S   0  0  0  0  0  0  0  0  0  0  0  0
  178.9330  178.6310  138.4110 O   0  0  0  0  0  0  0  0  0  0  0  0
  181.9470  177.9270  136.1730 C   0  0  0  0  0  2  0  0  0  0  0  0
  182.4500  178.7600  139.0720 C   0  0  1  0  0  3  0  0  0  0  0  0
  179.9460  179.8790  136.5410 O   0  0  0  0  0  0  0  0  0  0  0  0
  183.5340  176.1410  136.8770 C   0  0  0  0  0  0  0  0  0  0  0  0
  181.1160  177.5930  137.3260 N   0  0  1  0  0  0  0  0  0  0  0  0
  183.1280  176.3970  138.3030 C   0  0  0  0  0  2  0  0  0  0  0  0
  185.3980  178.2680  142.8370 C   0  0  0  0  0  2  0  0  0  0  0  0
  181.8100  178.5730  141.5820 C   0  0  0  0  0  2  0  0  0  0  0  0
  182.8700  178.6490  140.5090 C   0  0  0  0  0  0  0  0  0  0  0  0
  184.6460  179.1770  143.8360 C   0  0  1  0  0  3  0  0  0  0  0  0
  184.1320  178.6830  140.8540 C   0  0  0  0  0  0  0  0  0  0  0  0
  185.3050  178.7140  141.4090 C   0  0  0  0  0  3  0  0  0  0  0  0
  183.2000  179.5510  143.4600 C   0  0  0  0  0  2  0  0  0  0  0  0
  182.3510  178.3600  143.0100 C   0  0  0  0  0  2  0  0  0  0  0  0
  184.6700  178.5630  145.2250 C   0  0  0  0  0  2  0  0  0  0  0  0
  185.6360  178.6060  147.3620 C   0  0  0  0  0  2  0  0  0  0  0  0
  186.7860  178.8070  146.4870 C   0  0  2  0  0  3  0  0  0  0  0  0
  185.4610  179.3920  146.1310 N   0  0  0  0  0  0  0  0  0  0  0  0
  187.1310  177.4960  145.7760 C   0  0  0  0  0  2  0  0  0  0  0  0
  188.6320  177.3930  145.5640 C   0  0  0  0  0  2  0  0  0  0  0  0
  190.2840  176.9960  143.7960 C   0  0  1  0  0  0  0  0  0  0  0  0
  188.3770  176.3400  143.4840 C   0  0  0  0  0  2  0  0  0  0  0  0
  188.9470  177.5140  144.1400 N   0  0  0  0  0  0  0  0  0  0  0  0
  191.1160  176.6400  144.9430 N   0  0  0  0  0  1  0  0  0  0  0  0
  189.7350  175.7710  143.1100 C   0  0  0  0  0  2  0  0  0  0  0  0
  191.0170  177.9140  142.8250 C   0  0  0  0  0  2  0  0  0  0  0  0
  191.8620  177.1370  141.9330 N   0  0  0  0  0  2  0  0  0  0  0  0
  191.5270  177.5460  140.5800 C   0  0  0  0  0  1  0  0  0  0  0  0
  185.1430  174.9230  135.4440 C   0  0  0  0  0  0  0  0  0  0  0  0
  184.7320  173.8410  134.9520 O   0  0  0  0  0  0  0  0  0  0  0  0
  186.1480  175.7150  134.6700 C   0  0  0  0  0  2  0  0  0  0  0  0
  187.1940  176.2030  135.5580 N   0  0  0  0  0  2  0  0  0  0  0  0
  187.1520  177.6580  135.5270 C   0  0  0  0  0  2  0  0  0  0  0  0
  187.8910  179.4190  136.9520 F   0  0  0  0  0  0  0  0  0  0  0  0
  185.8990  178.4510  137.3870 F   0  0  0  0  0  0  0  0  0  0  0  0
  187.1880  178.2280  136.9380 C   0  0  0  0  0  0  0  0  0  0  0  0
  187.8120  177.3260  137.7760 F   0  0  0  0  0  0  0  0  0  0  0  0
  183.2020  181.2460  138.6930 F   0  0  0  0  0  0  0  0  0  0  0  0
  181.8510  181.1090  138.4140 C   0  0  0  0  0  2  0  0  0  0  0  0
  1 12  1  6  0  0  0
  1  8  1  0  0  0  0
  2 10  2  0  0  0  0
  3  7  1  0  0  0  0
  3 10  1  0  0  0  0
  4 45  1  6  0  0  0
  4  8  1  0  0  0  0
  5  6  2  0  0  0  0
  5  4  1  0  0  0  0
  8 15  1  1  0  0  0
  9  5  2  0  0  0  0
 10 12  1  0  0  0  0
 11  7  1  6  0  0  0
 11  5  1  0  0  0  0
 11  1  1  0  0  0  0
 13 16  1  0  0  0  0
 14 20  1  0  0  0  0
 15 17  2  0  0  0  0
 15 14  1  0  0  0  0
 16 21  1  1  0  0  0
 17 18  2  0  0  0  0
 18 13  1  0  0  0  0
 19 16  1  0  0  0  0
 20 19  1  0  0  0  0
 21 24  1  0  0  0  0
 23 25  1  6  0  0  0
 23 22  1  0  0  0  0
 24 23  1  0  0  0  0
 24 22  1  0  0  0  0
 26 25  1  0  0  0  0
 27 29  1  0  0  0  0
 27 30  1  1  0  0  0
 28 29  1  0  0  0  0
 29 26  1  0  0  0  0
 31 28  1  0  0  0  0
 31 27  1  0  0  0  0
 32 27  1  0  0  0  0
 33 32  1  0  0  0  0
 34 33  1  0  0  0  0
 35  2  1  0  0  0  0
 36 35  2  0  0  0  0
 37 35  1  0  0  0  0
 37 38  1  0  0  0  0
 39 38  1  0  0  0  0
 39 42  1  0  0  0  0
 42 40  1  0  0  0  0
 42 41  1  0  0  0  0
 42 43  1  0  0  0  0
 45 44  1  0  0  0  0
M  END
>  <MODEL>
4

>  <REMARK>
 VINA RESULT:      -7.2      5.125      9.575
  Name = 
  14 active torsions:
  status: ('A' for Active; 'I' for Inactive)
    1  A    between atoms: C_3  and  C_36
    2  A    between atoms: N_4  and  C_12
    3  A    between atoms: C_10  and  C_34
    4  A    between atoms: C_12  and  C_38
    5  A    between atoms: N_13  and  C_22
    6  A    between atoms: N_13  and  C_38
    7  A    between atoms: C_14  and  C_19
    8  A    between atoms: C_14  and  N_42
    9  A    between atoms: N_15  and  C_20
   10  A    between atoms: C_17  and  C_22
   11  A    between atoms: C_18  and  C_30
   12  A    between atoms: C_20  and  C_23
   13  A    between atoms: C_23  and  C_39
   14  A    between atoms: N_25  and  C_36
                            x       y       z     vdW  Elec       q    Type
                         _______ _______ _______ _____ _____    ______ ____

>  <TORSDO>
F 14

$$$$
=
 OpenBabel11032420433D

 45 49  0  0  1  0  0  0  0  0999 V2000
  187.0770  178.6270  139.4610 C   0  0  1  0  0  3  0  0  0  0  0  0
  183.5170  178.1260  140.5500 N   0  0  0  0  0  0  0  0  0  0  0  0
  184.4200  178.1720  138.2660 C   0  0  0  0  0  2  0  0  0  0  0  0
  188.9750  177.3830  138.4420 C   0  0  1  0  0  3  0  0  0  0  0  0
  188.2300  178.4570  137.2500 S   0  0  0  0  0  0  0  0  0  0  0  0
  189.0660  179.6930  137.0700 O   0  0  0  0  0  0  0  0  0  0  0  0
  185.7570  177.8670  137.6240 C   0  0  0  0  0  2  0  0  0  0  0  0
  188.0210  177.4190  139.6310 C   0  0  1  0  0  3  0  0  0  0  0  0
  188.0000  177.7920  135.9180 O   0  0  0  0  0  0  0  0  0  0  0  0
  184.5420  178.2730  139.7610 C   0  0  0  0  0  0  0  0  0  0  0  0
  186.7500  178.8530  138.0450 N   0  0  1  0  0  0  0  0  0  0  0  0
  185.8630  178.5930  140.4060 C   0  0  0  0  0  2  0  0  0  0  0  0
  191.7610  177.1310  142.6380 C   0  0  0  0  0  2  0  0  0  0  0  0
  188.0120  177.6880  142.2150 C   0  0  0  0  0  2  0  0  0  0  0  0
  188.7750  177.4720  140.9280 C   0  0  0  0  0  0  0  0  0  0  0  0
  191.3610  178.2640  143.6100 C   0  0  1  0  0  3  0  0  0  0  0  0
  190.0800  177.4000  140.9600 C   0  0  0  0  0  0  0  0  0  0  0  0
  191.3540  177.3680  141.2140 C   0  0  0  0  0  3  0  0  0  0  0  0
  189.9020  178.7550  143.5190 C   0  0  0  0  0  2  0  0  0  0  0  0
  188.8710  177.6230  143.4930 C   0  0  0  0  0  2  0  0  0  0  0  0
  191.6770  177.8650  145.0410 C   0  0  0  0  0  2  0  0  0  0  0  0
  192.0550  176.1040  146.5430 C   0  0  0  0  0  2  0  0  0  0  0  0
  190.6140  176.0340  146.3230 C   0  0  2  0  0  3  0  0  0  0  0  0
  191.5240  176.4220  145.2080 N   0  0  0  0  0  0  0  0  0  0  0  0
  189.9240  177.1990  147.0370 C   0  0  0  0  0  2  0  0  0  0  0  0
  188.4200  176.9880  147.0560 C   0  0  0  0  0  2  0  0  0  0  0  0
  186.3730  178.0890  146.2750 C   0  0  1  0  0  0  0  0  0  0  0  0
  187.1170  178.6380  148.0950 C   0  0  0  0  0  2  0  0  0  0  0  0
  187.7310  178.2570  146.8240 N   0  0  0  0  0  0  0  0  0  0  0  0
  186.0370  176.7210  145.8850 N   0  0  0  0  0  1  0  0  0  0  0  0
  185.7020  178.4760  147.5680 C   0  0  0  0  0  2  0  0  0  0  0  0
  186.0830  179.0860  145.1590 C   0  0  0  0  0  2  0  0  0  0  0  0
  184.9740  178.6220  144.3410 N   0  0  0  0  0  2  0  0  0  0  0  0
  184.5520  179.7520  143.5330 C   0  0  0  0  0  1  0  0  0  0  0  0
  182.1400  177.8800  140.2110 C   0  0  0  0  0  0  0  0  0  0  0  0
  181.8150  176.7350  139.8020 O   0  0  0  0  0  0  0  0  0  0  0  0
  181.0610  178.8980  140.3950 C   0  0  0  0  0  2  0  0  0  0  0  0
  180.9280  179.2380  141.8040 N   0  0  0  0  0  2  0  0  0  0  0  0
  180.0610  178.2400  142.4160 C   0  0  0  0  0  2  0  0  0  0  0  0
  179.1380  179.2640  144.3590 F   0  0  0  0  0  0  0  0  0  0  0  0
  179.8390  177.1230  144.5040 F   0  0  0  0  0  0  0  0  0  0  0  0
  180.0920  178.3570  143.9330 C   0  0  0  0  0  0  0  0  0  0  0  0
  181.3400  178.7940  144.3290 F   0  0  0  0  0  0  0  0  0  0  0  0
  187.9080  175.3590  137.7040 F   0  0  0  0  0  0  0  0  0  0  0  0
  189.1390  175.9610  137.9180 C   0  0  0  0  0  2  0  0  0  0  0  0
  1  8  1  0  0  0  0
  1 12  1  1  0  0  0
  3 10  1  0  0  0  0
  4 45  1  6  0  0  0
  4  8  1  0  0  0  0
  5 11  1  0  0  0  0
  5  4  1  0  0  0  0
  6  5  2  0  0  0  0
  7  3  1  0  0  0  0
  8 15  1  1  0  0  0
  9  5  2  0  0  0  0
 10 12  1  0  0  0  0
 10  2  2  0  0  0  0
 11  7  1  6  0  0  0
 11  1  1  0  0  0  0
 13 16  1  0  0  0  0
 14 20  1  0  0  0  0
 15 17  2  0  0  0  0
 15 14  1  0  0  0  0
 16 21  1  1  0  0  0
 17 18  2  0  0  0  0
 18 13  1  0  0  0  0
 19 16  1  0  0  0  0
 20 19  1  0  0  0  0
 21 24  1  0  0  0  0
 23 22  1  0  0  0  0
 23 25  1  1  0  0  0
 24 23  1  0  0  0  0
 24 22  1  0  0  0  0
 25 26  1  0  0  0  0
 27 30  1  6  0  0  0
 27 29  1  0  0  0  0
 27 31  1  0  0  0  0
 29 26  1  0  0  0  0
 29 28  1  0  0  0  0
 31 28  1  0  0  0  0
 32 27  1  0  0  0  0
 33 32  1  0  0  0  0
 34 33  1  0  0  0  0
 35 37  1  0  0  0  0
 35  2  1  0  0  0  0
 36 35  2  0  0  0  0
 37 38  1  0  0  0  0
 38 39  1  0  0  0  0
 39 42  1  0  0  0  0
 42 43  1  0  0  0  0
 42 40  1  0  0  0  0
 42 41  1  0  0  0  0
 44 45  1  0  0  0  0
M  END
>  <MODEL>
5

>  <REMARK>
 VINA RESULT:      -7.1      4.567      8.470
  Name = 
  14 active torsions:
  status: ('A' for Active; 'I' for Inactive)
    1  A    between atoms: C_3  and  C_36
    2  A    between atoms: N_4  and  C_12
    3  A    between atoms: C_10  and  C_34
    4  A    between atoms: C_12  and  C_38
    5  A    between atoms: N_13  and  C_22
    6  A    between atoms: N_13  and  C_38
    7  A    between atoms: C_14  and  C_19
    8  A    between atoms: C_14  and  N_42
    9  A    between atoms: N_15  and  C_20
   10  A    between atoms: C_17  and  C_22
   11  A    between atoms: C_18  and  C_30
   12  A    between atoms: C_20  and  C_23
   13  A    between atoms: C_23  and  C_39
   14  A    between atoms: N_25  and  C_36
                            x       y       z     vdW  Elec       q    Type
                         _______ _______ _______ _____ _____    ______ ____

>  <TORSDO>
F 14

$$$$
=
 OpenBabel11032420433D

 45 49  0  0  1  0  0  0  0  0999 V2000
  182.1760  177.4600  138.8120 C   0  0  1  0  0  3  0  0  0  0  0  0
  185.0940  176.2240  136.7950 N   0  0  0  0  0  0  0  0  0  0  0  0
  182.9880  177.1990  135.9890 C   0  0  0  0  0  2  0  0  0  0  0  0
  181.0220  179.5740  139.4390 C   0  0  1  0  0  3  0  0  0  0  0  0
  180.0870  178.6980  138.2190 S   0  0  0  0  0  0  0  0  0  0  0  0
  178.9310  177.9860  138.8630 O   0  0  0  0  0  0  0  0  0  0  0  0
  181.9600  178.1640  136.5430 C   0  0  0  0  0  2  0  0  0  0  0  0
  182.3520  178.8290  139.5020 C   0  0  1  0  0  3  0  0  0  0  0  0
  179.5920  179.5860  137.1070 O   0  0  0  0  0  0  0  0  0  0  0  0
  183.9200  176.7170  137.0660 C   0  0  0  0  0  0  0  0  0  0  0  0
  181.2570  177.5540  137.6680 N   0  0  1  0  0  0  0  0  0  0  0  0
  183.5090  176.7510  138.5130 C   0  0  0  0  0  2  0  0  0  0  0  0
  185.4160  178.0860  143.1310 C   0  0  0  0  0  2  0  0  0  0  0  0
  181.8170  178.7190  142.0410 C   0  0  0  0  0  2  0  0  0  0  0  0
  182.8280  178.6880  140.9190 C   0  0  0  0  0  0  0  0  0  0  0  0
  184.8010  179.0680  144.1540 C   0  0  1  0  0  3  0  0  0  0  0  0
  184.1020  178.6060  141.2040 C   0  0  0  0  0  0  0  0  0  0  0  0
  185.2980  178.5300  141.7040 C   0  0  0  0  0  3  0  0  0  0  0  0
  183.3790  179.5740  143.8410 C   0  0  0  0  0  2  0  0  0  0  0  0
  182.4020  178.4650  143.4440 C   0  0  0  0  0  2  0  0  0  0  0  0
  184.8320  178.4630  145.5470 C   0  0  0  0  0  2  0  0  0  0  0  0
  185.7790  178.5710  147.6900 C   0  0  0  0  0  2  0  0  0  0  0  0
  186.9060  178.9000  146.8250 C   0  0  2  0  0  3  0  0  0  0  0  0
  185.5310  179.3540  146.4690 N   0  0  0  0  0  0  0  0  0  0  0  0
  187.3860  177.6410  146.0980 C   0  0  0  0  0  2  0  0  0  0  0  0
  188.5100  177.9860  145.1360 C   0  0  0  0  0  2  0  0  0  0  0  0
  190.7260  177.2420  144.3940 C   0  0  1  0  0  0  0  0  0  0  0  0
  190.1880  176.8560  146.3240 C   0  0  0  0  0  2  0  0  0  0  0  0
  189.4610  176.8770  145.0560 N   0  0  0  0  0  0  0  0  0  0  0  0
  190.7310  178.5660  143.7740 N   0  0  0  0  0  1  0  0  0  0  0  0
  191.5110  177.2320  145.6810 C   0  0  0  0  0  2  0  0  0  0  0  0
  191.1970  176.1610  143.4290 C   0  0  0  0  0  2  0  0  0  0  0  0
  190.1540  175.8540  142.4640 N   0  0  0  0  0  2  0  0  0  0  0  0
  190.5070  176.5430  141.2350 C   0  0  0  0  0  1  0  0  0  0  0  0
  185.7150  176.0150  135.5130 C   0  0  0  0  0  0  0  0  0  0  0  0
  186.1790  177.0100  134.8980 O   0  0  0  0  0  0  0  0  0  0  0  0
  185.9060  174.6600  134.9120 C   0  0  0  0  0  2  0  0  0  0  0  0
  185.7950  173.6350  135.9400 N   0  0  0  0  0  2  0  0  0  0  0  0
  184.4690  173.0440  135.8290 C   0  0  0  0  0  2  0  0  0  0  0  0
  182.7560  173.5180  137.4150 F   0  0  0  0  0  0  0  0  0  0  0  0
  183.5670  171.4140  137.3090 F   0  0  0  0  0  0  0  0  0  0  0  0
  183.8910  172.7550  137.2060 C   0  0  0  0  0  0  0  0  0  0  0  0
  184.8300  173.0710  138.1680 F   0  0  0  0  0  0  0  0  0  0  0  0
  182.5400  181.2680  138.6630 F   0  0  0  0  0  0  0  0  0  0  0  0
  181.2350  181.0360  139.0670 C   0  0  0  0  0  2  0  0  0  0  0  0
  1 12  1  6  0  0  0
  1  8  1  0  0  0  0
  2 10  2  0  0  0  0
  3  7  1  0  0  0  0
  3 10  1  0  0  0  0
  4 45  1  6  0  0  0
  4  8  1  0  0  0  0
  5  6  2  0  0  0  0
  5  4  1  0  0  0  0
  8 15  1  1  0  0  0
  9  5  2  0  0  0  0
 10 12  1  0  0  0  0
 11  7  1  6  0  0  0
 11  5  1  0  0  0  0
 11  1  1  0  0  0  0
 13 16  1  0  0  0  0
 14 20  1  0  0  0  0
 15 17  2  0  0  0  0
 15 14  1  0  0  0  0
 16 21  1  1  0  0  0
 17 18  2  0  0  0  0
 18 13  1  0  0  0  0
 19 16  1  0  0  0  0
 20 19  1  0  0  0  0
 21 24  1  0  0  0  0
 23 25  1  6  0  0  0
 23 22  1  0  0  0  0
 24 23  1  0  0  0  0
 24 22  1  0  0  0  0
 26 25  1  0  0  0  0
 27 30  1  6  0  0  0
 27 29  1  0  0  0  0
 27 31  1  0  0  0  0
 29 26  1  0  0  0  0
 29 28  1  0  0  0  0
 31 28  1  0  0  0  0
 32 27  1  0  0  0  0
 33 32  1  0  0  0  0
 34 33  1  0  0  0  0
 35  2  1  0  0  0  0
 36 35  2  0  0  0  0
 37 35  1  0  0  0  0
 37 38  1  0  0  0  0
 39 38  1  0  0  0  0
 39 42  1  0  0  0  0
 42 41  1  0  0  0  0
 42 40  1  0  0  0  0
 42 43  1  0  0  0  0
 44 45  1  0  0  0  0
M  END
>  <MODEL>
6

>  <REMARK>
 VINA RESULT:      -7.1      5.361      9.794
  Name = 
  14 active torsions:
  status: ('A' for Active; 'I' for Inactive)
    1  A    between atoms: C_3  and  C_36
    2  A    between atoms: N_4  and  C_12
    3  A    between atoms: C_10  and  C_34
    4  A    between atoms: C_12  and  C_38
    5  A    between atoms: N_13  and  C_22
    6  A    between atoms: N_13  and  C_38
    7  A    between atoms: C_14  and  C_19
    8  A    between atoms: C_14  and  N_42
    9  A    between atoms: N_15  and  C_20
   10  A    between atoms: C_17  and  C_22
   11  A    between atoms: C_18  and  C_30
   12  A    between atoms: C_20  and  C_23
   13  A    between atoms: C_23  and  C_39
   14  A    between atoms: N_25  and  C_36
                            x       y       z     vdW  Elec       q    Type
                         _______ _______ _______ _____ _____    ______ ____

>  <TORSDO>
F 14

$$$$
=
 OpenBabel11032420433D

 45 49  0  0  1  0  0  0  0  0999 V2000
  186.9570  178.6210  139.4020 C   0  0  1  0  0  3  0  0  0  0  0  0
  183.4230  178.1190  140.5720 N   0  0  0  0  0  0  0  0  0  0  0  0
  184.2830  178.1080  138.2710 C   0  0  0  0  0  2  0  0  0  0  0  0
  188.8480  177.3650  138.3830 C   0  0  1  0  0  3  0  0  0  0  0  0
  188.0710  178.3990  137.1760 S   0  0  0  0  0  0  0  0  0  0  0  0
  188.8920  179.6370  136.9460 O   0  0  0  0  0  0  0  0  0  0  0  0
  185.6110  177.7970  137.6130 C   0  0  0  0  0  2  0  0  0  0  0  0
  187.9160  177.4270  139.5890 C   0  0  1  0  0  3  0  0  0  0  0  0
  187.8220  177.6940  135.8680 O   0  0  0  0  0  0  0  0  0  0  0  0
  184.4320  178.2530  139.7600 C   0  0  0  0  0  0  0  0  0  0  0  0
  186.6010  178.8040  137.9870 N   0  0  1  0  0  0  0  0  0  0  0  0
  185.7610  178.6020  140.3710 C   0  0  0  0  0  2  0  0  0  0  0  0
  191.6860  177.1350  142.5580 C   0  0  0  0  0  2  0  0  0  0  0  0
  187.9640  177.8610  142.1490 C   0  0  0  0  0  2  0  0  0  0  0  0
  188.6930  177.5230  140.8700 C   0  0  0  0  0  0  0  0  0  0  0  0
  191.3610  178.3480  143.4590 C   0  0  1  0  0  3  0  0  0  0  0  0
  189.9930  177.3840  140.8890 C   0  0  0  0  0  0  0  0  0  0  0  0
  191.2670  177.3010  141.1270 C   0  0  0  0  0  3  0  0  0  0  0  0
  189.9290  178.9080  143.3560 C   0  0  0  0  0  2  0  0  0  0  0  0
  188.8400  177.8340  143.4170 C   0  0  0  0  0  2  0  0  0  0  0  0
  191.6800  178.0260  144.9080 C   0  0  0  0  0  2  0  0  0  0  0  0
  191.9580  176.3640  146.5400 C   0  0  0  0  0  2  0  0  0  0  0  0
  190.5350  176.2730  146.2290 C   0  0  2  0  0  3  0  0  0  0  0  0
  191.5180  176.5950  145.1550 N   0  0  0  0  0  0  0  0  0  0  0  0
  189.7980  177.4770  146.8200 C   0  0  0  0  0  2  0  0  0  0  0  0
  188.3170  177.1690  146.9610 C   0  0  0  0  0  2  0  0  0  0  0  0
  186.2370  178.1220  146.0790 C   0  0  1  0  0  0  0  0  0  0  0  0
  186.7890  178.6310  147.9770 C   0  0  0  0  0  2  0  0  0  0  0  0
  187.5280  178.3820  146.7400 N   0  0  0  0  0  0  0  0  0  0  0  0
  186.0610  176.7540  145.5950 N   0  0  0  0  0  1  0  0  0  0  0  0
  185.4380  178.3710  147.3340 C   0  0  0  0  0  2  0  0  0  0  0  0
  185.9350  179.1520  144.9960 C   0  0  0  0  0  2  0  0  0  0  0  0
  185.0180  178.5990  144.0130 N   0  0  0  0  0  2  0  0  0  0  0  0
  183.7880  179.3650  144.1120 C   0  0  0  0  0  1  0  0  0  0  0  0
  182.0420  177.8500  140.2660 C   0  0  0  0  0  0  0  0  0  0  0  0
  181.7360  176.7230  139.7990 O   0  0  0  0  0  0  0  0  0  0  0  0
  180.9420  178.8210  140.5500 C   0  0  0  0  0  2  0  0  0  0  0  0
  180.4710  179.4230  139.3100 N   0  0  0  0  0  2  0  0  0  0  0  0
  180.7650  180.8480  139.3750 C   0  0  0  0  0  2  0  0  0  0  0  0
  181.5110  182.5610  137.8970 F   0  0  0  0  0  0  0  0  0  0  0  0
  183.0370  181.1180  138.7250 F   0  0  0  0  0  0  0  0  0  0  0  0
  181.7360  181.2490  138.2750 C   0  0  0  0  0  0  0  0  0  0  0  0
  181.5470  180.4270  137.1810 F   0  0  0  0  0  0  0  0  0  0  0  0
  190.2120  175.3870  138.3370 F   0  0  0  0  0  0  0  0  0  0  0  0
  189.0150  175.9310  137.8970 C   0  0  0  0  0  2  0  0  0  0  0  0
  1  8  1  0  0  0  0
  1 12  1  1  0  0  0
  3 10  1  0  0  0  0
  4 45  1  6  0  0  0
  4  8  1  0  0  0  0
  5 11  1  0  0  0  0
  5  4  1  0  0  0  0
  6  5  2  0  0  0  0
  7  3  1  0  0  0  0
  8 15  1  1  0  0  0
  9  5  2  0  0  0  0
 10 12  1  0  0  0  0
 10  2  2  0  0  0  0
 11  7  1  6  0  0  0
 11  1  1  0  0  0  0
 13 16  1  0  0  0  0
 14 20  1  0  0  0  0
 15 17  2  0  0  0  0
 15 14  1  0  0  0  0
 16 21  1  1  0  0  0
 17 18  2  0  0  0  0
 18 13  1  0  0  0  0
 19 20  1  0  0  0  0
 19 16  1  0  0  0  0
 21 24  1  0  0  0  0
 23 22  1  0  0  0  0
 23 25  1  1  0  0  0
 24 23  1  0  0  0  0
 24 22  1  0  0  0  0
 25 26  1  0  0  0  0
 27 30  1  6  0  0  0
 27 29  1  0  0  0  0
 27 31  1  0  0  0  0
 29 26  1  0  0  0  0
 29 28  1  0  0  0  0
 31 28  1  0  0  0  0
 32 27  1  0  0  0  0
 33 34  1  0  0  0  0
 33 32  1  0  0  0  0
 35 37  1  0  0  0  0
 35  2  1  0  0  0  0
 36 35  2  0  0  0  0
 38 39  1  0  0  0  0
 38 37  1  0  0  0  0
 40 42  1  0  0  0  0
 42 41  1  0  0  0  0
 42 39  1  0  0  0  0
 43 42  1  0  0  0  0
 45 44  1  0  0  0  0
M  END
>  <MODEL>
7

>  <REMARK>
 VINA RESULT:      -7.0      4.543      8.528
  Name = 
  14 active torsions:
  status: ('A' for Active; 'I' for Inactive)
    1  A    between atoms: C_3  and  C_36
    2  A    between atoms: N_4  and  C_12
    3  A    between atoms: C_10  and  C_34
    4  A    between atoms: C_12  and  C_38
    5  A    between atoms: N_13  and  C_22
    6  A    between atoms: N_13  and  C_38
    7  A    between atoms: C_14  and  C_19
    8  A    between atoms: C_14  and  N_42
    9  A    between atoms: N_15  and  C_20
   10  A    between atoms: C_17  and  C_22
   11  A    between atoms: C_18  and  C_30
   12  A    between atoms: C_20  and  C_23
   13  A    between atoms: C_23  and  C_39
   14  A    between atoms: N_25  and  C_36
                            x       y       z     vdW  Elec       q    Type
                         _______ _______ _______ _____ _____    ______ ____

>  <TORSDO>
F 14

$$$$
=
 OpenBabel11032420433D

 45 49  0  0  1  0  0  0  0  0999 V2000
  189.1110  178.2880  141.9020 C   0  0  1  0  0  3  0  0  0  0  0  0
  189.1000  176.5090  138.5930 N   0  0  0  0  0  0  0  0  0  0  0  0
  190.9510  176.7450  140.1900 C   0  0  0  0  0  2  0  0  0  0  0  0
  189.2180  177.8190  144.3430 C   0  0  1  0  0  3  0  0  0  0  0  0
  190.7740  178.4290  143.7630 S   0  0  0  0  0  0  0  0  0  0  0  0
  190.9320  179.8780  144.1290 O   0  0  0  0  0  0  0  0  0  0  0  0
  191.0710  176.9450  141.6870 C   0  0  0  0  0  2  0  0  0  0  0  0
  188.4150  177.5610  143.0710 C   0  0  1  0  0  3  0  0  0  0  0  0
  191.9470  177.6350  144.2760 O   0  0  0  0  0  0  0  0  0  0  0  0
  189.5460  176.9910  139.7180 C   0  0  0  0  0  0  0  0  0  0  0  0
  190.5740  178.2670  142.0560 N   0  0  1  0  0  0  0  0  0  0  0  0
  188.6020  177.8460  140.5180 C   0  0  0  0  0  2  0  0  0  0  0  0
  184.1770  178.2510  145.2320 C   0  0  0  0  0  2  0  0  0  0  0  0
  186.2370  178.5240  142.0350 C   0  0  0  0  0  2  0  0  0  0  0  0
  186.9880  177.9950  143.2340 C   0  0  0  0  0  0  0  0  0  0  0  0
  183.7940  179.5900  144.5610 C   0  0  1  0  0  3  0  0  0  0  0  0
  186.4030  177.9860  144.4040 C   0  0  0  0  0  0  0  0  0  0  0  0
  185.6480  178.0740  145.4580 C   0  0  0  0  0  3  0  0  0  0  0  0
  184.6030  179.9790  143.3090 C   0  0  0  0  0  2  0  0  0  0  0  0
  184.7520  178.8450  142.2920 C   0  0  0  0  0  2  0  0  0  0  0  0
  182.3100  179.6090  144.2360 C   0  0  0  0  0  2  0  0  0  0  0  0
  180.3700  178.3030  144.0620 C   0  0  0  0  0  2  0  0  0  0  0  0
  180.9760  178.1530  142.7430 C   0  0  2  0  0  3  0  0  0  0  0  0
  181.8370  178.2560  143.9560 N   0  0  0  0  0  0  0  0  0  0  0  0
  180.8130  179.4520  141.9480 C   0  0  0  0  0  2  0  0  0  0  0  0
  180.5430  179.1420  140.4860 C   0  0  0  0  0  2  0  0  0  0  0  0
  182.2710  178.8950  138.7640 C   0  0  1  0  0  0  0  0  0  0  0  0
  180.8070  180.2830  138.4540 C   0  0  0  0  0  2  0  0  0  0  0  0
  181.5250  179.8180  139.6390 N   0  0  0  0  0  0  0  0  0  0  0  0
  182.0390  177.4770  139.0320 N   0  0  0  0  0  1  0  0  0  0  0  0
  181.5520  179.3470  137.5180 C   0  0  0  0  0  2  0  0  0  0  0  0
  183.7570  179.2290  138.7190 C   0  0  0  0  0  2  0  0  0  0  0  0
  184.5520  178.0140  138.7870 N   0  0  0  0  0  2  0  0  0  0  0  0
  185.7470  178.2530  137.9970 C   0  0  0  0  0  1  0  0  0  0  0  0
  189.7920  175.7190  137.6080 C   0  0  0  0  0  0  0  0  0  0  0  0
  189.5910  174.4780  137.5800 O   0  0  0  0  0  0  0  0  0  0  0  0
  190.6800  176.3160  136.5640 C   0  0  0  0  0  2  0  0  0  0  0  0
  191.7210  175.3700  136.1900 N   0  0  0  0  0  2  0  0  0  0  0  0
  193.0050  175.9940  136.4770 C   0  0  0  0  0  2  0  0  0  0  0  0
  194.9920  174.8980  137.2030 F   0  0  0  0  0  0  0  0  0  0  0  0
  193.8060  176.0820  138.7150 F   0  0  0  0  0  0  0  0  0  0  0  0
  193.7190  175.2630  137.6040 C   0  0  0  0  0  0  0  0  0  0  0  0
  193.0060  174.1260  137.9310 F   0  0  0  0  0  0  0  0  0  0  0  0
  189.1410  176.7800  146.5090 F   0  0  0  0  0  0  0  0  0  0  0  0
  189.3650  176.5420  145.1620 C   0  0  0  0  0  2  0  0  0  0  0  0
  1 12  1  6  0  0  0
  1 11  1  0  0  0  0
  1  8  1  0  0  0  0
  2 10  2  0  0  0  0
  3  7  1  0  0  0  0
  4 45  1  6  0  0  0
  5  6  2  0  0  0  0
  5  9  2  0  0  0  0
  5  4  1  0  0  0  0
  8 15  1  1  0  0  0
  8  4  1  0  0  0  0
 10  3  1  0  0  0  0
 10 12  1  0  0  0  0
 11  7  1  1  0  0  0
 11  5  1  0  0  0  0
 13 18  1  0  0  0  0
 14 20  1  0  0  0  0
 14 15  1  0  0  0  0
 15 17  2  0  0  0  0
 16 21  1  6  0  0  0
 16 13  1  0  0  0  0
 17 18  2  0  0  0  0
 19 16  1  0  0  0  0
 20 19  1  0  0  0  0
 23 25  1  6  0  0  0
 23 24  1  0  0  0  0
 23 22  1  0  0  0  0
 24 22  1  0  0  0  0
 24 21  1  0  0  0  0
 26 25  1  0  0  0  0
 27 30  1  1  0  0  0
 27 29  1  0  0  0  0
 28 29  1  0  0  0  0
 29 26  1  0  0  0  0
 31 28  1  0  0  0  0
 31 27  1  0  0  0  0
 32 27  1  0  0  0  0
 32 33  1  0  0  0  0
 34 33  1  0  0  0  0
 35  2  1  0  0  0  0
 36 35  2  0  0  0  0
 37 35  1  0  0  0  0
 38 39  1  0  0  0  0
 38 37  1  0  0  0  0
 39 42  1  0  0  0  0
 40 42  1  0  0  0  0
 42 43  1  0  0  0  0
 42 41  1  0  0  0  0
 45 44  1  0  0  0  0
M  END
>  <MODEL>
8

>  <REMARK>
 VINA RESULT:      -6.7      3.556      9.314
  Name = 
  14 active torsions:
  status: ('A' for Active; 'I' for Inactive)
    1  A    between atoms: C_3  and  C_36
    2  A    between atoms: N_4  and  C_12
    3  A    between atoms: C_10  and  C_34
    4  A    between atoms: C_12  and  C_38
    5  A    between atoms: N_13  and  C_22
    6  A    between atoms: N_13  and  C_38
    7  A    between atoms: C_14  and  C_19
    8  A    between atoms: C_14  and  N_42
    9  A    between atoms: N_15  and  C_20
   10  A    between atoms: C_17  and  C_22
   11  A    between atoms: C_18  and  C_30
   12  A    between atoms: C_20  and  C_23
   13  A    between atoms: C_23  and  C_39
   14  A    between atoms: N_25  and  C_36
                            x       y       z     vdW  Elec       q    Type
                         _______ _______ _______ _____ _____    ______ ____

>  <TORSDO>
F 14

$$$$
=
 OpenBabel11032420433D

 45 49  0  0  1  0  0  0  0  0999 V2000
  189.1540  178.3360  142.0720 C   0  0  1  0  0  3  0  0  0  0  0  0
  189.2040  176.6110  138.7350 N   0  0  0  0  0  0  0  0  0  0  0  0
  191.0310  176.8350  140.3620 C   0  0  0  0  0  2  0  0  0  0  0  0
  189.2300  177.8280  144.5060 C   0  0  1  0  0  3  0  0  0  0  0  0
  190.7890  178.4600  143.9590 S   0  0  0  0  0  0  0  0  0  0  0  0
  190.9310  179.9040  144.3510 O   0  0  0  0  0  0  0  0  0  0  0  0
  191.1280  177.0120  141.8630 C   0  0  0  0  0  2  0  0  0  0  0  0
  188.4480  177.5850  143.2200 C   0  0  1  0  0  3  0  0  0  0  0  0
  191.9610  177.6670  144.4760 O   0  0  0  0  0  0  0  0  0  0  0  0
  189.6300  177.0780  139.8740 C   0  0  0  0  0  0  0  0  0  0  0  0
  190.6150  178.3240  142.2470 N   0  0  1  0  0  0  0  0  0  0  0  0
  188.6680  177.9130  140.6740 C   0  0  0  0  0  2  0  0  0  0  0  0
  184.2530  178.4520  145.4020 C   0  0  0  0  0  2  0  0  0  0  0  0
  186.2190  178.3620  142.1350 C   0  0  0  0  0  2  0  0  0  0  0  0
  187.0140  178.0060  143.3690 C   0  0  0  0  0  0  0  0  0  0  0  0
  183.8180  179.6860  144.5790 C   0  0  1  0  0  3  0  0  0  0  0  0
  186.4620  178.1320  144.5480 C   0  0  0  0  0  0  0  0  0  0  0  0
  185.7340  178.3370  145.6040 C   0  0  0  0  0  3  0  0  0  0  0  0
  184.5840  179.9320  143.2640 C   0  0  0  0  0  2  0  0  0  0  0  0
  184.7340  178.6810  142.3950 C   0  0  0  0  0  2  0  0  0  0  0  0
  182.3260  179.6320  144.2990 C   0  0  0  0  0  2  0  0  0  0  0  0
  180.4790  178.2260  143.9650 C   0  0  0  0  0  2  0  0  0  0  0  0
  181.0790  178.2880  142.6370 C   0  0  2  0  0  3  0  0  0  0  0  0
  181.9450  178.2960  143.8510 N   0  0  0  0  0  0  0  0  0  0  0  0
  180.8170  179.6620  142.0140 C   0  0  0  0  0  2  0  0  0  0  0  0
  180.7710  179.5530  140.5000 C   0  0  0  0  0  2  0  0  0  0  0  0
  181.6800  177.7580  139.0980 C   0  0  1  0  0  0  0  0  0  0  0  0
  182.4300  179.6390  138.8440 C   0  0  0  0  0  2  0  0  0  0  0  0
  181.9730  178.8810  140.0070 N   0  0  0  0  0  0  0  0  0  0  0  0
  180.2650  177.3990  139.0060 N   0  0  0  0  0  1  0  0  0  0  0  0
  182.1400  178.5070  137.8740 C   0  0  0  0  0  2  0  0  0  0  0  0
  182.5550  176.5450  139.3900 C   0  0  0  0  0  2  0  0  0  0  0  0
  182.2100  175.4450  138.5050 N   0  0  0  0  0  2  0  0  0  0  0  0
  183.4370  175.0440  137.8410 C   0  0  0  0  0  1  0  0  0  0  0  0
  189.9160  175.8430  137.7470 C   0  0  0  0  0  0  0  0  0  0  0  0
  190.5340  174.8110  138.1160 O   0  0  0  0  0  0  0  0  0  0  0  0
  189.8920  176.1710  136.2890 C   0  0  0  0  0  2  0  0  0  0  0  0
  189.2380  177.4530  136.0730 N   0  0  0  0  0  2  0  0  0  0  0  0
  187.9730  177.1930  135.4000 C   0  0  0  0  0  2  0  0  0  0  0  0
  187.1360  178.6440  137.0950 F   0  0  0  0  0  0  0  0  0  0  0  0
  185.7050  177.9000  135.5160 F   0  0  0  0  0  0  0  0  0  0  0  0
  186.8000  177.5680  136.2930 C   0  0  0  0  0  0  0  0  0  0  0  0
  186.4780  176.4910  137.0960 F   0  0  0  0  0  0  0  0  0  0  0  0
  189.1050  176.7490  146.6500 F   0  0  0  0  0  0  0  0  0  0  0  0
  189.3760  176.5390  145.3070 C   0  0  0  0  0  2  0  0  0  0  0  0
  1 12  1  6  0  0  0
  1 11  1  0  0  0  0
  1  8  1  0  0  0  0
  2 10  2  0  0  0  0
  3  7  1  0  0  0  0
  4 45  1  6  0  0  0
  5  6  2  0  0  0  0
  5  9  2  0  0  0  0
  5  4  1  0  0  0  0
  8 15  1  1  0  0  0
  8  4  1  0  0  0  0
 10  3  1  0  0  0  0
 10 12  1  0  0  0  0
 11  7  1  1  0  0  0
 11  5  1  0  0  0  0
 13 18  1  0  0  0  0
 14 20  1  0  0  0  0
 14 15  1  0  0  0  0
 15 17  2  0  0  0  0
 16 21  1  6  0  0  0
 16 13  1  0  0  0  0
 17 18  2  0  0  0  0
 19 16  1  0  0  0  0
 20 19  1  0  0  0  0
 23 25  1  1  0  0  0
 23 24  1  0  0  0  0
 23 22  1  0  0  0  0
 24 22  1  0  0  0  0
 24 21  1  0  0  0  0
 26 25  1  0  0  0  0
 27 30  1  6  0  0  0
 27 32  1  0  0  0  0
 27 29  1  0  0  0  0
 28 29  1  0  0  0  0
 29 26  1  0  0  0  0
 31 28  1  0  0  0  0
 31 27  1  0  0  0  0
 33 32  1  0  0  0  0
 34 33  1  0  0  0  0
 35 36  2  0  0  0  0
 35  2  1  0  0  0  0
 37 35  1  0  0  0  0
 38 37  1  0  0  0  0
 39 38  1  0  0  0  0
 39 42  1  0  0  0  0
 41 42  1  0  0  0  0
 42 40  1  0  0  0  0
 42 43  1  0  0  0  0
 45 44  1  0  0  0  0
M  END
>  <MODEL>
9

>  <REMARK>
 VINA RESULT:      -6.6      3.384      8.797
  Name = 
  14 active torsions:
  status: ('A' for Active; 'I' for Inactive)
    1  A    between atoms: C_3  and  C_36
    2  A    between atoms: N_4  and  C_12
    3  A    between atoms: C_10  and  C_34
    4  A    between atoms: C_12  and  C_38
    5  A    between atoms: N_13  and  C_22
    6  A    between atoms: N_13  and  C_38
    7  A    between atoms: C_14  and  C_19
    8  A    between atoms: C_14  and  N_42
    9  A    between atoms: N_15  and  C_20
   10  A    between atoms: C_17  and  C_22
   11  A    between atoms: C_18  and  C_30
   12  A    between atoms: C_20  and  C_23
   13  A    between atoms: C_23  and  C_39
   14  A    between atoms: N_25  and  C_36
                            x       y       z     vdW  Elec       q    Type
                         _______ _______ _______ _____ _____    ______ ____

>  <TORSDO>
F 14

$$$$
