=
 OpenBabel11032419563D

 41 45  0  0  1  0  0  0  0  0999 V2000
  184.9780  178.2860  141.5980 C   0  0  0  0  0  0  0  0  0  0  0  0
  183.7580  177.9370  141.1730 C   0  0  0  0  0  3  0  0  0  0  0  0
  183.4970  177.7120  139.7400 C   0  0  0  0  0  0  0  0  0  0  0  0
  185.8760  178.3080  139.3000 C   0  0  0  0  0  0  0  0  0  0  0  0
  182.2830  177.3440  139.3140 C   0  0  0  0  0  3  0  0  0  0  0  0
  186.0650  178.4920  140.6150 C   0  0  0  0  0  3  0  0  0  0  0  0
  184.5840  177.8980  138.8090 N   0  0  0  0  0  0  0  0  0  0  0  0
  184.3090  179.3460  143.7250 C   0  0  0  0  0  3  0  0  0  0  0  0
  186.3600  178.0350  143.7280 C   0  0  0  0  0  0  0  0  0  0  0  0
  184.4750  179.6240  145.0780 C   0  0  0  0  0  3  0  0  0  0  0  0
  185.2320  178.5470  143.0350 C   0  0  0  0  0  0  0  0  0  0  0  0
  187.6680  177.2390  142.8410 Cl  0  0  0  0  0  0  0  0  0  0  0  0
  186.5040  178.2930  145.1130 C   0  0  0  0  0  0  0  0  0  0  0  0
  185.5640  179.0990  145.7660 C   0  0  0  0  0  3  0  0  0  0  0  0
  187.4610  177.0370  146.9900 N   0  0  0  0  0  0  0  0  0  0  0  0
  192.0830  176.4410  147.0650 N   0  0  0  0  0  1  0  0  0  0  0  0
  187.6220  177.7570  145.9130 C   0  0  0  0  0  0  0  0  0  0  0  0
  191.2260  177.7360  145.1580 C   0  0  0  0  0  3  0  0  0  0  0  0
  188.7590  176.6040  147.4550 C   0  0  0  0  0  3  0  0  0  0  0  0
  191.0550  177.0730  146.3110 C   0  0  0  0  0  0  0  0  0  0  0  0
  189.8940  178.2130  144.6770 C   0  0  0  0  0  3  0  0  0  0  0  0
  189.0360  177.8130  145.6050 C   0  0  0  0  0  0  0  0  0  0  0  0
  189.6530  177.0920  146.6170 C   0  0  0  0  0  0  0  0  0  0  0  0
  181.1120  177.1250  140.2240 C   0  0  2  0  0  3  0  0  0  0  0  0
  180.1660  176.3040  139.6050 O   0  0  0  0  0  1  0  0  0  0  0  0
  179.5080  180.4360  139.8080 C   0  0  0  0  0  3  0  0  0  0  0  0
  180.5070  178.3990  140.5890 N   0  0  0  0  0  0  0  0  0  0  0  0
  180.2150  178.6940  141.9990 C   0  0  0  0  0  2  0  0  0  0  0  0
  179.3990  180.9000  141.1970 C   0  0  0  0  0  0  0  0  0  0  0  0
  178.9360  182.1510  141.4390 F   0  0  0  0  0  0  0  0  0  0  0  0
  179.7620  180.1150  142.2170 C   0  0  0  0  0  0  0  0  0  0  0  0
  179.6530  180.5730  143.4880 F   0  0  0  0  0  0  0  0  0  0  0  0
  180.0390  179.2470  139.5330 C   0  0  0  0  0  3  0  0  0  0  0  0
  184.7050  176.4400  136.9890 O   0  0  0  0  0  1  0  0  0  0  0  0
  184.3770  177.7410  137.3720 C   0  0  0  0  0  2  0  0  0  0  0  0
  186.9550  178.5160  138.3790 N   0  0  0  0  0  2  0  0  0  0  0  0
  187.9070  177.4770  138.0110 C   0  0  0  0  0  2  0  0  0  0  0  0
  189.3010  177.9090  138.4090 C   0  0  0  0  0  2  0  0  0  0  0  0
  189.9330  176.8360  139.2760 C   0  0  0  0  0  2  0  0  0  0  0  0
  191.0880  177.1490  141.4640 C   0  0  0  0  0  1  0  0  0  0  0  0
  191.1730  177.3740  139.9660 C   0  0  0  0  0  2  0  0  0  0  0  0
  1 11  1  0  0  0  0
  2  1  2  0  0  0  0
  3  2  1  0  0  0  0
  4  6  2  0  0  0  0
  5  3  2  0  0  0  0
  5 24  1  0  0  0  0
  6  1  1  0  0  0  0
  7  4  1  0  0  0  0
  7  3  1  0  0  0  0
  8 10  1  0  0  0  0
  9 13  2  0  0  0  0
 10 14  2  0  0  0  0
 11  8  2  0  0  0  0
 11  9  1  0  0  0  0
 12  9  1  0  0  0  0
 13 14  1  0  0  0  0
 13 17  1  0  0  0  0
 15 19  1  0  0  0  0
 17 15  2  0  0  0  0
 18 20  2  0  0  0  0
 20 23  1  0  0  0  0
 20 16  1  0  0  0  0
 21 18  1  0  0  0  0
 21 22  2  0  0  0  0
 22 17  1  0  0  0  0
 22 23  1  0  0  0  0
 23 19  2  0  0  0  0
 24 25  1  6  0  0  0
 24 27  1  0  0  0  0
 26 29  1  0  0  0  0
 27 28  1  0  0  0  0
 28 31  1  0  0  0  0
 29 30  1  0  0  0  0
 29 31  2  0  0  0  0
 31 32  1  0  0  0  0
 33 26  2  0  0  0  0
 33 27  1  0  0  0  0
 34 35  1  0  0  0  0
 35  7  1  0  0  0  0
 36  4  1  0  0  0  0
 37 36  1  0  0  0  0
 37 38  1  0  0  0  0
 38 39  1  0  0  0  0
 39 41  1  0  0  0  0
 41 40  1  0  0  0  0
M  END
>  <MODEL>
1

>  <REMARK>
 VINA RESULT:      -8.9      0.000      0.000
  Name = 
  10 active torsions:
  status: ('A' for Active; 'I' for Inactive)
    1  A    between atoms: C_2  and  C_18
    2  A    between atoms: C_6  and  N_11
    3  A    between atoms: C_6  and  C_29
    4  A    between atoms: C_8  and  C_25
    5  A    between atoms: C_8  and  N_40
    6  A    between atoms: C_9  and  C_22
    7  A    between atoms: C_20  and  C_35
    8  A    between atoms: C_25  and  C_35
    9  A    between atoms: C_26  and  N_40
   10  A    between atoms: C_28  and  N_31
                            x       y       z     vdW  Elec       q    Type
                         _______ _______ _______ _____ _____    ______ ____

>  <TORSDO>
F 10

$$$$
=
 OpenBabel11032419563D

 41 45  0  0  1  0  0  0  0  0999 V2000
  184.0120  178.5500  141.4640 C   0  0  0  0  0  0  0  0  0  0  0  0
  184.8260  178.4010  140.4130 C   0  0  0  0  0  3  0  0  0  0  0  0
  184.2900  178.4050  139.0400 C   0  0  0  0  0  0  0  0  0  0  0  0
  182.0150  178.6770  140.0200 C   0  0  0  0  0  0  0  0  0  0  0  0
  185.1040  178.2740  137.9860 C   0  0  0  0  0  3  0  0  0  0  0  0
  182.5530  178.6760  141.2480 C   0  0  0  0  0  3  0  0  0  0  0  0
  182.8660  178.5530  138.8620 N   0  0  0  0  0  0  0  0  0  0  0  0
  183.6820  178.8730  143.8890 C   0  0  0  0  0  3  0  0  0  0  0  0
  185.8810  178.1360  143.1500 C   0  0  0  0  0  0  0  0  0  0  0  0
  184.1090  178.8500  145.2130 C   0  0  0  0  0  3  0  0  0  0  0  0
  184.5460  178.5110  142.8460 C   0  0  0  0  0  0  0  0  0  0  0  0
  187.0650  177.9160  141.8540 Cl  0  0  0  0  0  0  0  0  0  0  0  0
  186.2990  178.0800  144.5020 C   0  0  0  0  0  0  0  0  0  0  0  0
  185.4080  178.4530  145.5160 C   0  0  0  0  0  3  0  0  0  0  0  0
  188.5920  177.3340  144.0540 N   0  0  0  0  0  0  0  0  0  0  0  0
  191.4950  176.9580  147.6810 N   0  0  0  0  0  1  0  0  0  0  0  0
  187.6540  177.6530  144.9030 C   0  0  0  0  0  0  0  0  0  0  0  0
  189.2140  177.6850  148.2380 C   0  0  0  0  0  3  0  0  0  0  0  0
  189.8080  177.0650  144.7880 C   0  0  0  0  0  3  0  0  0  0  0  0
  190.1440  177.2730  147.3660 C   0  0  0  0  0  0  0  0  0  0  0  0
  187.9410  177.9420  147.4980 C   0  0  0  0  0  3  0  0  0  0  0  0
  188.2150  177.6330  146.2380 C   0  0  0  0  0  0  0  0  0  0  0  0
  189.5350  177.2440  146.0670 C   0  0  0  0  0  0  0  0  0  0  0  0
  186.5910  178.1250  138.0960 C   0  0  2  0  0  3  0  0  0  0  0  0
  187.2330  179.1450  137.3890 O   0  0  0  0  0  1  0  0  0  0  0  0
  186.3380  174.7820  136.5250 C   0  0  0  0  0  3  0  0  0  0  0  0
  187.0100  176.8250  137.5890 N   0  0  0  0  0  0  0  0  0  0  0  0
  188.4390  176.4830  137.5400 C   0  0  0  0  0  2  0  0  0  0  0  0
  187.7120  174.2770  136.6550 C   0  0  0  0  0  0  0  0  0  0  0  0
  187.9860  173.0070  136.2690 F   0  0  0  0  0  0  0  0  0  0  0  0
  188.6830  175.0450  137.1620 C   0  0  0  0  0  0  0  0  0  0  0  0
  189.9390  174.5490  137.2730 F   0  0  0  0  0  0  0  0  0  0  0  0
  186.0190  175.9930  136.9750 C   0  0  0  0  0  3  0  0  0  0  0  0
  181.9280  177.1980  137.2080 O   0  0  0  0  0  1  0  0  0  0  0  0
  182.2660  178.5120  137.5310 C   0  0  0  0  0  2  0  0  0  0  0  0
  180.5970  178.8030  139.8520 N   0  0  0  0  0  2  0  0  0  0  0  0
  179.8140  179.8860  140.4290 C   0  0  0  0  0  2  0  0  0  0  0  0
  178.9970  179.3550  141.5850 C   0  0  0  0  0  2  0  0  0  0  0  0
  179.1700  180.2670  142.7860 C   0  0  0  0  0  2  0  0  0  0  0  0
  180.0300  178.2330  143.9440 C   0  0  0  0  0  1  0  0  0  0  0  0
  179.1480  179.4610  144.0720 C   0  0  0  0  0  2  0  0  0  0  0  0
  1 11  1  0  0  0  0
  2  1  2  0  0  0  0
  3  2  1  0  0  0  0
  4  6  2  0  0  0  0
  5 24  1  0  0  0  0
  5  3  2  0  0  0  0
  6  1  1  0  0  0  0
  7  3  1  0  0  0  0
  7  4  1  0  0  0  0
  8 10  1  0  0  0  0
  9 13  2  0  0  0  0
 10 14  2  0  0  0  0
 11  9  1  0  0  0  0
 11  8  2  0  0  0  0
 12  9  1  0  0  0  0
 13 17  1  0  0  0  0
 13 14  1  0  0  0  0
 15 19  2  0  0  0  0
 15 17  1  0  0  0  0
 17 22  2  0  0  0  0
 19 23  1  0  0  0  0
 20 16  1  0  0  0  0
 20 18  1  0  0  0  0
 21 18  2  0  0  0  0
 22 21  1  0  0  0  0
 23 22  1  0  0  0  0
 23 20  2  0  0  0  0
 24 25  1  6  0  0  0
 26 29  1  0  0  0  0
 26 33  2  0  0  0  0
 27 24  1  0  0  0  0
 28 27  1  0  0  0  0
 29 31  2  0  0  0  0
 30 29  1  0  0  0  0
 31 32  1  0  0  0  0
 31 28  1  0  0  0  0
 33 27  1  0  0  0  0
 34 35  1  0  0  0  0
 35  7  1  0  0  0  0
 36  4  1  0  0  0  0
 36 37  1  0  0  0  0
 37 38  1  0  0  0  0
 38 39  1  0  0  0  0
 39 41  1  0  0  0  0
 40 41  1  0  0  0  0
M  END
>  <MODEL>
2

>  <REMARK>
 VINA RESULT:      -8.9      3.421      6.649
  Name = 
  10 active torsions:
  status: ('A' for Active; 'I' for Inactive)
    1  A    between atoms: C_2  and  C_18
    2  A    between atoms: C_6  and  N_11
    3  A    between atoms: C_6  and  C_29
    4  A    between atoms: C_8  and  C_25
    5  A    between atoms: C_8  and  N_40
    6  A    between atoms: C_9  and  C_22
    7  A    between atoms: C_20  and  C_35
    8  A    between atoms: C_25  and  C_35
    9  A    between atoms: C_26  and  N_40
   10  A    between atoms: C_28  and  N_31
                            x       y       z     vdW  Elec       q    Type
                         _______ _______ _______ _____ _____    ______ ____

>  <TORSDO>
F 10

$$$$
=
 OpenBabel11032419563D

 41 45  0  0  1  0  0  0  0  0999 V2000
  185.0170  178.3850  141.3890 C   0  0  0  0  0  0  0  0  0  0  0  0
  186.0610  178.3620  140.5530 C   0  0  0  0  0  3  0  0  0  0  0  0
  185.8650  178.1270  139.1120 C   0  0  0  0  0  0  0  0  0  0  0  0
  183.4260  177.9010  139.5660 C   0  0  0  0  0  0  0  0  0  0  0  0
  186.9060  178.1210  138.2710 C   0  0  0  0  0  3  0  0  0  0  0  0
  183.6560  178.1280  140.8680 C   0  0  0  0  0  3  0  0  0  0  0  0
  184.5240  177.9020  138.6310 N   0  0  0  0  0  0  0  0  0  0  0  0
  184.2320  179.2960  143.5440 C   0  0  0  0  0  3  0  0  0  0  0  0
  186.3550  178.1070  143.5430 C   0  0  0  0  0  0  0  0  0  0  0  0
  184.3450  179.5150  144.9140 C   0  0  0  0  0  3  0  0  0  0  0  0
  185.2170  178.5870  142.8430 C   0  0  0  0  0  0  0  0  0  0  0  0
  187.7300  177.4330  142.6580 Cl  0  0  0  0  0  0  0  0  0  0  0  0
  186.4470  178.3020  144.9430 C   0  0  0  0  0  0  0  0  0  0  0  0
  185.4440  179.0190  145.6070 C   0  0  0  0  0  3  0  0  0  0  0  0
  187.4230  177.1150  146.8550 N   0  0  0  0  0  0  0  0  0  0  0  0
  192.0420  176.4950  146.8910 N   0  0  0  0  0  1  0  0  0  0  0  0
  187.5730  177.7920  145.7490 C   0  0  0  0  0  0  0  0  0  0  0  0
  191.1660  177.7190  144.9470 C   0  0  0  0  0  3  0  0  0  0  0  0
  188.7240  176.6940  147.3200 C   0  0  0  0  0  3  0  0  0  0  0  0
  191.0080  177.1040  146.1260 C   0  0  0  0  0  0  0  0  0  0  0  0
  189.8310  178.1850  144.4650 C   0  0  0  0  0  3  0  0  0  0  0  0
  188.9830  177.8270  145.4200 C   0  0  0  0  0  0  0  0  0  0  0  0
  189.6100  177.1430  146.4500 C   0  0  0  0  0  0  0  0  0  0  0  0
  188.3230  178.3550  138.6970 C   0  0  2  0  0  3  0  0  0  0  0  0
  188.8290  179.5050  138.0860 O   0  0  0  0  0  1  0  0  0  0  0  0
  191.2860  176.1360  138.6100 C   0  0  0  0  0  3  0  0  0  0  0  0
  189.1520  177.2050  138.3610 N   0  0  0  0  0  0  0  0  0  0  0  0
  188.5650  176.0630  137.6460 C   0  0  0  0  0  2  0  0  0  0  0  0
  190.8410  175.0670  137.7050 C   0  0  0  0  0  0  0  0  0  0  0  0
  191.7210  174.0990  137.3470 F   0  0  0  0  0  0  0  0  0  0  0  0
  189.5940  175.0480  137.2210 C   0  0  0  0  0  0  0  0  0  0  0  0
  189.2160  174.0500  136.3850 F   0  0  0  0  0  0  0  0  0  0  0  0
  190.4740  177.1460  138.9100 C   0  0  0  0  0  3  0  0  0  0  0  0
  184.3160  176.2320  137.0120 O   0  0  0  0  0  1  0  0  0  0  0  0
  184.2680  177.6110  137.2230 C   0  0  0  0  0  2  0  0  0  0  0  0
  182.0930  177.6570  139.1000 N   0  0  0  0  0  2  0  0  0  0  0  0
  181.1020  176.9070  139.8590 C   0  0  0  0  0  2  0  0  0  0  0  0
  179.9860  177.8360  140.2840 C   0  0  0  0  0  2  0  0  0  0  0  0
  179.7590  177.7010  141.7780 C   0  0  0  0  0  2  0  0  0  0  0  0
  180.3870  178.5740  144.0280 C   0  0  0  0  0  1  0  0  0  0  0  0
  180.5400  178.7640  142.5310 C   0  0  0  0  0  2  0  0  0  0  0  0
  1 11  1  0  0  0  0
  2  1  2  0  0  0  0
  3  2  1  0  0  0  0
  4  6  2  0  0  0  0
  5 24  1  0  0  0  0
  5  3  2  0  0  0  0
  6  1  1  0  0  0  0
  7  3  1  0  0  0  0
  7  4  1  0  0  0  0
  8 10  1  0  0  0  0
  9 13  2  0  0  0  0
 10 14  2  0  0  0  0
 11  9  1  0  0  0  0
 11  8  2  0  0  0  0
 12  9  1  0  0  0  0
 13 14  1  0  0  0  0
 13 17  1  0  0  0  0
 15 19  1  0  0  0  0
 17 15  2  0  0  0  0
 18 20  2  0  0  0  0
 20 23  1  0  0  0  0
 20 16  1  0  0  0  0
 21 18  1  0  0  0  0
 21 22  2  0  0  0  0
 22 17  1  0  0  0  0
 22 23  1  0  0  0  0
 23 19  2  0  0  0  0
 24 25  1  6  0  0  0
 26 33  2  0  0  0  0
 27 24  1  0  0  0  0
 27 33  1  0  0  0  0
 28 27  1  0  0  0  0
 29 26  1  0  0  0  0
 30 29  1  0  0  0  0
 31 28  1  0  0  0  0
 31 29  2  0  0  0  0
 32 31  1  0  0  0  0
 34 35  1  0  0  0  0
 35  7  1  0  0  0  0
 36  4  1  0  0  0  0
 36 37  1  0  0  0  0
 37 38  1  0  0  0  0
 38 39  1  0  0  0  0
 39 41  1  0  0  0  0
 41 40  1  0  0  0  0
M  END
>  <MODEL>
3

>  <REMARK>
 VINA RESULT:      -8.8      3.424      6.835
  Name = 
  10 active torsions:
  status: ('A' for Active; 'I' for Inactive)
    1  A    between atoms: C_2  and  C_18
    2  A    between atoms: C_6  and  N_11
    3  A    between atoms: C_6  and  C_29
    4  A    between atoms: C_8  and  C_25
    5  A    between atoms: C_8  and  N_40
    6  A    between atoms: C_9  and  C_22
    7  A    between atoms: C_20  and  C_35
    8  A    between atoms: C_25  and  C_35
    9  A    between atoms: C_26  and  N_40
   10  A    between atoms: C_28  and  N_31
                            x       y       z     vdW  Elec       q    Type
                         _______ _______ _______ _____ _____    ______ ____

>  <TORSDO>
F 10

$$$$
=
 OpenBabel11032419563D

 41 45  0  0  1  0  0  0  0  0999 V2000
  183.7530  178.6980  141.7510 C   0  0  0  0  0  0  0  0  0  0  0  0
  184.4660  178.4740  140.6410 C   0  0  0  0  0  3  0  0  0  0  0  0
  183.8380  178.5670  139.3120 C   0  0  0  0  0  0  0  0  0  0  0  0
  181.6870  179.0870  140.4580 C   0  0  0  0  0  0  0  0  0  0  0  0
  184.5530  178.3610  138.2000 C   0  0  0  0  0  3  0  0  0  0  0  0
  182.3070  178.9990  141.6440 C   0  0  0  0  0  3  0  0  0  0  0  0
  182.4320  178.8840  139.2400 N   0  0  0  0  0  0  0  0  0  0  0  0
  183.5840  178.8640  144.2080 C   0  0  0  0  0  3  0  0  0  0  0  0
  185.7280  178.1780  143.2800 C   0  0  0  0  0  0  0  0  0  0  0  0
  184.0970  178.7550  145.4960 C   0  0  0  0  0  3  0  0  0  0  0  0
  184.3770  178.5710  143.0890 C   0  0  0  0  0  0  0  0  0  0  0  0
  186.8240  178.0450  141.8980 Cl  0  0  0  0  0  0  0  0  0  0  0  0
  186.2330  178.0360  144.5960 C   0  0  0  0  0  0  0  0  0  0  0  0
  185.4120  178.3420  145.6880 C   0  0  0  0  0  3  0  0  0  0  0  0
  188.4620  177.2410  143.9520 N   0  0  0  0  0  0  0  0  0  0  0  0
  191.6710  176.8410  147.3100 N   0  0  0  0  0  1  0  0  0  0  0  0
  187.6100  177.5870  144.8790 C   0  0  0  0  0  0  0  0  0  0  0  0
  189.4630  177.6180  148.0610 C   0  0  0  0  0  3  0  0  0  0  0  0
  189.7330  176.9550  144.5770 C   0  0  0  0  0  3  0  0  0  0  0  0
  190.3030  177.1800  147.1130 C   0  0  0  0  0  0  0  0  0  0  0  0
  188.1340  177.8930  147.4340 C   0  0  0  0  0  3  0  0  0  0  0  0
  188.2890  177.5680  146.1580 C   0  0  0  0  0  0  0  0  0  0  0  0
  189.5800  177.1510  145.8740 C   0  0  0  0  0  0  0  0  0  0  0  0
  186.0160  178.0360  138.1980 C   0  0  2  0  0  3  0  0  0  0  0  0
  186.7400  179.0690  137.5970 O   0  0  0  0  0  1  0  0  0  0  0  0
  187.8840  175.1630  136.7980 C   0  0  0  0  0  3  0  0  0  0  0  0
  186.2570  176.7820  137.4970 N   0  0  0  0  0  0  0  0  0  0  0  0
  185.1230  175.9720  137.0320 C   0  0  0  0  0  2  0  0  0  0  0  0
  186.8250  174.4170  136.1050 C   0  0  0  0  0  0  0  0  0  0  0  0
  187.1590  173.3260  135.3730 F   0  0  0  0  0  0  0  0  0  0  0  0
  185.5480  174.8090  136.1740 C   0  0  0  0  0  0  0  0  0  0  0  0
  184.5940  174.1020  135.5200 F   0  0  0  0  0  0  0  0  0  0  0  0
  187.6000  176.2860  137.4530 C   0  0  0  0  0  3  0  0  0  0  0  0
  181.5650  180.2700  137.5720 O   0  0  0  0  0  1  0  0  0  0  0  0
  181.7380  178.9400  137.9560 C   0  0  0  0  0  2  0  0  0  0  0  0
  180.2860  179.3810  140.3960 N   0  0  0  0  0  2  0  0  0  0  0  0
  179.2560  178.4960  140.9230 C   0  0  0  0  0  2  0  0  0  0  0  0
  179.1540  177.2670  140.0480 C   0  0  0  0  0  2  0  0  0  0  0  0
  179.5610  176.0430  140.8470 C   0  0  0  0  0  2  0  0  0  0  0  0
  181.5860  175.4930  139.5010 C   0  0  0  0  0  1  0  0  0  0  0  0
  180.2180  175.0140  139.9450 C   0  0  0  0  0  2  0  0  0  0  0  0
  1 11  1  0  0  0  0
  2  1  2  0  0  0  0
  3  2  1  0  0  0  0
  4  6  2  0  0  0  0
  5  3  2  0  0  0  0
  6  1  1  0  0  0  0
  7  3  1  0  0  0  0
  7  4  1  0  0  0  0
  8 10  1  0  0  0  0
  9 13  2  0  0  0  0
 10 14  2  0  0  0  0
 11  9  1  0  0  0  0
 11  8  2  0  0  0  0
 12  9  1  0  0  0  0
 13 17  1  0  0  0  0
 13 14  1  0  0  0  0
 15 19  2  0  0  0  0
 15 17  1  0  0  0  0
 17 22  2  0  0  0  0
 19 23  1  0  0  0  0
 20 16  1  0  0  0  0
 20 18  1  0  0  0  0
 21 18  2  0  0  0  0
 22 21  1  0  0  0  0
 23 22  1  0  0  0  0
 23 20  2  0  0  0  0
 24 25  1  6  0  0  0
 24  5  1  0  0  0  0
 26 33  2  0  0  0  0
 27 24  1  0  0  0  0
 28 27  1  0  0  0  0
 29 31  2  0  0  0  0
 29 26  1  0  0  0  0
 30 29  1  0  0  0  0
 31 28  1  0  0  0  0
 32 31  1  0  0  0  0
 33 27  1  0  0  0  0
 34 35  1  0  0  0  0
 35  7  1  0  0  0  0
 36  4  1  0  0  0  0
 36 37  1  0  0  0  0
 38 39  1  0  0  0  0
 38 37  1  0  0  0  0
 40 41  1  0  0  0  0
 41 39  1  0  0  0  0
M  END
>  <MODEL>
4

>  <REMARK>
 VINA RESULT:      -8.7      3.307      6.261
  Name = 
  10 active torsions:
  status: ('A' for Active; 'I' for Inactive)
    1  A    between atoms: C_2  and  C_18
    2  A    between atoms: C_6  and  N_11
    3  A    between atoms: C_6  and  C_29
    4  A    between atoms: C_8  and  C_25
    5  A    between atoms: C_8  and  N_40
    6  A    between atoms: C_9  and  C_22
    7  A    between atoms: C_20  and  C_35
    8  A    between atoms: C_25  and  C_35
    9  A    between atoms: C_26  and  N_40
   10  A    between atoms: C_28  and  N_31
                            x       y       z     vdW  Elec       q    Type
                         _______ _______ _______ _____ _____    ______ ____

>  <TORSDO>
F 10

$$$$
=
 OpenBabel11032419563D

 41 45  0  0  1  0  0  0  0  0999 V2000
  185.4470  178.4210  142.0200 C   0  0  0  0  0  0  0  0  0  0  0  0
  184.5510  178.4090  141.0260 C   0  0  0  0  0  3  0  0  0  0  0  0
  183.1210  178.6340  141.2990 C   0  0  0  0  0  0  0  0  0  0  0  0
  183.6990  178.8180  143.7160 C   0  0  0  0  0  0  0  0  0  0  0  0
  182.2260  178.6410  140.3040 C   0  0  0  0  0  3  0  0  0  0  0  0
  184.9900  178.6170  143.4140 C   0  0  0  0  0  3  0  0  0  0  0  0
  182.7100  178.8450  142.6660 N   0  0  0  0  0  0  0  0  0  0  0  0
  187.4100  178.6280  140.5390 C   0  0  0  0  0  3  0  0  0  0  0  0
  187.7230  177.4570  142.6500 C   0  0  0  0  0  0  0  0  0  0  0  0
  188.7500  178.4310  140.2210 C   0  0  0  0  0  3  0  0  0  0  0  0
  186.8800  178.1600  141.7500 C   0  0  0  0  0  0  0  0  0  0  0  0
  187.0390  176.6380  144.0610 Cl  0  0  0  0  0  0  0  0  0  0  0  0
  189.0940  177.2910  142.3360 C   0  0  0  0  0  0  0  0  0  0  0  0
  189.5860  177.7690  141.1150 C   0  0  0  0  0  3  0  0  0  0  0  0
  190.8790  175.6900  142.8520 N   0  0  0  0  0  0  0  0  0  0  0  0
  192.6910  175.7750  147.1450 N   0  0  0  0  0  1  0  0  0  0  0  0
  190.0450  176.6150  143.2410 C   0  0  0  0  0  0  0  0  0  0  0  0
  190.8910  177.4000  146.7370 C   0  0  0  0  0  3  0  0  0  0  0  0
  191.7190  175.3260  143.9700 C   0  0  0  0  0  3  0  0  0  0  0  0
  191.6820  176.3880  146.3520 C   0  0  0  0  0  0  0  0  0  0  0  0
  189.9960  177.7700  145.5990 C   0  0  0  0  0  3  0  0  0  0  0  0
  190.3140  176.9230  144.6300 C   0  0  0  0  0  0  0  0  0  0  0  0
  191.3440  176.0690  144.9940 C   0  0  0  0  0  0  0  0  0  0  0  0
  182.5810  178.4380  138.8630 C   0  0  2  0  0  3  0  0  0  0  0  0
  181.8870  179.3470  138.0600 O   0  0  0  0  0  1  0  0  0  0  0  0
  180.5610  175.4600  137.9900 C   0  0  0  0  0  3  0  0  0  0  0  0
  182.2760  177.0730  138.4520 N   0  0  0  0  0  0  0  0  0  0  0  0
  183.3540  176.1870  137.9940 C   0  0  0  0  0  2  0  0  0  0  0  0
  181.5970  174.4480  137.7420 C   0  0  0  0  0  0  0  0  0  0  0  0
  181.2220  173.1710  137.4870 F   0  0  0  0  0  0  0  0  0  0  0  0
  182.8950  174.7680  137.7820 C   0  0  0  0  0  0  0  0  0  0  0  0
  183.8270  173.8110  137.5530 F   0  0  0  0  0  0  0  0  0  0  0  0
  180.8970  176.7020  138.3290 C   0  0  0  0  0  3  0  0  0  0  0  0
  180.9510  180.3660  142.8770 O   0  0  0  0  0  1  0  0  0  0  0  0
  181.3020  179.0220  143.0090 C   0  0  0  0  0  2  0  0  0  0  0  0
  183.2960  179.0050  145.0790 N   0  0  0  0  0  2  0  0  0  0  0  0
  184.0890  178.5640  146.2170 C   0  0  0  0  0  2  0  0  0  0  0  0
  185.4880  179.1290  146.1050 C   0  0  0  0  0  2  0  0  0  0  0  0
  186.1660  179.0700  147.4600 C   0  0  0  0  0  2  0  0  0  0  0  0
  188.0470  178.0230  148.7190 C   0  0  0  0  0  1  0  0  0  0  0  0
  187.1220  177.8920  147.5250 C   0  0  0  0  0  2  0  0  0  0  0  0
  1  6  1  0  0  0  0
  2  3  1  0  0  0  0
  2  1  2  0  0  0  0
  3  7  1  0  0  0  0
  4 36  1  0  0  0  0
  5  3  2  0  0  0  0
  6  4  2  0  0  0  0
  7 35  1  0  0  0  0
  7  4  1  0  0  0  0
  8 11  1  0  0  0  0
  9 12  1  0  0  0  0
 10  8  2  0  0  0  0
 10 14  1  0  0  0  0
 11  1  1  0  0  0  0
 11  9  2  0  0  0  0
 13  9  1  0  0  0  0
 13 17  1  0  0  0  0
 14 13  2  0  0  0  0
 15 17  2  0  0  0  0
 15 19  1  0  0  0  0
 17 22  1  0  0  0  0
 19 23  2  0  0  0  0
 20 18  2  0  0  0  0
 20 16  1  0  0  0  0
 21 18  1  0  0  0  0
 22 23  1  0  0  0  0
 22 21  2  0  0  0  0
 23 20  1  0  0  0  0
 24 25  1  6  0  0  0
 24  5  1  0  0  0  0
 26 33  2  0  0  0  0
 27 24  1  0  0  0  0
 28 27  1  0  0  0  0
 29 31  2  0  0  0  0
 29 26  1  0  0  0  0
 30 29  1  0  0  0  0
 31 28  1  0  0  0  0
 32 31  1  0  0  0  0
 33 27  1  0  0  0  0
 34 35  1  0  0  0  0
 36 37  1  0  0  0  0
 38 37  1  0  0  0  0
 38 39  1  0  0  0  0
 39 41  1  0  0  0  0
 41 40  1  0  0  0  0
M  END
>  <MODEL>
5

>  <REMARK>
 VINA RESULT:      -8.6      3.094      5.487
  Name = 
  10 active torsions:
  status: ('A' for Active; 'I' for Inactive)
    1  A    between atoms: C_2  and  C_18
    2  A    between atoms: C_6  and  N_11
    3  A    between atoms: C_6  and  C_29
    4  A    between atoms: C_8  and  C_25
    5  A    between atoms: C_8  and  N_40
    6  A    between atoms: C_9  and  C_22
    7  A    between atoms: C_20  and  C_35
    8  A    between atoms: C_25  and  C_35
    9  A    between atoms: C_26  and  N_40
   10  A    between atoms: C_28  and  N_31
                            x       y       z     vdW  Elec       q    Type
                         _______ _______ _______ _____ _____    ______ ____

>  <TORSDO>
F 10

$$$$
=
 OpenBabel11032419563D

 41 45  0  0  1  0  0  0  0  0999 V2000
  183.9530  178.7200  141.4120 C   0  0  0  0  0  0  0  0  0  0  0  0
  184.8060  178.4670  140.4120 C   0  0  0  0  0  3  0  0  0  0  0  0
  184.3500  178.4860  139.0110 C   0  0  0  0  0  0  0  0  0  0  0  0
  182.0610  178.9990  139.8520 C   0  0  0  0  0  0  0  0  0  0  0  0
  185.2050  178.2510  138.0090 C   0  0  0  0  0  3  0  0  0  0  0  0
  182.5270  178.9780  141.1100 C   0  0  0  0  0  3  0  0  0  0  0  0
  182.9580  178.7630  138.7480 N   0  0  0  0  0  0  0  0  0  0  0  0
  183.4820  179.0240  143.8150 C   0  0  0  0  0  3  0  0  0  0  0  0
  185.7170  178.2810  143.2030 C   0  0  0  0  0  0  0  0  0  0  0  0
  183.8290  178.9870  145.1620 C   0  0  0  0  0  3  0  0  0  0  0  0
  184.4040  178.6660  142.8220 C   0  0  0  0  0  0  0  0  0  0  0  0
  186.9750  178.0670  141.9780 Cl  0  0  0  0  0  0  0  0  0  0  0  0
  186.0530  178.2120  144.5770 C   0  0  0  0  0  0  0  0  0  0  0  0
  185.1050  178.5810  145.5390 C   0  0  0  0  0  3  0  0  0  0  0  0
  188.3380  177.3770  144.2620 N   0  0  0  0  0  0  0  0  0  0  0  0
  191.0980  177.1540  148.0110 N   0  0  0  0  0  1  0  0  0  0  0  0
  187.3800  177.7750  145.0540 C   0  0  0  0  0  0  0  0  0  0  0  0
  188.8210  177.9780  148.4360 C   0  0  0  0  0  3  0  0  0  0  0  0
  189.5180  177.1220  145.0560 C   0  0  0  0  0  3  0  0  0  0  0  0
  189.7680  177.4850  147.6270 C   0  0  0  0  0  0  0  0  0  0  0  0
  187.5840  178.2210  147.6340 C   0  0  0  0  0  3  0  0  0  0  0  0
  187.8930  177.8250  146.4070 C   0  0  0  0  0  0  0  0  0  0  0  0
  189.2060  177.3900  146.3100 C   0  0  0  0  0  0  0  0  0  0  0  0
  186.6620  177.9640  138.2070 C   0  0  2  0  0  3  0  0  0  0  0  0
  187.4360  178.9950  137.6670 O   0  0  0  0  0  1  0  0  0  0  0  0
  186.2690  174.8230  136.2870 C   0  0  0  0  0  3  0  0  0  0  0  0
  187.0190  176.6940  137.5880 N   0  0  0  0  0  0  0  0  0  0  0  0
  188.4210  176.2550  137.5720 C   0  0  0  0  0  2  0  0  0  0  0  0
  187.5950  174.2080  136.4300 C   0  0  0  0  0  0  0  0  0  0  0  0
  187.8030  172.9670  135.9270 F   0  0  0  0  0  0  0  0  0  0  0  0
  188.5870  174.8480  137.0600 C   0  0  0  0  0  0  0  0  0  0  0  0
  189.7990  174.2520  137.1790 F   0  0  0  0  0  0  0  0  0  0  0  0
  186.0080  176.0030  136.8450 C   0  0  0  0  0  3  0  0  0  0  0  0
  181.9970  177.4590  137.0680 O   0  0  0  0  0  1  0  0  0  0  0  0
  182.4330  178.7450  137.3860 C   0  0  0  0  0  2  0  0  0  0  0  0
  180.6730  179.2540  139.6010 N   0  0  0  0  0  2  0  0  0  0  0  0
  180.0010  180.4850  139.9880 C   0  0  0  0  0  2  0  0  0  0  0  0
  179.7180  181.3140  138.7550 C   0  0  0  0  0  2  0  0  0  0  0  0
  180.9860  182.0240  138.3220 C   0  0  0  0  0  2  0  0  0  0  0  0
  181.5550  184.1800  137.2060 C   0  0  0  0  0  1  0  0  0  0  0  0
  180.7110  182.9230  137.1300 C   0  0  0  0  0  2  0  0  0  0  0  0
  1 11  1  0  0  0  0
  2  1  2  0  0  0  0
  3  2  1  0  0  0  0
  4  6  2  0  0  0  0
  5 24  1  0  0  0  0
  5  3  2  0  0  0  0
  6  1  1  0  0  0  0
  7  3  1  0  0  0  0
  7  4  1  0  0  0  0
  8 10  1  0  0  0  0
  9 13  2  0  0  0  0
 10 14  2  0  0  0  0
 11  9  1  0  0  0  0
 11  8  2  0  0  0  0
 12  9  1  0  0  0  0
 13 17  1  0  0  0  0
 13 14  1  0  0  0  0
 15 17  2  0  0  0  0
 15 19  1  0  0  0  0
 17 22  1  0  0  0  0
 19 23  2  0  0  0  0
 20 16  1  0  0  0  0
 20 18  2  0  0  0  0
 21 18  1  0  0  0  0
 22 21  2  0  0  0  0
 23 22  1  0  0  0  0
 23 20  1  0  0  0  0
 24 25  1  6  0  0  0
 26 29  1  0  0  0  0
 26 33  2  0  0  0  0
 27 24  1  0  0  0  0
 28 27  1  0  0  0  0
 29 31  2  0  0  0  0
 30 29  1  0  0  0  0
 31 32  1  0  0  0  0
 31 28  1  0  0  0  0
 33 27  1  0  0  0  0
 34 35  1  0  0  0  0
 35  7  1  0  0  0  0
 36  4  1  0  0  0  0
 36 37  1  0  0  0  0
 38 37  1  0  0  0  0
 39 38  1  0  0  0  0
 41 40  1  0  0  0  0
 41 39  1  0  0  0  0
M  END
>  <MODEL>
6

>  <REMARK>
 VINA RESULT:      -8.4      3.598      6.606
  Name = 
  10 active torsions:
  status: ('A' for Active; 'I' for Inactive)
    1  A    between atoms: C_2  and  C_18
    2  A    between atoms: C_6  and  N_11
    3  A    between atoms: C_6  and  C_29
    4  A    between atoms: C_8  and  C_25
    5  A    between atoms: C_8  and  N_40
    6  A    between atoms: C_9  and  C_22
    7  A    between atoms: C_20  and  C_35
    8  A    between atoms: C_25  and  C_35
    9  A    between atoms: C_26  and  N_40
   10  A    between atoms: C_28  and  N_31
                            x       y       z     vdW  Elec       q    Type
                         _______ _______ _______ _____ _____    ______ ____

>  <TORSDO>
F 10

$$$$
=
 OpenBabel11032419563D

 41 45  0  0  1  0  0  0  0  0999 V2000
  187.0370  178.1370  141.4820 C   0  0  0  0  0  0  0  0  0  0  0  0
  188.1640  177.7030  140.9050 C   0  0  0  0  0  3  0  0  0  0  0  0
  188.3230  177.7440  139.4410 C   0  0  0  0  0  0  0  0  0  0  0  0
  186.0150  178.6720  139.3010 C   0  0  0  0  0  0  0  0  0  0  0  0
  189.4560  177.3270  138.8630 C   0  0  0  0  0  3  0  0  0  0  0  0
  185.9220  178.6230  140.6380 C   0  0  0  0  0  3  0  0  0  0  0  0
  187.2270  178.2440  138.6470 N   0  0  0  0  0  0  0  0  0  0  0  0
  185.5550  178.0810  143.4550 C   0  0  0  0  0  3  0  0  0  0  0  0
  187.9530  177.9870  143.8590 C   0  0  0  0  0  0  0  0  0  0  0  0
  185.3120  178.0030  144.8220 C   0  0  0  0  0  3  0  0  0  0  0  0
  186.8630  178.0640  142.9520 C   0  0  0  0  0  0  0  0  0  0  0  0
  189.6110  178.2150  143.2840 Cl  0  0  0  0  0  0  0  0  0  0  0  0
  187.6980  177.8730  145.2470 C   0  0  0  0  0  0  0  0  0  0  0  0
  186.3780  177.8980  145.7110 C   0  0  0  0  0  3  0  0  0  0  0  0
  188.6760  178.1730  147.4760 N   0  0  0  0  0  0  0  0  0  0  0  0
  192.8120  176.1910  148.3110 N   0  0  0  0  0  1  0  0  0  0  0  0
  188.7740  177.7410  146.2490 C   0  0  0  0  0  0  0  0  0  0  0  0
  191.9300  175.8550  146.0410 C   0  0  0  0  0  3  0  0  0  0  0  0
  189.8680  177.7890  148.1980 C   0  0  0  0  0  3  0  0  0  0  0  0
  191.8580  176.3790  147.2720 C   0  0  0  0  0  0  0  0  0  0  0  0
  190.7160  176.2660  145.2730 C   0  0  0  0  0  3  0  0  0  0  0  0
  190.0280  177.0290  146.1100 C   0  0  0  0  0  0  0  0  0  0  0  0
  190.6370  177.1280  147.3520 C   0  0  0  0  0  0  0  0  0  0  0  0
  190.6360  176.8050  139.6240 C   0  0  2  0  0  3  0  0  0  0  0  0
  191.3890  177.8640  140.1360 O   0  0  0  0  0  1  0  0  0  0  0  0
  191.5270  174.1670  137.1840 C   0  0  0  0  0  3  0  0  0  0  0  0
  191.4660  175.9710  138.7650 N   0  0  0  0  0  0  0  0  0  0  0  0
  192.8910  176.2850  138.5930 C   0  0  0  0  0  2  0  0  0  0  0  0
  192.9910  174.2710  137.1400 C   0  0  0  0  0  0  0  0  0  0  0  0
  193.6940  173.3730  136.4070 F   0  0  0  0  0  0  0  0  0  0  0  0
  193.6350  175.2240  137.8230 C   0  0  0  0  0  0  0  0  0  0  0  0
  194.9870  175.2920  137.7660 F   0  0  0  0  0  0  0  0  0  0  0  0
  190.8150  174.9780  137.9610 C   0  0  0  0  0  3  0  0  0  0  0  0
  187.6820  179.5320  136.7530 O   0  0  0  0  0  1  0  0  0  0  0  0
  187.3020  178.2620  137.1890 C   0  0  0  0  0  2  0  0  0  0  0  0
  184.9130  179.1500  138.5180 N   0  0  0  0  0  2  0  0  0  0  0  0
  183.5930  178.5370  138.5330 C   0  0  0  0  0  2  0  0  0  0  0  0
  182.6590  179.3770  139.3760 C   0  0  0  0  0  2  0  0  0  0  0  0
  181.3050  178.6970  139.4580 C   0  0  0  0  0  2  0  0  0  0  0  0
  182.0440  178.6340  141.8380 C   0  0  0  0  0  1  0  0  0  0  0  0
  180.8510  178.5910  140.9030 C   0  0  0  0  0  2  0  0  0  0  0  0
  1 11  1  0  0  0  0
  2  1  2  0  0  0  0
  3  2  1  0  0  0  0
  4  6  2  0  0  0  0
  5  3  2  0  0  0  0
  5 24  1  0  0  0  0
  6  1  1  0  0  0  0
  7  4  1  0  0  0  0
  7  3  1  0  0  0  0
  8 10  1  0  0  0  0
  9 13  2  0  0  0  0
 10 14  2  0  0  0  0
 11  8  2  0  0  0  0
 11  9  1  0  0  0  0
 12  9  1  0  0  0  0
 13 14  1  0  0  0  0
 13 17  1  0  0  0  0
 15 19  1  0  0  0  0
 17 15  2  0  0  0  0
 18 20  2  0  0  0  0
 20 23  1  0  0  0  0
 20 16  1  0  0  0  0
 21 18  1  0  0  0  0
 21 22  2  0  0  0  0
 22 17  1  0  0  0  0
 22 23  1  0  0  0  0
 23 19  2  0  0  0  0
 24 25  1  6  0  0  0
 26 33  2  0  0  0  0
 27 24  1  0  0  0  0
 28 27  1  0  0  0  0
 29 26  1  0  0  0  0
 29 31  2  0  0  0  0
 30 29  1  0  0  0  0
 31 28  1  0  0  0  0
 32 31  1  0  0  0  0
 33 27  1  0  0  0  0
 34 35  1  0  0  0  0
 35  7  1  0  0  0  0
 36 37  1  0  0  0  0
 36  4  1  0  0  0  0
 37 38  1  0  0  0  0
 38 39  1  0  0  0  0
 39 41  1  0  0  0  0
 41 40  1  0  0  0  0
M  END
>  <MODEL>
7

>  <REMARK>
 VINA RESULT:      -8.1      4.454      7.767
  Name = 
  10 active torsions:
  status: ('A' for Active; 'I' for Inactive)
    1  A    between atoms: C_2  and  C_18
    2  A    between atoms: C_6  and  N_11
    3  A    between atoms: C_6  and  C_29
    4  A    between atoms: C_8  and  C_25
    5  A    between atoms: C_8  and  N_40
    6  A    between atoms: C_9  and  C_22
    7  A    between atoms: C_20  and  C_35
    8  A    between atoms: C_25  and  C_35
    9  A    between atoms: C_26  and  N_40
   10  A    between atoms: C_28  and  N_31
                            x       y       z     vdW  Elec       q    Type
                         _______ _______ _______ _____ _____    ______ ____

>  <TORSDO>
F 10

$$$$
=
 OpenBabel11032419563D

 41 45  0  0  1  0  0  0  0  0999 V2000
  189.8510  176.2540  138.7620 C   0  0  0  0  0  0  0  0  0  0  0  0
  190.1040  176.3800  140.0700 C   0  0  0  0  0  3  0  0  0  0  0  0
  189.2870  177.2700  140.9120 C   0  0  0  0  0  0  0  0  0  0  0  0
  187.9990  177.8820  138.8680 C   0  0  0  0  0  0  0  0  0  0  0  0
  189.5270  177.3840  142.2240 C   0  0  0  0  0  3  0  0  0  0  0  0
  188.7660  177.0520  138.1470 C   0  0  0  0  0  3  0  0  0  0  0  0
  188.2220  178.0170  140.2870 N   0  0  0  0  0  0  0  0  0  0  0  0
  190.0710  174.3190  137.2460 C   0  0  0  0  0  3  0  0  0  0  0  0
  192.0920  175.5810  137.7450 C   0  0  0  0  0  0  0  0  0  0  0  0
  190.7960  173.4680  136.4180 C   0  0  0  0  0  3  0  0  0  0  0  0
  190.6950  175.3850  137.9090 C   0  0  0  0  0  0  0  0  0  0  0  0
  192.9550  176.7510  138.7530 Cl  0  0  0  0  0  0  0  0  0  0  0  0
  192.8170  174.7330  136.8730 C   0  0  0  0  0  0  0  0  0  0  0  0
  192.1590  173.6760  136.2320 C   0  0  0  0  0  3  0  0  0  0  0  0
  194.7390  175.5860  135.6110 N   0  0  0  0  0  0  0  0  0  0  0  0
  198.9880  174.8780  137.3930 N   0  0  0  0  0  1  0  0  0  0  0  0
  194.2600  174.9000  136.6130 C   0  0  0  0  0  0  0  0  0  0  0  0
  197.1310  173.9610  138.7190 C   0  0  0  0  0  3  0  0  0  0  0  0
  196.1800  175.6210  135.7210 C   0  0  0  0  0  3  0  0  0  0  0  0
  197.6160  174.5900  137.6400 C   0  0  0  0  0  0  0  0  0  0  0  0
  195.6420  173.8930  138.6060 C   0  0  0  0  0  3  0  0  0  0  0  0
  195.3650  174.4710  137.4460 C   0  0  0  0  0  0  0  0  0  0  0  0
  196.5010  174.9440  136.8080 C   0  0  0  0  0  0  0  0  0  0  0  0
  190.6080  176.6340  142.9410 C   0  0  2  0  0  3  0  0  0  0  0  0
  190.5570  175.2770  142.6110 O   0  0  0  0  0  1  0  0  0  0  0  0
  189.0610  177.5050  146.1900 C   0  0  0  0  0  3  0  0  0  0  0  0
  190.4730  176.8030  144.3820 N   0  0  0  0  0  0  0  0  0  0  0  0
  191.5160  176.2900  145.2810 C   0  0  0  0  0  2  0  0  0  0  0  0
  190.1530  177.2320  147.1330 C   0  0  0  0  0  0  0  0  0  0  0  0
  189.9830  177.5350  148.4430 F   0  0  0  0  0  0  0  0  0  0  0  0
  191.3090  176.7060  146.7140 C   0  0  0  0  0  0  0  0  0  0  0  0
  192.3000  176.4680  147.6090 F   0  0  0  0  0  0  0  0  0  0  0  0
  189.2270  177.3000  144.8860 C   0  0  0  0  0  3  0  0  0  0  0  0
  186.3040  178.2930  141.5890 O   0  0  0  0  0  1  0  0  0  0  0  0
  187.4100  178.9560  141.0560 C   0  0  0  0  0  2  0  0  0  0  0  0
  186.9580  178.6370  138.2360 N   0  0  0  0  0  2  0  0  0  0  0  0
  185.8820  178.0300  137.4660 C   0  0  0  0  0  2  0  0  0  0  0  0
  184.6740  177.8350  138.3560 C   0  0  0  0  0  2  0  0  0  0  0  0
  184.2150  179.1810  138.8840 C   0  0  0  0  0  2  0  0  0  0  0  0
  183.0580  177.5300  140.3530 C   0  0  0  0  0  1  0  0  0  0  0  0
  183.1840  178.9960  139.9830 C   0  0  0  0  0  2  0  0  0  0  0  0
  1  2  2  0  0  0  0
  2  3  1  0  0  0  0
  3  5  2  0  0  0  0
  4  7  1  0  0  0  0
  5 24  1  0  0  0  0
  6  1  1  0  0  0  0
  6  4  2  0  0  0  0
  7  3  1  0  0  0  0
  7 35  1  0  0  0  0
  8 11  1  0  0  0  0
  9 11  2  0  0  0  0
  9 12  1  0  0  0  0
 10  8  2  0  0  0  0
 11  1  1  0  0  0  0
 13  9  1  0  0  0  0
 14 10  1  0  0  0  0
 14 13  2  0  0  0  0
 15 19  2  0  0  0  0
 15 17  1  0  0  0  0
 16 20  1  0  0  0  0
 17 13  1  0  0  0  0
 17 22  2  0  0  0  0
 19 23  1  0  0  0  0
 20 18  1  0  0  0  0
 21 18  2  0  0  0  0
 22 21  1  0  0  0  0
 23 22  1  0  0  0  0
 23 20  2  0  0  0  0
 24 25  1  1  0  0  0
 24 27  1  0  0  0  0
 26 29  1  0  0  0  0
 27 33  1  0  0  0  0
 27 28  1  0  0  0  0
 28 31  1  0  0  0  0
 29 30  1  0  0  0  0
 31 29  2  0  0  0  0
 31 32  1  0  0  0  0
 33 26  2  0  0  0  0
 35 34  1  0  0  0  0
 36  4  1  0  0  0  0
 37 36  1  0  0  0  0
 37 38  1  0  0  0  0
 38 39  1  0  0  0  0
 39 41  1  0  0  0  0
 41 40  1  0  0  0  0
M  END
>  <MODEL>
8

>  <REMARK>
 VINA RESULT:      -8.1      5.205      9.706
  Name = 
  10 active torsions:
  status: ('A' for Active; 'I' for Inactive)
    1  A    between atoms: C_2  and  C_18
    2  A    between atoms: C_6  and  N_11
    3  A    between atoms: C_6  and  C_29
    4  A    between atoms: C_8  and  C_25
    5  A    between atoms: C_8  and  N_40
    6  A    between atoms: C_9  and  C_22
    7  A    between atoms: C_20  and  C_35
    8  A    between atoms: C_25  and  C_35
    9  A    between atoms: C_26  and  N_40
   10  A    between atoms: C_28  and  N_31
                            x       y       z     vdW  Elec       q    Type
                         _______ _______ _______ _____ _____    ______ ____

>  <TORSDO>
F 10

$$$$
=
 OpenBabel11032419563D

 41 45  0  0  1  0  0  0  0  0999 V2000
  185.8710  178.4960  141.5320 C   0  0  0  0  0  0  0  0  0  0  0  0
  184.7610  178.6440  140.7990 C   0  0  0  0  0  3  0  0  0  0  0  0
  184.8150  178.5710  139.3280 C   0  0  0  0  0  0  0  0  0  0  0  0
  187.2770  178.2350  139.5200 C   0  0  0  0  0  0  0  0  0  0  0  0
  183.7040  178.7000  138.5940 C   0  0  0  0  0  3  0  0  0  0  0  0
  187.1730  178.3010  140.8560 C   0  0  0  0  0  3  0  0  0  0  0  0
  186.0970  178.3570  138.7010 N   0  0  0  0  0  0  0  0  0  0  0  0
  184.6890  179.2010  143.5810 C   0  0  0  0  0  3  0  0  0  0  0  0
  186.8650  178.1450  143.8550 C   0  0  0  0  0  0  0  0  0  0  0  0
  184.5670  179.3270  144.9610 C   0  0  0  0  0  3  0  0  0  0  0  0
  185.8220  178.6050  143.0090 C   0  0  0  0  0  0  0  0  0  0  0  0
  188.4080  177.6200  143.1670 Cl  0  0  0  0  0  0  0  0  0  0  0  0
  186.7180  178.2440  145.2600 C   0  0  0  0  0  0  0  0  0  0  0  0
  185.5740  178.8500  145.7940 C   0  0  0  0  0  3  0  0  0  0  0  0
  187.4510  177.2710  147.3890 N   0  0  0  0  0  0  0  0  0  0  0  0
  191.9570  176.1620  147.8260 N   0  0  0  0  0  1  0  0  0  0  0  0
  187.7350  177.7460  146.2070 C   0  0  0  0  0  0  0  0  0  0  0  0
  191.3290  177.1550  145.6660 C   0  0  0  0  0  3  0  0  0  0  0  0
  188.6690  176.7880  147.9980 C   0  0  0  0  0  3  0  0  0  0  0  0
  191.0410  176.7530  146.9120 C   0  0  0  0  0  0  0  0  0  0  0  0
  190.0830  177.6840  145.0320 C   0  0  0  0  0  3  0  0  0  0  0  0
  189.1540  177.5740  145.9710 C   0  0  0  0  0  0  0  0  0  0  0  0
  189.6430  176.9950  147.1320 C   0  0  0  0  0  0  0  0  0  0  0  0
  182.3400  178.9160  139.1770 C   0  0  2  0  0  3  0  0  0  0  0  0
  181.6180  177.7200  139.1740 O   0  0  0  0  0  1  0  0  0  0  0  0
  179.8600  180.4020  136.8660 C   0  0  0  0  0  3  0  0  0  0  0  0
  181.6220  179.9370  138.4260 N   0  0  0  0  0  0  0  0  0  0  0  0
  181.8960  181.3590  138.6750 C   0  0  0  0  0  2  0  0  0  0  0  0
  180.2330  181.8230  136.8870 C   0  0  0  0  0  0  0  0  0  0  0  0
  179.5910  182.6850  136.0620 F   0  0  0  0  0  0  0  0  0  0  0  0
  181.2040  182.2680  137.6930 C   0  0  0  0  0  0  0  0  0  0  0  0
  181.5280  183.5840  137.6870 F   0  0  0  0  0  0  0  0  0  0  0  0
  180.5290  179.5170  137.5990 C   0  0  0  0  0  3  0  0  0  0  0  0
  185.9060  177.0540  136.7730 O   0  0  0  0  0  1  0  0  0  0  0  0
  186.2260  178.3270  137.2460 C   0  0  0  0  0  2  0  0  0  0  0  0
  188.5560  178.0440  138.9040 N   0  0  0  0  0  2  0  0  0  0  0  0
  189.1540  176.7350  138.6850 C   0  0  0  0  0  2  0  0  0  0  0  0
  190.6060  176.7680  139.1060 C   0  0  0  0  0  2  0  0  0  0  0  0
  190.6920  176.9970  140.6030 C   0  0  0  0  0  2  0  0  0  0  0  0
  193.0620  177.2350  139.8650 C   0  0  0  0  0  1  0  0  0  0  0  0
  192.0740  177.4980  140.9850 C   0  0  0  0  0  2  0  0  0  0  0  0
  1 11  1  0  0  0  0
  2  1  2  0  0  0  0
  3  2  1  0  0  0  0
  4  6  2  0  0  0  0
  5 24  1  0  0  0  0
  5  3  2  0  0  0  0
  6  1  1  0  0  0  0
  7  3  1  0  0  0  0
  7  4  1  0  0  0  0
  8 10  1  0  0  0  0
  9 13  2  0  0  0  0
 10 14  2  0  0  0  0
 11  8  2  0  0  0  0
 11  9  1  0  0  0  0
 12  9  1  0  0  0  0
 13 14  1  0  0  0  0
 13 17  1  0  0  0  0
 15 19  1  0  0  0  0
 17 15  2  0  0  0  0
 18 20  2  0  0  0  0
 20 23  1  0  0  0  0
 20 16  1  0  0  0  0
 21 18  1  0  0  0  0
 21 22  2  0  0  0  0
 22 17  1  0  0  0  0
 22 23  1  0  0  0  0
 23 19  2  0  0  0  0
 24 25  1  6  0  0  0
 26 29  1  0  0  0  0
 26 33  2  0  0  0  0
 27 28  1  0  0  0  0
 27 24  1  0  0  0  0
 29 31  2  0  0  0  0
 30 29  1  0  0  0  0
 31 28  1  0  0  0  0
 32 31  1  0  0  0  0
 33 27  1  0  0  0  0
 34 35  1  0  0  0  0
 35  7  1  0  0  0  0
 36  4  1  0  0  0  0
 37 36  1  0  0  0  0
 37 38  1  0  0  0  0
 38 39  1  0  0  0  0
 39 41  1  0  0  0  0
 40 41  1  0  0  0  0
M  END
>  <MODEL>
9

>  <REMARK>
 VINA RESULT:      -8.0      2.035      2.324
  Name = 
  10 active torsions:
  status: ('A' for Active; 'I' for Inactive)
    1  A    between atoms: C_2  and  C_18
    2  A    between atoms: C_6  and  N_11
    3  A    between atoms: C_6  and  C_29
    4  A    between atoms: C_8  and  C_25
    5  A    between atoms: C_8  and  N_40
    6  A    between atoms: C_9  and  C_22
    7  A    between atoms: C_20  and  C_35
    8  A    between atoms: C_25  and  C_35
    9  A    between atoms: C_26  and  N_40
   10  A    between atoms: C_28  and  N_31
                            x       y       z     vdW  Elec       q    Type
                         _______ _______ _______ _____ _____    ______ ____

>  <TORSDO>
F 10

$$$$
