=
 OpenBabel11032419253D

 51 53  0  0  1  0  0  0  0  0999 V2000
  188.1610  178.7230  141.2520 C   0  0  0  0  0  2  0  0  0  0  0  0
  189.1030  178.5070  140.0830 C   0  0  2  0  0  3  0  0  0  0  0  0
  189.7290  176.8450  138.2400 C   0  0  2  0  0  3  0  0  0  0  0  0
  189.2340  178.2090  137.7860 C   0  0  2  0  0  3  0  0  0  0  0  0
  188.4170  178.7900  138.8350 N   0  0  0  0  0  2  0  0  0  0  0  0
  189.6620  176.7860  140.0540 S   0  0  0  0  0  0  0  0  0  0  0  0
  191.6840  175.3730  137.5900 C   0  0  0  0  0  0  0  0  0  0  0  0
  191.0990  176.6610  137.7880 N   0  0  0  0  0  2  0  0  0  0  0  0
  191.0210  174.3260  137.8270 O   0  0  0  0  0  0  0  0  0  0  0  0
  193.0800  175.2860  137.0630 C   0  0  2  0  0  3  0  0  0  0  0  0
  196.1730  173.0500  137.4300 C   0  0  1  0  0  3  0  0  0  0  0  0
  194.9810  174.7970  138.5480 N   0  0  0  0  0  2  0  0  0  0  0  0
  196.6780  171.7060  137.6490 N   0  0  0  0  0  1  0  0  0  0  0  0
  194.5660  172.9850  136.6090 S   0  0  0  0  0  0  0  0  0  0  0  0
  193.8840  174.2030  137.7920 C   0  0  2  0  0  3  0  0  0  0  0  0
  195.9570  173.7390  138.7530 C   0  0  0  0  0  2  0  0  0  0  0  0
  193.7490  176.6520  137.1560 C   0  0  0  0  0  2  0  0  0  0  0  0
  194.5780  176.8760  135.9840 N   0  0  0  0  0  1  0  0  0  0  0  0
  188.4150  178.0780  136.5140 C   0  0  0  0  0  2  0  0  0  0  0  0
  187.6990  176.7380  136.4800 C   0  0  0  0  0  2  0  0  0  0  0  0
  184.2420  177.1730  135.3310 O   0  0  0  0  0  0  0  0  0  0  0  0
  186.5200  176.8220  135.6300 N   0  0  0  0  0  2  0  0  0  0  0  0
  185.2160  177.1320  136.1280 C   0  0  0  0  0  0  0  0  0  0  0  0
  184.9930  177.4530  137.5720 C   0  0  0  0  0  2  0  0  0  0  0  0
  183.5560  177.1660  137.9790 C   0  0  0  0  0  2  0  0  0  0  0  0
  182.7900  178.4610  138.1770 C   0  0  0  0  0  1  0  0  0  0  0  0
  186.7250  178.4610  140.8120 C   0  0  0  0  0  2  0  0  0  0  0  0
  184.3320  179.0180  141.3490 C   0  0  0  0  0  2  0  0  0  0  0  0
  185.7620  177.8270  143.0160 C   0  0  0  0  0  2  0  0  0  0  0  0
  185.7490  178.8780  141.9040 C   0  0  1  0  0  3  0  0  0  0  0  0
  183.3890  179.5120  142.4420 C   0  0  0  0  0  2  0  0  0  0  0  0
  183.4730  178.6060  143.6330 C   0  0  0  0  0  0  0  0  0  0  0  0
  182.4560  178.2430  144.1980 O   0  0  0  0  0  0  0  0  0  0  0  0
  184.8190  178.1950  144.1660 C   0  0  2  0  0  3  0  0  0  0  0  0
  185.4310  179.2990  145.0160 C   0  0  0  0  0  2  0  0  0  0  0  0
  185.9320  178.7310  146.3340 C   0  0  0  0  0  2  0  0  0  0  0  0
  187.4360  178.5280  146.2780 C   0  0  0  0  0  2  0  0  0  0  0  0
  187.7390  177.1180  146.0840 N   0  0  0  0  0  2  0  0  0  0  0  0
  189.1870  176.9850  146.0870 C   0  0  2  0  0  3  0  0  0  0  0  0
  189.6830  176.7360  147.5140 C   0  0  2  0  0  3  0  0  0  0  0  0
  189.4870  177.8690  148.3110 O   0  0  0  0  0  1  0  0  0  0  0  0
  191.5100  175.2950  147.0060 O   0  0  0  0  0  0  0  0  0  0  0  0
  192.0700  177.2430  148.0690 O   0  0  0  0  0  1  0  0  0  0  0  0
  191.1330  176.3780  147.5190 C   0  0  0  0  0  0  0  0  0  0  0  0
  189.7910  178.2660  145.5260 C   0  0  0  0  0  2  0  0  0  0  0  0
  190.1580  178.1420  144.0480 C   0  0  1  0  0  3  0  0  0  0  0  0
  190.3970  179.3820  143.4840 F   0  0  0  0  0  0  0  0  0  0  0  0
  190.8640  175.8930  143.7870 F   0  0  0  0  0  0  0  0  0  0  0  0
  192.2770  177.3280  144.7950 F   0  0  0  0  0  0  0  0  0  0  0  0
  191.3280  177.1950  143.7930 C   0  0  0  0  0  0  0  0  0  0  0  0
  191.9110  177.4670  142.5690 F   0  0  0  0  0  0  0  0  0  0  0  0
  2  1  1  1  0  0  0
  3  8  1  1  0  0  0
  3  6  1  0  0  0  0
  4 19  1  6  0  0  0
  4  3  1  0  0  0  0
  4  5  1  0  0  0  0
  5  2  1  0  0  0  0
  6  2  1  0  0  0  0
  7  8  1  0  0  0  0
  7  9  2  0  0  0  0
 10 17  1  1  0  0  0
 10  7  1  0  0  0  0
 11 13  1  1  0  0  0
 11 16  1  0  0  0  0
 12 16  1  0  0  0  0
 14 11  1  0  0  0  0
 14 15  1  0  0  0  0
 15 10  1  6  0  0  0
 15 12  1  0  0  0  0
 18 17  1  0  0  0  0
 20 19  1  0  0  0  0
 21 23  2  0  0  0  0
 22 23  1  0  0  0  0
 22 20  1  0  0  0  0
 23 24  1  0  0  0  0
 24 25  1  0  0  0  0
 25 26  1  0  0  0  0
 27  1  1  0  0  0  0
 28 30  1  0  0  0  0
 28 31  1  0  0  0  0
 29 34  1  0  0  0  0
 30 27  1  6  0  0  0
 30 29  1  0  0  0  0
 31 32  1  0  0  0  0
 32 34  1  0  0  0  0
 32 33  2  0  0  0  0
 34 35  1  6  0  0  0
 35 36  1  0  0  0  0
 37 36  1  0  0  0  0
 38 39  1  0  0  0  0
 38 37  1  0  0  0  0
 39 45  1  1  0  0  0
 39 40  1  0  0  0  0
 40 44  1  0  0  0  0
 40 41  1  1  0  0  0
 42 44  2  0  0  0  0
 44 43  1  0  0  0  0
 46 47  1  1  0  0  0
 46 45  1  0  0  0  0
 48 50  1  0  0  0  0
 50 46  1  0  0  0  0
 50 49  1  0  0  0  0
 51 50  1  0  0  0  0
M  END
>  <MODEL>
1

>  <REMARK>
 VINA RESULT:      -7.0      0.000      0.000
  Name = 
  22 active torsions:
  status: ('A' for Active; 'I' for Inactive)
    1  A    between atoms: C_7  and  C_36
    2  A    between atoms: C_7  and  N_37
    3  A    between atoms: C_9  and  C_43
    4  A    between atoms: N_10  and  C_34
    5  A    between atoms: C_11  and  C_46
    6  A    between atoms: C_11  and  C_47
    7  A    between atoms: C_12  and  C_43
    8  A    between atoms: C_13  and  C_14
    9  A    between atoms: C_13  and  C_22
   10  A    between atoms: C_17  and  C_28
   11  A    between atoms: C_17  and  N_32
   12  A    between atoms: C_20  and  C_43
   13  A    between atoms: C_21  and  C_36
   14  A    between atoms: C_21  and  C_51
   15  A    between atoms: C_22  and  C_46
   16  A    between atoms: C_24  and  C_29
   17  A    between atoms: C_25  and  C_48
   18  A    between atoms: C_26  and  C_27
   19  A    between atoms: C_26  and  C_35
   20  A    between atoms: C_28  and  C_39
   21  A    between atoms: C_29  and  C_48
   22  A    between atoms: N_37  and  C_46
                            x       y       z     vdW  Elec       q    Type
                         _______ _______ _______ _____ _____    ______ ____

>  <TORSDO>
F 22

$$$$
=
 OpenBabel11032419253D

 51 53  0  0  1  0  0  0  0  0999 V2000
  188.0460  178.6370  141.4040 C   0  0  0  0  0  2  0  0  0  0  0  0
  188.9370  178.3740  140.2050 C   0  0  2  0  0  3  0  0  0  0  0  0
  189.6420  176.5640  138.5380 C   0  0  2  0  0  3  0  0  0  0  0  0
  188.9670  177.7960  137.9570 C   0  0  2  0  0  3  0  0  0  0  0  0
  188.1510  178.4170  138.9840 N   0  0  0  0  0  2  0  0  0  0  0  0
  189.6880  176.7340  140.3450 S   0  0  0  0  0  0  0  0  0  0  0  0
  191.6090  175.2290  137.6670 C   0  0  0  0  0  0  0  0  0  0  0  0
  190.9960  176.4710  138.0140 N   0  0  0  0  0  2  0  0  0  0  0  0
  190.9900  174.1410  137.8290 O   0  0  0  0  0  0  0  0  0  0  0  0
  192.9830  175.2410  137.0760 C   0  0  2  0  0  3  0  0  0  0  0  0
  196.3480  173.4480  137.4780 C   0  0  1  0  0  3  0  0  0  0  0  0
  194.8660  174.9300  138.6300 N   0  0  0  0  0  2  0  0  0  0  0  0
  197.0320  172.1780  137.6440 N   0  0  0  0  0  1  0  0  0  0  0  0
  194.8060  173.2100  136.5690 S   0  0  0  0  0  0  0  0  0  0  0  0
  193.9020  174.2370  137.7820 C   0  0  2  0  0  3  0  0  0  0  0  0
  195.9750  174.0100  138.8250 C   0  0  0  0  0  2  0  0  0  0  0  0
  193.5460  176.6570  137.1180 C   0  0  0  0  0  2  0  0  0  0  0  0
  194.4200  176.8730  135.9770 N   0  0  0  0  0  1  0  0  0  0  0  0
  188.0950  177.4140  136.7740 C   0  0  0  0  0  2  0  0  0  0  0  0
  187.2740  176.1780  137.0990 C   0  0  0  0  0  2  0  0  0  0  0  0
  184.7340  174.6650  134.9250 O   0  0  0  0  0  0  0  0  0  0  0  0
  186.2190  176.0040  136.1100 N   0  0  0  0  0  2  0  0  0  0  0  0
  185.6340  174.7360  135.8030 C   0  0  0  0  0  0  0  0  0  0  0  0
  186.0380  173.4970  136.5380 C   0  0  0  0  0  2  0  0  0  0  0  0
  185.0580  173.1840  137.6580 C   0  0  0  0  0  2  0  0  0  0  0  0
  184.0490  172.1440  137.2070 C   0  0  0  0  0  1  0  0  0  0  0  0
  188.0400  177.4180  142.3190 C   0  0  0  0  0  2  0  0  0  0  0  0
  187.4970  177.4130  144.7750 C   0  0  0  0  0  2  0  0  0  0  0  0
  186.2410  178.8920  143.2010 C   0  0  0  0  0  2  0  0  0  0  0  0
  186.9350  177.5380  143.3600 C   0  0  1  0  0  3  0  0  0  0  0  0
  186.3620  177.4570  145.7940 C   0  0  0  0  0  2  0  0  0  0  0  0
  185.5420  178.6940  145.5880 C   0  0  0  0  0  0  0  0  0  0  0  0
  185.1950  179.3650  146.5450 O   0  0  0  0  0  0  0  0  0  0  0  0
  185.0950  179.0720  144.2010 C   0  0  2  0  0  3  0  0  0  0  0  0
  183.8870  178.2520  143.7720 C   0  0  0  0  0  2  0  0  0  0  0  0
  182.6190  178.8280  144.3790 C   0  0  0  0  0  2  0  0  0  0  0  0
  181.7830  179.5000  143.3050 C   0  0  0  0  0  2  0  0  0  0  0  0
  181.2260  178.4980  142.4090 N   0  0  0  0  0  2  0  0  0  0  0  0
  181.4310  178.9740  141.0500 C   0  0  2  0  0  3  0  0  0  0  0  0
  180.0770  179.2390  140.3840 C   0  0  2  0  0  3  0  0  0  0  0  0
  179.4900  178.0410  139.9640 O   0  0  0  0  0  1  0  0  0  0  0  0
  180.6500  181.3210  139.3780 O   0  0  0  0  0  1  0  0  0  0  0  0
  179.9330  179.7020  137.9280 O   0  0  0  0  0  0  0  0  0  0  0  0
  180.2310  180.1490  139.2090 C   0  0  0  0  0  0  0  0  0  0  0  0
  182.2080  177.9160  140.2790 C   0  0  0  0  0  2  0  0  0  0  0  0
  183.5460  178.4370  139.7560 C   0  0  1  0  0  3  0  0  0  0  0  0
  184.5810  178.1180  140.6150 F   0  0  0  0  0  0  0  0  0  0  0  0
  183.9880  176.6000  138.3220 F   0  0  0  0  0  0  0  0  0  0  0  0
  185.0480  178.5420  137.8990 F   0  0  0  0  0  0  0  0  0  0  0  0
  183.8590  177.9760  138.3330 C   0  0  0  0  0  0  0  0  0  0  0  0
  182.8380  178.3350  137.4740 F   0  0  0  0  0  0  0  0  0  0  0  0
  1 27  1  0  0  0  0
  2  6  1  0  0  0  0
  2  1  1  1  0  0  0
  3  8  1  6  0  0  0
  3  6  1  0  0  0  0
  4 19  1  6  0  0  0
  4  3  1  0  0  0  0
  4  5  1  0  0  0  0
  5  2  1  0  0  0  0
  7  9  2  0  0  0  0
  7  8  1  0  0  0  0
 10 17  1  1  0  0  0
 10  7  1  0  0  0  0
 11 13  1  1  0  0  0
 11 16  1  0  0  0  0
 12 16  1  0  0  0  0
 14 11  1  0  0  0  0
 14 15  1  0  0  0  0
 15 10  1  6  0  0  0
 15 12  1  0  0  0  0
 18 17  1  0  0  0  0
 19 20  1  0  0  0  0
 21 23  2  0  0  0  0
 22 20  1  0  0  0  0
 23 22  1  0  0  0  0
 23 24  1  0  0  0  0
 24 25  1  0  0  0  0
 26 25  1  0  0  0  0
 28 31  1  0  0  0  0
 29 30  1  0  0  0  0
 29 34  1  0  0  0  0
 30 27  1  6  0  0  0
 30 28  1  0  0  0  0
 32 31  1  0  0  0  0
 32 33  2  0  0  0  0
 34 35  1  6  0  0  0
 34 32  1  0  0  0  0
 35 36  1  0  0  0  0
 37 36  1  0  0  0  0
 38 37  1  0  0  0  0
 39 45  1  6  0  0  0
 39 38  1  0  0  0  0
 40 41  1  6  0  0  0
 40 39  1  0  0  0  0
 43 44  2  0  0  0  0
 44 42  1  0  0  0  0
 44 40  1  0  0  0  0
 46 45  1  0  0  0  0
 46 47  1  1  0  0  0
 48 50  1  0  0  0  0
 49 50  1  0  0  0  0
 50 46  1  0  0  0  0
 51 50  1  0  0  0  0
M  END
>  <MODEL>
2

>  <REMARK>
 VINA RESULT:      -6.8      3.347      6.173
  Name = 
  22 active torsions:
  status: ('A' for Active; 'I' for Inactive)
    1  A    between atoms: C_7  and  C_36
    2  A    between atoms: C_7  and  N_37
    3  A    between atoms: C_9  and  C_43
    4  A    between atoms: N_10  and  C_34
    5  A    between atoms: C_11  and  C_46
    6  A    between atoms: C_11  and  C_47
    7  A    between atoms: C_12  and  C_43
    8  A    between atoms: C_13  and  C_14
    9  A    between atoms: C_13  and  C_22
   10  A    between atoms: C_17  and  C_28
   11  A    between atoms: C_17  and  N_32
   12  A    between atoms: C_20  and  C_43
   13  A    between atoms: C_21  and  C_36
   14  A    between atoms: C_21  and  C_51
   15  A    between atoms: C_22  and  C_46
   16  A    between atoms: C_24  and  C_29
   17  A    between atoms: C_25  and  C_48
   18  A    between atoms: C_26  and  C_27
   19  A    between atoms: C_26  and  C_35
   20  A    between atoms: C_28  and  C_39
   21  A    between atoms: C_29  and  C_48
   22  A    between atoms: N_37  and  C_46
                            x       y       z     vdW  Elec       q    Type
                         _______ _______ _______ _____ _____    ______ ____

>  <TORSDO>
F 22

$$$$
=
 OpenBabel11032419253D

 51 53  0  0  1  0  0  0  0  0999 V2000
  187.8890  178.6050  141.0670 C   0  0  0  0  0  2  0  0  0  0  0  0
  188.4760  177.5470  140.1520 C   0  0  2  0  0  3  0  0  0  0  0  0
  189.7660  177.2210  137.9650 C   0  0  2  0  0  3  0  0  0  0  0  0
  190.4380  176.7150  139.2330 C   0  0  2  0  0  3  0  0  0  0  0  0
  189.9080  177.4420  140.3720 N   0  0  0  0  0  2  0  0  0  0  0  0
  188.1930  178.0020  138.4240 S   0  0  0  0  0  0  0  0  0  0  0  0
  189.4120  176.2390  135.6590 C   0  0  0  0  0  0  0  0  0  0  0  0
  189.5210  176.0960  137.0760 N   0  0  0  0  0  2  0  0  0  0  0  0
  189.5050  177.3760  135.1210 O   0  0  0  0  0  0  0  0  0  0  0  0
  189.2210  175.0150  134.8220 C   0  0  2  0  0  3  0  0  0  0  0  0
  186.3730  174.0110  137.1840 C   0  0  1  0  0  3  0  0  0  0  0  0
  186.8270  175.3710  135.2700 N   0  0  0  0  0  2  0  0  0  0  0  0
  185.4880  172.9510  137.6330 N   0  0  0  0  0  1  0  0  0  0  0  0
  187.9310  173.3130  136.5960 S   0  0  0  0  0  0  0  0  0  0  0  0
  187.8630  174.3590  135.0960 C   0  0  2  0  0  3  0  0  0  0  0  0
  185.7540  174.7350  136.0160 C   0  0  0  0  0  2  0  0  0  0  0  0
  190.3780  174.0510  135.0540 C   0  0  0  0  0  2  0  0  0  0  0  0
  191.6190  174.6500  134.5940 N   0  0  0  0  0  1  0  0  0  0  0  0
  191.9410  176.9170  139.1520 C   0  0  0  0  0  2  0  0  0  0  0  0
  192.4730  176.4080  137.8230 C   0  0  0  0  0  2  0  0  0  0  0  0
  194.0630  173.1250  137.4330 O   0  0  0  0  0  0  0  0  0  0  0  0
  192.7460  174.9810  137.9060 N   0  0  0  0  0  2  0  0  0  0  0  0
  193.9040  174.3700  137.3300 C   0  0  0  0  0  0  0  0  0  0  0  0
  194.9530  175.1870  136.6470 C   0  0  0  0  0  2  0  0  0  0  0  0
  195.0390  174.8370  135.1690 C   0  0  0  0  0  2  0  0  0  0  0  0
  196.3360  174.1070  134.8690 C   0  0  0  0  0  1  0  0  0  0  0  0
  186.4110  178.3190  141.3040 C   0  0  0  0  0  2  0  0  0  0  0  0
  184.6100  179.4310  142.6640 C   0  0  0  0  0  2  0  0  0  0  0  0
  185.9770  177.5810  143.6400 C   0  0  0  0  0  2  0  0  0  0  0  0
  185.9940  178.7830  142.6930 C   0  0  1  0  0  3  0  0  0  0  0  0
  184.2500  179.9580  144.0490 C   0  0  0  0  0  2  0  0  0  0  0  0
  184.3680  178.8560  145.0580 C   0  0  0  0  0  0  0  0  0  0  0  0
  183.5000  178.7020  145.9000 O   0  0  0  0  0  0  0  0  0  0  0  0
  185.5910  177.9790  145.0670 C   0  0  2  0  0  3  0  0  0  0  0  0
  186.7580  178.6750  145.7540 C   0  0  0  0  0  2  0  0  0  0  0  0
  186.8660  178.2170  147.1990 C   0  0  0  0  0  2  0  0  0  0  0  0
  188.3190  177.9740  147.5650 C   0  0  0  0  0  2  0  0  0  0  0  0
  188.6730  176.5890  147.2950 N   0  0  0  0  0  2  0  0  0  0  0  0
  189.9670  176.5970  146.6310 C   0  0  2  0  0  3  0  0  0  0  0  0
  191.0860  176.5320  147.6750 C   0  0  2  0  0  3  0  0  0  0  0  0
  191.5350  177.8160  148.0000 O   0  0  0  0  0  1  0  0  0  0  0  0
  193.2760  175.6140  147.8710 O   0  0  0  0  0  1  0  0  0  0  0  0
  192.1580  175.0710  145.9490 O   0  0  0  0  0  0  0  0  0  0  0  0
  192.2360  175.7220  147.1730 C   0  0  0  0  0  0  0  0  0  0  0  0
  190.0800  177.8720  145.8060 C   0  0  0  0  0  2  0  0  0  0  0  0
  190.1500  177.5940  144.3050 C   0  0  1  0  0  3  0  0  0  0  0  0
  189.2120  178.3370  143.6110 F   0  0  0  0  0  0  0  0  0  0  0  0
  191.5030  178.8260  142.7970 F   0  0  0  0  0  0  0  0  0  0  0  0
  191.9660  176.6400  143.0780 F   0  0  0  0  0  0  0  0  0  0  0  0
  191.5450  177.7960  143.7170 C   0  0  0  0  0  0  0  0  0  0  0  0
  192.4450  178.1240  144.7140 F   0  0  0  0  0  0  0  0  0  0  0  0
  1 27  1  0  0  0  0
  2  5  1  0  0  0  0
  2  1  1  1  0  0  0
  3  8  1  6  0  0  0
  3  6  1  0  0  0  0
  3  4  1  0  0  0  0
  4 19  1  6  0  0  0
  4  5  1  0  0  0  0
  6  2  1  0  0  0  0
  7  8  1  0  0  0  0
  9  7  2  0  0  0  0
 10 17  1  1  0  0  0
 10  7  1  0  0  0  0
 11 13  1  6  0  0  0
 12 16  1  0  0  0  0
 14 11  1  0  0  0  0
 15 10  1  1  0  0  0
 15 12  1  0  0  0  0
 15 14  1  0  0  0  0
 16 11  1  0  0  0  0
 18 17  1  0  0  0  0
 20 22  1  0  0  0  0
 20 19  1  0  0  0  0
 23 21  2  0  0  0  0
 23 22  1  0  0  0  0
 24 23  1  0  0  0  0
 25 24  1  0  0  0  0
 26 25  1  0  0  0  0
 28 30  1  0  0  0  0
 28 31  1  0  0  0  0
 29 34  1  0  0  0  0
 30 27  1  6  0  0  0
 30 29  1  0  0  0  0
 31 32  1  0  0  0  0
 32 34  1  0  0  0  0
 32 33  2  0  0  0  0
 34 35  1  6  0  0  0
 35 36  1  0  0  0  0
 36 37  1  0  0  0  0
 38 37  1  0  0  0  0
 39 45  1  1  0  0  0
 39 38  1  0  0  0  0
 39 40  1  0  0  0  0
 40 41  1  6  0  0  0
 43 44  2  0  0  0  0
 44 40  1  0  0  0  0
 44 42  1  0  0  0  0
 46 47  1  6  0  0  0
 46 45  1  0  0  0  0
 48 50  1  0  0  0  0
 49 50  1  0  0  0  0
 50 46  1  0  0  0  0
 50 51  1  0  0  0  0
M  END
>  <MODEL>
3

>  <REMARK>
 VINA RESULT:      -6.5      2.268      5.315
  Name = 
  22 active torsions:
  status: ('A' for Active; 'I' for Inactive)
    1  A    between atoms: C_7  and  C_36
    2  A    between atoms: C_7  and  N_37
    3  A    between atoms: C_9  and  C_43
    4  A    between atoms: N_10  and  C_34
    5  A    between atoms: C_11  and  C_46
    6  A    between atoms: C_11  and  C_47
    7  A    between atoms: C_12  and  C_43
    8  A    between atoms: C_13  and  C_14
    9  A    between atoms: C_13  and  C_22
   10  A    between atoms: C_17  and  C_28
   11  A    between atoms: C_17  and  N_32
   12  A    between atoms: C_20  and  C_43
   13  A    between atoms: C_21  and  C_36
   14  A    between atoms: C_21  and  C_51
   15  A    between atoms: C_22  and  C_46
   16  A    between atoms: C_24  and  C_29
   17  A    between atoms: C_25  and  C_48
   18  A    between atoms: C_26  and  C_27
   19  A    between atoms: C_26  and  C_35
   20  A    between atoms: C_28  and  C_39
   21  A    between atoms: C_29  and  C_48
   22  A    between atoms: N_37  and  C_46
                            x       y       z     vdW  Elec       q    Type
                         _______ _______ _______ _____ _____    ______ ____

>  <TORSDO>
F 22

$$$$
=
 OpenBabel11032419253D

 51 53  0  0  1  0  0  0  0  0999 V2000
  186.3720  177.7460  137.1730 C   0  0  0  0  0  2  0  0  0  0  0  0
  184.8740  177.5570  137.3090 C   0  0  2  0  0  3  0  0  0  0  0  0
  183.0860  175.9730  138.2310 C   0  0  2  0  0  3  0  0  0  0  0  0
  183.1150  177.3780  138.8130 C   0  0  2  0  0  3  0  0  0  0  0  0
  184.4460  177.9330  138.6450 N   0  0  0  0  0  2  0  0  0  0  0  0
  184.4460  175.8200  137.0380 S   0  0  0  0  0  0  0  0  0  0  0  0
  180.6880  175.1640  138.2090 C   0  0  0  0  0  0  0  0  0  0  0  0
  181.8120  175.7610  137.5620 N   0  0  0  0  0  2  0  0  0  0  0  0
  180.7710  174.7710  139.4050 O   0  0  0  0  0  0  0  0  0  0  0  0
  179.4000  175.0460  137.4570 C   0  0  2  0  0  3  0  0  0  0  0  0
  180.8120  171.6110  136.5020 C   0  0  1  0  0  3  0  0  0  0  0  0
  178.9310  172.6320  137.5690 N   0  0  0  0  0  2  0  0  0  0  0  0
  181.1400  170.6930  135.4260 N   0  0  0  0  0  1  0  0  0  0  0  0
  180.9390  173.3170  135.9240 S   0  0  0  0  0  0  0  0  0  0  0  0
  179.3260  173.7230  136.6850 C   0  0  2  0  0  3  0  0  0  0  0  0
  179.3830  171.4060  136.9340 C   0  0  0  0  0  2  0  0  0  0  0  0
  179.2300  176.2510  136.5410 C   0  0  0  0  0  2  0  0  0  0  0  0
  179.0330  177.4520  137.3370 N   0  0  0  0  0  1  0  0  0  0  0  0
  182.7570  177.3480  140.2880 C   0  0  0  0  0  2  0  0  0  0  0  0
  182.6630  178.7600  140.8400 C   0  0  0  0  0  2  0  0  0  0  0  0
  182.8790  178.8380  144.5020 O   0  0  0  0  0  0  0  0  0  0  0  0
  182.3080  178.7240  142.2510 N   0  0  0  0  0  2  0  0  0  0  0  0
  183.2610  178.8970  143.3040 C   0  0  0  0  0  0  0  0  0  0  0  0
  184.6970  179.1920  143.0080 C   0  0  0  0  0  2  0  0  0  0  0  0
  185.4170  177.9480  142.5090 C   0  0  0  0  0  2  0  0  0  0  0  0
  186.8740  178.2570  142.2170 C   0  0  0  0  0  1  0  0  0  0  0  0
  186.9530  178.2270  138.4980 C   0  0  0  0  0  2  0  0  0  0  0  0
  188.5510  176.4330  137.7510 C   0  0  0  0  0  2  0  0  0  0  0  0
  189.3660  178.3830  139.0840 C   0  0  0  0  0  2  0  0  0  0  0  0
  188.1950  177.4230  138.8590 C   0  0  1  0  0  3  0  0  0  0  0  0
  189.7480  175.5860  138.1710 C   0  0  0  0  0  2  0  0  0  0  0  0
  190.8900  176.4780  138.5590 C   0  0  0  0  0  0  0  0  0  0  0  0
  192.0180  176.2310  138.1700 O   0  0  0  0  0  0  0  0  0  0  0  0
  190.6470  177.6430  139.4800 C   0  0  2  0  0  3  0  0  0  0  0  0
  190.5670  177.1870  140.9300 C   0  0  0  0  0  2  0  0  0  0  0  0
  191.6120  177.9070  141.7660 C   0  0  0  0  0  2  0  0  0  0  0  0
  191.7340  177.2520  143.1300 C   0  0  0  0  0  2  0  0  0  0  0  0
  190.4270  177.1850  143.7660 N   0  0  0  0  0  2  0  0  0  0  0  0
  190.6400  177.3080  145.2000 C   0  0  2  0  0  3  0  0  0  0  0  0
  191.8640  176.4870  145.6150 C   0  0  2  0  0  3  0  0  0  0  0  0
  191.8590  175.2370  144.9870 O   0  0  0  0  0  1  0  0  0  0  0  0
  191.9240  175.1290  147.5720 O   0  0  0  0  0  0  0  0  0  0  0  0
  191.9180  177.3870  147.9500 O   0  0  0  0  0  1  0  0  0  0  0  0
  191.8970  176.2920  147.0960 C   0  0  0  0  0  0  0  0  0  0  0  0
  189.3930  176.8090  145.9180 C   0  0  0  0  0  2  0  0  0  0  0  0
  188.3260  177.8940  146.0600 C   0  0  1  0  0  3  0  0  0  0  0  0
  187.2640  177.6700  145.2030 F   0  0  0  0  0  0  0  0  0  0  0  0
  186.6440  178.7760  147.4810 F   0  0  0  0  0  0  0  0  0  0  0  0
  188.7680  178.7900  148.2320 F   0  0  0  0  0  0  0  0  0  0  0  0
  187.8360  178.0750  147.4950 C   0  0  0  0  0  0  0  0  0  0  0  0
  187.6230  176.8460  148.0910 F   0  0  0  0  0  0  0  0  0  0  0  0
  1 27  1  0  0  0  0
  2  1  1  1  0  0  0
  2  5  1  0  0  0  0
  3  8  1  6  0  0  0
  3  4  1  0  0  0  0
  4 19  1  1  0  0  0
  5  4  1  0  0  0  0
  6  2  1  0  0  0  0
  6  3  1  0  0  0  0
  7  9  2  0  0  0  0
  8  7  1  0  0  0  0
 10 17  1  6  0  0  0
 10  7  1  0  0  0  0
 11 13  1  6  0  0  0
 11 16  1  0  0  0  0
 14 11  1  0  0  0  0
 14 15  1  0  0  0  0
 15 10  1  1  0  0  0
 15 12  1  0  0  0  0
 16 12  1  0  0  0  0
 17 18  1  0  0  0  0
 19 20  1  0  0  0  0
 20 22  1  0  0  0  0
 22 23  1  0  0  0  0
 23 21  2  0  0  0  0
 24 23  1  0  0  0  0
 25 24  1  0  0  0  0
 26 25  1  0  0  0  0
 28 31  1  0  0  0  0
 28 30  1  0  0  0  0
 29 34  1  0  0  0  0
 30 27  1  6  0  0  0
 30 29  1  0  0  0  0
 31 32  1  0  0  0  0
 32 34  1  0  0  0  0
 33 32  2  0  0  0  0
 34 35  1  1  0  0  0
 35 36  1  0  0  0  0
 36 37  1  0  0  0  0
 37 38  1  0  0  0  0
 38 39  1  0  0  0  0
 39 40  1  0  0  0  0
 39 45  1  1  0  0  0
 40 41  1  6  0  0  0
 40 44  1  0  0  0  0
 44 42  2  0  0  0  0
 44 43  1  0  0  0  0
 45 46  1  0  0  0  0
 46 47  1  6  0  0  0
 46 50  1  0  0  0  0
 48 50  1  0  0  0  0
 50 51  1  0  0  0  0
 50 49  1  0  0  0  0
M  END
>  <MODEL>
4

>  <REMARK>
 VINA RESULT:      -5.9      4.029      8.585
  Name = 
  22 active torsions:
  status: ('A' for Active; 'I' for Inactive)
    1  A    between atoms: C_7  and  C_36
    2  A    between atoms: C_7  and  N_37
    3  A    between atoms: C_9  and  C_43
    4  A    between atoms: N_10  and  C_34
    5  A    between atoms: C_11  and  C_46
    6  A    between atoms: C_11  and  C_47
    7  A    between atoms: C_12  and  C_43
    8  A    between atoms: C_13  and  C_14
    9  A    between atoms: C_13  and  C_22
   10  A    between atoms: C_17  and  C_28
   11  A    between atoms: C_17  and  N_32
   12  A    between atoms: C_20  and  C_43
   13  A    between atoms: C_21  and  C_36
   14  A    between atoms: C_21  and  C_51
   15  A    between atoms: C_22  and  C_46
   16  A    between atoms: C_24  and  C_29
   17  A    between atoms: C_25  and  C_48
   18  A    between atoms: C_26  and  C_27
   19  A    between atoms: C_26  and  C_35
   20  A    between atoms: C_28  and  C_39
   21  A    between atoms: C_29  and  C_48
   22  A    between atoms: N_37  and  C_46
                            x       y       z     vdW  Elec       q    Type
                         _______ _______ _______ _____ _____    ______ ____

>  <TORSDO>
F 22

$$$$
=
 OpenBabel11032419253D

 51 53  0  0  1  0  0  0  0  0999 V2000
  183.4550  179.9610  143.9470 C   0  0  0  0  0  2  0  0  0  0  0  0
  184.8990  179.7060  143.5600 C   0  0  2  0  0  3  0  0  0  0  0  0
  186.5260  177.8720  142.8230 C   0  0  2  0  0  3  0  0  0  0  0  0
  186.3090  179.0200  141.8490 C   0  0  2  0  0  3  0  0  0  0  0  0
  185.0190  179.6280  142.1140 N   0  0  0  0  0  2  0  0  0  0  0  0
  185.4570  178.1360  144.2660 S   0  0  0  0  0  0  0  0  0  0  0  0
  188.6580  176.6470  143.4280 C   0  0  0  0  0  0  0  0  0  0  0  0
  187.9210  177.8550  143.2350 N   0  0  0  0  0  2  0  0  0  0  0  0
  188.1030  175.5260  143.2640 O   0  0  0  0  0  0  0  0  0  0  0  0
  190.1050  176.7330  143.7910 C   0  0  2  0  0  3  0  0  0  0  0  0
  189.3590  177.0300  147.5410 C   0  0  1  0  0  3  0  0  0  0  0  0
  191.1480  176.5870  146.0160 N   0  0  0  0  0  2  0  0  0  0  0  0
  189.0010  177.9100  148.6390 N   0  0  0  0  0  1  0  0  0  0  0  0
  188.6900  177.6680  145.9890 S   0  0  0  0  0  0  0  0  0  0  0  0
  190.2980  177.4030  145.1570 C   0  0  2  0  0  3  0  0  0  0  0  0
  190.8570  176.9900  147.3820 C   0  0  0  0  0  2  0  0  0  0  0  0
  190.8680  177.4570  142.6880 C   0  0  0  0  0  2  0  0  0  0  0  0
  191.6210  178.5640  143.2540 N   0  0  0  0  0  1  0  0  0  0  0  0
  186.3500  178.5140  140.4180 C   0  0  0  0  0  2  0  0  0  0  0  0
  187.7800  178.2070  140.0060 C   0  0  0  0  0  2  0  0  0  0  0  0
  189.3140  178.6650  136.7040 O   0  0  0  0  0  0  0  0  0  0  0  0
  187.9880  178.5680  138.6110 N   0  0  0  0  0  2  0  0  0  0  0  0
  189.2060  178.3100  137.9070 C   0  0  0  0  0  0  0  0  0  0  0  0
  190.3390  177.5840  138.5600 C   0  0  0  0  0  2  0  0  0  0  0  0
  190.8090  176.4200  137.7010 C   0  0  0  0  0  2  0  0  0  0  0  0
  192.3160  176.2660  137.7890 C   0  0  0  0  0  1  0  0  0  0  0  0
  182.7080  178.6360  144.0540 C   0  0  0  0  0  2  0  0  0  0  0  0
  180.6060  179.8000  143.3080 C   0  0  0  0  0  2  0  0  0  0  0  0
  182.0670  178.6340  141.6500 C   0  0  0  0  0  2  0  0  0  0  0  0
  181.5340  178.6070  143.0840 C   0  0  1  0  0  3  0  0  0  0  0  0
  179.3990  179.7040  142.3800 C   0  0  0  0  0  2  0  0  0  0  0  0
  179.8590  179.5680  140.9600 C   0  0  0  0  0  0  0  0  0  0  0  0
  179.3270  180.2210  140.0790 O   0  0  0  0  0  0  0  0  0  0  0  0
  180.9390  178.5780  140.6160 C   0  0  2  0  0  3  0  0  0  0  0  0
  180.3770  177.1660  140.5240 C   0  0  0  0  0  2  0  0  0  0  0  0
  179.9520  176.8620  139.0970 C   0  0  0  0  0  2  0  0  0  0  0  0
  180.7920  175.7310  138.5300 C   0  0  0  0  0  2  0  0  0  0  0  0
  181.6520  176.2360  137.4710 N   0  0  0  0  0  2  0  0  0  0  0  0
  183.0130  175.8390  137.7960 C   0  0  2  0  0  3  0  0  0  0  0  0
  183.9290  177.0670  137.7790 C   0  0  2  0  0  3  0  0  0  0  0  0
  183.1820  178.2440  137.8920 O   0  0  0  0  0  1  0  0  0  0  0  0
  185.9610  176.8530  136.5530 O   0  0  0  0  0  1  0  0  0  0  0  0
  184.1260  177.4250  135.3100 O   0  0  0  0  0  0  0  0  0  0  0  0
  184.7320  177.1140  136.5200 C   0  0  0  0  0  0  0  0  0  0  0  0
  183.4750  174.8120  136.7710 C   0  0  0  0  0  2  0  0  0  0  0  0
  183.1250  173.3810  137.1770 C   0  0  1  0  0  3  0  0  0  0  0  0
  182.0740  172.8880  136.4260 F   0  0  0  0  0  0  0  0  0  0  0  0
  185.0850  172.6060  138.2660 F   0  0  0  0  0  0  0  0  0  0  0  0
  185.1010  172.7020  136.0160 F   0  0  0  0  0  0  0  0  0  0  0  0
  184.3200  172.4300  137.1280 C   0  0  0  0  0  0  0  0  0  0  0  0
  183.8890  171.1180  137.0790 F   0  0  0  0  0  0  0  0  0  0  0  0
  1 27  1  0  0  0  0
  2  1  1  6  0  0  0
  2  6  1  0  0  0  0
  3  8  1  1  0  0  0
  3  6  1  0  0  0  0
  4 19  1  6  0  0  0
  4  5  1  0  0  0  0
  4  3  1  0  0  0  0
  5  2  1  0  0  0  0
  7 10  1  0  0  0  0
  8  7  1  0  0  0  0
  9  7  2  0  0  0  0
 10 17  1  6  0  0  0
 11 13  1  1  0  0  0
 12 16  1  0  0  0  0
 14 11  1  0  0  0  0
 15 10  1  6  0  0  0
 15 14  1  0  0  0  0
 15 12  1  0  0  0  0
 16 11  1  0  0  0  0
 17 18  1  0  0  0  0
 20 19  1  0  0  0  0
 21 23  2  0  0  0  0
 22 20  1  0  0  0  0
 23 24  1  0  0  0  0
 23 22  1  0  0  0  0
 25 26  1  0  0  0  0
 25 24  1  0  0  0  0
 29 30  1  0  0  0  0
 30 28  1  0  0  0  0
 30 27  1  1  0  0  0
 31 28  1  0  0  0  0
 32 31  1  0  0  0  0
 33 32  2  0  0  0  0
 34 35  1  1  0  0  0
 34 32  1  0  0  0  0
 34 29  1  0  0  0  0
 36 35  1  0  0  0  0
 37 36  1  0  0  0  0
 38 39  1  0  0  0  0
 38 37  1  0  0  0  0
 39 45  1  6  0  0  0
 40 39  1  0  0  0  0
 40 41  1  6  0  0  0
 43 44  2  0  0  0  0
 44 42  1  0  0  0  0
 44 40  1  0  0  0  0
 45 46  1  0  0  0  0
 46 47  1  6  0  0  0
 49 50  1  0  0  0  0
 50 46  1  0  0  0  0
 50 48  1  0  0  0  0
 51 50  1  0  0  0  0
M  END
>  <MODEL>
5

>  <REMARK>
 VINA RESULT:      -5.9      4.592      8.716
  Name = 
  22 active torsions:
  status: ('A' for Active; 'I' for Inactive)
    1  A    between atoms: C_7  and  C_36
    2  A    between atoms: C_7  and  N_37
    3  A    between atoms: C_9  and  C_43
    4  A    between atoms: N_10  and  C_34
    5  A    between atoms: C_11  and  C_46
    6  A    between atoms: C_11  and  C_47
    7  A    between atoms: C_12  and  C_43
    8  A    between atoms: C_13  and  C_14
    9  A    between atoms: C_13  and  C_22
   10  A    between atoms: C_17  and  C_28
   11  A    between atoms: C_17  and  N_32
   12  A    between atoms: C_20  and  C_43
   13  A    between atoms: C_21  and  C_36
   14  A    between atoms: C_21  and  C_51
   15  A    between atoms: C_22  and  C_46
   16  A    between atoms: C_24  and  C_29
   17  A    between atoms: C_25  and  C_48
   18  A    between atoms: C_26  and  C_27
   19  A    between atoms: C_26  and  C_35
   20  A    between atoms: C_28  and  C_39
   21  A    between atoms: C_29  and  C_48
   22  A    between atoms: N_37  and  C_46
                            x       y       z     vdW  Elec       q    Type
                         _______ _______ _______ _____ _____    ______ ____

>  <TORSDO>
F 22

$$$$
=
 OpenBabel11032419253D

 51 53  0  0  1  0  0  0  0  0999 V2000
  189.4980  176.4670  136.7250 C   0  0  0  0  0  2  0  0  0  0  0  0
  189.3810  176.3830  138.2350 C   0  0  2  0  0  3  0  0  0  0  0  0
  190.2420  177.4140  140.4140 C   0  0  2  0  0  3  0  0  0  0  0  0
  188.7480  177.5270  140.1520 C   0  0  2  0  0  3  0  0  0  0  0  0
  188.5090  177.4370  138.7240 N   0  0  0  0  0  2  0  0  0  0  0  0
  191.0120  176.5910  138.9900 S   0  0  0  0  0  0  0  0  0  0  0  0
  190.7410  177.2140  142.8870 C   0  0  0  0  0  0  0  0  0  0  0  0
  190.4560  176.6260  141.6180 N   0  0  0  0  0  2  0  0  0  0  0  0
  190.8410  178.4670  143.0060 O   0  0  0  0  0  0  0  0  0  0  0  0
  190.8840  176.3240  144.0810 C   0  0  2  0  0  3  0  0  0  0  0  0
  189.6900  177.1520  147.6290 C   0  0  1  0  0  3  0  0  0  0  0  0
  191.6050  176.3640  146.4340 N   0  0  0  0  0  2  0  0  0  0  0  0
  189.2860  178.1900  148.5600 N   0  0  0  0  0  1  0  0  0  0  0  0
  189.3000  177.6480  145.9370 S   0  0  0  0  0  0  0  0  0  0  0  0
  190.9660  177.1400  145.3760 C   0  0  2  0  0  3  0  0  0  0  0  0
  191.1830  176.9580  147.6910 C   0  0  0  0  0  2  0  0  0  0  0  0
  192.0950  175.4170  143.9000 C   0  0  0  0  0  2  0  0  0  0  0  0
  191.7360  174.0460  144.2240 N   0  0  0  0  0  1  0  0  0  0  0  0
  188.2170  178.8490  140.6770 C   0  0  0  0  0  2  0  0  0  0  0  0
  186.8890  178.6440  141.3840 C   0  0  0  0  0  2  0  0  0  0  0  0
  186.3270  177.2560  144.7340 O   0  0  0  0  0  0  0  0  0  0  0  0
  187.1020  178.0030  142.6740 N   0  0  0  0  0  2  0  0  0  0  0  0
  186.0600  177.8060  143.6340 C   0  0  0  0  0  0  0  0  0  0  0  0
  184.6480  178.2000  143.3360 C   0  0  0  0  0  2  0  0  0  0  0  0
  184.0390  178.9670  144.5010 C   0  0  0  0  0  2  0  0  0  0  0  0
  182.5390  179.1080  144.3190 C   0  0  0  0  0  1  0  0  0  0  0  0
  188.2620  177.1490  136.1490 C   0  0  0  0  0  2  0  0  0  0  0  0
  188.0470  174.7790  135.3320 C   0  0  0  0  0  2  0  0  0  0  0  0
  186.0960  175.9460  136.3690 C   0  0  0  0  0  2  0  0  0  0  0  0
  187.3420  176.1250  135.4990 C   0  0  1  0  0  3  0  0  0  0  0  0
  187.1320  173.7960  134.6080 C   0  0  0  0  0  2  0  0  0  0  0  0
  185.8230  173.6940  135.3300 C   0  0  0  0  0  0  0  0  0  0  0  0
  185.3140  172.6030  135.5230 O   0  0  0  0  0  0  0  0  0  0  0  0
  185.1080  174.9460  135.7610 C   0  0  2  0  0  3  0  0  0  0  0  0
  184.3660  175.5820  134.5940 C   0  0  0  0  0  2  0  0  0  0  0  0
  183.6290  176.8280  135.0550 C   0  0  0  0  0  2  0  0  0  0  0  0
  182.1900  176.4880  135.4010 C   0  0  0  0  0  2  0  0  0  0  0  0
  181.9020  176.8840  136.7700 N   0  0  0  0  0  2  0  0  0  0  0  0
  181.8520  175.6700  137.5680 C   0  0  2  0  0  3  0  0  0  0  0  0
  180.7030  174.7790  137.0860 C   0  0  2  0  0  3  0  0  0  0  0  0
  179.6360  174.8140  137.9900 O   0  0  0  0  0  1  0  0  0  0  0  0
  182.3480  173.0590  137.1830 O   0  0  0  0  0  1  0  0  0  0  0  0
  180.2720  172.3860  136.4920 O   0  0  0  0  0  0  0  0  0  0  0  0
  181.1590  173.3660  136.9180 C   0  0  0  0  0  0  0  0  0  0  0  0
  181.6510  176.0580  139.0270 C   0  0  0  0  0  2  0  0  0  0  0  0
  181.5890  177.5710  139.2280 C   0  0  1  0  0  3  0  0  0  0  0  0
  180.4100  177.9490  139.8430 F   0  0  0  0  0  0  0  0  0  0  0  0
  183.5630  178.8800  139.1050 F   0  0  0  0  0  0  0  0  0  0  0  0
  183.5700  177.0950  140.4780 F   0  0  0  0  0  0  0  0  0  0  0  0
  182.7960  178.1310  139.9780 C   0  0  0  0  0  0  0  0  0  0  0  0
  182.3840  178.9420  141.0180 F   0  0  0  0  0  0  0  0  0  0  0  0
  2  1  1  6  0  0  0
  2  5  1  0  0  0  0
  2  6  1  0  0  0  0
  3  8  1  1  0  0  0
  4  3  1  0  0  0  0
  4 19  1  6  0  0  0
  5  4  1  0  0  0  0
  6  3  1  0  0  0  0
  7  9  2  0  0  0  0
  7 10  1  0  0  0  0
  8  7  1  0  0  0  0
 10 17  1  6  0  0  0
 11 16  1  0  0  0  0
 11 13  1  1  0  0  0
 12 16  1  0  0  0  0
 14 11  1  0  0  0  0
 15 10  1  6  0  0  0
 15 14  1  0  0  0  0
 15 12  1  0  0  0  0
 17 18  1  0  0  0  0
 19 20  1  0  0  0  0
 20 22  1  0  0  0  0
 22 23  1  0  0  0  0
 23 21  2  0  0  0  0
 24 23  1  0  0  0  0
 24 25  1  0  0  0  0
 26 25  1  0  0  0  0
 27  1  1  0  0  0  0
 28 30  1  0  0  0  0
 30 27  1  1  0  0  0
 30 29  1  0  0  0  0
 31 32  1  0  0  0  0
 31 28  1  0  0  0  0
 32 33  2  0  0  0  0
 32 34  1  0  0  0  0
 34 35  1  6  0  0  0
 34 29  1  0  0  0  0
 35 36  1  0  0  0  0
 36 37  1  0  0  0  0
 37 38  1  0  0  0  0
 38 39  1  0  0  0  0
 39 45  1  1  0  0  0
 40 39  1  0  0  0  0
 40 41  1  1  0  0  0
 43 44  2  0  0  0  0
 44 40  1  0  0  0  0
 44 42  1  0  0  0  0
 45 46  1  0  0  0  0
 46 47  1  1  0  0  0
 46 50  1  0  0  0  0
 48 50  1  0  0  0  0
 50 49  1  0  0  0  0
 50 51  1  0  0  0  0
M  END
>  <MODEL>
6

>  <REMARK>
 VINA RESULT:      -5.8      4.202      9.423
  Name = 
  22 active torsions:
  status: ('A' for Active; 'I' for Inactive)
    1  A    between atoms: C_7  and  C_36
    2  A    between atoms: C_7  and  N_37
    3  A    between atoms: C_9  and  C_43
    4  A    between atoms: N_10  and  C_34
    5  A    between atoms: C_11  and  C_46
    6  A    between atoms: C_11  and  C_47
    7  A    between atoms: C_12  and  C_43
    8  A    between atoms: C_13  and  C_14
    9  A    between atoms: C_13  and  C_22
   10  A    between atoms: C_17  and  C_28
   11  A    between atoms: C_17  and  N_32
   12  A    between atoms: C_20  and  C_43
   13  A    between atoms: C_21  and  C_36
   14  A    between atoms: C_21  and  C_51
   15  A    between atoms: C_22  and  C_46
   16  A    between atoms: C_24  and  C_29
   17  A    between atoms: C_25  and  C_48
   18  A    between atoms: C_26  and  C_27
   19  A    between atoms: C_26  and  C_35
   20  A    between atoms: C_28  and  C_39
   21  A    between atoms: C_29  and  C_48
   22  A    between atoms: N_37  and  C_46
                            x       y       z     vdW  Elec       q    Type
                         _______ _______ _______ _____ _____    ______ ____

>  <TORSDO>
F 22

$$$$
=
 OpenBabel11032419253D

 51 53  0  0  1  0  0  0  0  0999 V2000
  184.7830  179.0940  140.4020 C   0  0  0  0  0  2  0  0  0  0  0  0
  184.3230  178.0120  139.4440 C   0  0  2  0  0  3  0  0  0  0  0  0
  183.1530  177.6300  137.2000 C   0  0  2  0  0  3  0  0  0  0  0  0
  184.5860  177.1340  137.3120 C   0  0  2  0  0  3  0  0  0  0  0  0
  185.2680  177.8870  138.3480 N   0  0  0  0  0  2  0  0  0  0  0  0
  182.7050  178.4450  138.7600 S   0  0  0  0  0  0  0  0  0  0  0  0
  182.1570  175.4020  137.8730 C   0  0  0  0  0  0  0  0  0  0  0  0
  182.2730  176.4960  136.9620 N   0  0  0  0  0  2  0  0  0  0  0  0
  182.8470  175.3710  138.9290 O   0  0  0  0  0  0  0  0  0  0  0  0
  181.1790  174.3120  137.5720 C   0  0  2  0  0  3  0  0  0  0  0  0
  183.9130  171.7700  136.6950 C   0  0  1  0  0  3  0  0  0  0  0  0
  181.5760  171.9140  137.1830 N   0  0  0  0  0  2  0  0  0  0  0  0
  184.8280  171.2770  135.6820 N   0  0  0  0  0  1  0  0  0  0  0  0
  183.5880  173.5280  136.4370 S   0  0  0  0  0  0  0  0  0  0  0  0
  181.7920  173.2540  136.6470 C   0  0  2  0  0  3  0  0  0  0  0  0
  182.5870  171.0630  136.5780 C   0  0  0  0  0  2  0  0  0  0  0  0
  179.9070  174.9130  136.9860 C   0  0  0  0  0  2  0  0  0  0  0  0
  179.7270  174.4520  135.6200 N   0  0  0  0  0  1  0  0  0  0  0  0
  185.3120  177.3090  135.9900 C   0  0  0  0  0  2  0  0  0  0  0  0
  186.8150  177.3190  136.2090 C   0  0  0  0  0  2  0  0  0  0  0  0
  189.0470  174.4220  136.5100 O   0  0  0  0  0  0  0  0  0  0  0  0
  187.3080  175.9560  136.3560 N   0  0  0  0  0  2  0  0  0  0  0  0
  188.7000  175.6260  136.3940 C   0  0  0  0  0  0  0  0  0  0  0  0
  189.7500  176.6900  136.3450 C   0  0  0  0  0  2  0  0  0  0  0  0
  190.4510  176.8260  137.6880 C   0  0  0  0  0  2  0  0  0  0  0  0
  191.8790  176.3200  137.5970 C   0  0  0  0  0  1  0  0  0  0  0  0
  186.0980  178.6820  141.0530 C   0  0  0  0  0  2  0  0  0  0  0  0
  184.7680  179.6490  142.9560 C   0  0  0  0  0  2  0  0  0  0  0  0
  186.0870  177.5510  143.2680 C   0  0  0  0  0  2  0  0  0  0  0  0
  186.0420  178.9050  142.5580 C   0  0  1  0  0  3  0  0  0  0  0  0
  184.7730  179.9300  144.4560 C   0  0  0  0  0  2  0  0  0  0  0  0
  184.9740  178.6510  145.2110 C   0  0  0  0  0  0  0  0  0  0  0  0
  184.2930  178.4070  146.1920 O   0  0  0  0  0  0  0  0  0  0  0  0
  186.0620  177.7000  144.7930 C   0  0  2  0  0  3  0  0  0  0  0  0
  187.4200  178.1630  145.3000 C   0  0  0  0  0  2  0  0  0  0  0  0
  188.1250  177.0290  146.0250 C   0  0  0  0  0  2  0  0  0  0  0  0
  189.3930  177.5390  146.6870 C   0  0  0  0  0  2  0  0  0  0  0  0
  190.3760  177.8890  145.6740 N   0  0  0  0  0  2  0  0  0  0  0  0
  190.8540  176.6460  145.0890 C   0  0  2  0  0  3  0  0  0  0  0  0
  192.0600  176.1310  145.8810 C   0  0  2  0  0  3  0  0  0  0  0  0
  192.4440  174.8640  145.4270 O   0  0  0  0  0  1  0  0  0  0  0  0
  192.1050  176.9870  148.1030 O   0  0  0  0  0  1  0  0  0  0  0  0
  191.0440  174.9740  147.8550 O   0  0  0  0  0  0  0  0  0  0  0  0
  191.7470  176.0560  147.3390 C   0  0  0  0  0  0  0  0  0  0  0  0
  191.2390  176.9100  143.6390 C   0  0  0  0  0  2  0  0  0  0  0  0
  190.2100  176.3630  142.6510 C   0  0  1  0  0  3  0  0  0  0  0  0
  189.1430  175.7770  143.3090 F   0  0  0  0  0  0  0  0  0  0  0  0
  188.6910  176.8660  140.9010 F   0  0  0  0  0  0  0  0  0  0  0  0
  190.7530  177.7650  140.7930 F   0  0  0  0  0  0  0  0  0  0  0  0
  189.7220  177.4050  141.6470 C   0  0  0  0  0  0  0  0  0  0  0  0
  189.2560  178.5280  142.3060 F   0  0  0  0  0  0  0  0  0  0  0  0
  1 27  1  0  0  0  0
  2  1  1  1  0  0  0
  3  8  1  1  0  0  0
  3  4  1  0  0  0  0
  3  6  1  0  0  0  0
  4 19  1  6  0  0  0
  4  5  1  0  0  0  0
  5  2  1  0  0  0  0
  6  2  1  0  0  0  0
  7  9  2  0  0  0  0
  8  7  1  0  0  0  0
 10 17  1  6  0  0  0
 10  7  1  0  0  0  0
 11 13  1  6  0  0  0
 14 15  1  0  0  0  0
 14 11  1  0  0  0  0
 15 12  1  0  0  0  0
 15 10  1  1  0  0  0
 16 11  1  0  0  0  0
 16 12  1  0  0  0  0
 18 17  1  0  0  0  0
 19 20  1  0  0  0  0
 20 22  1  0  0  0  0
 22 23  1  0  0  0  0
 23 21  2  0  0  0  0
 24 23  1  0  0  0  0
 24 25  1  0  0  0  0
 26 25  1  0  0  0  0
 28 31  1  0  0  0  0
 29 34  1  0  0  0  0
 30 27  1  6  0  0  0
 30 28  1  0  0  0  0
 30 29  1  0  0  0  0
 31 32  1  0  0  0  0
 32 33  2  0  0  0  0
 34 32  1  0  0  0  0
 34 35  1  6  0  0  0
 35 36  1  0  0  0  0
 36 37  1  0  0  0  0
 38 37  1  0  0  0  0
 39 45  1  6  0  0  0
 39 38  1  0  0  0  0
 39 40  1  0  0  0  0
 40 41  1  6  0  0  0
 40 44  1  0  0  0  0
 44 43  2  0  0  0  0
 44 42  1  0  0  0  0
 46 47  1  1  0  0  0
 46 45  1  0  0  0  0
 48 50  1  0  0  0  0
 49 50  1  0  0  0  0
 50 51  1  0  0  0  0
 50 46  1  0  0  0  0
M  END
>  <MODEL>
7

>  <REMARK>
 VINA RESULT:      -5.7      3.469      6.734
  Name = 
  22 active torsions:
  status: ('A' for Active; 'I' for Inactive)
    1  A    between atoms: C_7  and  C_36
    2  A    between atoms: C_7  and  N_37
    3  A    between atoms: C_9  and  C_43
    4  A    between atoms: N_10  and  C_34
    5  A    between atoms: C_11  and  C_46
    6  A    between atoms: C_11  and  C_47
    7  A    between atoms: C_12  and  C_43
    8  A    between atoms: C_13  and  C_14
    9  A    between atoms: C_13  and  C_22
   10  A    between atoms: C_17  and  C_28
   11  A    between atoms: C_17  and  N_32
   12  A    between atoms: C_20  and  C_43
   13  A    between atoms: C_21  and  C_36
   14  A    between atoms: C_21  and  C_51
   15  A    between atoms: C_22  and  C_46
   16  A    between atoms: C_24  and  C_29
   17  A    between atoms: C_25  and  C_48
   18  A    between atoms: C_26  and  C_27
   19  A    between atoms: C_26  and  C_35
   20  A    between atoms: C_28  and  C_39
   21  A    between atoms: C_29  and  C_48
   22  A    between atoms: N_37  and  C_46
                            x       y       z     vdW  Elec       q    Type
                         _______ _______ _______ _____ _____    ______ ____

>  <TORSDO>
F 22

$$$$
=
 OpenBabel11032419253D

 51 53  0  0  1  0  0  0  0  0999 V2000
  188.6440  177.2610  142.1340 C   0  0  0  0  0  2  0  0  0  0  0  0
  189.1510  176.8490  140.7650 C   0  0  2  0  0  3  0  0  0  0  0  0
  190.1040  177.7700  138.5740 C   0  0  2  0  0  3  0  0  0  0  0  0
  190.9970  176.8200  139.3580 C   0  0  2  0  0  3  0  0  0  0  0  0
  190.6040  176.8450  140.7550 N   0  0  0  0  0  2  0  0  0  0  0  0
  188.5720  178.0240  139.5170 S   0  0  0  0  0  0  0  0  0  0  0  0
  189.7970  175.7670  137.0560 C   0  0  0  0  0  0  0  0  0  0  0  0
  189.7980  177.1780  137.2810 N   0  0  0  0  0  2  0  0  0  0  0  0
  190.0890  174.9690  137.9880 O   0  0  0  0  0  0  0  0  0  0  0  0
  189.4080  175.2510  135.7080 C   0  0  2  0  0  3  0  0  0  0  0  0
  185.8990  176.3340  136.8100 C   0  0  1  0  0  3  0  0  0  0  0  0
  187.4980  176.6650  135.0640 N   0  0  0  0  0  2  0  0  0  0  0  0
  184.5180  175.9360  137.0180 N   0  0  0  0  0  1  0  0  0  0  0  0
  186.9940  174.9170  137.0380 S   0  0  0  0  0  0  0  0  0  0  0  0
  187.8910  175.3290  135.4980 C   0  0  2  0  0  3  0  0  0  0  0  0
  186.0890  176.8050  135.3920 C   0  0  0  0  0  2  0  0  0  0  0  0
  189.9360  173.8330  135.5300 C   0  0  0  0  0  2  0  0  0  0  0  0
  189.0950  173.1070  134.5940 N   0  0  0  0  0  1  0  0  0  0  0  0
  192.4520  177.2350  139.2290 C   0  0  0  0  0  2  0  0  0  0  0  0
  193.2580  176.1370  138.5570 C   0  0  0  0  0  2  0  0  0  0  0  0
  194.8330  176.2100  135.2440 O   0  0  0  0  0  0  0  0  0  0  0  0
  193.7030  176.5760  137.2420 N   0  0  0  0  0  2  0  0  0  0  0  0
  194.4740  175.7530  136.3610 C   0  0  0  0  0  0  0  0  0  0  0  0
  194.8230  174.3450  136.7220 C   0  0  0  0  0  2  0  0  0  0  0  0
  195.9320  174.3090  137.7630 C   0  0  0  0  0  2  0  0  0  0  0  0
  197.2920  174.4120  137.0960 C   0  0  0  0  0  1  0  0  0  0  0  0
  187.2990  177.9640  141.9960 C   0  0  0  0  0  2  0  0  0  0  0  0
  187.4540  177.6660  144.4890 C   0  0  0  0  0  2  0  0  0  0  0  0
  185.7330  179.1810  143.4970 C   0  0  0  0  0  2  0  0  0  0  0  0
  186.5180  177.8830  143.3010 C   0  0  1  0  0  3  0  0  0  0  0  0
  186.6430  177.5090  145.7710 C   0  0  0  0  0  2  0  0  0  0  0  0
  185.7300  178.6850  145.9420 C   0  0  0  0  0  0  0  0  0  0  0  0
  185.6230  179.2230  147.0300 O   0  0  0  0  0  0  0  0  0  0  0  0
  184.8990  179.1600  144.7810 C   0  0  2  0  0  3  0  0  0  0  0  0
  183.6670  178.2850  144.5950 C   0  0  0  0  0  2  0  0  0  0  0  0
  182.5410  179.0890  143.9690 C   0  0  0  0  0  2  0  0  0  0  0  0
  182.3460  178.6790  142.5200 C   0  0  0  0  0  2  0  0  0  0  0  0
  180.9540  178.8540  142.1370 N   0  0  0  0  0  2  0  0  0  0  0  0
  180.8580  178.5580  140.7160 C   0  0  2  0  0  3  0  0  0  0  0  0
  179.7870  177.4890  140.4800 C   0  0  2  0  0  3  0  0  0  0  0  0
  179.3450  176.9550  141.6950 O   0  0  0  0  0  1  0  0  0  0  0  0
  180.8260  175.3700  140.1550 O   0  0  0  0  0  1  0  0  0  0  0  0
  180.2250  176.4670  138.2380 O   0  0  0  0  0  0  0  0  0  0  0  0
  180.3140  176.3860  139.6220 C   0  0  0  0  0  0  0  0  0  0  0  0
  182.2170  178.0690  140.2310 C   0  0  0  0  0  2  0  0  0  0  0  0
  182.6680  178.7700  138.9500 C   0  0  1  0  0  3  0  0  0  0  0  0
  181.6760  179.5950  138.4520 F   0  0  0  0  0  0  0  0  0  0  0  0
  184.3620  179.5040  140.4370 F   0  0  0  0  0  0  0  0  0  0  0  0
  183.8150  180.8540  138.7190 F   0  0  0  0  0  0  0  0  0  0  0  0
  183.9800  179.5340  139.1090 C   0  0  0  0  0  0  0  0  0  0  0  0
  184.9740  178.9500  138.3460 F   0  0  0  0  0  0  0  0  0  0  0  0
  2  1  1  1  0  0  0
  3  8  1  6  0  0  0
  3  4  1  0  0  0  0
  3  6  1  0  0  0  0
  4 19  1  1  0  0  0
  4  5  1  0  0  0  0
  5  2  1  0  0  0  0
  6  2  1  0  0  0  0
  7  8  1  0  0  0  0
  7  9  2  0  0  0  0
 10 17  1  1  0  0  0
 10  7  1  0  0  0  0
 11 13  1  6  0  0  0
 11 14  1  0  0  0  0
 12 16  1  0  0  0  0
 12 15  1  0  0  0  0
 15 10  1  1  0  0  0
 15 14  1  0  0  0  0
 16 11  1  0  0  0  0
 18 17  1  0  0  0  0
 20 19  1  0  0  0  0
 21 23  2  0  0  0  0
 22 20  1  0  0  0  0
 23 24  1  0  0  0  0
 23 22  1  0  0  0  0
 24 25  1  0  0  0  0
 26 25  1  0  0  0  0
 27  1  1  0  0  0  0
 28 31  1  0  0  0  0
 29 34  1  0  0  0  0
 30 27  1  6  0  0  0
 30 29  1  0  0  0  0
 30 28  1  0  0  0  0
 31 32  1  0  0  0  0
 32 33  2  0  0  0  0
 34 35  1  6  0  0  0
 34 32  1  0  0  0  0
 36 35  1  0  0  0  0
 37 36  1  0  0  0  0
 38 37  1  0  0  0  0
 39 45  1  1  0  0  0
 39 38  1  0  0  0  0
 40 39  1  0  0  0  0
 40 41  1  1  0  0  0
 43 44  2  0  0  0  0
 44 42  1  0  0  0  0
 44 40  1  0  0  0  0
 46 47  1  1  0  0  0
 46 50  1  0  0  0  0
 46 45  1  0  0  0  0
 49 50  1  0  0  0  0
 50 48  1  0  0  0  0
 51 50  1  0  0  0  0
M  END
>  <MODEL>
8

>  <REMARK>
 VINA RESULT:      -5.6      3.708      8.049
  Name = 
  22 active torsions:
  status: ('A' for Active; 'I' for Inactive)
    1  A    between atoms: C_7  and  C_36
    2  A    between atoms: C_7  and  N_37
    3  A    between atoms: C_9  and  C_43
    4  A    between atoms: N_10  and  C_34
    5  A    between atoms: C_11  and  C_46
    6  A    between atoms: C_11  and  C_47
    7  A    between atoms: C_12  and  C_43
    8  A    between atoms: C_13  and  C_14
    9  A    between atoms: C_13  and  C_22
   10  A    between atoms: C_17  and  C_28
   11  A    between atoms: C_17  and  N_32
   12  A    between atoms: C_20  and  C_43
   13  A    between atoms: C_21  and  C_36
   14  A    between atoms: C_21  and  C_51
   15  A    between atoms: C_22  and  C_46
   16  A    between atoms: C_24  and  C_29
   17  A    between atoms: C_25  and  C_48
   18  A    between atoms: C_26  and  C_27
   19  A    between atoms: C_26  and  C_35
   20  A    between atoms: C_28  and  C_39
   21  A    between atoms: C_29  and  C_48
   22  A    between atoms: N_37  and  C_46
                            x       y       z     vdW  Elec       q    Type
                         _______ _______ _______ _____ _____    ______ ____

>  <TORSDO>
F 22

$$$$
=
 OpenBabel11032419253D

 51 53  0  0  1  0  0  0  0  0999 V2000
  187.0190  177.8730  138.2350 C   0  0  0  0  0  2  0  0  0  0  0  0
  188.2640  177.0110  138.1510 C   0  0  2  0  0  3  0  0  0  0  0  0
  190.8050  177.1110  137.8530 C   0  0  2  0  0  3  0  0  0  0  0  0
  190.2960  176.5150  139.1560 C   0  0  2  0  0  3  0  0  0  0  0  0
  188.9650  177.0270  139.4230 N   0  0  0  0  0  2  0  0  0  0  0  0
  189.3740  177.6580  136.8770 S   0  0  0  0  0  0  0  0  0  0  0  0
  192.9710  176.0500  137.0860 C   0  0  0  0  0  0  0  0  0  0  0  0
  191.5440  176.0940  137.1210 N   0  0  0  0  0  2  0  0  0  0  0  0
  193.6550  176.9260  137.6840 O   0  0  0  0  0  0  0  0  0  0  0  0
  193.6420  174.9290  136.3580 C   0  0  2  0  0  3  0  0  0  0  0  0
  195.6250  171.8340  137.4510 C   0  0  1  0  0  3  0  0  0  0  0  0
  194.9330  173.9870  138.2300 N   0  0  0  0  0  2  0  0  0  0  0  0
  195.5740  170.4300  137.8160 N   0  0  0  0  0  1  0  0  0  0  0  0
  194.2830  172.2280  136.3080 S   0  0  0  0  0  0  0  0  0  0  0  0
  193.8610  173.7210  137.2770 C   0  0  2  0  0  3  0  0  0  0  0  0
  195.4170  172.6900  138.6740 C   0  0  0  0  0  2  0  0  0  0  0  0
  194.9460  175.4230  135.7460 C   0  0  0  0  0  2  0  0  0  0  0  0
  194.7040  176.6350  134.9810 N   0  0  0  0  0  1  0  0  0  0  0  0
  191.2230  176.8810  140.3020 C   0  0  0  0  0  2  0  0  0  0  0  0
  190.4230  177.3910  141.4890 C   0  0  0  0  0  2  0  0  0  0  0  0
  191.7580  178.6990  144.6460 O   0  0  0  0  0  0  0  0  0  0  0  0
  191.3170  177.9630  142.4860 N   0  0  0  0  0  2  0  0  0  0  0  0
  190.9330  178.1860  143.8460 C   0  0  0  0  0  0  0  0  0  0  0  0
  189.5830  177.7820  144.3470 C   0  0  0  0  0  2  0  0  0  0  0  0
  189.6940  177.0220  145.6600 C   0  0  0  0  0  2  0  0  0  0  0  0
  188.9500  177.7530  146.7620 C   0  0  0  0  0  1  0  0  0  0  0  0
  186.4140  178.0410  136.8470 C   0  0  0  0  0  2  0  0  0  0  0  0
  184.9280  176.0910  136.2840 C   0  0  0  0  0  2  0  0  0  0  0  0
  184.4100  177.5570  138.2400 C   0  0  0  0  0  2  0  0  0  0  0  0
  184.9830  177.5200  136.8210 C   0  0  1  0  0  3  0  0  0  0  0  0
  183.4790  175.6210  136.1940 C   0  0  0  0  0  2  0  0  0  0  0  0
  182.8100  175.7810  137.5260 C   0  0  0  0  0  0  0  0  0  0  0  0
  182.1070  174.8890  137.9680 O   0  0  0  0  0  0  0  0  0  0  0  0
  182.9590  177.0710  138.2870 C   0  0  2  0  0  3  0  0  0  0  0  0
  182.0260  178.1410  137.7370 C   0  0  0  0  0  2  0  0  0  0  0  0
  182.4570  179.5150  138.2250 C   0  0  0  0  0  2  0  0  0  0  0  0
  181.4270  180.0750  139.1890 C   0  0  0  0  0  2  0  0  0  0  0  0
  181.9470  180.0380  140.5470 N   0  0  0  0  0  2  0  0  0  0  0  0
  181.3620  178.8780  141.2010 C   0  0  2  0  0  3  0  0  0  0  0  0
  180.1300  179.3020  142.0060 C   0  0  2  0  0  3  0  0  0  0  0  0
  180.4170  180.4190  142.7990 O   0  0  0  0  0  1  0  0  0  0  0  0
  179.2930  177.1010  142.3670 O   0  0  0  0  0  0  0  0  0  0  0  0
  179.6340  178.3380  144.2620 O   0  0  0  0  0  1  0  0  0  0  0  0
  179.6560  178.1880  142.8810 C   0  0  0  0  0  0  0  0  0  0  0  0
  182.4110  178.2570  142.1150 C   0  0  0  0  0  2  0  0  0  0  0  0
  183.4120  179.2860  142.6400 C   0  0  1  0  0  3  0  0  0  0  0  0
  183.2100  179.5430  143.9830 F   0  0  0  0  0  0  0  0  0  0  0  0
  185.0010  178.5350  141.0470 F   0  0  0  0  0  0  0  0  0  0  0  0
  185.2340  177.8340  143.1740 F   0  0  0  0  0  0  0  0  0  0  0  0
  184.8660  178.9040  142.3730 C   0  0  0  0  0  0  0  0  0  0  0  0
  185.7010  179.9760  142.6240 F   0  0  0  0  0  0  0  0  0  0  0  0
  2  1  1  1  0  0  0
  2  5  1  0  0  0  0
  3  8  1  6  0  0  0
  3  4  1  0  0  0  0
  4  5  1  0  0  0  0
  4 19  1  1  0  0  0
  6  3  1  0  0  0  0
  6  2  1  0  0  0  0
  7  8  1  0  0  0  0
  7  9  2  0  0  0  0
 10 17  1  1  0  0  0
 10  7  1  0  0  0  0
 11 13  1  1  0  0  0
 11 16  1  0  0  0  0
 12 16  1  0  0  0  0
 14 15  1  0  0  0  0
 14 11  1  0  0  0  0
 15 10  1  6  0  0  0
 15 12  1  0  0  0  0
 18 17  1  0  0  0  0
 19 20  1  0  0  0  0
 20 22  1  0  0  0  0
 22 23  1  0  0  0  0
 23 24  1  0  0  0  0
 23 21  2  0  0  0  0
 24 25  1  0  0  0  0
 25 26  1  0  0  0  0
 27  1  1  0  0  0  0
 28 30  1  0  0  0  0
 29 34  1  0  0  0  0
 30 27  1  1  0  0  0
 30 29  1  0  0  0  0
 31 28  1  0  0  0  0
 31 32  1  0  0  0  0
 32 33  2  0  0  0  0
 32 34  1  0  0  0  0
 34 35  1  6  0  0  0
 35 36  1  0  0  0  0
 36 37  1  0  0  0  0
 37 38  1  0  0  0  0
 38 39  1  0  0  0  0
 39 40  1  0  0  0  0
 39 45  1  1  0  0  0
 40 41  1  1  0  0  0
 40 44  1  0  0  0  0
 42 44  2  0  0  0  0
 44 43  1  0  0  0  0
 45 46  1  0  0  0  0
 46 47  1  1  0  0  0
 48 50  1  0  0  0  0
 50 51  1  0  0  0  0
 50 46  1  0  0  0  0
 50 49  1  0  0  0  0
M  END
>  <MODEL>
9

>  <REMARK>
 VINA RESULT:      -5.6      2.797      7.015
  Name = 
  22 active torsions:
  status: ('A' for Active; 'I' for Inactive)
    1  A    between atoms: C_7  and  C_36
    2  A    between atoms: C_7  and  N_37
    3  A    between atoms: C_9  and  C_43
    4  A    between atoms: N_10  and  C_34
    5  A    between atoms: C_11  and  C_46
    6  A    between atoms: C_11  and  C_47
    7  A    between atoms: C_12  and  C_43
    8  A    between atoms: C_13  and  C_14
    9  A    between atoms: C_13  and  C_22
   10  A    between atoms: C_17  and  C_28
   11  A    between atoms: C_17  and  N_32
   12  A    between atoms: C_20  and  C_43
   13  A    between atoms: C_21  and  C_36
   14  A    between atoms: C_21  and  C_51
   15  A    between atoms: C_22  and  C_46
   16  A    between atoms: C_24  and  C_29
   17  A    between atoms: C_25  and  C_48
   18  A    between atoms: C_26  and  C_27
   19  A    between atoms: C_26  and  C_35
   20  A    between atoms: C_28  and  C_39
   21  A    between atoms: C_29  and  C_48
   22  A    between atoms: N_37  and  C_46
                            x       y       z     vdW  Elec       q    Type
                         _______ _______ _______ _____ _____    ______ ____

>  <TORSDO>
F 22

$$$$
