=
 OpenBabel11042412593D

 42 44  0  0  1  0  0  0  0  0999 V2000
  186.5280  177.8910  142.7180 C   0  0  0  0  0  0  0  0  0  0  0  0
  187.1560  178.3770  141.5620 C   0  0  0  0  0  3  0  0  0  0  0  0
  189.1160  177.0270  142.0370 C   0  0  0  0  0  0  0  0  0  0  0  0
  188.4890  176.5380  143.1870 C   0  0  0  0  0  3  0  0  0  0  0  0
  188.4450  177.9550  141.2170 C   0  0  0  0  0  0  0  0  0  0  0  0
  187.2060  176.9690  143.5280 C   0  0  0  0  0  3  0  0  0  0  0  0
  184.1470  178.3180  142.1820 N   0  0  0  0  0  0  0  0  0  0  0  0
  181.7730  178.8400  141.9900 N   0  0  0  0  0  2  0  0  0  0  0  0
  183.2040  179.2050  144.3280 S   0  0  0  0  0  0  0  0  0  0  0  0
  185.1690  178.3340  143.0830 C   0  0  0  0  0  0  0  0  0  0  0  0
  184.8400  178.8040  144.3590 C   0  0  0  0  0  3  0  0  0  0  0  0
  182.9990  178.7710  142.7210 C   0  0  0  0  0  0  0  0  0  0  0  0
  180.5400  179.3640  142.5610 C   0  0  1  0  0  3  0  0  0  0  0  0
  179.7790  180.1480  141.5080 C   0  0  0  0  0  1  0  0  0  0  0  0
  179.4330  178.6280  144.3270 C   0  0  0  0  0  1  0  0  0  0  0  0
  179.7500  178.3040  143.0080 O   0  0  0  0  0  0  0  0  0  0  0  0
  190.4780  176.5220  141.6940 C   0  0  0  0  0  2  0  0  0  0  0  0
  191.2550  176.3420  142.9080 N   0  0  0  0  0  2  0  0  0  0  0  0
  191.6910  177.6600  143.3360 C   0  0  0  0  0  2  0  0  0  0  0  0
  191.5820  177.7690  144.8430 C   0  0  0  0  0  2  0  0  0  0  0  0
  191.4330  176.3820  145.4400 C   0  0  0  0  0  2  0  0  0  0  0  0
  191.5070  176.4490  146.9300 C   0  0  0  0  0  0  0  0  0  0  0  0
  190.7110  177.1310  147.5540 O   0  0  0  0  0  0  0  0  0  0  0  0
  193.0450  176.4300  148.7220 O   0  0  0  0  0  1  0  0  0  0  0  0
  192.5500  175.6730  147.6610 C   0  0  0  0  0  2  0  0  0  0  0  0
  189.2020  178.6130  139.7280 S   0  0  0  0  0  0  0  0  0  0  0  0
  188.7110  177.1720  138.7340 C   0  0  0  0  0  2  0  0  0  0  0  0
  187.2930  177.2470  138.4180 N   0  0  0  0  0  2  0  0  0  0  0  0
  187.6310  177.9020  136.2020 O   0  0  0  0  0  0  0  0  0  0  0  0
  186.8190  177.5790  137.1100 C   0  0  0  0  0  0  0  0  0  0  0  0
  185.4210  177.5570  136.8240 N   0  0  0  0  0  2  0  0  0  0  0  0
  182.1460  176.1330  139.3880 C   0  0  0  0  0  2  0  0  0  0  0  0
  184.1460  179.1810  138.8700 O   0  0  0  0  0  0  0  0  0  0  0  0
  184.4390  177.0990  137.7990 C   0  0  1  0  0  3  0  0  0  0  0  0
  183.6110  178.2790  138.2400 C   0  0  0  0  0  0  0  0  0  0  0  0
  181.3670  177.3910  138.9820 C   0  0  0  0  0  2  0  0  0  0  0  0
  182.6280  175.2730  138.2110 C   0  0  1  0  0  3  0  0  0  0  0  0
  184.4490  174.8880  136.5620 C   0  0  0  0  0  1  0  0  0  0  0  0
  181.4480  174.6460  137.4880 C   0  0  0  0  0  1  0  0  0  0  0  0
  183.5780  175.9570  137.2070 C   0  0  2  0  0  3  0  0  0  0  0  0
  182.1200  178.2920  138.0000 C   0  0  1  0  0  3  0  0  0  0  0  0
  181.5340  179.6940  138.0130 C   0  0  0  0  0  1  0  0  0  0  0  0
  1 10  1  0  0  0  0
  1  6  1  0  0  0  0
  2  1  2  0  0  0  0
  3  4  1  0  0  0  0
  4  6  2  0  0  0  0
  5  2  1  0  0  0  0
  5  3  2  0  0  0  0
  7 12  2  0  0  0  0
  7 10  1  0  0  0  0
  8 13  1  0  0  0  0
  8 12  1  0  0  0  0
  9 11  1  0  0  0  0
 10 11  2  0  0  0  0
 12  9  1  0  0  0  0
 13 14  1  6  0  0  0
 13 16  1  0  0  0  0
 16 15  1  0  0  0  0
 17  3  1  0  0  0  0
 17 18  1  0  0  0  0
 18 19  1  0  0  0  0
 19 20  1  0  0  0  0
 20 21  1  0  0  0  0
 21 22  1  0  0  0  0
 22 23  2  0  0  0  0
 22 25  1  0  0  0  0
 25 24  1  0  0  0  0
 26  5  1  0  0  0  0
 27 26  1  0  0  0  0
 28 27  1  0  0  0  0
 29 30  2  0  0  0  0
 30 28  1  0  0  0  0
 31 30  1  0  0  0  0
 34 31  1  6  0  0  0
 34 35  1  0  0  0  0
 35 33  2  0  0  0  0
 36 32  1  0  0  0  0
 37 39  1  6  0  0  0
 37 32  1  0  0  0  0
 40 38  1  1  0  0  0
 40 34  1  0  0  0  0
 40 37  1  0  0  0  0
 41 42  1  1  0  0  0
 41 35  1  0  0  0  0
 41 36  1  0  0  0  0
M  END
>  <MODEL>
1

>  <REMARK>
 VINA RESULT:      -7.7      0.000      0.000
  Name = 
  14 active torsions:
  status: ('A' for Active; 'I' for Inactive)
    1  A    between atoms: C_1  and  C_7
    2  A    between atoms: C_1  and  C_27
    3  A    between atoms: C_2  and  N_20
    4  A    between atoms: C_2  and  C_22
    5  A    between atoms: C_6  and  C_26
    6  A    between atoms: C_8  and  N_29
    7  A    between atoms: N_12  and  C_25
    8  A    between atoms: C_16  and  C_19
    9  A    between atoms: C_19  and  N_20
   10  A    between atoms: N_21  and  C_38
   11  A    between atoms: C_22  and  C_27
   12  A    between atoms: C_25  and  O_41
   13  A    between atoms: S_28  and  C_38
   14  A    between atoms: S_28  and  C_39
                            x       y       z     vdW  Elec       q    Type
                         _______ _______ _______ _____ _____    ______ ____

>  <TORSDO>
F 14

$$$$
=
 OpenBabel11042412593D

 42 44  0  0  1  0  0  0  0  0999 V2000
  184.3680  178.4530  142.8480 C   0  0  0  0  0  0  0  0  0  0  0  0
  185.6180  178.0580  142.3480 C   0  0  0  0  0  3  0  0  0  0  0  0
  186.5430  178.0760  144.5910 C   0  0  0  0  0  0  0  0  0  0  0  0
  185.2970  178.4650  145.0920 C   0  0  0  0  0  3  0  0  0  0  0  0
  186.7060  177.8710  143.2080 C   0  0  0  0  0  0  0  0  0  0  0  0
  184.2170  178.6550  144.2260 C   0  0  0  0  0  3  0  0  0  0  0  0
  183.3600  178.5930  140.5880 N   0  0  0  0  0  0  0  0  0  0  0  0
  182.0630  178.7860  138.5330 N   0  0  0  0  0  2  0  0  0  0  0  0
  180.9430  179.0730  141.0450 S   0  0  0  0  0  0  0  0  0  0  0  0
  183.2200  178.6490  141.9430 C   0  0  0  0  0  0  0  0  0  0  0  0
  181.9250  178.9120  142.4040 C   0  0  0  0  0  3  0  0  0  0  0  0
  182.1910  178.8080  139.9560 C   0  0  0  0  0  0  0  0  0  0  0  0
  180.8070  179.0550  137.8480 C   0  0  1  0  0  3  0  0  0  0  0  0
  180.8670  180.4180  137.1820 C   0  0  0  0  0  1  0  0  0  0  0  0
  181.5040  178.3700  135.8640 C   0  0  0  0  0  1  0  0  0  0  0  0
  180.5900  178.0760  136.8770 O   0  0  0  0  0  0  0  0  0  0  0  0
  187.6640  177.8580  145.5510 C   0  0  0  0  0  2  0  0  0  0  0  0
  187.1310  177.5620  146.8700 N   0  0  0  0  0  2  0  0  0  0  0  0
  188.2600  177.5050  147.7830 C   0  0  0  0  0  2  0  0  0  0  0  0
  189.5480  177.7240  147.0160 C   0  0  0  0  0  2  0  0  0  0  0  0
  190.6020  176.7530  147.5140 C   0  0  0  0  0  2  0  0  0  0  0  0
  191.5290  176.3820  146.4030 C   0  0  0  0  0  0  0  0  0  0  0  0
  192.4300  175.5830  146.5960 O   0  0  0  0  0  0  0  0  0  0  0  0
  191.6660  176.0360  144.0710 O   0  0  0  0  0  1  0  0  0  0  0  0
  191.3470  176.9780  145.0480 C   0  0  0  0  0  2  0  0  0  0  0  0
  188.2830  177.3690  142.5110 S   0  0  0  0  0  0  0  0  0  0  0  0
  188.1550  178.5560  141.1390 C   0  0  0  0  0  2  0  0  0  0  0  0
  187.8910  177.8500  139.8950 N   0  0  0  0  0  2  0  0  0  0  0  0
  189.0520  179.3780  138.5640 O   0  0  0  0  0  0  0  0  0  0  0  0
  188.4110  178.2970  138.6390 C   0  0  0  0  0  0  0  0  0  0  0  0
  188.1980  177.5250  137.4570 N   0  0  0  0  0  2  0  0  0  0  0  0
  186.4050  173.5260  137.1000 C   0  0  0  0  0  2  0  0  0  0  0  0
  185.3340  177.0280  137.4960 O   0  0  0  0  0  0  0  0  0  0  0  0
  187.5510  176.2190  137.4910 C   0  0  1  0  0  3  0  0  0  0  0  0
  186.1670  176.3510  136.9080 C   0  0  0  0  0  0  0  0  0  0  0  0
  185.5220  174.0940  135.9800 C   0  0  0  0  0  2  0  0  0  0  0  0
  187.9120  173.7140  136.8780 C   0  0  1  0  0  3  0  0  0  0  0  0
  189.8630  175.2230  137.2050 C   0  0  0  0  0  1  0  0  0  0  0  0
  188.3880  172.8790  135.7010 C   0  0  0  0  0  1  0  0  0  0  0  0
  188.4110  175.1680  136.7490 C   0  0  2  0  0  3  0  0  0  0  0  0
  185.7860  175.5690  135.6740 C   0  0  1  0  0  3  0  0  0  0  0  0
  184.6060  176.1760  134.9340 C   0  0  0  0  0  1  0  0  0  0  0  0
  1  6  1  0  0  0  0
  2  1  2  0  0  0  0
  2  5  1  0  0  0  0
  3  4  1  0  0  0  0
  3 17  1  0  0  0  0
  5  3  2  0  0  0  0
  6  4  2  0  0  0  0
  7 10  1  0  0  0  0
  8 12  1  0  0  0  0
  9 11  1  0  0  0  0
 10 11  2  0  0  0  0
 10  1  1  0  0  0  0
 12  7  2  0  0  0  0
 12  9  1  0  0  0  0
 13 14  1  6  0  0  0
 13  8  1  0  0  0  0
 15 16  1  0  0  0  0
 16 13  1  0  0  0  0
 17 18  1  0  0  0  0
 18 19  1  0  0  0  0
 20 21  1  0  0  0  0
 20 19  1  0  0  0  0
 22 23  2  0  0  0  0
 22 21  1  0  0  0  0
 24 25  1  0  0  0  0
 25 22  1  0  0  0  0
 26  5  1  0  0  0  0
 27 26  1  0  0  0  0
 28 27  1  0  0  0  0
 29 30  2  0  0  0  0
 30 28  1  0  0  0  0
 31 30  1  0  0  0  0
 34 31  1  6  0  0  0
 35 34  1  0  0  0  0
 35 33  2  0  0  0  0
 36 32  1  0  0  0  0
 37 39  1  6  0  0  0
 37 32  1  0  0  0  0
 40 37  1  0  0  0  0
 40 38  1  1  0  0  0
 40 34  1  0  0  0  0
 41 42  1  1  0  0  0
 41 36  1  0  0  0  0
 41 35  1  0  0  0  0
M  END
>  <MODEL>
2

>  <REMARK>
 VINA RESULT:      -7.4      2.441      4.248
  Name = 
  14 active torsions:
  status: ('A' for Active; 'I' for Inactive)
    1  A    between atoms: C_1  and  C_7
    2  A    between atoms: C_1  and  C_27
    3  A    between atoms: C_2  and  N_20
    4  A    between atoms: C_2  and  C_22
    5  A    between atoms: C_6  and  C_26
    6  A    between atoms: C_8  and  N_29
    7  A    between atoms: N_12  and  C_25
    8  A    between atoms: C_16  and  C_19
    9  A    between atoms: C_19  and  N_20
   10  A    between atoms: N_21  and  C_38
   11  A    between atoms: C_22  and  C_27
   12  A    between atoms: C_25  and  O_41
   13  A    between atoms: S_28  and  C_38
   14  A    between atoms: S_28  and  C_39
                            x       y       z     vdW  Elec       q    Type
                         _______ _______ _______ _____ _____    ______ ____

>  <TORSDO>
F 14

$$$$
=
 OpenBabel11042412593D

 42 44  0  0  1  0  0  0  0  0999 V2000
  188.5730  177.3030  141.6950 C   0  0  0  0  0  0  0  0  0  0  0  0
  187.2620  177.7910  141.7930 C   0  0  0  0  0  3  0  0  0  0  0  0
  187.2570  177.3470  144.1790 C   0  0  0  0  0  0  0  0  0  0  0  0
  188.5660  176.8650  144.0830 C   0  0  0  0  0  3  0  0  0  0  0  0
  186.5990  177.8140  143.0250 C   0  0  0  0  0  0  0  0  0  0  0  0
  189.2190  176.8400  142.8490 C   0  0  0  0  0  3  0  0  0  0  0  0
  190.2720  176.3860  140.1400 N   0  0  0  0  0  0  0  0  0  0  0  0
  191.8230  175.7230  138.3800 N   0  0  0  0  0  2  0  0  0  0  0  0
  190.0120  177.7900  138.0800 S   0  0  0  0  0  0  0  0  0  0  0  0
  189.2740  177.2790  140.3970 C   0  0  0  0  0  0  0  0  0  0  0  0
  188.9750  178.1650  139.3550 C   0  0  0  0  0  3  0  0  0  0  0  0
  190.7770  176.5450  138.9020 C   0  0  0  0  0  0  0  0  0  0  0  0
  192.3950  175.9180  137.0560 C   0  0  1  0  0  3  0  0  0  0  0  0
  193.8870  175.6390  137.0950 C   0  0  0  0  0  1  0  0  0  0  0  0
  192.8450  174.3910  135.5210 C   0  0  0  0  0  1  0  0  0  0  0  0
  191.7870  175.0430  136.1550 O   0  0  0  0  0  0  0  0  0  0  0  0
  186.6030  177.3820  145.5200 C   0  0  0  0  0  2  0  0  0  0  0  0
  187.2540  178.3740  146.3590 N   0  0  0  0  0  2  0  0  0  0  0  0
  187.6850  177.6930  147.5690 C   0  0  0  0  0  2  0  0  0  0  0  0
  189.1830  177.8440  147.7330 C   0  0  0  0  0  2  0  0  0  0  0  0
  189.8520  176.5000  147.5130 C   0  0  0  0  0  2  0  0  0  0  0  0
  191.3000  176.6880  147.1980 C   0  0  0  0  0  0  0  0  0  0  0  0
  192.0920  176.9510  148.0870 O   0  0  0  0  0  0  0  0  0  0  0  0
  191.8100  177.7910  145.1730 O   0  0  0  0  0  1  0  0  0  0  0  0
  191.7840  176.5430  145.7940 C   0  0  0  0  0  2  0  0  0  0  0  0
  184.9190  178.4450  143.0920 S   0  0  0  0  0  0  0  0  0  0  0  0
  185.1140  179.3800  141.5440 C   0  0  0  0  0  2  0  0  0  0  0  0
  184.6340  178.5880  140.4220 N   0  0  0  0  0  2  0  0  0  0  0  0
  184.1700  180.4380  139.0740 O   0  0  0  0  0  0  0  0  0  0  0  0
  184.2140  179.1840  139.1910 C   0  0  0  0  0  0  0  0  0  0  0  0
  183.8320  178.3630  138.0880 N   0  0  0  0  0  2  0  0  0  0  0  0
  184.1760  173.9970  137.7100 C   0  0  0  0  0  2  0  0  0  0  0  0
  181.8100  176.4950  139.0220 O   0  0  0  0  0  0  0  0  0  0  0  0
  183.9530  176.9110  138.1250 C   0  0  1  0  0  3  0  0  0  0  0  0
  182.5700  176.3100  138.0810 C   0  0  0  0  0  0  0  0  0  0  0  0
  182.7810  174.0070  137.0710 C   0  0  0  0  0  2  0  0  0  0  0  0
  185.2000  174.9090  137.0200 C   0  0  1  0  0  3  0  0  0  0  0  0
  186.1530  177.2040  136.9050 C   0  0  0  0  0  1  0  0  0  0  0  0
  185.5280  174.3910  135.6310 C   0  0  0  0  0  1  0  0  0  0  0  0
  184.8550  176.4120  136.9710 C   0  0  2  0  0  3  0  0  0  0  0  0
  182.1730  175.4050  136.9410 C   0  0  1  0  0  3  0  0  0  0  0  0
  180.6670  175.3120  136.7600 C   0  0  0  0  0  1  0  0  0  0  0  0
  1  2  2  0  0  0  0
  1  6  1  0  0  0  0
  2  5  1  0  0  0  0
  3 17  1  0  0  0  0
  4  3  1  0  0  0  0
  5 26  1  0  0  0  0
  5  3  2  0  0  0  0
  6  4  2  0  0  0  0
  7 10  1  0  0  0  0
  8 12  1  0  0  0  0
  9 12  1  0  0  0  0
  9 11  1  0  0  0  0
 10  1  1  0  0  0  0
 11 10  2  0  0  0  0
 12  7  2  0  0  0  0
 13 14  1  1  0  0  0
 13  8  1  0  0  0  0
 15 16  1  0  0  0  0
 16 13  1  0  0  0  0
 17 18  1  0  0  0  0
 18 19  1  0  0  0  0
 19 20  1  0  0  0  0
 21 20  1  0  0  0  0
 22 21  1  0  0  0  0
 22 23  2  0  0  0  0
 24 25  1  0  0  0  0
 25 22  1  0  0  0  0
 27 26  1  0  0  0  0
 28 27  1  0  0  0  0
 29 30  2  0  0  0  0
 30 28  1  0  0  0  0
 31 30  1  0  0  0  0
 34 31  1  6  0  0  0
 35 34  1  0  0  0  0
 35 33  2  0  0  0  0
 36 32  1  0  0  0  0
 37 39  1  6  0  0  0
 37 32  1  0  0  0  0
 40 38  1  1  0  0  0
 40 37  1  0  0  0  0
 40 34  1  0  0  0  0
 41 42  1  1  0  0  0
 41 36  1  0  0  0  0
 41 35  1  0  0  0  0
M  END
>  <MODEL>
3

>  <REMARK>
 VINA RESULT:      -7.3      2.541      6.363
  Name = 
  14 active torsions:
  status: ('A' for Active; 'I' for Inactive)
    1  A    between atoms: C_1  and  C_7
    2  A    between atoms: C_1  and  C_27
    3  A    between atoms: C_2  and  N_20
    4  A    between atoms: C_2  and  C_22
    5  A    between atoms: C_6  and  C_26
    6  A    between atoms: C_8  and  N_29
    7  A    between atoms: N_12  and  C_25
    8  A    between atoms: C_16  and  C_19
    9  A    between atoms: C_19  and  N_20
   10  A    between atoms: N_21  and  C_38
   11  A    between atoms: C_22  and  C_27
   12  A    between atoms: C_25  and  O_41
   13  A    between atoms: S_28  and  C_38
   14  A    between atoms: S_28  and  C_39
                            x       y       z     vdW  Elec       q    Type
                         _______ _______ _______ _____ _____    ______ ____

>  <TORSDO>
F 14

$$$$
=
 OpenBabel11042412593D

 42 44  0  0  1  0  0  0  0  0999 V2000
  186.0470  178.1260  143.1110 C   0  0  0  0  0  0  0  0  0  0  0  0
  186.7360  178.2480  141.8960 C   0  0  0  0  0  3  0  0  0  0  0  0
  188.7980  177.5580  142.9740 C   0  0  0  0  0  0  0  0  0  0  0  0
  188.1110  177.4300  144.1850 C   0  0  0  0  0  3  0  0  0  0  0  0
  188.1050  177.9700  141.8190 C   0  0  0  0  0  0  0  0  0  0  0  0
  186.7460  177.7160  144.2540 C   0  0  0  0  0  3  0  0  0  0  0  0
  183.7920  178.3240  142.1010 N   0  0  0  0  0  0  0  0  0  0  0  0
  181.4650  178.6080  141.4320 N   0  0  0  0  0  2  0  0  0  0  0  0
  182.3450  179.0450  144.0160 S   0  0  0  0  0  0  0  0  0  0  0  0
  184.6030  178.4170  143.1930 C   0  0  0  0  0  0  0  0  0  0  0  0
  183.9740  178.8120  144.3790 C   0  0  0  0  0  3  0  0  0  0  0  0
  182.5170  178.6410  142.3980 C   0  0  0  0  0  0  0  0  0  0  0  0
  180.0940  178.9850  141.7430 C   0  0  1  0  0  3  0  0  0  0  0  0
  179.4530  179.6370  140.5310 C   0  0  0  0  0  1  0  0  0  0  0  0
  179.4560  177.0120  140.9770 C   0  0  0  0  0  1  0  0  0  0  0  0
  179.3680  177.8460  142.0920 O   0  0  0  0  0  0  0  0  0  0  0  0
  190.2500  177.2190  142.9350 C   0  0  0  0  0  2  0  0  0  0  0  0
  190.4200  175.7770  143.0020 N   0  0  0  0  0  2  0  0  0  0  0  0
  191.5560  175.5220  143.8720 C   0  0  0  0  0  2  0  0  0  0  0  0
  191.6490  176.6100  144.9230 C   0  0  0  0  0  2  0  0  0  0  0  0
  192.0070  175.9890  146.2600 C   0  0  0  0  0  2  0  0  0  0  0  0
  191.3210  176.7190  147.3680 C   0  0  0  0  0  0  0  0  0  0  0  0
  191.9650  177.1510  148.3100 O   0  0  0  0  0  0  0  0  0  0  0  0
  189.4860  177.9400  148.2160 O   0  0  0  0  0  1  0  0  0  0  0  0
  189.8450  176.9320  147.3220 C   0  0  0  0  0  2  0  0  0  0  0  0
  188.9380  178.1480  140.2380 S   0  0  0  0  0  0  0  0  0  0  0  0
  187.3690  178.2010  139.3180 C   0  0  0  0  0  2  0  0  0  0  0  0
  187.5310  177.5570  138.0240 N   0  0  0  0  0  2  0  0  0  0  0  0
  187.2830  179.5320  136.8020 O   0  0  0  0  0  0  0  0  0  0  0  0
  187.5210  178.2950  136.7980 C   0  0  0  0  0  0  0  0  0  0  0  0
  187.7690  177.6330  135.5580 N   0  0  0  0  0  2  0  0  0  0  0  0
  188.7240  173.3490  135.8180 C   0  0  0  0  0  2  0  0  0  0  0  0
  190.4780  176.5780  135.5640 O   0  0  0  0  0  0  0  0  0  0  0  0
  188.1450  176.2260  135.4940 C   0  0  1  0  0  3  0  0  0  0  0  0
  189.5110  176.0630  136.1110 C   0  0  0  0  0  0  0  0  0  0  0  0
  189.6710  173.6970  136.9740 C   0  0  0  0  0  2  0  0  0  0  0  0
  187.2780  173.8260  136.0130 C   0  0  1  0  0  3  0  0  0  0  0  0
  185.6750  175.7010  135.6960 C   0  0  0  0  0  1  0  0  0  0  0  0
  186.6140  173.0690  137.1510 C   0  0  0  0  0  1  0  0  0  0  0  0
  187.0730  175.3460  136.1810 C   0  0  2  0  0  3  0  0  0  0  0  0
  189.6950  175.1860  137.3250 C   0  0  1  0  0  3  0  0  0  0  0  0
  190.9510  175.5240  138.1110 C   0  0  0  0  0  1  0  0  0  0  0  0
  1 10  1  0  0  0  0
  1  6  1  0  0  0  0
  2  1  2  0  0  0  0
  3  4  1  0  0  0  0
  4  6  2  0  0  0  0
  5  2  1  0  0  0  0
  5  3  2  0  0  0  0
  7 12  2  0  0  0  0
  7 10  1  0  0  0  0
  8 13  1  0  0  0  0
  8 12  1  0  0  0  0
  9 11  1  0  0  0  0
 10 11  2  0  0  0  0
 12  9  1  0  0  0  0
 13 14  1  6  0  0  0
 13 16  1  0  0  0  0
 15 16  1  0  0  0  0
 17  3  1  0  0  0  0
 17 18  1  0  0  0  0
 18 19  1  0  0  0  0
 19 20  1  0  0  0  0
 20 21  1  0  0  0  0
 21 22  1  0  0  0  0
 22 23  2  0  0  0  0
 25 22  1  0  0  0  0
 25 24  1  0  0  0  0
 26  5  1  0  0  0  0
 27 26  1  0  0  0  0
 28 27  1  0  0  0  0
 30 29  2  0  0  0  0
 30 28  1  0  0  0  0
 31 30  1  0  0  0  0
 32 37  1  0  0  0  0
 32 36  1  0  0  0  0
 33 35  2  0  0  0  0
 34 31  1  1  0  0  0
 34 35  1  0  0  0  0
 34 40  1  0  0  0  0
 35 41  1  0  0  0  0
 36 41  1  0  0  0  0
 37 40  1  0  0  0  0
 37 39  1  1  0  0  0
 40 38  1  6  0  0  0
 41 42  1  6  0  0  0
M  END
>  <MODEL>
4

>  <REMARK>
 VINA RESULT:      -7.0      2.045      3.776
  Name = 
  14 active torsions:
  status: ('A' for Active; 'I' for Inactive)
    1  A    between atoms: C_1  and  C_7
    2  A    between atoms: C_1  and  C_27
    3  A    between atoms: C_2  and  N_20
    4  A    between atoms: C_2  and  C_22
    5  A    between atoms: C_6  and  C_26
    6  A    between atoms: C_8  and  N_29
    7  A    between atoms: N_12  and  C_25
    8  A    between atoms: C_16  and  C_19
    9  A    between atoms: C_19  and  N_20
   10  A    between atoms: N_21  and  C_38
   11  A    between atoms: C_22  and  C_27
   12  A    between atoms: C_25  and  O_41
   13  A    between atoms: S_28  and  C_38
   14  A    between atoms: S_28  and  C_39
                            x       y       z     vdW  Elec       q    Type
                         _______ _______ _______ _____ _____    ______ ____

>  <TORSDO>
F 14

$$$$
=
 OpenBabel11042412593D

 42 44  0  0  1  0  0  0  0  0999 V2000
  186.3860  177.8990  142.7380 C   0  0  0  0  0  0  0  0  0  0  0  0
  186.9750  178.3190  141.5360 C   0  0  0  0  0  3  0  0  0  0  0  0
  188.9640  177.0210  142.0340 C   0  0  0  0  0  0  0  0  0  0  0  0
  188.3760  176.5970  143.2300 C   0  0  0  0  0  3  0  0  0  0  0  0
  188.2580  177.8900  141.1800 C   0  0  0  0  0  0  0  0  0  0  0  0
  187.0980  177.0350  143.5810 C   0  0  0  0  0  3  0  0  0  0  0  0
  184.0090  178.3670  142.2150 N   0  0  0  0  0  0  0  0  0  0  0  0
  181.6420  178.9220  142.0390 N   0  0  0  0  0  2  0  0  0  0  0  0
  183.0800  179.2160  144.3830 S   0  0  0  0  0  0  0  0  0  0  0  0
  185.0340  178.3500  143.1150 C   0  0  0  0  0  0  0  0  0  0  0  0
  184.7120  178.7950  144.4020 C   0  0  0  0  0  3  0  0  0  0  0  0
  182.8680  178.8210  142.7660 C   0  0  0  0  0  0  0  0  0  0  0  0
  180.4170  179.4470  142.6240 C   0  0  1  0  0  3  0  0  0  0  0  0
  179.6510  180.2440  141.5840 C   0  0  0  0  0  1  0  0  0  0  0  0
  179.3520  178.6840  144.4050 C   0  0  0  0  0  1  0  0  0  0  0  0
  179.6250  178.3880  143.0690 O   0  0  0  0  0  0  0  0  0  0  0  0
  190.3210  176.5100  141.6820 C   0  0  0  0  0  2  0  0  0  0  0  0
  191.1010  176.3140  142.8920 N   0  0  0  0  0  2  0  0  0  0  0  0
  191.7010  177.5950  143.2250 C   0  0  0  0  0  2  0  0  0  0  0  0
  191.4710  177.9010  144.6910 C   0  0  0  0  0  2  0  0  0  0  0  0
  191.5930  176.6220  145.4980 C   0  0  0  0  0  2  0  0  0  0  0  0
  191.0830  176.8350  146.8850 C   0  0  0  0  0  0  0  0  0  0  0  0
  191.8590  176.8730  147.8260 O   0  0  0  0  0  0  0  0  0  0  0  0
  189.4220  177.8900  148.1920 O   0  0  0  0  0  1  0  0  0  0  0  0
  189.6220  177.0150  147.1240 C   0  0  0  0  0  2  0  0  0  0  0  0
  188.9640  178.4630  139.6310 S   0  0  0  0  0  0  0  0  0  0  0  0
  188.6270  176.8860  138.7910 C   0  0  0  0  0  2  0  0  0  0  0  0
  187.4010  176.9880  138.0150 N   0  0  0  0  0  2  0  0  0  0  0  0
  188.2440  178.5980  136.5480 O   0  0  0  0  0  0  0  0  0  0  0  0
  187.2920  177.8390  136.8710 C   0  0  0  0  0  0  0  0  0  0  0  0
  186.0970  177.8440  136.0890 N   0  0  0  0  0  2  0  0  0  0  0  0
  182.9550  175.0310  137.3340 C   0  0  0  0  0  2  0  0  0  0  0  0
  185.8320  175.1470  135.0370 O   0  0  0  0  0  0  0  0  0  0  0  0
  184.9980  176.9220  136.3500 C   0  0  1  0  0  3  0  0  0  0  0  0
  185.4950  175.5120  136.1550 C   0  0  0  0  0  0  0  0  0  0  0  0
  184.0670  174.0040  137.5900 C   0  0  0  0  0  2  0  0  0  0  0  0
  183.1330  176.3610  138.0790 C   0  0  1  0  0  3  0  0  0  0  0  0
  184.1410  178.6340  138.0080 C   0  0  0  0  0  1  0  0  0  0  0  0
  182.9830  176.1600  139.5770 C   0  0  0  0  0  1  0  0  0  0  0  0
  184.4160  177.1580  137.7650 C   0  0  2  0  0  3  0  0  0  0  0  0
  185.4740  174.5340  137.3060 C   0  0  1  0  0  3  0  0  0  0  0  0
  186.4450  173.3820  137.1170 C   0  0  0  0  0  1  0  0  0  0  0  0
  1 10  1  0  0  0  0
  1  6  1  0  0  0  0
  2  1  2  0  0  0  0
  3  4  1  0  0  0  0
  4  6  2  0  0  0  0
  5  2  1  0  0  0  0
  5  3  2  0  0  0  0
  7 12  2  0  0  0  0
  7 10  1  0  0  0  0
  8 13  1  0  0  0  0
  8 12  1  0  0  0  0
  9 11  1  0  0  0  0
 10 11  2  0  0  0  0
 12  9  1  0  0  0  0
 13 14  1  6  0  0  0
 13 16  1  0  0  0  0
 16 15  1  0  0  0  0
 17  3  1  0  0  0  0
 17 18  1  0  0  0  0
 18 19  1  0  0  0  0
 19 20  1  0  0  0  0
 20 21  1  0  0  0  0
 21 22  1  0  0  0  0
 22 25  1  0  0  0  0
 22 23  2  0  0  0  0
 25 24  1  0  0  0  0
 26  5  1  0  0  0  0
 27 26  1  0  0  0  0
 28 27  1  0  0  0  0
 29 30  2  0  0  0  0
 30 28  1  0  0  0  0
 31 30  1  0  0  0  0
 32 36  1  0  0  0  0
 32 37  1  0  0  0  0
 33 35  2  0  0  0  0
 34 31  1  1  0  0  0
 34 40  1  0  0  0  0
 35 34  1  0  0  0  0
 35 41  1  0  0  0  0
 37 39  1  1  0  0  0
 40 38  1  6  0  0  0
 40 37  1  0  0  0  0
 41 42  1  6  0  0  0
 41 36  1  0  0  0  0
M  END
>  <MODEL>
5

>  <REMARK>
 VINA RESULT:      -6.9      1.177      2.339
  Name = 
  14 active torsions:
  status: ('A' for Active; 'I' for Inactive)
    1  A    between atoms: C_1  and  C_7
    2  A    between atoms: C_1  and  C_27
    3  A    between atoms: C_2  and  N_20
    4  A    between atoms: C_2  and  C_22
    5  A    between atoms: C_6  and  C_26
    6  A    between atoms: C_8  and  N_29
    7  A    between atoms: N_12  and  C_25
    8  A    between atoms: C_16  and  C_19
    9  A    between atoms: C_19  and  N_20
   10  A    between atoms: N_21  and  C_38
   11  A    between atoms: C_22  and  C_27
   12  A    between atoms: C_25  and  O_41
   13  A    between atoms: S_28  and  C_38
   14  A    between atoms: S_28  and  C_39
                            x       y       z     vdW  Elec       q    Type
                         _______ _______ _______ _____ _____    ______ ____

>  <TORSDO>
F 14

$$$$
=
 OpenBabel11042412593D

 42 44  0  0  1  0  0  0  0  0999 V2000
  184.1270  178.4770  143.4540 C   0  0  0  0  0  0  0  0  0  0  0  0
  185.5200  178.3160  143.4130 C   0  0  0  0  0  3  0  0  0  0  0  0
  185.6480  178.6560  145.8120 C   0  0  0  0  0  0  0  0  0  0  0  0
  184.2600  178.8120  145.8560 C   0  0  0  0  0  3  0  0  0  0  0  0
  186.2850  178.4070  144.5810 C   0  0  0  0  0  0  0  0  0  0  0  0
  183.5040  178.7270  144.6840 C   0  0  0  0  0  3  0  0  0  0  0  0
  183.8740  178.0250  141.0300 N   0  0  0  0  0  0  0  0  0  0  0  0
  183.2830  177.6520  138.6950 N   0  0  0  0  0  2  0  0  0  0  0  0
  181.4380  178.4310  140.6010 S   0  0  0  0  0  0  0  0  0  0  0  0
  183.3190  178.3820  142.2240 C   0  0  0  0  0  0  0  0  0  0  0  0
  181.9470  178.6540  142.1920 C   0  0  0  0  0  3  0  0  0  0  0  0
  182.9610  178.0090  140.0400 C   0  0  0  0  0  0  0  0  0  0  0  0
  182.3050  177.6690  137.6170 C   0  0  1  0  0  3  0  0  0  0  0  0
  181.9280  179.1020  137.2880 C   0  0  0  0  0  1  0  0  0  0  0  0
  184.2300  177.0760  136.7060 C   0  0  0  0  0  1  0  0  0  0  0  0
  182.8520  177.0650  136.4840 O   0  0  0  0  0  0  0  0  0  0  0  0
  186.4170  178.7290  147.0890 C   0  0  0  0  0  2  0  0  0  0  0  0
  187.1650  177.4980  147.2830 N   0  0  0  0  0  2  0  0  0  0  0  0
  187.9950  177.6840  148.4610 C   0  0  0  0  0  2  0  0  0  0  0  0
  189.4430  177.8450  148.0450 C   0  0  0  0  0  2  0  0  0  0  0  0
  189.9100  176.5810  147.3470 C   0  0  0  0  0  2  0  0  0  0  0  0
  191.3040  176.7570  146.8390 C   0  0  0  0  0  0  0  0  0  0  0  0
  192.2560  176.4920  147.5540 O   0  0  0  0  0  0  0  0  0  0  0  0
  191.4650  176.1790  144.5550 O   0  0  0  0  0  1  0  0  0  0  0  0
  191.5360  177.2460  145.4490 C   0  0  0  0  0  2  0  0  0  0  0  0
  188.0640  178.1960  144.4690 S   0  0  0  0  0  0  0  0  0  0  0  0
  187.9110  176.6600  143.5070 C   0  0  0  0  0  2  0  0  0  0  0  0
  188.2540  176.9090  142.1160 N   0  0  0  0  0  2  0  0  0  0  0  0
  189.8470  178.5450  142.6080 O   0  0  0  0  0  0  0  0  0  0  0  0
  189.2710  177.8420  141.7360 C   0  0  0  0  0  0  0  0  0  0  0  0
  189.6330  177.9920  140.3640 N   0  0  0  0  0  2  0  0  0  0  0  0
  188.2770  175.6360  136.9080 C   0  0  0  0  0  2  0  0  0  0  0  0
  186.9960  178.2470  139.1670 O   0  0  0  0  0  0  0  0  0  0  0  0
  189.0760  177.1420  139.3190 C   0  0  1  0  0  3  0  0  0  0  0  0
  188.0170  177.9200  138.5780 C   0  0  0  0  0  0  0  0  0  0  0  0
  187.8680  176.9600  136.2490 C   0  0  0  0  0  2  0  0  0  0  0  0
  189.7450  175.5720  137.3520 C   0  0  1  0  0  3  0  0  0  0  0  0
  191.3580  176.0510  139.1840 C   0  0  0  0  0  1  0  0  0  0  0  0
  190.6690  175.5760  136.1460 C   0  0  0  0  0  1  0  0  0  0  0  0
  190.1960  176.6250  138.3850 C   0  0  2  0  0  3  0  0  0  0  0  0
  188.1710  178.1930  137.1020 C   0  0  1  0  0  3  0  0  0  0  0  0
  187.3420  179.3770  136.6330 C   0  0  0  0  0  1  0  0  0  0  0  0
  1  6  1  0  0  0  0
  2  1  2  0  0  0  0
  2  5  1  0  0  0  0
  3  4  1  0  0  0  0
  3 17  1  0  0  0  0
  5  3  2  0  0  0  0
  6  4  2  0  0  0  0
  7 10  1  0  0  0  0
  8 12  1  0  0  0  0
  9 11  1  0  0  0  0
 10  1  1  0  0  0  0
 11 10  2  0  0  0  0
 12  9  1  0  0  0  0
 12  7  2  0  0  0  0
 13 14  1  6  0  0  0
 13  8  1  0  0  0  0
 16 15  1  0  0  0  0
 16 13  1  0  0  0  0
 17 18  1  0  0  0  0
 18 19  1  0  0  0  0
 20 19  1  0  0  0  0
 21 20  1  0  0  0  0
 22 21  1  0  0  0  0
 22 23  2  0  0  0  0
 24 25  1  0  0  0  0
 25 22  1  0  0  0  0
 26  5  1  0  0  0  0
 27 26  1  0  0  0  0
 28 27  1  0  0  0  0
 30 28  1  0  0  0  0
 30 29  2  0  0  0  0
 31 30  1  0  0  0  0
 32 37  1  0  0  0  0
 34 31  1  1  0  0  0
 35 33  2  0  0  0  0
 35 34  1  0  0  0  0
 36 32  1  0  0  0  0
 36 41  1  0  0  0  0
 37 39  1  6  0  0  0
 37 40  1  0  0  0  0
 40 38  1  1  0  0  0
 40 34  1  0  0  0  0
 41 42  1  6  0  0  0
 41 35  1  0  0  0  0
M  END
>  <MODEL>
6

>  <REMARK>
 VINA RESULT:      -6.7      2.532      5.262
  Name = 
  14 active torsions:
  status: ('A' for Active; 'I' for Inactive)
    1  A    between atoms: C_1  and  C_7
    2  A    between atoms: C_1  and  C_27
    3  A    between atoms: C_2  and  N_20
    4  A    between atoms: C_2  and  C_22
    5  A    between atoms: C_6  and  C_26
    6  A    between atoms: C_8  and  N_29
    7  A    between atoms: N_12  and  C_25
    8  A    between atoms: C_16  and  C_19
    9  A    between atoms: C_19  and  N_20
   10  A    between atoms: N_21  and  C_38
   11  A    between atoms: C_22  and  C_27
   12  A    between atoms: C_25  and  O_41
   13  A    between atoms: S_28  and  C_38
   14  A    between atoms: S_28  and  C_39
                            x       y       z     vdW  Elec       q    Type
                         _______ _______ _______ _____ _____    ______ ____

>  <TORSDO>
F 14

$$$$
=
 OpenBabel11042412593D

 42 44  0  0  1  0  0  0  0  0999 V2000
  183.7690  178.6370  143.6370 C   0  0  0  0  0  0  0  0  0  0  0  0
  184.8730  178.1260  142.9380 C   0  0  0  0  0  3  0  0  0  0  0  0
  186.1960  178.1500  144.9720 C   0  0  0  0  0  0  0  0  0  0  0  0
  185.0950  178.6550  145.6710 C   0  0  0  0  0  3  0  0  0  0  0  0
  186.0850  177.8830  143.5940 C   0  0  0  0  0  0  0  0  0  0  0  0
  183.8910  178.9000  145.0070 C   0  0  0  0  0  3  0  0  0  0  0  0
  182.4240  179.0190  141.5910 N   0  0  0  0  0  0  0  0  0  0  0  0
  180.8220  179.4140  139.7950 N   0  0  0  0  0  2  0  0  0  0  0  0
  180.0920  179.3170  142.4600 S   0  0  0  0  0  0  0  0  0  0  0  0
  182.4910  178.8930  142.9460 C   0  0  0  0  0  0  0  0  0  0  0  0
  181.2750  179.0300  143.6250 C   0  0  0  0  0  3  0  0  0  0  0  0
  181.1660  179.2570  141.1730 C   0  0  0  0  0  0  0  0  0  0  0  0
  179.4690  179.7070  139.3460 C   0  0  1  0  0  3  0  0  0  0  0  0
  179.2590  181.2090  139.2930 C   0  0  0  0  0  1  0  0  0  0  0  0
  180.2660  179.7580  137.2840 C   0  0  0  0  0  1  0  0  0  0  0  0
  179.2760  179.1690  138.0730 O   0  0  0  0  0  0  0  0  0  0  0  0
  187.4560  177.8770  145.7220 C   0  0  0  0  0  2  0  0  0  0  0  0
  187.2550  178.1470  147.1360 N   0  0  0  0  0  2  0  0  0  0  0  0
  188.2080  177.3290  147.8660 C   0  0  0  0  0  2  0  0  0  0  0  0
  189.2530  176.7870  146.9120 C   0  0  0  0  0  2  0  0  0  0  0  0
  190.6340  177.0050  147.5010 C   0  0  0  0  0  2  0  0  0  0  0  0
  191.6730  176.3830  146.6260 C   0  0  0  0  0  0  0  0  0  0  0  0
  192.5340  175.6660  147.1090 O   0  0  0  0  0  0  0  0  0  0  0  0
  192.0550  175.4740  144.4800 O   0  0  0  0  0  1  0  0  0  0  0  0
  191.6540  176.6260  145.1540 C   0  0  0  0  0  2  0  0  0  0  0  0
  187.4650  177.2320  142.6490 S   0  0  0  0  0  0  0  0  0  0  0  0
  187.5470  178.7050  141.5850 C   0  0  0  0  0  2  0  0  0  0  0  0
  187.4450  178.3140  140.1880 N   0  0  0  0  0  2  0  0  0  0  0  0
  185.3710  179.3380  139.8600 O   0  0  0  0  0  0  0  0  0  0  0  0
  186.3410  178.7050  139.3650 C   0  0  0  0  0  0  0  0  0  0  0  0
  186.3250  178.3710  137.9770 N   0  0  0  0  0  2  0  0  0  0  0  0
  189.7160  176.0880  136.3580 C   0  0  0  0  0  2  0  0  0  0  0  0
  189.0520  179.3740  137.8820 O   0  0  0  0  0  0  0  0  0  0  0  0
  187.4580  177.7270  137.3230 C   0  0  1  0  0  3  0  0  0  0  0  0
  188.7290  178.1990  137.9830 C   0  0  0  0  0  0  0  0  0  0  0  0
  190.4600  176.3890  137.6660 C   0  0  0  0  0  2  0  0  0  0  0  0
  188.3520  175.4090  136.5420 C   0  0  1  0  0  3  0  0  0  0  0  0
  185.9160  175.7610  136.9040 C   0  0  0  0  0  1  0  0  0  0  0  0
  188.5240  174.0030  137.0920 C   0  0  0  0  0  1  0  0  0  0  0  0
  187.3030  176.1870  137.3630 C   0  0  2  0  0  3  0  0  0  0  0  0
  189.6420  177.2090  138.6660 C   0  0  1  0  0  3  0  0  0  0  0  0
  190.5560  177.8600  139.6890 C   0  0  0  0  0  1  0  0  0  0  0  0
  1  6  1  0  0  0  0
  2  5  1  0  0  0  0
  2  1  2  0  0  0  0
  3  4  1  0  0  0  0
  3 17  1  0  0  0  0
  5  3  2  0  0  0  0
  6  4  2  0  0  0  0
  7 10  1  0  0  0  0
  8 12  1  0  0  0  0
  9 11  1  0  0  0  0
 10 11  2  0  0  0  0
 10  1  1  0  0  0  0
 12  7  2  0  0  0  0
 12  9  1  0  0  0  0
 13 14  1  6  0  0  0
 13  8  1  0  0  0  0
 15 16  1  0  0  0  0
 16 13  1  0  0  0  0
 17 18  1  0  0  0  0
 18 19  1  0  0  0  0
 20 21  1  0  0  0  0
 20 19  1  0  0  0  0
 22 23  2  0  0  0  0
 22 21  1  0  0  0  0
 24 25  1  0  0  0  0
 25 22  1  0  0  0  0
 26  5  1  0  0  0  0
 27 26  1  0  0  0  0
 28 27  1  0  0  0  0
 30 29  2  0  0  0  0
 30 28  1  0  0  0  0
 31 30  1  0  0  0  0
 32 37  1  0  0  0  0
 32 36  1  0  0  0  0
 33 35  2  0  0  0  0
 34 40  1  0  0  0  0
 34 31  1  1  0  0  0
 34 35  1  0  0  0  0
 35 41  1  0  0  0  0
 36 41  1  0  0  0  0
 37 39  1  1  0  0  0
 37 40  1  0  0  0  0
 40 38  1  6  0  0  0
 41 42  1  1  0  0  0
M  END
>  <MODEL>
7

>  <REMARK>
 VINA RESULT:      -6.5      2.377      4.623
  Name = 
  14 active torsions:
  status: ('A' for Active; 'I' for Inactive)
    1  A    between atoms: C_1  and  C_7
    2  A    between atoms: C_1  and  C_27
    3  A    between atoms: C_2  and  N_20
    4  A    between atoms: C_2  and  C_22
    5  A    between atoms: C_6  and  C_26
    6  A    between atoms: C_8  and  N_29
    7  A    between atoms: N_12  and  C_25
    8  A    between atoms: C_16  and  C_19
    9  A    between atoms: C_19  and  N_20
   10  A    between atoms: N_21  and  C_38
   11  A    between atoms: C_22  and  C_27
   12  A    between atoms: C_25  and  O_41
   13  A    between atoms: S_28  and  C_38
   14  A    between atoms: S_28  and  C_39
                            x       y       z     vdW  Elec       q    Type
                         _______ _______ _______ _____ _____    ______ ____

>  <TORSDO>
F 14

$$$$
=
 OpenBabel11042412593D

 42 44  0  0  1  0  0  0  0  0999 V2000
  183.9960  175.7230  137.6830 C   0  0  0  0  0  0  0  0  0  0  0  0
  184.9830  176.6620  137.3480 C   0  0  0  0  0  3  0  0  0  0  0  0
  186.1080  175.0150  135.9660 C   0  0  0  0  0  0  0  0  0  0  0  0
  185.1220  174.0800  136.2940 C   0  0  0  0  0  3  0  0  0  0  0  0
  186.0390  176.3170  136.4960 C   0  0  0  0  0  0  0  0  0  0  0  0
  184.0760  174.4290  137.1500 C   0  0  0  0  0  3  0  0  0  0  0  0
  182.9180  177.2140  139.3430 N   0  0  0  0  0  0  0  0  0  0  0  0
  181.5880  178.4520  140.9680 N   0  0  0  0  0  2  0  0  0  0  0  0
  180.7380  176.0770  139.8340 S   0  0  0  0  0  0  0  0  0  0  0  0
  182.8820  176.0850  138.5790 C   0  0  0  0  0  0  0  0  0  0  0  0
  181.7300  175.3030  138.7140 C   0  0  0  0  0  3  0  0  0  0  0  0
  181.8060  177.3460  140.0910 C   0  0  0  0  0  0  0  0  0  0  0  0
  180.4020  178.5770  141.8030 C   0  0  1  0  0  3  0  0  0  0  0  0
  180.8090  178.6620  143.2630 C   0  0  0  0  0  1  0  0  0  0  0  0
  179.6760  180.5010  142.6160 C   0  0  0  0  0  1  0  0  0  0  0  0
  179.7060  179.7340  141.4500 O   0  0  0  0  0  0  0  0  0  0  0  0
  187.1960  174.6100  135.0280 C   0  0  0  0  0  2  0  0  0  0  0  0
  187.3190  173.1620  135.0140 N   0  0  0  0  0  2  0  0  0  0  0  0
  188.7360  172.8550  134.9160 C   0  0  0  0  0  2  0  0  0  0  0  0
  189.4400  173.2860  136.1860 C   0  0  0  0  0  2  0  0  0  0  0  0
  190.9370  173.3300  135.9420 C   0  0  0  0  0  2  0  0  0  0  0  0
  191.5710  174.3680  136.8100 C   0  0  0  0  0  0  0  0  0  0  0  0
  191.2150  174.5000  137.9690 O   0  0  0  0  0  0  0  0  0  0  0  0
  193.7170  175.2870  137.1640 O   0  0  0  0  0  1  0  0  0  0  0  0
  192.6530  175.2380  136.2640 C   0  0  0  0  0  2  0  0  0  0  0  0
  187.2760  177.5590  136.1060 S   0  0  0  0  0  0  0  0  0  0  0  0
  188.5750  176.6810  137.0270 C   0  0  0  0  0  2  0  0  0  0  0  0
  188.5860  177.1240  138.4130 N   0  0  0  0  0  2  0  0  0  0  0  0
  188.8930  179.3790  137.8840 O   0  0  0  0  0  0  0  0  0  0  0  0
  188.7070  178.5040  138.7710 C   0  0  0  0  0  0  0  0  0  0  0  0
  188.6270  178.9010  140.1400 N   0  0  0  0  0  2  0  0  0  0  0  0
  187.6320  176.4340  143.6410 C   0  0  0  0  0  2  0  0  0  0  0  0
  190.4980  177.0800  141.4190 O   0  0  0  0  0  0  0  0  0  0  0  0
  188.3160  177.9540  141.2040 C   0  0  1  0  0  3  0  0  0  0  0  0
  189.5780  177.6650  141.9760 C   0  0  0  0  0  0  0  0  0  0  0  0
  188.8960  176.9920  144.3110 C   0  0  0  0  0  2  0  0  0  0  0  0
  186.6460  177.5040  143.1510 C   0  0  1  0  0  3  0  0  0  0  0  0
  186.0090  178.9990  141.2680 C   0  0  0  0  0  1  0  0  0  0  0  0
  186.0310  178.2440  144.3270 C   0  0  0  0  0  1  0  0  0  0  0  0
  187.1810  178.5010  142.1030 C   0  0  2  0  0  3  0  0  0  0  0  0
  189.6600  177.9960  143.4470 C   0  0  1  0  0  3  0  0  0  0  0  0
  191.0910  178.1370  143.9390 C   0  0  0  0  0  1  0  0  0  0  0  0
  1 10  1  0  0  0  0
  2  1  1  0  0  0  0
  3  4  2  0  0  0  0
  3  5  1  0  0  0  0
  4  6  1  0  0  0  0
  5  2  2  0  0  0  0
  6  1  2  0  0  0  0
  7 12  2  0  0  0  0
  8 13  1  0  0  0  0
  9 12  1  0  0  0  0
 10 11  2  0  0  0  0
 10  7  1  0  0  0  0
 11  9  1  0  0  0  0
 12  8  1  0  0  0  0
 13 14  1  1  0  0  0
 16 13  1  0  0  0  0
 16 15  1  0  0  0  0
 17  3  1  0  0  0  0
 18 17  1  0  0  0  0
 19 18  1  0  0  0  0
 19 20  1  0  0  0  0
 21 20  1  0  0  0  0
 21 22  1  0  0  0  0
 22 23  2  0  0  0  0
 25 22  1  0  0  0  0
 25 24  1  0  0  0  0
 26  5  1  0  0  0  0
 26 27  1  0  0  0  0
 27 28  1  0  0  0  0
 28 30  1  0  0  0  0
 29 30  2  0  0  0  0
 30 31  1  0  0  0  0
 32 36  1  0  0  0  0
 33 35  2  0  0  0  0
 34 31  1  6  0  0  0
 34 35  1  0  0  0  0
 34 40  1  0  0  0  0
 35 41  1  0  0  0  0
 37 32  1  0  0  0  0
 37 39  1  1  0  0  0
 40 38  1  6  0  0  0
 40 37  1  0  0  0  0
 41 42  1  1  0  0  0
 41 36  1  0  0  0  0
M  END
>  <MODEL>
8

>  <REMARK>
 VINA RESULT:      -6.3      3.018      7.061
  Name = 
  14 active torsions:
  status: ('A' for Active; 'I' for Inactive)
    1  A    between atoms: C_1  and  C_7
    2  A    between atoms: C_1  and  C_27
    3  A    between atoms: C_2  and  N_20
    4  A    between atoms: C_2  and  C_22
    5  A    between atoms: C_6  and  C_26
    6  A    between atoms: C_8  and  N_29
    7  A    between atoms: N_12  and  C_25
    8  A    between atoms: C_16  and  C_19
    9  A    between atoms: C_19  and  N_20
   10  A    between atoms: N_21  and  C_38
   11  A    between atoms: C_22  and  C_27
   12  A    between atoms: C_25  and  O_41
   13  A    between atoms: S_28  and  C_38
   14  A    between atoms: S_28  and  C_39
                            x       y       z     vdW  Elec       q    Type
                         _______ _______ _______ _____ _____    ______ ____

>  <TORSDO>
F 14

$$$$
=
 OpenBabel11042412593D

 42 44  0  0  1  0  0  0  0  0999 V2000
  186.6320  177.8660  142.6530 C   0  0  0  0  0  0  0  0  0  0  0  0
  187.2600  178.0900  141.4190 C   0  0  0  0  0  3  0  0  0  0  0  0
  189.3210  177.1380  142.2740 C   0  0  0  0  0  0  0  0  0  0  0  0
  188.6950  176.9090  143.5030 C   0  0  0  0  0  3  0  0  0  0  0  0
  188.5980  177.7330  141.2230 C   0  0  0  0  0  0  0  0  0  0  0  0
  187.3610  177.2740  143.6930 C   0  0  0  0  0  3  0  0  0  0  0  0
  184.3140  178.2040  141.8440 N   0  0  0  0  0  0  0  0  0  0  0  0
  181.9580  178.6290  141.3800 N   0  0  0  0  0  2  0  0  0  0  0  0
  183.0820  178.9920  143.8800 S   0  0  0  0  0  0  0  0  0  0  0  0
  185.2200  178.2410  142.8610 C   0  0  0  0  0  0  0  0  0  0  0  0
  184.7200  178.6620  144.0990 C   0  0  0  0  0  3  0  0  0  0  0  0
  183.0900  178.5930  142.2510 C   0  0  0  0  0  0  0  0  0  0  0  0
  180.6440  179.0830  141.8100 C   0  0  1  0  0  3  0  0  0  0  0  0
  180.1260  180.1390  140.8510 C   0  0  0  0  0  1  0  0  0  0  0  0
  179.1550  178.0190  140.5690 C   0  0  0  0  0  1  0  0  0  0  0  0
  179.7620  178.0020  141.8250 O   0  0  0  0  0  0  0  0  0  0  0  0
  190.7410  176.7110  142.1030 C   0  0  0  0  0  2  0  0  0  0  0  0
  191.5170  177.1060  143.2670 N   0  0  0  0  0  2  0  0  0  0  0  0
  191.6000  175.9460  144.1380 C   0  0  0  0  0  2  0  0  0  0  0  0
  191.9520  176.3890  145.5440 C   0  0  0  0  0  2  0  0  0  0  0  0
  191.0260  177.5130  145.9660 C   0  0  0  0  0  2  0  0  0  0  0  0
  190.0590  177.0280  146.9960 C   0  0  0  0  0  0  0  0  0  0  0  0
  190.2420  175.9590  147.5530 O   0  0  0  0  0  0  0  0  0  0  0  0
  188.2610  177.3360  148.4960 O   0  0  0  0  0  1  0  0  0  0  0  0
  188.8720  177.8560  147.3540 C   0  0  0  0  0  2  0  0  0  0  0  0
  189.3520  178.0470  139.6240 S   0  0  0  0  0  0  0  0  0  0  0  0
  187.7410  178.2600  138.8070 C   0  0  0  0  0  2  0  0  0  0  0  0
  187.4840  177.1390  137.9170 N   0  0  0  0  0  2  0  0  0  0  0  0
  187.1450  178.4740  136.0300 O   0  0  0  0  0  0  0  0  0  0  0  0
  187.2330  177.3160  136.5200 C   0  0  0  0  0  0  0  0  0  0  0  0
  187.0710  176.1820  135.6690 N   0  0  0  0  0  2  0  0  0  0  0  0
  187.6350  171.9340  136.6530 C   0  0  0  0  0  2  0  0  0  0  0  0
  185.0960  174.5690  137.0660 O   0  0  0  0  0  0  0  0  0  0  0  0
  187.2570  174.8190  136.1510 C   0  0  1  0  0  3  0  0  0  0  0  0
  185.9080  174.1530  136.2500 C   0  0  0  0  0  0  0  0  0  0  0  0
  186.2720  171.6690  135.9990 C   0  0  0  0  0  2  0  0  0  0  0  0
  188.6460  172.6530  135.7490 C   0  0  1  0  0  3  0  0  0  0  0  0
  189.4960  174.8560  134.9680 C   0  0  0  0  0  1  0  0  0  0  0  0
  189.0640  171.7580  134.5950 C   0  0  0  0  0  1  0  0  0  0  0  0
  188.2350  174.0470  135.2330 C   0  0  2  0  0  3  0  0  0  0  0  0
  185.6070  172.9230  135.4290 C   0  0  1  0  0  3  0  0  0  0  0  0
  184.1170  172.6920  135.2400 C   0  0  0  0  0  1  0  0  0  0  0  0
  1 10  1  0  0  0  0
  1  6  1  0  0  0  0
  2  1  2  0  0  0  0
  3  4  1  0  0  0  0
  4  6  2  0  0  0  0
  5  2  1  0  0  0  0
  5  3  2  0  0  0  0
  7 12  2  0  0  0  0
  7 10  1  0  0  0  0
  8 13  1  0  0  0  0
  8 12  1  0  0  0  0
  9 11  1  0  0  0  0
 10 11  2  0  0  0  0
 12  9  1  0  0  0  0
 13 14  1  6  0  0  0
 13 16  1  0  0  0  0
 15 16  1  0  0  0  0
 17  3  1  0  0  0  0
 17 18  1  0  0  0  0
 18 19  1  0  0  0  0
 19 20  1  0  0  0  0
 20 21  1  0  0  0  0
 21 22  1  0  0  0  0
 22 25  1  0  0  0  0
 22 23  2  0  0  0  0
 25 24  1  0  0  0  0
 26  5  1  0  0  0  0
 27 26  1  0  0  0  0
 28 27  1  0  0  0  0
 29 30  2  0  0  0  0
 30 28  1  0  0  0  0
 31 30  1  0  0  0  0
 34 31  1  6  0  0  0
 34 35  1  0  0  0  0
 35 33  2  0  0  0  0
 36 32  1  0  0  0  0
 37 39  1  6  0  0  0
 37 32  1  0  0  0  0
 40 38  1  1  0  0  0
 40 37  1  0  0  0  0
 40 34  1  0  0  0  0
 41 42  1  1  0  0  0
 41 36  1  0  0  0  0
 41 35  1  0  0  0  0
M  END
>  <MODEL>
9

>  <REMARK>
 VINA RESULT:      -6.2      2.261      3.667
  Name = 
  14 active torsions:
  status: ('A' for Active; 'I' for Inactive)
    1  A    between atoms: C_1  and  C_7
    2  A    between atoms: C_1  and  C_27
    3  A    between atoms: C_2  and  N_20
    4  A    between atoms: C_2  and  C_22
    5  A    between atoms: C_6  and  C_26
    6  A    between atoms: C_8  and  N_29
    7  A    between atoms: N_12  and  C_25
    8  A    between atoms: C_16  and  C_19
    9  A    between atoms: C_19  and  N_20
   10  A    between atoms: N_21  and  C_38
   11  A    between atoms: C_22  and  C_27
   12  A    between atoms: C_25  and  O_41
   13  A    between atoms: S_28  and  C_38
   14  A    between atoms: S_28  and  C_39
                            x       y       z     vdW  Elec       q    Type
                         _______ _______ _______ _____ _____    ______ ____

>  <TORSDO>
F 14

$$$$
