=
 OpenBabel11042410233D

 37 40  0  0  1  0  0  0  0  0999 V2000
  187.9660  177.2900  142.7370 C   0  0  0  0  0  0  0  0  0  0  0  0
  191.0230  176.3700  144.5700 C   0  0  0  0  0  0  0  0  0  0  0  0
  190.3700  177.0860  142.5710 C   0  0  0  0  0  0  0  0  0  0  0  0
  191.8050  176.3460  145.7660 N   0  0  0  0  0  0  0  0  0  0  0  0
  191.5180  176.7360  143.3910 C   0  0  0  0  0  3  0  0  0  0  0  0
  190.3620  177.5320  141.2520 C   0  0  0  0  0  3  0  0  0  0  0  0
  189.1290  177.3030  145.8070 C   0  0  0  0  0  3  0  0  0  0  0  0
  191.2860  176.7900  146.8760 C   0  0  0  0  0  0  0  0  0  0  0  0
  187.9360  177.7290  141.4040 C   0  0  0  0  0  3  0  0  0  0  0  0
  189.1270  177.8580  140.6650 C   0  0  0  0  0  0  0  0  0  0  0  0
  189.2090  176.9880  143.3070 C   0  0  0  0  0  0  0  0  0  0  0  0
  192.0720  176.7790  148.0650 N   0  0  0  0  0  1  0  0  0  0  0  0
  189.9280  177.4130  146.8810 C   0  0  0  0  0  0  0  0  0  0  0  0
  189.5250  176.4270  144.6490 C   0  0  1  0  0  3  0  0  0  0  0  0
  189.4600  178.2060  148.0540 C   0  0  0  0  0  2  0  0  0  0  0  0
  188.0290  177.8350  148.3940 C   0  0  0  0  0  1  0  0  0  0  0  0
  189.0550  178.4250  138.9850 S   0  0  2  0  0  0  0  0  0  0  0  0
  187.5950  178.7910  138.7500 O   0  0  0  0  0  0  0  0  0  0  0  0
  188.4630  176.1370  137.8630 O   0  0  0  0  0  0  0  0  0  0  0  0
  189.3350  176.9820  137.9810 C   0  0  0  0  0  0  0  0  0  0  0  0
  190.6280  176.8250  137.2510 C   0  0  0  0  0  2  0  0  0  0  0  0
  191.5790  176.0080  138.0570 C   0  0  0  0  0  0  0  0  0  0  0  0
  191.3970  174.7680  138.1770 O   0  0  0  0  0  0  0  0  0  0  0  0
  192.6510  176.6170  138.6970 O   0  0  0  0  0  1  0  0  0  0  0  0
  186.6950  177.1080  143.4960 C   0  0  0  0  0  2  0  0  0  0  0  0
  185.7390  178.2420  143.1790 C   0  0  0  0  0  2  0  0  0  0  0  0
  185.4880  179.0620  144.4340 C   0  0  0  0  0  2  0  0  0  0  0  0
  184.0160  179.4240  144.5860 C   0  0  2  0  0  3  0  0  0  0  0  0
  183.5350  178.9920  145.8250 O   0  0  0  0  0  1  0  0  0  0  0  0
  183.2350  178.8310  143.5120 N   0  0  0  0  0  2  0  0  0  0  0  0
  181.8410  178.8730  143.9200 C   0  0  0  0  0  2  0  0  0  0  0  0
  179.4020  180.8220  141.6980 C   0  0  0  0  0  3  0  0  0  0  0  0
  180.2970  178.8770  140.4440 C   0  0  0  0  0  2  0  0  0  0  0  0
  181.0930  178.5870  141.6430 N   0  0  0  0  0  0  0  0  0  0  0  0
  180.9890  179.2440  142.7590 C   0  0  0  0  0  0  0  0  0  0  0  0
  180.1230  180.3790  142.8480 N   0  0  0  0  0  2  0  0  0  0  0  0
  179.4870  180.1440  140.5550 C   0  0  0  0  0  3  0  0  0  0  0  0
  1 11  1  0  0  0  0
  1 25  1  0  0  0  0
  2 14  1  0  0  0  0
  2  4  1  0  0  0  0
  3 11  2  0  0  0  0
  3  5  1  0  0  0  0
  4  8  2  0  0  0  0
  5  2  2  0  0  0  0
  6  3  1  0  0  0  0
  7 13  2  0  0  0  0
  8 13  1  0  0  0  0
  8 12  1  0  0  0  0
  9  1  2  0  0  0  0
 10  6  2  0  0  0  0
 10  9  1  0  0  0  0
 11 14  1  0  0  0  0
 13 15  1  0  0  0  0
 14  7  1  1  0  0  0
 15 16  1  0  0  0  0
 17 18  2  6  0  0  0
 17 10  1  0  0  0  0
 19 20  2  0  0  0  0
 20 17  1  0  0  0  0
 21 20  1  0  0  0  0
 21 22  1  0  0  0  0
 22 23  2  0  0  0  0
 22 24  1  0  0  0  0
 26 25  1  0  0  0  0
 26 27  1  0  0  0  0
 27 28  1  0  0  0  0
 28 29  1  1  0  0  0
 30 31  1  0  0  0  0
 30 28  1  0  0  0  0
 32 36  1  0  0  0  0
 33 37  1  0  0  0  0
 33 34  1  0  0  0  0
 34 35  2  0  0  0  0
 35 36  1  0  0  0  0
 35 31  1  0  0  0  0
 37 32  2  0  0  0  0
M  END
>  <MODEL>
1

>  <REMARK>
 VINA RESULT:      -9.0      0.000      0.000
  Name = 
  12 active torsions:
  status: ('A' for Active; 'I' for Inactive)
    1  A    between atoms: C_1  and  C_13
    2  A    between atoms: C_3  and  C_34
    3  A    between atoms: C_9  and  C_13
    4  A    between atoms: C_9  and  C_16
    5  A    between atoms: C_12  and  C_16
    6  A    between atoms: C_12  and  N_33
    7  A    between atoms: C_18  and  C_31
    8  A    between atoms: S_19  and  C_21
    9  A    between atoms: S_19  and  C_28
   10  A    between atoms: C_21  and  C_34
   11  A    between atoms: C_23  and  C_24
   12  A    between atoms: C_24  and  N_33
                            x       y       z     vdW  Elec       q    Type
                         _______ _______ _______ _____ _____    ______ ____

>  <TORSDO>
F 12

$$$$
=
 OpenBabel11042410233D

 37 40  0  0  1  0  0  0  0  0999 V2000
  184.1230  178.5680  140.5180 C   0  0  0  0  0  0  0  0  0  0  0  0
  183.3870  179.2480  144.0610 C   0  0  0  0  0  0  0  0  0  0  0  0
  182.3670  178.6510  142.1800 C   0  0  0  0  0  0  0  0  0  0  0  0
  183.7340  179.1810  145.4450 N   0  0  0  0  0  0  0  0  0  0  0  0
  182.1870  178.9050  143.5990 C   0  0  0  0  0  3  0  0  0  0  0  0
  181.4060  178.2610  141.2500 C   0  0  0  0  0  3  0  0  0  0  0  0
  185.5860  178.3650  143.4500 C   0  0  0  0  0  3  0  0  0  0  0  0
  184.9040  178.7190  145.7890 C   0  0  0  0  0  0  0  0  0  0  0  0
  183.1670  178.1860  139.5630 C   0  0  0  0  0  3  0  0  0  0  0  0
  181.8160  178.0260  139.9260 C   0  0  0  0  0  0  0  0  0  0  0  0
  183.6950  178.7790  141.8350 C   0  0  0  0  0  0  0  0  0  0  0  0
  185.2420  178.6380  147.1700 N   0  0  0  0  0  1  0  0  0  0  0  0
  185.8330  178.1680  144.7550 C   0  0  0  0  0  0  0  0  0  0  0  0
  184.4620  179.2660  143.0140 C   0  0  1  0  0  3  0  0  0  0  0  0
  187.0160  177.3530  145.1550 C   0  0  0  0  0  2  0  0  0  0  0  0
  187.5770  176.6250  143.9480 C   0  0  0  0  0  1  0  0  0  0  0  0
  180.6350  177.5340  138.6970 S   0  0  2  0  0  0  0  0  0  0  0  0
  179.2950  178.0520  139.2010 O   0  0  0  0  0  0  0  0  0  0  0  0
  181.4870  175.0640  138.5590 O   0  0  0  0  0  0  0  0  0  0  0  0
  180.5210  175.7630  138.8230 C   0  0  0  0  0  0  0  0  0  0  0  0
  179.2520  175.1310  139.2900 C   0  0  0  0  0  2  0  0  0  0  0  0
  179.3370  174.8140  140.7440 C   0  0  0  0  0  0  0  0  0  0  0  0
  179.0730  175.7000  141.5970 O   0  0  0  0  0  1  0  0  0  0  0  0
  179.7350  173.5490  141.1570 O   0  0  0  0  0  0  0  0  0  0  0  0
  185.5420  178.7840  140.1140 C   0  0  0  0  0  2  0  0  0  0  0  0
  185.7450  178.3280  138.6820 C   0  0  0  0  0  2  0  0  0  0  0  0
  187.1550  177.7840  138.5170 C   0  0  0  0  0  2  0  0  0  0  0  0
  188.0920  178.3130  139.5960 C   0  0  2  0  0  3  0  0  0  0  0  0
  189.1070  179.0850  139.0230 O   0  0  0  0  0  1  0  0  0  0  0  0
  188.6680  177.2110  140.3520 N   0  0  0  0  0  2  0  0  0  0  0  0
  190.0850  177.4940  140.5120 C   0  0  0  0  0  2  0  0  0  0  0  0
  191.4130  176.1600  143.8500 C   0  0  0  0  0  3  0  0  0  0  0  0
  190.7400  178.5330  144.1120 C   0  0  0  0  0  2  0  0  0  0  0  0
  190.4010  178.5000  142.6830 N   0  0  0  0  0  0  0  0  0  0  0  0
  190.4490  177.4260  141.9530 C   0  0  0  0  0  0  0  0  0  0  0  0
  190.9360  176.2000  142.5050 N   0  0  0  0  0  2  0  0  0  0  0  0
  191.3490  177.2500  144.6140 C   0  0  0  0  0  3  0  0  0  0  0  0
  1 11  1  0  0  0  0
  2  4  1  0  0  0  0
  3  5  1  0  0  0  0
  4  8  2  0  0  0  0
  5  2  2  0  0  0  0
  6  3  1  0  0  0  0
  7 13  2  0  0  0  0
  8 12  1  0  0  0  0
  9 10  1  0  0  0  0
  9  1  2  0  0  0  0
 10  6  2  0  0  0  0
 11  3  2  0  0  0  0
 11 14  1  0  0  0  0
 13 15  1  0  0  0  0
 13  8  1  0  0  0  0
 14  7  1  1  0  0  0
 14  2  1  0  0  0  0
 16 15  1  0  0  0  0
 17 20  1  0  0  0  0
 17 18  2  1  0  0  0
 17 10  1  0  0  0  0
 19 20  2  0  0  0  0
 20 21  1  0  0  0  0
 21 22  1  0  0  0  0
 22 24  2  0  0  0  0
 22 23  1  0  0  0  0
 25  1  1  0  0  0  0
 26 25  1  0  0  0  0
 27 26  1  0  0  0  0
 27 28  1  0  0  0  0
 28 29  1  6  0  0  0
 28 30  1  0  0  0  0
 30 31  1  0  0  0  0
 31 35  1  0  0  0  0
 32 37  2  0  0  0  0
 33 37  1  0  0  0  0
 34 33  1  0  0  0  0
 35 36  1  0  0  0  0
 35 34  2  0  0  0  0
 36 32  1  0  0  0  0
M  END
>  <MODEL>
2

>  <REMARK>
 VINA RESULT:      -8.4      3.742      8.596
  Name = 
  12 active torsions:
  status: ('A' for Active; 'I' for Inactive)
    1  A    between atoms: C_1  and  C_13
    2  A    between atoms: C_3  and  C_34
    3  A    between atoms: C_9  and  C_13
    4  A    between atoms: C_9  and  C_16
    5  A    between atoms: C_12  and  C_16
    6  A    between atoms: C_12  and  N_33
    7  A    between atoms: C_18  and  C_31
    8  A    between atoms: S_19  and  C_21
    9  A    between atoms: S_19  and  C_28
   10  A    between atoms: C_21  and  C_34
   11  A    between atoms: C_23  and  C_24
   12  A    between atoms: C_24  and  N_33
                            x       y       z     vdW  Elec       q    Type
                         _______ _______ _______ _____ _____    ______ ____

>  <TORSDO>
F 12

$$$$
=
 OpenBabel11042410233D

 37 40  0  0  1  0  0  0  0  0999 V2000
  187.7820  177.3490  143.0530 C   0  0  0  0  0  0  0  0  0  0  0  0
  190.9320  176.5040  144.7610 C   0  0  0  0  0  0  0  0  0  0  0  0
  190.1840  177.2300  142.7990 C   0  0  0  0  0  0  0  0  0  0  0  0
  191.7570  176.4870  145.9280 N   0  0  0  0  0  0  0  0  0  0  0  0
  191.3720  176.9060  143.5710 C   0  0  0  0  0  3  0  0  0  0  0  0
  190.1140  177.6970  141.4880 C   0  0  0  0  0  3  0  0  0  0  0  0
  189.0540  177.3520  146.0800 C   0  0  0  0  0  3  0  0  0  0  0  0
  191.2630  176.8950  147.0630 C   0  0  0  0  0  0  0  0  0  0  0  0
  187.6900  177.8090  141.7300 C   0  0  0  0  0  3  0  0  0  0  0  0
  188.8490  177.9900  140.9510 C   0  0  0  0  0  0  0  0  0  0  0  0
  189.0550  177.0800  143.5730 C   0  0  0  0  0  0  0  0  0  0  0  0
  192.0910  176.8920  148.2230 N   0  0  0  0  0  1  0  0  0  0  0  0
  189.8860  177.4720  147.1260 C   0  0  0  0  0  0  0  0  0  0  0  0
  189.4370  176.5090  144.8930 C   0  0  1  0  0  3  0  0  0  0  0  0
  189.4340  178.2290  148.3290 C   0  0  0  0  0  2  0  0  0  0  0  0
  187.9570  177.9840  148.5730 C   0  0  0  0  0  1  0  0  0  0  0  0
  188.6980  178.5810  139.2850 S   0  0  2  0  0  0  0  0  0  0  0  0
  187.2040  178.5670  138.9910 O   0  0  0  0  0  0  0  0  0  0  0  0
  189.6490  176.2070  138.7350 O   0  0  0  0  0  0  0  0  0  0  0  0
  189.3820  177.2980  138.2580 C   0  0  0  0  0  0  0  0  0  0  0  0
  189.5950  177.5470  136.8020 C   0  0  0  0  0  2  0  0  0  0  0  0
  188.3750  177.1740  136.0310 C   0  0  0  0  0  0  0  0  0  0  0  0
  187.5810  178.0670  135.6380 O   0  0  0  0  0  0  0  0  0  0  0  0
  188.1000  175.8370  135.7700 O   0  0  0  0  0  1  0  0  0  0  0  0
  186.5460  177.1120  143.8520 C   0  0  0  0  0  2  0  0  0  0  0  0
  186.1250  178.3940  144.5420 C   0  0  0  0  0  2  0  0  0  0  0  0
  184.9660  179.0230  143.7850 C   0  0  0  0  0  2  0  0  0  0  0  0
  183.7730  179.2840  144.6960 C   0  0  2  0  0  3  0  0  0  0  0  0
  184.0860  178.9470  146.0150 O   0  0  0  0  0  1  0  0  0  0  0  0
  182.6160  178.5270  144.2460 N   0  0  0  0  0  2  0  0  0  0  0  0
  181.8720  179.3770  143.3320 C   0  0  0  0  0  2  0  0  0  0  0  0
  179.9160  177.6110  140.5500 C   0  0  0  0  0  3  0  0  0  0  0  0
  182.3200  177.7050  139.9460 C   0  0  0  0  0  2  0  0  0  0  0  0
  182.5150  178.4310  141.2070 N   0  0  0  0  0  0  0  0  0  0  0  0
  181.5750  178.6300  142.0810 C   0  0  0  0  0  0  0  0  0  0  0  0
  180.2350  178.2110  141.8060 N   0  0  0  0  0  2  0  0  0  0  0  0
  180.8760  177.3850  139.6560 C   0  0  0  0  0  3  0  0  0  0  0  0
  1 11  1  0  0  0  0
  1 25  1  0  0  0  0
  2 14  1  0  0  0  0
  2  4  1  0  0  0  0
  3  5  1  0  0  0  0
  3 11  2  0  0  0  0
  4  8  2  0  0  0  0
  5  2  2  0  0  0  0
  6  3  1  0  0  0  0
  7 13  2  0  0  0  0
  8 13  1  0  0  0  0
  8 12  1  0  0  0  0
  9  1  2  0  0  0  0
 10  6  2  0  0  0  0
 10  9  1  0  0  0  0
 11 14  1  0  0  0  0
 13 15  1  0  0  0  0
 14  7  1  1  0  0  0
 15 16  1  0  0  0  0
 17 18  2  6  0  0  0
 17 10  1  0  0  0  0
 20 19  2  0  0  0  0
 20 17  1  0  0  0  0
 21 20  1  0  0  0  0
 22 21  1  0  0  0  0
 23 22  2  0  0  0  0
 24 22  1  0  0  0  0
 25 26  1  0  0  0  0
 27 26  1  0  0  0  0
 27 28  1  0  0  0  0
 28 29  1  1  0  0  0
 30 28  1  0  0  0  0
 31 30  1  0  0  0  0
 32 36  1  0  0  0  0
 33 34  1  0  0  0  0
 34 35  2  0  0  0  0
 35 31  1  0  0  0  0
 36 35  1  0  0  0  0
 37 33  1  0  0  0  0
 37 32  2  0  0  0  0
M  END
>  <MODEL>
3

>  <REMARK>
 VINA RESULT:      -8.3      1.248      1.843
  Name = 
  12 active torsions:
  status: ('A' for Active; 'I' for Inactive)
    1  A    between atoms: C_1  and  C_13
    2  A    between atoms: C_3  and  C_34
    3  A    between atoms: C_9  and  C_13
    4  A    between atoms: C_9  and  C_16
    5  A    between atoms: C_12  and  C_16
    6  A    between atoms: C_12  and  N_33
    7  A    between atoms: C_18  and  C_31
    8  A    between atoms: S_19  and  C_21
    9  A    between atoms: S_19  and  C_28
   10  A    between atoms: C_21  and  C_34
   11  A    between atoms: C_23  and  C_24
   12  A    between atoms: C_24  and  N_33
                            x       y       z     vdW  Elec       q    Type
                         _______ _______ _______ _____ _____    ______ ____

>  <TORSDO>
F 12

$$$$
=
 OpenBabel11042410233D

 37 40  0  0  1  0  0  0  0  0999 V2000
  183.8610  178.8280  141.4840 C   0  0  0  0  0  0  0  0  0  0  0  0
  184.4010  179.1890  145.1080 C   0  0  0  0  0  0  0  0  0  0  0  0
  182.7610  178.8960  143.6370 C   0  0  0  0  0  0  0  0  0  0  0  0
  185.1650  178.9420  146.2890 N   0  0  0  0  0  0  0  0  0  0  0  0
  183.0830  179.0120  145.0500 C   0  0  0  0  0  3  0  0  0  0  0  0
  181.5110  178.7000  143.0560 C   0  0  0  0  0  3  0  0  0  0  0  0
  186.1570  178.1750  143.7380 C   0  0  0  0  0  3  0  0  0  0  0  0
  186.3170  178.3380  146.1890 C   0  0  0  0  0  0  0  0  0  0  0  0
  182.6080  178.6420  140.8780 C   0  0  0  0  0  3  0  0  0  0  0  0
  181.4380  178.5710  141.6580 C   0  0  0  0  0  0  0  0  0  0  0  0
  183.9120  178.9360  142.8790 C   0  0  0  0  0  0  0  0  0  0  0  0
  187.0710  178.0780  147.3700 N   0  0  0  0  0  1  0  0  0  0  0  0
  186.7860  177.8170  144.8690 C   0  0  0  0  0  0  0  0  0  0  0  0
  185.0730  179.2190  143.7660 C   0  0  1  0  0  3  0  0  0  0  0  0
  187.9240  176.8560  144.7920 C   0  0  0  0  0  2  0  0  0  0  0  0
  189.2400  177.5980  144.9330 C   0  0  0  0  0  1  0  0  0  0  0  0
  179.8720  178.3270  140.8610 S   0  0  2  0  0  0  0  0  0  0  0  0
  179.0780  177.4340  141.8060 O   0  0  0  0  0  0  0  0  0  0  0  0
  180.3700  177.8200  138.3440 O   0  0  0  0  0  0  0  0  0  0  0  0
  180.2100  177.3100  139.4410 C   0  0  0  0  0  0  0  0  0  0  0  0
  180.3360  175.8310  139.5990 C   0  0  0  0  0  2  0  0  0  0  0  0
  181.5150  175.3290  138.8380 C   0  0  0  0  0  0  0  0  0  0  0  0
  181.3470  174.5960  137.8290 O   0  0  0  0  0  0  0  0  0  0  0  0
  182.8000  175.6480  139.2570 O   0  0  0  0  0  1  0  0  0  0  0  0
  185.0880  178.9530  140.6460 C   0  0  0  0  0  2  0  0  0  0  0  0
  184.7040  179.0590  139.1830 C   0  0  0  0  0  2  0  0  0  0  0  0
  185.3240  177.9050  138.4100 C   0  0  0  0  0  2  0  0  0  0  0  0
  186.1400  178.3980  137.2210 C   0  0  2  0  0  3  0  0  0  0  0  0
  186.2080  177.4100  136.2350 O   0  0  0  0  0  1  0  0  0  0  0  0
  187.4800  178.7740  137.6470 N   0  0  0  0  0  2  0  0  0  0  0  0
  188.2850  177.5640  137.6490 C   0  0  0  0  0  2  0  0  0  0  0  0
  189.2510  177.4990  141.3570 C   0  0  0  0  0  3  0  0  0  0  0  0
  191.2780  177.1740  139.9640 C   0  0  0  0  0  2  0  0  0  0  0  0
  190.3800  177.2440  138.8030 N   0  0  0  0  0  0  0  0  0  0  0  0
  189.1120  177.5140  138.8840 C   0  0  0  0  0  0  0  0  0  0  0  0
  188.4900  177.6770  140.1610 N   0  0  0  0  0  2  0  0  0  0  0  0
  190.5560  177.2420  141.2850 C   0  0  0  0  0  3  0  0  0  0  0  0
  1 11  1  0  0  0  0
  2  4  1  0  0  0  0
  3  5  1  0  0  0  0
  5  2  2  0  0  0  0
  6  3  1  0  0  0  0
  7 13  2  0  0  0  0
  8  4  2  0  0  0  0
  8 12  1  0  0  0  0
  9  1  2  0  0  0  0
  9 10  1  0  0  0  0
 10  6  2  0  0  0  0
 11  3  2  0  0  0  0
 11 14  1  0  0  0  0
 13  8  1  0  0  0  0
 14  7  1  1  0  0  0
 14  2  1  0  0  0  0
 15 13  1  0  0  0  0
 15 16  1  0  0  0  0
 17 10  1  0  0  0  0
 17 18  2  1  0  0  0
 19 20  2  0  0  0  0
 20 21  1  0  0  0  0
 20 17  1  0  0  0  0
 22 24  1  0  0  0  0
 22 21  1  0  0  0  0
 23 22  2  0  0  0  0
 25  1  1  0  0  0  0
 26 25  1  0  0  0  0
 27 26  1  0  0  0  0
 28 29  1  6  0  0  0
 28 30  1  0  0  0  0
 28 27  1  0  0  0  0
 30 31  1  0  0  0  0
 31 35  1  0  0  0  0
 33 37  1  0  0  0  0
 34 35  2  0  0  0  0
 34 33  1  0  0  0  0
 35 36  1  0  0  0  0
 36 32  1  0  0  0  0
 37 32  2  0  0  0  0
M  END
>  <MODEL>
4

>  <REMARK>
 VINA RESULT:      -8.2      3.956      7.959
  Name = 
  12 active torsions:
  status: ('A' for Active; 'I' for Inactive)
    1  A    between atoms: C_1  and  C_13
    2  A    between atoms: C_3  and  C_34
    3  A    between atoms: C_9  and  C_13
    4  A    between atoms: C_9  and  C_16
    5  A    between atoms: C_12  and  C_16
    6  A    between atoms: C_12  and  N_33
    7  A    between atoms: C_18  and  C_31
    8  A    between atoms: S_19  and  C_21
    9  A    between atoms: S_19  and  C_28
   10  A    between atoms: C_21  and  C_34
   11  A    between atoms: C_23  and  C_24
   12  A    between atoms: C_24  and  N_33
                            x       y       z     vdW  Elec       q    Type
                         _______ _______ _______ _____ _____    ______ ____

>  <TORSDO>
F 12

$$$$
=
 OpenBabel11042410233D

 37 40  0  0  1  0  0  0  0  0999 V2000
  183.5250  178.7410  141.7080 C   0  0  0  0  0  0  0  0  0  0  0  0
  185.0410  179.0020  145.0530 C   0  0  0  0  0  0  0  0  0  0  0  0
  183.0500  178.8730  144.0760 C   0  0  0  0  0  0  0  0  0  0  0  0
  186.0680  178.6730  145.9890 N   0  0  0  0  0  0  0  0  0  0  0  0
  183.7450  178.9400  145.3500 C   0  0  0  0  0  3  0  0  0  0  0  0
  181.6770  178.7930  143.8510 C   0  0  0  0  0  3  0  0  0  0  0  0
  186.2730  177.8620  143.2730 C   0  0  0  0  0  3  0  0  0  0  0  0
  187.0940  177.9750  145.5910 C   0  0  0  0  0  0  0  0  0  0  0  0
  182.1450  178.6730  141.4600 C   0  0  0  0  0  3  0  0  0  0  0  0
  181.2230  178.6910  142.5250 C   0  0  0  0  0  0  0  0  0  0  0  0
  183.9550  178.8250  143.0380 C   0  0  0  0  0  0  0  0  0  0  0  0
  188.1110  177.6340  146.5300 N   0  0  0  0  0  1  0  0  0  0  0  0
  187.1480  177.4350  144.1990 C   0  0  0  0  0  0  0  0  0  0  0  0
  185.3310  178.9940  143.5800 C   0  0  1  0  0  3  0  0  0  0  0  0
  188.1370  176.3820  143.8300 C   0  0  0  0  0  2  0  0  0  0  0  0
  189.4870  177.0130  143.5490 C   0  0  0  0  0  1  0  0  0  0  0  0
  179.4860  178.5930  142.1770 S   0  0  2  0  0  0  0  0  0  0  0  0
  179.2450  177.1520  141.7470 O   0  0  0  0  0  0  0  0  0  0  0  0
  178.9350  179.0160  139.6550 O   0  0  0  0  0  0  0  0  0  0  0  0
  179.2380  179.5610  140.7040 C   0  0  0  0  0  0  0  0  0  0  0  0
  179.3650  181.0470  140.7610 C   0  0  0  0  0  2  0  0  0  0  0  0
  179.9590  181.5630  139.4960 C   0  0  0  0  0  0  0  0  0  0  0  0
  181.1180  181.2110  139.1550 O   0  0  0  0  0  1  0  0  0  0  0  0
  179.2450  182.4550  138.7060 O   0  0  0  0  0  0  0  0  0  0  0  0
  184.4900  178.7730  140.5720 C   0  0  0  0  0  2  0  0  0  0  0  0
  183.7370  178.8270  139.2570 C   0  0  0  0  0  2  0  0  0  0  0  0
  183.7800  177.4610  138.5900 C   0  0  0  0  0  2  0  0  0  0  0  0
  184.4170  177.5280  137.2080 C   0  0  2  0  0  3  0  0  0  0  0  0
  183.5390  177.0260  136.2430 O   0  0  0  0  0  1  0  0  0  0  0  0
  185.6640  176.7810  137.1870 N   0  0  0  0  0  2  0  0  0  0  0  0
  186.7170  177.7110  136.8170 C   0  0  0  0  0  2  0  0  0  0  0  0
  188.5570  178.2890  140.1290 C   0  0  0  0  0  3  0  0  0  0  0  0
  189.9590  176.8940  138.6310 C   0  0  0  0  0  2  0  0  0  0  0  0
  188.8510  176.9730  137.6700 N   0  0  0  0  0  0  0  0  0  0  0  0
  187.7860  177.6960  137.8510 C   0  0  0  0  0  0  0  0  0  0  0  0
  187.5970  178.4060  139.0780 N   0  0  0  0  0  2  0  0  0  0  0  0
  189.6610  177.5680  139.9460 C   0  0  0  0  0  3  0  0  0  0  0  0
  1 11  1  0  0  0  0
  2  5  2  0  0  0  0
  2  4  1  0  0  0  0
  3  5  1  0  0  0  0
  6  3  1  0  0  0  0
  7 13  2  0  0  0  0
  8  4  2  0  0  0  0
  8 12  1  0  0  0  0
  9  1  2  0  0  0  0
  9 10  1  0  0  0  0
 10  6  2  0  0  0  0
 11 14  1  0  0  0  0
 11  3  2  0  0  0  0
 13  8  1  0  0  0  0
 14  7  1  1  0  0  0
 14  2  1  0  0  0  0
 15 13  1  0  0  0  0
 16 15  1  0  0  0  0
 17 18  2  6  0  0  0
 17 10  1  0  0  0  0
 19 20  2  0  0  0  0
 20 21  1  0  0  0  0
 20 17  1  0  0  0  0
 22 21  1  0  0  0  0
 23 22  1  0  0  0  0
 24 22  2  0  0  0  0
 25  1  1  0  0  0  0
 26 25  1  0  0  0  0
 27 26  1  0  0  0  0
 28 29  1  6  0  0  0
 28 27  1  0  0  0  0
 30 28  1  0  0  0  0
 31 30  1  0  0  0  0
 31 35  1  0  0  0  0
 33 37  1  0  0  0  0
 34 35  2  0  0  0  0
 34 33  1  0  0  0  0
 35 36  1  0  0  0  0
 36 32  1  0  0  0  0
 37 32  2  0  0  0  0
M  END
>  <MODEL>
5

>  <REMARK>
 VINA RESULT:      -8.1      4.176      8.325
  Name = 
  12 active torsions:
  status: ('A' for Active; 'I' for Inactive)
    1  A    between atoms: C_1  and  C_13
    2  A    between atoms: C_3  and  C_34
    3  A    between atoms: C_9  and  C_13
    4  A    between atoms: C_9  and  C_16
    5  A    between atoms: C_12  and  C_16
    6  A    between atoms: C_12  and  N_33
    7  A    between atoms: C_18  and  C_31
    8  A    between atoms: S_19  and  C_21
    9  A    between atoms: S_19  and  C_28
   10  A    between atoms: C_21  and  C_34
   11  A    between atoms: C_23  and  C_24
   12  A    between atoms: C_24  and  N_33
                            x       y       z     vdW  Elec       q    Type
                         _______ _______ _______ _____ _____    ______ ____

>  <TORSDO>
F 12

$$$$
=
 OpenBabel11042410233D

 37 40  0  0  1  0  0  0  0  0999 V2000
  184.4970  178.4940  140.6030 C   0  0  0  0  0  0  0  0  0  0  0  0
  183.4880  179.2720  144.0570 C   0  0  0  0  0  0  0  0  0  0  0  0
  182.6070  178.7070  142.0960 C   0  0  0  0  0  0  0  0  0  0  0  0
  183.7030  179.2060  145.4670 N   0  0  0  0  0  0  0  0  0  0  0  0
  182.3150  178.9930  143.4910 C   0  0  0  0  0  3  0  0  0  0  0  0
  181.7120  178.3600  141.0870 C   0  0  0  0  0  3  0  0  0  0  0  0
  185.6750  178.2510  143.6570 C   0  0  0  0  0  3  0  0  0  0  0  0
  184.8070  178.6820  145.9200 C   0  0  0  0  0  0  0  0  0  0  0  0
  183.6100  178.1540  139.5680 C   0  0  0  0  0  3  0  0  0  0  0  0
  182.2250  178.0790  139.8080 C   0  0  0  0  0  0  0  0  0  0  0  0
  183.9660  178.7510  141.8730 C   0  0  0  0  0  0  0  0  0  0  0  0
  185.0140  178.6030  147.3280 N   0  0  0  0  0  1  0  0  0  0  0  0
  185.7910  178.0610  144.9820 C   0  0  0  0  0  0  0  0  0  0  0  0
  184.6520  179.2100  143.1110 C   0  0  1  0  0  3  0  0  0  0  0  0
  186.8820  177.1840  145.4950 C   0  0  0  0  0  2  0  0  0  0  0  0
  188.0170  177.1240  144.4900 C   0  0  0  0  0  1  0  0  0  0  0  0
  181.1320  177.6390  138.4820 S   0  0  2  0  0  0  0  0  0  0  0  0
  182.0410  177.3670  137.2900 O   0  0  0  0  0  0  0  0  0  0  0  0
  179.2440  179.4400  138.6670 O   0  0  0  0  0  0  0  0  0  0  0  0
  180.2600  179.1330  138.0640 C   0  0  0  0  0  0  0  0  0  0  0  0
  180.7940  180.0320  136.9980 C   0  0  0  0  0  2  0  0  0  0  0  0
  181.1950  181.3420  137.5820 C   0  0  0  0  0  0  0  0  0  0  0  0
  182.0350  181.3830  138.5180 O   0  0  0  0  0  1  0  0  0  0  0  0
  180.6240  182.5170  137.1110 O   0  0  0  0  0  0  0  0  0  0  0  0
  185.9570  178.6200  140.3270 C   0  0  0  0  0  2  0  0  0  0  0  0
  186.2390  178.2810  138.8760 C   0  0  0  0  0  2  0  0  0  0  0  0
  187.6120  177.6380  138.7610 C   0  0  0  0  0  2  0  0  0  0  0  0
  188.7220  178.6090  139.1420 C   0  0  2  0  0  3  0  0  0  0  0  0
  189.0670  179.4070  138.0470 O   0  0  0  0  0  1  0  0  0  0  0  0
  189.8890  177.8830  139.6200 N   0  0  0  0  0  2  0  0  0  0  0  0
  189.4150  176.8660  140.5430 C   0  0  0  0  0  2  0  0  0  0  0  0
  191.4000  178.1310  143.5670 C   0  0  0  0  0  3  0  0  0  0  0  0
  191.3420  175.6510  143.5890 C   0  0  0  0  0  2  0  0  0  0  0  0
  190.5200  175.7500  142.3760 N   0  0  0  0  0  0  0  0  0  0  0  0
  190.2590  176.8690  141.7680 C   0  0  0  0  0  0  0  0  0  0  0  0
  190.7040  178.1100  142.3210 N   0  0  0  0  0  2  0  0  0  0  0  0
  191.6910  176.9890  144.1880 C   0  0  0  0  0  3  0  0  0  0  0  0
  1 11  1  0  0  0  0
  2  4  1  0  0  0  0
  3  5  1  0  0  0  0
  4  8  2  0  0  0  0
  5  2  2  0  0  0  0
  6  3  1  0  0  0  0
  7 13  2  0  0  0  0
  8 12  1  0  0  0  0
  9 10  1  0  0  0  0
  9  1  2  0  0  0  0
 10  6  2  0  0  0  0
 11  3  2  0  0  0  0
 11 14  1  0  0  0  0
 13 15  1  0  0  0  0
 13  8  1  0  0  0  0
 14  7  1  1  0  0  0
 14  2  1  0  0  0  0
 16 15  1  0  0  0  0
 17 18  2  6  0  0  0
 17 10  1  0  0  0  0
 20 17  1  0  0  0  0
 20 19  2  0  0  0  0
 21 22  1  0  0  0  0
 21 20  1  0  0  0  0
 22 23  1  0  0  0  0
 24 22  2  0  0  0  0
 25  1  1  0  0  0  0
 26 25  1  0  0  0  0
 27 26  1  0  0  0  0
 27 28  1  0  0  0  0
 28 29  1  6  0  0  0
 28 30  1  0  0  0  0
 30 31  1  0  0  0  0
 31 35  1  0  0  0  0
 32 37  2  0  0  0  0
 33 37  1  0  0  0  0
 34 33  1  0  0  0  0
 35 36  1  0  0  0  0
 35 34  2  0  0  0  0
 36 32  1  0  0  0  0
M  END
>  <MODEL>
6

>  <REMARK>
 VINA RESULT:      -8.0      3.607      8.470
  Name = 
  12 active torsions:
  status: ('A' for Active; 'I' for Inactive)
    1  A    between atoms: C_1  and  C_13
    2  A    between atoms: C_3  and  C_34
    3  A    between atoms: C_9  and  C_13
    4  A    between atoms: C_9  and  C_16
    5  A    between atoms: C_12  and  C_16
    6  A    between atoms: C_12  and  N_33
    7  A    between atoms: C_18  and  C_31
    8  A    between atoms: S_19  and  C_21
    9  A    between atoms: S_19  and  C_28
   10  A    between atoms: C_21  and  C_34
   11  A    between atoms: C_23  and  C_24
   12  A    between atoms: C_24  and  N_33
                            x       y       z     vdW  Elec       q    Type
                         _______ _______ _______ _____ _____    ______ ____

>  <TORSDO>
F 12

$$$$
=
 OpenBabel11042410233D

 37 40  0  0  1  0  0  0  0  0999 V2000
  188.4780  178.2520  141.0530 C   0  0  0  0  0  0  0  0  0  0  0  0
  189.0280  177.8660  137.4330 C   0  0  0  0  0  0  0  0  0  0  0  0
  189.9880  177.3790  139.3770 C   0  0  0  0  0  0  0  0  0  0  0  0
  188.5400  177.6240  136.1130 N   0  0  0  0  0  0  0  0  0  0  0  0
  190.0950  177.2460  137.9340 C   0  0  0  0  0  3  0  0  0  0  0  0
  190.8610  176.8980  140.3500 C   0  0  0  0  0  3  0  0  0  0  0  0
  186.7370  177.9290  138.2880 C   0  0  0  0  0  3  0  0  0  0  0  0
  187.2550  177.5210  135.9170 C   0  0  0  0  0  0  0  0  0  0  0  0
  189.3510  177.7850  142.0480 C   0  0  0  0  0  3  0  0  0  0  0  0
  190.5340  177.1040  141.7010 C   0  0  0  0  0  0  0  0  0  0  0  0
  188.8150  178.0190  139.7140 C   0  0  0  0  0  0  0  0  0  0  0  0
  186.7700  177.2650  134.6020 N   0  0  0  0  0  1  0  0  0  0  0  0
  186.3090  177.5520  137.0730 C   0  0  0  0  0  0  0  0  0  0  0  0
  188.1290  178.4700  138.4720 C   0  0  1  0  0  3  0  0  0  0  0  0
  184.8910  177.1180  136.9060 C   0  0  0  0  0  2  0  0  0  0  0  0
  184.0210  177.7670  137.9660 C   0  0  0  0  0  1  0  0  0  0  0  0
  191.6120  176.5190  142.9830 S   0  0  2  0  0  0  0  0  0  0  0  0
  191.0040  175.2020  143.4460 O   0  0  0  0  0  0  0  0  0  0  0  0
  191.9320  178.7280  144.3490 O   0  0  0  0  0  0  0  0  0  0  0  0
  191.3830  177.6380  144.3480 C   0  0  0  0  0  0  0  0  0  0  0  0
  190.4860  177.2560  145.4790 C   0  0  0  0  0  2  0  0  0  0  0  0
  191.2900  176.7400  146.6230 C   0  0  0  0  0  0  0  0  0  0  0  0
  191.0980  177.1920  147.7810 O   0  0  0  0  0  1  0  0  0  0  0  0
  192.2700  175.7800  146.4070 O   0  0  0  0  0  0  0  0  0  0  0  0
  187.2530  179.0160  141.4280 C   0  0  0  0  0  2  0  0  0  0  0  0
  186.3730  178.1690  142.3270 C   0  0  0  0  0  2  0  0  0  0  0  0
  184.9330  178.2430  141.8440 C   0  0  0  0  0  2  0  0  0  0  0  0
  183.9650  178.4890  142.9940 C   0  0  2  0  0  3  0  0  0  0  0  0
  182.7430  178.9620  142.5080 O   0  0  0  0  0  1  0  0  0  0  0  0
  184.5300  179.4410  143.9370 N   0  0  0  0  0  2  0  0  0  0  0  0
  184.1590  178.9980  145.2710 C   0  0  0  0  0  2  0  0  0  0  0  0
  186.7700  178.9640  148.0750 C   0  0  0  0  0  3  0  0  0  0  0  0
  187.3670  177.2710  146.3630 C   0  0  0  0  0  2  0  0  0  0  0  0
  186.1400  177.6770  145.6650 N   0  0  0  0  0  0  0  0  0  0  0  0
  185.3830  178.6620  146.0460 C   0  0  0  0  0  0  0  0  0  0  0  0
  185.6730  179.3670  147.2560 N   0  0  0  0  0  2  0  0  0  0  0  0
  187.5650  177.9690  147.6840 C   0  0  0  0  0  3  0  0  0  0  0  0
  1 25  1  0  0  0  0
  1  9  1  0  0  0  0
  2  5  2  0  0  0  0
  2 14  1  0  0  0  0
  3 11  1  0  0  0  0
  3  6  2  0  0  0  0
  4  2  1  0  0  0  0
  5  3  1  0  0  0  0
  6 10  1  0  0  0  0
  8  4  2  0  0  0  0
  8 13  1  0  0  0  0
 10  9  2  0  0  0  0
 10 17  1  0  0  0  0
 11  1  2  0  0  0  0
 12  8  1  0  0  0  0
 13  7  2  0  0  0  0
 14  7  1  1  0  0  0
 14 11  1  0  0  0  0
 15 13  1  0  0  0  0
 15 16  1  0  0  0  0
 17 18  2  1  0  0  0
 17 20  1  0  0  0  0
 20 19  2  0  0  0  0
 20 21  1  0  0  0  0
 21 22  1  0  0  0  0
 22 23  1  0  0  0  0
 24 22  2  0  0  0  0
 25 26  1  0  0  0  0
 27 26  1  0  0  0  0
 27 28  1  0  0  0  0
 28 29  1  6  0  0  0
 28 30  1  0  0  0  0
 30 31  1  0  0  0  0
 31 35  1  0  0  0  0
 33 37  1  0  0  0  0
 34 35  2  0  0  0  0
 34 33  1  0  0  0  0
 35 36  1  0  0  0  0
 36 32  1  0  0  0  0
 37 32  2  0  0  0  0
M  END
>  <MODEL>
7

>  <REMARK>
 VINA RESULT:      -8.0      3.810      7.382
  Name = 
  12 active torsions:
  status: ('A' for Active; 'I' for Inactive)
    1  A    between atoms: C_1  and  C_13
    2  A    between atoms: C_3  and  C_34
    3  A    between atoms: C_9  and  C_13
    4  A    between atoms: C_9  and  C_16
    5  A    between atoms: C_12  and  C_16
    6  A    between atoms: C_12  and  N_33
    7  A    between atoms: C_18  and  C_31
    8  A    between atoms: S_19  and  C_21
    9  A    between atoms: S_19  and  C_28
   10  A    between atoms: C_21  and  C_34
   11  A    between atoms: C_23  and  C_24
   12  A    between atoms: C_24  and  N_33
                            x       y       z     vdW  Elec       q    Type
                         _______ _______ _______ _____ _____    ______ ____

>  <TORSDO>
F 12

$$$$
=
 OpenBabel11042410233D

 37 40  0  0  1  0  0  0  0  0999 V2000
  183.7660  178.7130  141.5570 C   0  0  0  0  0  0  0  0  0  0  0  0
  185.0030  178.9970  145.0130 C   0  0  0  0  0  0  0  0  0  0  0  0
  183.0990  178.8220  143.8790 C   0  0  0  0  0  0  0  0  0  0  0  0
  185.9600  178.6900  146.0270 N   0  0  0  0  0  0  0  0  0  0  0  0
  183.6890  178.9010  145.2050 C   0  0  0  0  0  3  0  0  0  0  0  0
  181.7520  178.7100  143.5450 C   0  0  0  0  0  3  0  0  0  0  0  0
  186.4010  177.8940  143.3350 C   0  0  0  0  0  3  0  0  0  0  0  0
  187.0320  178.0180  145.7110 C   0  0  0  0  0  0  0  0  0  0  0  0
  182.4120  178.6110  141.1990 C   0  0  0  0  0  3  0  0  0  0  0  0
  181.4080  178.6020  142.1870 C   0  0  0  0  0  0  0  0  0  0  0  0
  184.0860  178.8010  142.9170 C   0  0  0  0  0  0  0  0  0  0  0  0
  187.9780  177.6990  146.7270 N   0  0  0  0  0  1  0  0  0  0  0  0
  187.2090  177.4850  144.3260 C   0  0  0  0  0  0  0  0  0  0  0  0
  185.4090  179.0020  143.5680 C   0  0  1  0  0  3  0  0  0  0  0  0
  188.2510  176.4580  144.0350 C   0  0  0  0  0  2  0  0  0  0  0  0
  188.7690  176.6310  142.6200 C   0  0  0  0  0  1  0  0  0  0  0  0
  179.7070  178.4630  141.7010 S   0  0  2  0  0  0  0  0  0  0  0  0
  178.9310  178.3220  143.0040 O   0  0  0  0  0  0  0  0  0  0  0  0
  179.1430  175.9150  141.5270 O   0  0  0  0  0  0  0  0  0  0  0  0
  179.5640  176.8770  140.9060 C   0  0  0  0  0  0  0  0  0  0  0  0
  179.9250  176.7340  139.4650 C   0  0  0  0  0  2  0  0  0  0  0  0
  180.8740  175.6000  139.2810 C   0  0  0  0  0  0  0  0  0  0  0  0
  182.0950  175.7520  139.5450 O   0  0  0  0  0  1  0  0  0  0  0  0
  180.4170  174.3820  138.7930 O   0  0  0  0  0  0  0  0  0  0  0  0
  184.8170  178.7730  140.5010 C   0  0  0  0  0  2  0  0  0  0  0  0
  184.2400  179.3670  139.2320 C   0  0  0  0  0  2  0  0  0  0  0  0
  184.1640  178.2940  138.1570 C   0  0  0  0  0  2  0  0  0  0  0  0
  185.5480  177.8030  137.7530 C   0  0  2  0  0  3  0  0  0  0  0  0
  186.4820  178.8360  137.8640 O   0  0  0  0  0  1  0  0  0  0  0  0
  185.5280  177.2920  136.3910 N   0  0  0  0  0  2  0  0  0  0  0  0
  186.2610  176.0370  136.3910 C   0  0  0  0  0  2  0  0  0  0  0  0
  183.1110  173.8550  136.3970 C   0  0  0  0  0  3  0  0  0  0  0  0
  184.9380  172.6810  137.5970 C   0  0  0  0  0  2  0  0  0  0  0  0
  185.7760  173.8410  137.2670 N   0  0  0  0  0  0  0  0  0  0  0  0
  185.3310  174.9130  136.6830 C   0  0  0  0  0  0  0  0  0  0  0  0
  183.9740  174.9810  136.2400 N   0  0  0  0  0  2  0  0  0  0  0  0
  183.5500  172.7590  137.0130 C   0  0  0  0  0  3  0  0  0  0  0  0
  1 11  1  0  0  0  0
  2  5  2  0  0  0  0
  2  4  1  0  0  0  0
  3  5  1  0  0  0  0
  6  3  1  0  0  0  0
  7 13  2  0  0  0  0
  8  4  2  0  0  0  0
  8 12  1  0  0  0  0
  9  1  2  0  0  0  0
  9 10  1  0  0  0  0
 10  6  2  0  0  0  0
 11 14  1  0  0  0  0
 11  3  2  0  0  0  0
 13  8  1  0  0  0  0
 14  7  1  1  0  0  0
 14  2  1  0  0  0  0
 15 13  1  0  0  0  0
 16 15  1  0  0  0  0
 17 10  1  0  0  0  0
 17 18  2  1  0  0  0
 20 19  2  0  0  0  0
 20 17  1  0  0  0  0
 21 20  1  0  0  0  0
 22 21  1  0  0  0  0
 22 23  1  0  0  0  0
 24 22  2  0  0  0  0
 25  1  1  0  0  0  0
 26 25  1  0  0  0  0
 27 26  1  0  0  0  0
 28 29  1  6  0  0  0
 28 27  1  0  0  0  0
 30 28  1  0  0  0  0
 31 30  1  0  0  0  0
 31 35  1  0  0  0  0
 32 37  2  0  0  0  0
 34 33  1  0  0  0  0
 35 34  2  0  0  0  0
 36 32  1  0  0  0  0
 36 35  1  0  0  0  0
 37 33  1  0  0  0  0
M  END
>  <MODEL>
8

>  <REMARK>
 VINA RESULT:      -7.9      4.544      7.827
  Name = 
  12 active torsions:
  status: ('A' for Active; 'I' for Inactive)
    1  A    between atoms: C_1  and  C_13
    2  A    between atoms: C_3  and  C_34
    3  A    between atoms: C_9  and  C_13
    4  A    between atoms: C_9  and  C_16
    5  A    between atoms: C_12  and  C_16
    6  A    between atoms: C_12  and  N_33
    7  A    between atoms: C_18  and  C_31
    8  A    between atoms: S_19  and  C_21
    9  A    between atoms: S_19  and  C_28
   10  A    between atoms: C_21  and  C_34
   11  A    between atoms: C_23  and  C_24
   12  A    between atoms: C_24  and  N_33
                            x       y       z     vdW  Elec       q    Type
                         _______ _______ _______ _____ _____    ______ ____

>  <TORSDO>
F 12

$$$$
=
 OpenBabel11042410233D

 37 40  0  0  1  0  0  0  0  0999 V2000
  186.8980  178.6050  140.5190 C   0  0  0  0  0  0  0  0  0  0  0  0
  184.9220  177.8820  137.4970 C   0  0  0  0  0  0  0  0  0  0  0  0
  186.9810  177.6480  138.2990 C   0  0  0  0  0  0  0  0  0  0  0  0
  183.7060  177.4800  136.8650 N   0  0  0  0  0  0  0  0  0  0  0  0
  186.1080  177.3740  137.1700 C   0  0  0  0  0  3  0  0  0  0  0  0
  188.3260  177.3160  138.4440 C   0  0  0  0  0  3  0  0  0  0  0  0
  183.8030  177.9090  139.6730 C   0  0  0  0  0  3  0  0  0  0  0  0
  182.6410  177.2900  137.5930 C   0  0  0  0  0  0  0  0  0  0  0  0
  188.2570  178.2900  140.6790 C   0  0  0  0  0  3  0  0  0  0  0  0
  188.9680  177.6410  139.6510 C   0  0  0  0  0  0  0  0  0  0  0  0
  186.2750  178.2550  139.3140 C   0  0  0  0  0  0  0  0  0  0  0  0
  181.4320  176.8750  136.9630 N   0  0  0  0  0  1  0  0  0  0  0  0
  182.7160  177.3870  139.0830 C   0  0  0  0  0  0  0  0  0  0  0  0
  184.8910  178.5400  138.8460 C   0  0  1  0  0  3  0  0  0  0  0  0
  181.6090  176.8630  139.9350 C   0  0  0  0  0  2  0  0  0  0  0  0
  181.0400  177.9790  140.7910 C   0  0  0  0  0  1  0  0  0  0  0  0
  190.6820  177.2490  139.8890 S   0  0  2  0  0  0  0  0  0  0  0  0
  190.9000  175.9430  139.1370 O   0  0  0  0  0  0  0  0  0  0  0  0
  190.0850  176.0070  142.1130 O   0  0  0  0  0  0  0  0  0  0  0  0
  190.8410  176.8230  141.6100 C   0  0  0  0  0  0  0  0  0  0  0  0
  191.9260  177.4370  142.4300 C   0  0  0  0  0  2  0  0  0  0  0  0
  191.3860  177.8910  143.7430 C   0  0  0  0  0  0  0  0  0  0  0  0
  191.6820  177.2680  144.7950 O   0  0  0  0  0  1  0  0  0  0  0  0
  190.5330  178.9860  143.8020 O   0  0  0  0  0  0  0  0  0  0  0  0
  186.1670  179.3370  141.5930 C   0  0  0  0  0  2  0  0  0  0  0  0
  185.6450  178.3540  142.6230 C   0  0  0  0  0  2  0  0  0  0  0  0
  184.3140  178.8470  143.1680 C   0  0  0  0  0  2  0  0  0  0  0  0
  184.2070  178.6310  144.6720 C   0  0  2  0  0  3  0  0  0  0  0  0
  183.0260  179.1970  145.1620 O   0  0  0  0  0  1  0  0  0  0  0  0
  185.3570  179.2080  145.3510 N   0  0  0  0  0  2  0  0  0  0  0  0
  185.3810  178.6600  146.6970 C   0  0  0  0  0  2  0  0  0  0  0  0
  188.8770  177.1260  146.3620 C   0  0  0  0  0  3  0  0  0  0  0  0
  188.6710  178.2540  148.5630 C   0  0  0  0  0  2  0  0  0  0  0  0
  187.3150  178.6290  148.1410 N   0  0  0  0  0  0  0  0  0  0  0  0
  186.7630  178.2250  147.0360 C   0  0  0  0  0  0  0  0  0  0  0  0
  187.5070  177.4370  146.1040 N   0  0  0  0  0  2  0  0  0  0  0  0
  189.4470  177.5180  147.5000 C   0  0  0  0  0  3  0  0  0  0  0  0
  1  9  1  0  0  0  0
  1 25  1  0  0  0  0
  2 14  1  0  0  0  0
  3  6  2  0  0  0  0
  3 11  1  0  0  0  0
  4  2  1  0  0  0  0
  4  8  2  0  0  0  0
  5  2  2  0  0  0  0
  5  3  1  0  0  0  0
  6 10  1  0  0  0  0
  8 13  1  0  0  0  0
 10 17  1  0  0  0  0
 10  9  2  0  0  0  0
 11  1  2  0  0  0  0
 12  8  1  0  0  0  0
 13  7  2  0  0  0  0
 13 15  1  0  0  0  0
 14 11  1  0  0  0  0
 14  7  1  1  0  0  0
 15 16  1  0  0  0  0
 17 18  2  6  0  0  0
 17 20  1  0  0  0  0
 20 19  2  0  0  0  0
 20 21  1  0  0  0  0
 21 22  1  0  0  0  0
 22 24  2  0  0  0  0
 22 23  1  0  0  0  0
 25 26  1  0  0  0  0
 26 27  1  0  0  0  0
 27 28  1  0  0  0  0
 28 29  1  1  0  0  0
 28 30  1  0  0  0  0
 30 31  1  0  0  0  0
 31 35  1  0  0  0  0
 32 37  2  0  0  0  0
 34 33  1  0  0  0  0
 35 34  2  0  0  0  0
 36 32  1  0  0  0  0
 36 35  1  0  0  0  0
 37 33  1  0  0  0  0
M  END
>  <MODEL>
9

>  <REMARK>
 VINA RESULT:      -7.8      3.058      7.589
  Name = 
  12 active torsions:
  status: ('A' for Active; 'I' for Inactive)
    1  A    between atoms: C_1  and  C_13
    2  A    between atoms: C_3  and  C_34
    3  A    between atoms: C_9  and  C_13
    4  A    between atoms: C_9  and  C_16
    5  A    between atoms: C_12  and  C_16
    6  A    between atoms: C_12  and  N_33
    7  A    between atoms: C_18  and  C_31
    8  A    between atoms: S_19  and  C_21
    9  A    between atoms: S_19  and  C_28
   10  A    between atoms: C_21  and  C_34
   11  A    between atoms: C_23  and  C_24
   12  A    between atoms: C_24  and  N_33
                            x       y       z     vdW  Elec       q    Type
                         _______ _______ _______ _____ _____    ______ ____

>  <TORSDO>
F 12

$$$$
