=
 OpenBabel11032420063D

 46 51  0  0  1  0  0  0  0  0999 V2000
  180.3810  183.5740  136.5580 C   0  0  0  0  0  0  0  0  0  0  0  0
  180.7290  179.5110  137.7750 C   0  0  2  0  0  3  0  0  0  0  0  0
  180.3590  181.2360  135.8740 C   0  0  0  0  0  3  0  0  0  0  0  0
  181.4820  177.3750  140.0640 C   0  0  2  0  0  3  0  0  0  0  0  0
  181.2560  177.1500  134.8770 C   0  0  0  0  0  3  0  0  0  0  0  0
  180.7910  178.7460  140.2120 C   0  0  2  0  0  3  0  0  0  0  0  0
  182.4440  176.4990  135.1900 C   0  0  0  0  0  3  0  0  0  0  0  0
  180.9900  181.2410  139.5090 C   0  0  0  0  0  2  0  0  0  0  0  0
  180.6410  183.1940  137.8820 C   0  0  0  0  0  3  0  0  0  0  0  0
  181.2960  179.7710  139.1790 C   0  0  2  0  0  3  0  0  0  0  0  0
  182.6490  177.8120  137.2240 C   0  0  0  0  0  0  0  0  0  0  0  0
  180.7570  178.1280  135.7300 C   0  0  0  0  0  3  0  0  0  0  0  0
  183.1530  176.8220  136.3490 C   0  0  0  0  0  0  0  0  0  0  0  0
  180.7740  181.8360  138.1730 C   0  0  0  0  0  0  0  0  0  0  0  0
  180.2480  184.9520  136.2310 N   0  0  0  0  0  1  0  0  0  0  0  0
  183.3610  178.0660  138.4460 N   0  0  0  0  0  0  0  0  0  0  0  0
  180.2350  182.5990  135.5570 C   0  0  0  0  0  3  0  0  0  0  0  0
  183.8020  177.1210  140.5390 O   0  0  0  0  0  0  0  0  0  0  0  0
  181.4360  178.4880  136.9020 C   0  0  0  0  0  0  0  0  0  0  0  0
  182.9410  177.4820  139.6930 C   0  0  0  0  0  0  0  0  0  0  0  0
  180.6510  180.8790  137.1940 C   0  0  0  0  0  0  0  0  0  0  0  0
  183.6410  173.5970  135.5980 S   0  0  0  0  0  0  0  0  0  0  0  0
  187.6050  172.5560  137.2790 C   0  0  0  0  0  1  0  0  0  0  0  0
  184.3540  176.1180  136.7100 N   0  0  0  0  0  2  0  0  0  0  0  0
  185.2950  171.9720  136.9340 N   0  0  0  0  0  0  0  0  0  0  0  0
  183.8710  172.2670  136.8120 C   0  0  2  0  0  3  0  0  0  0  0  0
  186.1770  172.9150  137.0780 C   0  0  0  0  0  0  0  0  0  0  0  0
  185.7920  174.2970  137.0720 N   0  0  0  0  0  0  0  0  0  0  0  0
  184.6800  174.7280  136.5560 C   0  0  0  0  0  0  0  0  0  0  0  0
  183.1180  171.0270  136.3660 C   0  0  0  0  0  2  0  0  0  0  0  0
  181.8580  171.4220  135.6180 C   0  0  0  0  0  2  0  0  0  0  0  0
  180.6440  170.9120  136.3650 C   0  0  0  0  0  2  0  0  0  0  0  0
  180.2550  171.9090  137.4380 C   0  0  0  0  0  1  0  0  0  0  0  0
  180.7120  176.3660  139.2480 C   0  0  0  0  0  0  0  0  0  0  0  0
  179.5480  176.5690  138.9390 O   0  0  0  0  0  0  0  0  0  0  0  0
  181.3520  175.0770  138.8540 C   0  0  0  0  0  1  0  0  0  0  0  0
  179.9960  179.8640  142.1780 O   0  0  0  0  0  0  0  0  0  0  0  0
  182.1460  178.9650  142.3270 N   0  0  0  0  0  2  0  0  0  0  0  0
  180.9300  179.2220  141.6250 C   0  0  0  0  0  0  0  0  0  0  0  0
  182.3540  179.3700  143.7080 C   0  0  1  0  0  3  0  0  0  0  0  0
  183.6230  178.7210  144.2210 C   0  0  1  0  0  3  0  0  0  0  0  0
  183.6240  180.1830  143.8170 C   0  0  0  0  0  2  0  0  0  0  0  0
  184.8600  178.3360  146.0110 C   0  0  0  0  0  1  0  0  0  0  0  0
  183.5500  178.6150  145.6090 O   0  0  0  0  0  0  0  0  0  0  0  0
  184.5970  179.9390  139.0870 O   0  0  0  0  0  1  0  0  0  0  0  0
  184.6520  178.7410  138.3740 C   0  0  0  0  0  2  0  0  0  0  0  0
  1  9  1  0  0  0  0
  2 19  1  6  0  0  0
  2 10  1  0  0  0  0
  3 21  2  0  0  0  0
  4 34  1  6  0  0  0
  4  6  1  0  0  0  0
  5  7  2  0  0  0  0
  5 12  1  0  0  0  0
  6 39  1  1  0  0  0
  7 13  1  0  0  0  0
  9 14  2  0  0  0  0
 10  8  1  1  0  0  0
 10  6  1  0  0  0  0
 11 16  1  0  0  0  0
 12 19  2  0  0  0  0
 13 24  1  0  0  0  0
 13 11  2  0  0  0  0
 14  8  1  0  0  0  0
 15  1  1  0  0  0  0
 16 20  1  0  0  0  0
 17  3  1  0  0  0  0
 17  1  2  0  0  0  0
 19 11  1  0  0  0  0
 20  4  1  0  0  0  0
 20 18  2  0  0  0  0
 21  2  1  0  0  0  0
 21 14  1  0  0  0  0
 22 29  1  0  0  0  0
 22 26  1  0  0  0  0
 25 27  2  0  0  0  0
 26 30  1  6  0  0  0
 26 25  1  0  0  0  0
 27 23  1  0  0  0  0
 28 27  1  0  0  0  0
 29 24  1  0  0  0  0
 29 28  2  0  0  0  0
 31 32  1  0  0  0  0
 31 30  1  0  0  0  0
 32 33  1  0  0  0  0
 35 34  2  0  0  0  0
 36 34  1  0  0  0  0
 39 37  2  0  0  0  0
 39 38  1  0  0  0  0
 40 38  1  6  0  0  0
 40 42  1  0  0  0  0
 40 41  1  0  0  0  0
 41 44  1  1  0  0  0
 42 41  1  0  0  0  0
 44 43  1  0  0  0  0
 46 16  1  0  0  0  0
 46 45  1  0  0  0  0
M  END
>  <MODEL>
1

>  <REMARK>
 VINA RESULT:      -6.1      0.000      0.000
  Name = 
  9 active torsions:
  status: ('A' for Active; 'I' for Inactive)
    1  A    between atoms: N_6  and  C_30
    2  A    between atoms: C_8  and  C_10
    3  A    between atoms: C_12  and  C_37
    4  A    between atoms: C_16  and  N_23
    5  A    between atoms: C_18  and  O_44
    6  A    between atoms: C_19  and  N_36
    7  A    between atoms: C_20  and  C_27
    8  A    between atoms: C_27  and  C_42
    9  A    between atoms: C_34  and  C_42
                            x       y       z     vdW  Elec       q    Type
                         _______ _______ _______ _____ _____    ______ ____

>  <TORSDO>
F 9

$$$$
=
 OpenBabel11032420063D

 46 51  0  0  1  0  0  0  0  0999 V2000
  183.8550  178.4660  141.6820 C   0  0  0  0  0  0  0  0  0  0  0  0
  185.8850  177.9440  137.9780 C   0  0  2  0  0  3  0  0  0  0  0  0
  185.9570  178.6690  140.4680 C   0  0  0  0  0  3  0  0  0  0  0  0
  185.8890  176.7710  134.9800 C   0  0  2  0  0  3  0  0  0  0  0  0
  189.6410  178.0680  138.3330 C   0  0  0  0  0  3  0  0  0  0  0  0
  184.7210  177.3930  135.7730 C   0  0  2  0  0  3  0  0  0  0  0  0
  190.0650  176.8520  137.8080 C   0  0  0  0  0  3  0  0  0  0  0  0
  183.5090  177.3000  138.0700 C   0  0  0  0  0  2  0  0  0  0  0  0
  183.2340  177.9450  140.5380 C   0  0  0  0  0  3  0  0  0  0  0  0
  184.8120  177.0950  137.2800 C   0  0  2  0  0  3  0  0  0  0  0  0
  187.7600  176.2090  137.3880 C   0  0  0  0  0  0  0  0  0  0  0  0
  188.2830  178.3620  138.3870 C   0  0  0  0  0  3  0  0  0  0  0  0
  189.1420  175.9130  137.3410 C   0  0  0  0  0  0  0  0  0  0  0  0
  183.9960  177.7780  139.3820 C   0  0  0  0  0  0  0  0  0  0  0  0
  183.1040  178.6400  142.8780 N   0  0  0  0  0  1  0  0  0  0  0  0
  186.8420  175.2550  136.8280 N   0  0  0  0  0  0  0  0  0  0  0  0
  185.2110  178.8320  141.6470 C   0  0  0  0  0  3  0  0  0  0  0  0
  186.1040  174.4070  134.7780 O   0  0  0  0  0  0  0  0  0  0  0  0
  187.3210  177.4500  137.9340 C   0  0  0  0  0  0  0  0  0  0  0  0
  186.3070  175.4190  135.5020 C   0  0  0  0  0  0  0  0  0  0  0  0
  185.3280  178.1160  139.3480 C   0  0  0  0  0  0  0  0  0  0  0  0
  192.2760  174.7720  137.6300 S   0  0  0  0  0  0  0  0  0  0  0  0
  192.3920  170.9820  135.3400 C   0  0  0  0  0  1  0  0  0  0  0  0
  189.5720  174.6760  136.7470 N   0  0  0  0  0  2  0  0  0  0  0  0
  193.4270  173.0810  135.9060 N   0  0  0  0  0  0  0  0  0  0  0  0
  193.4170  174.5000  136.2450 C   0  0  2  0  0  3  0  0  0  0  0  0
  192.3270  172.4040  135.7650 C   0  0  0  0  0  0  0  0  0  0  0  0
  191.0480  173.0160  135.9860 N   0  0  0  0  0  0  0  0  0  0  0  0
  190.8840  174.0970  136.6890 C   0  0  0  0  0  0  0  0  0  0  0  0
  194.8130  174.9540  136.6310 C   0  0  0  0  0  2  0  0  0  0  0  0
  195.6440  173.7640  137.0780 C   0  0  0  0  0  2  0  0  0  0  0  0
  195.4660  173.5530  138.5670 C   0  0  0  0  0  2  0  0  0  0  0  0
  196.4440  174.4300  139.3220 C   0  0  0  0  0  1  0  0  0  0  0  0
  187.0390  177.7100  134.7120 C   0  0  0  0  0  0  0  0  0  0  0  0
  188.1790  177.2860  134.5940 O   0  0  0  0  0  0  0  0  0  0  0  0
  186.8030  179.1820  134.6430 C   0  0  0  0  0  1  0  0  0  0  0  0
  182.6720  177.7930  134.5940 O   0  0  0  0  0  0  0  0  0  0  0  0
  183.0320  175.5880  135.2730 N   0  0  0  0  0  2  0  0  0  0  0  0
  183.4230  176.9570  135.1660 C   0  0  0  0  0  0  0  0  0  0  0  0
  181.8010  175.0770  134.6920 C   0  0  1  0  0  3  0  0  0  0  0  0
  181.3360  173.8860  135.5030 C   0  0  1  0  0  3  0  0  0  0  0  0
  180.6650  175.2350  135.6790 C   0  0  0  0  0  2  0  0  0  0  0  0
  180.6890  171.7890  135.2440 C   0  0  0  0  0  1  0  0  0  0  0  0
  180.5460  173.0670  134.6980 O   0  0  0  0  0  0  0  0  0  0  0  0
  185.2620  173.7810  137.7110 O   0  0  0  0  0  1  0  0  0  0  0  0
  186.6290  173.9950  137.5320 C   0  0  0  0  0  2  0  0  0  0  0  0
  1 15  1  0  0  0  0
  2 19  1  1  0  0  0
  2 21  1  0  0  0  0
  3 17  2  0  0  0  0
  4 34  1  1  0  0  0
  4 20  1  0  0  0  0
  4  6  1  0  0  0  0
  5 12  1  0  0  0  0
  6 39  1  6  0  0  0
  6 10  1  0  0  0  0
  7  5  2  0  0  0  0
  8 14  1  0  0  0  0
  9  1  2  0  0  0  0
 10  2  1  0  0  0  0
 10  8  1  1  0  0  0
 11 19  1  0  0  0  0
 13 11  2  0  0  0  0
 13  7  1  0  0  0  0
 14  9  1  0  0  0  0
 16 11  1  0  0  0  0
 16 46  1  0  0  0  0
 17  1  1  0  0  0  0
 18 20  2  0  0  0  0
 19 12  2  0  0  0  0
 20 16  1  0  0  0  0
 21 14  2  0  0  0  0
 21  3  1  0  0  0  0
 23 27  1  0  0  0  0
 24 13  1  0  0  0  0
 25 26  1  0  0  0  0
 26 30  1  1  0  0  0
 26 22  1  0  0  0  0
 27 25  2  0  0  0  0
 27 28  1  0  0  0  0
 28 29  2  0  0  0  0
 29 24  1  0  0  0  0
 29 22  1  0  0  0  0
 30 31  1  0  0  0  0
 31 32  1  0  0  0  0
 32 33  1  0  0  0  0
 35 34  2  0  0  0  0
 36 34  1  0  0  0  0
 37 39  2  0  0  0  0
 39 38  1  0  0  0  0
 40 38  1  1  0  0  0
 40 41  1  0  0  0  0
 40 42  1  0  0  0  0
 41 44  1  6  0  0  0
 41 42  1  0  0  0  0
 44 43  1  0  0  0  0
 46 45  1  0  0  0  0
M  END
>  <MODEL>
2

>  <REMARK>
 VINA RESULT:      -4.9      4.526      8.531
  Name = 
  9 active torsions:
  status: ('A' for Active; 'I' for Inactive)
    1  A    between atoms: N_6  and  C_30
    2  A    between atoms: C_8  and  C_10
    3  A    between atoms: C_12  and  C_37
    4  A    between atoms: C_16  and  N_23
    5  A    between atoms: C_18  and  O_44
    6  A    between atoms: C_19  and  N_36
    7  A    between atoms: C_20  and  C_27
    8  A    between atoms: C_27  and  C_42
    9  A    between atoms: C_34  and  C_42
                            x       y       z     vdW  Elec       q    Type
                         _______ _______ _______ _____ _____    ______ ____

>  <TORSDO>
F 9

$$$$
=
 OpenBabel11032420063D

 46 51  0  0  1  0  0  0  0  0999 V2000
  184.0580  178.4430  141.8570 C   0  0  0  0  0  0  0  0  0  0  0  0
  186.0840  177.9260  138.1500 C   0  0  2  0  0  3  0  0  0  0  0  0
  186.1700  178.6020  140.6530 C   0  0  0  0  0  3  0  0  0  0  0  0
  186.0600  176.8110  135.1300 C   0  0  2  0  0  3  0  0  0  0  0  0
  189.8400  177.9240  138.5160 C   0  0  0  0  0  3  0  0  0  0  0  0
  184.9100  177.4540  135.9310 C   0  0  2  0  0  3  0  0  0  0  0  0
  190.2270  176.7060  137.9700 C   0  0  0  0  0  3  0  0  0  0  0  0
  183.6880  177.3570  138.2230 C   0  0  0  0  0  2  0  0  0  0  0  0
  183.4250  177.9630  140.7020 C   0  0  0  0  0  3  0  0  0  0  0  0
  184.9870  177.1250  137.4330 C   0  0  2  0  0  3  0  0  0  0  0  0
  187.9040  176.1440  137.5310 C   0  0  0  0  0  0  0  0  0  0  0  0
  188.4920  178.2610  138.5720 C   0  0  0  0  0  3  0  0  0  0  0  0
  189.2760  175.8060  137.4830 C   0  0  0  0  0  0  0  0  0  0  0  0
  184.1850  177.7940  139.5450 C   0  0  0  0  0  0  0  0  0  0  0  0
  183.3100  178.6180  143.0540 N   0  0  0  0  0  1  0  0  0  0  0  0
  186.9580  175.2310  136.9520 N   0  0  0  0  0  0  0  0  0  0  0  0
  185.4260  178.7660  141.8320 C   0  0  0  0  0  3  0  0  0  0  0  0
  186.2000  174.4460  134.8840 O   0  0  0  0  0  0  0  0  0  0  0  0
  187.5030  177.3890  138.1000 C   0  0  0  0  0  0  0  0  0  0  0  0
  186.4340  175.4360  135.6270 C   0  0  0  0  0  0  0  0  0  0  0  0
  185.5280  178.0910  139.5210 C   0  0  0  0  0  0  0  0  0  0  0  0
  192.4800  174.8870  137.1710 S   0  0  0  0  0  0  0  0  0  0  0  0
  192.4150  170.9880  135.0700 C   0  0  0  0  0  1  0  0  0  0  0  0
  189.6690  174.5670  136.8670 N   0  0  0  0  0  2  0  0  0  0  0  0
  193.3840  173.1780  135.3220 N   0  0  0  0  0  0  0  0  0  0  0  0
  193.3360  174.6110  135.5950 C   0  0  2  0  0  3  0  0  0  0  0  0
  192.3310  172.4250  135.4380 C   0  0  0  0  0  0  0  0  0  0  0  0
  191.0810  172.9660  135.8910 N   0  0  0  0  0  0  0  0  0  0  0  0
  190.9820  174.0710  136.5660 C   0  0  0  0  0  0  0  0  0  0  0  0
  194.7430  175.1750  135.6660 C   0  0  0  0  0  2  0  0  0  0  0  0
  194.7240  176.6640  135.3710 C   0  0  0  0  0  2  0  0  0  0  0  0
  196.1070  177.1140  134.9480 C   0  0  0  0  0  2  0  0  0  0  0  0
  197.1180  176.0450  135.3060 C   0  0  0  0  0  1  0  0  0  0  0  0
  187.2400  177.7180  134.8820 C   0  0  0  0  0  0  0  0  0  0  0  0
  187.1040  178.9320  134.8700 O   0  0  0  0  0  0  0  0  0  0  0  0
  188.5840  177.1360  134.5940 C   0  0  0  0  0  1  0  0  0  0  0  0
  183.4090  175.8960  134.8990 O   0  0  0  0  0  0  0  0  0  0  0  0
  182.5840  178.0640  135.1700 N   0  0  0  0  0  2  0  0  0  0  0  0
  183.6000  177.0720  135.3130 C   0  0  0  0  0  0  0  0  0  0  0  0
  181.2770  177.7710  134.6040 C   0  0  1  0  0  3  0  0  0  0  0  0
  180.4810  176.9640  135.6090 C   0  0  1  0  0  3  0  0  0  0  0  0
  180.2010  178.4430  135.4270 C   0  0  0  0  0  2  0  0  0  0  0  0
  179.4180  175.0270  135.6600 C   0  0  0  0  0  1  0  0  0  0  0  0
  179.5190  176.2150  134.9310 O   0  0  0  0  0  0  0  0  0  0  0  0
  185.3300  173.7190  137.6680 O   0  0  0  0  0  1  0  0  0  0  0  0
  186.7040  173.9660  137.6310 C   0  0  0  0  0  2  0  0  0  0  0  0
  1 15  1  0  0  0  0
  2 19  1  1  0  0  0
  2 21  1  0  0  0  0
  3 17  2  0  0  0  0
  4 34  1  1  0  0  0
  4 20  1  0  0  0  0
  4  6  1  0  0  0  0
  5 12  1  0  0  0  0
  6 39  1  6  0  0  0
  6 10  1  0  0  0  0
  7  5  2  0  0  0  0
  8 14  1  0  0  0  0
  9  1  2  0  0  0  0
 10  2  1  0  0  0  0
 10  8  1  1  0  0  0
 11 19  1  0  0  0  0
 13 11  2  0  0  0  0
 13  7  1  0  0  0  0
 14  9  1  0  0  0  0
 16 11  1  0  0  0  0
 16 46  1  0  0  0  0
 17  1  1  0  0  0  0
 18 20  2  0  0  0  0
 19 12  2  0  0  0  0
 20 16  1  0  0  0  0
 21 14  2  0  0  0  0
 21  3  1  0  0  0  0
 23 27  1  0  0  0  0
 24 13  1  0  0  0  0
 25 27  2  0  0  0  0
 25 26  1  0  0  0  0
 26 30  1  1  0  0  0
 26 22  1  0  0  0  0
 27 28  1  0  0  0  0
 28 29  2  0  0  0  0
 29 24  1  0  0  0  0
 29 22  1  0  0  0  0
 31 30  1  0  0  0  0
 32 33  1  0  0  0  0
 32 31  1  0  0  0  0
 35 34  2  0  0  0  0
 36 34  1  0  0  0  0
 37 39  2  0  0  0  0
 38 39  1  0  0  0  0
 40 38  1  1  0  0  0
 40 42  1  0  0  0  0
 40 41  1  0  0  0  0
 41 44  1  6  0  0  0
 42 41  1  0  0  0  0
 44 43  1  0  0  0  0
 46 45  1  0  0  0  0
M  END
>  <MODEL>
3

>  <REMARK>
 VINA RESULT:      -4.7      4.673      8.573
  Name = 
  9 active torsions:
  status: ('A' for Active; 'I' for Inactive)
    1  A    between atoms: N_6  and  C_30
    2  A    between atoms: C_8  and  C_10
    3  A    between atoms: C_12  and  C_37
    4  A    between atoms: C_16  and  N_23
    5  A    between atoms: C_18  and  O_44
    6  A    between atoms: C_19  and  N_36
    7  A    between atoms: C_20  and  C_27
    8  A    between atoms: C_27  and  C_42
    9  A    between atoms: C_34  and  C_42
                            x       y       z     vdW  Elec       q    Type
                         _______ _______ _______ _____ _____    ______ ____

>  <TORSDO>
F 9

$$$$
=
 OpenBabel11032420063D

 46 51  0  0  1  0  0  0  0  0999 V2000
  184.5780  172.3000  136.8620 C   0  0  0  0  0  0  0  0  0  0  0  0
  186.8190  175.9180  136.9210 C   0  0  2  0  0  3  0  0  0  0  0  0
  184.5960  174.6740  137.4100 C   0  0  0  0  0  3  0  0  0  0  0  0
  189.6560  177.4060  136.6010 C   0  0  2  0  0  3  0  0  0  0  0  0
  185.2370  178.5910  139.0660 C   0  0  0  0  0  3  0  0  0  0  0  0
  189.0990  176.2080  135.8060 C   0  0  2  0  0  3  0  0  0  0  0  0
  186.2300  178.9110  139.9840 C   0  0  0  0  0  3  0  0  0  0  0  0
  187.9560  173.8920  136.1010 C   0  0  0  0  0  2  0  0  0  0  0  0
  185.9150  172.3760  136.4470 C   0  0  0  0  0  3  0  0  0  0  0  0
  188.2020  175.3000  136.6680 C   0  0  2  0  0  3  0  0  0  0  0  0
  187.7020  177.2450  139.0020 C   0  0  0  0  0  0  0  0  0  0  0  0
  185.4670  177.6030  138.1140 C   0  0  0  0  0  3  0  0  0  0  0  0
  187.4590  178.2460  139.9710 C   0  0  0  0  0  0  0  0  0  0  0  0
  186.5740  173.6020  136.5390 C   0  0  0  0  0  0  0  0  0  0  0  0
  183.8830  171.0620  136.7860 N   0  0  0  0  0  1  0  0  0  0  0  0
  189.0020  176.6350  138.9670 N   0  0  0  0  0  0  0  0  0  0  0  0
  183.9180  173.4460  137.3380 C   0  0  0  0  0  3  0  0  0  0  0  0
  191.2180  177.0790  138.3680 O   0  0  0  0  0  0  0  0  0  0  0  0
  186.6820  176.9070  138.0650 C   0  0  0  0  0  0  0  0  0  0  0  0
  190.0050  177.0630  138.0280 C   0  0  0  0  0  0  0  0  0  0  0  0
  185.9390  174.7220  137.0220 C   0  0  0  0  0  0  0  0  0  0  0  0
  187.6740  176.9840  143.0650 S   0  0  0  0  0  0  0  0  0  0  0  0
  191.2300  178.8880  144.8960 C   0  0  0  0  0  1  0  0  0  0  0  0
  188.5120  178.6070  140.8820 N   0  0  0  0  0  2  0  0  0  0  0  0
  188.9360  178.1840  145.0960 N   0  0  0  0  0  0  0  0  0  0  0  0
  187.5850  177.9560  144.5950 C   0  0  2  0  0  3  0  0  0  0  0  0
  189.8930  178.5940  144.3180 C   0  0  0  0  0  0  0  0  0  0  0  0
  189.6710  178.7950  142.9150 N   0  0  0  0  0  0  0  0  0  0  0  0
  188.6960  178.2420  142.2580 C   0  0  0  0  0  0  0  0  0  0  0  0
  186.7630  177.2130  145.6310 C   0  0  0  0  0  2  0  0  0  0  0  0
  185.5160  178.0060  145.9770 C   0  0  0  0  0  2  0  0  0  0  0  0
  185.2080  178.9790  144.8580 C   0  0  0  0  0  2  0  0  0  0  0  0
  183.7100  179.1900  144.7700 C   0  0  0  0  0  1  0  0  0  0  0  0
  188.8660  178.6830  136.4510 C   0  0  0  0  0  0  0  0  0  0  0  0
  189.0520  179.6270  137.2040 O   0  0  0  0  0  0  0  0  0  0  0  0
  187.8020  178.7870  135.4090 C   0  0  0  0  0  1  0  0  0  0  0  0
  190.0340  174.3630  134.5940 O   0  0  0  0  0  0  0  0  0  0  0  0
  191.5470  176.0250  135.2270 N   0  0  0  0  0  2  0  0  0  0  0  0
  190.2330  175.4710  135.1620 C   0  0  0  0  0  0  0  0  0  0  0  0
  192.6970  175.3870  134.6070 C   0  0  1  0  0  3  0  0  0  0  0  0
  193.9330  175.7160  135.4190 C   0  0  1  0  0  3  0  0  0  0  0  0
  193.2770  174.3540  135.5470 C   0  0  0  0  0  2  0  0  0  0  0  0
  195.9090  176.6330  135.0500 C   0  0  0  0  0  1  0  0  0  0  0  0
  195.0560  175.6240  134.5980 O   0  0  0  0  0  0  0  0  0  0  0  0
  190.5300  176.1960  140.6770 O   0  0  0  0  0  1  0  0  0  0  0  0
  189.3770  175.7270  140.0460 C   0  0  0  0  0  2  0  0  0  0  0  0
  1 17  1  0  0  0  0
  2 21  1  1  0  0  0
  2 19  1  0  0  0  0
  4 34  1  1  0  0  0
  4 20  1  0  0  0  0
  5  7  1  0  0  0  0
  6 39  1  1  0  0  0
  6  4  1  0  0  0  0
  6 10  1  0  0  0  0
  8 14  1  0  0  0  0
  9 14  1  0  0  0  0
  9  1  2  0  0  0  0
 10  8  1  6  0  0  0
 10  2  1  0  0  0  0
 11 13  1  0  0  0  0
 12  5  2  0  0  0  0
 13  7  2  0  0  0  0
 13 24  1  0  0  0  0
 14 21  2  0  0  0  0
 15  1  1  0  0  0  0
 16 11  1  0  0  0  0
 16 46  1  0  0  0  0
 17  3  2  0  0  0  0
 19 12  1  0  0  0  0
 19 11  2  0  0  0  0
 20 18  2  0  0  0  0
 20 16  1  0  0  0  0
 21  3  1  0  0  0  0
 22 26  1  0  0  0  0
 24 29  1  0  0  0  0
 26 25  1  0  0  0  0
 26 30  1  1  0  0  0
 27 23  1  0  0  0  0
 27 25  2  0  0  0  0
 28 27  1  0  0  0  0
 29 28  2  0  0  0  0
 29 22  1  0  0  0  0
 30 31  1  0  0  0  0
 32 31  1  0  0  0  0
 33 32  1  0  0  0  0
 34 35  2  0  0  0  0
 36 34  1  0  0  0  0
 37 39  2  0  0  0  0
 39 38  1  0  0  0  0
 40 38  1  1  0  0  0
 40 41  1  0  0  0  0
 40 42  1  0  0  0  0
 41 44  1  6  0  0  0
 41 42  1  0  0  0  0
 44 43  1  0  0  0  0
 46 45  1  0  0  0  0
M  END
>  <MODEL>
4

>  <REMARK>
 VINA RESULT:      -4.6      5.236     10.189
  Name = 
  9 active torsions:
  status: ('A' for Active; 'I' for Inactive)
    1  A    between atoms: N_6  and  C_30
    2  A    between atoms: C_8  and  C_10
    3  A    between atoms: C_12  and  C_37
    4  A    between atoms: C_16  and  N_23
    5  A    between atoms: C_18  and  O_44
    6  A    between atoms: C_19  and  N_36
    7  A    between atoms: C_20  and  C_27
    8  A    between atoms: C_27  and  C_42
    9  A    between atoms: C_34  and  C_42
                            x       y       z     vdW  Elec       q    Type
                         _______ _______ _______ _____ _____    ______ ____

>  <TORSDO>
F 9

$$$$
=
 OpenBabel11032420063D

 46 51  0  0  1  0  0  0  0  0999 V2000
  184.6640  178.6090  142.4900 C   0  0  0  0  0  0  0  0  0  0  0  0
  184.7420  177.5470  138.3690 C   0  0  2  0  0  3  0  0  0  0  0  0
  185.9000  178.6850  140.3920 C   0  0  0  0  0  3  0  0  0  0  0  0
  183.4600  175.8840  135.9280 C   0  0  2  0  0  3  0  0  0  0  0  0
  188.1740  177.8750  136.8320 C   0  0  0  0  0  3  0  0  0  0  0  0
  182.7440  176.5850  137.1010 C   0  0  2  0  0  3  0  0  0  0  0  0
  188.4360  176.6060  136.3300 C   0  0  0  0  0  3  0  0  0  0  0  0
  182.7860  176.8360  139.6870 C   0  0  0  0  0  2  0  0  0  0  0  0
  183.6410  177.8780  141.8710 C   0  0  0  0  0  3  0  0  0  0  0  0
  183.5730  176.5510  138.3980 C   0  0  2  0  0  3  0  0  0  0  0  0
  186.3000  175.8110  137.1710 C   0  0  0  0  0  0  0  0  0  0  0  0
  186.9800  178.1220  137.5020 C   0  0  0  0  0  3  0  0  0  0  0  0
  187.5180  175.5660  136.4970 C   0  0  0  0  0  0  0  0  0  0  0  0
  183.7770  177.5480  140.5220 C   0  0  0  0  0  0  0  0  0  0  0  0
  184.5550  178.9540  143.8650 N   0  0  0  0  0  1  0  0  0  0  0  0
  185.3440  174.7410  137.2580 N   0  0  0  0  0  0  0  0  0  0  0  0
  185.7890  179.0160  141.7520 C   0  0  0  0  0  3  0  0  0  0  0  0
  183.8260  173.5300  135.9550 O   0  0  0  0  0  0  0  0  0  0  0  0
  186.0320  177.1090  137.6960 C   0  0  0  0  0  0  0  0  0  0  0  0
  184.2300  174.6570  136.3510 C   0  0  0  0  0  0  0  0  0  0  0  0
  184.8840  177.9270  139.8010 C   0  0  0  0  0  0  0  0  0  0  0  0
  190.4660  174.0010  136.7640 S   0  0  0  0  0  0  0  0  0  0  0  0
  189.9940  170.1680  134.5940 C   0  0  0  0  0  1  0  0  0  0  0  0
  187.7560  174.2640  135.9350 N   0  0  0  0  0  2  0  0  0  0  0  0
  191.3280  172.1140  135.0740 N   0  0  0  0  0  0  0  0  0  0  0  0
  191.5250  173.5300  135.3680 C   0  0  2  0  0  3  0  0  0  0  0  0
  190.1400  171.5970  134.9750 C   0  0  0  0  0  0  0  0  0  0  0  0
  188.9660  172.3910  135.2000 N   0  0  0  0  0  0  0  0  0  0  0  0
  188.9720  173.5030  135.8720 C   0  0  0  0  0  0  0  0  0  0  0  0
  192.9790  173.7920  135.7130 C   0  0  0  0  0  2  0  0  0  0  0  0
  193.6900  172.4840  136.0080 C   0  0  0  0  0  2  0  0  0  0  0  0
  195.0210  172.7680  136.6720 C   0  0  0  0  0  2  0  0  0  0  0  0
  194.7980  173.6130  137.9090 C   0  0  0  0  0  1  0  0  0  0  0  0
  184.2280  176.8080  135.0160 C   0  0  0  0  0  0  0  0  0  0  0  0
  185.3320  176.4970  134.5940 O   0  0  0  0  0  0  0  0  0  0  0  0
  183.6680  178.1450  134.6610 C   0  0  0  0  0  1  0  0  0  0  0  0
  180.3680  176.7550  137.3680 O   0  0  0  0  0  0  0  0  0  0  0  0
  181.2270  174.5840  137.3340 N   0  0  0  0  0  2  0  0  0  0  0  0
  181.3740  176.0030  137.2640 C   0  0  0  0  0  0  0  0  0  0  0  0
  179.9320  173.9370  137.4680 C   0  0  1  0  0  3  0  0  0  0  0  0
  180.1470  172.4990  137.8940 C   0  0  1  0  0  3  0  0  0  0  0  0
  179.7060  173.5370  138.9090 C   0  0  0  0  0  2  0  0  0  0  0  0
  179.4690  171.1090  136.3160 C   0  0  0  0  0  1  0  0  0  0  0  0
  179.0510  171.7370  137.4920 O   0  0  0  0  0  0  0  0  0  0  0  0
  185.6120  172.4260  137.3960 O   0  0  0  0  0  1  0  0  0  0  0  0
  185.6380  173.6120  138.1330 C   0  0  0  0  0  2  0  0  0  0  0  0
  1 15  1  0  0  0  0
  2 19  1  1  0  0  0
  2 10  1  0  0  0  0
  2 21  1  0  0  0  0
  3 17  1  0  0  0  0
  4 34  1  1  0  0  0
  4 20  1  0  0  0  0
  4  6  1  0  0  0  0
  5 12  1  0  0  0  0
  6 39  1  1  0  0  0
  6 10  1  0  0  0  0
  7 13  1  0  0  0  0
  7  5  2  0  0  0  0
  8 14  1  0  0  0  0
  9  1  1  0  0  0  0
 10  8  1  1  0  0  0
 11 16  1  0  0  0  0
 11 19  1  0  0  0  0
 12 19  2  0  0  0  0
 13 11  2  0  0  0  0
 14  9  2  0  0  0  0
 16 46  1  0  0  0  0
 17  1  2  0  0  0  0
 18 20  2  0  0  0  0
 20 16  1  0  0  0  0
 21  3  2  0  0  0  0
 21 14  1  0  0  0  0
 23 27  1  0  0  0  0
 24 13  1  0  0  0  0
 25 26  1  0  0  0  0
 26 30  1  1  0  0  0
 26 22  1  0  0  0  0
 27 25  2  0  0  0  0
 27 28  1  0  0  0  0
 28 29  2  0  0  0  0
 29 24  1  0  0  0  0
 29 22  1  0  0  0  0
 30 31  1  0  0  0  0
 31 32  1  0  0  0  0
 32 33  1  0  0  0  0
 35 34  2  0  0  0  0
 36 34  1  0  0  0  0
 39 38  1  0  0  0  0
 39 37  2  0  0  0  0
 40 38  1  1  0  0  0
 40 41  1  0  0  0  0
 40 42  1  0  0  0  0
 41 44  1  6  0  0  0
 41 42  1  0  0  0  0
 43 44  1  0  0  0  0
 45 46  1  0  0  0  0
M  END
>  <MODEL>
5

>  <REMARK>
 VINA RESULT:      -3.4      3.969      7.515
  Name = 
  9 active torsions:
  status: ('A' for Active; 'I' for Inactive)
    1  A    between atoms: N_6  and  C_30
    2  A    between atoms: C_8  and  C_10
    3  A    between atoms: C_12  and  C_37
    4  A    between atoms: C_16  and  N_23
    5  A    between atoms: C_18  and  O_44
    6  A    between atoms: C_19  and  N_36
    7  A    between atoms: C_20  and  C_27
    8  A    between atoms: C_27  and  C_42
    9  A    between atoms: C_34  and  C_42
                            x       y       z     vdW  Elec       q    Type
                         _______ _______ _______ _____ _____    ______ ____

>  <TORSDO>
F 9

$$$$
=
 OpenBabel11032420063D

 46 51  0  0  1  0  0  0  0  0999 V2000
  181.2050  183.5400  136.7540 C   0  0  0  0  0  0  0  0  0  0  0  0
  180.7250  179.4210  137.7090 C   0  0  2  0  0  3  0  0  0  0  0  0
  180.6520  181.3130  135.9370 C   0  0  0  0  0  3  0  0  0  0  0  0
  181.1020  177.0210  139.8220 C   0  0  2  0  0  3  0  0  0  0  0  0
  180.6060  177.2090  134.6530 C   0  0  0  0  0  3  0  0  0  0  0  0
  180.7280  178.4930  140.0890 C   0  0  2  0  0  3  0  0  0  0  0  0
  181.6390  176.3020  134.8580 C   0  0  0  0  0  3  0  0  0  0  0  0
  181.4270  180.9310  139.5230 C   0  0  0  0  0  2  0  0  0  0  0  0
  181.4350  183.0220  138.0360 C   0  0  0  0  0  3  0  0  0  0  0  0
  181.3960  179.4570  139.0910 C   0  0  2  0  0  3  0  0  0  0  0  0
  182.2090  177.3970  136.9500 C   0  0  0  0  0  0  0  0  0  0  0  0
  180.3670  178.2090  135.5890 C   0  0  0  0  0  3  0  0  0  0  0  0
  182.4510  176.3860  135.9920 C   0  0  0  0  0  0  0  0  0  0  0  0
  181.2850  181.6510  138.2390 C   0  0  0  0  0  0  0  0  0  0  0  0
  181.3560  184.9340  136.5160 N   0  0  0  0  0  1  0  0  0  0  0  0
  183.0130  177.4090  138.1420 N   0  0  0  0  0  0  0  0  0  0  0  0
  180.8100  182.6900  135.7080 C   0  0  0  0  0  3  0  0  0  0  0  0
  183.3320  176.2500  140.1480 O   0  0  0  0  0  0  0  0  0  0  0  0
  181.1570  178.3350  136.7380 C   0  0  0  0  0  0  0  0  0  0  0  0
  182.5320  176.8420  139.3750 C   0  0  0  0  0  0  0  0  0  0  0  0
  180.9180  180.8110  137.2140 C   0  0  0  0  0  0  0  0  0  0  0  0
  185.6910  177.2170  136.1190 S   0  0  0  0  0  0  0  0  0  0  0  0
  187.8760  173.4330  136.8520 C   0  0  0  0  0  1  0  0  0  0  0  0
  183.4870  175.4210  136.2410 N   0  0  0  0  0  2  0  0  0  0  0  0
  187.7020  175.5140  135.6530 N   0  0  0  0  0  0  0  0  0  0  0  0
  186.9720  176.5920  134.9950 C   0  0  2  0  0  3  0  0  0  0  0  0
  187.0870  174.5490  136.2680 C   0  0  0  0  0  0  0  0  0  0  0  0
  185.6550  174.5290  136.3680 N   0  0  0  0  0  0  0  0  0  0  0  0
  184.9130  175.5860  136.2290 C   0  0  0  0  0  0  0  0  0  0  0  0
  187.9230  177.7150  134.6230 C   0  0  0  0  0  2  0  0  0  0  0  0
  188.9040  177.9640  135.7540 C   0  0  0  0  0  2  0  0  0  0  0  0
  188.3610  179.0440  136.6680 C   0  0  0  0  0  2  0  0  0  0  0  0
  188.1490  178.4720  138.0540 C   0  0  0  0  0  1  0  0  0  0  0  0
  180.0980  176.2560  138.9940 C   0  0  0  0  0  0  0  0  0  0  0  0
  178.9680  176.6890  138.8240 O   0  0  0  0  0  0  0  0  0  0  0  0
  180.4610  174.9300  138.4150 C   0  0  0  0  0  1  0  0  0  0  0  0
  180.1270  179.2980  142.2660 O   0  0  0  0  0  0  0  0  0  0  0  0
  182.3540  178.6410  142.0110 N   0  0  0  0  0  2  0  0  0  0  0  0
  181.0270  178.8290  141.5180 C   0  0  0  0  0  0  0  0  0  0  0  0
  182.7230  178.9190  143.3900 C   0  0  1  0  0  3  0  0  0  0  0  0
  184.0430  178.2380  143.6880 C   0  0  1  0  0  3  0  0  0  0  0  0
  183.9980  179.7310  143.4250 C   0  0  0  0  0  2  0  0  0  0  0  0
  185.4180  178.4330  145.4060 C   0  0  0  0  0  1  0  0  0  0  0  0
  184.1350  178.0030  145.0600 O   0  0  0  0  0  0  0  0  0  0  0  0
  184.6660  178.8820  138.8790 O   0  0  0  0  0  1  0  0  0  0  0  0
  184.4140  177.7990  138.0360 C   0  0  0  0  0  2  0  0  0  0  0  0
  1  9  1  0  0  0  0
  2 19  1  6  0  0  0
  2 10  1  0  0  0  0
  3 21  2  0  0  0  0
  4 34  1  6  0  0  0
  4  6  1  0  0  0  0
  5  7  2  0  0  0  0
  5 12  1  0  0  0  0
  6 39  1  1  0  0  0
  7 13  1  0  0  0  0
  9 14  2  0  0  0  0
 10  8  1  1  0  0  0
 10  6  1  0  0  0  0
 11 16  1  0  0  0  0
 12 19  2  0  0  0  0
 13 24  1  0  0  0  0
 13 11  2  0  0  0  0
 14  8  1  0  0  0  0
 15  1  1  0  0  0  0
 16 20  1  0  0  0  0
 17  3  1  0  0  0  0
 17  1  2  0  0  0  0
 19 11  1  0  0  0  0
 20  4  1  0  0  0  0
 20 18  2  0  0  0  0
 21  2  1  0  0  0  0
 21 14  1  0  0  0  0
 22 29  1  0  0  0  0
 25 27  2  0  0  0  0
 26 30  1  1  0  0  0
 26 25  1  0  0  0  0
 26 22  1  0  0  0  0
 27 28  1  0  0  0  0
 27 23  1  0  0  0  0
 29 24  1  0  0  0  0
 29 28  2  0  0  0  0
 30 31  1  0  0  0  0
 31 32  1  0  0  0  0
 32 33  1  0  0  0  0
 35 34  2  0  0  0  0
 36 34  1  0  0  0  0
 39 38  1  0  0  0  0
 39 37  2  0  0  0  0
 40 38  1  6  0  0  0
 40 42  1  0  0  0  0
 40 41  1  0  0  0  0
 41 44  1  1  0  0  0
 42 41  1  0  0  0  0
 44 43  1  0  0  0  0
 46 16  1  0  0  0  0
 46 45  1  0  0  0  0
M  END
>  <MODEL>
6

>  <REMARK>
 VINA RESULT:      -3.2      1.742      3.264
  Name = 
  9 active torsions:
  status: ('A' for Active; 'I' for Inactive)
    1  A    between atoms: N_6  and  C_30
    2  A    between atoms: C_8  and  C_10
    3  A    between atoms: C_12  and  C_37
    4  A    between atoms: C_16  and  N_23
    5  A    between atoms: C_18  and  O_44
    6  A    between atoms: C_19  and  N_36
    7  A    between atoms: C_20  and  C_27
    8  A    between atoms: C_27  and  C_42
    9  A    between atoms: C_34  and  C_42
                            x       y       z     vdW  Elec       q    Type
                         _______ _______ _______ _____ _____    ______ ____

>  <TORSDO>
F 9

$$$$
