=
 OpenBabel11042411543D

 35 39  0  0  1  0  0  0  0  0999 V2000
  189.1360  177.5850  144.7180 C   0  0  0  0  0  0  0  0  0  0  0  0
  187.0590  178.2230  141.7140 N   0  0  0  0  0  0  0  0  0  0  0  0
  187.3750  178.2960  140.4080 C   0  0  0  0  0  3  0  0  0  0  0  0
  190.5840  177.3770  144.4230 C   0  0  0  0  0  1  0  0  0  0  0  0
  185.7450  178.2350  143.7270 C   0  0  0  0  0  0  0  0  0  0  0  0
  188.7420  178.0890  140.3010 C   0  0  0  0  0  0  0  0  0  0  0  0
  185.8330  178.3610  142.3130 C   0  0  2  0  0  3  0  0  0  0  0  0
  184.7370  178.6060  141.5880 C   0  0  0  0  0  3  0  0  0  0  0  0
  181.9130  178.8340  144.1900 C   0  0  0  0  0  2  0  0  0  0  0  0
  184.4310  178.3890  144.4520 C   0  0  0  0  0  3  0  0  0  0  0  0
  188.1960  177.9700  142.3990 C   0  0  0  0  0  0  0  0  0  0  0  0
  179.9240  178.1700  140.9330 C   0  0  0  0  0  1  0  0  0  0  0  0
  188.1460  177.8390  143.7840 C   0  0  0  0  0  0  0  0  0  0  0  0
  179.7000  178.0600  143.7500 O   0  0  0  0  0  0  0  0  0  0  0  0
  183.2570  178.6420  143.5430 C   0  0  0  0  0  0  0  0  0  0  0  0
  182.2390  179.0540  141.3140 C   0  0  0  0  0  2  0  0  0  0  0  0
  187.1660  177.8010  145.7820 C   0  0  0  0  0  0  0  0  0  0  0  0
  183.4090  178.7470  142.2060 C   0  0  0  0  0  0  0  0  0  0  0  0
  188.5270  177.5590  145.9750 C   0  0  0  0  0  0  0  0  0  0  0  0
  180.8040  178.4290  143.2710 C   0  0  0  0  0  0  0  0  0  0  0  0
  186.1980  177.8590  146.7790 O   0  0  0  0  0  1  0  0  0  0  0  0
  189.2880  177.8720  141.5600 C   0  0  0  0  0  3  0  0  0  0  0  0
  186.9370  177.9720  144.4300 C   0  0  0  0  0  0  0  0  0  0  0  0
  181.0020  178.4950  141.8510 N   0  0  0  0  0  0  0  0  0  0  0  0
  189.9220  176.3010  147.4340 O   0  0  0  0  0  0  0  0  0  0  0  0
  189.2000  177.3200  147.2710 C   0  0  0  0  0  0  0  0  0  0  0  0
  189.0450  178.2690  148.4080 C   0  0  0  0  0  1  0  0  0  0  0  0
  189.5030  178.0490  139.0230 C   0  0  0  0  0  2  0  0  0  0  0  0
  188.9360  176.6610  137.9900 S   0  0  0  0  0  0  0  0  0  0  0  0
  190.4930  175.7330  138.1760 C   0  0  0  0  0  2  0  0  0  0  0  0
  191.6330  176.4210  137.4410 C   0  0  0  0  0  2  0  0  0  0  0  0
  192.8860  176.4810  138.3040 C   0  0  0  0  0  2  0  0  0  0  0  0
  194.4570  174.7930  137.9200 C   0  0  0  0  0  1  0  0  0  0  0  0
  193.6350  176.0470  136.1400 C   0  0  0  0  0  1  0  0  0  0  0  0
  194.0630  176.1330  137.5240 N   0  0  0  0  0  0  0  0  0  0  0  0
  1 19  1  0  0  0  0
  2  7  1  0  0  0  0
  2 11  1  0  0  0  0
  3  2  1  0  0  0  0
  4  1  1  0  0  0  0
  5 23  2  0  0  0  0
  5 10  1  0  0  0  0
  6  3  2  0  0  0  0
  6 22  1  0  0  0  0
  7  8  1  6  0  0  0
  7  5  1  0  0  0  0
  8 18  2  0  0  0  0
 11 13  1  0  0  0  0
 12 24  1  0  0  0  0
 13 23  1  0  0  0  0
 13  1  2  0  0  0  0
 15  9  1  0  0  0  0
 15 10  2  0  0  0  0
 16 24  1  0  0  0  0
 16 18  1  0  0  0  0
 17 19  2  0  0  0  0
 17 21  1  0  0  0  0
 18 15  1  0  0  0  0
 19 26  1  0  0  0  0
 20 14  2  0  0  0  0
 20  9  1  0  0  0  0
 22 11  2  0  0  0  0
 23 17  1  0  0  0  0
 24 20  1  0  0  0  0
 26 25  2  0  0  0  0
 26 27  1  0  0  0  0
 28  6  1  0  0  0  0
 29 30  1  0  0  0  0
 29 28  1  0  0  0  0
 31 30  1  0  0  0  0
 31 32  1  0  0  0  0
 34 35  1  0  0  0  0
 35 33  1  0  0  0  0
 35 32  1  0  0  0  0
M  END
>  <MODEL>
1

>  <REMARK>
 VINA RESULT:     -10.0      0.000      0.000
  Name = 
  7 active torsions:
  status: ('A' for Active; 'I' for Inactive)
    1  A    between atoms: C_3  and  S_9
    2  A    between atoms: C_3  and  C_13
    3  A    between atoms: C_8  and  C_24
    4  A    between atoms: S_9  and  C_24
    5  A    between atoms: C_11  and  C_30
    6  A    between atoms: C_13  and  C_29
    7  A    between atoms: N_27  and  C_29
                            x       y       z     vdW  Elec       q    Type
                         _______ _______ _______ _____ _____    ______ ____

>  <TORSDO>
F 7

$$$$
=
 OpenBabel11042411543D

 35 39  0  0  1  0  0  0  0  0999 V2000
  188.9840  177.5270  144.9100 C   0  0  0  0  0  0  0  0  0  0  0  0
  187.1800  178.1510  141.7320 N   0  0  0  0  0  0  0  0  0  0  0  0
  187.6050  178.1920  140.4550 C   0  0  0  0  0  3  0  0  0  0  0  0
  190.4470  177.2830  144.7410 C   0  0  0  0  0  1  0  0  0  0  0  0
  185.7030  178.2300  143.6270 C   0  0  0  0  0  0  0  0  0  0  0  0
  188.9710  177.9540  140.4680 C   0  0  0  0  0  0  0  0  0  0  0  0
  185.9110  178.3260  142.2240 C   0  0  2  0  0  3  0  0  0  0  0  0
  184.8850  178.5810  141.4050 C   0  0  0  0  0  3  0  0  0  0  0  0
  181.8610  178.9190  143.7570 C   0  0  0  0  0  2  0  0  0  0  0  0
  184.3370  178.4260  144.2370 C   0  0  0  0  0  3  0  0  0  0  0  0
  188.2490  177.8880  142.5140 C   0  0  0  0  0  0  0  0  0  0  0  0
  180.1350  178.2340  140.3570 C   0  0  0  0  0  1  0  0  0  0  0  0
  188.0820  177.7840  143.8920 C   0  0  0  0  0  0  0  0  0  0  0  0
  179.6740  178.1830  143.1470 O   0  0  0  0  0  0  0  0  0  0  0  0
  183.2490  178.6860  143.2280 C   0  0  0  0  0  0  0  0  0  0  0  0
  182.4300  179.0750  140.9150 C   0  0  0  0  0  2  0  0  0  0  0  0
  186.9380  177.8050  145.8010 C   0  0  0  0  0  0  0  0  0  0  0  0
  183.5140  178.7620  141.9070 C   0  0  0  0  0  0  0  0  0  0  0  0
  188.2720  177.5390  146.1120 C   0  0  0  0  0  0  0  0  0  0  0  0
  180.8230  178.5190  142.7550 C   0  0  0  0  0  0  0  0  0  0  0  0
  185.8920  177.9030  146.7130 O   0  0  0  0  0  1  0  0  0  0  0  0
  189.4050  177.7500  141.7710 C   0  0  0  0  0  3  0  0  0  0  0  0
  186.8260  177.9550  144.4320 C   0  0  0  0  0  0  0  0  0  0  0  0
  181.1400  178.5540  141.3560 N   0  0  0  0  0  0  0  0  0  0  0  0
  189.4140  176.2290  147.7350 O   0  0  0  0  0  0  0  0  0  0  0  0
  188.8290  177.3110  147.4640 C   0  0  0  0  0  0  0  0  0  0  0  0
  188.7150  178.3440  148.5300 C   0  0  0  0  0  1  0  0  0  0  0  0
  189.8350  177.8740  139.2580 C   0  0  0  0  0  2  0  0  0  0  0  0
  188.9900  176.9510  137.9360 S   0  0  0  0  0  0  0  0  0  0  0  0
  188.6890  178.4390  136.9280 C   0  0  0  0  0  2  0  0  0  0  0  0
  187.2040  178.6350  136.6680 C   0  0  0  0  0  2  0  0  0  0  0  0
  186.6190  177.4540  135.9030 C   0  0  0  0  0  2  0  0  0  0  0  0
  185.5100  175.6590  136.9100 C   0  0  0  0  0  1  0  0  0  0  0  0
  185.1780  177.8240  137.6970 C   0  0  0  0  0  1  0  0  0  0  0  0
  185.3540  177.0400  136.4880 N   0  0  0  0  0  0  0  0  0  0  0  0
  1 19  1  0  0  0  0
  2  7  1  0  0  0  0
  2 11  1  0  0  0  0
  3  6  2  0  0  0  0
  3  2  1  0  0  0  0
  4  1  1  0  0  0  0
  5 10  1  0  0  0  0
  5 23  2  0  0  0  0
  6 22  1  0  0  0  0
  7  8  1  6  0  0  0
  7  5  1  0  0  0  0
  8 18  2  0  0  0  0
 11 13  1  0  0  0  0
 12 24  1  0  0  0  0
 13 23  1  0  0  0  0
 13  1  2  0  0  0  0
 15  9  1  0  0  0  0
 15 10  2  0  0  0  0
 16 24  1  0  0  0  0
 16 18  1  0  0  0  0
 17 19  2  0  0  0  0
 17 21  1  0  0  0  0
 18 15  1  0  0  0  0
 19 26  1  0  0  0  0
 20 14  2  0  0  0  0
 20  9  1  0  0  0  0
 22 11  2  0  0  0  0
 23 17  1  0  0  0  0
 24 20  1  0  0  0  0
 26 25  2  0  0  0  0
 26 27  1  0  0  0  0
 28  6  1  0  0  0  0
 29 28  1  0  0  0  0
 30 29  1  0  0  0  0
 31 30  1  0  0  0  0
 32 35  1  0  0  0  0
 32 31  1  0  0  0  0
 35 33  1  0  0  0  0
 35 34  1  0  0  0  0
M  END
>  <MODEL>
2

>  <REMARK>
 VINA RESULT:      -9.9      2.138      3.041
  Name = 
  7 active torsions:
  status: ('A' for Active; 'I' for Inactive)
    1  A    between atoms: C_3  and  S_9
    2  A    between atoms: C_3  and  C_13
    3  A    between atoms: C_8  and  C_24
    4  A    between atoms: S_9  and  C_24
    5  A    between atoms: C_11  and  C_30
    6  A    between atoms: C_13  and  C_29
    7  A    between atoms: N_27  and  C_29
                            x       y       z     vdW  Elec       q    Type
                         _______ _______ _______ _____ _____    ______ ____

>  <TORSDO>
F 7

$$$$
=
 OpenBabel11042411543D

 35 39  0  0  1  0  0  0  0  0999 V2000
  183.3300  178.6450  143.4560 C   0  0  0  0  0  0  0  0  0  0  0  0
  186.9630  177.9660  143.7480 N   0  0  0  0  0  0  0  0  0  0  0  0
  187.7430  177.7120  144.8150 C   0  0  0  0  0  3  0  0  0  0  0  0
  182.6040  178.6390  144.7590 C   0  0  0  0  0  1  0  0  0  0  0  0
  186.3020  178.3180  141.4640 C   0  0  0  0  0  0  0  0  0  0  0  0
  186.9290  177.7470  145.9380 C   0  0  0  0  0  0  0  0  0  0  0  0
  187.3130  178.0380  142.4230 C   0  0  0  0  0  0  0  0  0  0  0  0
  188.5790  177.8460  142.0350 C   0  0  0  0  0  3  0  0  0  0  0  0
  188.4700  178.2850  138.2150 C   0  0  0  0  0  2  0  0  0  0  0  0
  186.6190  178.4250  139.9930 C   0  0  0  0  0  3  0  0  0  0  0  0
  185.7010  178.1470  144.1930 C   0  0  0  0  0  0  0  0  0  0  0  0
  191.7810  176.3290  138.6840 C   0  0  0  0  0  1  0  0  0  0  0  0
  184.6850  178.4200  143.2810 C   0  0  2  0  0  3  0  0  0  0  0  0
  189.8440  177.0090  136.7390 O   0  0  0  0  0  0  0  0  0  0  0  0
  188.0660  178.1710  139.6590 C   0  0  0  0  0  0  0  0  0  0  0  0
  190.4270  177.7090  140.2800 C   0  0  0  0  0  2  0  0  0  0  0  0
  183.8170  178.7840  141.2640 C   0  0  0  0  0  0  0  0  0  0  0  0
  188.9760  177.9070  140.6200 C   0  0  0  0  0  0  0  0  0  0  0  0
  182.7790  178.8730  142.1920 C   0  0  0  0  0  0  0  0  0  0  0  0
  189.6570  177.4250  137.9130 C   0  0  0  0  0  0  0  0  0  0  0  0
  183.6970  178.9470  139.8880 O   0  0  0  0  0  1  0  0  0  0  0  0
  185.6190  178.0170  145.5650 C   0  0  0  0  0  3  0  0  0  0  0  0
  184.9890  178.5040  141.9400 C   0  0  0  0  0  0  0  0  0  0  0  0
  190.5850  177.1080  138.9590 N   0  0  0  0  0  0  0  0  0  0  0  0
  180.8060  180.1910  142.3570 O   0  0  0  0  0  0  0  0  0  0  0  0
  181.3580  179.1580  141.8940 C   0  0  0  0  0  0  0  0  0  0  0  0
  180.5480  178.2400  141.0460 C   0  0  0  0  0  1  0  0  0  0  0  0
  187.3830  177.4800  147.3300 C   0  0  0  0  0  2  0  0  0  0  0  0
  189.0450  178.1700  147.5990 S   0  0  0  0  0  0  0  0  0  0  0  0
  189.8800  176.5720  147.3400 C   0  0  0  0  0  2  0  0  0  0  0  0
  191.3850  176.7510  147.2180 C   0  0  0  0  0  2  0  0  0  0  0  0
  191.8980  176.2050  145.8920 C   0  0  0  0  0  2  0  0  0  0  0  0
  191.6150  178.0320  144.4610 C   0  0  0  0  0  1  0  0  0  0  0  0
  191.3890  175.8650  143.6440 C   0  0  0  0  0  1  0  0  0  0  0  0
  191.1020  176.7130  144.7860 N   0  0  0  0  0  0  0  0  0  0  0  0
  1  4  1  0  0  0  0
  2 11  1  0  0  0  0
  2  3  1  0  0  0  0
  3  6  2  0  0  0  0
  5 23  1  0  0  0  0
  5  7  1  0  0  0  0
  6 28  1  0  0  0  0
  7  2  1  0  0  0  0
  8  7  2  0  0  0  0
  9 15  1  0  0  0  0
 10  5  2  0  0  0  0
 11 22  2  0  0  0  0
 12 24  1  0  0  0  0
 13 23  1  1  0  0  0
 13  1  1  0  0  0  0
 13 11  1  0  0  0  0
 14 20  2  0  0  0  0
 15 10  1  0  0  0  0
 15 18  2  0  0  0  0
 16 18  1  0  0  0  0
 17 23  2  0  0  0  0
 17 19  1  0  0  0  0
 18  8  1  0  0  0  0
 19  1  2  0  0  0  0
 20  9  1  0  0  0  0
 20 24  1  0  0  0  0
 21 17  1  0  0  0  0
 22  6  1  0  0  0  0
 24 16  1  0  0  0  0
 26 19  1  0  0  0  0
 26 25  2  0  0  0  0
 27 26  1  0  0  0  0
 28 29  1  0  0  0  0
 30 29  1  0  0  0  0
 31 30  1  0  0  0  0
 32 31  1  0  0  0  0
 33 35  1  0  0  0  0
 34 35  1  0  0  0  0
 35 32  1  0  0  0  0
M  END
>  <MODEL>
3

>  <REMARK>
 VINA RESULT:      -9.4      3.243      7.706
  Name = 
  7 active torsions:
  status: ('A' for Active; 'I' for Inactive)
    1  A    between atoms: C_3  and  S_9
    2  A    between atoms: C_3  and  C_13
    3  A    between atoms: C_8  and  C_24
    4  A    between atoms: S_9  and  C_24
    5  A    between atoms: C_11  and  C_30
    6  A    between atoms: C_13  and  C_29
    7  A    between atoms: N_27  and  C_29
                            x       y       z     vdW  Elec       q    Type
                         _______ _______ _______ _____ _____    ______ ____

>  <TORSDO>
F 7

$$$$
=
 OpenBabel11042411543D

 35 39  0  0  0  0  0  0  0  0999 V2000
  189.2650  177.3170  146.6360 C   0  0  0  0  0  0  0  0  0  0  0  0
  187.1310  177.8480  143.6510 N   0  0  0  0  0  0  0  0  0  0  0  0
  185.8550  178.2590  143.5250 C   0  0  0  0  0  3  0  0  0  0  0  0
  188.5830  177.6080  147.9310 C   0  0  0  0  0  1  0  0  0  0  0  0
  189.3360  177.1030  143.0500 C   0  0  0  0  0  0  0  0  0  0  0  0
  185.3660  178.4810  144.8040 C   0  0  0  0  0  0  0  0  0  0  0  0
  188.0270  177.5080  142.6690 C   0  0  0  0  0  0  0  0  0  0  0  0
  187.6840  177.5550  141.3780 C   0  0  0  0  0  3  0  0  0  0  0  0
  190.8470  176.4040  139.5170 C   0  0  0  0  0  2  0  0  0  0  0  0
  190.3670  176.7020  142.0250 C   0  0  0  0  0  2  0  0  0  0  0  0
  187.4270  177.8210  144.9680 C   0  0  0  0  0  0  0  0  0  0  0  0
  188.9100  178.2380  136.7080 C   0  0  0  0  0  1  0  0  0  0  0  0
  188.7000  177.4330  145.3770 C   0  0  0  0  0  0  0  0  0  0  0  0
  191.4870  177.3030  137.4010 O   0  0  0  0  0  0  0  0  0  0  0  0
  189.8870  176.8110  140.6010 C   0  0  0  0  0  0  0  0  0  0  0  0
  188.1460  177.2590  138.8860 C   0  0  0  0  0  2  0  0  0  0  0  0
  190.7950  176.7380  145.0920 C   0  0  0  0  0  0  0  0  0  0  0  0
  188.6300  177.2060  140.3070 C   0  0  0  0  0  0  0  0  0  0  0  0
  190.5810  176.8810  146.4630 C   0  0  0  0  0  0  0  0  0  0  0  0
  190.5630  177.1280  138.2380 C   0  0  0  0  0  0  0  0  0  0  0  0
  191.9790  176.3230  144.4900 O   0  0  0  0  0  1  0  0  0  0  0  0
  186.3540  178.2140  145.7430 C   0  0  0  0  0  3  0  0  0  0  0  0
  189.6340  177.0800  144.4270 C   0  0  0  0  0  0  0  0  0  0  0  0
  189.2320  177.5890  137.9670 N   0  0  0  0  0  0  0  0  0  0  0  0
  191.8700  177.5280  148.3550 O   0  0  0  0  0  0  0  0  0  0  0  0
  191.5660  176.6200  147.5370 C   0  0  0  0  0  0  0  0  0  0  0  0
  192.2180  175.2890  147.6800 C   0  0  0  0  0  1  0  0  0  0  0  0
  184.0010  178.9840  145.1200 C   0  0  0  0  0  2  0  0  0  0  0  0
  183.0960  179.3680  143.5880 S   0  0  0  0  0  0  0  0  0  0  0  0
  181.5440  178.6180  144.1770 C   0  0  0  0  0  2  0  0  0  0  0  0
  180.3570  179.1000  143.3580 C   0  0  0  0  0  2  0  0  0  0  0  0
  180.3330  178.4430  141.9840 C   0  0  0  0  0  2  0  0  0  0  0  0
  179.5290  180.6150  141.6630 C   0  0  0  0  0  1  0  0  0  0  0  0
  180.9830  179.6690  140.1110 C   0  0  0  0  0  1  0  0  0  0  0  0
  179.8550  179.3770  140.9770 N   0  0  0  0  0  0  0  0  0  0  0  0
  1  4  1  0  0  0  0
  2 11  1  0  0  0  0
  3  2  1  0  0  0  0
  3  6  2  0  0  0  0
  5 23  2  0  0  0  0
  6 28  1  0  0  0  0
  6 22  1  0  0  0  0
  7  5  1  0  0  0  0
  7  2  1  0  0  0  0
  8  7  2  0  0  0  0
  9 15  1  0  0  0  0
 10  5  1  0  0  0  0
 11 13  1  0  0  0  0
 11 22  2  0  0  0  0
 12 24  1  0  0  0  0
 13  1  2  0  0  0  0
 14 20  2  0  0  0  0
 15 10  1  0  0  0  0
 16 18  1  0  0  0  0
 17 19  2  0  0  0  0
 18 15  2  0  0  0  0
 18  8  1  0  0  0  0
 19  1  1  0  0  0  0
 19 26  1  0  0  0  0
 20  9  1  0  0  0  0
 21 17  1  0  0  0  0
 23 17  1  0  0  0  0
 23 13  1  0  0  0  0
 24 20  1  0  0  0  0
 24 16  1  0  0  0  0
 26 27  1  0  0  0  0
 26 25  2  0  0  0  0
 29 30  1  0  0  0  0
 29 28  1  0  0  0  0
 31 30  1  0  0  0  0
 32 31  1  0  0  0  0
 34 35  1  0  0  0  0
 35 33  1  0  0  0  0
 35 32  1  0  0  0  0
M  END
>  <MODEL>
4

>  <REMARK>
 VINA RESULT:      -9.0      3.298      8.103
  Name = 
  7 active torsions:
  status: ('A' for Active; 'I' for Inactive)
    1  A    between atoms: C_3  and  S_9
    2  A    between atoms: C_3  and  C_13
    3  A    between atoms: C_8  and  C_24
    4  A    between atoms: S_9  and  C_24
    5  A    between atoms: C_11  and  C_30
    6  A    between atoms: C_13  and  C_29
    7  A    between atoms: N_27  and  C_29
                            x       y       z     vdW  Elec       q    Type
                         _______ _______ _______ _____ _____    ______ ____

>  <TORSDO>
F 7

$$$$
=
 OpenBabel11042411543D

 35 39  0  0  1  0  0  0  0  0999 V2000
  182.4470  179.1160  141.4380 C   0  0  0  0  0  0  0  0  0  0  0  0
  185.9960  178.2180  140.8580 N   0  0  0  0  0  0  0  0  0  0  0  0
  186.7190  178.1120  139.7280 C   0  0  0  0  0  3  0  0  0  0  0  0
  181.6820  179.4080  140.1910 C   0  0  0  0  0  1  0  0  0  0  0  0
  185.4420  178.2000  143.1970 C   0  0  0  0  0  0  0  0  0  0  0  0
  185.8730  178.4060  138.6690 C   0  0  0  0  0  0  0  0  0  0  0  0
  186.3950  178.0230  142.1570 C   0  0  2  0  0  3  0  0  0  0  0  0
  187.6530  177.6750  142.4450 C   0  0  0  0  0  3  0  0  0  0  0  0
  187.6910  177.3660  146.2790 C   0  0  0  0  0  2  0  0  0  0  0  0
  185.8070  177.9880  144.6450 C   0  0  0  0  0  3  0  0  0  0  0  0
  184.7400  178.5740  140.5130 C   0  0  0  0  0  0  0  0  0  0  0  0
  191.4630  177.7610  145.4870 C   0  0  0  0  0  1  0  0  0  0  0  0
  183.7820  178.7580  141.5060 C   0  0  0  0  0  0  0  0  0  0  0  0
  189.5880  177.9720  147.5950 O   0  0  0  0  0  0  0  0  0  0  0  0
  187.2520  177.6200  144.8640 C   0  0  0  0  0  0  0  0  0  0  0  0
  189.5320  177.0510  144.0560 C   0  0  0  0  0  2  0  0  0  0  0  0
  183.0130  178.8130  143.5940 C   0  0  0  0  0  0  0  0  0  0  0  0
  188.1070  177.4710  143.8300 C   0  0  0  0  0  0  0  0  0  0  0  0
  181.9580  179.1520  142.7470 C   0  0  0  0  0  0  0  0  0  0  0  0
  189.1490  177.6580  146.4570 C   0  0  0  0  0  0  0  0  0  0  0  0
  182.9520  178.7310  144.9810 O   0  0  0  0  0  1  0  0  0  0  0  0
  184.6050  178.7100  139.1450 C   0  0  0  0  0  3  0  0  0  0  0  0
  184.1350  178.5710  142.8250 C   0  0  0  0  0  0  0  0  0  0  0  0
  190.0340  177.5470  145.3340 N   0  0  0  0  0  0  0  0  0  0  0  0
  180.1070  180.6350  142.9290 O   0  0  0  0  0  0  0  0  0  0  0  0
  180.5760  179.4890  143.1570 C   0  0  0  0  0  0  0  0  0  0  0  0
  179.7100  178.4910  143.8450 C   0  0  0  0  0  1  0  0  0  0  0  0
  186.2790  178.4440  137.2370 C   0  0  0  0  0  2  0  0  0  0  0  0
  187.2640  176.9720  136.8180 S   0  0  0  0  0  0  0  0  0  0  0  0
  188.7660  177.9360  136.4500 C   0  0  0  0  0  2  0  0  0  0  0  0
  189.8960  177.5750  137.4010 C   0  0  0  0  0  2  0  0  0  0  0  0
  189.6620  176.2130  138.0410 C   0  0  0  0  0  2  0  0  0  0  0  0
  191.9660  176.3540  138.4140 C   0  0  0  0  0  1  0  0  0  0  0  0
  190.4760  176.7500  140.1580 C   0  0  0  0  0  1  0  0  0  0  0  0
  190.7130  175.9090  138.9990 N   0  0  0  0  0  0  0  0  0  0  0  0
  1 13  2  0  0  0  0
  1 19  1  0  0  0  0
  2  7  1  0  0  0  0
  3  2  1  0  0  0  0
  4  1  1  0  0  0  0
  5 10  1  0  0  0  0
  6 22  1  0  0  0  0
  6  3  2  0  0  0  0
  7  8  1  1  0  0  0
  7  5  1  0  0  0  0
  8 18  2  0  0  0  0
  9 20  1  0  0  0  0
 10 15  2  0  0  0  0
 11  2  1  0  0  0  0
 11 13  1  0  0  0  0
 13 23  1  0  0  0  0
 15  9  1  0  0  0  0
 16 24  1  0  0  0  0
 17 21  1  0  0  0  0
 18 16  1  0  0  0  0
 18 15  1  0  0  0  0
 19 26  1  0  0  0  0
 19 17  2  0  0  0  0
 20 14  2  0  0  0  0
 22 11  2  0  0  0  0
 23  5  2  0  0  0  0
 23 17  1  0  0  0  0
 24 12  1  0  0  0  0
 24 20  1  0  0  0  0
 25 26  2  0  0  0  0
 26 27  1  0  0  0  0
 28  6  1  0  0  0  0
 29 28  1  0  0  0  0
 30 29  1  0  0  0  0
 30 31  1  0  0  0  0
 31 32  1  0  0  0  0
 32 35  1  0  0  0  0
 33 35  1  0  0  0  0
 35 34  1  0  0  0  0
M  END
>  <MODEL>
5

>  <REMARK>
 VINA RESULT:      -8.9      1.866      6.287
  Name = 
  7 active torsions:
  status: ('A' for Active; 'I' for Inactive)
    1  A    between atoms: C_3  and  S_9
    2  A    between atoms: C_3  and  C_13
    3  A    between atoms: C_8  and  C_24
    4  A    between atoms: S_9  and  C_24
    5  A    between atoms: C_11  and  C_30
    6  A    between atoms: C_13  and  C_29
    7  A    between atoms: N_27  and  C_29
                            x       y       z     vdW  Elec       q    Type
                         _______ _______ _______ _____ _____    ______ ____

>  <TORSDO>
F 7

$$$$
=
 OpenBabel11042411543D

 35 39  0  0  1  0  0  0  0  0999 V2000
  190.2590  176.9640  144.4320 C   0  0  0  0  0  0  0  0  0  0  0  0
  187.9930  177.7370  141.6020 N   0  0  0  0  0  0  0  0  0  0  0  0
  188.1960  177.7480  140.2710 C   0  0  0  0  0  3  0  0  0  0  0  0
  191.6470  176.6050  144.0200 C   0  0  0  0  0  1  0  0  0  0  0  0
  186.8720  177.9280  143.7200 C   0  0  0  0  0  0  0  0  0  0  0  0
  189.5210  177.4030  140.0530 C   0  0  0  0  0  0  0  0  0  0  0  0
  186.8440  178.0120  142.3000 C   0  0  2  0  0  3  0  0  0  0  0  0
  185.7170  178.3490  141.6650 C   0  0  0  0  0  3  0  0  0  0  0  0
  183.1750  178.9200  144.4950 C   0  0  0  0  0  2  0  0  0  0  0  0
  185.6500  178.2310  144.5510 C   0  0  0  0  0  3  0  0  0  0  0  0
  189.1560  177.3880  142.1930 C   0  0  0  0  0  0  0  0  0  0  0  0
  180.8460  178.3830  141.4450 C   0  0  0  0  0  1  0  0  0  0  0  0
  189.2190  177.2950  143.5800 C   0  0  0  0  0  0  0  0  0  0  0  0
  180.8650  178.3610  144.2740 O   0  0  0  0  0  0  0  0  0  0  0  0
  184.4290  178.5790  143.7390 C   0  0  0  0  0  0  0  0  0  0  0  0
  183.2610  179.0380  141.5950 C   0  0  0  0  0  2  0  0  0  0  0  0
  188.4220  177.4010  145.6560 C   0  0  0  0  0  0  0  0  0  0  0  0
  184.4710  178.6370  142.3910 C   0  0  0  0  0  0  0  0  0  0  0  0
  189.7640  177.0290  145.7380 C   0  0  0  0  0  0  0  0  0  0  0  0
  181.9520  178.6070  143.6880 C   0  0  0  0  0  0  0  0  0  0  0  0
  187.5580  177.5800  146.7310 O   0  0  0  0  0  1  0  0  0  0  0  0
  190.1540  177.1610  141.2660 C   0  0  0  0  0  3  0  0  0  0  0  0
  188.0910  177.5630  144.3250 C   0  0  0  0  0  0  0  0  0  0  0  0
  182.0280  178.6190  142.2560 N   0  0  0  0  0  0  0  0  0  0  0  0
  190.3080  177.4290  148.0190 O   0  0  0  0  0  0  0  0  0  0  0  0
  190.5250  176.7540  146.9780 C   0  0  0  0  0  0  0  0  0  0  0  0
  191.5560  175.6820  147.0290 C   0  0  0  0  0  1  0  0  0  0  0  0
  190.1570  177.2570  138.7150 C   0  0  0  0  0  2  0  0  0  0  0  0
  191.6720  176.2560  138.8380 S   0  0  0  0  0  0  0  0  0  0  0  0
  191.3940  175.4240  137.2420 C   0  0  0  0  0  2  0  0  0  0  0  0
  190.4500  176.2280  136.3610 C   0  0  0  0  0  2  0  0  0  0  0  0
  189.4030  175.3300  135.7150 C   0  0  0  0  0  2  0  0  0  0  0  0
  187.3130  175.1860  134.6770 C   0  0  0  0  0  1  0  0  0  0  0  0
  187.6320  176.6520  136.4560 C   0  0  0  0  0  1  0  0  0  0  0  0
  188.2630  176.1130  135.2650 N   0  0  0  0  0  0  0  0  0  0  0  0
  1 19  1  0  0  0  0
  2 11  1  0  0  0  0
  2  7  1  0  0  0  0
  3  2  1  0  0  0  0
  4  1  1  0  0  0  0
  5 23  2  0  0  0  0
  5 10  1  0  0  0  0
  6  3  2  0  0  0  0
  6 22  1  0  0  0  0
  7  8  1  6  0  0  0
  7  5  1  0  0  0  0
  8 18  2  0  0  0  0
 11 13  1  0  0  0  0
 12 24  1  0  0  0  0
 13 23  1  0  0  0  0
 13  1  2  0  0  0  0
 15  9  1  0  0  0  0
 15 10  2  0  0  0  0
 16 24  1  0  0  0  0
 16 18  1  0  0  0  0
 17 19  2  0  0  0  0
 17 21  1  0  0  0  0
 18 15  1  0  0  0  0
 19 26  1  0  0  0  0
 20 14  2  0  0  0  0
 20  9  1  0  0  0  0
 22 11  2  0  0  0  0
 23 17  1  0  0  0  0
 24 20  1  0  0  0  0
 26 27  1  0  0  0  0
 26 25  2  0  0  0  0
 28 29  1  0  0  0  0
 28  6  1  0  0  0  0
 30 29  1  0  0  0  0
 31 30  1  0  0  0  0
 32 31  1  0  0  0  0
 33 35  1  0  0  0  0
 35 32  1  0  0  0  0
 35 34  1  0  0  0  0
M  END
>  <MODEL>
6

>  <REMARK>
 VINA RESULT:      -8.8      1.916      2.530
  Name = 
  7 active torsions:
  status: ('A' for Active; 'I' for Inactive)
    1  A    between atoms: C_3  and  S_9
    2  A    between atoms: C_3  and  C_13
    3  A    between atoms: C_8  and  C_24
    4  A    between atoms: S_9  and  C_24
    5  A    between atoms: C_11  and  C_30
    6  A    between atoms: C_13  and  C_29
    7  A    between atoms: N_27  and  C_29
                            x       y       z     vdW  Elec       q    Type
                         _______ _______ _______ _____ _____    ______ ____

>  <TORSDO>
F 7

$$$$
=
 OpenBabel11042411543D

 35 39  0  0  1  0  0  0  0  0999 V2000
  183.2730  178.9710  141.0230 C   0  0  0  0  0  0  0  0  0  0  0  0
  186.8380  178.2160  141.7050 N   0  0  0  0  0  0  0  0  0  0  0  0
  187.9050  178.1270  140.8890 C   0  0  0  0  0  3  0  0  0  0  0  0
  182.9680  179.2150  139.5830 C   0  0  0  0  0  1  0  0  0  0  0  0
  185.5230  178.2040  143.7170 C   0  0  0  0  0  0  0  0  0  0  0  0
  187.4600  178.3710  139.5990 C   0  0  0  0  0  0  0  0  0  0  0  0
  186.7780  178.0540  143.0660 C   0  0  2  0  0  3  0  0  0  0  0  0
  187.8750  177.7630  143.7730 C   0  0  0  0  0  3  0  0  0  0  0  0
  186.6200  177.5030  147.3990 C   0  0  0  0  0  2  0  0  0  0  0  0
  185.3820  178.0260  145.2080 C   0  0  0  0  0  3  0  0  0  0  0  0
  185.7620  178.5140  140.9450 C   0  0  0  0  0  0  0  0  0  0  0  0
  190.4190  178.0470  147.9230 C   0  0  0  0  0  1  0  0  0  0  0  0
  184.5180  178.6710  141.5490 C   0  0  0  0  0  0  0  0  0  0  0  0
  187.9340  178.2050  149.2640 O   0  0  0  0  0  0  0  0  0  0  0  0
  186.6780  177.7210  145.9130 C   0  0  0  0  0  0  0  0  0  0  0  0
  189.1160  177.2380  145.9410 C   0  0  0  0  0  2  0  0  0  0  0  0
  183.0840  178.7190  143.2500 C   0  0  0  0  0  0  0  0  0  0  0  0
  187.8380  177.5950  145.2340 C   0  0  0  0  0  0  0  0  0  0  0  0
  182.3680  179.0030  142.0870 C   0  0  0  0  0  0  0  0  0  0  0  0
  187.9190  177.8580  148.0530 C   0  0  0  0  0  0  0  0  0  0  0  0
  182.5580  178.6510  144.5360 O   0  0  0  0  0  1  0  0  0  0  0  0
  186.0950  178.6280  139.6090 C   0  0  0  0  0  3  0  0  0  0  0  0
  184.4080  178.5150  142.9140 C   0  0  0  0  0  0  0  0  0  0  0  0
  189.1360  177.7710  147.3000 N   0  0  0  0  0  0  0  0  0  0  0  0
  180.4460  180.3480  142.4810 O   0  0  0  0  0  0  0  0  0  0  0  0
  180.9180  179.2860  141.9970 C   0  0  0  0  0  0  0  0  0  0  0  0
  179.9850  178.3320  141.3350 C   0  0  0  0  0  1  0  0  0  0  0  0
  188.3260  178.4090  138.3890 C   0  0  0  0  0  2  0  0  0  0  0  0
  188.9350  176.7400  137.9930 S   0  0  0  0  0  0  0  0  0  0  0  0
  190.6230  177.0870  138.5810 C   0  0  0  0  0  2  0  0  0  0  0  0
  190.8630  176.4780  139.9540 C   0  0  0  0  0  2  0  0  0  0  0  0
  191.4530  177.5030  140.9140 C   0  0  0  0  0  2  0  0  0  0  0  0
  191.5640  177.9820  143.2000 C   0  0  0  0  0  1  0  0  0  0  0  0
  190.5560  176.0160  142.4690 C   0  0  0  0  0  1  0  0  0  0  0  0
  191.6720  176.9110  142.2240 N   0  0  0  0  0  0  0  0  0  0  0  0
  1 13  2  0  0  0  0
  1 19  1  0  0  0  0
  2  7  1  0  0  0  0
  3  2  1  0  0  0  0
  4  1  1  0  0  0  0
  5 10  1  0  0  0  0
  6 22  1  0  0  0  0
  6  3  2  0  0  0  0
  7  5  1  0  0  0  0
  7  8  1  1  0  0  0
  8 18  2  0  0  0  0
  9 20  1  0  0  0  0
 10 15  2  0  0  0  0
 11 13  1  0  0  0  0
 11  2  1  0  0  0  0
 13 23  1  0  0  0  0
 15  9  1  0  0  0  0
 16 24  1  0  0  0  0
 17 21  1  0  0  0  0
 18 15  1  0  0  0  0
 18 16  1  0  0  0  0
 19 17  2  0  0  0  0
 20 14  2  0  0  0  0
 22 11  2  0  0  0  0
 23 17  1  0  0  0  0
 23  5  2  0  0  0  0
 24 12  1  0  0  0  0
 24 20  1  0  0  0  0
 26 19  1  0  0  0  0
 26 25  2  0  0  0  0
 27 26  1  0  0  0  0
 28  6  1  0  0  0  0
 29 28  1  0  0  0  0
 29 30  1  0  0  0  0
 30 31  1  0  0  0  0
 31 32  1  0  0  0  0
 32 35  1  0  0  0  0
 35 34  1  0  0  0  0
 35 33  1  0  0  0  0
M  END
>  <MODEL>
7

>  <REMARK>
 VINA RESULT:      -8.6      2.168      6.313
  Name = 
  7 active torsions:
  status: ('A' for Active; 'I' for Inactive)
    1  A    between atoms: C_3  and  S_9
    2  A    between atoms: C_3  and  C_13
    3  A    between atoms: C_8  and  C_24
    4  A    between atoms: S_9  and  C_24
    5  A    between atoms: C_11  and  C_30
    6  A    between atoms: C_13  and  C_29
    7  A    between atoms: N_27  and  C_29
                            x       y       z     vdW  Elec       q    Type
                         _______ _______ _______ _____ _____    ______ ____

>  <TORSDO>
F 7

$$$$
=
 OpenBabel11042411543D

 35 39  0  0  1  0  0  0  0  0999 V2000
  182.0830  178.9020  142.3670 C   0  0  0  0  0  0  0  0  0  0  0  0
  185.7400  178.4850  142.8140 N   0  0  0  0  0  0  0  0  0  0  0  0
  186.5000  178.3850  143.9200 C   0  0  0  0  0  3  0  0  0  0  0  0
  181.3190  178.9770  143.6460 C   0  0  0  0  0  1  0  0  0  0  0  0
  185.1290  178.5700  140.4910 C   0  0  0  0  0  0  0  0  0  0  0  0
  185.6510  178.4780  145.0130 C   0  0  0  0  0  0  0  0  0  0  0  0
  186.1260  178.4490  141.4980 C   0  0  0  0  0  0  0  0  0  0  0  0
  187.4110  178.3000  141.1620 C   0  0  0  0  0  3  0  0  0  0  0  0
  187.3940  178.3580  137.3160 C   0  0  0  0  0  2  0  0  0  0  0  0
  185.4840  178.5530  139.0250 C   0  0  0  0  0  3  0  0  0  0  0  0
  184.4560  178.6280  143.2080 C   0  0  0  0  0  0  0  0  0  0  0  0
  190.8010  176.6690  138.0580 C   0  0  0  0  0  1  0  0  0  0  0  0
  183.4540  178.7470  142.2480 C   0  0  2  0  0  3  0  0  0  0  0  0
  188.8870  177.0340  136.0080 O   0  0  0  0  0  0  0  0  0  0  0  0
  186.9530  178.3600  138.7530 C   0  0  0  0  0  0  0  0  0  0  0  0
  189.3180  178.1100  139.4760 C   0  0  0  0  0  2  0  0  0  0  0  0
  182.6280  178.8570  140.1850 C   0  0  0  0  0  0  0  0  0  0  0  0
  187.8480  178.2480  139.7580 C   0  0  0  0  0  0  0  0  0  0  0  0
  181.5590  178.9710  141.0730 C   0  0  0  0  0  0  0  0  0  0  0  0
  188.6400  177.5490  137.1300 C   0  0  0  0  0  0  0  0  0  0  0  0
  182.5410  178.8780  138.7960 O   0  0  0  0  0  1  0  0  0  0  0  0
  184.3390  178.6270  144.5830 C   0  0  0  0  0  3  0  0  0  0  0  0
  183.7940  178.7190  140.9130 C   0  0  0  0  0  0  0  0  0  0  0  0
  189.5530  177.3950  138.2250 N   0  0  0  0  0  0  0  0  0  0  0  0
  179.6100  180.2810  140.6930 O   0  0  0  0  0  0  0  0  0  0  0  0
  180.1320  179.1350  140.7130 C   0  0  0  0  0  0  0  0  0  0  0  0
  179.2830  177.9620  140.3670 C   0  0  0  0  0  1  0  0  0  0  0  0
  186.0770  178.3760  146.4360 C   0  0  0  0  0  2  0  0  0  0  0  0
  187.4350  177.1760  146.6080 S   0  0  0  0  0  0  0  0  0  0  0  0
  188.1250  177.9900  148.0840 C   0  0  0  0  0  2  0  0  0  0  0  0
  189.6450  177.9280  148.0850 C   0  0  0  0  0  2  0  0  0  0  0  0
  190.1450  176.6930  147.3470 C   0  0  0  0  0  2  0  0  0  0  0  0
  192.2160  175.6290  147.5630 C   0  0  0  0  0  1  0  0  0  0  0  0
  191.6810  176.7530  145.5960 C   0  0  0  0  0  1  0  0  0  0  0  0
  191.5610  176.8160  147.0410 N   0  0  0  0  0  0  0  0  0  0  0  0
  1  4  1  0  0  0  0
  2 11  1  0  0  0  0
  2  3  1  0  0  0  0
  3  6  2  0  0  0  0
  5 23  1  0  0  0  0
  5  7  1  0  0  0  0
  6 28  1  0  0  0  0
  7  2  1  0  0  0  0
  8  7  2  0  0  0  0
  9 15  1  0  0  0  0
 10  5  2  0  0  0  0
 11 22  2  0  0  0  0
 12 24  1  0  0  0  0
 13 23  1  1  0  0  0
 13  1  1  0  0  0  0
 13 11  1  0  0  0  0
 14 20  2  0  0  0  0
 15 10  1  0  0  0  0
 15 18  2  0  0  0  0
 16 18  1  0  0  0  0
 17 23  2  0  0  0  0
 17 19  1  0  0  0  0
 18  8  1  0  0  0  0
 19  1  2  0  0  0  0
 20  9  1  0  0  0  0
 20 24  1  0  0  0  0
 21 17  1  0  0  0  0
 22  6  1  0  0  0  0
 24 16  1  0  0  0  0
 25 26  2  0  0  0  0
 26 19  1  0  0  0  0
 27 26  1  0  0  0  0
 28 29  1  0  0  0  0
 29 30  1  0  0  0  0
 30 31  1  0  0  0  0
 32 31  1  0  0  0  0
 34 35  1  0  0  0  0
 35 32  1  0  0  0  0
 35 33  1  0  0  0  0
M  END
>  <MODEL>
8

>  <REMARK>
 VINA RESULT:      -8.6      3.480      8.298
  Name = 
  7 active torsions:
  status: ('A' for Active; 'I' for Inactive)
    1  A    between atoms: C_3  and  S_9
    2  A    between atoms: C_3  and  C_13
    3  A    between atoms: C_8  and  C_24
    4  A    between atoms: S_9  and  C_24
    5  A    between atoms: C_11  and  C_30
    6  A    between atoms: C_13  and  C_29
    7  A    between atoms: N_27  and  C_29
                            x       y       z     vdW  Elec       q    Type
                         _______ _______ _______ _____ _____    ______ ____

>  <TORSDO>
F 7

$$$$
=
 OpenBabel11042411543D

 35 39  0  0  1  0  0  0  0  0999 V2000
  188.3320  177.8680  141.7230 C   0  0  0  0  0  0  0  0  0  0  0  0
  185.1010  178.3580  143.4740 N   0  0  0  0  0  0  0  0  0  0  0  0
  184.7740  178.3050  144.7780 C   0  0  0  0  0  3  0  0  0  0  0  0
  189.4730  177.5500  142.6300 C   0  0  0  0  0  1  0  0  0  0  0  0
  184.8780  178.6330  141.0960 C   0  0  0  0  0  0  0  0  0  0  0  0
  185.9290  177.9970  145.4810 C   0  0  0  0  0  0  0  0  0  0  0  0
  184.2980  178.6280  142.3940 C   0  0  0  0  0  0  0  0  0  0  0  0
  182.9950  178.8840  142.5530 C   0  0  0  0  0  3  0  0  0  0  0  0
  181.7050  179.4630  138.9760 C   0  0  0  0  0  2  0  0  0  0  0  0
  184.0520  178.9070  139.8640 C   0  0  0  0  0  3  0  0  0  0  0  0
  186.4220  178.0980  143.3700 C   0  0  0  0  0  0  0  0  0  0  0  0
  178.9310  181.1470  141.0920 C   0  0  0  0  0  1  0  0  0  0  0  0
  187.0240  178.0970  142.1140 C   0  0  2  0  0  3  0  0  0  0  0  0
  179.9930  181.0470  138.4730 O   0  0  0  0  0  0  0  0  0  0  0  0
  182.6030  179.2040  140.1540 C   0  0  0  0  0  0  0  0  0  0  0  0
  180.6590  179.4300  141.6840 C   0  0  0  0  0  2  0  0  0  0  0  0
  187.0880  178.2960  139.8980 C   0  0  0  0  0  0  0  0  0  0  0  0
  182.1170  179.1860  141.4130 C   0  0  0  0  0  0  0  0  0  0  0  0
  188.3790  177.9910  140.3320 C   0  0  0  0  0  0  0  0  0  0  0  0
  180.5540  180.3430  139.3530 C   0  0  0  0  0  0  0  0  0  0  0  0
  186.6980  178.5020  138.5790 O   0  0  0  0  0  1  0  0  0  0  0  0
  186.9970  177.8660  144.6030 C   0  0  0  0  0  3  0  0  0  0  0  0
  186.2570  178.3600  141.0000 C   0  0  0  0  0  0  0  0  0  0  0  0
  180.0850  180.3520  140.7090 N   0  0  0  0  0  0  0  0  0  0  0  0
  189.7870  178.6220  138.5220 O   0  0  0  0  0  0  0  0  0  0  0  0
  189.5760  177.8290  139.4770 C   0  0  0  0  0  0  0  0  0  0  0  0
  190.5570  176.7350  139.7210 C   0  0  0  0  0  1  0  0  0  0  0  0
  186.0220  177.8800  146.9620 C   0  0  0  0  0  2  0  0  0  0  0  0
  187.5510  178.6610  147.5660 S   0  0  0  0  0  0  0  0  0  0  0  0
  188.3290  177.0740  148.0050 C   0  0  0  0  0  2  0  0  0  0  0  0
  189.4950  176.7600  147.0810 C   0  0  0  0  0  2  0  0  0  0  0  0
  190.8260  177.0900  147.7440 C   0  0  0  0  0  2  0  0  0  0  0  0
  192.4290  175.4900  147.1650 C   0  0  0  0  0  1  0  0  0  0  0  0
  191.3670  176.7300  145.5060 C   0  0  0  0  0  1  0  0  0  0  0  0
  191.9320  176.8150  146.8400 N   0  0  0  0  0  0  0  0  0  0  0  0
  1 13  1  0  0  0  0
  1  4  1  0  0  0  0
  2  3  1  0  0  0  0
  3  6  2  0  0  0  0
  5  7  1  0  0  0  0
  6 28  1  0  0  0  0
  7  8  2  0  0  0  0
  7  2  1  0  0  0  0
  9 20  1  0  0  0  0
  9 15  1  0  0  0  0
 10 15  1  0  0  0  0
 10  5  2  0  0  0  0
 11  2  1  0  0  0  0
 11 22  2  0  0  0  0
 13 23  1  6  0  0  0
 13 11  1  0  0  0  0
 14 20  2  0  0  0  0
 15 18  2  0  0  0  0
 17 19  1  0  0  0  0
 17 23  2  0  0  0  0
 18 16  1  0  0  0  0
 18  8  1  0  0  0  0
 19  1  2  0  0  0  0
 20 24  1  0  0  0  0
 21 17  1  0  0  0  0
 22  6  1  0  0  0  0
 23  5  1  0  0  0  0
 24 12  1  0  0  0  0
 24 16  1  0  0  0  0
 25 26  2  0  0  0  0
 26 27  1  0  0  0  0
 26 19  1  0  0  0  0
 28 29  1  0  0  0  0
 29 30  1  0  0  0  0
 31 32  1  0  0  0  0
 31 30  1  0  0  0  0
 34 35  1  0  0  0  0
 35 33  1  0  0  0  0
 35 32  1  0  0  0  0
M  END
>  <MODEL>
9

>  <REMARK>
 VINA RESULT:      -8.3      3.725      6.262
  Name = 
  7 active torsions:
  status: ('A' for Active; 'I' for Inactive)
    1  A    between atoms: C_3  and  S_9
    2  A    between atoms: C_3  and  C_13
    3  A    between atoms: C_8  and  C_24
    4  A    between atoms: S_9  and  C_24
    5  A    between atoms: C_11  and  C_30
    6  A    between atoms: C_13  and  C_29
    7  A    between atoms: N_27  and  C_29
                            x       y       z     vdW  Elec       q    Type
                         _______ _______ _______ _____ _____    ______ ____

>  <TORSDO>
F 7

$$$$
