=
 OpenBabel11042412283D

 26 28  0  0  0  0  0  0  0  0999 V2000
  190.7800  176.8880  143.3550 C   0  0  0  0  0  3  0  0  0  0  0  0
  188.5710  177.1800  142.3240 C   0  0  0  0  0  0  0  0  0  0  0  0
  186.9980  177.6000  146.4650 C   0  0  0  0  0  3  0  0  0  0  0  0
  187.2930  177.6120  142.4250 N   0  0  0  0  0  0  0  0  0  0  0  0
  188.9390  177.3330  144.7850 C   0  0  0  0  0  0  0  0  0  0  0  0
  186.6420  177.7580  143.7160 C   0  0  0  0  0  0  0  0  0  0  0  0
  184.5210  178.7560  144.8580 C   0  0  0  0  0  0  0  0  0  0  0  0
  184.8210  178.8800  146.1650 C   0  0  0  0  0  3  0  0  0  0  0  0
  185.9030  178.2010  146.9640 C   0  0  0  0  0  2  0  0  0  0  0  0
  185.4380  178.3530  143.7040 C   0  0  0  0  0  3  0  0  0  0  0  0
  189.4300  177.2420  143.5050 C   0  0  0  0  0  0  0  0  0  0  0  0
  189.7280  177.0400  145.8430 N   0  0  0  0  0  0  0  0  0  0  0  0
  191.6320  176.6500  144.4640 C   0  0  0  0  0  3  0  0  0  0  0  0
  187.4920  177.7580  145.0020 C   0  0  0  0  0  0  0  0  0  0  0  0
  191.0550  176.7340  145.7380 C   0  0  0  0  0  0  0  0  0  0  0  0
  192.3430  176.2670  147.9890 N   0  0  0  0  0  0  0  0  0  0  0  0
  191.7510  176.4840  146.9620 C   0  0  0  0  0  0  0  0  0  0  0  0
  183.3210  179.4530  144.2110 C   0  0  0  0  0  2  0  0  0  0  0  0
  182.6990  178.8360  142.9690 C   0  0  0  0  0  2  0  0  0  0  0  0
  181.2980  179.3140  142.9380 N   0  0  0  0  0  2  0  0  0  0  0  0
  180.5180  178.5620  143.9340 C   0  0  0  0  0  1  0  0  0  0  0  0
  189.2570  177.2270  141.0000 C   0  0  0  0  0  2  0  0  0  0  0  0
  188.6130  178.3010  140.1320 C   0  0  0  0  0  2  0  0  0  0  0  0
  190.0640  177.5130  138.1580 O   0  0  0  0  0  1  0  0  0  0  0  0
  188.9160  179.5230  137.9500 O   0  0  0  0  0  0  0  0  0  0  0  0
  189.1450  178.4980  138.6810 C   0  0  0  0  0  0  0  0  0  0  0  0
  1 11  2  0  0  0  0
  1 13  1  0  0  0  0
  2  4  2  0  0  0  0
  2 11  1  0  0  0  0
  3  9  1  0  0  0  0
  4  6  1  0  0  0  0
  5 14  1  0  0  0  0
  5 12  2  0  0  0  0
  6 14  1  0  0  0  0
  7  8  2  0  0  0  0
  8  9  1  0  0  0  0
 10  6  2  0  0  0  0
 10  7  1  0  0  0  0
 11  5  1  0  0  0  0
 13 15  2  0  0  0  0
 14  3  2  0  0  0  0
 15 12  1  0  0  0  0
 15 17  1  0  0  0  0
 17 16  3  0  0  0  0
 18  7  1  0  0  0  0
 19 18  1  0  0  0  0
 20 19  1  0  0  0  0
 20 21  1  0  0  0  0
 22  2  1  0  0  0  0
 23 22  1  0  0  0  0
 24 26  1  0  0  0  0
 25 26  2  0  0  0  0
 26 23  1  0  0  0  0
M  END
>  <MODEL>
1

>  <REMARK>
 VINA RESULT:      -8.9      0.000      0.000
  Name = 
  7 active torsions:
  status: ('A' for Active; 'I' for Inactive)
    1  A    between atoms: C_1  and  C_11
    2  A    between atoms: C_1  and  C_13
    3  A    between atoms: C_3  and  C_17
    4  A    between atoms: C_3  and  C_24
    5  A    between atoms: C_5  and  C_26
    6  A    between atoms: C_6  and  C_17
    7  A    between atoms: N_9  and  C_11
                            x       y       z     vdW  Elec       q    Type
                         _______ _______ _______ _____ _____    ______ ____

>  <TORSDO>
F 7

$$$$
=
 OpenBabel11042412283D

 26 28  0  0  1  0  0  0  0  0999 V2000
  188.2160  177.1460  146.4070 C   0  0  0  0  0  3  0  0  0  0  0  0
  187.3110  177.9540  144.2720 C   0  0  0  0  0  0  0  0  0  0  0  0
  191.4290  177.4710  142.6590 C   0  0  0  0  0  3  0  0  0  0  0  0
  187.4300  178.0610  142.9300 N   0  0  0  0  0  0  0  0  0  0  0  0
  189.6810  177.2310  144.5430 C   0  0  0  0  0  0  0  0  0  0  0  0
  188.7240  177.9610  142.2730 C   0  0  0  0  0  0  0  0  0  0  0  0
  189.8360  177.7120  139.9280 C   0  0  0  0  0  0  0  0  0  0  0  0
  191.0790  177.2470  140.1500 C   0  0  0  0  0  3  0  0  0  0  0  0
  191.9000  177.2800  141.4130 C   0  0  0  0  0  3  0  0  0  0  0  0
  188.7000  177.9120  140.9310 C   0  0  0  0  0  3  0  0  0  0  0  0
  188.4010  177.3440  145.0300 C   0  0  0  0  0  0  0  0  0  0  0  0
  190.7140  176.9890  145.3810 N   0  0  0  0  0  0  0  0  0  0  0  0
  189.2850  176.8210  147.2810 C   0  0  0  0  0  3  0  0  0  0  0  0
  189.9280  177.3910  143.0480 C   0  0  1  0  0  3  0  0  0  0  0  0
  190.5660  176.7500  146.7170 C   0  0  0  0  0  0  0  0  0  0  0  0
  192.7640  176.2480  148.0800 N   0  0  0  0  0  0  0  0  0  0  0  0
  191.7620  176.4770  147.4530 C   0  0  0  0  0  0  0  0  0  0  0  0
  189.1700  177.6820  138.5490 C   0  0  0  0  0  2  0  0  0  0  0  0
  189.1190  178.9640  137.7340 C   0  0  0  0  0  2  0  0  0  0  0  0
  187.8080  178.9550  137.0470 N   0  0  0  0  0  2  0  0  0  0  0  0
  186.9670  177.9050  137.6440 C   0  0  0  0  0  1  0  0  0  0  0  0
  185.9510  177.8720  144.8820 C   0  0  0  0  0  2  0  0  0  0  0  0
  184.9040  178.2490  143.8420 C   0  0  0  0  0  2  0  0  0  0  0  0
  183.4340  179.1690  145.7440 O   0  0  0  0  0  1  0  0  0  0  0  0
  182.5880  179.2020  143.5800 O   0  0  0  0  0  0  0  0  0  0  0  0
  183.5900  178.9310  144.3260 C   0  0  0  0  0  0  0  0  0  0  0  0
  1 13  1  0  0  0  0
  2 22  1  0  0  0  0
  2 11  1  0  0  0  0
  4  2  2  0  0  0  0
  5 11  1  0  0  0  0
  5 12  2  0  0  0  0
  6  4  1  0  0  0  0
  6 14  1  0  0  0  0
  7  8  2  0  0  0  0
  7 10  1  0  0  0  0
  8  9  1  0  0  0  0
  9  3  2  0  0  0  0
 10  6  2  0  0  0  0
 11  1  2  0  0  0  0
 12 15  1  0  0  0  0
 14  3  1  1  0  0  0
 14  5  1  0  0  0  0
 15 13  2  0  0  0  0
 15 17  1  0  0  0  0
 17 16  3  0  0  0  0
 18  7  1  0  0  0  0
 19 18  1  0  0  0  0
 20 21  1  0  0  0  0
 20 19  1  0  0  0  0
 23 26  1  0  0  0  0
 23 22  1  0  0  0  0
 25 26  2  0  0  0  0
 26 24  1  0  0  0  0
M  END
>  <MODEL>
2

>  <REMARK>
 VINA RESULT:      -8.5      3.019      5.886
  Name = 
  7 active torsions:
  status: ('A' for Active; 'I' for Inactive)
    1  A    between atoms: C_1  and  C_11
    2  A    between atoms: C_1  and  C_13
    3  A    between atoms: C_3  and  C_17
    4  A    between atoms: C_3  and  C_24
    5  A    between atoms: C_5  and  C_26
    6  A    between atoms: C_6  and  C_17
    7  A    between atoms: N_9  and  C_11
                            x       y       z     vdW  Elec       q    Type
                         _______ _______ _______ _____ _____    ______ ____

>  <TORSDO>
F 7

$$$$
=
 OpenBabel11042412283D

 26 28  0  0  0  0  0  0  0  0999 V2000
  185.6240  178.2030  141.5970 C   0  0  0  0  0  3  0  0  0  0  0  0
  187.9890  178.1390  142.2550 C   0  0  0  0  0  0  0  0  0  0  0  0
  186.5390  178.2720  146.4590 C   0  0  0  0  0  3  0  0  0  0  0  0
  188.9210  177.8980  143.2040 N   0  0  0  0  0  2  0  0  0  0  0  0
  186.1290  178.1330  143.9140 C   0  0  0  0  0  0  0  0  0  0  0  0
  188.5920  177.9470  144.6190 C   0  0  0  0  0  0  0  0  0  0  0  0
  189.5260  177.3460  146.9790 C   0  0  0  0  0  0  0  0  0  0  0  0
  188.4610  177.2850  147.8000 C   0  0  0  0  0  3  0  0  0  0  0  0
  187.0840  177.8690  147.6210 C   0  0  0  0  0  3  0  0  0  0  0  0
  189.5510  177.5250  145.4610 C   0  0  0  0  0  3  0  0  0  0  0  0
  186.5760  178.0530  142.6180 C   0  0  0  0  0  0  0  0  0  0  0  0
  184.8290  178.3960  144.1750 N   0  0  0  0  0  0  0  0  0  0  0  0
  184.2470  178.4080  141.8640 C   0  0  0  0  0  3  0  0  0  0  0  0
  187.1150  177.9310  145.0580 C   0  0  0  0  0  0  0  0  0  0  0  0
  183.8690  178.5060  143.2100 C   0  0  0  0  0  0  0  0  0  0  0  0
  181.4110  178.9540  144.0470 N   0  0  0  0  0  0  0  0  0  0  0  0
  182.5350  178.7540  143.6620 C   0  0  0  0  0  0  0  0  0  0  0  0
  190.8960  176.7730  147.3500 C   0  0  0  0  0  2  0  0  0  0  0  0
  191.7390  176.1280  146.2620 C   0  0  0  0  0  2  0  0  0  0  0  0
  192.7800  175.3450  146.9670 N   0  0  0  0  0  2  0  0  0  0  0  0
  192.7960  175.7440  148.3830 C   0  0  0  0  0  1  0  0  0  0  0  0
  188.3230  177.8920  140.8220 C   0  0  0  0  0  2  0  0  0  0  0  0
  189.7390  177.3400  140.7180 C   0  0  0  0  0  2  0  0  0  0  0  0
  189.9890  177.6810  138.1790 O   0  0  0  0  0  0  0  0  0  0  0  0
  190.7660  175.6970  139.1080 O   0  0  0  0  0  1  0  0  0  0  0  0
  190.2400  176.8420  139.3290 C   0  0  0  0  0  0  0  0  0  0  0  0
  1 13  2  0  0  0  0
  1 11  1  0  0  0  0
  2 11  2  0  0  0  0
  2  4  1  0  0  0  0
  3  9  2  0  0  0  0
  4  6  1  0  0  0  0
  5 12  1  0  0  0  0
  5 14  2  0  0  0  0
  6 14  1  0  0  0  0
  6 10  2  0  0  0  0
  7 18  1  0  0  0  0
  7  8  2  0  0  0  0
  9  8  1  0  0  0  0
 10  7  1  0  0  0  0
 11  5  1  0  0  0  0
 13 15  1  0  0  0  0
 14  3  1  0  0  0  0
 15 17  1  0  0  0  0
 15 12  2  0  0  0  0
 17 16  3  0  0  0  0
 19 20  1  0  0  0  0
 19 18  1  0  0  0  0
 20 21  1  0  0  0  0
 22  2  1  0  0  0  0
 23 22  1  0  0  0  0
 24 26  2  0  0  0  0
 25 26  1  0  0  0  0
 26 23  1  0  0  0  0
M  END
>  <MODEL>
3

>  <REMARK>
 VINA RESULT:      -8.2      1.477      6.429
  Name = 
  7 active torsions:
  status: ('A' for Active; 'I' for Inactive)
    1  A    between atoms: C_1  and  C_11
    2  A    between atoms: C_1  and  C_13
    3  A    between atoms: C_3  and  C_17
    4  A    between atoms: C_3  and  C_24
    5  A    between atoms: C_5  and  C_26
    6  A    between atoms: C_6  and  C_17
    7  A    between atoms: N_9  and  C_11
                            x       y       z     vdW  Elec       q    Type
                         _______ _______ _______ _____ _____    ______ ____

>  <TORSDO>
F 7

$$$$
=
 OpenBabel11042412283D

 26 28  0  0  1  0  0  0  0  0999 V2000
  188.2020  177.1420  146.3820 C   0  0  0  0  0  3  0  0  0  0  0  0
  187.3240  177.9590  144.2400 C   0  0  0  0  0  0  0  0  0  0  0  0
  191.4600  177.4810  142.6730 C   0  0  0  0  0  3  0  0  0  0  0  0
  187.4590  178.0720  142.8990 N   0  0  0  0  0  0  0  0  0  0  0  0
  189.6900  177.2340  144.5350 C   0  0  0  0  0  0  0  0  0  0  0  0
  188.7600  177.9740  142.2580 C   0  0  0  0  0  0  0  0  0  0  0  0
  189.9000  177.7350  139.9250 C   0  0  0  0  0  0  0  0  0  0  0  0
  191.1410  177.2680  140.1600 C   0  0  0  0  0  3  0  0  0  0  0  0
  191.9460  177.2960  141.4330 C   0  0  0  0  0  3  0  0  0  0  0  0
  188.7530  177.9310  140.9150 C   0  0  0  0  0  3  0  0  0  0  0  0
  188.4040  177.3450  145.0080 C   0  0  0  0  0  0  0  0  0  0  0  0
  190.7130  176.9880  145.3850 N   0  0  0  0  0  0  0  0  0  0  0  0
  189.2600  176.8130  147.2670 C   0  0  0  0  0  3  0  0  0  0  0  0
  189.9550  177.4000  143.0440 C   0  0  1  0  0  3  0  0  0  0  0  0
  190.5490  176.7430  146.7180 C   0  0  0  0  0  0  0  0  0  0  0  0
  192.7300  176.2340  148.1050 N   0  0  0  0  0  0  0  0  0  0  0  0
  191.7350  176.4670  147.4670 C   0  0  0  0  0  0  0  0  0  0  0  0
  189.2510  177.7110  138.5390 C   0  0  0  0  0  2  0  0  0  0  0  0
  188.8650  176.3710  137.9340 C   0  0  0  0  0  2  0  0  0  0  0  0
  189.3630  176.3970  136.5400 N   0  0  0  0  0  2  0  0  0  0  0  0
  190.8230  176.2070  136.5550 C   0  0  0  0  0  1  0  0  0  0  0  0
  185.9570  177.8750  144.8330 C   0  0  0  0  0  2  0  0  0  0  0  0
  184.9280  178.3330  143.8060 C   0  0  0  0  0  2  0  0  0  0  0  0
  183.4390  179.1390  145.7440 O   0  0  0  0  0  1  0  0  0  0  0  0
  182.5840  179.2280  143.5860 O   0  0  0  0  0  0  0  0  0  0  0  0
  183.5970  178.9580  144.3190 C   0  0  0  0  0  0  0  0  0  0  0  0
  1 13  1  0  0  0  0
  2 22  1  0  0  0  0
  2 11  1  0  0  0  0
  4  2  2  0  0  0  0
  5 11  1  0  0  0  0
  5 12  2  0  0  0  0
  6  4  1  0  0  0  0
  6 14  1  0  0  0  0
  7  8  2  0  0  0  0
  7 10  1  0  0  0  0
  8  9  1  0  0  0  0
  9  3  2  0  0  0  0
 10  6  2  0  0  0  0
 11  1  2  0  0  0  0
 12 15  1  0  0  0  0
 14  3  1  1  0  0  0
 14  5  1  0  0  0  0
 15 13  2  0  0  0  0
 15 17  1  0  0  0  0
 17 16  3  0  0  0  0
 18  7  1  0  0  0  0
 19 18  1  0  0  0  0
 20 21  1  0  0  0  0
 20 19  1  0  0  0  0
 23 26  1  0  0  0  0
 23 22  1  0  0  0  0
 25 26  2  0  0  0  0
 26 24  1  0  0  0  0
M  END
>  <MODEL>
4

>  <REMARK>
 VINA RESULT:      -8.1      3.105      6.281
  Name = 
  7 active torsions:
  status: ('A' for Active; 'I' for Inactive)
    1  A    between atoms: C_1  and  C_11
    2  A    between atoms: C_1  and  C_13
    3  A    between atoms: C_3  and  C_17
    4  A    between atoms: C_3  and  C_24
    5  A    between atoms: C_5  and  C_26
    6  A    between atoms: C_6  and  C_17
    7  A    between atoms: N_9  and  C_11
                            x       y       z     vdW  Elec       q    Type
                         _______ _______ _______ _____ _____    ______ ____

>  <TORSDO>
F 7

$$$$
=
 OpenBabel11042412283D

 26 28  0  0  0  0  0  0  0  0999 V2000
  188.2470  178.1920  139.9040 C   0  0  0  0  0  3  0  0  0  0  0  0
  187.2390  178.0930  142.1420 C   0  0  0  0  0  0  0  0  0  0  0  0
  191.0750  176.2870  143.4900 C   0  0  0  0  0  3  0  0  0  0  0  0
  187.3980  177.9870  143.4800 N   0  0  0  0  0  2  0  0  0  0  0  0
  189.5850  177.3810  141.6890 C   0  0  0  0  0  0  0  0  0  0  0  0
  188.5870  177.3820  144.0570 C   0  0  0  0  0  0  0  0  0  0  0  0
  189.8560  177.0620  146.3120 C   0  0  0  0  0  0  0  0  0  0  0  0
  191.1260  176.7570  145.9890 C   0  0  0  0  0  3  0  0  0  0  0  0
  191.6800  176.2320  144.6900 C   0  0  0  0  0  3  0  0  0  0  0  0
  188.7130  177.4840  145.3900 C   0  0  0  0  0  3  0  0  0  0  0  0
  188.4140  177.9740  141.2810 C   0  0  0  0  0  0  0  0  0  0  0  0
  190.5040  176.9840  140.7800 N   0  0  0  0  0  0  0  0  0  0  0  0
  189.2380  177.8420  138.9530 C   0  0  0  0  0  3  0  0  0  0  0  0
  189.8340  177.1660  143.1770 C   0  0  0  0  0  0  0  0  0  0  0  0
  190.3940  177.2160  139.4390 C   0  0  0  0  0  0  0  0  0  0  0  0
  192.3790  176.3710  137.9270 N   0  0  0  0  0  0  0  0  0  0  0  0
  191.4750  176.7590  138.6220 C   0  0  0  0  0  0  0  0  0  0  0  0
  189.4390  177.5030  147.7180 C   0  0  0  0  0  2  0  0  0  0  0  0
  188.0010  177.2810  148.1580 C   0  0  0  0  0  2  0  0  0  0  0  0
  187.3890  178.6270  148.2400 N   0  0  0  0  0  2  0  0  0  0  0  0
  186.2230  178.6730  147.3430 C   0  0  0  0  0  1  0  0  0  0  0  0
  186.0980  178.8890  141.6010 C   0  0  0  0  0  2  0  0  0  0  0  0
  184.7860  178.3090  142.1140 C   0  0  0  0  0  2  0  0  0  0  0  0
  182.7230  178.6280  143.6190 O   0  0  0  0  0  0  0  0  0  0  0  0
  184.5660  179.9990  143.9690 O   0  0  0  0  0  1  0  0  0  0  0  0
  184.0790  179.0190  143.3070 C   0  0  0  0  0  0  0  0  0  0  0  0
  1 11  1  0  0  0  0
  2  4  1  0  0  0  0
  3  9  2  0  0  0  0
  4  6  1  0  0  0  0
  5 14  2  0  0  0  0
  6 10  2  0  0  0  0
  7 18  1  0  0  0  0
  8  7  2  0  0  0  0
  9  8  1  0  0  0  0
 10  7  1  0  0  0  0
 11  5  1  0  0  0  0
 11  2  2  0  0  0  0
 12  5  1  0  0  0  0
 13 15  1  0  0  0  0
 13  1  2  0  0  0  0
 14  3  1  0  0  0  0
 14  6  1  0  0  0  0
 15 12  2  0  0  0  0
 16 17  3  0  0  0  0
 17 15  1  0  0  0  0
 18 19  1  0  0  0  0
 19 20  1  0  0  0  0
 21 20  1  0  0  0  0
 22 23  1  0  0  0  0
 22  2  1  0  0  0  0
 23 26  1  0  0  0  0
 26 24  2  0  0  0  0
 26 25  1  0  0  0  0
M  END
>  <MODEL>
5

>  <REMARK>
 VINA RESULT:      -7.9      3.082      5.983
  Name = 
  7 active torsions:
  status: ('A' for Active; 'I' for Inactive)
    1  A    between atoms: C_1  and  C_11
    2  A    between atoms: C_1  and  C_13
    3  A    between atoms: C_3  and  C_17
    4  A    between atoms: C_3  and  C_24
    5  A    between atoms: C_5  and  C_26
    6  A    between atoms: C_6  and  C_17
    7  A    between atoms: N_9  and  C_11
                            x       y       z     vdW  Elec       q    Type
                         _______ _______ _______ _____ _____    ______ ____

>  <TORSDO>
F 7

$$$$
=
 OpenBabel11042412283D

 26 28  0  0  1  0  0  0  0  0999 V2000
  187.1210  177.8640  145.9910 C   0  0  0  0  0  3  0  0  0  0  0  0
  189.2120  176.9040  145.1340 C   0  0  0  0  0  0  0  0  0  0  0  0
  187.6290  177.7840  141.0700 C   0  0  0  0  0  3  0  0  0  0  0  0
  190.0970  176.7730  144.1200 N   0  0  0  0  0  0  0  0  0  0  0  0
  187.4720  177.8860  143.6450 C   0  0  0  0  0  0  0  0  0  0  0  0
  189.7030  176.9930  142.7380 C   0  0  0  0  0  0  0  0  0  0  0  0
  190.6750  177.2960  140.3370 C   0  0  0  0  0  0  0  0  0  0  0  0
  189.7120  177.8980  139.6150 C   0  0  0  0  0  3  0  0  0  0  0  0
  188.2320  177.9890  139.8860 C   0  0  0  0  0  3  0  0  0  0  0  0
  190.6990  177.0020  141.8370 C   0  0  0  0  0  3  0  0  0  0  0  0
  187.9770  177.6490  144.9000 C   0  0  0  0  0  0  0  0  0  0  0  0
  186.1820  178.2610  143.4850 N   0  0  0  0  0  0  0  0  0  0  0  0
  185.7900  178.3270  145.8350 C   0  0  0  0  0  3  0  0  0  0  0  0
  188.3750  177.7120  142.4300 C   0  0  1  0  0  3  0  0  0  0  0  0
  185.3340  178.5210  144.5240 C   0  0  0  0  0  0  0  0  0  0  0  0
  182.8950  179.2910  143.8940 N   0  0  0  0  0  0  0  0  0  0  0  0
  184.0120  178.9410  144.1780 C   0  0  0  0  0  0  0  0  0  0  0  0
  192.1330  177.2150  139.8750 C   0  0  0  0  0  2  0  0  0  0  0  0
  192.4320  176.6540  138.4950 C   0  0  0  0  0  2  0  0  0  0  0  0
  193.8610  176.2670  138.5160 N   0  0  0  0  0  2  0  0  0  0  0  0
  194.0080  174.9570  137.8610 C   0  0  0  0  0  1  0  0  0  0  0  0
  189.7020  176.8560  146.5430 C   0  0  0  0  0  2  0  0  0  0  0  0
  191.2060  177.0930  146.5670 C   0  0  0  0  0  2  0  0  0  0  0  0
  192.8240  176.0050  148.2470 O   0  0  0  0  0  1  0  0  0  0  0  0
  192.4240  174.9130  146.2350 O   0  0  0  0  0  0  0  0  0  0  0  0
  192.1360  175.9130  146.9790 C   0  0  0  0  0  0  0  0  0  0  0  0
  2 22  1  0  0  0  0
  4  2  2  0  0  0  0
  5 11  1  0  0  0  0
  6  4  1  0  0  0  0
  7 10  1  0  0  0  0
  8  9  1  0  0  0  0
  8  7  2  0  0  0  0
  9  3  2  0  0  0  0
 10  6  2  0  0  0  0
 11  2  1  0  0  0  0
 11  1  2  0  0  0  0
 12  5  2  0  0  0  0
 12 15  1  0  0  0  0
 13  1  1  0  0  0  0
 14  3  1  6  0  0  0
 14  6  1  0  0  0  0
 14  5  1  0  0  0  0
 15 13  2  0  0  0  0
 16 17  3  0  0  0  0
 17 15  1  0  0  0  0
 18  7  1  0  0  0  0
 19 20  1  0  0  0  0
 19 18  1  0  0  0  0
 21 20  1  0  0  0  0
 22 23  1  0  0  0  0
 23 26  1  0  0  0  0
 25 26  2  0  0  0  0
 26 24  1  0  0  0  0
M  END
>  <MODEL>
6

>  <REMARK>
 VINA RESULT:      -7.7      3.603      7.886
  Name = 
  7 active torsions:
  status: ('A' for Active; 'I' for Inactive)
    1  A    between atoms: C_1  and  C_11
    2  A    between atoms: C_1  and  C_13
    3  A    between atoms: C_3  and  C_17
    4  A    between atoms: C_3  and  C_24
    5  A    between atoms: C_5  and  C_26
    6  A    between atoms: C_6  and  C_17
    7  A    between atoms: N_9  and  C_11
                            x       y       z     vdW  Elec       q    Type
                         _______ _______ _______ _____ _____    ______ ____

>  <TORSDO>
F 7

$$$$
=
 OpenBabel11042412283D

 26 28  0  0  1  0  0  0  0  0999 V2000
  185.3660  178.3400  144.6870 C   0  0  0  0  0  3  0  0  0  0  0  0
  185.7820  178.7240  142.2980 C   0  0  0  0  0  0  0  0  0  0  0  0
  190.0410  177.7720  143.1660 C   0  0  0  0  0  3  0  0  0  0  0  0
  186.5750  178.5480  141.2170 N   0  0  0  0  0  0  0  0  0  0  0  0
  187.5680  177.9870  143.8730 C   0  0  0  0  0  0  0  0  0  0  0  0
  187.9950  178.2700  141.3560 C   0  0  0  0  0  0  0  0  0  0  0  0
  190.0910  177.5050  140.0070 C   0  0  0  0  0  0  0  0  0  0  0  0
  190.9770  177.0510  140.9140 C   0  0  0  0  0  3  0  0  0  0  0  0
  191.0440  177.3140  142.3960 C   0  0  0  0  0  3  0  0  0  0  0  0
  188.6450  177.9470  140.2250 C   0  0  0  0  0  3  0  0  0  0  0  0
  186.2460  178.2440  143.5970 C   0  0  0  0  0  0  0  0  0  0  0  0
  187.9930  177.8860  145.1530 N   0  0  0  0  0  0  0  0  0  0  0  0
  185.7930  178.1630  146.0280 C   0  0  0  0  0  3  0  0  0  0  0  0
  188.5540  177.8280  142.7230 C   0  0  1  0  0  3  0  0  0  0  0  0
  187.1600  177.9320  146.2340 C   0  0  0  0  0  0  0  0  0  0  0  0
  188.2850  177.6310  148.5970 N   0  0  0  0  0  0  0  0  0  0  0  0
  187.7710  177.7740  147.5170 C   0  0  0  0  0  0  0  0  0  0  0  0
  190.2150  177.2160  138.5090 C   0  0  0  0  0  2  0  0  0  0  0  0
  191.3970  176.3960  138.0170 C   0  0  0  0  0  2  0  0  0  0  0  0
  190.9360  174.9890  138.0010 N   0  0  0  0  0  2  0  0  0  0  0  0
  191.8800  174.1890  137.2050 C   0  0  0  0  0  1  0  0  0  0  0  0
  184.3040  178.8180  142.1130 C   0  0  0  0  0  2  0  0  0  0  0  0
  183.9320  178.3090  140.7260 C   0  0  0  0  0  2  0  0  0  0  0  0
  182.1590  179.3400  139.1720 O   0  0  0  0  0  1  0  0  0  0  0  0
  184.3350  180.1450  139.0490 O   0  0  0  0  0  0  0  0  0  0  0  0
  183.5260  179.3490  139.6400 C   0  0  0  0  0  0  0  0  0  0  0  0
  1 13  1  0  0  0  0
  2 11  1  0  0  0  0
  4  6  1  0  0  0  0
  4  2  2  0  0  0  0
  5 12  2  0  0  0  0
  6 14  1  0  0  0  0
  7 10  1  0  0  0  0
  7  8  2  0  0  0  0
  8  9  1  0  0  0  0
  9  3  2  0  0  0  0
 10  6  2  0  0  0  0
 11  5  1  0  0  0  0
 11  1  2  0  0  0  0
 12 15  1  0  0  0  0
 13 15  2  0  0  0  0
 14  3  1  1  0  0  0
 14  5  1  0  0  0  0
 15 17  1  0  0  0  0
 17 16  3  0  0  0  0
 18  7  1  0  0  0  0
 19 18  1  0  0  0  0
 20 19  1  0  0  0  0
 21 20  1  0  0  0  0
 22  2  1  0  0  0  0
 23 22  1  0  0  0  0
 24 26  1  0  0  0  0
 25 26  2  0  0  0  0
 26 23  1  0  0  0  0
M  END
>  <MODEL>
7

>  <REMARK>
 VINA RESULT:      -7.7      2.817      6.446
  Name = 
  7 active torsions:
  status: ('A' for Active; 'I' for Inactive)
    1  A    between atoms: C_1  and  C_11
    2  A    between atoms: C_1  and  C_13
    3  A    between atoms: C_3  and  C_17
    4  A    between atoms: C_3  and  C_24
    5  A    between atoms: C_5  and  C_26
    6  A    between atoms: C_6  and  C_17
    7  A    between atoms: N_9  and  C_11
                            x       y       z     vdW  Elec       q    Type
                         _______ _______ _______ _____ _____    ______ ____

>  <TORSDO>
F 7

$$$$
=
 OpenBabel11042412283D

 26 28  0  0  0  0  0  0  0  0999 V2000
  190.6260  176.7510  141.2540 C   0  0  0  0  0  3  0  0  0  0  0  0
  189.7160  177.2780  143.4730 C   0  0  0  0  0  0  0  0  0  0  0  0
  186.2200  179.0020  141.3290 C   0  0  0  0  0  3  0  0  0  0  0  0
  188.6490  177.5850  144.2450 N   0  0  0  0  0  2  0  0  0  0  0  0
  188.4720  177.7410  141.3640 C   0  0  0  0  0  0  0  0  0  0  0  0
  187.4540  178.1900  143.6790 C   0  0  0  0  0  0  0  0  0  0  0  0
  184.9750  178.7770  144.2360 C   0  0  0  0  0  0  0  0  0  0  0  0
  184.3520  178.9360  143.0530 C   0  0  0  0  0  3  0  0  0  0  0  0
  184.9420  179.2060  141.6930 C   0  0  0  0  0  3  0  0  0  0  0  0
  186.4000  178.2940  144.5050 C   0  0  0  0  0  3  0  0  0  0  0  0
  189.5330  177.1740  142.0270 C   0  0  0  0  0  0  0  0  0  0  0  0
  188.5190  177.9220  140.0240 N   0  0  0  0  0  0  0  0  0  0  0  0
  190.6520  176.8730  139.8420 C   0  0  0  0  0  3  0  0  0  0  0  0
  187.2420  178.1740  142.1530 C   0  0  0  0  0  0  0  0  0  0  0  0
  189.5460  177.4860  139.2360 C   0  0  0  0  0  0  0  0  0  0  0  0
  189.3240  177.9360  136.6500 N   0  0  0  0  0  0  0  0  0  0  0  0
  189.4210  177.7290  137.8330 C   0  0  0  0  0  0  0  0  0  0  0  0
  184.2200  178.5970  145.5550 C   0  0  0  0  0  2  0  0  0  0  0  0
  184.9950  178.1640  146.7890 C   0  0  0  0  0  2  0  0  0  0  0  0
  185.6790  179.3800  147.2860 N   0  0  0  0  0  2  0  0  0  0  0  0
  186.9290  178.9820  147.9530 C   0  0  0  0  0  1  0  0  0  0  0  0
  190.8390  176.4880  144.0590 C   0  0  0  0  0  2  0  0  0  0  0  0
  191.4300  177.2450  145.2420 C   0  0  0  0  0  2  0  0  0  0  0  0
  190.1670  176.9460  147.4640 O   0  0  0  0  0  1  0  0  0  0  0  0
  192.2220  175.8910  147.2120 O   0  0  0  0  0  0  0  0  0  0  0  0
  191.3190  176.6090  146.6590 C   0  0  0  0  0  0  0  0  0  0  0  0
  1 11  1  0  0  0  0
  2 22  1  0  0  0  0
  2  4  1  0  0  0  0
  3  9  2  0  0  0  0
  3 14  1  0  0  0  0
  5 11  1  0  0  0  0
  5 14  2  0  0  0  0
  6  4  1  0  0  0  0
  6 10  2  0  0  0  0
  7 10  1  0  0  0  0
  7 18  1  0  0  0  0
  8  7  2  0  0  0  0
  9  8  1  0  0  0  0
 11  2  2  0  0  0  0
 12  5  1  0  0  0  0
 13  1  2  0  0  0  0
 14  6  1  0  0  0  0
 15 13  1  0  0  0  0
 15 12  2  0  0  0  0
 16 17  3  0  0  0  0
 17 15  1  0  0  0  0
 18 19  1  0  0  0  0
 19 20  1  0  0  0  0
 20 21  1  0  0  0  0
 22 23  1  0  0  0  0
 23 26  1  0  0  0  0
 26 25  2  0  0  0  0
 26 24  1  0  0  0  0
M  END
>  <MODEL>
8

>  <REMARK>
 VINA RESULT:      -7.5      3.414      5.806
  Name = 
  7 active torsions:
  status: ('A' for Active; 'I' for Inactive)
    1  A    between atoms: C_1  and  C_11
    2  A    between atoms: C_1  and  C_13
    3  A    between atoms: C_3  and  C_17
    4  A    between atoms: C_3  and  C_24
    5  A    between atoms: C_5  and  C_26
    6  A    between atoms: C_6  and  C_17
    7  A    between atoms: N_9  and  C_11
                            x       y       z     vdW  Elec       q    Type
                         _______ _______ _______ _____ _____    ______ ____

>  <TORSDO>
F 7

$$$$
=
 OpenBabel11042412283D

 26 28  0  0  0  0  0  0  0  0999 V2000
  188.9720  176.7920  144.2360 C   0  0  0  0  0  3  0  0  0  0  0  0
  186.9280  177.6130  145.3210 C   0  0  0  0  0  0  0  0  0  0  0  0
  185.5670  178.7870  141.2510 C   0  0  0  0  0  3  0  0  0  0  0  0
  185.6300  177.9810  145.2200 N   0  0  0  0  0  2  0  0  0  0  0  0
  187.2570  177.6690  142.8510 C   0  0  0  0  0  0  0  0  0  0  0  0
  185.0640  178.4240  143.9570 C   0  0  0  0  0  0  0  0  0  0  0  0
  182.7970  178.9570  142.7840 C   0  0  0  0  0  0  0  0  0  0  0  0
  183.0350  178.8940  141.4610 C   0  0  0  0  0  3  0  0  0  0  0  0
  184.3450  178.9770  140.7220 C   0  0  0  0  0  3  0  0  0  0  0  0
  183.7330  178.6000  143.9390 C   0  0  0  0  0  3  0  0  0  0  0  0
  187.6600  177.2720  144.1030 C   0  0  0  0  0  0  0  0  0  0  0  0
  188.1210  177.6380  141.8110 N   0  0  0  0  0  0  0  0  0  0  0  0
  189.8600  176.6900  143.1360 C   0  0  0  0  0  3  0  0  0  0  0  0
  185.8270  178.1550  142.6450 C   0  0  0  0  0  0  0  0  0  0  0  0
  189.3890  177.1390  141.8940 C   0  0  0  0  0  0  0  0  0  0  0  0
  190.8010  177.1590  139.6710 N   0  0  0  0  0  0  0  0  0  0  0  0
  190.1600  177.1510  140.6900 C   0  0  0  0  0  0  0  0  0  0  0  0
  181.3850  178.9480  143.3760 C   0  0  0  0  0  2  0  0  0  0  0  0
  180.1990  179.1270  142.4430 C   0  0  0  0  0  2  0  0  0  0  0  0
  179.4800  177.8320  142.4500 N   0  0  0  0  0  2  0  0  0  0  0  0
  179.4920  177.2750  141.0880 C   0  0  0  0  0  1  0  0  0  0  0  0
  187.4150  176.9870  146.5850 C   0  0  0  0  0  2  0  0  0  0  0  0
  187.8940  178.0750  147.5390 C   0  0  0  0  0  2  0  0  0  0  0  0
  190.2300  176.9960  147.5480 O   0  0  0  0  0  0  0  0  0  0  0  0
  189.7340  178.5660  149.1870 O   0  0  0  0  0  1  0  0  0  0  0  0
  189.3260  177.9560  148.1400 C   0  0  0  0  0  0  0  0  0  0  0  0
  2 22  1  0  0  0  0
  3 14  1  0  0  0  0
  4  2  1  0  0  0  0
  5 11  1  0  0  0  0
  6  4  1  0  0  0  0
  7 18  1  0  0  0  0
  7 10  1  0  0  0  0
  8  7  2  0  0  0  0
  9  3  2  0  0  0  0
  9  8  1  0  0  0  0
 10  6  2  0  0  0  0
 11  1  1  0  0  0  0
 11  2  2  0  0  0  0
 12 15  2  0  0  0  0
 12  5  1  0  0  0  0
 13  1  2  0  0  0  0
 14  5  2  0  0  0  0
 14  6  1  0  0  0  0
 15 13  1  0  0  0  0
 16 17  3  0  0  0  0
 17 15  1  0  0  0  0
 19 20  1  0  0  0  0
 19 18  1  0  0  0  0
 21 20  1  0  0  0  0
 22 23  1  0  0  0  0
 23 26  1  0  0  0  0
 24 26  2  0  0  0  0
 26 25  1  0  0  0  0
M  END
>  <MODEL>
9

>  <REMARK>
 VINA RESULT:      -7.4      3.507      5.325
  Name = 
  7 active torsions:
  status: ('A' for Active; 'I' for Inactive)
    1  A    between atoms: C_1  and  C_11
    2  A    between atoms: C_1  and  C_13
    3  A    between atoms: C_3  and  C_17
    4  A    between atoms: C_3  and  C_24
    5  A    between atoms: C_5  and  C_26
    6  A    between atoms: C_6  and  C_17
    7  A    between atoms: N_9  and  C_11
                            x       y       z     vdW  Elec       q    Type
                         _______ _______ _______ _____ _____    ______ ____

>  <TORSDO>
F 7

$$$$
