=
 OpenBabel11042411053D

 39 42  0  0  1  0  0  0  0  0999 V2000
  190.6810  175.6540  138.8180 C   0  0  0  0  0  3  0  0  0  0  0  0
  190.7290  176.9610  139.1030 C   0  0  0  0  0  0  0  0  0  0  0  0
  189.7050  173.5210  135.9140 C   0  0  0  0  0  2  0  0  0  0  0  0
  190.1070  175.0910  137.6300 N   0  0  0  0  0  0  0  0  0  0  0  0
  188.4440  174.3530  136.1150 C   0  0  2  0  0  3  0  0  0  0  0  0
  188.8360  175.4800  137.0480 C   0  0  0  0  0  2  0  0  0  0  0  0
  190.6340  173.8690  137.0620 C   0  0  0  0  0  2  0  0  0  0  0  0
  187.4300  173.5360  136.7620 N   0  0  0  0  0  2  0  0  0  0  0  0
  184.1870  175.1710  136.1030 C   0  0  1  0  0  3  0  0  0  0  0  0
  183.3740  173.5440  136.0750 S   0  0  0  0  0  0  0  0  0  0  0  0
  183.7300  175.9620  137.3150 C   0  0  0  0  0  1  0  0  0  0  0  0
  185.6220  174.9500  136.1610 N   0  0  0  0  0  0  0  0  0  0  0  0
  186.0410  173.8630  136.7200 C   0  0  0  0  0  0  0  0  0  0  0  0
  184.8320  172.7560  137.4190 S   0  0  0  0  0  0  0  0  0  0  0  0
  191.2640  177.3700  140.4210 C   0  0  0  0  0  0  0  0  0  0  0  0
  192.5350  177.5250  140.6350 N   0  0  0  0  0  0  0  0  0  0  0  0
  193.4990  177.2940  139.6440 N   0  0  0  0  0  1  0  0  0  0  0  0
  190.3200  177.5630  141.5610 C   0  0  0  0  0  2  0  0  0  0  0  0
  190.4530  176.4110  142.5440 C   0  0  0  0  0  2  0  0  0  0  0  0
  191.1610  176.8520  143.7360 N   0  0  0  0  0  2  0  0  0  0  0  0
  191.9310  179.0220  144.2010 O   0  0  0  0  0  1  0  0  0  0  0  0
  190.7910  178.2430  143.9720 C   0  0  2  0  0  3  0  0  0  0  0  0
  189.8650  178.3430  145.0950 N   0  0  0  0  0  2  0  0  0  0  0  0
  190.0960  177.2610  145.9680 N   0  0  0  0  0  0  0  0  0  0  0  0
  188.8810  176.8450  146.6640 C   0  0  1  0  0  3  0  0  0  0  0  0
  189.7640  177.7120  147.2360 O   0  0  0  0  0  0  0  0  0  0  0  0
  185.4220  178.0850  142.8600 S   0  0  0  0  0  1  0  0  0  0  0  0
  186.9160  178.3250  147.1840 C   0  0  0  0  0  3  0  0  0  0  0  0
  187.1630  177.4930  144.9220 C   0  0  0  0  0  3  0  0  0  0  0  0
  187.6160  177.5530  146.2480 C   0  0  0  0  0  0  0  0  0  0  0  0
  186.0030  178.1780  144.5450 C   0  0  0  0  0  0  0  0  0  0  0  0
  185.7570  179.0090  146.8060 C   0  0  0  0  0  3  0  0  0  0  0  0
  185.3000  178.9330  145.4870 C   0  0  0  0  0  3  0  0  0  0  0  0
  190.2280  177.9340  138.1740 N   0  0  0  0  0  2  0  0  0  0  0  0
  188.1290  178.0110  139.1690 F   0  0  0  0  0  0  0  0  0  0  0  0
  189.0210  178.7200  138.3830 C   0  0  2  0  0  3  0  0  0  0  0  0
  189.1870  178.6030  136.0030 F   0  0  0  0  0  0  0  0  0  0  0  0
  188.3860  179.0480  137.0430 C   0  0  0  0  0  3  0  0  0  0  0  0
  187.1390  178.4570  136.9540 F   0  0  0  0  0  0  0  0  0  0  0  0
  1  2  2  0  0  0  0
  2 15  1  0  0  0  0
  3  5  1  0  0  0  0
  3  7  1  0  0  0  0
  4  1  1  0  0  0  0
  5  8  1  1  0  0  0
  5  6  1  0  0  0  0
  6  4  1  0  0  0  0
  7  4  1  0  0  0  0
  9 12  1  0  0  0  0
  9 11  1  1  0  0  0
 10  9  1  0  0  0  0
 10 14  1  0  0  0  0
 12 13  2  0  0  0  0
 13  8  1  0  0  0  0
 13 14  1  0  0  0  0
 15 16  2  0  0  0  0
 15 18  1  0  0  0  0
 17 16  1  0  0  0  0
 18 19  1  0  0  0  0
 19 20  1  0  0  0  0
 20 22  1  0  0  0  0
 22 21  1  1  0  0  0
 22 23  1  0  0  0  0
 23 24  1  0  0  0  0
 24 25  1  0  0  0  0
 24 26  1  0  0  0  0
 25 30  1  6  0  0  0
 25 26  1  0  0  0  0
 27 31  1  0  0  0  0
 29 30  1  0  0  0  0
 30 28  2  0  0  0  0
 31 29  2  0  0  0  0
 31 33  1  0  0  0  0
 32 28  1  0  0  0  0
 33 32  2  0  0  0  0
 34 36  1  0  0  0  0
 34  2  1  0  0  0  0
 36 35  1  1  0  0  0
 37 38  1  0  0  0  0
 38 36  1  0  0  0  0
 39 38  1  0  0  0  0
M  END
>  <MODEL>
1

>  <REMARK>
 VINA RESULT:      -7.5      0.000      0.000
  Name = 
  13 active torsions:
  status: ('A' for Active; 'I' for Inactive)
    1  A    between atoms: C_3  and  N_8
    2  A    between atoms: N_6  and  C_17
    3  A    between atoms: C_11  and  C_13
    4  A    between atoms: C_11  and  C_33
    5  A    between atoms: C_13  and  C_21
    6  A    between atoms: C_16  and  C_30
    7  A    between atoms: N_18  and  C_21
    8  A    between atoms: N_18  and  C_31
    9  A    between atoms: C_20  and  C_36
   10  A    between atoms: N_24  and  N_28
   11  A    between atoms: N_28  and  C_31
   12  A    between atoms: C_33  and  N_34
   13  A    between atoms: N_34  and  C_36
                            x       y       z     vdW  Elec       q    Type
                         _______ _______ _______ _____ _____    ______ ____

>  <TORSDO>
F 13

$$$$
=
 OpenBabel11042411053D

 39 42  0  0  1  0  0  0  0  0999 V2000
  187.8770  177.4290  144.2950 C   0  0  0  0  0  3  0  0  0  0  0  0
  188.0690  177.6740  145.5970 C   0  0  0  0  0  0  0  0  0  0  0  0
  190.4390  176.1660  141.8920 C   0  0  0  0  0  2  0  0  0  0  0  0
  188.9220  177.2670  143.3250 N   0  0  0  0  0  0  0  0  0  0  0  0
  190.1120  177.5300  141.2950 C   0  0  2  0  0  3  0  0  0  0  0  0
  189.3320  178.2710  142.3610 C   0  0  0  0  0  2  0  0  0  0  0  0
  189.4720  175.9600  143.0420 C   0  0  0  0  0  2  0  0  0  0  0  0
  189.2620  177.3500  140.1290 N   0  0  0  0  0  2  0  0  0  0  0  0
  191.1850  175.3010  137.7350 C   0  0  1  0  0  3  0  0  0  0  0  0
  189.6400  174.5410  137.1470 S   0  0  0  0  0  0  0  0  0  0  0  0
  191.7860  176.1720  136.6470 C   0  0  0  0  0  1  0  0  0  0  0  0
  190.8680  176.1050  138.9030 N   0  0  0  0  0  0  0  0  0  0  0  0
  189.6770  176.6030  138.9860 C   0  0  0  0  0  0  0  0  0  0  0  0
  188.5460  176.3050  137.6410 S   0  0  0  0  0  0  0  0  0  0  0  0
  186.8800  177.9160  146.4450 C   0  0  0  0  0  0  0  0  0  0  0  0
  186.9730  178.3890  147.6500 N   0  0  0  0  0  0  0  0  0  0  0  0
  188.2050  178.6840  148.2500 N   0  0  0  0  0  1  0  0  0  0  0  0
  185.5290  177.5580  145.9220 C   0  0  0  0  0  2  0  0  0  0  0  0
  184.6180  178.7760  145.9640 C   0  0  0  0  0  2  0  0  0  0  0  0
  184.8310  179.5980  144.7820 N   0  0  0  0  0  2  0  0  0  0  0  0
  182.5990  178.8720  144.6920 O   0  0  0  0  0  1  0  0  0  0  0  0
  183.6010  179.5630  144.0000 C   0  0  2  0  0  3  0  0  0  0  0  0
  183.8410  178.9520  142.6960 N   0  0  0  0  0  2  0  0  0  0  0  0
  185.1650  179.2300  142.3050 N   0  0  0  0  0  0  0  0  0  0  0  0
  185.3540  179.0950  140.8620 C   0  0  1  0  0  3  0  0  0  0  0  0
  185.6430  178.0710  141.7140 O   0  0  0  0  0  0  0  0  0  0  0  0
  181.5500  175.6880  139.4830 S   0  0  0  0  0  1  0  0  0  0  0  0
  183.5930  179.7800  139.2030 C   0  0  0  0  0  3  0  0  0  0  0  0
  183.4860  177.5480  140.1390 C   0  0  0  0  0  3  0  0  0  0  0  0
  184.1060  178.8040  140.0660 C   0  0  0  0  0  0  0  0  0  0  0  0
  182.3450  177.2830  139.3750 C   0  0  0  0  0  0  0  0  0  0  0  0
  182.4540  179.5130  138.4380 C   0  0  0  0  0  3  0  0  0  0  0  0
  181.8290  178.2660  138.5260 C   0  0  0  0  0  3  0  0  0  0  0  0
  189.3940  177.7490  146.1420 N   0  0  0  0  0  2  0  0  0  0  0  0
  190.3990  176.6300  147.9140 F   0  0  0  0  0  0  0  0  0  0  0  0
  190.1790  176.5920  146.5480 C   0  0  2  0  0  3  0  0  0  0  0  0
  191.7430  177.8270  145.2310 F   0  0  0  0  0  0  0  0  0  0  0  0
  191.5050  176.5900  145.8080 C   0  0  0  0  0  3  0  0  0  0  0  0
  192.5330  176.2800  146.6810 F   0  0  0  0  0  0  0  0  0  0  0  0
  1  2  2  0  0  0  0
  2 34  1  0  0  0  0
  2 15  1  0  0  0  0
  3  7  1  0  0  0  0
  4  1  1  0  0  0  0
  5  8  1  6  0  0  0
  5  3  1  0  0  0  0
  5  6  1  0  0  0  0
  6  4  1  0  0  0  0
  7  4  1  0  0  0  0
  9 11  1  6  0  0  0
  9 12  1  0  0  0  0
 10 14  1  0  0  0  0
 10  9  1  0  0  0  0
 12 13  2  0  0  0  0
 13  8  1  0  0  0  0
 14 13  1  0  0  0  0
 15 16  2  0  0  0  0
 16 17  1  0  0  0  0
 18 19  1  0  0  0  0
 18 15  1  0  0  0  0
 20 19  1  0  0  0  0
 22 21  1  1  0  0  0
 22 20  1  0  0  0  0
 23 22  1  0  0  0  0
 24 23  1  0  0  0  0
 25 30  1  6  0  0  0
 25 26  1  0  0  0  0
 25 24  1  0  0  0  0
 26 24  1  0  0  0  0
 28 30  1  0  0  0  0
 30 29  2  0  0  0  0
 31 27  1  0  0  0  0
 31 29  1  0  0  0  0
 32 33  1  0  0  0  0
 32 28  2  0  0  0  0
 33 31  2  0  0  0  0
 34 36  1  0  0  0  0
 36 35  1  1  0  0  0
 37 38  1  0  0  0  0
 38 36  1  0  0  0  0
 38 39  1  0  0  0  0
M  END
>  <MODEL>
2

>  <REMARK>
 VINA RESULT:      -7.3      4.097      7.488
  Name = 
  13 active torsions:
  status: ('A' for Active; 'I' for Inactive)
    1  A    between atoms: C_3  and  N_8
    2  A    between atoms: N_6  and  C_17
    3  A    between atoms: C_11  and  C_13
    4  A    between atoms: C_11  and  C_33
    5  A    between atoms: C_13  and  C_21
    6  A    between atoms: C_16  and  C_30
    7  A    between atoms: N_18  and  C_21
    8  A    between atoms: N_18  and  C_31
    9  A    between atoms: C_20  and  C_36
   10  A    between atoms: N_24  and  N_28
   11  A    between atoms: N_28  and  C_31
   12  A    between atoms: C_33  and  N_34
   13  A    between atoms: N_34  and  C_36
                            x       y       z     vdW  Elec       q    Type
                         _______ _______ _______ _____ _____    ______ ____

>  <TORSDO>
F 13

$$$$
=
 OpenBabel11042411053D

 39 42  0  0  1  0  0  0  0  0999 V2000
  186.0850  178.0070  137.8810 C   0  0  0  0  0  3  0  0  0  0  0  0
  187.2580  177.4550  138.2150 C   0  0  0  0  0  0  0  0  0  0  0  0
  184.1160  176.4450  135.1210 C   0  0  0  0  0  2  0  0  0  0  0  0
  185.0910  177.3880  137.0520 N   0  0  0  0  0  0  0  0  0  0  0  0
  183.4720  175.8100  136.3480 C   0  0  2  0  0  3  0  0  0  0  0  0
  183.9620  176.6140  137.5350 C   0  0  0  0  0  2  0  0  0  0  0  0
  185.2980  177.2500  135.6270 C   0  0  0  0  0  2  0  0  0  0  0  0
  183.9410  174.4400  136.4800 N   0  0  0  0  0  2  0  0  0  0  0  0
  180.9630  172.2780  136.1980 C   0  0  1  0  0  3  0  0  0  0  0  0
  181.9750  170.9900  135.4070 S   0  0  0  0  0  0  0  0  0  0  0  0
  180.5060  171.8150  137.5690 C   0  0  0  0  0  1  0  0  0  0  0  0
  181.7800  173.4730  136.3200 N   0  0  0  0  0  0  0  0  0  0  0  0
  183.0600  173.3190  136.4220 C   0  0  0  0  0  0  0  0  0  0  0  0
  183.7060  171.6590  136.4580 S   0  0  0  0  0  0  0  0  0  0  0  0
  188.2160  178.2700  138.9960 C   0  0  0  0  0  0  0  0  0  0  0  0
  189.0620  179.0760  138.4300 N   0  0  0  0  0  0  0  0  0  0  0  0
  189.1520  179.2180  137.0390 N   0  0  0  0  0  1  0  0  0  0  0  0
  188.2490  178.1290  140.4810 C   0  0  0  0  0  2  0  0  0  0  0  0
  189.6110  177.6130  140.9220 C   0  0  0  0  0  2  0  0  0  0  0  0
  189.5510  177.1740  142.3080 N   0  0  0  0  0  2  0  0  0  0  0  0
  191.5610  177.8540  143.3160 O   0  0  0  0  0  1  0  0  0  0  0  0
  190.2180  178.1910  143.1150 C   0  0  2  0  0  3  0  0  0  0  0  0
  189.5330  178.3610  144.3920 N   0  0  0  0  0  2  0  0  0  0  0  0
  189.8280  177.2550  145.2130 N   0  0  0  0  0  0  0  0  0  0  0  0
  188.6860  176.8550  146.0330 C   0  0  1  0  0  3  0  0  0  0  0  0
  189.6520  177.6860  146.5190 O   0  0  0  0  0  0  0  0  0  0  0  0
  184.8030  178.1770  142.6940 S   0  0  0  0  0  1  0  0  0  0  0  0
  186.8620  178.4150  146.7800 C   0  0  0  0  0  3  0  0  0  0  0  0
  186.7780  177.5460  144.5200 C   0  0  0  0  0  3  0  0  0  0  0  0
  187.4040  177.6060  145.7740 C   0  0  0  0  0  0  0  0  0  0  0  0
  185.6040  178.2690  144.2860 C   0  0  0  0  0  0  0  0  0  0  0  0
  185.6880  179.1380  146.5450 C   0  0  0  0  0  3  0  0  0  0  0  0
  185.0590  179.0630  145.2990 C   0  0  0  0  0  3  0  0  0  0  0  0
  187.5950  176.1290  137.7830 N   0  0  0  0  0  2  0  0  0  0  0  0
  187.7100  174.7960  135.8830 F   0  0  0  0  0  0  0  0  0  0  0  0
  188.3320  175.8270  136.5650 C   0  0  2  0  0  3  0  0  0  0  0  0
  190.6620  176.2180  136.2120 F   0  0  0  0  0  0  0  0  0  0  0  0
  189.7580  175.4360  136.9130 C   0  0  0  0  0  3  0  0  0  0  0  0
  189.9700  175.5860  138.2710 F   0  0  0  0  0  0  0  0  0  0  0  0
  1  2  2  0  0  0  0
  2 15  1  0  0  0  0
  3  7  1  0  0  0  0
  3  5  1  0  0  0  0
  4  6  1  0  0  0  0
  4  1  1  0  0  0  0
  5  8  1  1  0  0  0
  5  6  1  0  0  0  0
  7  4  1  0  0  0  0
  9 12  1  0  0  0  0
  9 11  1  1  0  0  0
 10  9  1  0  0  0  0
 10 14  1  0  0  0  0
 12 13  2  0  0  0  0
 13 14  1  0  0  0  0
 13  8  1  0  0  0  0
 15 18  1  0  0  0  0
 16 15  2  0  0  0  0
 17 16  1  0  0  0  0
 18 19  1  0  0  0  0
 19 20  1  0  0  0  0
 20 22  1  0  0  0  0
 22 21  1  1  0  0  0
 22 23  1  0  0  0  0
 23 24  1  0  0  0  0
 24 25  1  0  0  0  0
 24 26  1  0  0  0  0
 25 30  1  6  0  0  0
 25 26  1  0  0  0  0
 27 31  1  0  0  0  0
 29 30  1  0  0  0  0
 30 28  2  0  0  0  0
 31 29  2  0  0  0  0
 31 33  1  0  0  0  0
 32 28  1  0  0  0  0
 33 32  2  0  0  0  0
 34  2  1  0  0  0  0
 36 35  1  1  0  0  0
 36 38  1  0  0  0  0
 36 34  1  0  0  0  0
 37 38  1  0  0  0  0
 38 39  1  0  0  0  0
M  END
>  <MODEL>
3

>  <REMARK>
 VINA RESULT:      -7.3      2.147      3.479
  Name = 
  13 active torsions:
  status: ('A' for Active; 'I' for Inactive)
    1  A    between atoms: C_3  and  N_8
    2  A    between atoms: N_6  and  C_17
    3  A    between atoms: C_11  and  C_13
    4  A    between atoms: C_11  and  C_33
    5  A    between atoms: C_13  and  C_21
    6  A    between atoms: C_16  and  C_30
    7  A    between atoms: N_18  and  C_21
    8  A    between atoms: N_18  and  C_31
    9  A    between atoms: C_20  and  C_36
   10  A    between atoms: N_24  and  N_28
   11  A    between atoms: N_28  and  C_31
   12  A    between atoms: C_33  and  N_34
   13  A    between atoms: N_34  and  C_36
                            x       y       z     vdW  Elec       q    Type
                         _______ _______ _______ _____ _____    ______ ____

>  <TORSDO>
F 13

$$$$
=
 OpenBabel11042411053D

 39 42  0  0  1  0  0  0  0  0999 V2000
  182.6440  177.4700  139.6630 C   0  0  0  0  0  3  0  0  0  0  0  0
  182.7940  178.3790  140.6360 C   0  0  0  0  0  0  0  0  0  0  0  0
  179.2780  176.8690  138.1660 C   0  0  0  0  0  2  0  0  0  0  0  0
  181.3870  176.9380  139.2220 N   0  0  0  0  0  0  0  0  0  0  0  0
  179.8570  175.4600  138.1810 C   0  0  2  0  0  3  0  0  0  0  0  0
  181.0840  175.5270  139.0680 C   0  0  0  0  0  2  0  0  0  0  0  0
  180.3930  177.7950  138.6140 C   0  0  0  0  0  2  0  0  0  0  0  0
  180.2680  175.0970  136.8350 N   0  0  0  0  0  2  0  0  0  0  0  0
  181.3150  171.5600  136.9750 C   0  0  1  0  0  3  0  0  0  0  0  0
  180.7200  171.3180  135.2720 S   0  0  0  0  0  0  0  0  0  0  0  0
  182.8280  171.4510  137.0190 C   0  0  0  0  0  1  0  0  0  0  0  0
  180.8950  172.8810  137.4090 N   0  0  0  0  0  0  0  0  0  0  0  0
  180.7410  173.7910  136.5030 C   0  0  0  0  0  0  0  0  0  0  0  0
  181.1060  173.3650  134.8120 S   0  0  0  0  0  0  0  0  0  0  0  0
  184.1690  178.7490  141.0400 C   0  0  0  0  0  0  0  0  0  0  0  0
  184.9010  179.5620  140.3420 N   0  0  0  0  0  0  0  0  0  0  0  0
  184.4580  180.1320  139.1410 N   0  0  0  0  0  1  0  0  0  0  0  0
  184.7580  178.1300  142.2630 C   0  0  0  0  0  2  0  0  0  0  0  0
  186.1480  178.6960  142.5120 C   0  0  0  0  0  2  0  0  0  0  0  0
  187.1520  177.6700  142.2760 N   0  0  0  0  0  2  0  0  0  0  0  0
  189.2760  177.7820  141.2790 O   0  0  0  0  0  1  0  0  0  0  0  0
  188.4540  178.3280  142.2710 C   0  0  2  0  0  3  0  0  0  0  0  0
  189.0870  178.2200  143.5820 N   0  0  0  0  0  2  0  0  0  0  0  0
  189.8730  177.0510  143.6090 N   0  0  0  0  0  0  0  0  0  0  0  0
  189.9410  176.4630  144.9440 C   0  0  1  0  0  3  0  0  0  0  0  0
  190.9110  177.3060  144.4910 O   0  0  0  0  0  0  0  0  0  0  0  0
  185.2360  178.3740  146.4230 S   0  0  0  0  0  1  0  0  0  0  0  0
  189.6720  177.5340  147.2030 C   0  0  0  0  0  3  0  0  0  0  0  0
  187.7340  177.4020  145.7550 C   0  0  0  0  0  3  0  0  0  0  0  0
  189.0890  177.1310  145.9950 C   0  0  0  0  0  0  0  0  0  0  0  0
  186.9640  178.0460  146.7280 C   0  0  0  0  0  0  0  0  0  0  0  0
  188.9010  178.1800  148.1750 C   0  0  0  0  0  3  0  0  0  0  0  0
  187.5470  178.4330  147.9380 C   0  0  0  0  0  3  0  0  0  0  0  0
  181.6520  178.9390  141.2990 N   0  0  0  0  0  2  0  0  0  0  0  0
  179.5120  178.2290  141.8650 F   0  0  0  0  0  0  0  0  0  0  0  0
  180.8360  178.2230  142.2700 C   0  0  2  0  0  3  0  0  0  0  0  0
  179.9400  178.4730  144.4690 F   0  0  0  0  0  0  0  0  0  0  0  0
  180.9660  178.8810  143.6320 C   0  0  0  0  0  3  0  0  0  0  0  0
  182.1850  178.5550  144.1990 F   0  0  0  0  0  0  0  0  0  0  0  0
  1  2  2  0  0  0  0
  2 15  1  0  0  0  0
  2 34  1  0  0  0  0
  3  5  1  0  0  0  0
  3  7  1  0  0  0  0
  4  1  1  0  0  0  0
  5  8  1  6  0  0  0
  5  6  1  0  0  0  0
  6  4  1  0  0  0  0
  7  4  1  0  0  0  0
  9 11  1  6  0  0  0
  9 12  1  0  0  0  0
 10  9  1  0  0  0  0
 13  8  1  0  0  0  0
 13 12  2  0  0  0  0
 14 10  1  0  0  0  0
 14 13  1  0  0  0  0
 15 18  1  0  0  0  0
 16 15  2  0  0  0  0
 17 16  1  0  0  0  0
 18 19  1  0  0  0  0
 20 19  1  0  0  0  0
 22 21  1  6  0  0  0
 22 20  1  0  0  0  0
 22 23  1  0  0  0  0
 23 24  1  0  0  0  0
 24 26  1  0  0  0  0
 24 25  1  0  0  0  0
 25 30  1  1  0  0  0
 26 25  1  0  0  0  0
 27 31  1  0  0  0  0
 28 32  1  0  0  0  0
 29 30  1  0  0  0  0
 29 31  2  0  0  0  0
 30 28  2  0  0  0  0
 31 33  1  0  0  0  0
 33 32  2  0  0  0  0
 34 36  1  0  0  0  0
 36 35  1  6  0  0  0
 36 38  1  0  0  0  0
 38 39  1  0  0  0  0
 38 37  1  0  0  0  0
M  END
>  <MODEL>
4

>  <REMARK>
 VINA RESULT:      -7.0      4.654      6.714
  Name = 
  13 active torsions:
  status: ('A' for Active; 'I' for Inactive)
    1  A    between atoms: C_3  and  N_8
    2  A    between atoms: N_6  and  C_17
    3  A    between atoms: C_11  and  C_13
    4  A    between atoms: C_11  and  C_33
    5  A    between atoms: C_13  and  C_21
    6  A    between atoms: C_16  and  C_30
    7  A    between atoms: N_18  and  C_21
    8  A    between atoms: N_18  and  C_31
    9  A    between atoms: C_20  and  C_36
   10  A    between atoms: N_24  and  N_28
   11  A    between atoms: N_28  and  C_31
   12  A    between atoms: C_33  and  N_34
   13  A    between atoms: N_34  and  C_36
                            x       y       z     vdW  Elec       q    Type
                         _______ _______ _______ _____ _____    ______ ____

>  <TORSDO>
F 13

$$$$
=
 OpenBabel11042411053D

 39 42  0  0  1  0  0  0  0  0999 V2000
  186.5960  177.8420  143.1500 C   0  0  0  0  0  3  0  0  0  0  0  0
  186.3090  178.2130  144.4040 C   0  0  0  0  0  0  0  0  0  0  0  0
  189.8090  176.2820  142.0660 C   0  0  0  0  0  2  0  0  0  0  0  0
  187.9130  177.5560  142.6580 N   0  0  0  0  0  0  0  0  0  0  0  0
  189.7550  177.5150  141.1720 C   0  0  2  0  0  3  0  0  0  0  0  0
  188.6690  178.3980  141.7500 C   0  0  0  0  0  2  0  0  0  0  0  0
  188.4890  176.2380  142.8130 C   0  0  0  0  0  2  0  0  0  0  0  0
  189.3720  177.1150  139.8280 N   0  0  0  0  0  2  0  0  0  0  0  0
  192.3800  175.6470  138.2720 C   0  0  1  0  0  3  0  0  0  0  0  0
  191.3300  174.5040  137.3230 S   0  0  0  0  0  0  0  0  0  0  0  0
  193.0430  176.6440  137.3400 C   0  0  0  0  0  1  0  0  0  0  0  0
  191.5330  176.3390  139.2270 N   0  0  0  0  0  0  0  0  0  0  0  0
  190.2880  176.5030  138.9190 C   0  0  0  0  0  0  0  0  0  0  0  0
  189.7310  175.9150  137.3320 S   0  0  0  0  0  0  0  0  0  0  0  0
  184.9080  178.5710  144.7230 C   0  0  0  0  0  0  0  0  0  0  0  0
  184.5660  179.0770  145.8690 N   0  0  0  0  0  0  0  0  0  0  0  0
  185.4890  179.3000  146.9000 N   0  0  0  0  0  1  0  0  0  0  0  0
  183.8410  178.2970  143.7170 C   0  0  0  0  0  2  0  0  0  0  0  0
  182.6860  179.2690  143.9090 C   0  0  0  0  0  2  0  0  0  0  0  0
  181.4590  178.5360  144.1840 N   0  0  0  0  0  2  0  0  0  0  0  0
  179.3150  178.2450  143.2700 O   0  0  0  0  0  1  0  0  0  0  0  0
  180.4130  179.1100  143.3450 C   0  0  2  0  0  3  0  0  0  0  0  0
  180.9290  179.4050  142.0130 N   0  0  0  0  0  2  0  0  0  0  0  0
  179.8690  179.8750  141.2120 N   0  0  0  0  0  0  0  0  0  0  0  0
  179.8850  179.2880  139.8750 C   0  0  1  0  0  3  0  0  0  0  0  0
  180.4560  180.5000  140.1240 O   0  0  0  0  0  0  0  0  0  0  0  0
  184.7580  178.0220  138.2550 S   0  0  0  0  0  1  0  0  0  0  0  0
  180.6280  176.8860  139.8820 C   0  0  0  0  0  3  0  0  0  0  0  0
  182.1950  178.5730  139.1290 C   0  0  0  0  0  3  0  0  0  0  0  0
  180.9350  178.2310  139.6390 C   0  0  0  0  0  0  0  0  0  0  0  0
  183.1500  177.5800  138.8900 C   0  0  0  0  0  0  0  0  0  0  0  0
  181.5830  175.8930  139.6420 C   0  0  0  0  0  3  0  0  0  0  0  0
  182.8440  176.2400  139.1490 C   0  0  0  0  0  3  0  0  0  0  0  0
  187.3410  178.3090  145.3960 N   0  0  0  0  0  2  0  0  0  0  0  0
  187.5560  177.1570  147.4030 F   0  0  0  0  0  0  0  0  0  0  0  0
  187.9350  177.1650  146.0720 C   0  0  2  0  0  3  0  0  0  0  0  0
  189.8410  178.4520  145.4250 F   0  0  0  0  0  0  0  0  0  0  0  0
  189.4480  177.2360  145.9640 C   0  0  0  0  0  3  0  0  0  0  0  0
  190.0200  177.0770  147.2130 F   0  0  0  0  0  0  0  0  0  0  0  0
  1  2  2  0  0  0  0
  2 15  1  0  0  0  0
  2 34  1  0  0  0  0
  3  7  1  0  0  0  0
  4  7  1  0  0  0  0
  4  1  1  0  0  0  0
  5  8  1  6  0  0  0
  5  6  1  0  0  0  0
  5  3  1  0  0  0  0
  6  4  1  0  0  0  0
  9 11  1  6  0  0  0
  9 12  1  0  0  0  0
 10 14  1  0  0  0  0
 10  9  1  0  0  0  0
 13 12  2  0  0  0  0
 13  8  1  0  0  0  0
 14 13  1  0  0  0  0
 15 16  2  0  0  0  0
 16 17  1  0  0  0  0
 18 19  1  0  0  0  0
 18 15  1  0  0  0  0
 19 20  1  0  0  0  0
 22 21  1  6  0  0  0
 22 20  1  0  0  0  0
 23 22  1  0  0  0  0
 24 23  1  0  0  0  0
 25 30  1  1  0  0  0
 25 26  1  0  0  0  0
 25 24  1  0  0  0  0
 26 24  1  0  0  0  0
 27 31  1  0  0  0  0
 29 30  1  0  0  0  0
 30 28  2  0  0  0  0
 31 29  2  0  0  0  0
 31 33  1  0  0  0  0
 32 28  1  0  0  0  0
 33 32  2  0  0  0  0
 34 36  1  0  0  0  0
 36 35  1  1  0  0  0
 37 38  1  0  0  0  0
 38 36  1  0  0  0  0
 38 39  1  0  0  0  0
M  END
>  <MODEL>
5

>  <REMARK>
 VINA RESULT:      -6.9      5.135      8.507
  Name = 
  13 active torsions:
  status: ('A' for Active; 'I' for Inactive)
    1  A    between atoms: C_3  and  N_8
    2  A    between atoms: N_6  and  C_17
    3  A    between atoms: C_11  and  C_13
    4  A    between atoms: C_11  and  C_33
    5  A    between atoms: C_13  and  C_21
    6  A    between atoms: C_16  and  C_30
    7  A    between atoms: N_18  and  C_21
    8  A    between atoms: N_18  and  C_31
    9  A    between atoms: C_20  and  C_36
   10  A    between atoms: N_24  and  N_28
   11  A    between atoms: N_28  and  C_31
   12  A    between atoms: C_33  and  N_34
   13  A    between atoms: N_34  and  C_36
                            x       y       z     vdW  Elec       q    Type
                         _______ _______ _______ _____ _____    ______ ____

>  <TORSDO>
F 13

$$$$
=
 OpenBabel11042411053D

 39 42  0  0  1  0  0  0  0  0999 V2000
  187.6140  174.8160  136.5400 C   0  0  0  0  0  3  0  0  0  0  0  0
  187.8220  175.9840  137.1600 C   0  0  0  0  0  0  0  0  0  0  0  0
  184.7010  172.6230  137.3410 C   0  0  0  0  0  2  0  0  0  0  0  0
  186.3800  174.0840  136.5560 N   0  0  0  0  0  0  0  0  0  0  0  0
  184.0490  173.6820  136.4600 C   0  0  2  0  0  3  0  0  0  0  0  0
  185.1890  174.4350  135.8060 C   0  0  0  0  0  2  0  0  0  0  0  0
  186.1330  173.0740  137.5610 C   0  0  0  0  0  2  0  0  0  0  0  0
  183.2940  174.6010  137.2960 N   0  0  0  0  0  2  0  0  0  0  0  0
  179.8080  173.3900  137.3060 C   0  0  1  0  0  3  0  0  0  0  0  0
  179.6030  173.9960  139.0090 S   0  0  0  0  0  0  0  0  0  0  0  0
  178.9540  174.2080  136.3550 C   0  0  0  0  0  1  0  0  0  0  0  0
  181.2110  173.5170  136.9550 N   0  0  0  0  0  0  0  0  0  0  0  0
  181.8950  174.4490  137.5340 C   0  0  0  0  0  0  0  0  0  0  0  0
  181.0490  175.5290  138.6720 S   0  0  0  0  0  0  0  0  0  0  0  0
  189.1860  176.5580  137.1280 C   0  0  0  0  0  0  0  0  0  0  0  0
  189.6410  177.2070  136.1000 N   0  0  0  0  0  0  0  0  0  0  0  0
  188.8880  177.3920  134.9330 N   0  0  0  0  0  1  0  0  0  0  0  0
  190.0920  176.3450  138.2950 C   0  0  0  0  0  2  0  0  0  0  0  0
  190.3500  177.6680  138.9990 C   0  0  0  0  0  2  0  0  0  0  0  0
  190.1200  177.5240  140.4290 N   0  0  0  0  0  2  0  0  0  0  0  0
  188.2790  178.9140  139.9820 O   0  0  0  0  0  1  0  0  0  0  0  0
  188.7020  177.7680  140.6670 C   0  0  2  0  0  3  0  0  0  0  0  0
  188.4370  177.8960  142.0960 N   0  0  0  0  0  2  0  0  0  0  0  0
  188.8770  176.7240  142.7430 N   0  0  0  0  0  0  0  0  0  0  0  0
  188.0990  176.4310  143.9450 C   0  0  1  0  0  3  0  0  0  0  0  0
  189.2790  177.1110  144.0110 O   0  0  0  0  0  0  0  0  0  0  0  0
  183.6340  178.6790  142.2170 S   0  0  0  0  0  1  0  0  0  0  0  0
  186.8510  178.0420  145.4170 C   0  0  0  0  0  3  0  0  0  0  0  0
  185.9500  177.5560  143.2210 C   0  0  0  0  0  3  0  0  0  0  0  0
  186.9300  177.3480  144.2030 C   0  0  0  0  0  0  0  0  0  0  0  0
  184.8860  178.4300  143.4650 C   0  0  0  0  0  0  0  0  0  0  0  0
  185.7870  178.9160  145.6600 C   0  0  0  0  0  3  0  0  0  0  0  0
  184.8040  179.1080  144.6840 C   0  0  0  0  0  3  0  0  0  0  0  0
  186.7620  176.6340  137.8760 N   0  0  0  0  0  2  0  0  0  0  0  0
  186.7860  178.8560  137.1930 F   0  0  0  0  0  0  0  0  0  0  0  0
  185.9780  177.7430  137.3510 C   0  0  2  0  0  3  0  0  0  0  0  0
  184.8560  179.3990  138.6550 F   0  0  0  0  0  0  0  0  0  0  0  0
  184.8380  178.0590  138.3020 C   0  0  0  0  0  3  0  0  0  0  0  0
  183.6270  177.7520  137.7070 F   0  0  0  0  0  0  0  0  0  0  0  0
  1  4  1  0  0  0  0
  1  2  2  0  0  0  0
  2 34  1  0  0  0  0
  3  7  1  0  0  0  0
  4  7  1  0  0  0  0
  5  8  1  1  0  0  0
  5  3  1  0  0  0  0
  6  5  1  0  0  0  0
  6  4  1  0  0  0  0
  8 13  1  0  0  0  0
  9 11  1  6  0  0  0
  9 10  1  0  0  0  0
 12  9  1  0  0  0  0
 12 13  2  0  0  0  0
 13 14  1  0  0  0  0
 14 10  1  0  0  0  0
 15  2  1  0  0  0  0
 15 18  1  0  0  0  0
 16 15  2  0  0  0  0
 17 16  1  0  0  0  0
 18 19  1  0  0  0  0
 19 20  1  0  0  0  0
 20 22  1  0  0  0  0
 22 21  1  6  0  0  0
 22 23  1  0  0  0  0
 23 24  1  0  0  0  0
 24 25  1  0  0  0  0
 24 26  1  0  0  0  0
 25 26  1  0  0  0  0
 25 30  1  6  0  0  0
 27 31  1  0  0  0  0
 28 32  1  0  0  0  0
 29 31  2  0  0  0  0
 29 30  1  0  0  0  0
 30 28  2  0  0  0  0
 31 33  1  0  0  0  0
 33 32  2  0  0  0  0
 36 35  1  1  0  0  0
 36 34  1  0  0  0  0
 36 38  1  0  0  0  0
 38 37  1  0  0  0  0
 39 38  1  0  0  0  0
M  END
>  <MODEL>
6

>  <REMARK>
 VINA RESULT:      -6.9      2.690      3.953
  Name = 
  13 active torsions:
  status: ('A' for Active; 'I' for Inactive)
    1  A    between atoms: C_3  and  N_8
    2  A    between atoms: N_6  and  C_17
    3  A    between atoms: C_11  and  C_13
    4  A    between atoms: C_11  and  C_33
    5  A    between atoms: C_13  and  C_21
    6  A    between atoms: C_16  and  C_30
    7  A    between atoms: N_18  and  C_21
    8  A    between atoms: N_18  and  C_31
    9  A    between atoms: C_20  and  C_36
   10  A    between atoms: N_24  and  N_28
   11  A    between atoms: N_28  and  C_31
   12  A    between atoms: C_33  and  N_34
   13  A    between atoms: N_34  and  C_36
                            x       y       z     vdW  Elec       q    Type
                         _______ _______ _______ _____ _____    ______ ____

>  <TORSDO>
F 13

$$$$
=
 OpenBabel11042411053D

 39 42  0  0  1  0  0  0  0  0999 V2000
  188.3200  176.3090  137.7450 C   0  0  0  0  0  3  0  0  0  0  0  0
  188.9310  177.2220  138.5100 C   0  0  0  0  0  0  0  0  0  0  0  0
  190.2120  174.7660  134.9200 C   0  0  0  0  0  2  0  0  0  0  0  0
  188.9830  175.4330  136.8210 N   0  0  0  0  0  0  0  0  0  0  0  0
  190.4660  173.7620  136.0380 C   0  0  2  0  0  3  0  0  0  0  0  0
  189.4810  174.1070  137.1360 C   0  0  0  0  0  2  0  0  0  0  0  0
  189.4660  175.9270  135.5510 C   0  0  0  0  0  2  0  0  0  0  0  0
  191.8170  173.9410  136.5440 N   0  0  0  0  0  2  0  0  0  0  0  0
  193.7560  171.0090  135.4160 C   0  0  1  0  0  3  0  0  0  0  0  0
  195.2470  172.0450  135.2900 S   0  0  0  0  0  0  0  0  0  0  0  0
  193.9120  170.0040  136.5430 C   0  0  0  0  0  1  0  0  0  0  0  0
  192.6270  171.8850  135.6780 N   0  0  0  0  0  0  0  0  0  0  0  0
  192.8570  172.9930  136.3030 C   0  0  0  0  0  0  0  0  0  0  0  0
  194.5250  173.3270  136.8350 S   0  0  0  0  0  0  0  0  0  0  0  0
  188.0890  178.1170  139.3360 C   0  0  0  0  0  0  0  0  0  0  0  0
  186.9810  178.6280  138.8940 N   0  0  0  0  0  0  0  0  0  0  0  0
  186.5080  178.3930  137.5950 N   0  0  0  0  0  1  0  0  0  0  0  0
  188.5490  178.4880  140.7060 C   0  0  0  0  0  2  0  0  0  0  0  0
  187.8830  177.5900  141.7370 C   0  0  0  0  0  2  0  0  0  0  0  0
  187.0890  178.3920  142.6560 N   0  0  0  0  0  2  0  0  0  0  0  0
  185.0720  178.0540  143.8110 O   0  0  0  0  0  1  0  0  0  0  0  0
  186.2960  177.4720  143.4630 C   0  0  2  0  0  3  0  0  0  0  0  0
  187.0330  177.0710  144.6560 N   0  0  0  0  0  2  0  0  0  0  0  0
  186.6100  177.8680  145.7380 N   0  0  0  0  0  0  0  0  0  0  0  0
  187.7190  178.2520  146.6080 C   0  0  1  0  0  3  0  0  0  0  0  0
  186.9410  177.1670  146.8870 O   0  0  0  0  0  0  0  0  0  0  0  0
  192.2060  175.6050  147.5230 S   0  0  0  0  0  1  0  0  0  0  0  0
  189.5780  178.3070  144.9170 C   0  0  0  0  0  3  0  0  0  0  0  0
  189.9020  177.0160  146.9410 C   0  0  0  0  0  3  0  0  0  0  0  0
  189.0890  177.8320  146.1410 C   0  0  0  0  0  0  0  0  0  0  0  0
  191.1820  176.6570  146.5070 C   0  0  0  0  0  0  0  0  0  0  0  0
  190.8580  177.9480  144.4840 C   0  0  0  0  0  3  0  0  0  0  0  0
  191.6580  177.1210  145.2780 C   0  0  0  0  0  3  0  0  0  0  0  0
  190.3590  177.3610  138.4900 N   0  0  0  0  0  2  0  0  0  0  0  0
  190.5400  175.8990  140.2870 F   0  0  0  0  0  0  0  0  0  0  0  0
  191.2660  176.6260  139.3600 C   0  0  2  0  0  3  0  0  0  0  0  0
  191.9970  177.5410  141.4410 F   0  0  0  0  0  0  0  0  0  0  0  0
  192.1920  177.5970  140.0700 C   0  0  0  0  0  3  0  0  0  0  0  0
  193.5100  177.2940  139.7770 F   0  0  0  0  0  0  0  0  0  0  0  0
  1  2  2  0  0  0  0
  2 15  1  0  0  0  0
  3  7  1  0  0  0  0
  3  5  1  0  0  0  0
  4  6  1  0  0  0  0
  4  1  1  0  0  0  0
  5  8  1  1  0  0  0
  5  6  1  0  0  0  0
  7  4  1  0  0  0  0
  9 12  1  0  0  0  0
  9 11  1  1  0  0  0
 10  9  1  0  0  0  0
 10 14  1  0  0  0  0
 12 13  2  0  0  0  0
 13  8  1  0  0  0  0
 13 14  1  0  0  0  0
 15 18  1  0  0  0  0
 16 15  2  0  0  0  0
 17 16  1  0  0  0  0
 18 19  1  0  0  0  0
 19 20  1  0  0  0  0
 20 22  1  0  0  0  0
 22 21  1  1  0  0  0
 22 23  1  0  0  0  0
 23 24  1  0  0  0  0
 24 25  1  0  0  0  0
 24 26  1  0  0  0  0
 25 30  1  6  0  0  0
 25 26  1  0  0  0  0
 28 30  1  0  0  0  0
 30 29  2  0  0  0  0
 31 29  1  0  0  0  0
 31 27  1  0  0  0  0
 32 28  2  0  0  0  0
 32 33  1  0  0  0  0
 33 31  2  0  0  0  0
 34  2  1  0  0  0  0
 34 36  1  0  0  0  0
 36 38  1  0  0  0  0
 36 35  1  1  0  0  0
 38 37  1  0  0  0  0
 39 38  1  0  0  0  0
M  END
>  <MODEL>
7

>  <REMARK>
 VINA RESULT:      -6.9      3.879      5.610
  Name = 
  13 active torsions:
  status: ('A' for Active; 'I' for Inactive)
    1  A    between atoms: C_3  and  N_8
    2  A    between atoms: N_6  and  C_17
    3  A    between atoms: C_11  and  C_13
    4  A    between atoms: C_11  and  C_33
    5  A    between atoms: C_13  and  C_21
    6  A    between atoms: C_16  and  C_30
    7  A    between atoms: N_18  and  C_21
    8  A    between atoms: N_18  and  C_31
    9  A    between atoms: C_20  and  C_36
   10  A    between atoms: N_24  and  N_28
   11  A    between atoms: N_28  and  C_31
   12  A    between atoms: C_33  and  N_34
   13  A    between atoms: N_34  and  C_36
                            x       y       z     vdW  Elec       q    Type
                         _______ _______ _______ _____ _____    ______ ____

>  <TORSDO>
F 13

$$$$
=
 OpenBabel11042411053D

 39 42  0  0  1  0  0  0  0  0999 V2000
  188.4000  177.1480  143.2350 C   0  0  0  0  0  3  0  0  0  0  0  0
  188.6830  177.8060  144.3660 C   0  0  0  0  0  0  0  0  0  0  0  0
  190.5350  176.6770  140.2090 C   0  0  0  0  0  2  0  0  0  0  0  0
  189.1250  177.2780  142.0030 N   0  0  0  0  0  0  0  0  0  0  0  0
  189.5230  177.7010  139.7090 C   0  0  2  0  0  3  0  0  0  0  0  0
  188.8110  178.2160  140.9420 C   0  0  0  0  0  2  0  0  0  0  0  0
  190.0780  176.2690  141.5970 C   0  0  0  0  0  2  0  0  0  0  0  0
  188.5570  177.0380  138.8480 N   0  0  0  0  0  2  0  0  0  0  0  0
  190.2300  176.5090  135.6010 C   0  0  1  0  0  3  0  0  0  0  0  0
  189.2850  174.9730  135.3650 S   0  0  0  0  0  0  0  0  0  0  0  0
  189.7870  177.5550  134.5940 C   0  0  0  0  0  1  0  0  0  0  0  0
  189.9840  176.9800  136.9530 N   0  0  0  0  0  0  0  0  0  0  0  0
  188.8540  176.6720  137.5010 C   0  0  0  0  0  0  0  0  0  0  0  0
  187.6770  175.7450  136.5360 S   0  0  0  0  0  0  0  0  0  0  0  0
  187.7720  177.6350  145.5200 C   0  0  0  0  0  0  0  0  0  0  0  0
  188.1940  177.6770  146.7470 N   0  0  0  0  0  0  0  0  0  0  0  0
  189.5440  177.8630  147.0740 N   0  0  0  0  0  1  0  0  0  0  0  0
  186.3290  177.3530  145.2710 C   0  0  0  0  0  2  0  0  0  0  0  0
  185.6320  178.6130  144.7810 C   0  0  0  0  0  2  0  0  0  0  0  0
  184.7200  178.2860  143.6950 N   0  0  0  0  0  2  0  0  0  0  0  0
  185.8740  179.8910  142.4270 O   0  0  0  0  0  1  0  0  0  0  0  0
  185.4140  178.5700  142.4440 C   0  0  2  0  0  3  0  0  0  0  0  0
  184.5400  178.3140  141.3040 N   0  0  0  0  0  2  0  0  0  0  0  0
  184.4650  179.4830  140.5220 N   0  0  0  0  0  0  0  0  0  0  0  0
  183.7010  179.2770  139.2930 C   0  0  1  0  0  3  0  0  0  0  0  0
  185.0610  179.1750  139.3090 O   0  0  0  0  0  0  0  0  0  0  0  0
  183.9210  174.3320  137.4280 S   0  0  0  0  0  1  0  0  0  0  0  0
  181.7730  177.7070  139.6620 C   0  0  0  0  0  3  0  0  0  0  0  0
  183.7050  176.8890  138.4510 C   0  0  0  0  0  3  0  0  0  0  0  0
  183.0570  177.9210  139.1460 C   0  0  0  0  0  0  0  0  0  0  0  0
  183.0840  175.6460  138.2990 C   0  0  0  0  0  0  0  0  0  0  0  0
  181.1520  176.4630  139.5090 C   0  0  0  0  0  3  0  0  0  0  0  0
  181.8090  175.4330  138.8300 C   0  0  0  0  0  3  0  0  0  0  0  0
  189.8100  178.6920  144.4380 N   0  0  0  0  0  2  0  0  0  0  0  0
  191.7170  178.3880  143.1460 F   0  0  0  0  0  0  0  0  0  0  0  0
  191.1980  178.2540  144.4210 C   0  0  2  0  0  3  0  0  0  0  0  0
  191.8710  176.0260  143.8840 F   0  0  0  0  0  0  0  0  0  0  0  0
  191.2830  176.8050  144.8680 C   0  0  0  0  0  3  0  0  0  0  0  0
  192.0200  176.7120  146.0350 F   0  0  0  0  0  0  0  0  0  0  0  0
  1  2  2  0  0  0  0
  2 34  1  0  0  0  0
  2 15  1  0  0  0  0
  3  7  1  0  0  0  0
  4  1  1  0  0  0  0
  5  8  1  6  0  0  0
  5  3  1  0  0  0  0
  5  6  1  0  0  0  0
  6  4  1  0  0  0  0
  7  4  1  0  0  0  0
  9 11  1  6  0  0  0
  9 12  1  0  0  0  0
 10  9  1  0  0  0  0
 10 14  1  0  0  0  0
 12 13  2  0  0  0  0
 13  8  1  0  0  0  0
 14 13  1  0  0  0  0
 15 16  2  0  0  0  0
 16 17  1  0  0  0  0
 18 15  1  0  0  0  0
 19 18  1  0  0  0  0
 20 19  1  0  0  0  0
 22 21  1  1  0  0  0
 22 20  1  0  0  0  0
 23 22  1  0  0  0  0
 24 23  1  0  0  0  0
 25 30  1  1  0  0  0
 25 26  1  0  0  0  0
 25 24  1  0  0  0  0
 26 24  1  0  0  0  0
 27 31  1  0  0  0  0
 29 30  1  0  0  0  0
 30 28  2  0  0  0  0
 31 29  2  0  0  0  0
 31 33  1  0  0  0  0
 32 28  1  0  0  0  0
 33 32  2  0  0  0  0
 36 35  1  6  0  0  0
 36 34  1  0  0  0  0
 36 38  1  0  0  0  0
 37 38  1  0  0  0  0
 38 39  1  0  0  0  0
M  END
>  <MODEL>
8

>  <REMARK>
 VINA RESULT:      -6.8      3.657      6.873
  Name = 
  13 active torsions:
  status: ('A' for Active; 'I' for Inactive)
    1  A    between atoms: C_3  and  N_8
    2  A    between atoms: N_6  and  C_17
    3  A    between atoms: C_11  and  C_13
    4  A    between atoms: C_11  and  C_33
    5  A    between atoms: C_13  and  C_21
    6  A    between atoms: C_16  and  C_30
    7  A    between atoms: N_18  and  C_21
    8  A    between atoms: N_18  and  C_31
    9  A    between atoms: C_20  and  C_36
   10  A    between atoms: N_24  and  N_28
   11  A    between atoms: N_28  and  C_31
   12  A    between atoms: C_33  and  N_34
   13  A    between atoms: N_34  and  C_36
                            x       y       z     vdW  Elec       q    Type
                         _______ _______ _______ _____ _____    ______ ____

>  <TORSDO>
F 13

$$$$
=
 OpenBabel11042411053D

 39 42  0  0  1  0  0  0  0  0999 V2000
  190.7740  177.2610  140.6820 C   0  0  0  0  0  3  0  0  0  0  0  0
  189.6680  177.3430  139.9310 C   0  0  0  0  0  0  0  0  0  0  0  0
  190.7670  178.0890  144.3220 C   0  0  0  0  0  2  0  0  0  0  0  0
  190.7950  177.2500  142.1170 N   0  0  0  0  0  0  0  0  0  0  0  0
  190.1750  176.6850  144.3300 C   0  0  2  0  0  3  0  0  0  0  0  0
  190.4340  176.1180  142.9500 C   0  0  0  0  0  2  0  0  0  0  0  0
  190.9130  178.4820  142.8640 C   0  0  0  0  0  2  0  0  0  0  0  0
  188.7390  176.7730  144.5420 N   0  0  0  0  0  2  0  0  0  0  0  0
  188.2600  178.2870  147.8740 C   0  0  1  0  0  3  0  0  0  0  0  0
  186.7350  179.0890  147.2890 S   0  0  0  0  0  0  0  0  0  0  0  0
  187.9280  177.2230  148.9030 C   0  0  0  0  0  1  0  0  0  0  0  0
  188.9150  177.6860  146.7250 N   0  0  0  0  0  0  0  0  0  0  0  0
  188.1720  177.3120  145.7360 C   0  0  0  0  0  0  0  0  0  0  0  0
  186.4080  177.5160  145.8860 S   0  0  0  0  0  0  0  0  0  0  0  0
  189.8270  177.4460  138.4630 C   0  0  0  0  0  0  0  0  0  0  0  0
  190.3230  176.4800  137.7500 N   0  0  0  0  0  0  0  0  0  0  0  0
  190.7670  175.2780  138.3170 N   0  0  0  0  0  1  0  0  0  0  0  0
  189.4550  178.7190  137.7780 C   0  0  0  0  0  2  0  0  0  0  0  0
  188.5530  178.4230  136.5900 C   0  0  0  0  0  2  0  0  0  0  0  0
  187.1590  178.6070  136.9660 N   0  0  0  0  0  2  0  0  0  0  0  0
  186.7850  176.4200  136.1950 O   0  0  0  0  0  1  0  0  0  0  0  0
  186.6150  177.2900  137.2780 C   0  0  2  0  0  3  0  0  0  0  0  0
  185.2060  177.3900  137.6420 N   0  0  0  0  0  2  0  0  0  0  0  0
  184.4750  176.4600  136.8770 N   0  0  0  0  0  0  0  0  0  0  0  0
  183.0710  176.4000  137.2760 C   0  0  1  0  0  3  0  0  0  0  0  0
  183.9870  175.5230  137.7740 O   0  0  0  0  0  0  0  0  0  0  0  0
  181.3100  181.2400  138.4830 S   0  0  0  0  0  1  0  0  0  0  0  0
  182.7320  177.0520  139.6810 C   0  0  0  0  0  3  0  0  0  0  0  0
  182.2250  178.6850  137.9640 C   0  0  0  0  0  3  0  0  0  0  0  0
  182.6480  177.3980  138.3260 C   0  0  0  0  0  0  0  0  0  0  0  0
  181.8630  179.6080  138.9500 C   0  0  0  0  0  0  0  0  0  0  0  0
  182.3700  177.9760  140.6660 C   0  0  0  0  0  3  0  0  0  0  0  0
  181.9330  179.2530  140.3000 C   0  0  0  0  0  3  0  0  0  0  0  0
  188.3690  177.3810  140.5390 N   0  0  0  0  0  2  0  0  0  0  0  0
  188.1200  179.1450  142.0310 F   0  0  0  0  0  0  0  0  0  0  0  0
  187.6450  178.6060  140.8480 C   0  0  2  0  0  3  0  0  0  0  0  0
  185.8230  178.0660  142.2950 F   0  0  0  0  0  0  0  0  0  0  0  0
  186.1620  178.3060  140.9730 C   0  0  0  0  0  3  0  0  0  0  0  0
  185.4220  179.3710  140.4900 F   0  0  0  0  0  0  0  0  0  0  0  0
  1  4  1  0  0  0  0
  2 34  1  0  0  0  0
  2  1  2  0  0  0  0
  3  5  1  0  0  0  0
  4  7  1  0  0  0  0
  4  6  1  0  0  0  0
  5  8  1  6  0  0  0
  6  5  1  0  0  0  0
  7  3  1  0  0  0  0
  8 13  1  0  0  0  0
  9 11  1  1  0  0  0
 10  9  1  0  0  0  0
 12  9  1  0  0  0  0
 13 14  1  0  0  0  0
 13 12  2  0  0  0  0
 14 10  1  0  0  0  0
 15  2  1  0  0  0  0
 16 17  1  0  0  0  0
 16 15  2  0  0  0  0
 18 15  1  0  0  0  0
 19 20  1  0  0  0  0
 19 18  1  0  0  0  0
 20 22  1  0  0  0  0
 22 21  1  6  0  0  0
 22 23  1  0  0  0  0
 24 25  1  0  0  0  0
 24 23  1  0  0  0  0
 24 26  1  0  0  0  0
 25 26  1  0  0  0  0
 25 30  1  1  0  0  0
 27 31  1  0  0  0  0
 28 32  1  0  0  0  0
 29 30  1  0  0  0  0
 29 31  2  0  0  0  0
 30 28  2  0  0  0  0
 31 33  1  0  0  0  0
 33 32  2  0  0  0  0
 34 36  1  0  0  0  0
 36 38  1  0  0  0  0
 36 35  1  1  0  0  0
 38 37  1  0  0  0  0
 39 38  1  0  0  0  0
M  END
>  <MODEL>
9

>  <REMARK>
 VINA RESULT:      -6.8      3.979      7.969
  Name = 
  13 active torsions:
  status: ('A' for Active; 'I' for Inactive)
    1  A    between atoms: C_3  and  N_8
    2  A    between atoms: N_6  and  C_17
    3  A    between atoms: C_11  and  C_13
    4  A    between atoms: C_11  and  C_33
    5  A    between atoms: C_13  and  C_21
    6  A    between atoms: C_16  and  C_30
    7  A    between atoms: N_18  and  C_21
    8  A    between atoms: N_18  and  C_31
    9  A    between atoms: C_20  and  C_36
   10  A    between atoms: N_24  and  N_28
   11  A    between atoms: N_28  and  C_31
   12  A    between atoms: C_33  and  N_34
   13  A    between atoms: N_34  and  C_36
                            x       y       z     vdW  Elec       q    Type
                         _______ _______ _______ _____ _____    ______ ____

>  <TORSDO>
F 13

$$$$
