=
 OpenBabel11032420443D

 45 49  0  0  1  0  0  0  0  0999 V2000
  187.9700  177.9450  139.9160 C   0  0  0  0  0  2  0  0  0  0  0  0
  190.0860  176.1970  141.4310 C   0  0  0  0  0  2  0  0  0  0  0  0
  188.3350  178.5980  138.5950 C   0  0  0  0  0  2  0  0  0  0  0  0
  188.7940  177.5340  137.6000 C   0  0  0  0  0  2  0  0  0  0  0  0
  189.0490  178.0550  140.9030 N   0  0  2  0  0  0  0  0  0  0  0  0
  190.7520  177.1390  139.0970 C   0  0  2  0  0  3  0  0  0  0  0  0
  190.3430  177.4130  140.5670 C   0  0  2  0  0  3  0  0  0  0  0  0
  188.8070  176.9300  141.8080 C   0  0  2  0  0  3  0  0  0  0  0  0
  189.6840  176.4720  138.2470 C   0  0  0  0  0  2  0  0  0  0  0  0
  188.7690  177.3650  143.2530 C   0  0  0  0  0  0  0  0  0  0  0  0
  189.4010  177.9240  145.4510 C   0  0  2  0  0  3  0  0  0  0  0  0
  189.5870  176.5210  147.3680 O   0  0  0  0  0  0  0  0  0  0  0  0
  189.8100  177.5740  144.0650 C   0  0  0  0  0  0  0  0  0  0  0  0
  192.0510  176.9330  144.7520 C   0  0  0  0  0  3  0  0  0  0  0  0
  190.1390  177.0120  146.3970 C   0  0  0  0  0  0  0  0  0  0  0  0
  187.4730  177.4850  143.9740 C   0  0  0  0  0  2  0  0  0  0  0  0
  187.0940  177.9370  146.4120 C   0  0  0  0  0  3  0  0  0  0  0  0
  187.9190  177.7420  145.3770 C   0  0  0  0  0  0  0  0  0  0  0  0
  191.6230  176.8180  146.2010 C   0  0  0  0  0  2  0  0  0  0  0  0
  191.2140  177.2650  143.7630 C   0  0  0  0  0  3  0  0  0  0  0  0
  185.3100  177.8220  146.2450 S   0  0  0  0  0  0  0  0  0  0  0  0
  185.2600  179.2260  145.1020 C   0  0  0  0  0  2  0  0  0  0  0  0
  183.6140  179.3290  144.3510 S   0  0  0  0  0  0  0  0  0  0  0  0
  184.1950  178.5840  142.7960 C   0  0  0  0  0  2  0  0  0  0  0  0
  185.3370  179.3980  142.2090 C   0  0  0  0  0  2  0  0  0  0  0  0
  185.2400  179.4230  140.7610 N   0  0  0  0  0  2  0  0  0  0  0  0
  184.0230  178.7040  140.4030 C   0  0  0  0  0  2  0  0  0  0  0  0
  181.9110  179.6800  139.5520 C   0  0  0  0  0  1  0  0  0  0  0  0
  183.3480  179.3510  139.1980 C   0  0  0  0  0  0  0  0  0  0  0  0
  184.0120  180.5300  138.8540 O   0  0  0  0  0  1  0  0  0  0  0  0
  183.3540  178.3930  138.0160 C   0  0  0  0  0  1  0  0  0  0  0  0
  191.8460  175.8630  136.7910 O   0  0  0  0  0  0  0  0  0  0  0  0
  191.9690  176.3390  139.0670 N   0  0  0  0  0  2  0  0  0  0  0  0
  193.8340  175.2770  137.8500 N   0  0  0  0  0  2  0  0  0  0  0  0
  192.5150  175.8170  137.8560 C   0  0  0  0  0  0  0  0  0  0  0  0
  197.0070  173.2500  137.2100 O   0  0  0  0  0  0  0  0  0  0  0  0
  195.8730  175.2780  136.4390 C   0  0  1  0  0  3  0  0  0  0  0  0
  195.1380  173.0020  139.2600 O   0  0  0  0  0  1  0  0  0  0  0  0
  195.4860  171.1240  137.4690 O   0  0  0  0  0  0  0  0  0  0  0  0
  195.4850  172.6260  137.6440 P   0  0  2  0  0  0  0  0  0  0  0  0
  194.4390  174.7340  136.6380 C   0  0  1  0  0  3  0  0  0  0  0  0
  194.3250  173.3210  136.6010 O   0  0  0  0  0  0  0  0  0  0  0  0
  196.9150  174.6400  137.3780 C   0  0  0  0  0  2  0  0  0  0  0  0
  196.2900  175.3950  135.0930 O   0  0  0  0  0  0  0  0  0  0  0  0
  196.5510  176.7460  134.8020 C   0  0  0  0  0  1  0  0  0  0  0  0
  2  8  1  0  0  0  0
  3  1  1  0  0  0  0
  4  9  1  0  0  0  0
  4  3  1  0  0  0  0
  5  1  1  6  0  0  0
  5  8  1  0  0  0  0
  6 33  1  1  0  0  0
  6  7  1  0  0  0  0
  7  5  1  0  0  0  0
  7  2  1  1  0  0  0
  8 10  1  1  0  0  0
  9  6  1  0  0  0  0
 10 16  1  0  0  0  0
 10 13  2  0  0  0  0
 11 13  1  6  0  0  0
 11 15  1  0  0  0  0
 14 19  1  0  0  0  0
 15 12  2  0  0  0  0
 16 18  1  0  0  0  0
 18 11  1  0  0  0  0
 18 17  2  0  0  0  0
 19 15  1  0  0  0  0
 20 13  1  0  0  0  0
 20 14  2  0  0  0  0
 21 17  1  0  0  0  0
 22 21  1  0  0  0  0
 23 22  1  0  0  0  0
 24 23  1  0  0  0  0
 25 24  1  0  0  0  0
 26 25  1  0  0  0  0
 27 26  1  0  0  0  0
 29 28  1  0  0  0  0
 29 27  1  0  0  0  0
 30 29  1  0  0  0  0
 31 29  1  0  0  0  0
 32 35  2  0  0  0  0
 34 35  1  0  0  0  0
 35 33  1  0  0  0  0
 36 43  1  0  0  0  0
 36 40  1  0  0  0  0
 37 44  1  6  0  0  0
 37 41  1  0  0  0  0
 37 43  1  0  0  0  0
 40 39  2  6  0  0  0
 40 38  1  0  0  0  0
 41 34  1  1  0  0  0
 42 41  1  0  0  0  0
 42 40  1  0  0  0  0
 45 44  1  0  0  0  0
M  END
>  <MODEL>
1

>  <REMARK>
 VINA RESULT:      -8.5      0.000      0.000
  Name = 
  12 active torsions:
  status: ('A' for Active; 'I' for Inactive)
    1  A    between atoms: C_1  and  C_41
    2  A    between atoms: N_7  and  C_14
    3  A    between atoms: N_7  and  C_21
    4  A    between atoms: S_8  and  C_9
    5  A    between atoms: S_8  and  C_36
    6  A    between atoms: C_9  and  S_28
    7  A    between atoms: C_12  and  C_21
    8  A    between atoms: N_13  and  C_33
    9  A    between atoms: C_14  and  C_15
   10  A    between atoms: C_15  and  S_28
   11  A    between atoms: C_16  and  O_43
   12  A    between atoms: N_18  and  C_32
                            x       y       z     vdW  Elec       q    Type
                         _______ _______ _______ _____ _____    ______ ____

>  <TORSDO>
F 12

$$$$
=
 OpenBabel11032420443D

 45 49  0  0  1  0  0  0  0  0999 V2000
  181.9880  178.6750  142.3030 C   0  0  0  0  0  2  0  0  0  0  0  0
  184.6880  179.2700  140.8270 C   0  0  0  0  0  2  0  0  0  0  0  0
  182.0030  178.1740  143.7370 C   0  0  0  0  0  2  0  0  0  0  0  0
  182.7590  179.1630  144.6220 C   0  0  0  0  0  2  0  0  0  0  0  0
  183.0090  178.0210  141.4790 N   0  0  2  0  0  0  0  0  0  0  0  0
  184.8140  178.5730  143.3320 C   0  0  2  0  0  3  0  0  0  0  0  0
  184.4250  178.2120  141.8770 C   0  0  2  0  0  3  0  0  0  0  0  0
  183.2560  178.9840  140.4040 C   0  0  2  0  0  3  0  0  0  0  0  0
  184.0160  179.7120  143.9460 C   0  0  0  0  0  2  0  0  0  0  0  0
  183.1500  178.3470  139.0390 C   0  0  0  0  0  0  0  0  0  0  0  0
  182.5610  177.9040  136.8030 C   0  0  2  0  0  3  0  0  0  0  0  0
  180.7190  176.6570  135.9500 O   0  0  0  0  0  0  0  0  0  0  0  0
  182.5280  178.8350  137.9620 C   0  0  0  0  0  0  0  0  0  0  0  0
  180.6630  180.1010  137.0550 C   0  0  0  0  0  3  0  0  0  0  0  0
  181.1510  177.7440  136.2960 C   0  0  0  0  0  0  0  0  0  0  0  0
  183.6630  176.9700  138.8040 C   0  0  0  0  0  2  0  0  0  0  0  0
  183.4180  175.5570  136.7460 C   0  0  0  0  0  3  0  0  0  0  0  0
  183.1850  176.6920  137.4160 C   0  0  0  0  0  0  0  0  0  0  0  0
  180.3130  178.9830  136.0930 C   0  0  0  0  0  2  0  0  0  0  0  0
  181.6730  180.0300  137.9280 C   0  0  0  0  0  3  0  0  0  0  0  0
  184.2790  174.1690  137.4920 S   0  0  0  0  0  0  0  0  0  0  0  0
  185.8010  174.5390  136.5820 C   0  0  0  0  0  2  0  0  0  0  0  0
  187.0040  173.2130  136.8630 S   0  0  0  0  0  0  0  0  0  0  0  0
  188.4070  174.3690  136.7920 C   0  0  0  0  0  2  0  0  0  0  0  0
  188.1100  175.5070  135.8290 C   0  0  0  0  0  2  0  0  0  0  0  0
  188.8330  176.7010  136.2280 N   0  0  0  0  0  2  0  0  0  0  0  0
  188.7530  176.7820  137.6810 C   0  0  0  0  0  2  0  0  0  0  0  0
  188.0560  178.1450  139.6280 C   0  0  0  0  0  1  0  0  0  0  0  0
  188.1500  178.1140  138.1160 C   0  0  0  0  0  0  0  0  0  0  0  0
  188.9600  179.1680  137.6890 O   0  0  0  0  0  1  0  0  0  0  0  0
  186.7520  178.2720  137.5350 C   0  0  0  0  0  1  0  0  0  0  0  0
  186.9290  176.6600  143.4330 O   0  0  0  0  0  0  0  0  0  0  0  0
  186.2360  178.8830  143.3980 N   0  0  0  0  0  2  0  0  0  0  0  0
  188.6060  178.2480  143.1400 N   0  0  0  0  0  2  0  0  0  0  0  0
  187.2450  177.8750  143.3400 C   0  0  0  0  0  0  0  0  0  0  0  0
  191.8460  177.7710  145.1050 O   0  0  0  0  0  0  0  0  0  0  0  0
  191.0410  177.9280  142.7980 C   0  0  1  0  0  3  0  0  0  0  0  0
  189.3170  178.4900  146.0210 O   0  0  0  0  0  0  0  0  0  0  0  0
  190.4420  176.2250  146.6980 O   0  0  0  0  0  1  0  0  0  0  0  0
  190.3070  177.1980  145.5480 P   0  0  2  0  0  0  0  0  0  0  0  0
  189.6740  177.2560  143.0700 C   0  0  1  0  0  3  0  0  0  0  0  0
  189.6450  176.3940  144.1950 O   0  0  0  0  0  0  0  0  0  0  0  0
  191.6360  178.6440  144.0260 C   0  0  0  0  0  2  0  0  0  0  0  0
  191.9650  177.1390  142.0740 O   0  0  0  0  0  0  0  0  0  0  0  0
  191.6420  177.1820  140.7060 C   0  0  0  0  0  1  0  0  0  0  0  0
  1  3  1  0  0  0  0
  3  4  1  0  0  0  0
  5  7  1  0  0  0  0
  5  1  1  1  0  0  0
  6 33  1  6  0  0  0
  6  9  1  0  0  0  0
  7  2  1  6  0  0  0
  7  6  1  0  0  0  0
  8 10  1  6  0  0  0
  8  2  1  0  0  0  0
  8  5  1  0  0  0  0
  9  4  1  0  0  0  0
 11 15  1  1  0  0  0
 11 18  1  0  0  0  0
 11 13  1  0  0  0  0
 12 15  2  0  0  0  0
 13 10  2  0  0  0  0
 14 20  2  0  0  0  0
 16 10  1  0  0  0  0
 17 18  2  0  0  0  0
 17 21  1  0  0  0  0
 18 16  1  0  0  0  0
 19 15  1  0  0  0  0
 19 14  1  0  0  0  0
 20 13  1  0  0  0  0
 22 23  1  0  0  0  0
 22 21  1  0  0  0  0
 24 23  1  0  0  0  0
 25 26  1  0  0  0  0
 25 24  1  0  0  0  0
 26 27  1  0  0  0  0
 27 29  1  0  0  0  0
 29 28  1  0  0  0  0
 30 29  1  0  0  0  0
 31 29  1  0  0  0  0
 34 35  1  0  0  0  0
 35 33  1  0  0  0  0
 35 32  2  0  0  0  0
 36 40  1  0  0  0  0
 37 44  1  1  0  0  0
 37 41  1  0  0  0  0
 37 43  1  0  0  0  0
 40 38  2  1  0  0  0
 40 39  1  0  0  0  0
 41 34  1  1  0  0  0
 41 42  1  0  0  0  0
 42 40  1  0  0  0  0
 43 36  1  0  0  0  0
 45 44  1  0  0  0  0
M  END
>  <MODEL>
2

>  <REMARK>
 VINA RESULT:      -8.1      4.550      9.085
  Name = 
  12 active torsions:
  status: ('A' for Active; 'I' for Inactive)
    1  A    between atoms: C_1  and  C_41
    2  A    between atoms: N_7  and  C_14
    3  A    between atoms: N_7  and  C_21
    4  A    between atoms: S_8  and  C_9
    5  A    between atoms: S_8  and  C_36
    6  A    between atoms: C_9  and  S_28
    7  A    between atoms: C_12  and  C_21
    8  A    between atoms: N_13  and  C_33
    9  A    between atoms: C_14  and  C_15
   10  A    between atoms: C_15  and  S_28
   11  A    between atoms: C_16  and  O_43
   12  A    between atoms: N_18  and  C_32
                            x       y       z     vdW  Elec       q    Type
                         _______ _______ _______ _____ _____    ______ ____

>  <TORSDO>
F 12

$$$$
=
 OpenBabel11032420443D

 45 49  0  0  1  0  0  0  0  0999 V2000
  191.1880  176.4570  137.3670 C   0  0  0  0  0  2  0  0  0  0  0  0
  188.2800  177.6170  137.5160 C   0  0  0  0  0  2  0  0  0  0  0  0
  191.4770  175.2470  136.4950 C   0  0  0  0  0  2  0  0  0  0  0  0
  191.0630  175.5370  135.0530 C   0  0  0  0  0  2  0  0  0  0  0  0
  189.9360  176.3120  138.1150 N   0  0  2  0  0  0  0  0  0  0  0  0
  188.7060  175.6450  135.8700 C   0  0  2  0  0  3  0  0  0  0  0  0
  188.6870  176.1720  137.3280 C   0  0  2  0  0  3  0  0  0  0  0  0
  189.5290  177.6930  138.3810 C   0  0  2  0  0  3  0  0  0  0  0  0
  189.7390  176.2970  134.9660 C   0  0  0  0  0  2  0  0  0  0  0  0
  189.2320  177.9240  139.8430 C   0  0  0  0  0  0  0  0  0  0  0  0
  189.4410  178.0870  142.1820 C   0  0  2  0  0  3  0  0  0  0  0  0
  189.0870  176.4190  143.8470 O   0  0  0  0  0  0  0  0  0  0  0  0
  190.0950  177.8840  140.8630 C   0  0  0  0  0  0  0  0  0  0  0  0
  192.0710  176.8740  141.8530 C   0  0  0  0  0  3  0  0  0  0  0  0
  189.8740  176.9660  143.0920 C   0  0  0  0  0  0  0  0  0  0  0  0
  187.8320  178.1060  140.3120 C   0  0  0  0  0  2  0  0  0  0  0  0
  186.9970  178.2580  142.6720 C   0  0  0  0  0  3  0  0  0  0  0  0
  187.9970  178.1060  141.7970 C   0  0  0  0  0  0  0  0  0  0  0  0
  191.3410  176.6150  143.1550 C   0  0  0  0  0  2  0  0  0  0  0  0
  191.4950  177.4450  140.7900 C   0  0  0  0  0  3  0  0  0  0  0  0
  185.2840  178.3950  142.1500 S   0  0  0  0  0  0  0  0  0  0  0  0
  184.8600  179.4220  143.5810 C   0  0  0  0  0  2  0  0  0  0  0  0
  183.3960  178.7350  144.3980 S   0  0  0  0  0  0  0  0  0  0  0  0
  184.1460  178.9010  146.0470 C   0  0  0  0  0  2  0  0  0  0  0  0
  185.6590  178.9940  145.9360 C   0  0  0  0  0  2  0  0  0  0  0  0
  186.2860  178.0620  146.8550 N   0  0  0  0  0  2  0  0  0  0  0  0
  187.6090  177.7600  146.3200 C   0  0  0  0  0  2  0  0  0  0  0  0
  188.5690  178.4990  148.4810 C   0  0  0  0  0  1  0  0  0  0  0  0
  188.5750  177.3950  147.4420 C   0  0  0  0  0  0  0  0  0  0  0  0
  188.1760  176.2000  148.0460 O   0  0  0  0  0  1  0  0  0  0  0  0
  189.9860  177.2470  146.8920 C   0  0  0  0  0  1  0  0  0  0  0  0
  186.6220  173.6990  135.9770 O   0  0  0  0  0  0  0  0  0  0  0  0
  187.3820  175.7870  135.2800 N   0  0  0  0  0  2  0  0  0  0  0  0
  185.0120  175.1290  135.0930 N   0  0  0  0  0  2  0  0  0  0  0  0
  186.3520  174.8160  135.4620 C   0  0  0  0  0  0  0  0  0  0  0  0
  181.7540  175.2190  137.0850 O   0  0  0  0  0  0  0  0  0  0  0  0
  183.7260  173.8070  136.7510 C   0  0  1  0  0  3  0  0  0  0  0  0
  182.9530  177.2260  135.5720 O   0  0  0  0  0  1  0  0  0  0  0  0
  180.6530  176.1720  134.8990 O   0  0  0  0  0  0  0  0  0  0  0  0
  181.9910  175.8310  135.5160 P   0  0  2  0  0  0  0  0  0  0  0  0
  183.9220  174.1720  135.2610 C   0  0  1  0  0  3  0  0  0  0  0  0
  182.7510  174.6110  134.5940 O   0  0  0  0  0  0  0  0  0  0  0  0
  183.0320  174.9100  137.5740 C   0  0  0  0  0  2  0  0  0  0  0  0
  183.2390  172.5020  136.9910 O   0  0  0  0  0  0  0  0  0  0  0  0
  184.0510  171.5710  136.3180 C   0  0  0  0  0  1  0  0  0  0  0  0
  2  8  1  0  0  0  0
  3  1  1  0  0  0  0
  4  3  1  0  0  0  0
  5  1  1  6  0  0  0
  5  8  1  0  0  0  0
  6 33  1  6  0  0  0
  6  7  1  0  0  0  0
  7  2  1  6  0  0  0
  7  5  1  0  0  0  0
  8 10  1  1  0  0  0
  9  4  1  0  0  0  0
  9  6  1  0  0  0  0
 10 16  1  0  0  0  0
 10 13  2  0  0  0  0
 11 13  1  6  0  0  0
 11 15  1  0  0  0  0
 14 19  1  0  0  0  0
 15 19  1  0  0  0  0
 15 12  2  0  0  0  0
 16 18  1  0  0  0  0
 18 11  1  0  0  0  0
 18 17  2  0  0  0  0
 20 13  1  0  0  0  0
 20 14  2  0  0  0  0
 21 17  1  0  0  0  0
 21 22  1  0  0  0  0
 22 23  1  0  0  0  0
 23 24  1  0  0  0  0
 25 24  1  0  0  0  0
 25 26  1  0  0  0  0
 27 26  1  0  0  0  0
 27 29  1  0  0  0  0
 29 30  1  0  0  0  0
 29 28  1  0  0  0  0
 31 29  1  0  0  0  0
 33 35  1  0  0  0  0
 34 35  1  0  0  0  0
 35 32  2  0  0  0  0
 36 43  1  0  0  0  0
 37 44  1  6  0  0  0
 37 43  1  0  0  0  0
 40 39  2  6  0  0  0
 40 38  1  0  0  0  0
 40 36  1  0  0  0  0
 41 34  1  1  0  0  0
 41 37  1  0  0  0  0
 42 41  1  0  0  0  0
 42 40  1  0  0  0  0
 45 44  1  0  0  0  0
M  END
>  <MODEL>
3

>  <REMARK>
 VINA RESULT:      -7.9      4.606      8.030
  Name = 
  12 active torsions:
  status: ('A' for Active; 'I' for Inactive)
    1  A    between atoms: C_1  and  C_41
    2  A    between atoms: N_7  and  C_14
    3  A    between atoms: N_7  and  C_21
    4  A    between atoms: S_8  and  C_9
    5  A    between atoms: S_8  and  C_36
    6  A    between atoms: C_9  and  S_28
    7  A    between atoms: C_12  and  C_21
    8  A    between atoms: N_13  and  C_33
    9  A    between atoms: C_14  and  C_15
   10  A    between atoms: C_15  and  S_28
   11  A    between atoms: C_16  and  O_43
   12  A    between atoms: N_18  and  C_32
                            x       y       z     vdW  Elec       q    Type
                         _______ _______ _______ _____ _____    ______ ____

>  <TORSDO>
F 12

$$$$
=
 OpenBabel11032420443D

 45 49  0  0  1  0  0  0  0  0999 V2000
  190.7960  177.3250  139.6370 C   0  0  0  0  0  2  0  0  0  0  0  0
  187.8510  178.1730  138.9780 C   0  0  0  0  0  2  0  0  0  0  0  0
  191.4470  176.1890  138.8670 C   0  0  0  0  0  2  0  0  0  0  0  0
  191.4200  176.4960  137.3700 C   0  0  0  0  0  2  0  0  0  0  0  0
  189.4090  177.0200  140.0020 N   0  0  2  0  0  0  0  0  0  0  0  0
  188.9320  176.3270  137.4940 C   0  0  2  0  0  3  0  0  0  0  0  0
  188.4520  176.7860  138.8940 C   0  0  2  0  0  3  0  0  0  0  0  0
  188.7940  178.3400  140.1590 C   0  0  2  0  0  3  0  0  0  0  0  0
  190.0970  177.1180  136.9240 C   0  0  0  0  0  2  0  0  0  0  0  0
  188.0800  178.4770  141.4820 C   0  0  0  0  0  0  0  0  0  0  0  0
  187.6040  178.5260  143.7870 C   0  0  2  0  0  3  0  0  0  0  0  0
  186.9000  176.7560  145.2190 O   0  0  0  0  0  0  0  0  0  0  0  0
  188.6180  178.4270  142.7040 C   0  0  0  0  0  0  0  0  0  0  0  0
  190.2920  177.4710  144.1830 C   0  0  0  0  0  3  0  0  0  0  0  0
  187.8320  177.3830  144.7420 C   0  0  0  0  0  0  0  0  0  0  0  0
  186.5950  178.5610  141.5360 C   0  0  0  0  0  2  0  0  0  0  0  0
  185.1150  178.5450  143.5610 C   0  0  0  0  0  3  0  0  0  0  0  0
  186.3310  178.4910  143.0050 C   0  0  0  0  0  0  0  0  0  0  0  0
  189.2400  177.1050  145.2110 C   0  0  0  0  0  2  0  0  0  0  0  0
  190.0060  178.0660  143.0200 C   0  0  0  0  0  3  0  0  0  0  0  0
  183.6170  178.6200  142.5740 S   0  0  0  0  0  0  0  0  0  0  0  0
  182.5680  178.6530  144.0510 C   0  0  0  0  0  2  0  0  0  0  0  0
  180.8490  178.9490  143.5580 S   0  0  0  0  0  0  0  0  0  0  0  0
  181.2210  178.6440  141.8040 C   0  0  0  0  0  2  0  0  0  0  0  0
  179.9380  178.4340  141.0160 C   0  0  0  0  0  2  0  0  0  0  0  0
  180.0450  179.0590  139.7100 N   0  0  0  0  0  2  0  0  0  0  0  0
  180.9260  180.2110  139.8600 C   0  0  0  0  0  2  0  0  0  0  0  0
  181.0890  179.7550  137.4300 C   0  0  0  0  0  1  0  0  0  0  0  0
  181.7840  180.4000  138.6130 C   0  0  0  0  0  0  0  0  0  0  0  0
  181.9540  181.7620  138.3530 O   0  0  0  0  0  1  0  0  0  0  0  0
  183.1410  179.7390  138.8040 C   0  0  0  0  0  1  0  0  0  0  0  0
  186.9910  174.2620  137.1540 O   0  0  0  0  0  0  0  0  0  0  0  0
  187.8160  176.3570  136.5580 N   0  0  0  0  0  2  0  0  0  0  0  0
  185.6230  175.5440  135.7750 N   0  0  0  0  0  2  0  0  0  0  0  0
  186.8220  175.3330  136.5150 C   0  0  0  0  0  0  0  0  0  0  0  0
  182.1150  175.3160  137.2690 O   0  0  0  0  0  0  0  0  0  0  0  0
  184.1890  174.0240  137.1110 C   0  0  1  0  0  3  0  0  0  0  0  0
  183.4050  177.5000  136.1210 O   0  0  0  0  0  1  0  0  0  0  0  0
  181.2860  176.4150  135.0320 O   0  0  0  0  0  0  0  0  0  0  0  0
  182.5390  176.0770  135.8090 P   0  0  2  0  0  0  0  0  0  0  0  0
  184.5750  174.5310  135.7020 C   0  0  1  0  0  3  0  0  0  0  0  0
  183.4880  174.9780  134.9090 O   0  0  0  0  0  0  0  0  0  0  0  0
  183.3250  175.0170  137.9130 C   0  0  0  0  0  2  0  0  0  0  0  0
  183.7450  172.6830  137.1670 O   0  0  0  0  0  0  0  0  0  0  0  0
  184.6200  171.8710  136.4240 C   0  0  0  0  0  1  0  0  0  0  0  0
  2  8  1  0  0  0  0
  3  1  1  0  0  0  0
  4  3  1  0  0  0  0
  5  1  1  6  0  0  0
  5  8  1  0  0  0  0
  6 33  1  6  0  0  0
  6  7  1  0  0  0  0
  7  2  1  6  0  0  0
  7  5  1  0  0  0  0
  8 10  1  1  0  0  0
  9  4  1  0  0  0  0
  9  6  1  0  0  0  0
 10 16  1  0  0  0  0
 10 13  2  0  0  0  0
 11 13  1  6  0  0  0
 11 15  1  0  0  0  0
 13 20  1  0  0  0  0
 14 19  1  0  0  0  0
 15 19  1  0  0  0  0
 15 12  2  0  0  0  0
 16 18  1  0  0  0  0
 18 17  2  0  0  0  0
 18 11  1  0  0  0  0
 20 14  2  0  0  0  0
 21 17  1  0  0  0  0
 21 22  1  0  0  0  0
 23 22  1  0  0  0  0
 24 23  1  0  0  0  0
 25 24  1  0  0  0  0
 26 27  1  0  0  0  0
 26 25  1  0  0  0  0
 28 29  1  0  0  0  0
 29 31  1  0  0  0  0
 29 27  1  0  0  0  0
 30 29  1  0  0  0  0
 34 35  1  0  0  0  0
 35 33  1  0  0  0  0
 35 32  2  0  0  0  0
 36 43  1  0  0  0  0
 37 44  1  6  0  0  0
 37 43  1  0  0  0  0
 40 39  2  6  0  0  0
 40 38  1  0  0  0  0
 40 36  1  0  0  0  0
 41 34  1  1  0  0  0
 41 37  1  0  0  0  0
 42 41  1  0  0  0  0
 42 40  1  0  0  0  0
 45 44  1  0  0  0  0
M  END
>  <MODEL>
4

>  <REMARK>
 VINA RESULT:      -7.6      4.383      6.882
  Name = 
  12 active torsions:
  status: ('A' for Active; 'I' for Inactive)
    1  A    between atoms: C_1  and  C_41
    2  A    between atoms: N_7  and  C_14
    3  A    between atoms: N_7  and  C_21
    4  A    between atoms: S_8  and  C_9
    5  A    between atoms: S_8  and  C_36
    6  A    between atoms: C_9  and  S_28
    7  A    between atoms: C_12  and  C_21
    8  A    between atoms: N_13  and  C_33
    9  A    between atoms: C_14  and  C_15
   10  A    between atoms: C_15  and  S_28
   11  A    between atoms: C_16  and  O_43
   12  A    between atoms: N_18  and  C_32
                            x       y       z     vdW  Elec       q    Type
                         _______ _______ _______ _____ _____    ______ ____

>  <TORSDO>
F 12

$$$$
=
 OpenBabel11032420443D

 45 49  0  0  1  0  0  0  0  0999 V2000
  186.0530  174.0620  136.2050 C   0  0  0  0  0  2  0  0  0  0  0  0
  185.9520  177.1920  136.3230 C   0  0  0  0  0  2  0  0  0  0  0  0
  184.8340  173.2500  136.6060 C   0  0  0  0  0  2  0  0  0  0  0  0
  183.6330  173.6660  135.7570 C   0  0  0  0  0  2  0  0  0  0  0  0
  186.2960  175.1810  137.1220 N   0  0  2  0  0  0  0  0  0  0  0  0
  183.7610  175.8960  136.8710 C   0  0  2  0  0  3  0  0  0  0  0  0
  185.2360  176.2130  137.2270 C   0  0  2  0  0  3  0  0  0  0  0  0
  187.0480  176.1380  136.3080 C   0  0  2  0  0  3  0  0  0  0  0  0
  183.5610  175.1780  135.5470 C   0  0  0  0  0  2  0  0  0  0  0  0
  188.3180  176.5840  136.9900 C   0  0  0  0  0  0  0  0  0  0  0  0
  190.5750  177.0850  137.4370 C   0  0  2  0  0  3  0  0  0  0  0  0
  192.2800  175.6840  138.3360 O   0  0  0  0  0  0  0  0  0  0  0  0
  189.5370  176.6820  136.4520 C   0  0  0  0  0  0  0  0  0  0  0  0
  191.1790  175.8010  134.8920 C   0  0  0  0  0  3  0  0  0  0  0  0
  191.7150  176.1040  137.3390 C   0  0  0  0  0  0  0  0  0  0  0  0
  188.3380  176.8530  138.4540 C   0  0  0  0  0  2  0  0  0  0  0  0
  190.3180  177.3610  139.9080 C   0  0  0  0  0  3  0  0  0  0  0  0
  189.7940  177.0680  138.7120 C   0  0  0  0  0  0  0  0  0  0  0  0
  192.2410  175.7450  135.9710 C   0  0  0  0  0  2  0  0  0  0  0  0
  189.9280  176.2180  135.1140 C   0  0  0  0  0  3  0  0  0  0  0  0
  189.3140  177.4430  141.3940 S   0  0  0  0  0  0  0  0  0  0  0  0
  190.5920  176.6210  142.3820 C   0  0  0  0  0  2  0  0  0  0  0  0
  190.3090  176.9690  144.1370 S   0  0  0  0  0  0  0  0  0  0  0  0
  188.5060  176.8080  143.9550 C   0  0  0  0  0  2  0  0  0  0  0  0
  187.7880  177.7440  144.9140 C   0  0  0  0  0  2  0  0  0  0  0  0
  186.3600  177.7210  144.6600 N   0  0  0  0  0  2  0  0  0  0  0  0
  186.1850  177.7060  143.2130 C   0  0  0  0  0  2  0  0  0  0  0  0
  184.4800  179.3160  144.0120 C   0  0  0  0  0  1  0  0  0  0  0  0
  185.1630  178.7530  142.7810 C   0  0  0  0  0  0  0  0  0  0  0  0
  185.8010  179.7920  142.1000 O   0  0  0  0  0  1  0  0  0  0  0  0
  184.1090  178.1200  141.8840 C   0  0  0  0  0  1  0  0  0  0  0  0
  181.2300  176.2430  138.1430 O   0  0  0  0  0  0  0  0  0  0  0  0
  182.9790  177.1250  136.8830 N   0  0  0  0  0  2  0  0  0  0  0  0
  181.1940  178.5470  137.8190 N   0  0  0  0  0  2  0  0  0  0  0  0
  181.7690  177.2580  137.6290 C   0  0  0  0  0  0  0  0  0  0  0  0
  180.1890  180.9740  140.5920 O   0  0  0  0  0  0  0  0  0  0  0  0
  180.2070  178.5770  140.0940 C   0  0  1  0  0  3  0  0  0  0  0  0
  181.6660  181.4510  138.2790 O   0  0  0  0  0  0  0  0  0  0  0  0
  179.3120  182.5300  138.6660 O   0  0  0  0  0  1  0  0  0  0  0  0
  180.1070  181.2680  138.9190 P   0  0  2  0  0  0  0  0  0  0  0  0
  179.9600  178.7370  138.5750 C   0  0  1  0  0  3  0  0  0  0  0  0
  179.3110  179.9400  138.1980 O   0  0  0  0  0  0  0  0  0  0  0  0
  180.9170  179.7840  140.7380 C   0  0  0  0  0  2  0  0  0  0  0  0
  179.1080  178.0810  140.8320 O   0  0  0  0  0  0  0  0  0  0  0  0
  179.2300  178.4810  142.1750 C   0  0  0  0  0  1  0  0  0  0  0  0
  1  3  1  0  0  0  0
  4  3  1  0  0  0  0
  5  1  1  6  0  0  0
  5  7  1  0  0  0  0
  6 33  1  6  0  0  0
  6  7  1  0  0  0  0
  7  2  1  6  0  0  0
  8  2  1  0  0  0  0
  8 10  1  1  0  0  0
  8  5  1  0  0  0  0
  9  4  1  0  0  0  0
  9  6  1  0  0  0  0
 10 16  1  0  0  0  0
 11 13  1  6  0  0  0
 11 18  1  0  0  0  0
 13 10  2  0  0  0  0
 14 20  2  0  0  0  0
 14 19  1  0  0  0  0
 15 11  1  0  0  0  0
 15 12  2  0  0  0  0
 16 18  1  0  0  0  0
 17 21  1  0  0  0  0
 18 17  2  0  0  0  0
 19 15  1  0  0  0  0
 20 13  1  0  0  0  0
 21 22  1  0  0  0  0
 22 23  1  0  0  0  0
 24 23  1  0  0  0  0
 24 25  1  0  0  0  0
 26 25  1  0  0  0  0
 27 26  1  0  0  0  0
 29 27  1  0  0  0  0
 29 28  1  0  0  0  0
 30 29  1  0  0  0  0
 31 29  1  0  0  0  0
 33 35  1  0  0  0  0
 35 34  1  0  0  0  0
 35 32  2  0  0  0  0
 36 43  1  0  0  0  0
 37 43  1  0  0  0  0
 37 44  1  1  0  0  0
 39 40  1  0  0  0  0
 40 38  2  6  0  0  0
 40 36  1  0  0  0  0
 41 34  1  6  0  0  0
 41 37  1  0  0  0  0
 42 41  1  0  0  0  0
 42 40  1  0  0  0  0
 44 45  1  0  0  0  0
M  END
>  <MODEL>
5

>  <REMARK>
 VINA RESULT:      -7.6      4.343     10.504
  Name = 
  12 active torsions:
  status: ('A' for Active; 'I' for Inactive)
    1  A    between atoms: C_1  and  C_41
    2  A    between atoms: N_7  and  C_14
    3  A    between atoms: N_7  and  C_21
    4  A    between atoms: S_8  and  C_9
    5  A    between atoms: S_8  and  C_36
    6  A    between atoms: C_9  and  S_28
    7  A    between atoms: C_12  and  C_21
    8  A    between atoms: N_13  and  C_33
    9  A    between atoms: C_14  and  C_15
   10  A    between atoms: C_15  and  S_28
   11  A    between atoms: C_16  and  O_43
   12  A    between atoms: N_18  and  C_32
                            x       y       z     vdW  Elec       q    Type
                         _______ _______ _______ _____ _____    ______ ____

>  <TORSDO>
F 12

$$$$
=
 OpenBabel11032420443D

 45 49  0  0  1  0  0  0  0  0999 V2000
  186.3580  173.3290  136.0760 C   0  0  0  0  0  2  0  0  0  0  0  0
  185.7000  176.3890  135.9040 C   0  0  0  0  0  2  0  0  0  0  0  0
  185.2890  172.3490  136.5270 C   0  0  0  0  0  2  0  0  0  0  0  0
  184.0630  172.4680  135.6230 C   0  0  0  0  0  2  0  0  0  0  0  0
  186.3680  174.5490  136.8900 N   0  0  2  0  0  0  0  0  0  0  0  0
  183.7570  174.7740  136.5300 C   0  0  2  0  0  3  0  0  0  0  0  0
  185.1400  175.3790  136.8820 C   0  0  2  0  0  3  0  0  0  0  0  0
  186.9650  175.5510  136.0050 C   0  0  2  0  0  3  0  0  0  0  0  0
  183.7310  173.9190  135.2740 C   0  0  0  0  0  2  0  0  0  0  0  0
  188.1130  176.2750  136.6650 C   0  0  0  0  0  0  0  0  0  0  0  0
  190.2420  177.1700  137.1250 C   0  0  2  0  0  3  0  0  0  0  0  0
  192.0720  176.1830  138.2900 O   0  0  0  0  0  0  0  0  0  0  0  0
  189.3370  176.4800  136.1690 C   0  0  0  0  0  0  0  0  0  0  0  0
  191.1830  175.6490  134.8240 C   0  0  0  0  0  3  0  0  0  0  0  0
  191.5150  176.3690  137.2200 C   0  0  0  0  0  0  0  0  0  0  0  0
  188.0030  176.7450  138.0730 C   0  0  0  0  0  2  0  0  0  0  0  0
  189.7940  177.7460  139.5160 C   0  0  0  0  0  3  0  0  0  0  0  0
  189.3940  177.2130  138.3550 C   0  0  0  0  0  0  0  0  0  0  0  0
  192.1720  175.9060  135.9420 C   0  0  0  0  0  2  0  0  0  0  0  0
  189.8730  175.8980  134.9310 C   0  0  0  0  0  3  0  0  0  0  0  0
  188.6990  177.8820  140.9320 S   0  0  0  0  0  0  0  0  0  0  0  0
  190.0870  177.8270  142.0950 C   0  0  0  0  0  2  0  0  0  0  0  0
  189.9500  176.3410  143.1220 S   0  0  0  0  0  0  0  0  0  0  0  0
  191.5650  176.6410  143.9030 C   0  0  0  0  0  2  0  0  0  0  0  0
  191.4140  176.7640  145.4100 C   0  0  0  0  0  2  0  0  0  0  0  0
  190.0300  177.0380  145.7530 N   0  0  0  0  0  2  0  0  0  0  0  0
  189.8790  176.7530  147.1750 C   0  0  0  0  0  2  0  0  0  0  0  0
  187.6650  177.6650  146.5400 C   0  0  0  0  0  1  0  0  0  0  0  0
  188.5740  177.3370  147.7070 C   0  0  0  0  0  0  0  0  0  0  0  0
  187.9370  176.4080  148.5330 O   0  0  0  0  0  1  0  0  0  0  0  0
  188.8500  178.6140  148.4870 C   0  0  0  0  0  1  0  0  0  0  0  0
  182.3460  175.9730  138.7020 O   0  0  0  0  0  0  0  0  0  0  0  0
  182.7690  175.8390  136.4160 N   0  0  0  0  0  2  0  0  0  0  0  0
  181.4310  177.6660  137.3940 N   0  0  0  0  0  2  0  0  0  0  0  0
  182.1790  176.4640  137.5550 C   0  0  0  0  0  0  0  0  0  0  0  0
  181.3750  181.3130  138.5270 O   0  0  0  0  0  0  0  0  0  0  0  0
  181.8680  179.0750  139.3870 C   0  0  1  0  0  3  0  0  0  0  0  0
  181.1440  180.2600  135.9590 O   0  0  0  0  0  0  0  0  0  0  0  0
  179.1690  181.5300  137.1170 O   0  0  0  0  0  1  0  0  0  0  0  0
  180.3210  180.5920  137.4040 P   0  0  2  0  0  0  0  0  0  0  0  0
  180.8100  178.3460  138.5260 C   0  0  1  0  0  3  0  0  0  0  0  0
  179.7240  179.1530  138.1030 O   0  0  0  0  0  0  0  0  0  0  0  0
  182.3950  180.3770  138.7530 C   0  0  0  0  0  2  0  0  0  0  0  0
  181.5580  179.1760  140.7630 O   0  0  0  0  0  0  0  0  0  0  0  0
  182.6100  178.6310  141.5200 C   0  0  0  0  0  1  0  0  0  0  0  0
  1  3  1  0  0  0  0
  2  8  1  0  0  0  0
  4  3  1  0  0  0  0
  5  1  1  6  0  0  0
  6 33  1  6  0  0  0
  6  7  1  0  0  0  0
  7  2  1  6  0  0  0
  7  5  1  0  0  0  0
  8 10  1  1  0  0  0
  8  5  1  0  0  0  0
  9  4  1  0  0  0  0
  9  6  1  0  0  0  0
 10 16  1  0  0  0  0
 11 13  1  6  0  0  0
 11 15  1  0  0  0  0
 11 18  1  0  0  0  0
 13 10  2  0  0  0  0
 14 20  2  0  0  0  0
 14 19  1  0  0  0  0
 15 12  2  0  0  0  0
 16 18  1  0  0  0  0
 17 21  1  0  0  0  0
 18 17  2  0  0  0  0
 19 15  1  0  0  0  0
 20 13  1  0  0  0  0
 21 22  1  0  0  0  0
 22 23  1  0  0  0  0
 23 24  1  0  0  0  0
 24 25  1  0  0  0  0
 25 26  1  0  0  0  0
 26 27  1  0  0  0  0
 27 29  1  0  0  0  0
 28 29  1  0  0  0  0
 29 31  1  0  0  0  0
 29 30  1  0  0  0  0
 33 35  1  0  0  0  0
 34 35  1  0  0  0  0
 35 32  2  0  0  0  0
 36 43  1  0  0  0  0
 37 44  1  1  0  0  0
 39 40  1  0  0  0  0
 40 38  2  6  0  0  0
 40 42  1  0  0  0  0
 40 36  1  0  0  0  0
 41 34  1  6  0  0  0
 41 37  1  0  0  0  0
 42 41  1  0  0  0  0
 43 37  1  0  0  0  0
 44 45  1  0  0  0  0
M  END
>  <MODEL>
6

>  <REMARK>
 VINA RESULT:      -7.5      4.387     10.704
  Name = 
  12 active torsions:
  status: ('A' for Active; 'I' for Inactive)
    1  A    between atoms: C_1  and  C_41
    2  A    between atoms: N_7  and  C_14
    3  A    between atoms: N_7  and  C_21
    4  A    between atoms: S_8  and  C_9
    5  A    between atoms: S_8  and  C_36
    6  A    between atoms: C_9  and  S_28
    7  A    between atoms: C_12  and  C_21
    8  A    between atoms: N_13  and  C_33
    9  A    between atoms: C_14  and  C_15
   10  A    between atoms: C_15  and  S_28
   11  A    between atoms: C_16  and  O_43
   12  A    between atoms: N_18  and  C_32
                            x       y       z     vdW  Elec       q    Type
                         _______ _______ _______ _____ _____    ______ ____

>  <TORSDO>
F 12

$$$$
=
 OpenBabel11032420443D

 45 49  0  0  1  0  0  0  0  0999 V2000
  181.9900  179.2190  142.4400 C   0  0  0  0  0  2  0  0  0  0  0  0
  184.6590  178.8810  140.8320 C   0  0  0  0  0  2  0  0  0  0  0  0
  181.8680  178.6340  143.8370 C   0  0  0  0  0  2  0  0  0  0  0  0
  182.9740  179.1940  144.7300 C   0  0  0  0  0  2  0  0  0  0  0  0
  182.6580  178.3000  141.5140 N   0  0  2  0  0  0  0  0  0  0  0  0
  184.6050  177.9870  143.2760 C   0  0  2  0  0  3  0  0  0  0  0  0
  184.0550  177.9160  141.8300 C   0  0  2  0  0  3  0  0  0  0  0  0
  183.2090  179.1850  140.4850 C   0  0  2  0  0  3  0  0  0  0  0  0
  184.3190  179.2870  144.0090 C   0  0  0  0  0  2  0  0  0  0  0  0
  182.8210  178.7460  139.0940 C   0  0  0  0  0  0  0  0  0  0  0  0
  181.9600  178.7160  136.9040 C   0  0  2  0  0  3  0  0  0  0  0  0
  179.7770  178.1260  136.1500 O   0  0  0  0  0  0  0  0  0  0  0  0
  182.2840  179.4950  138.1270 C   0  0  0  0  0  0  0  0  0  0  0  0
  180.7970  181.3170  137.5150 C   0  0  0  0  0  3  0  0  0  0  0  0
  180.5280  179.0080  136.5320 C   0  0  0  0  0  0  0  0  0  0  0  0
  182.8970  177.3120  138.7030 C   0  0  0  0  0  2  0  0  0  0  0  0
  182.1000  176.2420  136.5800 C   0  0  0  0  0  3  0  0  0  0  0  0
  182.2550  177.3220  137.3540 C   0  0  0  0  0  0  0  0  0  0  0  0
  180.0690  180.4460  136.5120 C   0  0  0  0  0  2  0  0  0  0  0  0
  181.8090  180.8780  138.2720 C   0  0  0  0  0  3  0  0  0  0  0  0
  182.5800  174.6000  137.1250 S   0  0  0  0  0  0  0  0  0  0  0  0
  183.5650  174.3190  135.6300 C   0  0  0  0  0  2  0  0  0  0  0  0
  184.5940  172.8450  135.8580 S   0  0  0  0  0  0  0  0  0  0  0  0
  186.0500  173.8390  136.3060 C   0  0  0  0  0  2  0  0  0  0  0  0
  186.1090  175.1050  135.4660 C   0  0  0  0  0  2  0  0  0  0  0  0
  187.3290  175.8390  135.7520 N   0  0  0  0  0  2  0  0  0  0  0  0
  187.3900  176.0150  137.1980 C   0  0  0  0  0  2  0  0  0  0  0  0
  188.3000  177.5470  138.9180 C   0  0  0  0  0  1  0  0  0  0  0  0
  187.6440  177.4760  137.5540 C   0  0  0  0  0  0  0  0  0  0  0  0
  188.4940  178.0570  136.6100 O   0  0  0  0  0  1  0  0  0  0  0  0
  186.3290  178.2410  137.6020 C   0  0  0  0  0  1  0  0  0  0  0  0
  186.4430  178.7920  145.3060 O   0  0  0  0  0  0  0  0  0  0  0  0
  186.0410  177.7380  143.2690 N   0  0  0  0  0  2  0  0  0  0  0  0
  188.2170  177.5740  144.4190 N   0  0  0  0  0  2  0  0  0  0  0  0
  186.8850  178.0770  144.3690 C   0  0  0  0  0  0  0  0  0  0  0  0
  191.9880  177.1900  144.8880 O   0  0  0  0  0  0  0  0  0  0  0  0
  189.8800  176.6280  145.9980 C   0  0  1  0  0  3  0  0  0  0  0  0
  190.5660  178.0460  142.6520 O   0  0  0  0  0  0  0  0  0  0  0  0
  192.1710  179.6430  143.9670 O   0  0  0  0  0  1  0  0  0  0  0  0
  191.1940  178.5050  144.1580 P   0  0  2  0  0  0  0  0  0  0  0  0
  189.1190  177.8890  145.5220 C   0  0  1  0  0  3  0  0  0  0  0  0
  189.9410  179.0000  145.2080 O   0  0  0  0  0  0  0  0  0  0  0  0
  191.0140  176.1930  145.0500 C   0  0  0  0  0  2  0  0  0  0  0  0
  190.2240  176.6160  147.3690 O   0  0  0  0  0  0  0  0  0  0  0  0
  189.3880  177.5050  148.0680 C   0  0  0  0  0  1  0  0  0  0  0  0
  1  3  1  0  0  0  0
  3  4  1  0  0  0  0
  5  7  1  0  0  0  0
  5  1  1  1  0  0  0
  6 33  1  6  0  0  0
  6  9  1  0  0  0  0
  7  2  1  6  0  0  0
  7  6  1  0  0  0  0
  8 10  1  6  0  0  0
  8  2  1  0  0  0  0
  8  5  1  0  0  0  0
  9  4  1  0  0  0  0
 11 15  1  1  0  0  0
 11 18  1  0  0  0  0
 11 13  1  0  0  0  0
 12 15  2  0  0  0  0
 13 20  1  0  0  0  0
 13 10  2  0  0  0  0
 14 20  2  0  0  0  0
 16 10  1  0  0  0  0
 17 21  1  0  0  0  0
 17 18  2  0  0  0  0
 18 16  1  0  0  0  0
 19 15  1  0  0  0  0
 19 14  1  0  0  0  0
 22 23  1  0  0  0  0
 22 21  1  0  0  0  0
 23 24  1  0  0  0  0
 25 26  1  0  0  0  0
 25 24  1  0  0  0  0
 26 27  1  0  0  0  0
 27 29  1  0  0  0  0
 29 31  1  0  0  0  0
 29 28  1  0  0  0  0
 30 29  1  0  0  0  0
 33 35  1  0  0  0  0
 35 34  1  0  0  0  0
 35 32  2  0  0  0  0
 36 43  1  0  0  0  0
 37 44  1  1  0  0  0
 39 40  1  0  0  0  0
 40 38  2  6  0  0  0
 40 36  1  0  0  0  0
 40 42  1  0  0  0  0
 41 34  1  6  0  0  0
 41 37  1  0  0  0  0
 42 41  1  0  0  0  0
 43 37  1  0  0  0  0
 44 45  1  0  0  0  0
M  END
>  <MODEL>
7

>  <REMARK>
 VINA RESULT:      -7.2      5.125      9.726
  Name = 
  12 active torsions:
  status: ('A' for Active; 'I' for Inactive)
    1  A    between atoms: C_1  and  C_41
    2  A    between atoms: N_7  and  C_14
    3  A    between atoms: N_7  and  C_21
    4  A    between atoms: S_8  and  C_9
    5  A    between atoms: S_8  and  C_36
    6  A    between atoms: C_9  and  S_28
    7  A    between atoms: C_12  and  C_21
    8  A    between atoms: N_13  and  C_33
    9  A    between atoms: C_14  and  C_15
   10  A    between atoms: C_15  and  S_28
   11  A    between atoms: C_16  and  O_43
   12  A    between atoms: N_18  and  C_32
                            x       y       z     vdW  Elec       q    Type
                         _______ _______ _______ _____ _____    ______ ____

>  <TORSDO>
F 12

$$$$
=
 OpenBabel11032420443D

 45 49  0  0  1  0  0  0  0  0999 V2000
  188.5260  172.7920  135.8060 C   0  0  0  0  0  2  0  0  0  0  0  0
  187.6820  175.8100  135.8670 C   0  0  0  0  0  2  0  0  0  0  0  0
  187.5040  171.7140  136.1170 C   0  0  0  0  0  2  0  0  0  0  0  0
  186.3140  171.8390  135.1670 C   0  0  0  0  0  2  0  0  0  0  0  0
  188.4220  173.9320  136.7220 N   0  0  2  0  0  0  0  0  0  0  0  0
  185.8210  174.0320  136.2540 C   0  0  2  0  0  3  0  0  0  0  0  0
  187.1450  174.6850  136.7250 C   0  0  2  0  0  3  0  0  0  0  0  0
  188.9930  175.0440  135.9580 C   0  0  2  0  0  3  0  0  0  0  0  0
  185.9050  173.2930  134.9290 C   0  0  0  0  0  2  0  0  0  0  0  0
  190.0610  175.7740  136.7350 C   0  0  0  0  0  0  0  0  0  0  0  0
  192.1100  176.7360  137.3840 C   0  0  2  0  0  3  0  0  0  0  0  0
  193.9200  175.7580  138.5860 O   0  0  0  0  0  0  0  0  0  0  0  0
  191.2990  176.0740  136.3290 C   0  0  0  0  0  0  0  0  0  0  0  0
  193.2590  175.4320  135.0440 C   0  0  0  0  0  3  0  0  0  0  0  0
  193.4160  175.9930  137.5000 C   0  0  0  0  0  0  0  0  0  0  0  0
  189.8470  176.1350  138.1620 C   0  0  0  0  0  2  0  0  0  0  0  0
  191.4970  177.1150  139.7770 C   0  0  0  0  0  3  0  0  0  0  0  0
  191.1920  176.6490  138.5600 C   0  0  0  0  0  0  0  0  0  0  0  0
  194.1690  175.6560  136.2350 C   0  0  0  0  0  2  0  0  0  0  0  0
  191.9340  175.6090  135.0880 C   0  0  0  0  0  3  0  0  0  0  0  0
  190.3180  177.0950  141.1300 S   0  0  0  0  0  0  0  0  0  0  0  0
  191.6040  177.4860  142.3450 C   0  0  0  0  0  2  0  0  0  0  0  0
  191.4540  176.3620  143.7580 S   0  0  0  0  0  0  0  0  0  0  0  0
  190.8310  177.6850  144.8400 C   0  0  0  0  0  2  0  0  0  0  0  0
  190.3220  177.1070  146.1500 C   0  0  0  0  0  2  0  0  0  0  0  0
  188.9210  177.4410  146.3330 N   0  0  0  0  0  2  0  0  0  0  0  0
  188.4860  178.1270  145.1220 C   0  0  0  0  0  2  0  0  0  0  0  0
  187.6330  176.3610  143.6090 C   0  0  0  0  0  1  0  0  0  0  0  0
  187.2290  177.4750  144.5540 C   0  0  0  0  0  0  0  0  0  0  0  0
  186.4600  176.9370  145.5890 O   0  0  0  0  0  1  0  0  0  0  0  0
  186.4090  178.4990  143.7830 C   0  0  0  0  0  1  0  0  0  0  0  0
  183.8950  174.5750  138.2890 O   0  0  0  0  0  0  0  0  0  0  0  0
  184.7730  175.0410  136.1830 N   0  0  0  0  0  2  0  0  0  0  0  0
  183.0910  176.4960  137.2500 N   0  0  0  0  0  2  0  0  0  0  0  0
  183.9090  175.3300  137.2820 C   0  0  0  0  0  0  0  0  0  0  0  0
  181.2540  179.7060  138.2090 O   0  0  0  0  0  0  0  0  0  0  0  0
  182.7480  178.0230  139.1740 C   0  0  1  0  0  3  0  0  0  0  0  0
  181.6190  178.5650  135.6940 O   0  0  0  0  0  0  0  0  0  0  0  0
  179.2510  178.7690  136.7910 O   0  0  0  0  0  1  0  0  0  0  0  0
  180.7050  178.5190  137.1210 P   0  0  2  0  0  0  0  0  0  0  0  0
  182.1930  176.8380  138.3490 C   0  0  1  0  0  3  0  0  0  0  0  0
  180.8620  177.0010  137.8890 O   0  0  0  0  0  0  0  0  0  0  0  0
  182.5950  179.3890  138.4790 C   0  0  0  0  0  2  0  0  0  0  0  0
  182.3950  178.0190  140.5440 O   0  0  0  0  0  0  0  0  0  0  0  0
  183.5540  178.1840  141.3230 C   0  0  0  0  0  1  0  0  0  0  0  0
  1  3  1  0  0  0  0
  2  8  1  0  0  0  0
  4  3  1  0  0  0  0
  5  1  1  6  0  0  0
  5  7  1  0  0  0  0
  6 33  1  6  0  0  0
  6  7  1  0  0  0  0
  7  2  1  6  0  0  0
  8  5  1  0  0  0  0
  8 10  1  1  0  0  0
  9  4  1  0  0  0  0
  9  6  1  0  0  0  0
 10 16  1  0  0  0  0
 11 13  1  6  0  0  0
 11 15  1  0  0  0  0
 11 18  1  0  0  0  0
 13 10  2  0  0  0  0
 14 20  2  0  0  0  0
 14 19  1  0  0  0  0
 15 12  2  0  0  0  0
 16 18  1  0  0  0  0
 17 21  1  0  0  0  0
 18 17  2  0  0  0  0
 19 15  1  0  0  0  0
 20 13  1  0  0  0  0
 21 22  1  0  0  0  0
 22 23  1  0  0  0  0
 23 24  1  0  0  0  0
 24 25  1  0  0  0  0
 25 26  1  0  0  0  0
 27 26  1  0  0  0  0
 28 29  1  0  0  0  0
 29 27  1  0  0  0  0
 29 30  1  0  0  0  0
 31 29  1  0  0  0  0
 33 35  1  0  0  0  0
 34 35  1  0  0  0  0
 35 32  2  0  0  0  0
 36 43  1  0  0  0  0
 37 44  1  1  0  0  0
 39 40  1  0  0  0  0
 40 38  2  6  0  0  0
 40 42  1  0  0  0  0
 40 36  1  0  0  0  0
 41 34  1  6  0  0  0
 41 37  1  0  0  0  0
 42 41  1  0  0  0  0
 43 37  1  0  0  0  0
 44 45  1  0  0  0  0
M  END
>  <MODEL>
8

>  <REMARK>
 VINA RESULT:      -7.2      4.346      9.868
  Name = 
  12 active torsions:
  status: ('A' for Active; 'I' for Inactive)
    1  A    between atoms: C_1  and  C_41
    2  A    between atoms: N_7  and  C_14
    3  A    between atoms: N_7  and  C_21
    4  A    between atoms: S_8  and  C_9
    5  A    between atoms: S_8  and  C_36
    6  A    between atoms: C_9  and  S_28
    7  A    between atoms: C_12  and  C_21
    8  A    between atoms: N_13  and  C_33
    9  A    between atoms: C_14  and  C_15
   10  A    between atoms: C_15  and  S_28
   11  A    between atoms: C_16  and  O_43
   12  A    between atoms: N_18  and  C_32
                            x       y       z     vdW  Elec       q    Type
                         _______ _______ _______ _____ _____    ______ ____

>  <TORSDO>
F 12

$$$$
=
 OpenBabel11032420443D

 45 49  0  0  1  0  0  0  0  0999 V2000
  188.4340  178.7000  139.2680 C   0  0  0  0  0  2  0  0  0  0  0  0
  185.3190  178.6530  138.9270 C   0  0  0  0  0  2  0  0  0  0  0  0
  189.3190  178.0200  138.2370 C   0  0  0  0  0  2  0  0  0  0  0  0
  189.0370  178.5980  136.8510 C   0  0  0  0  0  2  0  0  0  0  0  0
  187.2580  177.8910  139.6060 N   0  0  2  0  0  0  0  0  0  0  0  0
  186.7530  177.6030  137.0250 C   0  0  2  0  0  3  0  0  0  0  0  0
  186.3080  177.5860  138.5090 C   0  0  2  0  0  3  0  0  0  0  0  0
  186.2850  178.8760  140.0800 C   0  0  2  0  0  3  0  0  0  0  0  0
  187.5450  178.8300  136.6060 C   0  0  0  0  0  2  0  0  0  0  0  0
  185.7100  178.5010  141.4240 C   0  0  0  0  0  0  0  0  0  0  0  0
  184.2110  178.0170  143.1740 C   0  0  2  0  0  3  0  0  0  0  0  0
  183.2270  179.4920  144.7670 O   0  0  0  0  0  0  0  0  0  0  0  0
  184.4240  178.3020  141.7310 C   0  0  0  0  0  0  0  0  0  0  0  0
  182.1010  178.9180  141.3770 C   0  0  0  0  0  3  0  0  0  0  0  0
  183.1380  178.9490  143.6770 C   0  0  0  0  0  0  0  0  0  0  0  0
  186.5800  178.4400  142.6300 C   0  0  0  0  0  2  0  0  0  0  0  0
  185.8950  178.0970  145.0180 C   0  0  0  0  0  3  0  0  0  0  0  0
  185.5840  178.2300  143.7240 C   0  0  0  0  0  0  0  0  0  0  0  0
  181.8760  179.1010  142.8640 C   0  0  0  0  0  2  0  0  0  0  0  0
  183.2780  178.5650  140.8500 C   0  0  0  0  0  3  0  0  0  0  0  0
  187.5820  178.2460  145.6140 S   0  0  0  0  0  0  0  0  0  0  0  0
  187.1200  177.6640  147.2670 C   0  0  0  0  0  2  0  0  0  0  0  0
  188.6210  177.3490  148.2330 S   0  0  0  0  0  0  0  0  0  0  0  0
  189.7010  177.7530  146.8260 C   0  0  0  0  0  2  0  0  0  0  0  0
  190.7010  176.6340  146.5840 C   0  0  0  0  0  2  0  0  0  0  0  0
  191.6790  177.0430  145.5930 N   0  0  0  0  0  2  0  0  0  0  0  0
  191.4390  176.2400  144.4000 C   0  0  0  0  0  2  0  0  0  0  0  0
  190.8620  178.5490  143.7160 C   0  0  0  0  0  1  0  0  0  0  0  0
  191.0190  177.1220  143.2300 C   0  0  0  0  0  0  0  0  0  0  0  0
  191.9950  177.0880  142.2310 O   0  0  0  0  0  1  0  0  0  0  0  0
  189.6880  176.6480  142.6650 C   0  0  0  0  0  1  0  0  0  0  0  0
  185.0100  175.3440  136.9560 O   0  0  0  0  0  0  0  0  0  0  0  0
  185.5900  177.4550  136.1610 N   0  0  0  0  0  2  0  0  0  0  0  0
  183.4470  176.3810  135.5790 N   0  0  0  0  0  2  0  0  0  0  0  0
  184.7000  176.3420  136.2540 C   0  0  0  0  0  0  0  0  0  0  0  0
  179.9190  176.0480  137.0060 O   0  0  0  0  0  0  0  0  0  0  0  0
  182.1090  174.9580  137.1070 C   0  0  1  0  0  3  0  0  0  0  0  0
  181.0440  178.1400  135.5520 O   0  0  0  0  0  1  0  0  0  0  0  0
  179.0790  176.6940  134.6020 O   0  0  0  0  0  0  0  0  0  0  0  0
  180.3270  176.6070  135.4520 P   0  0  2  0  0  0  0  0  0  0  0  0
  182.5010  175.2710  135.6440 C   0  0  1  0  0  3  0  0  0  0  0  0
  181.4090  175.4790  134.7640 O   0  0  0  0  0  0  0  0  0  0  0  0
  181.1260  175.9750  137.7180 C   0  0  0  0  0  2  0  0  0  0  0  0
  181.7900  173.6050  137.3670 O   0  0  0  0  0  0  0  0  0  0  0  0
  182.4120  172.7870  136.4070 C   0  0  0  0  0  1  0  0  0  0  0  0
  2  8  1  0  0  0  0
  3  1  1  0  0  0  0
  4  3  1  0  0  0  0
  5  1  1  6  0  0  0
  5  8  1  0  0  0  0
  6 33  1  6  0  0  0
  6  7  1  0  0  0  0
  7  2  1  6  0  0  0
  7  5  1  0  0  0  0
  8 10  1  1  0  0  0
  9  4  1  0  0  0  0
  9  6  1  0  0  0  0
 10 13  2  0  0  0  0
 10 16  1  0  0  0  0
 11 13  1  6  0  0  0
 11 15  1  0  0  0  0
 11 18  1  0  0  0  0
 14 19  1  0  0  0  0
 15 12  2  0  0  0  0
 16 18  1  0  0  0  0
 17 21  1  0  0  0  0
 18 17  2  0  0  0  0
 19 15  1  0  0  0  0
 20 14  2  0  0  0  0
 20 13  1  0  0  0  0
 21 22  1  0  0  0  0
 22 23  1  0  0  0  0
 24 23  1  0  0  0  0
 25 24  1  0  0  0  0
 26 25  1  0  0  0  0
 27 26  1  0  0  0  0
 29 28  1  0  0  0  0
 29 27  1  0  0  0  0
 30 29  1  0  0  0  0
 31 29  1  0  0  0  0
 33 35  1  0  0  0  0
 34 35  1  0  0  0  0
 35 32  2  0  0  0  0
 36 43  1  0  0  0  0
 37 44  1  6  0  0  0
 37 43  1  0  0  0  0
 40 39  2  6  0  0  0
 40 38  1  0  0  0  0
 40 36  1  0  0  0  0
 41 34  1  1  0  0  0
 41 37  1  0  0  0  0
 42 40  1  0  0  0  0
 42 41  1  0  0  0  0
 45 44  1  0  0  0  0
M  END
>  <MODEL>
9

>  <REMARK>
 VINA RESULT:      -7.2      4.814      9.230
  Name = 
  12 active torsions:
  status: ('A' for Active; 'I' for Inactive)
    1  A    between atoms: C_1  and  C_41
    2  A    between atoms: N_7  and  C_14
    3  A    between atoms: N_7  and  C_21
    4  A    between atoms: S_8  and  C_9
    5  A    between atoms: S_8  and  C_36
    6  A    between atoms: C_9  and  S_28
    7  A    between atoms: C_12  and  C_21
    8  A    between atoms: N_13  and  C_33
    9  A    between atoms: C_14  and  C_15
   10  A    between atoms: C_15  and  S_28
   11  A    between atoms: C_16  and  O_43
   12  A    between atoms: N_18  and  C_32
                            x       y       z     vdW  Elec       q    Type
                         _______ _______ _______ _____ _____    ______ ____

>  <TORSDO>
F 12

$$$$
