=
 OpenBabel11042412573D

 42 46  0  0  1  0  0  0  0  0999 V2000
  191.5700  175.6850  136.5530 C   0  0  0  0  0  0  0  0  0  0  0  0
  191.7820  176.4310  137.6060 N   0  0  0  0  0  0  0  0  0  0  0  0
  188.6580  173.2850  136.8080 C   0  0  0  0  0  3  0  0  0  0  0  0
  189.7930  173.9290  137.0940 C   0  0  0  0  0  3  0  0  0  0  0  0
  188.1820  174.9670  135.0750 N   0  0  0  0  0  2  0  0  0  0  0  0
  187.8640  173.6250  135.5740 C   0  0  2  0  0  3  0  0  0  0  0  0
  190.2680  175.0510  136.2590 C   0  0  0  0  0  0  0  0  0  0  0  0
  189.4540  175.5700  135.3320 C   0  0  0  0  0  3  0  0  0  0  0  0
  185.9680  173.9700  137.1890 C   0  0  0  0  0  2  0  0  0  0  0  0
  184.7750  173.2560  137.5960 N   0  0  0  0  0  2  0  0  0  0  0  0
  183.5880  171.3250  137.0430 O   0  0  0  0  0  0  0  0  0  0  0  0
  185.8270  171.7080  135.6410 S   0  0  0  0  0  0  0  0  0  0  0  0
  184.5950  172.0590  136.8670 C   0  0  0  0  0  0  0  0  0  0  0  0
  186.3670  173.4520  135.8060 C   0  0  2  0  0  3  0  0  0  0  0  0
  188.8960  178.2980  139.1250 C   0  0  0  0  0  3  0  0  0  0  0  0
  190.1330  177.1650  140.8690 C   0  0  0  0  0  3  0  0  0  0  0  0
  189.7760  177.7830  138.1690 C   0  0  0  0  0  3  0  0  0  0  0  0
  191.0110  176.6470  139.9120 C   0  0  0  0  0  3  0  0  0  0  0  0
  189.0760  177.9910  140.4770 C   0  0  0  0  0  0  0  0  0  0  0  0
  190.8260  176.9330  138.5530 C   0  0  0  0  0  0  0  0  0  0  0  0
  188.1130  178.5040  141.4880 C   0  0  0  0  0  2  0  0  0  0  0  0
  187.6960  177.4490  142.3180 O   0  0  0  0  0  0  0  0  0  0  0  0
  187.6450  177.9830  147.9990 C   0  0  0  0  0  1  0  0  0  0  0  0
  187.7360  177.8770  143.6640 C   0  0  1  0  0  3  0  0  0  0  0  0
  187.5670  177.5010  146.5670 C   0  0  2  0  0  3  0  0  0  0  0  0
  188.9100  177.7250  145.8850 C   0  0  0  0  0  2  0  0  0  0  0  0
  186.3610  177.8170  144.3790 C   0  0  1  0  0  3  0  0  0  0  0  0
  188.8600  177.1950  144.4580 C   0  0  0  0  0  2  0  0  0  0  0  0
  186.4840  178.2810  145.8310 C   0  0  0  0  0  2  0  0  0  0  0  0
  184.5710  177.9110  142.7560 O   0  0  0  0  0  1  0  0  0  0  0  0
  185.2880  178.6650  143.6900 C   0  0  1  0  0  3  0  0  0  0  0  0
  182.9180  178.8690  144.4360 C   0  0  0  0  0  1  0  0  0  0  0  0
  184.3470  179.3010  144.6990 C   0  0  0  0  0  2  0  0  0  0  0  0
  192.7130  175.3830  135.6290 C   0  0  2  0  0  3  0  0  0  0  0  0
  194.3270  177.0060  136.4690 O   0  0  0  0  0  0  0  0  0  0  0  0
  192.9110  173.9440  135.5160 N   0  0  0  0  0  0  0  0  0  0  0  0
  194.8880  174.7200  136.3950 N   0  0  0  0  0  2  0  0  0  0  0  0
  194.0130  175.8160  136.2030 C   0  0  0  0  0  0  0  0  0  0  0  0
  194.0990  173.6320  135.9290 C   0  0  0  0  0  0  0  0  0  0  0  0
  194.5870  172.2270  135.9420 C   0  0  0  0  0  2  0  0  0  0  0  0
  193.5050  171.3540  136.0440 O   0  0  0  0  0  0  0  0  0  0  0  0
  193.8760  170.2480  135.2820 C   0  0  0  0  0  1  0  0  0  0  0  0
  1  2  2  0  0  0  0
  2 20  1  0  0  0  0
  3  4  2  0  0  0  0
  5  8  1  0  0  0  0
  5  6  1  0  0  0  0
  6 14  1  0  0  0  0
  6  3  1  1  0  0  0
  7  1  1  0  0  0  0
  7  4  1  0  0  0  0
  8  7  2  0  0  0  0
  9 10  1  0  0  0  0
 12 14  1  0  0  0  0
 12 13  1  0  0  0  0
 13 11  2  0  0  0  0
 13 10  1  0  0  0  0
 14  9  1  1  0  0  0
 15 19  1  0  0  0  0
 17 20  1  0  0  0  0
 17 15  2  0  0  0  0
 18 16  1  0  0  0  0
 19 16  2  0  0  0  0
 19 21  1  0  0  0  0
 20 18  2  0  0  0  0
 21 22  1  0  0  0  0
 24 22  1  6  0  0  0
 24 27  1  0  0  0  0
 24 28  1  0  0  0  0
 25 23  1  1  0  0  0
 26 25  1  0  0  0  0
 27 31  1  6  0  0  0
 27 29  1  0  0  0  0
 28 26  1  0  0  0  0
 29 25  1  0  0  0  0
 31 30  1  6  0  0  0
 31 33  1  0  0  0  0
 32 33  1  0  0  0  0
 34 38  1  0  0  0  0
 34  1  1  1  0  0  0
 36 34  1  0  0  0  0
 36 39  2  0  0  0  0
 38 37  1  0  0  0  0
 38 35  2  0  0  0  0
 39 40  1  0  0  0  0
 39 37  1  0  0  0  0
 40 41  1  0  0  0  0
 42 41  1  0  0  0  0
M  END
>  <MODEL>
1

>  <REMARK>
 VINA RESULT:      -8.3      0.000      0.000
  Name = 
  11 active torsions:
  status: ('A' for Active; 'I' for Inactive)
    1  A    between atoms: C_7  and  C_17
    2  A    between atoms: C_7  and  C_20
    3  A    between atoms: O_8  and  C_34
    4  A    between atoms: C_9  and  O_37
    5  A    between atoms: C_15  and  C_29
    6  A    between atoms: C_15  and  O_37
    7  A    between atoms: C_18  and  C_35
    8  A    between atoms: C_24  and  C_26
    9  A    between atoms: C_24  and  C_31
   10  A    between atoms: C_34  and  C_41
   11  A    between atoms: N_40  and  C_42
                            x       y       z     vdW  Elec       q    Type
                         _______ _______ _______ _____ _____    ______ ____

>  <TORSDO>
F 11

$$$$
=
 OpenBabel11042412573D

 42 46  0  0  1  0  0  0  0  0999 V2000
  181.7660  178.8910  141.2920 C   0  0  0  0  0  0  0  0  0  0  0  0
  181.9720  179.0660  142.5710 N   0  0  0  0  0  0  0  0  0  0  0  0
  184.0710  176.9440  139.0110 C   0  0  0  0  0  3  0  0  0  0  0  0
  183.0530  177.2400  139.8240 C   0  0  0  0  0  3  0  0  0  0  0  0
  184.5900  179.3440  138.8430 N   0  0  0  0  0  2  0  0  0  0  0  0
  185.0980  177.9820  138.6440 C   0  0  2  0  0  3  0  0  0  0  0  0
  182.8500  178.6150  140.3270 C   0  0  0  0  0  0  0  0  0  0  0  0
  183.5620  179.6180  139.7990 C   0  0  0  0  0  3  0  0  0  0  0  0
  184.8780  176.6330  136.5340 C   0  0  0  0  0  2  0  0  0  0  0  0
  185.7610  176.0860  135.5250 N   0  0  0  0  0  2  0  0  0  0  0  0
  188.0250  176.0900  134.9580 O   0  0  0  0  0  0  0  0  0  0  0  0
  187.4200  177.4390  137.1820 S   0  0  0  0  0  0  0  0  0  0  0  0
  187.1120  176.4310  135.7550 C   0  0  0  0  0  0  0  0  0  0  0  0
  185.6200  177.7780  137.2260 C   0  0  2  0  0  3  0  0  0  0  0  0
  185.5100  178.1710  143.4720 C   0  0  0  0  0  3  0  0  0  0  0  0
  184.2840  178.7410  145.4790 C   0  0  0  0  0  3  0  0  0  0  0  0
  184.3670  178.4180  142.7060 C   0  0  0  0  0  3  0  0  0  0  0  0
  183.1420  178.9920  144.7120 C   0  0  0  0  0  3  0  0  0  0  0  0
  185.4670  178.3290  144.8600 C   0  0  0  0  0  0  0  0  0  0  0  0
  183.1800  178.8550  143.3180 C   0  0  0  0  0  0  0  0  0  0  0  0
  186.6960  178.1080  145.6690 C   0  0  0  0  0  2  0  0  0  0  0  0
  187.8310  178.2600  144.8530 O   0  0  0  0  0  0  0  0  0  0  0  0
  192.3070  175.8200  147.4160 C   0  0  0  0  0  1  0  0  0  0  0  0
  188.8560  177.4100  145.3250 C   0  0  1  0  0  3  0  0  0  0  0  0
  191.2380  176.7620  146.9060 C   0  0  2  0  0  3  0  0  0  0  0  0
  189.8680  176.2350  147.3070 C   0  0  0  0  0  2  0  0  0  0  0  0
  190.2710  177.8040  144.8270 C   0  0  1  0  0  3  0  0  0  0  0  0
  188.7860  177.2020  146.8450 C   0  0  0  0  0  2  0  0  0  0  0  0
  191.3280  176.8500  145.3870 C   0  0  0  0  0  2  0  0  0  0  0  0
  191.7250  177.7090  142.8970 O   0  0  0  0  0  1  0  0  0  0  0  0
  190.3900  177.8140  143.3000 C   0  0  1  0  0  3  0  0  0  0  0  0
  189.0270  177.1590  141.3190 C   0  0  0  0  0  1  0  0  0  0  0  0
  189.5530  176.7150  142.6690 C   0  0  0  0  0  2  0  0  0  0  0  0
  180.3770  179.0530  140.7460 C   0  0  2  0  0  3  0  0  0  0  0  0
  179.7050  181.0400  141.9880 O   0  0  0  0  0  0  0  0  0  0  0  0
  180.3770  178.8960  139.2970 N   0  0  0  0  0  0  0  0  0  0  0  0
  179.6210  181.0400  139.6350 N   0  0  0  0  0  2  0  0  0  0  0  0
  179.8890  180.4480  140.8920 C   0  0  0  0  0  0  0  0  0  0  0  0
  179.9520  179.9860  138.7390 C   0  0  0  0  0  0  0  0  0  0  0  0
  179.8510  180.1290  137.2620 C   0  0  0  0  0  2  0  0  0  0  0  0
  180.8400  180.9980  136.8040 O   0  0  0  0  0  0  0  0  0  0  0  0
  180.1390  182.0080  136.1490 C   0  0  0  0  0  1  0  0  0  0  0  0
  1  2  2  0  0  0  0
  2 20  1  0  0  0  0
  3  4  2  0  0  0  0
  4  7  1  0  0  0  0
  5  8  1  0  0  0  0
  6  5  1  0  0  0  0
  6  3  1  6  0  0  0
  7  1  1  0  0  0  0
  8  7  2  0  0  0  0
 10 13  1  0  0  0  0
 10  9  1  0  0  0  0
 11 13  2  0  0  0  0
 12 14  1  0  0  0  0
 13 12  1  0  0  0  0
 14  9  1  1  0  0  0
 14  6  1  0  0  0  0
 15 19  1  0  0  0  0
 17 20  1  0  0  0  0
 17 15  2  0  0  0  0
 18 16  1  0  0  0  0
 19 16  2  0  0  0  0
 19 21  1  0  0  0  0
 20 18  2  0  0  0  0
 22 21  1  0  0  0  0
 24 22  1  1  0  0  0
 24 28  1  0  0  0  0
 25 26  1  0  0  0  0
 25 23  1  6  0  0  0
 27 31  1  6  0  0  0
 27 24  1  0  0  0  0
 27 29  1  0  0  0  0
 28 26  1  0  0  0  0
 29 25  1  0  0  0  0
 31 30  1  1  0  0  0
 32 33  1  0  0  0  0
 33 31  1  0  0  0  0
 34 38  1  0  0  0  0
 34  1  1  6  0  0  0
 36 34  1  0  0  0  0
 37 38  1  0  0  0  0
 38 35  2  0  0  0  0
 39 36  2  0  0  0  0
 39 37  1  0  0  0  0
 40 39  1  0  0  0  0
 41 40  1  0  0  0  0
 42 41  1  0  0  0  0
M  END
>  <MODEL>
2

>  <REMARK>
 VINA RESULT:      -8.3      4.567      9.353
  Name = 
  11 active torsions:
  status: ('A' for Active; 'I' for Inactive)
    1  A    between atoms: C_7  and  C_17
    2  A    between atoms: C_7  and  C_20
    3  A    between atoms: O_8  and  C_34
    4  A    between atoms: C_9  and  O_37
    5  A    between atoms: C_15  and  C_29
    6  A    between atoms: C_15  and  O_37
    7  A    between atoms: C_18  and  C_35
    8  A    between atoms: C_24  and  C_26
    9  A    between atoms: C_24  and  C_31
   10  A    between atoms: C_34  and  C_41
   11  A    between atoms: N_40  and  C_42
                            x       y       z     vdW  Elec       q    Type
                         _______ _______ _______ _____ _____    ______ ____

>  <TORSDO>
F 11

$$$$
=
 OpenBabel11042412573D

 42 46  0  0  1  0  0  0  0  0999 V2000
  192.1580  175.3880  136.6620 C   0  0  0  0  0  0  0  0  0  0  0  0
  192.3630  176.1240  137.7230 N   0  0  0  0  0  0  0  0  0  0  0  0
  189.0360  173.2610  136.8370 C   0  0  0  0  0  3  0  0  0  0  0  0
  190.1950  173.8330  137.1740 C   0  0  0  0  0  3  0  0  0  0  0  0
  188.8570  174.8210  134.9420 N   0  0  0  0  0  2  0  0  0  0  0  0
  188.3820  173.5570  135.5140 C   0  0  2  0  0  3  0  0  0  0  0  0
  190.8360  174.8380  136.3010 C   0  0  0  0  0  0  0  0  0  0  0  0
  190.1510  175.3390  135.2650 C   0  0  0  0  0  3  0  0  0  0  0  0
  186.3760  174.4490  136.7390 C   0  0  0  0  0  2  0  0  0  0  0  0
  185.1020  173.9410  137.2040 N   0  0  0  0  0  2  0  0  0  0  0  0
  183.8320  171.9860  137.1150 O   0  0  0  0  0  0  0  0  0  0  0  0
  186.2120  171.8360  135.9160 S   0  0  0  0  0  0  0  0  0  0  0  0
  184.9020  172.5900  136.8430 C   0  0  0  0  0  0  0  0  0  0  0  0
  186.8610  173.5250  135.6210 C   0  0  2  0  0  3  0  0  0  0  0  0
  190.4080  176.9440  140.8260 C   0  0  0  0  0  3  0  0  0  0  0  0
  189.3590  177.9870  138.9110 C   0  0  0  0  0  3  0  0  0  0  0  0
  191.3990  176.4170  139.9940 C   0  0  0  0  0  3  0  0  0  0  0  0
  190.3540  177.4620  138.0790 C   0  0  0  0  0  3  0  0  0  0  0  0
  189.3850  177.7270  140.2840 C   0  0  0  0  0  0  0  0  0  0  0  0
  191.3930  176.6930  138.6170 C   0  0  0  0  0  0  0  0  0  0  0  0
  188.3550  178.3230  141.1770 C   0  0  0  0  0  2  0  0  0  0  0  0
  188.4450  177.7410  142.4540 O   0  0  0  0  0  0  0  0  0  0  0  0
  183.3810  178.9700  144.7800 C   0  0  0  0  0  1  0  0  0  0  0  0
  187.1650  177.7410  143.0510 C   0  0  1  0  0  3  0  0  0  0  0  0
  184.7640  179.0020  144.1660 C   0  0  2  0  0  3  0  0  0  0  0  0
  184.7280  178.3210  142.8050 C   0  0  0  0  0  2  0  0  0  0  0  0
  187.1550  178.2860  144.5040 C   0  0  1  0  0  3  0  0  0  0  0  0
  186.1030  178.3930  142.1540 C   0  0  0  0  0  2  0  0  0  0  0  0
  185.7380  178.2680  145.0800 C   0  0  0  0  0  2  0  0  0  0  0  0
  189.3600  178.0410  145.4650 O   0  0  0  0  0  1  0  0  0  0  0  0
  188.0700  177.5000  145.4470 C   0  0  1  0  0  3  0  0  0  0  0  0
  188.6030  177.5740  147.8810 C   0  0  0  0  0  1  0  0  0  0  0  0
  187.4980  177.4350  146.8530 C   0  0  0  0  0  2  0  0  0  0  0  0
  193.3270  175.0080  135.8000 C   0  0  2  0  0  3  0  0  0  0  0  0
  193.6360  177.1170  134.6180 O   0  0  0  0  0  0  0  0  0  0  0  0
  194.3300  174.2990  136.5850 N   0  0  0  0  0  0  0  0  0  0  0  0
  195.4220  176.1760  135.8290 N   0  0  0  0  0  2  0  0  0  0  0  0
  194.0900  176.2000  135.3520 C   0  0  0  0  0  0  0  0  0  0  0  0
  195.4460  174.9570  136.5650 C   0  0  0  0  0  0  0  0  0  0  0  0
  196.6550  174.4830  137.2880 C   0  0  0  0  0  2  0  0  0  0  0  0
  197.7250  175.3380  137.0300 O   0  0  0  0  0  0  0  0  0  0  0  0
  198.7470  174.4960  136.5970 C   0  0  0  0  0  1  0  0  0  0  0  0
  1  2  2  0  0  0  0
  2 20  1  0  0  0  0
  3  4  2  0  0  0  0
  5  8  1  0  0  0  0
  5  6  1  0  0  0  0
  6 14  1  0  0  0  0
  6  3  1  1  0  0  0
  7  1  1  0  0  0  0
  7  4  1  0  0  0  0
  8  7  2  0  0  0  0
  9 10  1  0  0  0  0
 12 13  1  0  0  0  0
 13 11  2  0  0  0  0
 13 10  1  0  0  0  0
 14 12  1  0  0  0  0
 14  9  1  1  0  0  0
 16 19  2  0  0  0  0
 17 15  2  0  0  0  0
 18 20  2  0  0  0  0
 18 16  1  0  0  0  0
 19 15  1  0  0  0  0
 19 21  1  0  0  0  0
 20 17  1  0  0  0  0
 21 22  1  0  0  0  0
 24 22  1  6  0  0  0
 24 27  1  0  0  0  0
 25 23  1  1  0  0  0
 25 29  1  0  0  0  0
 26 25  1  0  0  0  0
 27 29  1  0  0  0  0
 27 31  1  1  0  0  0
 28 26  1  0  0  0  0
 28 24  1  0  0  0  0
 31 30  1  1  0  0  0
 31 33  1  0  0  0  0
 33 32  1  0  0  0  0
 34 36  1  0  0  0  0
 34  1  1  1  0  0  0
 35 38  2  0  0  0  0
 37 39  1  0  0  0  0
 38 34  1  0  0  0  0
 38 37  1  0  0  0  0
 39 36  2  0  0  0  0
 39 40  1  0  0  0  0
 41 40  1  0  0  0  0
 42 41  1  0  0  0  0
M  END
>  <MODEL>
3

>  <REMARK>
 VINA RESULT:      -8.0      1.615      2.813
  Name = 
  11 active torsions:
  status: ('A' for Active; 'I' for Inactive)
    1  A    between atoms: C_7  and  C_17
    2  A    between atoms: C_7  and  C_20
    3  A    between atoms: O_8  and  C_34
    4  A    between atoms: C_9  and  O_37
    5  A    between atoms: C_15  and  C_29
    6  A    between atoms: C_15  and  O_37
    7  A    between atoms: C_18  and  C_35
    8  A    between atoms: C_24  and  C_26
    9  A    between atoms: C_24  and  C_31
   10  A    between atoms: C_34  and  C_41
   11  A    between atoms: N_40  and  C_42
                            x       y       z     vdW  Elec       q    Type
                         _______ _______ _______ _____ _____    ______ ____

>  <TORSDO>
F 11

$$$$
=
 OpenBabel11042412573D

 42 46  0  0  1  0  0  0  0  0999 V2000
  181.7830  178.3750  139.4010 C   0  0  0  0  0  0  0  0  0  0  0  0
  182.4320  179.0650  140.3030 N   0  0  0  0  0  0  0  0  0  0  0  0
  183.5930  176.5500  136.6270 C   0  0  0  0  0  3  0  0  0  0  0  0
  183.1010  177.5400  137.3760 C   0  0  0  0  0  3  0  0  0  0  0  0
  183.0360  174.9620  138.4230 N   0  0  0  0  0  2  0  0  0  0  0  0
  183.3680  175.1090  137.0020 C   0  0  2  0  0  3  0  0  0  0  0  0
  182.3890  177.2630  138.6410 C   0  0  0  0  0  0  0  0  0  0  0  0
  182.4200  176.0270  139.1530 C   0  0  0  0  0  3  0  0  0  0  0  0
  184.8210  173.1710  137.6730 C   0  0  0  0  0  2  0  0  0  0  0  0
  186.2240  172.8170  137.5930 N   0  0  0  0  0  2  0  0  0  0  0  0
  188.2170  173.6490  136.7110 O   0  0  0  0  0  0  0  0  0  0  0  0
  186.0830  175.2080  136.3330 S   0  0  0  0  0  0  0  0  0  0  0  0
  186.9860  173.8000  136.9230 C   0  0  0  0  0  0  0  0  0  0  0  0
  184.5540  174.2350  136.6070 C   0  0  2  0  0  3  0  0  0  0  0  0
  185.1680  178.2260  142.7400 C   0  0  0  0  0  3  0  0  0  0  0  0
  186.1420  178.8470  140.6130 C   0  0  0  0  0  3  0  0  0  0  0  0
  183.8900  178.4190  142.2080 C   0  0  0  0  0  3  0  0  0  0  0  0
  184.8620  179.0370  140.0810 C   0  0  0  0  0  3  0  0  0  0  0  0
  186.2950  178.4420  141.9420 C   0  0  0  0  0  0  0  0  0  0  0  0
  183.7270  178.8030  140.8670 C   0  0  0  0  0  0  0  0  0  0  0  0
  187.6530  178.1930  142.4960 C   0  0  0  0  0  2  0  0  0  0  0  0
  187.7700  176.8420  142.8660 O   0  0  0  0  0  0  0  0  0  0  0  0
  189.6510  177.7770  148.1720 C   0  0  0  0  0  1  0  0  0  0  0  0
  188.2430  176.7670  144.1950 C   0  0  1  0  0  3  0  0  0  0  0  0
  189.1730  177.8870  146.7400 C   0  0  2  0  0  3  0  0  0  0  0  0
  187.7890  177.2660  146.6200 C   0  0  0  0  0  2  0  0  0  0  0  0
  189.7090  177.2480  144.3640 C   0  0  1  0  0  3  0  0  0  0  0  0
  187.2750  177.4180  145.1950 C   0  0  0  0  0  2  0  0  0  0  0  0
  190.1460  177.1510  145.8270 C   0  0  0  0  0  2  0  0  0  0  0  0
  190.0700  175.3980  142.8490 O   0  0  0  0  0  1  0  0  0  0  0  0
  190.7020  176.4560  143.5090 C   0  0  1  0  0  3  0  0  0  0  0  0
  190.8820  177.1280  141.1150 C   0  0  0  0  0  1  0  0  0  0  0  0
  191.4190  177.3530  142.5140 C   0  0  0  0  0  2  0  0  0  0  0  0
  180.3770  178.7690  139.0520 C   0  0  2  0  0  3  0  0  0  0  0  0
  179.3550  178.5410  141.2530 O   0  0  0  0  0  0  0  0  0  0  0  0
  180.3760  179.9630  138.2160 N   0  0  0  0  0  0  0  0  0  0  0  0
  179.2190  180.5900  140.1010 N   0  0  0  0  0  2  0  0  0  0  0  0
  179.6280  179.2420  140.2430 C   0  0  0  0  0  0  0  0  0  0  0  0
  179.7320  180.9160  138.8140 C   0  0  0  0  0  0  0  0  0  0  0  0
  179.5720  182.2630  138.2060 C   0  0  0  0  0  2  0  0  0  0  0  0
  180.8250  182.8140  137.9440 O   0  0  0  0  0  0  0  0  0  0  0  0
  180.7390  183.2660  136.6300 C   0  0  0  0  0  1  0  0  0  0  0  0
  1  2  2  0  0  0  0
  2 20  1  0  0  0  0
  3  4  2  0  0  0  0
  4  7  1  0  0  0  0
  5  8  1  0  0  0  0
  6  3  1  1  0  0  0
  6  5  1  0  0  0  0
  7  8  2  0  0  0  0
  7  1  1  0  0  0  0
 10  9  1  0  0  0  0
 11 13  2  0  0  0  0
 12 14  1  0  0  0  0
 12 13  1  0  0  0  0
 13 10  1  0  0  0  0
 14  6  1  0  0  0  0
 14  9  1  1  0  0  0
 16 19  1  0  0  0  0
 17 15  1  0  0  0  0
 18 16  2  0  0  0  0
 18 20  1  0  0  0  0
 19 21  1  0  0  0  0
 19 15  2  0  0  0  0
 20 17  2  0  0  0  0
 21 22  1  0  0  0  0
 24 22  1  6  0  0  0
 24 27  1  0  0  0  0
 24 28  1  0  0  0  0
 25 23  1  1  0  0  0
 26 25  1  0  0  0  0
 27 31  1  6  0  0  0
 27 29  1  0  0  0  0
 28 26  1  0  0  0  0
 29 25  1  0  0  0  0
 31 30  1  6  0  0  0
 32 33  1  0  0  0  0
 33 31  1  0  0  0  0
 34  1  1  1  0  0  0
 34 38  1  0  0  0  0
 36 39  2  0  0  0  0
 36 34  1  0  0  0  0
 37 38  1  0  0  0  0
 38 35  2  0  0  0  0
 39 37  1  0  0  0  0
 40 39  1  0  0  0  0
 41 40  1  0  0  0  0
 42 41  1  0  0  0  0
M  END
>  <MODEL>
4

>  <REMARK>
 VINA RESULT:      -7.9      4.331      9.017
  Name = 
  11 active torsions:
  status: ('A' for Active; 'I' for Inactive)
    1  A    between atoms: C_7  and  C_17
    2  A    between atoms: C_7  and  C_20
    3  A    between atoms: O_8  and  C_34
    4  A    between atoms: C_9  and  O_37
    5  A    between atoms: C_15  and  C_29
    6  A    between atoms: C_15  and  O_37
    7  A    between atoms: C_18  and  C_35
    8  A    between atoms: C_24  and  C_26
    9  A    between atoms: C_24  and  C_31
   10  A    between atoms: C_34  and  C_41
   11  A    between atoms: N_40  and  C_42
                            x       y       z     vdW  Elec       q    Type
                         _______ _______ _______ _____ _____    ______ ____

>  <TORSDO>
F 11

$$$$
=
 OpenBabel11042412573D

 42 46  0  0  1  0  0  0  0  0999 V2000
  181.9770  178.3200  137.5510 C   0  0  0  0  0  0  0  0  0  0  0  0
  182.1010  179.1760  138.5310 N   0  0  0  0  0  0  0  0  0  0  0  0
  184.7230  176.0780  136.2320 C   0  0  0  0  0  3  0  0  0  0  0  0
  183.9710  177.1610  136.4480 C   0  0  0  0  0  3  0  0  0  0  0  0
  183.5540  174.9420  138.0770 N   0  0  0  0  0  2  0  0  0  0  0  0
  184.3930  174.7630  136.8870 C   0  0  2  0  0  3  0  0  0  0  0  0
  182.8400  177.1310  137.3990 C   0  0  0  0  0  0  0  0  0  0  0  0
  182.6930  176.0770  138.2110 C   0  0  0  0  0  3  0  0  0  0  0  0
  186.8980  174.8430  137.0860 C   0  0  0  0  0  2  0  0  0  0  0  0
  188.0170  173.9780  136.7760 N   0  0  0  0  0  2  0  0  0  0  0  0
  188.4270  171.8250  135.9750 O   0  0  0  0  0  0  0  0  0  0  0  0
  185.8480  172.5000  136.1160 S   0  0  0  0  0  0  0  0  0  0  0  0
  187.6010  172.7310  136.2580 C   0  0  0  0  0  0  0  0  0  0  0  0
  185.6530  173.9630  137.2030 C   0  0  2  0  0  3  0  0  0  0  0  0
  185.0770  179.0340  140.8230 C   0  0  0  0  0  3  0  0  0  0  0  0
  183.0630  178.5680  142.0820 C   0  0  0  0  0  3  0  0  0  0  0  0
  184.3120  179.1960  139.6650 C   0  0  0  0  0  3  0  0  0  0  0  0
  182.2990  178.7340  140.9230 C   0  0  0  0  0  3  0  0  0  0  0  0
  184.4520  178.7160  142.0330 C   0  0  0  0  0  0  0  0  0  0  0  0
  182.9140  179.0710  139.7110 C   0  0  0  0  0  0  0  0  0  0  0  0
  185.2620  178.5880  143.2740 C   0  0  0  0  0  2  0  0  0  0  0  0
  186.4230  177.8420  143.0030 O   0  0  0  0  0  0  0  0  0  0  0  0
  188.9810  177.5080  148.0930 C   0  0  0  0  0  1  0  0  0  0  0  0
  187.0190  177.4570  144.2250 C   0  0  1  0  0  3  0  0  0  0  0  0
  188.3740  177.9470  146.7790 C   0  0  2  0  0  3  0  0  0  0  0  0
  186.9080  177.5400  146.7380 C   0  0  0  0  0  2  0  0  0  0  0  0
  188.5500  177.7080  144.2780 C   0  0  1  0  0  3  0  0  0  0  0  0
  186.2720  178.0230  145.4410 C   0  0  0  0  0  2  0  0  0  0  0  0
  189.1220  177.2810  145.6300 C   0  0  0  0  0  2  0  0  0  0  0  0
  188.6250  175.8360  142.7490 O   0  0  0  0  0  1  0  0  0  0  0  0
  189.3170  176.9740  143.1740 C   0  0  1  0  0  3  0  0  0  0  0  0
  189.0950  177.2820  140.7100 C   0  0  0  0  0  1  0  0  0  0  0  0
  189.6130  177.8900  141.9990 C   0  0  0  0  0  2  0  0  0  0  0  0
  180.9650  178.5850  136.4740 C   0  0  2  0  0  3  0  0  0  0  0  0
  178.9330  178.0900  137.7260 O   0  0  0  0  0  0  0  0  0  0  0  0
  181.2730  179.8280  135.7790 N   0  0  0  0  0  0  0  0  0  0  0  0
  179.1950  180.1900  136.6940 N   0  0  0  0  0  2  0  0  0  0  0  0
  179.6260  178.8870  137.0410 C   0  0  0  0  0  0  0  0  0  0  0  0
  180.2890  180.6600  135.9130 C   0  0  0  0  0  0  0  0  0  0  0  0
  180.3200  182.0230  135.3190 C   0  0  0  0  0  2  0  0  0  0  0  0
  179.9830  182.9670  136.2870 O   0  0  0  0  0  0  0  0  0  0  0  0
  181.0250  183.8900  136.2510 C   0  0  0  0  0  1  0  0  0  0  0  0
  1  2  2  0  0  0  0
  2 20  1  0  0  0  0
  3  4  2  0  0  0  0
  4  7  1  0  0  0  0
  5  8  1  0  0  0  0
  6  3  1  1  0  0  0
  6 14  1  0  0  0  0
  6  5  1  0  0  0  0
  7  1  1  0  0  0  0
  7  8  2  0  0  0  0
 10  9  1  0  0  0  0
 11 13  2  0  0  0  0
 12 13  1  0  0  0  0
 12 14  1  0  0  0  0
 13 10  1  0  0  0  0
 14  9  1  6  0  0  0
 15 19  1  0  0  0  0
 17 20  1  0  0  0  0
 17 15  2  0  0  0  0
 18 16  1  0  0  0  0
 19 16  2  0  0  0  0
 19 21  1  0  0  0  0
 20 18  2  0  0  0  0
 22 21  1  0  0  0  0
 24 22  1  6  0  0  0
 24 27  1  0  0  0  0
 24 28  1  0  0  0  0
 25 23  1  1  0  0  0
 26 25  1  0  0  0  0
 27 31  1  6  0  0  0
 27 29  1  0  0  0  0
 28 26  1  0  0  0  0
 29 25  1  0  0  0  0
 31 30  1  6  0  0  0
 32 33  1  0  0  0  0
 33 31  1  0  0  0  0
 34 38  1  0  0  0  0
 34  1  1  1  0  0  0
 36 39  2  0  0  0  0
 36 34  1  0  0  0  0
 37 38  1  0  0  0  0
 38 35  2  0  0  0  0
 39 37  1  0  0  0  0
 40 39  1  0  0  0  0
 40 41  1  0  0  0  0
 42 41  1  0  0  0  0
M  END
>  <MODEL>
5

>  <REMARK>
 VINA RESULT:      -7.7      4.708      8.728
  Name = 
  11 active torsions:
  status: ('A' for Active; 'I' for Inactive)
    1  A    between atoms: C_7  and  C_17
    2  A    between atoms: C_7  and  C_20
    3  A    between atoms: O_8  and  C_34
    4  A    between atoms: C_9  and  O_37
    5  A    between atoms: C_15  and  C_29
    6  A    between atoms: C_15  and  O_37
    7  A    between atoms: C_18  and  C_35
    8  A    between atoms: C_24  and  C_26
    9  A    between atoms: C_24  and  C_31
   10  A    between atoms: C_34  and  C_41
   11  A    between atoms: N_40  and  C_42
                            x       y       z     vdW  Elec       q    Type
                         _______ _______ _______ _____ _____    ______ ____

>  <TORSDO>
F 11

$$$$
=
 OpenBabel11042412573D

 42 46  0  0  1  0  0  0  0  0999 V2000
  188.0150  178.0530  145.3660 C   0  0  0  0  0  0  0  0  0  0  0  0
  186.7450  178.2750  145.5880 N   0  0  0  0  0  0  0  0  0  0  0  0
  189.7350  178.2530  142.0030 C   0  0  0  0  0  3  0  0  0  0  0  0
  189.3070  178.5830  143.2250 C   0  0  0  0  0  3  0  0  0  0  0  0
  189.0050  175.9380  142.4120 N   0  0  0  0  0  2  0  0  0  0  0  0
  189.3820  176.9230  141.3920 C   0  0  2  0  0  3  0  0  0  0  0  0
  188.5450  177.6270  144.0540 C   0  0  0  0  0  0  0  0  0  0  0  0
  188.4620  176.3470  143.6710 C   0  0  0  0  0  3  0  0  0  0  0  0
  191.7810  177.2170  140.6990 C   0  0  0  0  0  2  0  0  0  0  0  0
  192.5510  177.1310  139.4750 N   0  0  0  0  0  2  0  0  0  0  0  0
  192.2620  176.5580  137.2320 O   0  0  0  0  0  0  0  0  0  0  0  0
  190.0490  176.4300  138.7200 S   0  0  0  0  0  0  0  0  0  0  0  0
  191.7610  176.7370  138.3730 C   0  0  0  0  0  0  0  0  0  0  0  0
  190.5010  176.4040  140.4950 C   0  0  2  0  0  3  0  0  0  0  0  0
  184.8270  178.3120  142.3560 C   0  0  0  0  0  3  0  0  0  0  0  0
  183.3290  178.8090  144.1910 C   0  0  0  0  0  3  0  0  0  0  0  0
  185.8860  178.1850  143.2580 C   0  0  0  0  0  3  0  0  0  0  0  0
  184.3900  178.6780  145.0930 C   0  0  0  0  0  3  0  0  0  0  0  0
  183.5470  178.6280  142.8220 C   0  0  0  0  0  0  0  0  0  0  0  0
  185.6710  178.3430  144.6370 C   0  0  0  0  0  0  0  0  0  0  0  0
  182.4110  178.7190  141.8660 C   0  0  0  0  0  2  0  0  0  0  0  0
  182.8900  179.1090  140.6030 O   0  0  0  0  0  0  0  0  0  0  0  0
  181.6950  174.4100  137.5940 C   0  0  0  0  0  1  0  0  0  0  0  0
  182.5010  178.1460  139.6450 C   0  0  1  0  0  3  0  0  0  0  0  0
  182.1470  175.4200  138.6270 C   0  0  2  0  0  3  0  0  0  0  0  0
  180.9520  176.2440  139.0840 C   0  0  0  0  0  2  0  0  0  0  0  0
  183.6920  177.3680  139.0240 C   0  0  1  0  0  3  0  0  0  0  0  0
  181.3840  177.2280  140.1630 C   0  0  0  0  0  2  0  0  0  0  0  0
  183.1950  176.3370  138.0090 C   0  0  0  0  0  2  0  0  0  0  0  0
  185.7490  178.6280  139.1970 O   0  0  0  0  0  1  0  0  0  0  0  0
  184.7080  178.2800  138.3300 C   0  0  1  0  0  3  0  0  0  0  0  0
  186.7720  177.6530  137.0810 C   0  0  0  0  0  1  0  0  0  0  0  0
  185.2560  177.6410  137.0660 C   0  0  0  0  0  2  0  0  0  0  0  0
  188.9850  178.1530  146.5070 C   0  0  2  0  0  3  0  0  0  0  0  0
  187.6540  177.0730  148.2400 O   0  0  0  0  0  0  0  0  0  0  0  0
  190.3220  177.7670  146.0740 N   0  0  0  0  0  0  0  0  0  0  0  0
  189.7970  176.2480  147.7190 N   0  0  0  0  0  2  0  0  0  0  0  0
  188.7080  177.1370  147.5540 C   0  0  0  0  0  0  0  0  0  0  0  0
  190.7250  176.7440  146.7610 C   0  0  0  0  0  0  0  0  0  0  0  0
  192.0540  176.1170  146.5350 C   0  0  0  0  0  2  0  0  0  0  0  0
  192.3420  175.2350  147.5760 O   0  0  0  0  0  0  0  0  0  0  0  0
  193.0460  176.0030  148.5000 C   0  0  0  0  0  1  0  0  0  0  0  0
  1  2  2  0  0  0  0
  3  4  2  0  0  0  0
  4  7  1  0  0  0  0
  5  8  1  0  0  0  0
  6  3  1  1  0  0  0
  6  5  1  0  0  0  0
  7  1  1  0  0  0  0
  8  7  2  0  0  0  0
 10  9  1  0  0  0  0
 11 13  2  0  0  0  0
 12 14  1  0  0  0  0
 13 12  1  0  0  0  0
 13 10  1  0  0  0  0
 14  9  1  6  0  0  0
 14  6  1  0  0  0  0
 15 19  2  0  0  0  0
 15 17  1  0  0  0  0
 16 18  2  0  0  0  0
 17 20  2  0  0  0  0
 19 16  1  0  0  0  0
 20 18  1  0  0  0  0
 20  2  1  0  0  0  0
 21 19  1  0  0  0  0
 22 21  1  0  0  0  0
 24 28  1  0  0  0  0
 24 22  1  1  0  0  0
 25 23  1  6  0  0  0
 25 26  1  0  0  0  0
 26 28  1  0  0  0  0
 27 31  1  6  0  0  0
 27 24  1  0  0  0  0
 29 25  1  0  0  0  0
 29 27  1  0  0  0  0
 31 30  1  1  0  0  0
 33 32  1  0  0  0  0
 33 31  1  0  0  0  0
 34  1  1  6  0  0  0
 34 38  1  0  0  0  0
 36 34  1  0  0  0  0
 36 39  2  0  0  0  0
 38 37  1  0  0  0  0
 38 35  2  0  0  0  0
 39 37  1  0  0  0  0
 40 39  1  0  0  0  0
 40 41  1  0  0  0  0
 41 42  1  0  0  0  0
M  END
>  <MODEL>
6

>  <REMARK>
 VINA RESULT:      -7.6      4.202      9.121
  Name = 
  11 active torsions:
  status: ('A' for Active; 'I' for Inactive)
    1  A    between atoms: C_7  and  C_17
    2  A    between atoms: C_7  and  C_20
    3  A    between atoms: O_8  and  C_34
    4  A    between atoms: C_9  and  O_37
    5  A    between atoms: C_15  and  C_29
    6  A    between atoms: C_15  and  O_37
    7  A    between atoms: C_18  and  C_35
    8  A    between atoms: C_24  and  C_26
    9  A    between atoms: C_24  and  C_31
   10  A    between atoms: C_34  and  C_41
   11  A    between atoms: N_40  and  C_42
                            x       y       z     vdW  Elec       q    Type
                         _______ _______ _______ _____ _____    ______ ____

>  <TORSDO>
F 11

$$$$
=
 OpenBabel11042412573D

 42 46  0  0  1  0  0  0  0  0999 V2000
  188.0620  178.0680  145.4030 C   0  0  0  0  0  0  0  0  0  0  0  0
  186.7900  178.2280  145.6580 N   0  0  0  0  0  0  0  0  0  0  0  0
  189.0970  176.0090  142.4030 C   0  0  0  0  0  3  0  0  0  0  0  0
  188.5640  176.3460  143.5810 C   0  0  0  0  0  3  0  0  0  0  0  0
  189.4220  178.3980  141.9070 N   0  0  0  0  0  2  0  0  0  0  0  0
  189.8130  177.0290  141.5570 C   0  0  2  0  0  3  0  0  0  0  0  0
  188.5840  177.7440  144.0590 C   0  0  0  0  0  0  0  0  0  0  0  0
  188.9470  178.7200  143.2180 C   0  0  0  0  0  3  0  0  0  0  0  0
  190.9760  176.5910  139.3710 C   0  0  0  0  0  2  0  0  0  0  0  0
  190.7960  176.9530  137.9800 N   0  0  0  0  0  2  0  0  0  0  0  0
  189.2780  178.0980  136.6270 O   0  0  0  0  0  0  0  0  0  0  0  0
  188.6680  178.0700  139.2260 S   0  0  0  0  0  0  0  0  0  0  0  0
  189.6320  177.7280  137.7760 C   0  0  0  0  0  0  0  0  0  0  0  0
  189.6240  176.7530  140.0680 C   0  0  2  0  0  3  0  0  0  0  0  0
  184.7960  178.2530  142.4730 C   0  0  0  0  0  3  0  0  0  0  0  0
  183.3660  178.8650  144.3260 C   0  0  0  0  0  3  0  0  0  0  0  0
  185.8710  178.1070  143.3530 C   0  0  0  0  0  3  0  0  0  0  0  0
  184.4420  178.7160  145.2070 C   0  0  0  0  0  3  0  0  0  0  0  0
  183.5420  178.6350  142.9590 C   0  0  0  0  0  0  0  0  0  0  0  0
  185.6960  178.3140  144.7320 C   0  0  0  0  0  0  0  0  0  0  0  0
  182.3880  178.7470  142.0270 C   0  0  0  0  0  2  0  0  0  0  0  0
  182.5810  177.8840  140.9340 O   0  0  0  0  0  0  0  0  0  0  0  0
  180.7810  180.3780  136.1270 C   0  0  0  0  0  1  0  0  0  0  0  0
  182.4200  178.6150  139.7360 C   0  0  1  0  0  3  0  0  0  0  0  0
  180.9330  179.5620  137.3930 C   0  0  2  0  0  3  0  0  0  0  0  0
  181.2230  180.4930  138.5620 C   0  0  0  0  0  2  0  0  0  0  0  0
  182.2680  177.7220  138.4760 C   0  0  1  0  0  3  0  0  0  0  0  0
  181.3270  179.6880  139.8500 C   0  0  0  0  0  2  0  0  0  0  0  0
  182.0860  178.5800  137.2220 C   0  0  0  0  0  2  0  0  0  0  0  0
  183.0640  175.4490  138.2560 O   0  0  0  0  0  1  0  0  0  0  0  0
  183.4630  176.7900  138.2540 C   0  0  1  0  0  3  0  0  0  0  0  0
  185.6890  176.8930  137.1350 C   0  0  0  0  0  1  0  0  0  0  0  0
  184.2000  177.1250  136.9680 C   0  0  0  0  0  2  0  0  0  0  0  0
  189.0490  178.1340  146.5320 C   0  0  2  0  0  3  0  0  0  0  0  0
  187.7070  177.0880  148.2770 O   0  0  0  0  0  0  0  0  0  0  0  0
  190.3680  177.7090  146.0810 N   0  0  0  0  0  0  0  0  0  0  0  0
  189.8180  176.2000  147.7260 N   0  0  0  0  0  2  0  0  0  0  0  0
  188.7540  177.1230  147.5790 C   0  0  0  0  0  0  0  0  0  0  0  0
  190.7490  176.6720  146.7590 C   0  0  0  0  0  0  0  0  0  0  0  0
  192.0550  176.0060  146.5150 C   0  0  0  0  0  2  0  0  0  0  0  0
  192.3720  175.1790  147.5920 O   0  0  0  0  0  0  0  0  0  0  0  0
  193.0740  176.0030  148.4690 C   0  0  0  0  0  1  0  0  0  0  0  0
  1  2  2  0  0  0  0
  3  4  2  0  0  0  0
  4  7  1  0  0  0  0
  5  8  1  0  0  0  0
  6  5  1  0  0  0  0
  6  3  1  1  0  0  0
  7  1  1  0  0  0  0
  8  7  2  0  0  0  0
 10  9  1  0  0  0  0
 11 13  2  0  0  0  0
 12 14  1  0  0  0  0
 13 10  1  0  0  0  0
 13 12  1  0  0  0  0
 14  9  1  6  0  0  0
 14  6  1  0  0  0  0
 15 19  2  0  0  0  0
 15 17  1  0  0  0  0
 16 18  2  0  0  0  0
 17 20  2  0  0  0  0
 19 16  1  0  0  0  0
 20 18  1  0  0  0  0
 20  2  1  0  0  0  0
 21 19  1  0  0  0  0
 22 21  1  0  0  0  0
 24 28  1  0  0  0  0
 24 22  1  1  0  0  0
 25 23  1  6  0  0  0
 25 26  1  0  0  0  0
 26 28  1  0  0  0  0
 27 31  1  6  0  0  0
 27 24  1  0  0  0  0
 29 25  1  0  0  0  0
 29 27  1  0  0  0  0
 31 30  1  6  0  0  0
 33 32  1  0  0  0  0
 33 31  1  0  0  0  0
 34  1  1  6  0  0  0
 34 38  1  0  0  0  0
 36 34  1  0  0  0  0
 36 39  2  0  0  0  0
 38 37  1  0  0  0  0
 38 35  2  0  0  0  0
 39 37  1  0  0  0  0
 40 39  1  0  0  0  0
 40 41  1  0  0  0  0
 41 42  1  0  0  0  0
M  END
>  <MODEL>
7

>  <REMARK>
 VINA RESULT:      -7.4      4.616      9.181
  Name = 
  11 active torsions:
  status: ('A' for Active; 'I' for Inactive)
    1  A    between atoms: C_7  and  C_17
    2  A    between atoms: C_7  and  C_20
    3  A    between atoms: O_8  and  C_34
    4  A    between atoms: C_9  and  O_37
    5  A    between atoms: C_15  and  C_29
    6  A    between atoms: C_15  and  O_37
    7  A    between atoms: C_18  and  C_35
    8  A    between atoms: C_24  and  C_26
    9  A    between atoms: C_24  and  C_31
   10  A    between atoms: C_34  and  C_41
   11  A    between atoms: N_40  and  C_42
                            x       y       z     vdW  Elec       q    Type
                         _______ _______ _______ _____ _____    ______ ____

>  <TORSDO>
F 11

$$$$
=
 OpenBabel11042412573D

 42 46  0  0  1  0  0  0  0  0999 V2000
  191.8260  176.5200  138.1990 C   0  0  0  0  0  0  0  0  0  0  0  0
  191.0640  176.7110  137.1530 N   0  0  0  0  0  0  0  0  0  0  0  0
  191.8660  177.6540  141.8060 C   0  0  0  0  0  3  0  0  0  0  0  0
  192.2160  177.5020  140.5260 C   0  0  0  0  0  3  0  0  0  0  0  0
  189.6900  176.6230  141.2980 N   0  0  0  0  0  2  0  0  0  0  0  0
  190.6360  176.9830  142.3590 C   0  0  2  0  0  3  0  0  0  0  0  0
  191.3680  176.7410  139.5860 C   0  0  0  0  0  0  0  0  0  0  0  0
  190.1350  176.3770  139.9610 C   0  0  0  0  0  3  0  0  0  0  0  0
  190.6310  177.5850  144.8000 C   0  0  0  0  0  2  0  0  0  0  0  0
  189.6450  177.8780  145.8200 N   0  0  0  0  0  2  0  0  0  0  0  0
  187.3360  178.1440  146.0330 O   0  0  0  0  0  0  0  0  0  0  0  0
  188.1740  177.5120  143.5770 S   0  0  0  0  0  0  0  0  0  0  0  0
  188.3280  177.8640  145.3090 C   0  0  0  0  0  0  0  0  0  0  0  0
  189.9740  177.8300  143.4400 C   0  0  2  0  0  3  0  0  0  0  0  0
  187.3450  176.2350  136.9070 C   0  0  0  0  0  3  0  0  0  0  0  0
  187.8530  178.6000  136.9850 C   0  0  0  0  0  3  0  0  0  0  0  0
  188.7070  175.9410  136.9990 C   0  0  0  0  0  3  0  0  0  0  0  0
  189.2170  178.3040  137.0810 C   0  0  0  0  0  3  0  0  0  0  0  0
  186.9170  177.5660  136.8960 C   0  0  0  0  0  0  0  0  0  0  0  0
  189.6530  176.9740  137.1120 C   0  0  0  0  0  0  0  0  0  0  0  0
  185.4630  177.8770  136.8420 C   0  0  0  0  0  2  0  0  0  0  0  0
  184.7690  177.0430  137.7360 O   0  0  0  0  0  0  0  0  0  0  0  0
  180.4120  180.5980  138.7040 C   0  0  0  0  0  1  0  0  0  0  0  0
  183.5880  177.6950  138.1540 C   0  0  1  0  0  3  0  0  0  0  0  0
  181.6990  179.9350  138.2640 C   0  0  2  0  0  3  0  0  0  0  0  0
  181.3740  178.6780  137.4700 C   0  0  0  0  0  2  0  0  0  0  0  0
  183.8410  178.9040  139.0940 C   0  0  1  0  0  3  0  0  0  0  0  0
  182.6610  178.0300  136.9760 C   0  0  0  0  0  2  0  0  0  0  0  0
  182.5220  179.5660  139.4930 C   0  0  0  0  0  2  0  0  0  0  0  0
  185.6810  179.3780  140.5890 O   0  0  0  0  0  1  0  0  0  0  0  0
  184.5970  178.5230  140.3700 C   0  0  1  0  0  3  0  0  0  0  0  0
  184.4770  178.6560  142.8570 C   0  0  0  0  0  1  0  0  0  0  0  0
  183.6760  178.5090  141.5790 C   0  0  0  0  0  2  0  0  0  0  0  0
  193.2620  176.1320  137.9960 C   0  0  2  0  0  3  0  0  0  0  0  0
  192.9660  173.7420  137.6170 O   0  0  0  0  0  0  0  0  0  0  0  0
  193.9230  177.0760  137.1030 N   0  0  0  0  0  0  0  0  0  0  0  0
  194.0690  175.0600  136.0070 N   0  0  0  0  0  2  0  0  0  0  0  0
  193.3860  174.8650  137.2310 C   0  0  0  0  0  0  0  0  0  0  0  0
  194.3520  176.4540  136.0500 C   0  0  0  0  0  0  0  0  0  0  0  0
  195.0620  177.1600  134.9510 C   0  0  0  0  0  2  0  0  0  0  0  0
  196.3680  177.4510  135.3440 O   0  0  0  0  0  0  0  0  0  0  0  0
  197.0200  176.2210  135.3240 C   0  0  0  0  0  1  0  0  0  0  0  0
  1  7  1  0  0  0  0
  2  1  2  0  0  0  0
  4  3  2  0  0  0  0
  5  6  1  0  0  0  0
  6  3  1  6  0  0  0
  6 14  1  0  0  0  0
  7  8  2  0  0  0  0
  7  4  1  0  0  0  0
  8  5  1  0  0  0  0
  9 10  1  0  0  0  0
 12 13  1  0  0  0  0
 13 10  1  0  0  0  0
 13 11  2  0  0  0  0
 14 12  1  0  0  0  0
 14  9  1  1  0  0  0
 15 17  1  0  0  0  0
 16 18  2  0  0  0  0
 17 20  2  0  0  0  0
 18 20  1  0  0  0  0
 19 15  2  0  0  0  0
 19 16  1  0  0  0  0
 20  2  1  0  0  0  0
 21 19  1  0  0  0  0
 21 22  1  0  0  0  0
 24 22  1  6  0  0  0
 24 27  1  0  0  0  0
 25 23  1  1  0  0  0
 25 29  1  0  0  0  0
 26 25  1  0  0  0  0
 27 29  1  0  0  0  0
 27 31  1  1  0  0  0
 28 26  1  0  0  0  0
 28 24  1  0  0  0  0
 31 30  1  1  0  0  0
 31 33  1  0  0  0  0
 33 32  1  0  0  0  0
 34  1  1  6  0  0  0
 36 34  1  0  0  0  0
 37 39  1  0  0  0  0
 37 38  1  0  0  0  0
 38 35  2  0  0  0  0
 38 34  1  0  0  0  0
 39 36  2  0  0  0  0
 40 41  1  0  0  0  0
 40 39  1  0  0  0  0
 42 41  1  0  0  0  0
M  END
>  <MODEL>
8

>  <REMARK>
 VINA RESULT:      -7.4      3.751      6.626
  Name = 
  11 active torsions:
  status: ('A' for Active; 'I' for Inactive)
    1  A    between atoms: C_7  and  C_17
    2  A    between atoms: C_7  and  C_20
    3  A    between atoms: O_8  and  C_34
    4  A    between atoms: C_9  and  O_37
    5  A    between atoms: C_15  and  C_29
    6  A    between atoms: C_15  and  O_37
    7  A    between atoms: C_18  and  C_35
    8  A    between atoms: C_24  and  C_26
    9  A    between atoms: C_24  and  C_31
   10  A    between atoms: C_34  and  C_41
   11  A    between atoms: N_40  and  C_42
                            x       y       z     vdW  Elec       q    Type
                         _______ _______ _______ _____ _____    ______ ____

>  <TORSDO>
F 11

$$$$
=
 OpenBabel11042412573D

 42 46  0  0  1  0  0  0  0  0999 V2000
  191.5630  175.8970  137.0740 C   0  0  0  0  0  0  0  0  0  0  0  0
  190.5220  176.1090  136.3120 N   0  0  0  0  0  0  0  0  0  0  0  0
  190.6130  176.5800  140.6710 C   0  0  0  0  0  3  0  0  0  0  0  0
  190.5890  176.0850  139.4300 C   0  0  0  0  0  3  0  0  0  0  0  0
  192.8790  177.4410  140.2460 N   0  0  0  0  0  2  0  0  0  0  0  0
  191.6920  177.5360  141.1030 C   0  0  2  0  0  3  0  0  0  0  0  0
  191.6630  176.3910  138.4630 C   0  0  0  0  0  0  0  0  0  0  0  0
  192.7790  176.9940  138.8910 C   0  0  0  0  0  3  0  0  0  0  0  0
  191.6280  175.9670  143.0660 C   0  0  0  0  0  2  0  0  0  0  0  0
  191.4000  176.0600  144.4940 N   0  0  0  0  0  2  0  0  0  0  0  0
  191.0300  177.6810  146.1300 O   0  0  0  0  0  0  0  0  0  0  0  0
  191.2730  178.6270  143.6460 S   0  0  0  0  0  0  0  0  0  0  0  0
  191.1960  177.3920  144.9170 C   0  0  0  0  0  0  0  0  0  0  0  0
  192.0450  177.3550  142.5760 C   0  0  2  0  0  3  0  0  0  0  0  0
  187.7980  178.5440  137.1910 C   0  0  0  0  0  3  0  0  0  0  0  0
  186.9720  176.2830  137.4400 C   0  0  0  0  0  3  0  0  0  0  0  0
  189.0370  178.0440  136.7820 C   0  0  0  0  0  3  0  0  0  0  0  0
  188.2120  175.7840  137.0280 C   0  0  0  0  0  3  0  0  0  0  0  0
  186.7650  177.6630  137.5230 C   0  0  0  0  0  0  0  0  0  0  0  0
  189.2460  176.6590  136.6740 C   0  0  0  0  0  0  0  0  0  0  0  0
  185.4330  178.1960  137.9150 C   0  0  0  0  0  2  0  0  0  0  0  0
  185.5900  179.1590  138.9270 O   0  0  0  0  0  0  0  0  0  0  0  0
  182.8640  178.5460  143.9020 C   0  0  0  0  0  1  0  0  0  0  0  0
  184.9410  178.7080  140.0980 C   0  0  1  0  0  3  0  0  0  0  0  0
  183.5810  179.0570  142.6720 C   0  0  2  0  0  3  0  0  0  0  0  0
  182.8050  178.6470  141.4280 C   0  0  0  0  0  2  0  0  0  0  0  0
  185.7500  178.9610  141.3970 C   0  0  1  0  0  3  0  0  0  0  0  0
  183.4890  179.2010  140.1850 C   0  0  0  0  0  2  0  0  0  0  0  0
  184.9820  178.4600  142.6210 C   0  0  0  0  0  2  0  0  0  0  0  0
  188.0480  179.0470  140.6480 O   0  0  0  0  0  1  0  0  0  0  0  0
  187.1290  178.2940  141.3860 C   0  0  1  0  0  3  0  0  0  0  0  0
  187.9370  176.5830  143.0090 C   0  0  0  0  0  1  0  0  0  0  0  0
  187.6440  178.0550  142.7950 C   0  0  0  0  0  2  0  0  0  0  0  0
  192.7560  175.1880  136.5020 C   0  0  2  0  0  3  0  0  0  0  0  0
  193.9530  177.1120  135.6030 O   0  0  0  0  0  0  0  0  0  0  0  0
  193.2740  174.2130  137.4540 N   0  0  0  0  0  0  0  0  0  0  0  0
  195.0150  175.6820  137.1430 N   0  0  0  0  0  2  0  0  0  0  0  0
  193.9180  176.1010  136.3530 C   0  0  0  0  0  0  0  0  0  0  0  0
  194.4970  174.5110  137.7630 C   0  0  0  0  0  0  0  0  0  0  0  0
  195.2880  173.6990  138.7250 C   0  0  0  0  0  2  0  0  0  0  0  0
  196.6280  173.6870  138.3420 O   0  0  0  0  0  0  0  0  0  0  0  0
  196.7750  172.5020  137.6250 C   0  0  0  0  0  1  0  0  0  0  0  0
  1  7  1  0  0  0  0
  2 20  1  0  0  0  0
  2  1  2  0  0  0  0
  4  3  2  0  0  0  0
  5  6  1  0  0  0  0
  6  3  1  6  0  0  0
  6 14  1  0  0  0  0
  7  8  2  0  0  0  0
  7  4  1  0  0  0  0
  8  5  1  0  0  0  0
  9 10  1  0  0  0  0
 10 13  1  0  0  0  0
 12 13  1  0  0  0  0
 13 11  2  0  0  0  0
 14  9  1  1  0  0  0
 14 12  1  0  0  0  0
 15 19  1  0  0  0  0
 16 19  2  0  0  0  0
 17 15  2  0  0  0  0
 18 16  1  0  0  0  0
 19 21  1  0  0  0  0
 20 17  1  0  0  0  0
 20 18  2  0  0  0  0
 21 22  1  0  0  0  0
 24 22  1  6  0  0  0
 24 28  1  0  0  0  0
 24 27  1  0  0  0  0
 25 23  1  1  0  0  0
 26 25  1  0  0  0  0
 27 31  1  6  0  0  0
 27 29  1  0  0  0  0
 28 26  1  0  0  0  0
 29 25  1  0  0  0  0
 31 30  1  6  0  0  0
 31 33  1  0  0  0  0
 33 32  1  0  0  0  0
 34  1  1  1  0  0  0
 34 36  1  0  0  0  0
 35 38  2  0  0  0  0
 36 39  2  0  0  0  0
 37 39  1  0  0  0  0
 38 34  1  0  0  0  0
 38 37  1  0  0  0  0
 39 40  1  0  0  0  0
 41 40  1  0  0  0  0
 42 41  1  0  0  0  0
M  END
>  <MODEL>
9

>  <REMARK>
 VINA RESULT:      -7.3      3.431      5.739
  Name = 
  11 active torsions:
  status: ('A' for Active; 'I' for Inactive)
    1  A    between atoms: C_7  and  C_17
    2  A    between atoms: C_7  and  C_20
    3  A    between atoms: O_8  and  C_34
    4  A    between atoms: C_9  and  O_37
    5  A    between atoms: C_15  and  C_29
    6  A    between atoms: C_15  and  O_37
    7  A    between atoms: C_18  and  C_35
    8  A    between atoms: C_24  and  C_26
    9  A    between atoms: C_24  and  C_31
   10  A    between atoms: C_34  and  C_41
   11  A    between atoms: N_40  and  C_42
                            x       y       z     vdW  Elec       q    Type
                         _______ _______ _______ _____ _____    ______ ____

>  <TORSDO>
F 11

$$$$
