=
 OpenBabel11042410093D

 62 68  0  0  1  0  0  0  0  0999 V2000
  188.4670  176.4010  135.3680 C   0  0  0  0  0  2  0  0  0  0  0  0
  189.0140  176.6740  137.8160 N   0  0  0  0  0  0  0  0  0  0  0  0
  186.8660  179.4660  136.8320 O   0  0  0  0  0  1  0  0  0  0  0  0
  187.8050  178.4690  136.7100 C   0  0  1  0  0  3  0  0  0  0  0  0
  187.7700  177.4440  137.8710 C   0  0  0  0  0  2  0  0  0  0  0  0
  189.5250  176.2920  136.4310 C   0  0  1  0  0  3  0  0  0  0  0  0
  187.7130  177.7840  135.3310 C   0  0  2  0  0  3  0  0  0  0  0  0
  189.2680  176.5220  140.3700 C   0  0  0  0  0  3  0  0  0  0  0  0
  191.8200  177.4710  140.2770 C   0  0  0  0  0  0  0  0  0  0  0  0
  189.7940  176.7970  139.0520 C   0  0  0  0  0  0  0  0  0  0  0  0
  191.3160  177.3090  141.5340 C   0  0  0  0  0  0  0  0  0  0  0  0
  193.0670  177.9100  140.1490 F   0  0  0  0  0  0  0  0  0  0  0  0
  190.1260  176.6600  141.5330 C   0  0  0  0  0  0  0  0  0  0  0  0
  192.1030  177.6870  142.7500 C   0  0  0  0  0  1  0  0  0  0  0  0
  191.1550  177.0620  139.0880 C   0  0  0  0  0  3  0  0  0  0  0  0
  190.5770  175.0170  143.1690 O   0  0  0  0  0  0  0  0  0  0  0  0
  189.8160  175.9270  142.7640 C   0  0  0  0  0  0  0  0  0  0  0  0
  188.5210  175.9900  143.3450 C   0  0  0  0  0  2  0  0  0  0  0  0
  188.5430  177.1400  144.3130 C   0  0  0  0  0  2  0  0  0  0  0  0
  187.2040  177.6370  144.4520 N   0  0  0  0  0  2  0  0  0  0  0  0
  186.6580  177.8780  143.1210 C   0  0  0  0  0  2  0  0  0  0  0  0
  184.9480  179.0360  144.5780 C   0  0  0  0  0  2  0  0  0  0  0  0
  183.3880  178.8980  144.7110 C   0  0  0  0  0  2  0  0  0  0  0  0
  183.3030  178.7140  142.1310 C   0  0  0  0  0  2  0  0  0  0  0  0
  185.3200  178.3130  143.3500 C   0  0  1  0  0  3  0  0  0  0  0  0
  184.7490  179.0260  142.1020 C   0  0  0  0  0  2  0  0  0  0  0  0
  182.6830  179.3120  143.3820 C   0  0  1  0  0  3  0  0  0  0  0  0
  180.3230  180.0500  142.9230 N   0  0  0  0  0  1  0  0  0  0  0  0
  181.2040  178.9600  143.4170 C   0  0  0  0  0  2  0  0  0  0  0  0
  190.6230  175.2670  136.0880 C   0  0  0  0  0  0  0  0  0  0  0  0
  192.7410  174.8130  134.9870 C   0  0  0  0  0  0  0  0  0  0  0  0
  190.7390  173.9110  136.5830 C   0  0  0  0  0  3  0  0  0  0  0  0
  192.9100  173.5340  135.4680 C   0  0  0  0  0  0  0  0  0  0  0  0
  193.8820  175.4750  134.7790 F   0  0  0  0  0  0  0  0  0  0  0  0
  191.9260  173.1310  136.3140 C   0  0  0  0  0  3  0  0  0  0  0  0
  191.6260  175.6100  135.2250 C   0  0  0  0  0  3  0  0  0  0  0  0
  194.2580  172.8570  135.3700 C   0  0  0  0  0  2  0  0  0  0  0  0
  197.5610  172.7690  137.7990 N   0  0  0  0  0  0  0  0  0  0  0  0
  195.7490  171.3380  136.8350 C   0  0  0  0  0  2  0  0  0  0  0  0
  195.1770  173.6780  137.8080 C   0  0  0  0  0  2  0  0  0  0  0  0
  197.2140  171.8130  136.6880 C   0  0  0  0  0  2  0  0  0  0  0  0
  194.8080  172.5030  136.7710 C   0  0  1  0  0  3  0  0  0  0  0  0
  196.6780  173.7180  138.2610 C   0  0  0  0  0  0  0  0  0  0  0  0
  196.6940  175.1120  140.2040 O   0  0  0  0  0  1  0  0  0  0  0  0
  198.3150  175.5860  138.7780 O   0  0  0  0  0  0  0  0  0  0  0  0
  197.2230  174.8280  139.1510 C   0  0  0  0  0  0  0  0  0  0  0  0
  186.2500  177.6500  134.7530 C   0  0  0  0  0  2  0  0  0  0  0  0
  183.8970  176.1790  135.8170 C   0  0  1  0  0  3  0  0  0  0  0  0
  184.0800  177.1470  134.7880 C   0  0  0  0  0  2  0  0  0  0  0  0
  185.3300  176.6440  135.4240 N   0  0  0  0  0  0  0  0  0  0  0  0
  180.7780  177.9450  138.9820 N   0  0  0  0  0  0  0  0  0  0  0  0
  180.4450  175.7040  139.3190 O   0  0  0  0  0  0  0  0  0  0  0  0
  181.0960  176.5540  138.6210 C   0  0  0  0  0  0  0  0  0  0  0  0
  182.5570  179.2130  138.1060 O   0  0  0  0  0  0  0  0  0  0  0  0
  181.9900  176.1040  137.6210 N   0  0  0  0  0  2  0  0  0  0  0  0
  183.1600  176.8080  137.0510 C   0  0  1  0  0  3  0  0  0  0  0  0
  183.8930  177.9960  138.2160 S   0  0  0  0  0  0  0  0  0  0  0  0
  181.3180  179.0700  138.7520 C   0  0  0  0  0  0  0  0  0  0  0  0
  180.6960  180.2460  139.4110 C   0  0  0  0  0  2  0  0  0  0  0  0
  180.0960  182.5160  138.2910 C   0  0  0  0  0  1  0  0  0  0  0  0
  179.6770  181.1380  138.7060 C   0  0  0  0  0  3  0  0  0  0  0  0
  178.9310  180.3880  137.5620 C   0  0  0  0  0  1  0  0  0  0  0  0
  1  6  1  0  0  0  0
  2  5  1  0  0  0  0
  2 10  1  0  0  0  0
  4  3  1  1  0  0  0
  4  5  1  0  0  0  0
  6 30  1  1  0  0  0
  6  2  1  0  0  0  0
  7 47  1  1  0  0  0
  7  1  1  0  0  0  0
  7  4  1  0  0  0  0
  8 13  1  0  0  0  0
  9 11  1  0  0  0  0
 10 15  1  0  0  0  0
 10  8  2  0  0  0  0
 11 14  1  0  0  0  0
 12  9  1  0  0  0  0
 13 11  2  0  0  0  0
 13 17  1  0  0  0  0
 15  9  2  0  0  0  0
 17 16  2  0  0  0  0
 17 18  1  0  0  0  0
 18 19  1  0  0  0  0
 19 20  1  0  0  0  0
 21 20  1  0  0  0  0
 22 23  1  0  0  0  0
 24 27  1  0  0  0  0
 25 21  1  6  0  0  0
 25 22  1  0  0  0  0
 26 24  1  0  0  0  0
 26 25  1  0  0  0  0
 27 29  1  1  0  0  0
 27 23  1  0  0  0  0
 28 29  1  0  0  0  0
 30 32  1  0  0  0  0
 31 36  1  0  0  0  0
 31 33  2  0  0  0  0
 33 35  1  0  0  0  0
 34 31  1  0  0  0  0
 35 32  2  0  0  0  0
 36 30  2  0  0  0  0
 37 33  1  0  0  0  0
 38 43  2  0  0  0  0
 40 43  1  0  0  0  0
 41 39  1  0  0  0  0
 41 38  1  0  0  0  0
 42 37  1  6  0  0  0
 42 39  1  0  0  0  0
 42 40  1  0  0  0  0
 43 46  1  0  0  0  0
 45 46  2  0  0  0  0
 46 44  1  0  0  0  0
 47 50  1  0  0  0  0
 48 49  1  6  0  0  0
 48 56  1  0  0  0  0
 49 50  1  0  0  0  0
 50 48  1  0  0  0  0
 53 51  1  0  0  0  0
 53 52  2  0  0  0  0
 54 57  1  0  0  0  0
 54 58  1  0  0  0  0
 55 53  1  0  0  0  0
 56 55  1  1  0  0  0
 56 57  1  0  0  0  0
 58 51  2  0  0  0  0
 58 59  1  0  0  0  0
 60 61  1  0  0  0  0
 61 59  1  0  0  0  0
 62 61  1  0  0  0  0
M  END
>  <MODEL>
1

>  <REMARK>
 VINA RESULT:      -8.2      0.000      0.000
  Name = 
  17 active torsions:
  status: ('A' for Active; 'I' for Inactive)
    1  A    between atoms: C_1  and  N_35
    2  A    between atoms: C_1  and  C_60
    3  A    between atoms: C_2  and  C_49
    4  A    between atoms: C_5  and  C_48
    5  A    between atoms: C_11  and  C_41
    6  A    between atoms: N_14  and  C_17
    7  A    between atoms: N_14  and  C_33
    8  A    between atoms: C_17  and  C_36
    9  A    between atoms: C_18  and  C_29
   10  A    between atoms: N_22  and  C_28
   11  A    between atoms: C_29  and  C_47
   12  A    between atoms: C_33  and  C_52
   13  A    between atoms: C_36  and  C_54
   14  A    between atoms: C_40  and  C_54
   15  A    between atoms: C_41  and  C_62
   16  A    between atoms: C_53  and  C_58
   17  A    between atoms: CA_56  and  C_61
                            x       y       z     vdW  Elec       q    Type
                         _______ _______ _______ _____ _____    ______ ____

>  <TORSDO>
F 17

$$$$
=
 OpenBabel11042410093D

 62 68  0  0  1  0  0  0  0  0999 V2000
  188.2670  177.6490  138.6530 C   0  0  0  0  0  2  0  0  0  0  0  0
  185.7650  177.8730  138.4090 N   0  0  0  0  0  0  0  0  0  0  0  0
  187.2830  178.7120  135.1880 O   0  0  0  0  0  1  0  0  0  0  0  0
  187.1610  178.5880  136.5520 C   0  0  1  0  0  3  0  0  0  0  0  0
  186.0180  177.6380  136.9860 C   0  0  0  0  0  2  0  0  0  0  0  0
  186.9860  178.1060  139.2930 C   0  0  1  0  0  3  0  0  0  0  0  0
  188.5080  178.2030  137.1980 C   0  0  2  0  0  3  0  0  0  0  0  0
  183.3010  177.3940  138.9650 C   0  0  0  0  0  3  0  0  0  0  0  0
  182.6260  180.0220  138.7130 C   0  0  0  0  0  0  0  0  0  0  0  0
  184.3860  178.3010  138.6630 C   0  0  0  0  0  0  0  0  0  0  0  0
  181.5730  179.1780  138.9050 C   0  0  0  0  0  0  0  0  0  0  0  0
  182.3800  181.3220  138.6040 F   0  0  0  0  0  0  0  0  0  0  0  0
  181.9700  177.9180  139.2140 C   0  0  0  0  0  0  0  0  0  0  0  0
  180.1600  179.6720  138.9150 C   0  0  0  0  0  1  0  0  0  0  0  0
  183.9920  179.6260  138.7700 C   0  0  0  0  0  3  0  0  0  0  0  0
  180.6390  177.5380  141.1280 O   0  0  0  0  0  0  0  0  0  0  0  0
  181.0100  177.1370  139.9990 C   0  0  0  0  0  0  0  0  0  0  0  0
  180.7280  175.7840  139.6710 C   0  0  0  0  0  2  0  0  0  0  0  0
  179.8600  175.8150  138.4430 C   0  0  0  0  0  2  0  0  0  0  0  0
  180.6340  175.3400  137.3330 N   0  0  0  0  0  2  0  0  0  0  0  0
  180.5600  173.8830  137.3050 C   0  0  0  0  0  2  0  0  0  0  0  0
  182.2310  172.0870  136.6970 C   0  0  0  0  0  2  0  0  0  0  0  0
  183.7250  171.8340  137.1100 C   0  0  0  0  0  2  0  0  0  0  0  0
  184.0970  174.3850  136.8840 C   0  0  0  0  0  2  0  0  0  0  0  0
  181.9090  173.4540  137.1390 C   0  0  1  0  0  3  0  0  0  0  0  0
  182.7260  174.4940  136.3380 C   0  0  0  0  0  2  0  0  0  0  0  0
  184.6400  172.9940  136.6080 C   0  0  1  0  0  3  0  0  0  0  0  0
  186.7610  174.1780  137.2600 N   0  0  0  0  0  1  0  0  0  0  0  0
  186.0360  172.8820  137.2000 C   0  0  0  0  0  2  0  0  0  0  0  0
  187.0420  178.0940  140.8330 C   0  0  0  0  0  0  0  0  0  0  0  0
  185.8650  178.4030  142.9360 C   0  0  0  0  0  0  0  0  0  0  0  0
  188.1460  177.6610  141.6650 C   0  0  0  0  0  3  0  0  0  0  0  0
  186.8750  177.9610  143.7610 C   0  0  0  0  0  0  0  0  0  0  0  0
  184.6350  178.1630  143.3980 F   0  0  0  0  0  0  0  0  0  0  0  0
  187.9810  177.5370  143.0960 C   0  0  0  0  0  3  0  0  0  0  0  0
  185.9660  178.5310  141.5540 C   0  0  0  0  0  3  0  0  0  0  0  0
  186.5820  177.6140  145.2020 C   0  0  0  0  0  2  0  0  0  0  0  0
  189.2860  176.8220  148.1820 N   0  0  0  0  0  0  0  0  0  0  0  0
  187.3020  178.2350  147.6050 C   0  0  0  0  0  2  0  0  0  0  0  0
  189.2130  177.9080  145.8740 C   0  0  0  0  0  2  0  0  0  0  0  0
  187.7900  176.9470  148.3100 C   0  0  0  0  0  2  0  0  0  0  0  0
  187.6540  178.2030  146.1480 C   0  0  1  0  0  3  0  0  0  0  0  0
  189.9590  177.1530  147.0290 C   0  0  0  0  0  0  0  0  0  0  0  0
  191.8570  176.3350  145.8260 O   0  0  0  0  0  0  0  0  0  0  0  0
  192.2540  176.6370  147.9800 O   0  0  0  0  0  1  0  0  0  0  0  0
  191.4070  176.6980  146.8910 C   0  0  0  0  0  0  0  0  0  0  0  0
  189.4060  177.2350  136.3320 C   0  0  0  0  0  2  0  0  0  0  0  0
  191.2870  175.4900  137.8310 C   0  0  1  0  0  3  0  0  0  0  0  0
  191.1310  176.9000  137.7000 C   0  0  0  0  0  2  0  0  0  0  0  0
  190.0710  176.0760  137.0540 N   0  0  0  0  0  0  0  0  0  0  0  0
  195.3570  173.4300  136.4010 N   0  0  0  0  0  0  0  0  0  0  0  0
  193.9090  171.6810  136.0930 O   0  0  0  0  0  0  0  0  0  0  0  0
  193.9930  172.8890  136.5040 C   0  0  0  0  0  0  0  0  0  0  0  0
  195.0880  175.7640  136.5230 O   0  0  0  0  0  0  0  0  0  0  0  0
  192.8390  173.5420  137.0020 N   0  0  0  0  0  2  0  0  0  0  0  0
  192.5640  174.9940  137.0670 C   0  0  1  0  0  3  0  0  0  0  0  0
  193.4440  175.9290  135.7810 S   0  0  0  0  0  0  0  0  0  0  0  0
  195.8600  174.5940  136.4530 C   0  0  0  0  0  0  0  0  0  0  0  0
  197.3190  174.6930  136.1950 C   0  0  0  0  0  2  0  0  0  0  0  0
  198.0840  174.7670  138.6810 C   0  0  0  0  0  1  0  0  0  0  0  0
  198.3640  174.3740  137.2620 C   0  0  0  0  0  3  0  0  0  0  0  0
  198.8830  172.9080  137.1570 C   0  0  0  0  0  1  0  0  0  0  0  0
  1  6  1  0  0  0  0
  2 10  1  0  0  0  0
  2  6  1  0  0  0  0
  4  3  1  6  0  0  0
  4  5  1  0  0  0  0
  4  7  1  0  0  0  0
  5  2  1  0  0  0  0
  6 30  1  1  0  0  0
  7 47  1  6  0  0  0
  7  1  1  0  0  0  0
  8 13  1  0  0  0  0
  9 15  2  0  0  0  0
  9 11  1  0  0  0  0
 10 15  1  0  0  0  0
 10  8  2  0  0  0  0
 11 14  1  0  0  0  0
 11 13  2  0  0  0  0
 12  9  1  0  0  0  0
 13 17  1  0  0  0  0
 17 16  2  0  0  0  0
 18 17  1  0  0  0  0
 19 18  1  0  0  0  0
 20 19  1  0  0  0  0
 21 20  1  0  0  0  0
 22 23  1  0  0  0  0
 22 25  1  0  0  0  0
 25 21  1  6  0  0  0
 26 24  1  0  0  0  0
 26 25  1  0  0  0  0
 27 24  1  0  0  0  0
 27 23  1  0  0  0  0
 27 29  1  1  0  0  0
 29 28  1  0  0  0  0
 30 36  2  0  0  0  0
 30 32  1  0  0  0  0
 31 34  1  0  0  0  0
 31 33  2  0  0  0  0
 32 35  2  0  0  0  0
 33 37  1  0  0  0  0
 35 33  1  0  0  0  0
 36 31  1  0  0  0  0
 38 41  1  0  0  0  0
 39 41  1  0  0  0  0
 40 42  1  0  0  0  0
 40 43  1  0  0  0  0
 42 37  1  6  0  0  0
 42 39  1  0  0  0  0
 43 38  2  0  0  0  0
 44 46  2  0  0  0  0
 46 43  1  0  0  0  0
 46 45  1  0  0  0  0
 47 50  1  0  0  0  0
 48 49  1  1  0  0  0
 50 49  1  0  0  0  0
 50 48  1  0  0  0  0
 51 58  2  0  0  0  0
 51 53  1  0  0  0  0
 52 53  2  0  0  0  0
 53 55  1  0  0  0  0
 55 56  1  0  0  0  0
 56 57  1  6  0  0  0
 56 48  1  0  0  0  0
 57 54  1  0  0  0  0
 58 54  1  0  0  0  0
 59 58  1  0  0  0  0
 59 61  1  0  0  0  0
 61 60  1  0  0  0  0
 62 61  1  0  0  0  0
M  END
>  <MODEL>
2

>  <REMARK>
 VINA RESULT:      -7.8      3.454     10.852
  Name = 
  17 active torsions:
  status: ('A' for Active; 'I' for Inactive)
    1  A    between atoms: C_1  and  N_35
    2  A    between atoms: C_1  and  C_60
    3  A    between atoms: C_2  and  C_49
    4  A    between atoms: C_5  and  C_48
    5  A    between atoms: C_11  and  C_41
    6  A    between atoms: N_14  and  C_17
    7  A    between atoms: N_14  and  C_33
    8  A    between atoms: C_17  and  C_36
    9  A    between atoms: C_18  and  C_29
   10  A    between atoms: N_22  and  C_28
   11  A    between atoms: C_29  and  C_47
   12  A    between atoms: C_33  and  C_52
   13  A    between atoms: C_36  and  C_54
   14  A    between atoms: C_40  and  C_54
   15  A    between atoms: C_41  and  C_62
   16  A    between atoms: C_53  and  C_58
   17  A    between atoms: CA_56  and  C_61
                            x       y       z     vdW  Elec       q    Type
                         _______ _______ _______ _____ _____    ______ ____

>  <TORSDO>
F 17

$$$$
=
 OpenBabel11042410093D

 62 68  0  0  1  0  0  0  0  0999 V2000
  184.5730  178.7100  141.5840 C   0  0  0  0  0  2  0  0  0  0  0  0
  182.8600  179.5050  139.9100 N   0  0  0  0  0  0  0  0  0  0  0  0
  181.0730  178.4400  142.9190 O   0  0  0  0  0  1  0  0  0  0  0  0
  182.0590  178.4760  141.9600 C   0  0  1  0  0  3  0  0  0  0  0  0
  182.0230  179.7530  141.0850 C   0  0  0  0  0  2  0  0  0  0  0  0
  184.1550  178.7330  140.1400 C   0  0  1  0  0  3  0  0  0  0  0  0
  183.4500  178.2420  142.5850 C   0  0  2  0  0  3  0  0  0  0  0  0
  181.7160  178.5040  137.8360 C   0  0  0  0  0  3  0  0  0  0  0  0
  181.1160  180.9720  136.8490 C   0  0  0  0  0  0  0  0  0  0  0  0
  182.1070  179.6280  138.6580 C   0  0  0  0  0  0  0  0  0  0  0  0
  180.8220  179.9360  136.0130 C   0  0  0  0  0  0  0  0  0  0  0  0
  180.8310  182.2050  136.4480 F   0  0  0  0  0  0  0  0  0  0  0  0
  180.9580  178.7300  136.6180 C   0  0  0  0  0  0  0  0  0  0  0  0
  180.2680  180.1650  134.6420 C   0  0  0  0  0  1  0  0  0  0  0  0
  181.5710  180.8180  138.1880 C   0  0  0  0  0  3  0  0  0  0  0  0
  178.9300  177.5380  136.4040 O   0  0  0  0  0  0  0  0  0  0  0  0
  180.1310  177.6570  136.0610 C   0  0  0  0  0  0  0  0  0  0  0  0
  180.7210  176.5510  135.3910 C   0  0  0  0  0  2  0  0  0  0  0  0
  180.7890  175.4320  136.3920 C   0  0  0  0  0  2  0  0  0  0  0  0
  181.8330  174.5330  135.9920 N   0  0  0  0  0  2  0  0  0  0  0  0
  182.9700  174.7160  136.8880 C   0  0  0  0  0  2  0  0  0  0  0  0
  184.0320  173.4290  134.9890 C   0  0  0  0  0  2  0  0  0  0  0  0
  184.8560  172.0920  134.9330 C   0  0  0  0  0  2  0  0  0  0  0  0
  186.0570  172.8800  137.0850 C   0  0  0  0  0  2  0  0  0  0  0  0
  183.9590  173.8060  136.4100 C   0  0  1  0  0  3  0  0  0  0  0  0
  185.3590  174.1780  136.9500 C   0  0  0  0  0  2  0  0  0  0  0  0
  186.1970  172.2380  135.7160 C   0  0  1  0  0  3  0  0  0  0  0  0
  186.8850  170.0780  134.6270 N   0  0  0  0  0  1  0  0  0  0  0  0
  186.8880  170.8920  135.8700 C   0  0  0  0  0  2  0  0  0  0  0  0
  185.3400  178.5800  139.1660 C   0  0  0  0  0  0  0  0  0  0  0  0
  187.6750  177.9880  138.8440 C   0  0  0  0  0  0  0  0  0  0  0  0
  185.3080  178.7010  137.7230 C   0  0  0  0  0  3  0  0  0  0  0  0
  187.6760  178.0520  137.4690 C   0  0  0  0  0  0  0  0  0  0  0  0
  188.5200  177.0880  139.3520 F   0  0  0  0  0  0  0  0  0  0  0  0
  186.4640  178.3500  136.9310 C   0  0  0  0  0  3  0  0  0  0  0  0
  186.5870  178.3030  139.6530 C   0  0  0  0  0  3  0  0  0  0  0  0
  188.8140  177.4450  136.6810 C   0  0  0  0  0  2  0  0  0  0  0  0
  191.3610  174.2340  136.5230 N   0  0  0  0  0  0  0  0  0  0  0  0
  189.0550  174.9260  137.2070 C   0  0  0  0  0  2  0  0  0  0  0  0
  191.0920  176.4290  137.7950 C   0  0  0  0  0  2  0  0  0  0  0  0
  189.9170  174.2810  136.0950 C   0  0  0  0  0  2  0  0  0  0  0  0
  189.5150  176.3260  137.4860 C   0  0  1  0  0  3  0  0  0  0  0  0
  191.9620  175.2620  137.2120 C   0  0  0  0  0  0  0  0  0  0  0  0
  194.1660  174.5850  136.5780 O   0  0  0  0  0  0  0  0  0  0  0  0
  194.1430  175.9890  138.2860 O   0  0  0  0  0  1  0  0  0  0  0  0
  193.4820  175.2590  137.3170 C   0  0  0  0  0  0  0  0  0  0  0  0
  183.6420  178.8590  144.0260 C   0  0  0  0  0  2  0  0  0  0  0  0
  185.4320  177.8360  146.1660 C   0  0  1  0  0  3  0  0  0  0  0  0
  185.0000  179.1350  145.7700 C   0  0  0  0  0  2  0  0  0  0  0  0
  184.3490  177.9990  145.0590 N   0  0  0  0  0  0  0  0  0  0  0  0
  190.1660  178.0640  145.5350 N   0  0  0  0  0  0  0  0  0  0  0  0
  190.0990  177.3220  147.7020 O   0  0  0  0  0  0  0  0  0  0  0  0
  189.3720  177.6860  146.7150 C   0  0  0  0  0  0  0  0  0  0  0  0
  188.6460  177.9850  143.7410 O   0  0  0  0  0  0  0  0  0  0  0  0
  187.9640  177.7050  146.8520 N   0  0  0  0  0  2  0  0  0  0  0  0
  186.9380  177.6080  145.7890 C   0  0  1  0  0  3  0  0  0  0  0  0
  187.5270  176.6920  144.3340 S   0  0  0  0  0  0  0  0  0  0  0  0
  189.9030  178.2480  144.3080 C   0  0  0  0  0  0  0  0  0  0  0  0
  191.0610  178.5320  143.4220 C   0  0  0  0  0  2  0  0  0  0  0  0
  191.6400  176.0050  143.1990 C   0  0  0  0  0  1  0  0  0  0  0  0
  191.9100  177.4250  142.8000 C   0  0  0  0  0  3  0  0  0  0  0  0
  192.0390  177.5800  141.2550 C   0  0  0  0  0  1  0  0  0  0  0  0
  1  7  1  0  0  0  0
  2  6  1  0  0  0  0
  2  5  1  0  0  0  0
  4  7  1  0  0  0  0
  4  3  1  1  0  0  0
  5  4  1  0  0  0  0
  6 30  1  6  0  0  0
  6  1  1  0  0  0  0
  7 47  1  1  0  0  0
  8 10  1  0  0  0  0
  9 15  1  0  0  0  0
 10  2  1  0  0  0  0
 11 13  1  0  0  0  0
 11  9  2  0  0  0  0
 12  9  1  0  0  0  0
 13  8  2  0  0  0  0
 14 11  1  0  0  0  0
 15 10  2  0  0  0  0
 17 16  2  0  0  0  0
 17 13  1  0  0  0  0
 18 17  1  0  0  0  0
 18 19  1  0  0  0  0
 20 19  1  0  0  0  0
 20 21  1  0  0  0  0
 22 25  1  0  0  0  0
 23 22  1  0  0  0  0
 23 27  1  0  0  0  0
 25 21  1  6  0  0  0
 25 26  1  0  0  0  0
 26 24  1  0  0  0  0
 27 29  1  1  0  0  0
 27 24  1  0  0  0  0
 28 29  1  0  0  0  0
 30 36  1  0  0  0  0
 31 34  1  0  0  0  0
 31 36  2  0  0  0  0
 32 30  2  0  0  0  0
 33 31  1  0  0  0  0
 35 33  2  0  0  0  0
 35 32  1  0  0  0  0
 37 33  1  0  0  0  0
 38 43  2  0  0  0  0
 39 42  1  0  0  0  0
 41 38  1  0  0  0  0
 41 39  1  0  0  0  0
 42 37  1  6  0  0  0
 42 40  1  0  0  0  0
 43 46  1  0  0  0  0
 43 40  1  0  0  0  0
 44 46  2  0  0  0  0
 46 45  1  0  0  0  0
 47 50  1  0  0  0  0
 48 49  1  6  0  0  0
 50 49  1  0  0  0  0
 50 48  1  0  0  0  0
 51 53  1  0  0  0  0
 53 55  1  0  0  0  0
 53 52  2  0  0  0  0
 54 58  1  0  0  0  0
 54 57  1  0  0  0  0
 56 57  1  1  0  0  0
 56 48  1  0  0  0  0
 56 55  1  0  0  0  0
 58 51  2  0  0  0  0
 59 58  1  0  0  0  0
 61 60  1  0  0  0  0
 61 59  1  0  0  0  0
 62 61  1  0  0  0  0
M  END
>  <MODEL>
3

>  <REMARK>
 VINA RESULT:      -6.2      3.362      9.729
  Name = 
  17 active torsions:
  status: ('A' for Active; 'I' for Inactive)
    1  A    between atoms: C_1  and  N_35
    2  A    between atoms: C_1  and  C_60
    3  A    between atoms: C_2  and  C_49
    4  A    between atoms: C_5  and  C_48
    5  A    between atoms: C_11  and  C_41
    6  A    between atoms: N_14  and  C_17
    7  A    between atoms: N_14  and  C_33
    8  A    between atoms: C_17  and  C_36
    9  A    between atoms: C_18  and  C_29
   10  A    between atoms: N_22  and  C_28
   11  A    between atoms: C_29  and  C_47
   12  A    between atoms: C_33  and  C_52
   13  A    between atoms: C_36  and  C_54
   14  A    between atoms: C_40  and  C_54
   15  A    between atoms: C_41  and  C_62
   16  A    between atoms: C_53  and  C_58
   17  A    between atoms: CA_56  and  C_61
                            x       y       z     vdW  Elec       q    Type
                         _______ _______ _______ _____ _____    ______ ____

>  <TORSDO>
F 17

$$$$
=
 OpenBabel11042410093D

 62 68  0  0  1  0  0  0  0  0999 V2000
  185.4490  178.5340  140.6820 C   0  0  0  0  0  2  0  0  0  0  0  0
  183.4570  179.3890  139.3910 N   0  0  0  0  0  0  0  0  0  0  0  0
  182.3290  178.5640  142.7710 O   0  0  0  0  0  1  0  0  0  0  0  0
  183.0750  178.4940  141.6180 C   0  0  1  0  0  3  0  0  0  0  0  0
  182.9220  179.7380  140.7080 C   0  0  0  0  0  2  0  0  0  0  0  0
  184.7200  178.5350  139.3670 C   0  0  1  0  0  3  0  0  0  0  0  0
  184.5530  178.1840  141.9290 C   0  0  2  0  0  3  0  0  0  0  0  0
  181.9240  178.4080  137.5740 C   0  0  0  0  0  3  0  0  0  0  0  0
  181.0590  180.8800  136.8230 C   0  0  0  0  0  0  0  0  0  0  0  0
  182.4500  179.5210  138.3330 C   0  0  0  0  0  0  0  0  0  0  0  0
  180.6220  179.8580  136.0330 C   0  0  0  0  0  0  0  0  0  0  0  0
  180.6620  182.1140  136.5350 F   0  0  0  0  0  0  0  0  0  0  0  0
  180.9180  178.6410  136.5530 C   0  0  0  0  0  0  0  0  0  0  0  0
  179.7820  180.1060  134.8200 C   0  0  0  0  0  1  0  0  0  0  0  0
  181.7940  180.7040  138.0290 C   0  0  0  0  0  3  0  0  0  0  0  0
  178.9380  177.3690  136.7520 O   0  0  0  0  0  0  0  0  0  0  0  0
  180.0210  177.5560  136.1480 C   0  0  0  0  0  0  0  0  0  0  0  0
  180.4770  176.5070  135.3040 C   0  0  0  0  0  2  0  0  0  0  0  0
  180.3920  175.2420  136.1130 C   0  0  0  0  0  2  0  0  0  0  0  0
  181.5120  174.4130  135.7700 N   0  0  0  0  0  2  0  0  0  0  0  0
  182.4730  174.4560  136.8660 C   0  0  0  0  0  2  0  0  0  0  0  0
  183.2420  172.1180  136.2880 C   0  0  0  0  0  2  0  0  0  0  0  0
  184.6370  171.4010  136.3720 C   0  0  0  0  0  2  0  0  0  0  0  0
  185.6880  173.5990  135.5000 C   0  0  0  0  0  2  0  0  0  0  0  0
  183.5070  173.5540  136.4780 C   0  0  1  0  0  3  0  0  0  0  0  0
  184.3200  174.1220  135.2920 C   0  0  0  0  0  2  0  0  0  0  0  0
  185.6660  172.0830  135.4180 C   0  0  1  0  0  3  0  0  0  0  0  0
  187.9530  172.5180  136.3700 N   0  0  0  0  0  1  0  0  0  0  0  0
  187.0710  171.5540  135.6630 C   0  0  0  0  0  2  0  0  0  0  0  0
  185.6440  178.2630  138.1630 C   0  0  0  0  0  0  0  0  0  0  0  0
  187.7480  178.7260  137.0400 C   0  0  0  0  0  0  0  0  0  0  0  0
  185.4580  177.2710  137.1250 C   0  0  0  0  0  3  0  0  0  0  0  0
  187.6290  177.7670  136.0590 C   0  0  0  0  0  0  0  0  0  0  0  0
  189.0060  178.9770  137.4130 F   0  0  0  0  0  0  0  0  0  0  0  0
  186.5050  177.0120  136.1620 C   0  0  0  0  0  3  0  0  0  0  0  0
  186.7780  179.0080  137.9970 C   0  0  0  0  0  3  0  0  0  0  0  0
  188.8340  177.3650  135.2400 C   0  0  0  0  0  2  0  0  0  0  0  0
  192.4630  175.5530  135.8440 N   0  0  0  0  0  0  0  0  0  0  0  0
  190.1610  175.1670  134.9440 C   0  0  0  0  0  2  0  0  0  0  0  0
  190.4810  176.4140  137.2010 C   0  0  0  0  0  2  0  0  0  0  0  0
  191.6240  175.5300  134.5940 C   0  0  0  0  0  2  0  0  0  0  0  0
  189.5790  176.1760  135.8890 C   0  0  1  0  0  3  0  0  0  0  0  0
  192.0010  176.0600  137.0360 C   0  0  0  0  0  0  0  0  0  0  0  0
  192.7000  176.8910  139.1670 O   0  0  0  0  0  1  0  0  0  0  0  0
  194.3450  175.9800  138.0040 O   0  0  0  0  0  0  0  0  0  0  0  0
  193.0150  176.3280  138.1410 C   0  0  0  0  0  0  0  0  0  0  0  0
  185.1010  178.8360  143.2590 C   0  0  0  0  0  2  0  0  0  0  0  0
  186.1340  177.6600  145.7850 C   0  0  1  0  0  3  0  0  0  0  0  0
  185.6080  178.9340  145.4260 C   0  0  0  0  0  2  0  0  0  0  0  0
  185.5400  177.8910  144.3640 N   0  0  0  0  0  0  0  0  0  0  0  0
  190.8970  177.2520  145.6970 N   0  0  0  0  0  0  0  0  0  0  0  0
  190.6050  178.7490  143.9880 O   0  0  0  0  0  0  0  0  0  0  0  0
  189.9850  178.0370  144.8500 C   0  0  0  0  0  0  0  0  0  0  0  0
  189.6020  176.6410  147.5650 O   0  0  0  0  0  0  0  0  0  0  0  0
  188.5700  178.0590  144.8910 N   0  0  0  0  0  2  0  0  0  0  0  0
  187.6810  177.7430  146.0310 C   0  0  1  0  0  3  0  0  0  0  0  0
  188.4720  178.0530  147.6380 S   0  0  0  0  0  0  0  0  0  0  0  0
  190.7730  176.6200  146.7910 C   0  0  0  0  0  0  0  0  0  0  0  0
  192.0150  176.0350  147.3570 C   0  0  0  0  0  2  0  0  0  0  0  0
  193.8880  175.9440  149.1600 C   0  0  0  0  0  1  0  0  0  0  0  0
  192.4970  176.3440  148.7730 C   0  0  0  0  0  3  0  0  0  0  0  0
  192.1750  177.8090  149.1960 C   0  0  0  0  0  1  0  0  0  0  0  0
  1  7  1  0  0  0  0
  2  5  1  0  0  0  0
  4  7  1  0  0  0  0
  4  3  1  1  0  0  0
  5  4  1  0  0  0  0
  6 30  1  6  0  0  0
  6  2  1  0  0  0  0
  6  1  1  0  0  0  0
  7 47  1  1  0  0  0
  8 10  1  0  0  0  0
  9 15  1  0  0  0  0
 10  2  1  0  0  0  0
 11 13  1  0  0  0  0
 11  9  2  0  0  0  0
 12  9  1  0  0  0  0
 13  8  2  0  0  0  0
 14 11  1  0  0  0  0
 15 10  2  0  0  0  0
 17 13  1  0  0  0  0
 17 16  2  0  0  0  0
 18 19  1  0  0  0  0
 18 17  1  0  0  0  0
 20 19  1  0  0  0  0
 20 21  1  0  0  0  0
 22 23  1  0  0  0  0
 22 25  1  0  0  0  0
 25 21  1  6  0  0  0
 26 24  1  0  0  0  0
 26 25  1  0  0  0  0
 27 24  1  0  0  0  0
 27 29  1  1  0  0  0
 27 23  1  0  0  0  0
 29 28  1  0  0  0  0
 31 34  1  0  0  0  0
 31 36  2  0  0  0  0
 32 30  2  0  0  0  0
 33 35  2  0  0  0  0
 33 31  1  0  0  0  0
 35 32  1  0  0  0  0
 36 30  1  0  0  0  0
 37 33  1  0  0  0  0
 38 43  2  0  0  0  0
 39 42  1  0  0  0  0
 41 39  1  0  0  0  0
 41 38  1  0  0  0  0
 42 37  1  6  0  0  0
 42 40  1  0  0  0  0
 43 40  1  0  0  0  0
 43 46  1  0  0  0  0
 45 46  2  0  0  0  0
 46 44  1  0  0  0  0
 47 50  1  0  0  0  0
 48 49  1  1  0  0  0
 48 56  1  0  0  0  0
 50 49  1  0  0  0  0
 50 48  1  0  0  0  0
 51 58  2  0  0  0  0
 52 53  2  0  0  0  0
 53 55  1  0  0  0  0
 53 51  1  0  0  0  0
 54 57  1  0  0  0  0
 56 55  1  6  0  0  0
 56 57  1  0  0  0  0
 58 59  1  0  0  0  0
 58 54  1  0  0  0  0
 59 61  1  0  0  0  0
 61 60  1  0  0  0  0
 61 62  1  0  0  0  0
M  END
>  <MODEL>
4

>  <REMARK>
 VINA RESULT:      -6.0      3.760     10.031
  Name = 
  17 active torsions:
  status: ('A' for Active; 'I' for Inactive)
    1  A    between atoms: C_1  and  N_35
    2  A    between atoms: C_1  and  C_60
    3  A    between atoms: C_2  and  C_49
    4  A    between atoms: C_5  and  C_48
    5  A    between atoms: C_11  and  C_41
    6  A    between atoms: N_14  and  C_17
    7  A    between atoms: N_14  and  C_33
    8  A    between atoms: C_17  and  C_36
    9  A    between atoms: C_18  and  C_29
   10  A    between atoms: N_22  and  C_28
   11  A    between atoms: C_29  and  C_47
   12  A    between atoms: C_33  and  C_52
   13  A    between atoms: C_36  and  C_54
   14  A    between atoms: C_40  and  C_54
   15  A    between atoms: C_41  and  C_62
   16  A    between atoms: C_53  and  C_58
   17  A    between atoms: CA_56  and  C_61
                            x       y       z     vdW  Elec       q    Type
                         _______ _______ _______ _____ _____    ______ ____

>  <TORSDO>
F 17

$$$$
=
 OpenBabel11042410093D

 62 68  0  0  1  0  0  0  0  0999 V2000
  185.7170  178.7590  142.7890 C   0  0  0  0  0  2  0  0  0  0  0  0
  184.0760  178.9260  140.8800 N   0  0  0  0  0  0  0  0  0  0  0  0
  182.1600  178.5340  143.9710 O   0  0  0  0  0  1  0  0  0  0  0  0
  183.2070  178.4050  143.0890 C   0  0  1  0  0  3  0  0  0  0  0  0
  183.1390  179.3970  141.9020 C   0  0  0  0  0  2  0  0  0  0  0  0
  185.4040  178.3630  141.3730 C   0  0  1  0  0  3  0  0  0  0  0  0
  184.5630  178.4710  143.8220 C   0  0  2  0  0  3  0  0  0  0  0  0
  184.0440  177.9860  138.4870 C   0  0  0  0  0  3  0  0  0  0  0  0
  181.5030  178.8740  138.0610 C   0  0  0  0  0  0  0  0  0  0  0  0
  183.4070  178.6470  139.6050 C   0  0  0  0  0  0  0  0  0  0  0  0
  182.1120  178.3400  136.9640 C   0  0  0  0  0  0  0  0  0  0  0  0
  180.2550  179.3090  137.9400 F   0  0  0  0  0  0  0  0  0  0  0  0
  183.2920  177.7430  137.2690 C   0  0  0  0  0  0  0  0  0  0  0  0
  181.4390  178.3090  135.6290 C   0  0  0  0  0  1  0  0  0  0  0  0
  182.0580  178.8640  139.3720 C   0  0  0  0  0  3  0  0  0  0  0  0
  184.1970  176.9440  135.2390 O   0  0  0  0  0  0  0  0  0  0  0  0
  183.6990  176.6710  136.3570 C   0  0  0  0  0  0  0  0  0  0  0  0
  183.2580  175.3350  136.5570 C   0  0  0  0  0  2  0  0  0  0  0  0
  182.4680  174.9590  135.3340 C   0  0  0  0  0  2  0  0  0  0  0  0
  181.3700  174.1330  135.7440 N   0  0  0  0  0  2  0  0  0  0  0  0
  180.1560  174.9430  135.7470 C   0  0  0  0  0  2  0  0  0  0  0  0
  178.9520  176.1370  137.6210 C   0  0  0  0  0  2  0  0  0  0  0  0
  179.1680  176.1750  139.1770 C   0  0  0  0  0  2  0  0  0  0  0  0
  179.6320  173.6320  139.0550 C   0  0  0  0  0  2  0  0  0  0  0  0
  179.7790  175.0270  137.1190 C   0  0  1  0  0  3  0  0  0  0  0  0
  179.2400  173.6700  137.6290 C   0  0  0  0  0  2  0  0  0  0  0  0
  178.9420  174.7610  139.7980 C   0  0  1  0  0  3  0  0  0  0  0  0
  179.6750  173.3650  141.7570 N   0  0  0  0  0  1  0  0  0  0  0  0
  179.3750  174.7310  141.2560 C   0  0  0  0  0  2  0  0  0  0  0  0
  186.6640  178.0670  140.5360 C   0  0  0  0  0  0  0  0  0  0  0  0
  187.6300  177.6850  138.3390 C   0  0  0  0  0  0  0  0  0  0  0  0
  188.0350  178.0270  141.0010 C   0  0  0  0  0  3  0  0  0  0  0  0
  188.9490  177.6810  138.7340 C   0  0  0  0  0  0  0  0  0  0  0  0
  187.4290  178.1490  137.1030 F   0  0  0  0  0  0  0  0  0  0  0  0
  189.1260  177.9170  140.0600 C   0  0  0  0  0  3  0  0  0  0  0  0
  186.5430  177.8000  139.2010 C   0  0  0  0  0  3  0  0  0  0  0  0
  190.0500  177.8120  137.7070 C   0  0  0  0  0  2  0  0  0  0  0  0
  192.7600  175.7810  135.3930 N   0  0  0  0  0  0  0  0  0  0  0  0
  190.3310  175.9090  135.9810 C   0  0  0  0  0  2  0  0  0  0  0  0
  192.1290  176.0460  137.8520 C   0  0  0  0  0  2  0  0  0  0  0  0
  191.4230  176.3320  134.9700 C   0  0  0  0  0  2  0  0  0  0  0  0
  190.6480  176.4320  137.3500 C   0  0  1  0  0  3  0  0  0  0  0  0
  193.1600  175.7410  136.7090 C   0  0  0  0  0  0  0  0  0  0  0  0
  195.4480  175.3900  136.1110 O   0  0  0  0  0  0  0  0  0  0  0  0
  195.0850  175.2500  138.2870 O   0  0  0  0  0  1  0  0  0  0  0  0
  194.6300  175.4670  137.0010 C   0  0  0  0  0  0  0  0  0  0  0  0
  184.6030  179.4600  145.0520 C   0  0  0  0  0  2  0  0  0  0  0  0
  186.0630  178.8700  147.5730 C   0  0  1  0  0  3  0  0  0  0  0  0
  186.0030  179.9950  146.7000 C   0  0  0  0  0  2  0  0  0  0  0  0
  185.0560  178.8890  146.3850 N   0  0  0  0  0  0  0  0  0  0  0  0
  190.6530  177.6210  147.0940 N   0  0  0  0  0  0  0  0  0  0  0  0
  190.6490  178.2440  149.2980 O   0  0  0  0  0  0  0  0  0  0  0  0
  189.9200  178.1550  148.2520 C   0  0  0  0  0  0  0  0  0  0  0  0
  188.9790  176.9110  145.6000 O   0  0  0  0  0  0  0  0  0  0  0  0
  188.5670  178.5670  148.3040 N   0  0  0  0  0  2  0  0  0  0  0  0
  187.4420  178.1350  147.4430 C   0  0  1  0  0  3  0  0  0  0  0  0
  187.6800  176.4600  146.7770 S   0  0  0  0  0  0  0  0  0  0  0  0
  190.3140  177.1480  145.9660 C   0  0  0  0  0  0  0  0  0  0  0  0
  191.4110  176.6200  145.1160 C   0  0  0  0  0  2  0  0  0  0  0  0
  190.4690  175.8650  142.8120 C   0  0  0  0  0  1  0  0  0  0  0  0
  191.4000  176.7420  143.5930 C   0  0  0  0  0  3  0  0  0  0  0  0
  191.3330  178.2260  143.1220 C   0  0  0  0  0  1  0  0  0  0  0  0
  1  7  1  0  0  0  0
  2  6  1  0  0  0  0
  2  5  1  0  0  0  0
  4  7  1  0  0  0  0
  4  3  1  1  0  0  0
  5  4  1  0  0  0  0
  6 30  1  6  0  0  0
  6  1  1  0  0  0  0
  7 47  1  1  0  0  0
  8 10  1  0  0  0  0
  9 15  1  0  0  0  0
 10  2  1  0  0  0  0
 11 13  1  0  0  0  0
 11  9  2  0  0  0  0
 12  9  1  0  0  0  0
 13  8  2  0  0  0  0
 14 11  1  0  0  0  0
 15 10  2  0  0  0  0
 16 17  2  0  0  0  0
 17 18  1  0  0  0  0
 17 13  1  0  0  0  0
 19 20  1  0  0  0  0
 19 18  1  0  0  0  0
 20 21  1  0  0  0  0
 22 23  1  0  0  0  0
 23 27  1  0  0  0  0
 24 27  1  0  0  0  0
 25 21  1  6  0  0  0
 25 22  1  0  0  0  0
 25 26  1  0  0  0  0
 26 24  1  0  0  0  0
 27 29  1  1  0  0  0
 29 28  1  0  0  0  0
 30 32  1  0  0  0  0
 31 33  2  0  0  0  0
 31 36  1  0  0  0  0
 33 35  1  0  0  0  0
 34 31  1  0  0  0  0
 35 32  2  0  0  0  0
 36 30  2  0  0  0  0
 37 33  1  0  0  0  0
 38 43  2  0  0  0  0
 39 42  1  0  0  0  0
 41 38  1  0  0  0  0
 41 39  1  0  0  0  0
 42 37  1  6  0  0  0
 42 40  1  0  0  0  0
 43 46  1  0  0  0  0
 43 40  1  0  0  0  0
 44 46  2  0  0  0  0
 46 45  1  0  0  0  0
 47 50  1  0  0  0  0
 48 49  1  6  0  0  0
 50 49  1  0  0  0  0
 50 48  1  0  0  0  0
 51 53  1  0  0  0  0
 53 55  1  0  0  0  0
 53 52  2  0  0  0  0
 54 58  1  0  0  0  0
 54 57  1  0  0  0  0
 56 57  1  1  0  0  0
 56 48  1  0  0  0  0
 56 55  1  0  0  0  0
 58 51  2  0  0  0  0
 59 58  1  0  0  0  0
 60 61  1  0  0  0  0
 61 59  1  0  0  0  0
 62 61  1  0  0  0  0
M  END
>  <MODEL>
5

>  <REMARK>
 VINA RESULT:      -5.4      3.502      9.263
  Name = 
  17 active torsions:
  status: ('A' for Active; 'I' for Inactive)
    1  A    between atoms: C_1  and  N_35
    2  A    between atoms: C_1  and  C_60
    3  A    between atoms: C_2  and  C_49
    4  A    between atoms: C_5  and  C_48
    5  A    between atoms: C_11  and  C_41
    6  A    between atoms: N_14  and  C_17
    7  A    between atoms: N_14  and  C_33
    8  A    between atoms: C_17  and  C_36
    9  A    between atoms: C_18  and  C_29
   10  A    between atoms: N_22  and  C_28
   11  A    between atoms: C_29  and  C_47
   12  A    between atoms: C_33  and  C_52
   13  A    between atoms: C_36  and  C_54
   14  A    between atoms: C_40  and  C_54
   15  A    between atoms: C_41  and  C_62
   16  A    between atoms: C_53  and  C_58
   17  A    between atoms: CA_56  and  C_61
                            x       y       z     vdW  Elec       q    Type
                         _______ _______ _______ _____ _____    ______ ____

>  <TORSDO>
F 17

$$$$
=
 OpenBabel11042410093D

 62 68  0  0  1  0  0  0  0  0999 V2000
  191.4750  176.5890  139.7670 C   0  0  0  0  0  2  0  0  0  0  0  0
  189.4370  177.4130  138.5270 N   0  0  0  0  0  0  0  0  0  0  0  0
  188.9180  178.0620  142.0890 O   0  0  0  0  0  1  0  0  0  0  0  0
  189.3800  177.4340  140.9560 C   0  0  1  0  0  3  0  0  0  0  0  0
  189.2610  178.3000  139.6780 C   0  0  0  0  0  2  0  0  0  0  0  0
  190.4970  176.3240  138.6560 C   0  0  1  0  0  3  0  0  0  0  0  0
  190.8130  176.9020  141.1620 C   0  0  2  0  0  3  0  0  0  0  0  0
  187.1380  176.5320  137.7860 C   0  0  0  0  0  3  0  0  0  0  0  0
  187.0940  178.1760  135.6130 C   0  0  0  0  0  0  0  0  0  0  0  0
  188.2700  177.4200  137.6390 C   0  0  0  0  0  0  0  0  0  0  0  0
  186.0620  177.2860  135.6770 C   0  0  0  0  0  0  0  0  0  0  0  0
  187.1300  179.0270  134.5950 F   0  0  0  0  0  0  0  0  0  0  0  0
  186.0220  176.6270  136.8620 C   0  0  0  0  0  0  0  0  0  0  0  0
  185.0320  177.1980  134.5950 C   0  0  0  0  0  1  0  0  0  0  0  0
  188.0590  178.3610  136.6430 C   0  0  0  0  0  3  0  0  0  0  0  0
  183.8560  176.9320  137.7530 O   0  0  0  0  0  0  0  0  0  0  0  0
  184.6970  176.1440  137.2600 C   0  0  0  0  0  0  0  0  0  0  0  0
  184.4400  174.7540  137.4060 C   0  0  0  0  0  2  0  0  0  0  0  0
  182.9550  174.6120  137.5910 C   0  0  0  0  0  2  0  0  0  0  0  0
  182.4360  173.8460  136.4950 N   0  0  0  0  0  2  0  0  0  0  0  0
  181.0740  174.2930  136.2210 C   0  0  0  0  0  2  0  0  0  0  0  0
  180.5290  176.6100  137.0700 C   0  0  0  0  0  2  0  0  0  0  0  0
  180.7130  177.3070  138.4670 C   0  0  0  0  0  2  0  0  0  0  0  0
  179.9520  175.0820  139.5460 C   0  0  0  0  0  2  0  0  0  0  0  0
  180.7570  175.1730  137.2960 C   0  0  1  0  0  3  0  0  0  0  0  0
  179.6440  174.5770  138.1890 C   0  0  0  0  0  2  0  0  0  0  0  0
  179.8500  176.5970  139.5550 C   0  0  1  0  0  3  0  0  0  0  0  0
  179.7350  178.4950  141.2010 N   0  0  0  0  0  1  0  0  0  0  0  0
  180.1980  177.1070  140.9450 C   0  0  0  0  0  2  0  0  0  0  0  0
  191.0850  175.4520  137.5290 C   0  0  0  0  0  0  0  0  0  0  0  0
  192.7460  175.2070  135.7720 C   0  0  0  0  0  0  0  0  0  0  0  0
  190.7330  174.0850  137.2070 C   0  0  0  0  0  3  0  0  0  0  0  0
  192.4700  173.8940  135.4620 C   0  0  0  0  0  0  0  0  0  0  0  0
  194.0230  175.5550  135.5960 F   0  0  0  0  0  0  0  0  0  0  0  0
  191.5020  173.3380  136.2370 C   0  0  0  0  0  3  0  0  0  0  0  0
  192.0450  175.9670  136.7040 C   0  0  0  0  0  3  0  0  0  0  0  0
  193.4440  173.0880  134.6350 C   0  0  0  0  0  2  0  0  0  0  0  0
  197.1170  173.8950  136.2720 N   0  0  0  0  0  0  0  0  0  0  0  0
  195.8970  172.2890  134.7910 C   0  0  0  0  0  2  0  0  0  0  0  0
  194.8040  173.1030  137.0040 C   0  0  0  0  0  2  0  0  0  0  0  0
  196.8090  173.5380  134.8420 C   0  0  0  0  0  2  0  0  0  0  0  0
  194.6040  172.5510  135.5040 C   0  0  1  0  0  3  0  0  0  0  0  0
  196.1770  173.8120  137.2740 C   0  0  0  0  0  0  0  0  0  0  0  0
  197.6250  174.7530  138.9280 O   0  0  0  0  0  0  0  0  0  0  0  0
  195.4930  174.7880  139.5140 O   0  0  0  0  0  1  0  0  0  0  0  0
  196.4880  174.4880  138.6030 C   0  0  0  0  0  0  0  0  0  0  0  0
  191.7340  177.8100  142.0680 C   0  0  0  0  0  2  0  0  0  0  0  0
  191.0860  176.8360  144.8000 C   0  0  1  0  0  3  0  0  0  0  0  0
  190.8150  176.3580  143.4850 C   0  0  0  0  0  2  0  0  0  0  0  0
  191.7160  177.5420  143.5630 N   0  0  0  0  0  0  0  0  0  0  0  0
  186.9550  177.5360  147.1020 N   0  0  0  0  0  0  0  0  0  0  0  0
  188.3690  177.3480  148.8940 O   0  0  0  0  0  0  0  0  0  0  0  0
  188.3130  177.3040  147.6180 C   0  0  0  0  0  0  0  0  0  0  0  0
  187.2610  178.1010  144.8380 O   0  0  0  0  0  0  0  0  0  0  0  0
  189.4870  177.0380  146.8720 N   0  0  0  0  0  2  0  0  0  0  0  0
  189.7850  177.4010  145.4690 C   0  0  1  0  0  3  0  0  0  0  0  0
  188.8890  178.8880  144.9290 S   0  0  0  0  0  0  0  0  0  0  0  0
  186.4700  177.8150  145.9630 C   0  0  0  0  0  0  0  0  0  0  0  0
  185.0070  178.0650  145.9120 C   0  0  0  0  0  2  0  0  0  0  0  0
  184.7910  178.4240  143.3450 C   0  0  0  0  0  1  0  0  0  0  0  0
  184.3350  178.7620  144.7320 C   0  0  0  0  0  3  0  0  0  0  0  0
  182.7810  178.7520  144.8500 C   0  0  0  0  0  1  0  0  0  0  0  0
  1  7  1  0  0  0  0
  2  6  1  0  0  0  0
  2  5  1  0  0  0  0
  4  7  1  0  0  0  0
  4  3  1  1  0  0  0
  5  4  1  0  0  0  0
  6 30  1  6  0  0  0
  6  1  1  0  0  0  0
  7 47  1  6  0  0  0
  9 11  2  0  0  0  0
  9 15  1  0  0  0  0
 10  8  1  0  0  0  0
 10  2  1  0  0  0  0
 11 13  1  0  0  0  0
 12  9  1  0  0  0  0
 13 17  1  0  0  0  0
 13  8  2  0  0  0  0
 14 11  1  0  0  0  0
 15 10  2  0  0  0  0
 17 18  1  0  0  0  0
 17 16  2  0  0  0  0
 18 19  1  0  0  0  0
 20 19  1  0  0  0  0
 21 20  1  0  0  0  0
 22 25  1  0  0  0  0
 22 23  1  0  0  0  0
 23 27  1  0  0  0  0
 24 27  1  0  0  0  0
 25 21  1  6  0  0  0
 25 26  1  0  0  0  0
 26 24  1  0  0  0  0
 27 29  1  1  0  0  0
 29 28  1  0  0  0  0
 31 36  1  0  0  0  0
 32 30  1  0  0  0  0
 33 31  2  0  0  0  0
 33 35  1  0  0  0  0
 34 31  1  0  0  0  0
 35 32  2  0  0  0  0
 36 30  2  0  0  0  0
 37 33  1  0  0  0  0
 38 43  2  0  0  0  0
 39 41  1  0  0  0  0
 39 42  1  0  0  0  0
 40 43  1  0  0  0  0
 41 38  1  0  0  0  0
 42 37  1  6  0  0  0
 42 40  1  0  0  0  0
 43 46  1  0  0  0  0
 46 44  2  0  0  0  0
 46 45  1  0  0  0  0
 47 50  1  0  0  0  0
 48 49  1  6  0  0  0
 48 56  1  0  0  0  0
 49 50  1  0  0  0  0
 50 48  1  0  0  0  0
 51 53  1  0  0  0  0
 53 52  2  0  0  0  0
 54 57  1  0  0  0  0
 54 58  1  0  0  0  0
 55 53  1  0  0  0  0
 56 57  1  1  0  0  0
 56 55  1  0  0  0  0
 58 51  2  0  0  0  0
 59 58  1  0  0  0  0
 60 61  1  0  0  0  0
 61 62  1  0  0  0  0
 61 59  1  0  0  0  0
M  END
>  <MODEL>
6

>  <REMARK>
 VINA RESULT:      -5.4      2.522      6.870
  Name = 
  17 active torsions:
  status: ('A' for Active; 'I' for Inactive)
    1  A    between atoms: C_1  and  N_35
    2  A    between atoms: C_1  and  C_60
    3  A    between atoms: C_2  and  C_49
    4  A    between atoms: C_5  and  C_48
    5  A    between atoms: C_11  and  C_41
    6  A    between atoms: N_14  and  C_17
    7  A    between atoms: N_14  and  C_33
    8  A    between atoms: C_17  and  C_36
    9  A    between atoms: C_18  and  C_29
   10  A    between atoms: N_22  and  C_28
   11  A    between atoms: C_29  and  C_47
   12  A    between atoms: C_33  and  C_52
   13  A    between atoms: C_36  and  C_54
   14  A    between atoms: C_40  and  C_54
   15  A    between atoms: C_41  and  C_62
   16  A    between atoms: C_53  and  C_58
   17  A    between atoms: CA_56  and  C_61
                            x       y       z     vdW  Elec       q    Type
                         _______ _______ _______ _____ _____    ______ ____

>  <TORSDO>
F 17

$$$$
=
 OpenBabel11042410093D

 62 68  0  0  1  0  0  0  0  0999 V2000
  186.2370  178.6270  140.9160 C   0  0  0  0  0  2  0  0  0  0  0  0
  187.5560  178.1990  138.8080 N   0  0  0  0  0  0  0  0  0  0  0  0
  184.0060  178.2010  137.9270 O   0  0  0  0  0  1  0  0  0  0  0  0
  185.1340  178.0290  138.6930 C   0  0  1  0  0  3  0  0  0  0  0  0
  186.3830  178.7460  138.1230 C   0  0  0  0  0  2  0  0  0  0  0  0
  187.4100  177.9180  140.3000 C   0  0  1  0  0  3  0  0  0  0  0  0
  184.8700  178.4120  140.1650 C   0  0  2  0  0  3  0  0  0  0  0  0
  189.2910  176.4100  138.1750 C   0  0  0  0  0  3  0  0  0  0  0  0
  189.7820  177.5900  135.7680 C   0  0  0  0  0  0  0  0  0  0  0  0
  188.5060  177.5860  137.8740 C   0  0  0  0  0  0  0  0  0  0  0  0
  190.6000  176.5400  136.0670 C   0  0  0  0  0  0  0  0  0  0  0  0
  189.9440  178.2030  134.6020 F   0  0  0  0  0  0  0  0  0  0  0  0
  190.1960  175.8710  137.1760 C   0  0  0  0  0  0  0  0  0  0  0  0
  191.7110  176.1250  135.1550 C   0  0  0  0  0  1  0  0  0  0  0  0
  188.6630  177.9840  136.5550 C   0  0  0  0  0  3  0  0  0  0  0  0
  189.7500  173.5740  137.4930 O   0  0  0  0  0  0  0  0  0  0  0  0
  190.5950  174.4620  137.2320 C   0  0  0  0  0  0  0  0  0  0  0  0
  191.9650  174.0930  137.3170 C   0  0  0  0  0  2  0  0  0  0  0  0
  192.2620  173.2720  136.0930 C   0  0  0  0  0  2  0  0  0  0  0  0
  193.1520  172.2120  136.4680 N   0  0  0  0  0  2  0  0  0  0  0  0
  194.1040  172.0000  135.3830 C   0  0  0  0  0  2  0  0  0  0  0  0
  196.1190  171.3220  136.7510 C   0  0  0  0  0  2  0  0  0  0  0  0
  197.1620  172.1390  137.5950 C   0  0  0  0  0  2  0  0  0  0  0  0
  197.1450  173.8960  135.6950 C   0  0  0  0  0  2  0  0  0  0  0  0
  195.3760  172.3080  135.9500 C   0  0  1  0  0  3  0  0  0  0  0  0
  196.3010  172.9730  134.9040 C   0  0  0  0  0  2  0  0  0  0  0  0
  197.9830  173.0970  136.6770 C   0  0  1  0  0  3  0  0  0  0  0  0
  198.0740  175.2530  137.9690 N   0  0  0  0  0  1  0  0  0  0  0  0
  198.8240  174.0580  137.5040 C   0  0  0  0  0  2  0  0  0  0  0  0
  188.5360  177.6190  141.3100 C   0  0  0  0  0  0  0  0  0  0  0  0
  190.0120  178.4550  143.0500 C   0  0  0  0  0  0  0  0  0  0  0  0
  189.0990  176.3260  141.6350 C   0  0  0  0  0  3  0  0  0  0  0  0
  190.5430  177.2390  143.4170 C   0  0  0  0  0  0  0  0  0  0  0  0
  189.9240  179.3390  144.0470 F   0  0  0  0  0  0  0  0  0  0  0  0
  190.0240  176.1840  142.7370 C   0  0  0  0  0  3  0  0  0  0  0  0
  189.1110  178.6450  142.0060 C   0  0  0  0  0  3  0  0  0  0  0  0
  191.3030  177.1030  144.7170 C   0  0  0  0  0  2  0  0  0  0  0  0
  189.0970  178.1670  148.0060 N   0  0  0  0  0  0  0  0  0  0  0  0
  190.9500  176.6700  147.2400 C   0  0  0  0  0  2  0  0  0  0  0  0
  188.8020  176.9210  145.7990 C   0  0  0  0  0  2  0  0  0  0  0  0
  190.5930  178.0160  147.9150 C   0  0  0  0  0  2  0  0  0  0  0  0
  190.3800  176.6080  145.8540 C   0  0  1  0  0  3  0  0  0  0  0  0
  188.2510  177.7740  146.9950 C   0  0  0  0  0  0  0  0  0  0  0  0
  186.1860  178.2850  148.0870 O   0  0  0  0  0  1  0  0  0  0  0  0
  186.1260  178.6280  145.9030 O   0  0  0  0  0  0  0  0  0  0  0  0
  186.8060  178.2530  147.0460 C   0  0  0  0  0  0  0  0  0  0  0  0
  183.8800  179.6250  140.3670 C   0  0  0  0  0  2  0  0  0  0  0  0
  181.1430  178.4710  140.2980 C   0  0  1  0  0  3  0  0  0  0  0  0
  182.2690  178.3060  141.1560 C   0  0  0  0  0  2  0  0  0  0  0  0
  182.4050  179.3650  140.1170 N   0  0  0  0  0  0  0  0  0  0  0  0
  181.0610  174.1100  138.3410 N   0  0  0  0  0  0  0  0  0  0  0  0
  179.4580  173.8400  139.9540 O   0  0  0  0  0  0  0  0  0  0  0  0
  180.3020  174.6690  139.4690 C   0  0  0  0  0  0  0  0  0  0  0  0
  181.9590  175.9840  137.2350 O   0  0  0  0  0  0  0  0  0  0  0  0
  180.4250  175.9580  140.0410 N   0  0  0  0  0  2  0  0  0  0  0  0
  180.9270  177.1980  139.4070 C   0  0  1  0  0  3  0  0  0  0  0  0
  180.6800  177.2090  137.6060 S   0  0  0  0  0  0  0  0  0  0  0  0
  181.7950  174.6030  137.4300 C   0  0  0  0  0  0  0  0  0  0  0  0
  182.3000  173.6540  136.4060 C   0  0  0  0  0  2  0  0  0  0  0  0
  184.3440  172.4490  135.3370 C   0  0  0  0  0  1  0  0  0  0  0  0
  183.6150  172.8930  136.5690 C   0  0  0  0  0  3  0  0  0  0  0  0
  184.5680  173.5790  137.5930 C   0  0  0  0  0  1  0  0  0  0  0  0
  2  6  1  0  0  0  0
  4  3  1  6  0  0  0
  4  7  1  0  0  0  0
  5  4  1  0  0  0  0
  5  2  1  0  0  0  0
  6  1  1  0  0  0  0
  6 30  1  1  0  0  0
  7 47  1  6  0  0  0
  7  1  1  0  0  0  0
  9 11  2  0  0  0  0
  9 15  1  0  0  0  0
 10  8  1  0  0  0  0
 10  2  1  0  0  0  0
 11 13  1  0  0  0  0
 12  9  1  0  0  0  0
 13 17  1  0  0  0  0
 13  8  2  0  0  0  0
 14 11  1  0  0  0  0
 15 10  2  0  0  0  0
 17 18  1  0  0  0  0
 17 16  2  0  0  0  0
 19 20  1  0  0  0  0
 19 18  1  0  0  0  0
 21 20  1  0  0  0  0
 22 23  1  0  0  0  0
 24 27  1  0  0  0  0
 25 21  1  6  0  0  0
 25 22  1  0  0  0  0
 26 24  1  0  0  0  0
 26 25  1  0  0  0  0
 27 29  1  1  0  0  0
 27 23  1  0  0  0  0
 29 28  1  0  0  0  0
 30 32  2  0  0  0  0
 30 36  1  0  0  0  0
 31 33  1  0  0  0  0
 31 34  1  0  0  0  0
 32 35  1  0  0  0  0
 33 37  1  0  0  0  0
 35 33  2  0  0  0  0
 36 31  2  0  0  0  0
 39 41  1  0  0  0  0
 40 42  1  0  0  0  0
 40 43  1  0  0  0  0
 41 38  1  0  0  0  0
 42 37  1  6  0  0  0
 42 39  1  0  0  0  0
 43 46  1  0  0  0  0
 43 38  2  0  0  0  0
 45 46  2  0  0  0  0
 46 44  1  0  0  0  0
 48 49  1  1  0  0  0
 50 48  1  0  0  0  0
 50 47  1  0  0  0  0
 50 49  1  0  0  0  0
 51 53  1  0  0  0  0
 53 52  2  0  0  0  0
 53 55  1  0  0  0  0
 54 58  1  0  0  0  0
 54 57  1  0  0  0  0
 56 57  1  6  0  0  0
 56 55  1  0  0  0  0
 56 48  1  0  0  0  0
 58 51  2  0  0  0  0
 59 61  1  0  0  0  0
 59 58  1  0  0  0  0
 60 61  1  0  0  0  0
 61 62  1  0  0  0  0
M  END
>  <MODEL>
7

>  <REMARK>
 VINA RESULT:      -5.3      2.957      9.669
  Name = 
  17 active torsions:
  status: ('A' for Active; 'I' for Inactive)
    1  A    between atoms: C_1  and  N_35
    2  A    between atoms: C_1  and  C_60
    3  A    between atoms: C_2  and  C_49
    4  A    between atoms: C_5  and  C_48
    5  A    between atoms: C_11  and  C_41
    6  A    between atoms: N_14  and  C_17
    7  A    between atoms: N_14  and  C_33
    8  A    between atoms: C_17  and  C_36
    9  A    between atoms: C_18  and  C_29
   10  A    between atoms: N_22  and  C_28
   11  A    between atoms: C_29  and  C_47
   12  A    between atoms: C_33  and  C_52
   13  A    between atoms: C_36  and  C_54
   14  A    between atoms: C_40  and  C_54
   15  A    between atoms: C_41  and  C_62
   16  A    between atoms: C_53  and  C_58
   17  A    between atoms: CA_56  and  C_61
                            x       y       z     vdW  Elec       q    Type
                         _______ _______ _______ _____ _____    ______ ____

>  <TORSDO>
F 17

$$$$
=
 OpenBabel11042410093D

 62 68  0  0  1  0  0  0  0  0999 V2000
  187.7970  177.7520  142.3340 C   0  0  0  0  0  2  0  0  0  0  0  0
  189.8690  176.9630  141.1290 N   0  0  0  0  0  0  0  0  0  0  0  0
  190.9240  178.5250  144.2640 O   0  0  0  0  0  1  0  0  0  0  0  0
  190.1570  178.2850  143.1480 C   0  0  1  0  0  3  0  0  0  0  0  0
  190.4710  176.9310  142.4640 C   0  0  0  0  0  2  0  0  0  0  0  0
  188.4970  177.6170  141.0100 C   0  0  1  0  0  3  0  0  0  0  0  0
  188.6550  178.4390  143.4630 C   0  0  2  0  0  3  0  0  0  0  0  0
  190.6080  176.0910  138.8260 C   0  0  0  0  0  3  0  0  0  0  0  0
  193.1680  176.9420  139.2100 C   0  0  0  0  0  0  0  0  0  0  0  0
  190.8660  176.7830  140.0690 C   0  0  0  0  0  0  0  0  0  0  0  0
  192.9730  176.2120  138.0750 C   0  0  0  0  0  0  0  0  0  0  0  0
  194.3850  177.4120  139.4560 F   0  0  0  0  0  0  0  0  0  0  0  0
  191.6590  175.9770  137.8310 C   0  0  0  0  0  0  0  0  0  0  0  0
  194.1040  175.8690  137.1570 C   0  0  0  0  0  1  0  0  0  0  0  0
  192.1240  177.3660  140.0800 C   0  0  0  0  0  3  0  0  0  0  0  0
  192.1930  175.3990  135.6040 O   0  0  0  0  0  0  0  0  0  0  0  0
  191.3160  175.7640  136.4230 C   0  0  0  0  0  0  0  0  0  0  0  0
  190.1000  176.2650  135.8830 C   0  0  0  0  0  2  0  0  0  0  0  0
  189.6210  175.2420  134.8910 C   0  0  0  0  0  2  0  0  0  0  0  0
  188.2660  174.9010  135.2160 N   0  0  0  0  0  2  0  0  0  0  0  0
  188.2760  174.0130  136.3740 C   0  0  0  0  0  2  0  0  0  0  0  0
  187.3960  171.7800  135.5830 C   0  0  0  0  0  2  0  0  0  0  0  0
  185.9990  171.3150  135.0360 C   0  0  0  0  0  2  0  0  0  0  0  0
  184.9220  172.8060  136.8560 C   0  0  0  0  0  2  0  0  0  0  0  0
  187.1870  173.1190  136.1560 C   0  0  1  0  0  3  0  0  0  0  0  0
  186.2760  173.0440  137.4040 C   0  0  0  0  0  2  0  0  0  0  0  0
  184.8980  171.4730  136.1310 C   0  0  1  0  0  3  0  0  0  0  0  0
  182.9640  169.8970  135.8100 N   0  0  0  0  0  1  0  0  0  0  0  0
  183.5120  171.2530  135.5460 C   0  0  0  0  0  2  0  0  0  0  0  0
  187.5230  177.5400  139.8170 C   0  0  0  0  0  0  0  0  0  0  0  0
  185.4150  178.2430  138.8350 C   0  0  0  0  0  0  0  0  0  0  0  0
  187.7530  176.8960  138.5410 C   0  0  0  0  0  3  0  0  0  0  0  0
  185.6120  177.6800  137.5940 C   0  0  0  0  0  0  0  0  0  0  0  0
  184.6820  179.3590  138.8210 F   0  0  0  0  0  0  0  0  0  0  0  0
  186.8150  177.0660  137.4540 C   0  0  0  0  0  3  0  0  0  0  0  0
  186.2890  178.1200  139.9110 C   0  0  0  0  0  3  0  0  0  0  0  0
  184.7390  178.0860  136.4290 C   0  0  0  0  0  2  0  0  0  0  0  0
  181.3320  176.2740  135.0410 N   0  0  0  0  0  0  0  0  0  0  0  0
  182.2540  178.4630  135.8290 C   0  0  0  0  0  2  0  0  0  0  0  0
  182.8120  176.2780  137.1190 C   0  0  0  0  0  2  0  0  0  0  0  0
  181.9170  177.5890  134.5970 C   0  0  0  0  0  2  0  0  0  0  0  0
  183.2520  177.7710  136.7090 C   0  0  1  0  0  3  0  0  0  0  0  0
  181.8010  175.5890  136.1380 C   0  0  0  0  0  0  0  0  0  0  0  0
  180.8080  173.5330  135.4260 O   0  0  0  0  0  0  0  0  0  0  0  0
  181.5460  173.4690  137.5090 O   0  0  0  0  0  1  0  0  0  0  0  0
  181.3650  174.1390  136.3150 C   0  0  0  0  0  0  0  0  0  0  0  0
  188.2280  177.9660  144.9070 C   0  0  0  0  0  2  0  0  0  0  0  0
  185.4630  178.5460  145.8300 C   0  0  1  0  0  3  0  0  0  0  0  0
  186.1740  177.3530  145.5140 C   0  0  0  0  0  2  0  0  0  0  0  0
  186.9860  178.6020  145.5060 N   0  0  0  0  0  0  0  0  0  0  0  0
  181.8620  178.5470  142.6860 N   0  0  0  0  0  0  0  0  0  0  0  0
  180.6920  178.9500  144.6140 O   0  0  0  0  0  0  0  0  0  0  0  0
  181.8600  178.7200  144.1470 C   0  0  0  0  0  0  0  0  0  0  0  0
  184.1060  178.8550  142.0480 O   0  0  0  0  0  0  0  0  0  0  0  0
  182.9650  178.6420  145.0280 N   0  0  0  0  0  2  0  0  0  0  0  0
  184.3960  178.8700  144.7270 C   0  0  1  0  0  3  0  0  0  0  0  0
  184.6410  180.0120  143.3340 S   0  0  0  0  0  0  0  0  0  0  0  0
  182.7610  178.5440  141.7910 C   0  0  0  0  0  0  0  0  0  0  0  0
  182.2930  178.4290  140.3860 C   0  0  0  0  0  2  0  0  0  0  0  0
  180.2400  179.2090  138.9910 C   0  0  0  0  0  1  0  0  0  0  0  0
  180.8160  178.2870  140.0230 C   0  0  0  0  0  3  0  0  0  0  0  0
  180.4140  176.8040  139.7650 C   0  0  0  0  0  1  0  0  0  0  0  0
  1  7  1  0  0  0  0
  2  5  1  0  0  0  0
  4  7  1  0  0  0  0
  4  3  1  1  0  0  0
  5  4  1  0  0  0  0
  6 30  1  6  0  0  0
  6  2  1  0  0  0  0
  6  1  1  0  0  0  0
  7 47  1  1  0  0  0
  8 10  1  0  0  0  0
  9 12  1  0  0  0  0
  9 15  1  0  0  0  0
 10 15  2  0  0  0  0
 10  2  1  0  0  0  0
 11  9  2  0  0  0  0
 13 11  1  0  0  0  0
 13  8  2  0  0  0  0
 14 11  1  0  0  0  0
 16 17  2  0  0  0  0
 17 13  1  0  0  0  0
 18 17  1  0  0  0  0
 19 20  1  0  0  0  0
 19 18  1  0  0  0  0
 20 21  1  0  0  0  0
 22 25  1  0  0  0  0
 23 22  1  0  0  0  0
 23 27  1  0  0  0  0
 24 26  1  0  0  0  0
 25 21  1  1  0  0  0
 25 26  1  0  0  0  0
 27 29  1  6  0  0  0
 27 24  1  0  0  0  0
 29 28  1  0  0  0  0
 30 36  1  0  0  0  0
 31 36  2  0  0  0  0
 32 30  2  0  0  0  0
 33 31  1  0  0  0  0
 34 31  1  0  0  0  0
 35 33  2  0  0  0  0
 35 32  1  0  0  0  0
 37 33  1  0  0  0  0
 38 43  2  0  0  0  0
 39 42  1  0  0  0  0
 41 38  1  0  0  0  0
 41 39  1  0  0  0  0
 42 37  1  6  0  0  0
 42 40  1  0  0  0  0
 43 46  1  0  0  0  0
 43 40  1  0  0  0  0
 44 46  2  0  0  0  0
 46 45  1  0  0  0  0
 47 50  1  0  0  0  0
 48 49  1  6  0  0  0
 50 49  1  0  0  0  0
 50 48  1  0  0  0  0
 51 53  1  0  0  0  0
 53 52  2  0  0  0  0
 53 55  1  0  0  0  0
 54 57  1  0  0  0  0
 56 57  1  1  0  0  0
 56 55  1  0  0  0  0
 56 48  1  0  0  0  0
 58 54  1  0  0  0  0
 58 51  2  0  0  0  0
 59 58  1  0  0  0  0
 60 61  1  0  0  0  0
 61 59  1  0  0  0  0
 62 61  1  0  0  0  0
M  END
>  <MODEL>
8

>  <REMARK>
 VINA RESULT:      -5.2      3.100      9.145
  Name = 
  17 active torsions:
  status: ('A' for Active; 'I' for Inactive)
    1  A    between atoms: C_1  and  N_35
    2  A    between atoms: C_1  and  C_60
    3  A    between atoms: C_2  and  C_49
    4  A    between atoms: C_5  and  C_48
    5  A    between atoms: C_11  and  C_41
    6  A    between atoms: N_14  and  C_17
    7  A    between atoms: N_14  and  C_33
    8  A    between atoms: C_17  and  C_36
    9  A    between atoms: C_18  and  C_29
   10  A    between atoms: N_22  and  C_28
   11  A    between atoms: C_29  and  C_47
   12  A    between atoms: C_33  and  C_52
   13  A    between atoms: C_36  and  C_54
   14  A    between atoms: C_40  and  C_54
   15  A    between atoms: C_41  and  C_62
   16  A    between atoms: C_53  and  C_58
   17  A    between atoms: CA_56  and  C_61
                            x       y       z     vdW  Elec       q    Type
                         _______ _______ _______ _____ _____    ______ ____

>  <TORSDO>
F 17

$$$$
