=
 OpenBabel11032419233D

 51 57  0  0  1  0  0  0  0  0999 V2000
  189.0890  176.5400  140.0130 C   0  0  0  0  0  2  0  0  0  0  0  0
  188.8930  176.8600  137.5430 C   0  0  1  0  0  3  0  0  0  0  0  0
  188.4990  178.3050  137.8130 C   0  0  1  0  0  3  0  0  0  0  0  0
  189.4340  178.6320  138.9940 C   0  0  2  0  0  3  0  0  0  0  0  0
  188.8540  179.1630  136.6140 C   0  0  0  0  0  1  0  0  0  0  0  0
  189.8640  176.5900  138.6900 C   0  0  1  0  0  3  0  0  0  0  0  0
  190.5450  177.8100  138.7670 O   0  0  0  0  0  0  0  0  0  0  0  0
  188.8660  178.0200  140.2780 C   0  0  1  0  0  3  0  0  0  0  0  0
  186.0740  176.5290  137.5180 S   0  0  0  0  0  0  0  0  0  0  0  0
  185.9730  177.6310  135.1270 O   0  0  0  0  0  1  0  0  0  0  0  0
  185.8150  176.3780  135.7240 C   0  0  1  0  0  0  0  0  0  0  0  0
  186.8540  175.4430  135.2140 C   0  0  0  0  0  3  0  0  0  0  0  0
  187.8470  175.1680  136.0460 C   0  0  0  0  0  0  0  0  0  0  0  0
  187.7590  175.8270  137.3810 C   0  0  1  0  0  3  0  0  0  0  0  0
  190.9950  172.4860  135.0090 C   0  0  0  0  0  3  0  0  0  0  0  0
  190.2590  174.7080  135.5690 C   0  0  0  0  0  3  0  0  0  0  0  0
  191.2900  173.8310  135.2300 C   0  0  0  0  0  3  0  0  0  0  0  0
  188.9430  174.2410  135.6870 C   0  0  0  0  0  0  0  0  0  0  0  0
  189.7160  172.0400  135.1260 N   0  0  0  0  0  0  0  0  0  0  0  0
  188.6970  172.8790  135.4560 C   0  0  0  0  0  3  0  0  0  0  0  0
  184.4080  175.8440  135.4680 C   0  0  0  0  0  2  0  0  0  0  0  0
  183.3940  176.6580  136.1320 N   0  0  0  0  0  2  0  0  0  0  0  0
  182.5180  175.7700  136.8890 C   0  0  2  0  0  3  0  0  0  0  0  0
  182.1040  174.7240  136.0590 O   0  0  0  0  0  1  0  0  0  0  0  0
  181.5940  177.9700  137.3300 C   0  0  0  0  0  2  0  0  0  0  0  0
  180.2130  177.4630  139.1730 C   0  0  2  0  0  3  0  0  0  0  0  0
  181.1660  178.5390  138.6860 C   0  0  1  0  0  3  0  0  0  0  0  0
  183.1500  177.2500  139.6610 C   0  0  0  0  0  2  0  0  0  0  0  0
  182.3980  178.5940  139.6140 C   0  0  0  0  0  2  0  0  0  0  0  0
  181.3460  176.5170  137.3670 N   0  0  0  0  0  0  0  0  0  0  0  0
  182.1940  176.0420  139.7060 C   0  0  0  0  0  2  0  0  0  0  0  0
  179.8430  177.5430  140.6530 C   0  0  0  0  0  1  0  0  0  0  0  0
  180.9660  176.2160  138.7620 C   0  0  1  0  0  3  0  0  0  0  0  0
  187.4010  178.3530  140.5300 C   0  0  0  0  0  2  0  0  0  0  0  0
  187.1800  178.7030  141.9900 C   0  0  0  0  0  2  0  0  0  0  0  0
  186.2540  177.6780  142.6200 C   0  0  0  0  0  2  0  0  0  0  0  0
  185.6330  178.4280  144.8840 N   0  0  0  0  0  0  0  0  0  0  0  0
  186.3850  177.6980  144.1090 C   0  0  0  0  0  0  0  0  0  0  0  0
  184.5780  179.3230  144.4980 C   0  0  0  0  0  0  0  0  0  0  0  0
  184.8200  180.4350  143.9530 O   0  0  0  0  0  0  0  0  0  0  0  0
  182.4280  178.8980  143.3720 C   0  0  0  0  0  1  0  0  0  0  0  0
  183.1620  178.9060  144.7040 C   0  0  0  0  0  2  0  0  0  0  0  0
  187.3790  176.7760  144.7230 C   0  0  0  0  0  2  0  0  0  0  0  0
  188.7560  177.0010  144.1190 C   0  0  0  0  0  2  0  0  0  0  0  0
  191.4760  176.9160  146.6950 N   0  0  0  0  0  0  0  0  0  0  0  0
  191.0090  178.0560  144.5800 C   0  0  0  0  0  2  0  0  0  0  0  0
  189.5080  178.0760  144.8930 C   0  0  0  0  0  3  0  0  0  0  0  0
  191.6870  176.8610  145.2510 C   0  0  0  0  0  2  0  0  0  0  0  0
  192.1500  175.7610  147.2590 C   0  0  0  0  0  1  0  0  0  0  0  0
  190.0500  176.7420  146.9610 C   0  0  0  0  0  2  0  0  0  0  0  0
  189.2630  177.9270  146.3960 C   0  0  0  0  0  2  0  0  0  0  0  0
  1  8  1  0  0  0  0
  2 14  1  1  0  0  0
  2  3  1  0  0  0  0
  2  6  1  0  0  0  0
  3  5  1  6  0  0  0
  3  4  1  0  0  0  0
  4  7  1  6  0  0  0
  4  8  1  0  0  0  0
  6  7  1  0  0  0  0
  6  1  1  1  0  0  0
  8 34  1  6  0  0  0
 11 10  1  6  0  0  0
 11  9  1  0  0  0  0
 12 11  1  0  0  0  0
 12 13  2  0  0  0  0
 14 13  1  6  0  0  0
 14  9  1  0  0  0  0
 15 19  2  0  0  0  0
 15 17  1  0  0  0  0
 16 18  1  0  0  0  0
 17 16  2  0  0  0  0
 18 13  1  0  0  0  0
 19 20  1  0  0  0  0
 20 18  2  0  0  0  0
 21 11  1  0  0  0  0
 21 22  1  0  0  0  0
 22 23  1  0  0  0  0
 23 24  1  6  0  0  0
 23 30  1  0  0  0  0
 25 30  1  0  0  0  0
 26 32  1  1  0  0  0
 27 25  1  6  0  0  0
 27 26  1  0  0  0  0
 27 29  1  0  0  0  0
 28 31  1  0  0  0  0
 29 28  1  0  0  0  0
 30 33  1  0  0  0  0
 33 26  1  0  0  0  0
 33 31  1  1  0  0  0
 34 35  1  0  0  0  0
 35 36  1  0  0  0  0
 36 38  1  0  0  0  0
 38 43  1  0  0  0  0
 38 37  2  0  0  0  0
 39 42  1  0  0  0  0
 39 37  1  0  0  0  0
 40 39  2  0  0  0  0
 41 42  1  0  0  0  0
 44 43  1  0  0  0  0
 44 47  1  0  0  0  0
 45 50  1  0  0  0  0
 45 49  1  0  0  0  0
 46 47  1  0  0  0  0
 46 48  1  0  0  0  0
 47 51  1  0  0  0  0
 48 45  1  0  0  0  0
 51 50  1  0  0  0  0
M  END
>  <MODEL>
1

>  <REMARK>
 VINA RESULT:      -7.2      0.000      0.000
  Name = 
  15 active torsions:
  status: ('A' for Active; 'I' for Inactive)
    1  A    between atoms: N_3  and  C_20
    2  A    between atoms: C_5  and  C_50
    3  A    between atoms: C_7  and  C_26
    4  A    between atoms: C_7  and  C_41
    5  A    between atoms: N_13  and  C_17
    6  A    between atoms: N_13  and  C_48
    7  A    between atoms: C_14  and  C_48
    8  A    between atoms: C_17  and  N_36
    9  A    between atoms: C_19  and  C_24
   10  A    between atoms: C_19  and  C_33
   11  A    between atoms: C_20  and  C_38
   12  A    between atoms: C_24  and  C_29
   13  A    between atoms: C_26  and  C_33
   14  A    between atoms: C_30  and  C_41
   15  A    between atoms: C_32  and  C_43
                            x       y       z     vdW  Elec       q    Type
                         _______ _______ _______ _____ _____    ______ ____

>  <TORSDO>
F 15

$$$$
=
 OpenBabel11032419233D

 51 57  0  0  1  0  0  0  0  0999 V2000
  189.4270  176.1640  138.8930 C   0  0  0  0  0  2  0  0  0  0  0  0
  188.5840  175.9680  136.5490 C   0  0  1  0  0  3  0  0  0  0  0  0
  188.9870  177.4210  136.3370 C   0  0  1  0  0  3  0  0  0  0  0  0
  190.3020  177.4650  137.1380 C   0  0  2  0  0  3  0  0  0  0  0  0
  189.2620  177.6650  134.8670 C   0  0  0  0  0  1  0  0  0  0  0  0
  189.6550  175.4960  137.5300 C   0  0  1  0  0  3  0  0  0  0  0  0
  190.7880  176.1550  137.0390 O   0  0  0  0  0  0  0  0  0  0  0  0
  189.9860  177.5540  138.6340 C   0  0  1  0  0  3  0  0  0  0  0  0
  186.0920  177.1790  137.1680 S   0  0  0  0  0  0  0  0  0  0  0  0
  185.6930  177.6490  134.6070 O   0  0  0  0  0  1  0  0  0  0  0  0
  185.2040  176.8230  135.6210 C   0  0  1  0  0  0  0  0  0  0  0  0
  185.4750  175.3990  135.2850 C   0  0  0  0  0  3  0  0  0  0  0  0
  186.4570  174.8190  135.9590 C   0  0  0  0  0  0  0  0  0  0  0  0
  187.1290  175.6830  136.9720 C   0  0  1  0  0  3  0  0  0  0  0  0
  187.5420  170.7400  135.3560 C   0  0  0  0  0  3  0  0  0  0  0  0
  185.8550  172.4560  135.4010 C   0  0  0  0  0  3  0  0  0  0  0  0
  186.2090  171.1210  135.2040 C   0  0  0  0  0  3  0  0  0  0  0  0
  186.8290  173.4020  135.7470 C   0  0  0  0  0  0  0  0  0  0  0  0
  188.4820  171.6650  135.6900 N   0  0  0  0  0  0  0  0  0  0  0  0
  188.1570  172.9710  135.8870 C   0  0  0  0  0  3  0  0  0  0  0  0
  183.7130  177.0730  135.8350 C   0  0  0  0  0  2  0  0  0  0  0  0
  183.4690  177.8800  137.0270 N   0  0  0  0  0  2  0  0  0  0  0  0
  182.0370  177.8640  137.3040 C   0  0  2  0  0  3  0  0  0  0  0  0
  181.5410  179.1690  137.2120 O   0  0  0  0  0  1  0  0  0  0  0  0
  182.2200  175.9290  138.7560 C   0  0  0  0  0  2  0  0  0  0  0  0
  180.3320  176.2730  140.1260 C   0  0  2  0  0  3  0  0  0  0  0  0
  181.0750  175.1560  139.4170 C   0  0  1  0  0  3  0  0  0  0  0  0
  179.7560  175.6130  137.2720 C   0  0  0  0  0  2  0  0  0  0  0  0
  180.1750  174.5580  138.3140 C   0  0  0  0  0  2  0  0  0  0  0  0
  181.7970  177.3370  138.6550 N   0  0  0  0  0  0  0  0  0  0  0  0
  179.4030  176.9680  137.9160 C   0  0  0  0  0  2  0  0  0  0  0  0
  178.9350  175.9110  140.6250 C   0  0  0  0  0  1  0  0  0  0  0  0
  180.3800  177.3550  139.0670 C   0  0  1  0  0  3  0  0  0  0  0  0
  188.9970  178.6550  138.9960 C   0  0  0  0  0  2  0  0  0  0  0  0
  187.8660  178.0970  139.8400 C   0  0  0  0  0  2  0  0  0  0  0  0
  187.8290  178.8190  141.1750 C   0  0  0  0  0  2  0  0  0  0  0  0
  186.5150  177.6210  142.8810 N   0  0  0  0  0  0  0  0  0  0  0  0
  187.6570  177.8430  142.2940 C   0  0  0  0  0  0  0  0  0  0  0  0
  185.2460  178.2330  142.5990 C   0  0  0  0  0  0  0  0  0  0  0  0
  184.8910  178.5050  141.4200 O   0  0  0  0  0  0  0  0  0  0  0  0
  184.4260  179.9630  144.1510 C   0  0  0  0  0  1  0  0  0  0  0  0
  184.3080  178.5090  143.7250 C   0  0  0  0  0  2  0  0  0  0  0  0
  188.8460  177.0400  142.6940 C   0  0  0  0  0  2  0  0  0  0  0  0
  188.8490  176.8100  144.1970 C   0  0  0  0  0  2  0  0  0  0  0  0
  191.5490  176.9090  146.7950 N   0  0  0  0  0  0  0  0  0  0  0  0
  191.0930  177.9070  144.6070 C   0  0  0  0  0  2  0  0  0  0  0  0
  189.5890  177.9380  144.9070 C   0  0  0  0  0  3  0  0  0  0  0  0
  191.7720  176.7610  145.3590 C   0  0  0  0  0  2  0  0  0  0  0  0
  192.2240  175.7960  147.4370 C   0  0  0  0  0  1  0  0  0  0  0  0
  190.1210  176.7430  147.0600 C   0  0  0  0  0  2  0  0  0  0  0  0
  189.3330  177.8840  146.4140 C   0  0  0  0  0  2  0  0  0  0  0  0
  2 14  1  1  0  0  0
  2  6  1  0  0  0  0
  3  5  1  6  0  0  0
  3  2  1  0  0  0  0
  3  4  1  0  0  0  0
  4  7  1  1  0  0  0
  4  8  1  0  0  0  0
  6  1  1  1  0  0  0
  7  6  1  0  0  0  0
  8  1  1  0  0  0  0
  8 34  1  6  0  0  0
 11 10  1  6  0  0  0
 11 21  1  0  0  0  0
 11  9  1  0  0  0  0
 12 11  1  0  0  0  0
 12 13  2  0  0  0  0
 14 13  1  6  0  0  0
 14  9  1  0  0  0  0
 15 19  1  0  0  0  0
 16 18  2  0  0  0  0
 17 15  2  0  0  0  0
 17 16  1  0  0  0  0
 18 20  1  0  0  0  0
 18 13  1  0  0  0  0
 19 20  2  0  0  0  0
 21 22  1  0  0  0  0
 22 23  1  0  0  0  0
 23 24  1  1  0  0  0
 23 30  1  0  0  0  0
 25 27  1  0  0  0  0
 26 32  1  6  0  0  0
 27 29  1  6  0  0  0
 27 26  1  0  0  0  0
 28 31  1  0  0  0  0
 28 29  1  0  0  0  0
 30 25  1  0  0  0  0
 30 33  1  0  0  0  0
 33 31  1  6  0  0  0
 33 26  1  0  0  0  0
 34 35  1  0  0  0  0
 35 36  1  0  0  0  0
 36 38  1  0  0  0  0
 38 43  1  0  0  0  0
 38 37  2  0  0  0  0
 39 37  1  0  0  0  0
 39 42  1  0  0  0  0
 40 39  2  0  0  0  0
 42 41  1  0  0  0  0
 43 44  1  0  0  0  0
 44 47  1  0  0  0  0
 45 50  1  0  0  0  0
 45 49  1  0  0  0  0
 46 47  1  0  0  0  0
 46 48  1  0  0  0  0
 47 51  1  0  0  0  0
 48 45  1  0  0  0  0
 51 50  1  0  0  0  0
M  END
>  <MODEL>
2

>  <REMARK>
 VINA RESULT:      -6.6      1.593      2.374
  Name = 
  15 active torsions:
  status: ('A' for Active; 'I' for Inactive)
    1  A    between atoms: N_3  and  C_20
    2  A    between atoms: C_5  and  C_50
    3  A    between atoms: C_7  and  C_26
    4  A    between atoms: C_7  and  C_41
    5  A    between atoms: N_13  and  C_17
    6  A    between atoms: N_13  and  C_48
    7  A    between atoms: C_14  and  C_48
    8  A    between atoms: C_17  and  N_36
    9  A    between atoms: C_19  and  C_24
   10  A    between atoms: C_19  and  C_33
   11  A    between atoms: C_20  and  C_38
   12  A    between atoms: C_24  and  C_29
   13  A    between atoms: C_26  and  C_33
   14  A    between atoms: C_30  and  C_41
   15  A    between atoms: C_32  and  C_43
                            x       y       z     vdW  Elec       q    Type
                         _______ _______ _______ _____ _____    ______ ____

>  <TORSDO>
F 15

$$$$
=
 OpenBabel11032419233D

 51 57  0  0  1  0  0  0  0  0999 V2000
  186.8770  175.0250  136.7700 C   0  0  0  0  0  2  0  0  0  0  0  0
  184.4960  175.1550  136.0240 C   0  0  1  0  0  3  0  0  0  0  0  0
  184.7040  176.6460  135.7920 C   0  0  1  0  0  3  0  0  0  0  0  0
  186.1380  176.6420  135.2290 C   0  0  2  0  0  3  0  0  0  0  0  0
  183.7310  177.1390  134.7400 C   0  0  0  0  0  1  0  0  0  0  0  0
  185.8770  174.6000  135.6860 C   0  0  1  0  0  3  0  0  0  0  0  0
  186.2350  175.3970  134.5940 O   0  0  0  0  0  0  0  0  0  0  0  0
  187.1370  176.4710  136.3770 C   0  0  1  0  0  3  0  0  0  0  0  0
  183.3700  176.0970  138.4540 S   0  0  0  0  0  0  0  0  0  0  0  0
  181.1090  176.6050  137.2000 O   0  0  0  0  0  1  0  0  0  0  0  0
  181.6220  175.7050  138.1350 C   0  0  1  0  0  0  0  0  0  0  0  0
  181.5840  174.3250  137.5790 C   0  0  0  0  0  3  0  0  0  0  0  0
  182.7450  173.8230  137.1890 C   0  0  0  0  0  0  0  0  0  0  0  0
  183.9230  174.7170  137.3870 C   0  0  1  0  0  3  0  0  0  0  0  0
  183.0850  169.8870  135.5850 C   0  0  0  0  0  3  0  0  0  0  0  0
  184.1210  171.8370  136.5410 C   0  0  0  0  0  3  0  0  0  0  0  0
  184.2340  170.5490  136.0160 C   0  0  0  0  0  3  0  0  0  0  0  0
  182.8670  172.4560  136.6330 C   0  0  0  0  0  0  0  0  0  0  0  0
  181.8710  170.4940  135.6800 N   0  0  0  0  0  0  0  0  0  0  0  0
  181.7410  171.7490  136.1880 C   0  0  0  0  0  3  0  0  0  0  0  0
  180.8440  175.8010  139.4460 C   0  0  0  0  0  2  0  0  0  0  0  0
  179.8720  176.8900  139.4150 N   0  0  0  0  0  2  0  0  0  0  0  0
  180.5040  178.0820  139.9700 C   0  0  2  0  0  3  0  0  0  0  0  0
  180.6710  177.9100  141.3480 O   0  0  0  0  0  1  0  0  0  0  0  0
  178.9310  179.1200  138.4420 C   0  0  0  0  0  2  0  0  0  0  0  0
  179.4700  181.3890  138.7890 C   0  0  2  0  0  3  0  0  0  0  0  0
  179.1180  180.4290  137.6690 C   0  0  1  0  0  3  0  0  0  0  0  0
  181.5760  179.7500  137.4520 C   0  0  0  0  0  2  0  0  0  0  0  0
  180.3270  180.2790  136.7200 C   0  0  0  0  0  2  0  0  0  0  0  0
  179.6580  179.2570  139.7170 N   0  0  0  0  0  0  0  0  0  0  0  0
  181.7530  180.3830  138.8460 C   0  0  0  0  0  2  0  0  0  0  0  0
  180.0470  182.7300  138.3400 C   0  0  0  0  0  1  0  0  0  0  0  0
  180.4040  180.5270  139.6120 C   0  0  1  0  0  3  0  0  0  0  0  0
  186.9240  177.4360  137.5360 C   0  0  0  0  0  2  0  0  0  0  0  0
  187.8960  177.1370  138.6610 C   0  0  0  0  0  2  0  0  0  0  0  0
  188.3100  178.4360  139.3290 C   0  0  0  0  0  2  0  0  0  0  0  0
  188.0560  178.2970  141.7770 N   0  0  0  0  0  0  0  0  0  0  0  0
  188.8040  178.1790  140.7160 C   0  0  0  0  0  0  0  0  0  0  0  0
  186.6730  178.6810  141.8400 C   0  0  0  0  0  0  0  0  0  0  0  0
  186.0600  179.1160  140.8260 O   0  0  0  0  0  0  0  0  0  0  0  0
  186.6020  177.4470  143.9720 C   0  0  0  0  0  1  0  0  0  0  0  0
  185.9320  178.5160  143.1230 C   0  0  0  0  0  2  0  0  0  0  0  0
  190.2040  177.6930  140.8680 C   0  0  0  0  0  2  0  0  0  0  0  0
  190.3020  176.7110  142.0240 C   0  0  0  0  0  2  0  0  0  0  0  0
  190.4450  177.5070  145.6840 N   0  0  0  0  0  0  0  0  0  0  0  0
  191.6280  176.0810  144.0850 C   0  0  0  0  0  2  0  0  0  0  0  0
  191.4250  177.1160  142.9720 C   0  0  0  0  0  3  0  0  0  0  0  0
  190.5010  176.1630  145.1150 C   0  0  0  0  0  2  0  0  0  0  0  0
  189.3620  177.5050  146.6500 C   0  0  0  0  0  1  0  0  0  0  0  0
  190.0620  178.4400  144.6260 C   0  0  0  0  0  2  0  0  0  0  0  0
  191.1580  178.5030  143.5610 C   0  0  0  0  0  2  0  0  0  0  0  0
  2 14  1  1  0  0  0
  3  5  1  6  0  0  0
  3  2  1  0  0  0  0
  4  7  1  6  0  0  0
  4  3  1  0  0  0  0
  4  8  1  0  0  0  0
  6  2  1  0  0  0  0
  6  1  1  1  0  0  0
  7  6  1  0  0  0  0
  8  1  1  0  0  0  0
  8 34  1  1  0  0  0
 11 10  1  6  0  0  0
 11  9  1  0  0  0  0
 11 21  1  0  0  0  0
 12 11  1  0  0  0  0
 13 12  2  0  0  0  0
 14 13  1  6  0  0  0
 14  9  1  0  0  0  0
 15 19  2  0  0  0  0
 15 17  1  0  0  0  0
 16 18  1  0  0  0  0
 17 16  2  0  0  0  0
 18 13  1  0  0  0  0
 19 20  1  0  0  0  0
 20 18  2  0  0  0  0
 22 21  1  0  0  0  0
 22 23  1  0  0  0  0
 23 24  1  1  0  0  0
 25 30  1  0  0  0  0
 26 32  1  6  0  0  0
 26 33  1  0  0  0  0
 27 29  1  6  0  0  0
 27 25  1  0  0  0  0
 27 26  1  0  0  0  0
 28 31  1  0  0  0  0
 29 28  1  0  0  0  0
 30 23  1  0  0  0  0
 33 31  1  6  0  0  0
 33 30  1  0  0  0  0
 34 35  1  0  0  0  0
 35 36  1  0  0  0  0
 36 38  1  0  0  0  0
 37 39  1  0  0  0  0
 38 43  1  0  0  0  0
 38 37  2  0  0  0  0
 39 42  1  0  0  0  0
 40 39  2  0  0  0  0
 42 41  1  0  0  0  0
 43 44  1  0  0  0  0
 44 47  1  0  0  0  0
 45 49  1  0  0  0  0
 46 48  1  0  0  0  0
 47 51  1  0  0  0  0
 47 46  1  0  0  0  0
 48 45  1  0  0  0  0
 50 45  1  0  0  0  0
 51 50  1  0  0  0  0
M  END
>  <MODEL>
3

>  <REMARK>
 VINA RESULT:      -6.1      2.670      4.771
  Name = 
  15 active torsions:
  status: ('A' for Active; 'I' for Inactive)
    1  A    between atoms: N_3  and  C_20
    2  A    between atoms: C_5  and  C_50
    3  A    between atoms: C_7  and  C_26
    4  A    between atoms: C_7  and  C_41
    5  A    between atoms: N_13  and  C_17
    6  A    between atoms: N_13  and  C_48
    7  A    between atoms: C_14  and  C_48
    8  A    between atoms: C_17  and  N_36
    9  A    between atoms: C_19  and  C_24
   10  A    between atoms: C_19  and  C_33
   11  A    between atoms: C_20  and  C_38
   12  A    between atoms: C_24  and  C_29
   13  A    between atoms: C_26  and  C_33
   14  A    between atoms: C_30  and  C_41
   15  A    between atoms: C_32  and  C_43
                            x       y       z     vdW  Elec       q    Type
                         _______ _______ _______ _____ _____    ______ ____

>  <TORSDO>
F 15

$$$$
=
 OpenBabel11032419233D

 51 57  0  0  1  0  0  0  0  0999 V2000
  182.8890  179.7470  140.8140 C   0  0  0  0  0  2  0  0  0  0  0  0
  182.0330  178.1210  139.1200 C   0  0  1  0  0  3  0  0  0  0  0  0
  182.4990  176.9990  140.0380 C   0  0  1  0  0  3  0  0  0  0  0  0
  182.1430  177.5970  141.4120 C   0  0  2  0  0  3  0  0  0  0  0  0
  181.6740  175.7540  139.7810 C   0  0  0  0  0  1  0  0  0  0  0  0
  181.6310  179.1930  140.1310 C   0  0  1  0  0  3  0  0  0  0  0  0
  181.0410  178.4170  141.1350 O   0  0  0  0  0  0  0  0  0  0  0  0
  183.1970  178.6360  141.8050 C   0  0  1  0  0  3  0  0  0  0  0  0
  184.7150  177.9810  138.2020 S   0  0  0  0  0  0  0  0  0  0  0  0
  184.2940  175.5170  137.3720 O   0  0  0  0  0  1  0  0  0  0  0  0
  184.4950  176.7930  136.8430 C   0  0  1  0  0  0  0  0  0  0  0  0
  183.2860  177.2200  136.0870 C   0  0  0  0  0  3  0  0  0  0  0  0
  182.5190  178.1220  136.6790 C   0  0  0  0  0  0  0  0  0  0  0  0
  182.9990  178.5880  138.0130 C   0  0  1  0  0  3  0  0  0  0  0  0
  178.9840  179.6550  134.8530 C   0  0  0  0  0  3  0  0  0  0  0  0
  181.3590  179.7900  135.2210 C   0  0  0  0  0  3  0  0  0  0  0  0
  180.2030  180.2930  134.6220 C   0  0  0  0  0  3  0  0  0  0  0  0
  181.2940  178.6570  136.0420 C   0  0  0  0  0  0  0  0  0  0  0  0
  178.9310  178.5540  135.6500 N   0  0  0  0  0  0  0  0  0  0  0  0
  180.0460  178.0490  136.2420 C   0  0  0  0  0  3  0  0  0  0  0  0
  185.7410  176.8100  135.9600 C   0  0  0  0  0  2  0  0  0  0  0  0
  186.3620  175.4920  135.8800 N   0  0  0  0  0  2  0  0  0  0  0  0
  187.7840  175.6710  135.6090 C   0  0  2  0  0  3  0  0  0  0  0  0
  188.1690  174.7820  134.6000 O   0  0  0  0  0  1  0  0  0  0  0  0
  187.9300  176.0300  138.0040 C   0  0  0  0  0  2  0  0  0  0  0  0
  190.2740  176.0760  138.2610 C   0  0  2  0  0  3  0  0  0  0  0  0
  189.0280  176.7830  138.7610 C   0  0  1  0  0  3  0  0  0  0  0  0
  189.0930  178.3640  136.7500 C   0  0  0  0  0  2  0  0  0  0  0  0
  189.0430  178.2520  138.2860 C   0  0  0  0  0  2  0  0  0  0  0  0
  188.5600  175.4040  136.8270 N   0  0  0  0  0  0  0  0  0  0  0  0
  190.0430  177.3300  136.1150 C   0  0  0  0  0  2  0  0  0  0  0  0
  191.5910  176.7880  138.5610 C   0  0  0  0  0  1  0  0  0  0  0  0
  189.9400  175.9290  136.7910 C   0  0  1  0  0  3  0  0  0  0  0  0
  184.6320  178.1390  141.6940 C   0  0  0  0  0  2  0  0  0  0  0  0
  185.5200  178.8500  142.6980 C   0  0  0  0  0  2  0  0  0  0  0  0
  185.6400  178.0050  143.9530 C   0  0  0  0  0  2  0  0  0  0  0  0
  187.5980  177.7820  145.4330 N   0  0  0  0  0  0  0  0  0  0  0  0
  187.0730  177.6960  144.2440 C   0  0  0  0  0  0  0  0  0  0  0  0
  186.9510  178.1750  146.6550 C   0  0  0  0  0  0  0  0  0  0  0  0
  185.7850  178.6570  146.6600 O   0  0  0  0  0  0  0  0  0  0  0  0
  189.0700  177.4650  147.6920 C   0  0  0  0  0  1  0  0  0  0  0  0
  187.6560  177.9620  147.9500 C   0  0  0  0  0  2  0  0  0  0  0  0
  187.9090  177.1940  143.1180 C   0  0  0  0  0  2  0  0  0  0  0  0
  188.9450  178.2330  142.7220 C   0  0  0  0  0  2  0  0  0  0  0  0
  191.7450  176.3700  144.3770 N   0  0  0  0  0  0  0  0  0  0  0  0
  190.2060  176.0500  142.5010 C   0  0  0  0  0  2  0  0  0  0  0  0
  190.2090  177.5550  142.2080 C   0  0  0  0  0  3  0  0  0  0  0  0
  190.4650  175.7860  143.9850 C   0  0  0  0  0  2  0  0  0  0  0  0
  191.9230  176.0750  145.7870 C   0  0  0  0  0  1  0  0  0  0  0  0
  191.6430  177.8240  144.2620 C   0  0  0  0  0  2  0  0  0  0  0  0
  191.4540  178.2220  142.7970 C   0  0  0  0  0  2  0  0  0  0  0  0
  1  8  1  0  0  0  0
  2 14  1  6  0  0  0
  2  3  1  0  0  0  0
  2  6  1  0  0  0  0
  3  5  1  6  0  0  0
  3  4  1  0  0  0  0
  4  7  1  6  0  0  0
  4  8  1  0  0  0  0
  6  1  1  1  0  0  0
  6  7  1  0  0  0  0
  8 34  1  6  0  0  0
 11 10  1  1  0  0  0
 11  9  1  0  0  0  0
 12 13  2  0  0  0  0
 12 11  1  0  0  0  0
 14 13  1  6  0  0  0
 14  9  1  0  0  0  0
 15 19  1  0  0  0  0
 16 18  2  0  0  0  0
 17 15  2  0  0  0  0
 17 16  1  0  0  0  0
 18 20  1  0  0  0  0
 18 13  1  0  0  0  0
 19 20  2  0  0  0  0
 21 11  1  0  0  0  0
 22 21  1  0  0  0  0
 23 24  1  6  0  0  0
 23 22  1  0  0  0  0
 23 30  1  0  0  0  0
 26 32  1  6  0  0  0
 26 27  1  0  0  0  0
 27 25  1  6  0  0  0
 28 29  1  0  0  0  0
 29 27  1  0  0  0  0
 30 25  1  0  0  0  0
 31 28  1  0  0  0  0
 33 31  1  6  0  0  0
 33 30  1  0  0  0  0
 33 26  1  0  0  0  0
 34 35  1  0  0  0  0
 35 36  1  0  0  0  0
 36 38  1  0  0  0  0
 37 39  1  0  0  0  0
 38 37  2  0  0  0  0
 39 40  2  0  0  0  0
 39 42  1  0  0  0  0
 41 42  1  0  0  0  0
 43 38  1  0  0  0  0
 44 43  1  0  0  0  0
 45 49  1  0  0  0  0
 46 48  1  0  0  0  0
 47 46  1  0  0  0  0
 47 44  1  0  0  0  0
 47 51  1  0  0  0  0
 48 45  1  0  0  0  0
 50 45  1  0  0  0  0
 51 50  1  0  0  0  0
M  END
>  <MODEL>
4

>  <REMARK>
 VINA RESULT:      -6.0      2.155      6.775
  Name = 
  15 active torsions:
  status: ('A' for Active; 'I' for Inactive)
    1  A    between atoms: N_3  and  C_20
    2  A    between atoms: C_5  and  C_50
    3  A    between atoms: C_7  and  C_26
    4  A    between atoms: C_7  and  C_41
    5  A    between atoms: N_13  and  C_17
    6  A    between atoms: N_13  and  C_48
    7  A    between atoms: C_14  and  C_48
    8  A    between atoms: C_17  and  N_36
    9  A    between atoms: C_19  and  C_24
   10  A    between atoms: C_19  and  C_33
   11  A    between atoms: C_20  and  C_38
   12  A    between atoms: C_24  and  C_29
   13  A    between atoms: C_26  and  C_33
   14  A    between atoms: C_30  and  C_41
   15  A    between atoms: C_32  and  C_43
                            x       y       z     vdW  Elec       q    Type
                         _______ _______ _______ _____ _____    ______ ____

>  <TORSDO>
F 15

$$$$
=
 OpenBabel11032419233D

 51 57  0  0  1  0  0  0  0  0999 V2000
  190.6200  176.3880  139.6800 C   0  0  0  0  0  2  0  0  0  0  0  0
  190.1570  176.5220  137.2280 C   0  0  1  0  0  3  0  0  0  0  0  0
  189.1870  177.6570  137.5260 C   0  0  1  0  0  3  0  0  0  0  0  0
  189.9530  178.3910  138.6420 C   0  0  2  0  0  3  0  0  0  0  0  0
  189.0580  178.5500  136.3070 C   0  0  0  0  0  1  0  0  0  0  0  0
  191.2150  176.7350  138.3080 C   0  0  1  0  0  3  0  0  0  0  0  0
  191.2970  178.1310  138.3410 O   0  0  0  0  0  0  0  0  0  0  0  0
  189.7890  177.6290  139.9600 C   0  0  1  0  0  3  0  0  0  0  0  0
  187.7520  175.0150  137.1390 S   0  0  0  0  0  0  0  0  0  0  0  0
  187.3860  175.7630  134.6390 O   0  0  0  0  0  1  0  0  0  0  0  0
  187.7240  174.6180  135.3640 C   0  0  1  0  0  0  0  0  0  0  0  0
  189.0980  174.1780  134.9980 C   0  0  0  0  0  3  0  0  0  0  0  0
  190.0450  174.4260  135.8890 C   0  0  0  0  0  0  0  0  0  0  0  0
  189.5810  175.0940  137.1400 C   0  0  1  0  0  3  0  0  0  0  0  0
  194.1020  173.2730  135.2690 C   0  0  0  0  0  3  0  0  0  0  0  0
  192.3950  174.9690  135.2280 C   0  0  0  0  0  3  0  0  0  0  0  0
  193.7240  174.5930  135.0250 C   0  0  0  0  0  3  0  0  0  0  0  0
  191.4550  174.0300  135.6730 C   0  0  0  0  0  0  0  0  0  0  0  0
  193.1840  172.3690  135.7030 N   0  0  0  0  0  0  0  0  0  0  0  0
  191.8840  172.7160  135.9070 C   0  0  0  0  0  3  0  0  0  0  0  0
  186.6990  173.5130  135.1180 C   0  0  0  0  0  2  0  0  0  0  0  0
  185.4450  174.0490  134.5970 N   0  0  0  0  0  2  0  0  0  0  0  0
  184.3570  173.5730  135.4430 C   0  0  2  0  0  3  0  0  0  0  0  0
  184.1970  172.1970  135.2470 O   0  0  0  0  0  1  0  0  0  0  0  0
  183.3840  175.6590  134.6760 C   0  0  0  0  0  2  0  0  0  0  0  0
  181.3170  175.5790  135.8080 C   0  0  2  0  0  3  0  0  0  0  0  0
  182.4120  176.5620  135.4400 C   0  0  1  0  0  3  0  0  0  0  0  0
  183.7270  175.9150  137.5380 C   0  0  0  0  0  2  0  0  0  0  0  0
  183.1050  177.0660  136.7240 C   0  0  0  0  0  2  0  0  0  0  0  0
  183.1120  174.2710  135.0940 N   0  0  0  0  0  0  0  0  0  0  0  0
  182.8220  174.6680  137.5780 C   0  0  0  0  0  2  0  0  0  0  0  0
  180.3310  176.0690  136.8660 C   0  0  0  0  0  1  0  0  0  0  0  0
  182.1460  174.3760  136.2050 C   0  0  1  0  0  3  0  0  0  0  0  0
  188.3440  177.2950  140.3090 C   0  0  0  0  0  2  0  0  0  0  0  0
  187.5650  178.5620  140.6120 C   0  0  0  0  0  2  0  0  0  0  0  0
  187.7660  178.9430  142.0670 C   0  0  0  0  0  2  0  0  0  0  0  0
  186.1410  177.5700  143.3110 N   0  0  0  0  0  0  0  0  0  0  0  0
  187.3730  177.8130  142.9650 C   0  0  0  0  0  0  0  0  0  0  0  0
  184.9600  178.2940  142.9310 C   0  0  0  0  0  0  0  0  0  0  0  0
  184.1720  177.8570  142.0480 O   0  0  0  0  0  0  0  0  0  0  0  0
  184.5150  179.3170  145.1280 C   0  0  0  0  0  1  0  0  0  0  0  0
  184.6330  179.5670  143.6330 C   0  0  0  0  0  2  0  0  0  0  0  0
  188.4490  176.8880  143.4150 C   0  0  0  0  0  2  0  0  0  0  0  0
  188.4200  176.7360  144.9270 C   0  0  0  0  0  2  0  0  0  0  0  0
  191.6000  176.7390  146.9110 N   0  0  0  0  0  0  0  0  0  0  0  0
  190.6570  177.9190  144.9840 C   0  0  0  0  0  2  0  0  0  0  0  0
  189.2500  177.8310  145.5880 C   0  0  0  0  0  3  0  0  0  0  0  0
  191.5220  176.7470  145.4530 C   0  0  0  0  0  2  0  0  0  0  0  0
  192.4360  175.6110  147.2770 C   0  0  0  0  0  1  0  0  0  0  0  0
  190.2680  176.4650  147.4440 C   0  0  0  0  0  2  0  0  0  0  0  0
  189.3190  177.6150  147.1010 C   0  0  0  0  0  2  0  0  0  0  0  0
  1  8  1  0  0  0  0
  2 14  1  1  0  0  0
  2  3  1  0  0  0  0
  2  6  1  0  0  0  0
  3  5  1  6  0  0  0
  3  4  1  0  0  0  0
  4  7  1  6  0  0  0
  4  8  1  0  0  0  0
  6  7  1  0  0  0  0
  6  1  1  1  0  0  0
  8 34  1  6  0  0  0
  9 14  1  0  0  0  0
 11 10  1  6  0  0  0
 11  9  1  0  0  0  0
 12 11  1  0  0  0  0
 12 13  2  0  0  0  0
 14 13  1  6  0  0  0
 15 19  1  0  0  0  0
 16 18  2  0  0  0  0
 17 16  1  0  0  0  0
 17 15  2  0  0  0  0
 18 13  1  0  0  0  0
 18 20  1  0  0  0  0
 19 20  2  0  0  0  0
 21 11  1  0  0  0  0
 22 21  1  0  0  0  0
 22 23  1  0  0  0  0
 23 24  1  6  0  0  0
 25 30  1  0  0  0  0
 26 33  1  0  0  0  0
 26 32  1  1  0  0  0
 27 25  1  6  0  0  0
 27 26  1  0  0  0  0
 27 29  1  0  0  0  0
 28 31  1  0  0  0  0
 29 28  1  0  0  0  0
 30 23  1  0  0  0  0
 30 33  1  0  0  0  0
 33 31  1  1  0  0  0
 34 35  1  0  0  0  0
 35 36  1  0  0  0  0
 36 38  1  0  0  0  0
 38 37  2  0  0  0  0
 38 43  1  0  0  0  0
 39 37  1  0  0  0  0
 39 42  1  0  0  0  0
 40 39  2  0  0  0  0
 42 41  1  0  0  0  0
 43 44  1  0  0  0  0
 44 47  1  0  0  0  0
 45 49  1  0  0  0  0
 45 50  1  0  0  0  0
 46 48  1  0  0  0  0
 46 47  1  0  0  0  0
 47 51  1  0  0  0  0
 48 45  1  0  0  0  0
 51 50  1  0  0  0  0
M  END
>  <MODEL>
5

>  <REMARK>
 VINA RESULT:      -5.7      1.876      2.426
  Name = 
  15 active torsions:
  status: ('A' for Active; 'I' for Inactive)
    1  A    between atoms: N_3  and  C_20
    2  A    between atoms: C_5  and  C_50
    3  A    between atoms: C_7  and  C_26
    4  A    between atoms: C_7  and  C_41
    5  A    between atoms: N_13  and  C_17
    6  A    between atoms: N_13  and  C_48
    7  A    between atoms: C_14  and  C_48
    8  A    between atoms: C_17  and  N_36
    9  A    between atoms: C_19  and  C_24
   10  A    between atoms: C_19  and  C_33
   11  A    between atoms: C_20  and  C_38
   12  A    between atoms: C_24  and  C_29
   13  A    between atoms: C_26  and  C_33
   14  A    between atoms: C_30  and  C_41
   15  A    between atoms: C_32  and  C_43
                            x       y       z     vdW  Elec       q    Type
                         _______ _______ _______ _____ _____    ______ ____

>  <TORSDO>
F 15

$$$$
=
 OpenBabel11032419233D

 51 57  0  0  1  0  0  0  0  0999 V2000
  189.7340  177.0440  139.2550 C   0  0  0  0  0  2  0  0  0  0  0  0
  188.9560  176.6410  136.9140 C   0  0  1  0  0  3  0  0  0  0  0  0
  187.8080  177.6030  137.1850 C   0  0  1  0  0  3  0  0  0  0  0  0
  188.5280  178.6610  138.0430 C   0  0  2  0  0  3  0  0  0  0  0  0
  187.3400  178.2180  135.8810 C   0  0  0  0  0  1  0  0  0  0  0  0
  190.0670  177.2450  137.7700 C   0  0  1  0  0  3  0  0  0  0  0  0
  189.8490  178.6140  137.5770 O   0  0  0  0  0  0  0  0  0  0  0  0
  188.6950  178.1330  139.4710 C   0  0  1  0  0  3  0  0  0  0  0  0
  186.9270  174.6830  137.2420 S   0  0  0  0  0  0  0  0  0  0  0  0
  186.3910  174.8200  134.6650 O   0  0  0  0  0  1  0  0  0  0  0  0
  186.9710  173.9400  135.5820 C   0  0  1  0  0  0  0  0  0  0  0  0
  188.4040  173.7290  135.2400 C   0  0  0  0  0  3  0  0  0  0  0  0
  189.2830  174.3420  136.0180 C   0  0  0  0  0  0  0  0  0  0  0  0
  188.6970  175.1370  137.1360 C   0  0  1  0  0  3  0  0  0  0  0  0
  193.4890  173.9780  135.4250 C   0  0  0  0  0  3  0  0  0  0  0  0
  191.4340  173.1020  136.3200 C   0  0  0  0  0  3  0  0  0  0  0  0
  192.8110  172.9820  136.1270 C   0  0  0  0  0  3  0  0  0  0  0  0
  190.7430  174.2110  135.8140 C   0  0  0  0  0  0  0  0  0  0  0  0
  192.8110  175.0500  134.9350 N   0  0  0  0  0  0  0  0  0  0  0  0
  191.4690  175.1850  135.1130 C   0  0  0  0  0  3  0  0  0  0  0  0
  186.2020  172.6200  135.6080 C   0  0  0  0  0  2  0  0  0  0  0  0
  184.8230  172.7920  135.1620 N   0  0  0  0  0  2  0  0  0  0  0  0
  183.9740  172.9270  136.3410 C   0  0  2  0  0  3  0  0  0  0  0  0
  184.4500  172.0760  137.3440 O   0  0  0  0  0  1  0  0  0  0  0  0
  182.2820  172.9130  134.6020 C   0  0  0  0  0  2  0  0  0  0  0  0
  180.3490  173.2100  135.9200 C   0  0  2  0  0  3  0  0  0  0  0  0
  180.9490  173.6660  134.6020 C   0  0  1  0  0  3  0  0  0  0  0  0
  182.2060  175.5450  135.8020 C   0  0  0  0  0  2  0  0  0  0  0  0
  181.2330  175.1820  134.6630 C   0  0  0  0  0  2  0  0  0  0  0  0
  182.5900  172.5670  136.0010 N   0  0  0  0  0  0  0  0  0  0  0  0
  181.9210  174.7530  137.0930 C   0  0  0  0  0  2  0  0  0  0  0  0
  179.1520  174.0240  136.4050 C   0  0  0  0  0  1  0  0  0  0  0  0
  181.5700  173.2600  136.8130 C   0  0  1  0  0  3  0  0  0  0  0  0
  187.4100  177.5960  140.0890 C   0  0  0  0  0  2  0  0  0  0  0  0
  186.3070  178.6350  140.0080 C   0  0  0  0  0  2  0  0  0  0  0  0
  186.0910  179.2490  141.3800 C   0  0  0  0  0  2  0  0  0  0  0  0
  183.7560  178.4730  141.5160 N   0  0  0  0  0  0  0  0  0  0  0  0
  184.9300  178.6040  142.0660 C   0  0  0  0  0  0  0  0  0  0  0  0
  183.3450  178.8970  140.2070 C   0  0  0  0  0  0  0  0  0  0  0  0
  183.3660  180.1120  139.8690 O   0  0  0  0  0  0  0  0  0  0  0  0
  182.4120  178.5510  137.9530 C   0  0  0  0  0  1  0  0  0  0  0  0
  182.9290  177.8700  139.2090 C   0  0  0  0  0  2  0  0  0  0  0  0
  185.1670  178.0240  143.4170 C   0  0  0  0  0  2  0  0  0  0  0  0
  186.5670  178.3640  143.9020 C   0  0  0  0  0  2  0  0  0  0  0  0
  190.1270  177.2830  144.3600 N   0  0  0  0  0  0  0  0  0  0  0  0
  188.1080  177.5200  145.7240 C   0  0  0  0  0  2  0  0  0  0  0  0
  187.2250  177.1400  144.5290 C   0  0  0  0  0  3  0  0  0  0  0  0
  189.4030  178.1840  145.2520 C   0  0  0  0  0  2  0  0  0  0  0  0
  191.3380  177.9760  143.9620 C   0  0  0  0  0  1  0  0  0  0  0  0
  189.3320  177.0970  143.1480 C   0  0  0  0  0  2  0  0  0  0  0  0
  188.0300  176.3670  143.4820 C   0  0  0  0  0  2  0  0  0  0  0  0
  1  8  1  0  0  0  0
  2 14  1  1  0  0  0
  2  3  1  0  0  0  0
  2  6  1  0  0  0  0
  3  5  1  6  0  0  0
  3  4  1  0  0  0  0
  4  7  1  6  0  0  0
  4  8  1  0  0  0  0
  6  1  1  1  0  0  0
  7  6  1  0  0  0  0
  8 34  1  6  0  0  0
 11 10  1  6  0  0  0
 11 21  1  0  0  0  0
 11  9  1  0  0  0  0
 12 11  1  0  0  0  0
 12 13  2  0  0  0  0
 14 13  1  6  0  0  0
 14  9  1  0  0  0  0
 15 17  1  0  0  0  0
 17 16  2  0  0  0  0
 18 13  1  0  0  0  0
 18 16  1  0  0  0  0
 19 20  1  0  0  0  0
 19 15  2  0  0  0  0
 20 18  2  0  0  0  0
 22 21  1  0  0  0  0
 22 23  1  0  0  0  0
 23 24  1  1  0  0  0
 25 30  1  0  0  0  0
 26 32  1  1  0  0  0
 26 33  1  0  0  0  0
 27 25  1  1  0  0  0
 27 29  1  0  0  0  0
 27 26  1  0  0  0  0
 28 31  1  0  0  0  0
 29 28  1  0  0  0  0
 30 23  1  0  0  0  0
 30 33  1  0  0  0  0
 33 31  1  6  0  0  0
 35 34  1  0  0  0  0
 35 36  1  0  0  0  0
 36 38  1  0  0  0  0
 37 38  2  0  0  0  0
 38 43  1  0  0  0  0
 39 37  1  0  0  0  0
 40 39  2  0  0  0  0
 41 42  1  0  0  0  0
 42 39  1  0  0  0  0
 43 44  1  0  0  0  0
 44 47  1  0  0  0  0
 45 48  1  0  0  0  0
 47 46  1  0  0  0  0
 48 46  1  0  0  0  0
 49 45  1  0  0  0  0
 50 51  1  0  0  0  0
 50 45  1  0  0  0  0
 51 47  1  0  0  0  0
M  END
>  <MODEL>
6

>  <REMARK>
 VINA RESULT:      -5.6      2.226      3.435
  Name = 
  15 active torsions:
  status: ('A' for Active; 'I' for Inactive)
    1  A    between atoms: N_3  and  C_20
    2  A    between atoms: C_5  and  C_50
    3  A    between atoms: C_7  and  C_26
    4  A    between atoms: C_7  and  C_41
    5  A    between atoms: N_13  and  C_17
    6  A    between atoms: N_13  and  C_48
    7  A    between atoms: C_14  and  C_48
    8  A    between atoms: C_17  and  N_36
    9  A    between atoms: C_19  and  C_24
   10  A    between atoms: C_19  and  C_33
   11  A    between atoms: C_20  and  C_38
   12  A    between atoms: C_24  and  C_29
   13  A    between atoms: C_26  and  C_33
   14  A    between atoms: C_30  and  C_41
   15  A    between atoms: C_32  and  C_43
                            x       y       z     vdW  Elec       q    Type
                         _______ _______ _______ _____ _____    ______ ____

>  <TORSDO>
F 15

$$$$
=
 OpenBabel11032419233D

 51 57  0  0  1  0  0  0  0  0999 V2000
  183.3770  179.7800  139.8290 C   0  0  0  0  0  2  0  0  0  0  0  0
  182.4180  177.8100  138.6270 C   0  0  1  0  0  3  0  0  0  0  0  0
  183.0010  176.9250  139.7200 C   0  0  1  0  0  3  0  0  0  0  0  0
  182.7540  177.8110  140.9560 C   0  0  2  0  0  3  0  0  0  0  0  0
  182.1930  175.6460  139.8250 C   0  0  0  0  0  1  0  0  0  0  0  0
  182.0790  179.0760  139.4100 C   0  0  1  0  0  3  0  0  0  0  0  0
  181.6070  178.5380  140.6120 O   0  0  0  0  0  0  0  0  0  0  0  0
  183.8080  178.9200  141.0070 C   0  0  1  0  0  3  0  0  0  0  0  0
  184.8530  177.1180  137.3410 S   0  0  0  0  0  0  0  0  0  0  0  0
  183.8720  174.7370  136.7840 O   0  0  0  0  0  1  0  0  0  0  0  0
  184.2110  175.9230  136.1290 C   0  0  1  0  0  0  0  0  0  0  0  0
  182.9930  176.5300  135.5260 C   0  0  0  0  0  3  0  0  0  0  0  0
  182.5030  177.5900  136.1490 C   0  0  0  0  0  0  0  0  0  0  0  0
  183.2640  178.0270  137.3550 C   0  0  1  0  0  3  0  0  0  0  0  0
  179.0680  179.6820  134.7330 C   0  0  0  0  0  3  0  0  0  0  0  0
  180.2490  177.6110  135.0640 C   0  0  0  0  0  3  0  0  0  0  0  0
  179.1250  178.2950  134.6000 C   0  0  0  0  0  3  0  0  0  0  0  0
  181.3080  178.3120  135.6570 C   0  0  0  0  0  0  0  0  0  0  0  0
  180.1000  180.3550  135.3110 N   0  0  0  0  0  0  0  0  0  0  0  0
  181.2040  179.7060  135.7690 C   0  0  0  0  0  3  0  0  0  0  0  0
  185.2840  175.6580  135.0760 C   0  0  0  0  0  2  0  0  0  0  0  0
  186.4870  175.0800  135.6670 N   0  0  0  0  0  2  0  0  0  0  0  0
  187.5140  176.1160  135.7190 C   0  0  2  0  0  3  0  0  0  0  0  0
  187.3840  176.9410  134.5970 O   0  0  0  0  0  1  0  0  0  0  0  0
  189.0000  174.5870  136.8780 C   0  0  0  0  0  2  0  0  0  0  0  0
  191.0720  175.6130  136.4150 C   0  0  2  0  0  3  0  0  0  0  0  0
  190.3340  174.9250  137.5480 C   0  0  1  0  0  3  0  0  0  0  0  0
  189.2450  177.1430  138.2120 C   0  0  0  0  0  2  0  0  0  0  0  0
  190.0790  175.9370  138.6860 C   0  0  0  0  0  2  0  0  0  0  0  0
  188.8460  175.4950  135.7270 N   0  0  0  0  0  0  0  0  0  0  0  0
  189.6620  177.6330  136.8120 C   0  0  0  0  0  2  0  0  0  0  0  0
  192.3270  176.3800  136.8260 C   0  0  0  0  0  1  0  0  0  0  0  0
  189.9600  176.4590  135.8320 C   0  0  1  0  0  3  0  0  0  0  0  0
  185.2420  178.4230  140.8700 C   0  0  0  0  0  2  0  0  0  0  0  0
  186.0490  178.7840  142.1030 C   0  0  0  0  0  2  0  0  0  0  0  0
  185.8910  177.6930  143.1470 C   0  0  0  0  0  2  0  0  0  0  0  0
  185.1550  178.9350  145.1450 N   0  0  0  0  0  0  0  0  0  0  0  0
  186.0730  178.2520  144.5220 C   0  0  0  0  0  0  0  0  0  0  0  0
  183.8440  179.2830  144.6720 C   0  0  0  0  0  0  0  0  0  0  0  0
  183.6460  180.3100  143.9680 O   0  0  0  0  0  0  0  0  0  0  0  0
  181.5630  178.6310  144.0020 C   0  0  0  0  0  1  0  0  0  0  0  0
  182.6980  178.3800  144.9820 C   0  0  0  0  0  2  0  0  0  0  0  0
  187.3470  177.9390  145.2270 C   0  0  0  0  0  2  0  0  0  0  0  0
  188.0440  176.7610  144.5640 C   0  0  0  0  0  2  0  0  0  0  0  0
  191.6580  175.8970  144.0760 N   0  0  0  0  0  0  0  0  0  0  0  0
  189.6410  176.1210  142.7080 C   0  0  0  0  0  2  0  0  0  0  0  0
  189.1250  177.2510  143.6080 C   0  0  0  0  0  3  0  0  0  0  0  0
  190.5350  175.1640  143.4970 C   0  0  0  0  0  2  0  0  0  0  0  0
  192.4600  174.9270  144.7990 C   0  0  0  0  0  1  0  0  0  0  0  0
  191.1350  176.8340  145.0690 C   0  0  0  0  0  2  0  0  0  0  0  0
  190.2750  177.8970  144.3830 C   0  0  0  0  0  2  0  0  0  0  0  0
  1  8  1  0  0  0  0
  2 14  1  6  0  0  0
  2  6  1  0  0  0  0
  2  3  1  0  0  0  0
  3  5  1  1  0  0  0
  3  4  1  0  0  0  0
  4  7  1  6  0  0  0
  4  8  1  0  0  0  0
  6  1  1  1  0  0  0
  6  7  1  0  0  0  0
  8 34  1  6  0  0  0
  9 14  1  0  0  0  0
 11 10  1  1  0  0  0
 11  9  1  0  0  0  0
 12 11  1  0  0  0  0
 12 13  2  0  0  0  0
 14 13  1  6  0  0  0
 15 19  1  0  0  0  0
 16 18  2  0  0  0  0
 17 15  2  0  0  0  0
 17 16  1  0  0  0  0
 18 20  1  0  0  0  0
 18 13  1  0  0  0  0
 19 20  2  0  0  0  0
 21 22  1  0  0  0  0
 21 11  1  0  0  0  0
 22 23  1  0  0  0  0
 23 24  1  6  0  0  0
 23 30  1  0  0  0  0
 26 32  1  1  0  0  0
 26 27  1  0  0  0  0
 27 25  1  6  0  0  0
 27 29  1  0  0  0  0
 28 29  1  0  0  0  0
 30 33  1  0  0  0  0
 30 25  1  0  0  0  0
 31 28  1  0  0  0  0
 33 26  1  0  0  0  0
 33 31  1  1  0  0  0
 34 35  1  0  0  0  0
 35 36  1  0  0  0  0
 36 38  1  0  0  0  0
 38 37  2  0  0  0  0
 38 43  1  0  0  0  0
 39 42  1  0  0  0  0
 39 37  1  0  0  0  0
 40 39  2  0  0  0  0
 41 42  1  0  0  0  0
 44 43  1  0  0  0  0
 45 49  1  0  0  0  0
 45 50  1  0  0  0  0
 46 48  1  0  0  0  0
 46 47  1  0  0  0  0
 47 51  1  0  0  0  0
 47 44  1  0  0  0  0
 48 45  1  0  0  0  0
 51 50  1  0  0  0  0
M  END
>  <MODEL>
7

>  <REMARK>
 VINA RESULT:      -5.5      2.008      6.633
  Name = 
  15 active torsions:
  status: ('A' for Active; 'I' for Inactive)
    1  A    between atoms: N_3  and  C_20
    2  A    between atoms: C_5  and  C_50
    3  A    between atoms: C_7  and  C_26
    4  A    between atoms: C_7  and  C_41
    5  A    between atoms: N_13  and  C_17
    6  A    between atoms: N_13  and  C_48
    7  A    between atoms: C_14  and  C_48
    8  A    between atoms: C_17  and  N_36
    9  A    between atoms: C_19  and  C_24
   10  A    between atoms: C_19  and  C_33
   11  A    between atoms: C_20  and  C_38
   12  A    between atoms: C_24  and  C_29
   13  A    between atoms: C_26  and  C_33
   14  A    between atoms: C_30  and  C_41
   15  A    between atoms: C_32  and  C_43
                            x       y       z     vdW  Elec       q    Type
                         _______ _______ _______ _____ _____    ______ ____

>  <TORSDO>
F 15

$$$$
=
 OpenBabel11032419233D

 51 57  0  0  1  0  0  0  0  0999 V2000
  186.4840  176.5400  134.8070 C   0  0  0  0  0  2  0  0  0  0  0  0
  188.2000  175.0360  135.8240 C   0  0  1  0  0  3  0  0  0  0  0  0
  187.1590  174.6330  136.8590 C   0  0  1  0  0  3  0  0  0  0  0  0
  185.8950  174.5870  135.9790 C   0  0  2  0  0  3  0  0  0  0  0  0
  187.4760  173.2490  137.3900 C   0  0  0  0  0  1  0  0  0  0  0  0
  187.3280  175.2760  134.5940 C   0  0  1  0  0  3  0  0  0  0  0  0
  186.3910  174.2440  134.7140 O   0  0  0  0  0  0  0  0  0  0  0  0
  185.3960  176.0130  135.7290 C   0  0  1  0  0  3  0  0  0  0  0  0
  188.3900  177.5460  137.1370 S   0  0  0  0  0  0  0  0  0  0  0  0
  188.3120  176.3210  139.4690 O   0  0  0  0  0  1  0  0  0  0  0  0
  189.2210  177.0110  138.6640 C   0  0  1  0  0  0  0  0  0  0  0  0
  190.3260  176.1000  138.2600 C   0  0  0  0  0  3  0  0  0  0  0  0
  190.2960  175.6700  137.0080 C   0  0  0  0  0  0  0  0  0  0  0  0
  189.1620  176.1850  136.1860 C   0  0  1  0  0  3  0  0  0  0  0  0
  193.2850  173.0820  135.4140 C   0  0  0  0  0  3  0  0  0  0  0  0
  192.6340  175.2520  136.2250 C   0  0  0  0  0  3  0  0  0  0  0  0
  193.6140  174.4060  135.7030 C   0  0  0  0  0  3  0  0  0  0  0  0
  191.3370  174.7740  136.4550 C   0  0  0  0  0  0  0  0  0  0  0  0
  192.0240  172.6260  135.6420 N   0  0  0  0  0  0  0  0  0  0  0  0
  191.0560  173.4350  136.1500 C   0  0  0  0  0  3  0  0  0  0  0  0
  189.7510  178.2410  139.3980 C   0  0  0  0  0  2  0  0  0  0  0  0
  190.1760  177.9150  140.7560 N   0  0  0  0  0  2  0  0  0  0  0  0
  189.0690  178.1980  141.6630 C   0  0  2  0  0  3  0  0  0  0  0  0
  188.3010  179.2400  141.1320 O   0  0  0  0  0  1  0  0  0  0  0  0
  191.0420  178.3460  143.0660 C   0  0  0  0  0  2  0  0  0  0  0  0
  190.0640  177.9630  145.1770 C   0  0  2  0  0  3  0  0  0  0  0  0
  191.3020  177.6010  144.3790 C   0  0  1  0  0  3  0  0  0  0  0  0
  190.0620  175.6350  143.3100 C   0  0  0  0  0  2  0  0  0  0  0  0
  191.3080  176.0830  144.0970 C   0  0  0  0  0  2  0  0  0  0  0  0
  189.5910  178.5880  142.9800 N   0  0  0  0  0  0  0  0  0  0  0  0
  188.7760  176.3320  143.7950 C   0  0  0  0  0  2  0  0  0  0  0  0
  189.8290  177.1230  146.4300 C   0  0  0  0  0  1  0  0  0  0  0  0
  188.9980  177.8430  144.1090 C   0  0  1  0  0  3  0  0  0  0  0  0
  185.2470  176.8510  136.9920 C   0  0  0  0  0  2  0  0  0  0  0  0
  183.7810  177.0480  137.3290 C   0  0  0  0  0  2  0  0  0  0  0  0
  183.6310  178.2450  138.2510 C   0  0  0  0  0  2  0  0  0  0  0  0
  181.2630  178.7150  138.7460 N   0  0  0  0  0  0  0  0  0  0  0  0
  182.3830  178.1280  139.0640 C   0  0  0  0  0  0  0  0  0  0  0  0
  181.0020  179.5560  137.6110 C   0  0  0  0  0  0  0  0  0  0  0  0
  180.5780  179.0830  136.5210 O   0  0  0  0  0  0  0  0  0  0  0  0
  180.6510  181.5000  139.0840 C   0  0  0  0  0  1  0  0  0  0  0  0
  181.1880  181.0290  137.7430 C   0  0  0  0  0  2  0  0  0  0  0  0
  182.4190  177.2330  140.2540 C   0  0  0  0  0  2  0  0  0  0  0  0
  183.6580  177.5120  141.0890 C   0  0  0  0  0  2  0  0  0  0  0  0
  184.2800  179.2030  144.3760 N   0  0  0  0  0  0  0  0  0  0  0  0
  185.0610  179.3800  142.0630 C   0  0  0  0  0  2  0  0  0  0  0  0
  183.6800  178.9680  141.5390 C   0  0  0  0  0  3  0  0  0  0  0  0
  185.3190  178.7740  143.4430 C   0  0  0  0  0  2  0  0  0  0  0  0
  184.5950  178.5970  145.6570 C   0  0  0  0  0  1  0  0  0  0  0  0
  183.0070  178.6310  143.9430 C   0  0  0  0  0  2  0  0  0  0  0  0
  182.6000  179.2220  142.5920 C   0  0  0  0  0  2  0  0  0  0  0  0
  1  8  1  0  0  0  0
  2 14  1  1  0  0  0
  2  3  1  0  0  0  0
  3  5  1  6  0  0  0
  4  7  1  6  0  0  0
  4  3  1  0  0  0  0
  6  7  1  0  0  0  0
  6  1  1  1  0  0  0
  6  2  1  0  0  0  0
  8  4  1  0  0  0  0
  8 34  1  1  0  0  0
  9 11  1  0  0  0  0
 11 21  1  0  0  0  0
 11 10  1  1  0  0  0
 12 11  1  0  0  0  0
 13 12  2  0  0  0  0
 14 13  1  1  0  0  0
 14  9  1  0  0  0  0
 15 19  2  0  0  0  0
 15 17  1  0  0  0  0
 16 18  1  0  0  0  0
 17 16  2  0  0  0  0
 18 13  1  0  0  0  0
 19 20  1  0  0  0  0
 20 18  2  0  0  0  0
 21 22  1  0  0  0  0
 22 23  1  0  0  0  0
 23 24  1  6  0  0  0
 23 30  1  0  0  0  0
 26 32  1  1  0  0  0
 27 25  1  6  0  0  0
 27 26  1  0  0  0  0
 28 31  1  0  0  0  0
 28 29  1  0  0  0  0
 29 27  1  0  0  0  0
 30 25  1  0  0  0  0
 30 33  1  0  0  0  0
 33 31  1  6  0  0  0
 33 26  1  0  0  0  0
 34 35  1  0  0  0  0
 35 36  1  0  0  0  0
 36 38  1  0  0  0  0
 37 38  2  0  0  0  0
 38 43  1  0  0  0  0
 39 42  1  0  0  0  0
 39 37  1  0  0  0  0
 40 39  2  0  0  0  0
 42 41  1  0  0  0  0
 43 44  1  0  0  0  0
 44 47  1  0  0  0  0
 45 49  1  0  0  0  0
 46 48  1  0  0  0  0
 47 46  1  0  0  0  0
 47 51  1  0  0  0  0
 48 45  1  0  0  0  0
 50 45  1  0  0  0  0
 51 50  1  0  0  0  0
M  END
>  <MODEL>
8

>  <REMARK>
 VINA RESULT:      -5.4      2.118      6.949
  Name = 
  15 active torsions:
  status: ('A' for Active; 'I' for Inactive)
    1  A    between atoms: N_3  and  C_20
    2  A    between atoms: C_5  and  C_50
    3  A    between atoms: C_7  and  C_26
    4  A    between atoms: C_7  and  C_41
    5  A    between atoms: N_13  and  C_17
    6  A    between atoms: N_13  and  C_48
    7  A    between atoms: C_14  and  C_48
    8  A    between atoms: C_17  and  N_36
    9  A    between atoms: C_19  and  C_24
   10  A    between atoms: C_19  and  C_33
   11  A    between atoms: C_20  and  C_38
   12  A    between atoms: C_24  and  C_29
   13  A    between atoms: C_26  and  C_33
   14  A    between atoms: C_30  and  C_41
   15  A    between atoms: C_32  and  C_43
                            x       y       z     vdW  Elec       q    Type
                         _______ _______ _______ _____ _____    ______ ____

>  <TORSDO>
F 15

$$$$
=
 OpenBabel11032419233D

 51 57  0  0  1  0  0  0  0  0999 V2000
  189.1770  176.4590  140.2400 C   0  0  0  0  0  2  0  0  0  0  0  0
  189.1100  176.9290  137.7870 C   0  0  1  0  0  3  0  0  0  0  0  0
  188.6300  178.3350  138.1220 C   0  0  1  0  0  3  0  0  0  0  0  0
  189.4760  178.6270  139.3750 C   0  0  2  0  0  3  0  0  0  0  0  0
  189.0100  179.2840  137.0020 C   0  0  0  0  0  1  0  0  0  0  0  0
  190.0250  176.6300  138.9720 C   0  0  1  0  0  3  0  0  0  0  0  0
  190.6390  177.8730  139.1660 O   0  0  0  0  0  0  0  0  0  0  0  0
  188.8660  177.9080  140.5820 C   0  0  1  0  0  3  0  0  0  0  0  0
  186.3270  176.5010  137.4280 S   0  0  0  0  0  0  0  0  0  0  0  0
  186.4730  177.6070  135.0410 O   0  0  0  0  0  1  0  0  0  0  0  0
  186.2880  176.3470  135.6160 C   0  0  1  0  0  0  0  0  0  0  0  0
  187.4130  175.4510  135.2340 C   0  0  0  0  0  3  0  0  0  0  0  0
  188.3090  175.2080  136.1770 C   0  0  0  0  0  0  0  0  0  0  0  0
  188.0400  175.8590  137.4920 C   0  0  1  0  0  3  0  0  0  0  0  0
  191.6500  172.6420  135.5200 C   0  0  0  0  0  3  0  0  0  0  0  0
  190.7550  174.7130  136.3560 C   0  0  0  0  0  3  0  0  0  0  0  0
  191.8490  173.8750  136.1410 C   0  0  0  0  0  3  0  0  0  0  0  0
  189.4720  174.3200  135.9520 C   0  0  0  0  0  0  0  0  0  0  0  0
  190.4020  172.2670  135.1320 N   0  0  0  0  0  0  0  0  0  0  0  0
  189.3220  173.0700  135.3320 C   0  0  0  0  0  3  0  0  0  0  0  0
  184.9410  175.7650  135.1950 C   0  0  0  0  0  2  0  0  0  0  0  0
  184.3370  174.9780  136.2650 N   0  0  0  0  0  2  0  0  0  0  0  0
  182.8870  175.0790  136.1460 C   0  0  2  0  0  3  0  0  0  0  0  0
  182.5630  175.4470  134.8360 O   0  0  0  0  0  1  0  0  0  0  0  0
  182.5270  175.6380  138.4790 C   0  0  0  0  0  2  0  0  0  0  0  0
  180.5650  176.9330  138.2850 C   0  0  2  0  0  3  0  0  0  0  0  0
  181.1840  175.8730  139.1780 C   0  0  1  0  0  3  0  0  0  0  0  0
  180.2650  174.0290  137.6610 C   0  0  0  0  0  2  0  0  0  0  0  0
  180.3470  174.5790  139.0980 C   0  0  0  0  0  2  0  0  0  0  0  0
  182.3800  176.0900  137.0840 N   0  0  0  0  0  0  0  0  0  0  0  0
  180.0770  175.1440  136.6140 C   0  0  0  0  0  2  0  0  0  0  0  0
  179.0730  177.1720  138.4980 C   0  0  0  0  0  1  0  0  0  0  0  0
  180.9460  176.4020  136.9190 C   0  0  1  0  0  3  0  0  0  0  0  0
  187.3740  178.1550  140.7640 C   0  0  0  0  0  2  0  0  0  0  0  0
  187.0860  178.6520  142.1680 C   0  0  0  0  0  2  0  0  0  0  0  0
  187.0540  177.4730  143.1240 C   0  0  0  0  0  2  0  0  0  0  0  0
  187.6720  177.9980  145.4510 N   0  0  0  0  0  0  0  0  0  0  0  0
  186.7660  177.9330  144.5170 C   0  0  0  0  0  0  0  0  0  0  0  0
  189.0640  177.6570  145.3540 C   0  0  0  0  0  0  0  0  0  0  0  0
  189.7580  177.9900  144.3540 O   0  0  0  0  0  0  0  0  0  0  0  0
  189.2370  177.5110  147.8070 C   0  0  0  0  0  1  0  0  0  0  0  0
  189.7150  176.9350  146.4840 C   0  0  0  0  0  2  0  0  0  0  0  0
  185.3860  178.4080  144.8110 C   0  0  0  0  0  2  0  0  0  0  0  0
  184.4510  178.0640  143.6630 C   0  0  0  0  0  2  0  0  0  0  0  0
  181.0640  178.8130  142.2420 N   0  0  0  0  0  0  0  0  0  0  0  0
  182.5660  179.7290  143.9450 C   0  0  0  0  0  2  0  0  0  0  0  0
  183.7920  179.3250  143.1170 C   0  0  0  0  0  3  0  0  0  0  0  0
  181.3900  178.7910  143.6660 C   0  0  0  0  0  2  0  0  0  0  0  0
  179.9430  177.9100  142.0580 C   0  0  0  0  0  1  0  0  0  0  0  0
  182.1880  178.2440  141.5020 C   0  0  0  0  0  2  0  0  0  0  0  0
  183.4180  179.1420  141.6440 C   0  0  0  0  0  2  0  0  0  0  0  0
  1  8  1  0  0  0  0
  2 14  1  1  0  0  0
  2  3  1  0  0  0  0
  2  6  1  0  0  0  0
  3  5  1  6  0  0  0
  3  4  1  0  0  0  0
  4  7  1  6  0  0  0
  4  8  1  0  0  0  0
  6  7  1  0  0  0  0
  6  1  1  1  0  0  0
  8 34  1  6  0  0  0
  9 14  1  0  0  0  0
 11 10  1  6  0  0  0
 11  9  1  0  0  0  0
 12 11  1  0  0  0  0
 12 13  2  0  0  0  0
 14 13  1  6  0  0  0
 15 17  1  0  0  0  0
 17 16  2  0  0  0  0
 18 13  1  0  0  0  0
 18 16  1  0  0  0  0
 19 20  1  0  0  0  0
 19 15  2  0  0  0  0
 20 18  2  0  0  0  0
 21 11  1  0  0  0  0
 21 22  1  0  0  0  0
 23 24  1  6  0  0  0
 23 22  1  0  0  0  0
 23 30  1  0  0  0  0
 26 32  1  6  0  0  0
 26 27  1  0  0  0  0
 27 25  1  6  0  0  0
 28 29  1  0  0  0  0
 29 27  1  0  0  0  0
 30 25  1  0  0  0  0
 31 28  1  0  0  0  0
 33 31  1  1  0  0  0
 33 30  1  0  0  0  0
 33 26  1  0  0  0  0
 34 35  1  0  0  0  0
 35 36  1  0  0  0  0
 36 38  1  0  0  0  0
 38 43  1  0  0  0  0
 38 37  2  0  0  0  0
 39 37  1  0  0  0  0
 39 42  1  0  0  0  0
 40 39  2  0  0  0  0
 42 41  1  0  0  0  0
 44 43  1  0  0  0  0
 45 48  1  0  0  0  0
 47 44  1  0  0  0  0
 47 46  1  0  0  0  0
 48 46  1  0  0  0  0
 49 45  1  0  0  0  0
 50 51  1  0  0  0  0
 50 45  1  0  0  0  0
 51 47  1  0  0  0  0
M  END
>  <MODEL>
9

>  <REMARK>
 VINA RESULT:      -5.3      1.563      4.410
  Name = 
  15 active torsions:
  status: ('A' for Active; 'I' for Inactive)
    1  A    between atoms: N_3  and  C_20
    2  A    between atoms: C_5  and  C_50
    3  A    between atoms: C_7  and  C_26
    4  A    between atoms: C_7  and  C_41
    5  A    between atoms: N_13  and  C_17
    6  A    between atoms: N_13  and  C_48
    7  A    between atoms: C_14  and  C_48
    8  A    between atoms: C_17  and  N_36
    9  A    between atoms: C_19  and  C_24
   10  A    between atoms: C_19  and  C_33
   11  A    between atoms: C_20  and  C_38
   12  A    between atoms: C_24  and  C_29
   13  A    between atoms: C_26  and  C_33
   14  A    between atoms: C_30  and  C_41
   15  A    between atoms: C_32  and  C_43
                            x       y       z     vdW  Elec       q    Type
                         _______ _______ _______ _____ _____    ______ ____

>  <TORSDO>
F 15

$$$$
