=
 OpenBabel11042410163D

 55 61  0  0  1  0  0  0  0  0999 V2000
  191.6850  176.6720  145.3190 C   0  0  0  0  0  2  0  0  0  0  0  0
  186.9160  177.5120  144.7990 C   0  0  0  0  0  0  0  0  0  0  0  0
  188.0750  177.0800  144.2260 N   0  0  0  0  0  0  0  0  0  0  0  0
  187.0790  177.7740  146.1650 C   0  0  0  0  0  0  0  0  0  0  0  0
  188.4130  177.5510  146.4610 C   0  0  0  0  0  0  0  0  0  0  0  0
  188.9700  177.1430  145.2360 C   0  0  0  0  0  0  0  0  0  0  0  0
  188.4900  178.1450  148.9590 C   0  0  0  0  0  1  0  0  0  0  0  0
  191.3820  177.5720  148.8840 O   0  0  0  0  0  1  0  0  0  0  0  0
  190.3060  176.9170  145.3040 C   0  0  0  0  0  0  0  0  0  0  0  0
  191.0910  177.0660  146.5260 C   0  0  0  0  0  0  0  0  0  0  0  0
  189.1730  177.7080  147.7070 C   0  0  0  0  0  0  0  0  0  0  0  0
  190.5950  177.4470  147.7450 C   0  0  0  0  0  0  0  0  0  0  0  0
  186.0290  178.3020  147.0880 C   0  0  0  0  0  2  0  0  0  0  0  0
  186.0420  179.8180  147.0800 C   0  0  0  0  0  1  0  0  0  0  0  0
  188.3250  176.8730  142.7840 C   0  0  2  0  0  3  0  0  0  0  0  0
  189.4370  175.8610  142.5210 C   0  0  0  0  0  1  0  0  0  0  0  0
  188.5590  178.1690  141.9940 C   0  0  0  0  0  2  0  0  0  0  0  0
  185.7970  178.7140  139.4390 C   0  0  0  0  0  3  0  0  0  0  0  0
  187.8170  178.2630  140.6850 C   0  0  0  0  0  0  0  0  0  0  0  0
  186.4050  178.2760  138.3040 N   0  0  0  0  0  0  0  0  0  0  0  0
  186.4910  178.7120  140.6490 C   0  0  0  0  0  3  0  0  0  0  0  0
  188.4290  177.8250  139.4990 C   0  0  0  0  0  0  0  0  0  0  0  0
  187.6920  177.8390  138.3080 C   0  0  0  0  0  3  0  0  0  0  0  0
  189.7950  177.4020  139.5010 N   0  0  0  0  0  2  0  0  0  0  0  0
  190.1500  176.1170  139.2510 O   0  0  0  0  0  0  0  0  0  0  0  0
  190.8500  176.1650  138.0420 C   0  0  1  0  0  3  0  0  0  0  0  0
  193.1870  176.1460  137.6860 C   0  0  2  0  0  0  0  0  0  0  0  0
  194.0980  176.8570  136.9020 O   0  0  0  0  0  1  0  0  0  0  0  0
  192.4900  174.9460  137.0920 C   0  0  2  0  0  3  0  0  0  0  0  0
  192.0920  177.0340  138.1800 C   0  0  2  0  0  3  0  0  0  0  0  0
  191.2040  174.8620  137.6430 O   0  0  0  0  0  0  0  0  0  0  0  0
  193.0940  176.4500  139.1720 C   0  0  2  0  0  3  0  0  0  0  0  0
  194.0210  177.4300  139.5280 O   0  0  0  0  0  1  0  0  0  0  0  0
  193.2530  173.6740  137.4100 C   0  0  0  0  0  2  0  0  0  0  0  0
  194.4020  173.5750  136.6020 O   0  0  0  0  0  0  0  0  0  0  0  0
  195.4650  172.9890  137.3380 C   0  0  0  0  0  0  0  0  0  0  0  0
  196.7650  173.3150  136.6270 C   0  0  0  0  0  1  0  0  0  0  0  0
  195.5580  173.5860  138.7380 C   0  0  0  0  0  1  0  0  0  0  0  0
  195.0810  171.0650  138.7550 O   0  0  0  0  0  1  0  0  0  0  0  0
  195.3520  171.4610  137.4410 C   0  0  0  0  0  2  0  0  0  0  0  0
  185.6340  177.7250  144.0580 C   0  0  0  0  0  2  0  0  0  0  0  0
  185.5540  179.0520  143.6330 O   0  0  0  0  0  0  0  0  0  0  0  0
  184.3690  179.4950  144.1160 N   0  0  0  0  0  2  0  0  0  0  0  0
  183.3470  178.5980  143.6060 C   0  0  0  0  0  2  0  0  0  0  0  0
  182.1620  179.4100  143.0800 C   0  0  0  0  0  2  0  0  0  0  0  0
  181.2970  178.6590  142.1530 N   0  0  0  0  0  0  0  0  0  0  0  0
  179.5350  179.1560  140.1600 S   0  0  0  0  0  0  0  0  0  0  0  0
  179.0680  178.0570  141.5130 C   0  0  0  0  0  2  0  0  0  0  0  0
  179.9420  178.4480  142.6770 C   0  0  2  0  0  3  0  0  0  0  0  0
  181.2470  179.2620  140.8080 C   0  0  2  0  0  3  0  0  0  0  0  0
  181.5480  177.3140  139.5030 C   0  0  0  0  0  1  0  0  0  0  0  0
  182.1660  178.5730  139.8880 N   0  0  0  0  0  0  0  0  0  0  0  0
  182.2880  179.3280  138.6510 C   0  0  0  0  0  1  0  0  0  0  0  0
  179.4200  179.6080  143.2680 O   0  0  0  0  0  0  0  0  0  0  0  0
  178.9310  179.1910  144.5080 C   0  0  0  0  0  1  0  0  0  0  0  0
  1 10  1  0  0  0  0
  2  4  2  0  0  0  0
  3  2  1  0  0  0  0
  3  6  1  0  0  0  0
  4  5  1  0  0  0  0
  4 13  1  0  0  0  0
  5 11  1  0  0  0  0
  6  9  1  0  0  0  0
  6  5  2  0  0  0  0
  9  1  1  0  0  0  0
  9 10  2  0  0  0  0
 10 12  1  0  0  0  0
 11 12  2  0  0  0  0
 11  7  1  0  0  0  0
 12  8  1  0  0  0  0
 14 13  1  0  0  0  0
 15 16  1  1  0  0  0
 15  3  1  0  0  0  0
 17 15  1  0  0  0  0
 18 21  1  0  0  0  0
 19 17  1  0  0  0  0
 20 23  1  0  0  0  0
 20 18  2  0  0  0  0
 21 19  2  0  0  0  0
 22 24  1  0  0  0  0
 22 19  1  0  0  0  0
 23 22  2  0  0  0  0
 25 24  1  0  0  0  0
 26 30  1  0  0  0  0
 26 25  1  1  0  0  0
 27 28  1  6  0  0  0
 27 30  1  0  0  0  0
 27 32  1  0  0  0  0
 29 34  1  1  0  0  0
 29 31  1  0  0  0  0
 29 27  1  0  0  0  0
 30 32  1  0  0  0  0
 31 26  1  0  0  0  0
 32 33  1  0  0  0  0
 35 36  1  0  0  0  0
 35 34  1  0  0  0  0
 36 40  1  0  0  0  0
 36 38  1  0  0  0  0
 37 36  1  0  0  0  0
 40 39  1  0  0  0  0
 41  2  1  0  0  0  0
 42 41  1  0  0  0  0
 42 43  1  0  0  0  0
 44 43  1  0  0  0  0
 45 44  1  0  0  0  0
 46 49  1  0  0  0  0
 46 45  1  0  0  0  0
 47 50  1  0  0  0  0
 47 48  1  0  0  0  0
 48 49  1  0  0  0  0
 49 54  1  0  0  0  0
 50 46  1  0  0  0  0
 51 52  1  0  0  0  0
 52 50  1  0  0  0  0
 53 52  1  0  0  0  0
 54 55  1  0  0  0  0
M  END
>  <MODEL>
1

>  <REMARK>
 VINA RESULT:      -7.8      0.000      0.000
  Name = 
  19 active torsions:
  status: ('A' for Active; 'I' for Inactive)
    1  A    between atoms: C_2  and  O_46
    2  A    between atoms: O_4  and  C_23
    3  A    between atoms: C_5  and  N_10
    4  A    between atoms: C_5  and  C_50
    5  A    between atoms: C_7  and  O_35
    6  A    between atoms: C_7  and  C_49
    7  A    between atoms: C_9  and  C_54
    8  A    between atoms: N_11  and  C_32
    9  A    between atoms: C_13  and  C_50
   10  A    between atoms: C_15  and  C_21
   11  A    between atoms: N_18  and  C_39
   12  A    between atoms: N_18  and  O_46
   13  A    between atoms: O_20  and  N_48
   14  A    between atoms: O_20  and  C_54
   15  A    between atoms: C_26  and  C_51
   16  A    between atoms: C_32  and  C_34
   17  A    between atoms: N_33  and  C_45
   18  A    between atoms: C_34  and  N_48
   19  A    between atoms: O_35  and  C_51
                            x       y       z     vdW  Elec       q    Type
                         _______ _______ _______ _____ _____    ______ ____

>  <TORSDO>
F 19

$$$$
=
 OpenBabel11042410163D

 55 61  0  0  1  0  0  0  0  0999 V2000
  185.3670  178.8830  146.5040 C   0  0  0  0  0  2  0  0  0  0  0  0
  188.3000  177.4270  142.8980 C   0  0  0  0  0  0  0  0  0  0  0  0
  187.1400  178.0480  143.2550 N   0  0  0  0  0  0  0  0  0  0  0  0
  189.0820  177.1080  144.0150 C   0  0  0  0  0  0  0  0  0  0  0  0
  188.3630  177.4940  145.1340 C   0  0  0  0  0  0  0  0  0  0  0  0
  187.1840  178.0480  144.6050 C   0  0  0  0  0  0  0  0  0  0  0  0
  189.9350  176.7670  147.0310 C   0  0  0  0  0  1  0  0  0  0  0  0
  187.8980  177.7360  148.9290 O   0  0  0  0  0  1  0  0  0  0  0  0
  186.3080  178.4510  145.5600 C   0  0  0  0  0  0  0  0  0  0  0  0
  186.5620  178.3380  146.9930 C   0  0  0  0  0  0  0  0  0  0  0  0
  188.6510  177.3680  146.5670 C   0  0  0  0  0  0  0  0  0  0  0  0
  187.6980  177.8200  147.5560 C   0  0  0  0  0  0  0  0  0  0  0  0
  190.3900  176.3850  143.9930 C   0  0  0  0  0  2  0  0  0  0  0  0
  191.5290  177.3730  143.8370 C   0  0  0  0  0  1  0  0  0  0  0  0
  186.0030  178.3750  142.3690 C   0  0  2  0  0  3  0  0  0  0  0  0
  185.6920  179.8690  142.3410 C   0  0  0  0  0  1  0  0  0  0  0  0
  184.7350  177.5520  142.6430 C   0  0  0  0  0  2  0  0  0  0  0  0
  181.5230  179.4700  143.3190 C   0  0  0  0  0  3  0  0  0  0  0  0
  183.4370  178.2890  142.4360 C   0  0  0  0  0  0  0  0  0  0  0  0
  180.9710  179.4950  142.0760 N   0  0  0  0  0  0  0  0  0  0  0  0
  182.7630  178.8640  143.5210 C   0  0  0  0  0  3  0  0  0  0  0  0
  182.8530  178.3350  141.1590 C   0  0  0  0  0  0  0  0  0  0  0  0
  181.6040  178.9490  141.0040 C   0  0  0  0  0  3  0  0  0  0  0  0
  183.5400  177.7930  140.0280 N   0  0  0  0  0  2  0  0  0  0  0  0
  183.2090  176.5900  139.4950 O   0  0  0  0  0  0  0  0  0  0  0  0
  182.6980  176.8860  138.2280 C   0  0  1  0  0  3  0  0  0  0  0  0
  183.7370  176.6350  136.1190 C   0  0  2  0  0  0  0  0  0  0  0  0
  183.8790  177.4050  134.9630 O   0  0  0  0  0  1  0  0  0  0  0  0
  182.5080  175.7730  136.2780 C   0  0  2  0  0  3  0  0  0  0  0  0
  183.7800  177.4890  137.3440 C   0  0  2  0  0  3  0  0  0  0  0  0
  182.1760  175.7180  137.6380 O   0  0  0  0  0  0  0  0  0  0  0  0
  184.9130  176.5060  137.0710 C   0  0  2  0  0  3  0  0  0  0  0  0
  186.0200  177.1960  136.5760 O   0  0  0  0  0  1  0  0  0  0  0  0
  182.7730  174.3680  135.7720 C   0  0  0  0  0  2  0  0  0  0  0  0
  182.7950  173.4560  136.8460 O   0  0  0  0  0  0  0  0  0  0  0  0
  183.8910  172.5650  136.7040 C   0  0  0  0  0  0  0  0  0  0  0  0
  184.5530  172.8440  135.3670 C   0  0  0  0  0  1  0  0  0  0  0  0
  184.9400  172.8080  137.7830 C   0  0  0  0  0  1  0  0  0  0  0  0
  184.0030  170.3990  135.6300 O   0  0  0  0  0  1  0  0  0  0  0  0
  183.4700  171.0880  136.7250 C   0  0  0  0  0  2  0  0  0  0  0  0
  188.6780  177.0840  141.4920 C   0  0  0  0  0  2  0  0  0  0  0  0
  189.4500  178.1120  140.9500 O   0  0  0  0  0  0  0  0  0  0  0  0
  189.0980  178.1510  139.6430 N   0  0  0  0  0  2  0  0  0  0  0  0
  190.2470  177.6900  138.8850 C   0  0  0  0  0  2  0  0  0  0  0  0
  190.5220  176.2190  139.2050 C   0  0  0  0  0  2  0  0  0  0  0  0
  191.1640  175.4840  138.1020 N   0  0  0  0  0  0  0  0  0  0  0  0
  191.6650  175.8050  135.4620 S   0  0  0  0  0  0  0  0  0  0  0  0
  190.8890  174.2850  136.0460 C   0  0  0  0  0  2  0  0  0  0  0  0
  190.2260  174.6400  137.3520 C   0  0  2  0  0  3  0  0  0  0  0  0
  191.9130  176.3690  137.1890 C   0  0  2  0  0  3  0  0  0  0  0  0
  193.6890  175.0320  137.9950 C   0  0  0  0  0  1  0  0  0  0  0  0
  193.3490  176.3610  137.5100 N   0  0  0  0  0  0  0  0  0  0  0  0
  194.1280  176.5290  136.2930 C   0  0  0  0  0  1  0  0  0  0  0  0
  189.0200  175.3050  137.0840 O   0  0  0  0  0  0  0  0  0  0  0  0
  188.1170  174.2920  136.7520 C   0  0  0  0  0  1  0  0  0  0  0  0
  1 10  1  0  0  0  0
  2  3  1  0  0  0  0
  2  4  2  0  0  0  0
  3  6  1  0  0  0  0
  4  5  1  0  0  0  0
  5 11  1  0  0  0  0
  6  5  2  0  0  0  0
  6  9  1  0  0  0  0
  9  1  1  0  0  0  0
  9 10  2  0  0  0  0
 10 12  1  0  0  0  0
 11  7  1  0  0  0  0
 11 12  2  0  0  0  0
 12  8  1  0  0  0  0
 13  4  1  0  0  0  0
 14 13  1  0  0  0  0
 15 16  1  1  0  0  0
 15 17  1  0  0  0  0
 15  3  1  0  0  0  0
 18 21  1  0  0  0  0
 19 17  1  0  0  0  0
 19 21  2  0  0  0  0
 20 18  2  0  0  0  0
 22 19  1  0  0  0  0
 23 22  2  0  0  0  0
 23 20  1  0  0  0  0
 24 22  1  0  0  0  0
 25 24  1  0  0  0  0
 26 25  1  1  0  0  0
 27 28  1  6  0  0  0
 27 29  1  0  0  0  0
 27 32  1  0  0  0  0
 27 30  1  0  0  0  0
 29 34  1  1  0  0  0
 29 31  1  0  0  0  0
 30 26  1  0  0  0  0
 31 26  1  0  0  0  0
 32 30  1  0  0  0  0
 33 32  1  0  0  0  0
 34 35  1  0  0  0  0
 36 40  1  0  0  0  0
 36 35  1  0  0  0  0
 36 38  1  0  0  0  0
 37 36  1  0  0  0  0
 39 40  1  0  0  0  0
 41  2  1  0  0  0  0
 42 41  1  0  0  0  0
 43 42  1  0  0  0  0
 44 45  1  0  0  0  0
 44 43  1  0  0  0  0
 46 45  1  0  0  0  0
 47 48  1  0  0  0  0
 47 50  1  0  0  0  0
 48 49  1  0  0  0  0
 49 46  1  0  0  0  0
 50 52  1  0  0  0  0
 50 46  1  0  0  0  0
 52 51  1  0  0  0  0
 53 52  1  0  0  0  0
 54 49  1  0  0  0  0
 55 54  1  0  0  0  0
M  END
>  <MODEL>
2

>  <REMARK>
 VINA RESULT:      -7.7      3.929      8.458
  Name = 
  19 active torsions:
  status: ('A' for Active; 'I' for Inactive)
    1  A    between atoms: C_2  and  O_46
    2  A    between atoms: O_4  and  C_23
    3  A    between atoms: C_5  and  N_10
    4  A    between atoms: C_5  and  C_50
    5  A    between atoms: C_7  and  O_35
    6  A    between atoms: C_7  and  C_49
    7  A    between atoms: C_9  and  C_54
    8  A    between atoms: N_11  and  C_32
    9  A    between atoms: C_13  and  C_50
   10  A    between atoms: C_15  and  C_21
   11  A    between atoms: N_18  and  C_39
   12  A    between atoms: N_18  and  O_46
   13  A    between atoms: O_20  and  N_48
   14  A    between atoms: O_20  and  C_54
   15  A    between atoms: C_26  and  C_51
   16  A    between atoms: C_32  and  C_34
   17  A    between atoms: N_33  and  C_45
   18  A    between atoms: C_34  and  N_48
   19  A    between atoms: O_35  and  C_51
                            x       y       z     vdW  Elec       q    Type
                         _______ _______ _______ _____ _____    ______ ____

>  <TORSDO>
F 19

$$$$
=
 OpenBabel11042410163D

 55 61  0  0  1  0  0  0  0  0999 V2000
  185.3410  178.7670  146.4650 C   0  0  0  0  0  2  0  0  0  0  0  0
  188.3970  177.4960  142.8910 C   0  0  0  0  0  0  0  0  0  0  0  0
  187.1980  178.0460  143.2360 N   0  0  0  0  0  0  0  0  0  0  0  0
  189.1830  177.2200  144.0160 C   0  0  0  0  0  0  0  0  0  0  0  0
  188.4300  177.5610  145.1270 C   0  0  0  0  0  0  0  0  0  0  0  0
  187.2260  178.0450  144.5860 C   0  0  0  0  0  0  0  0  0  0  0  0
  190.0200  176.9220  147.0410 C   0  0  0  0  0  1  0  0  0  0  0  0
  187.9080  177.7640  148.9180 O   0  0  0  0  0  1  0  0  0  0  0  0
  186.3170  178.3940  145.5310 C   0  0  0  0  0  0  0  0  0  0  0  0
  186.5620  178.2920  146.9670 C   0  0  0  0  0  0  0  0  0  0  0  0
  188.7090  177.4470  146.5640 C   0  0  0  0  0  0  0  0  0  0  0  0
  187.7190  177.8400  147.5430 C   0  0  0  0  0  0  0  0  0  0  0  0
  190.5320  176.5750  144.0070 C   0  0  0  0  0  2  0  0  0  0  0  0
  191.6060  177.6180  143.7680 C   0  0  0  0  0  1  0  0  0  0  0  0
  186.0540  178.3080  142.3370 C   0  0  2  0  0  3  0  0  0  0  0  0
  185.7670  179.7980  142.1710 C   0  0  0  0  0  1  0  0  0  0  0  0
  184.7770  177.5370  142.7050 C   0  0  0  0  0  2  0  0  0  0  0  0
  181.5690  179.5380  143.1060 C   0  0  0  0  0  3  0  0  0  0  0  0
  183.4870  178.2520  142.3940 C   0  0  0  0  0  0  0  0  0  0  0  0
  181.0340  179.4220  141.8610 N   0  0  0  0  0  0  0  0  0  0  0  0
  182.8020  178.9530  143.3950 C   0  0  0  0  0  3  0  0  0  0  0  0
  182.9200  178.1530  141.1120 C   0  0  0  0  0  0  0  0  0  0  0  0
  181.6790  178.7510  140.8690 C   0  0  0  0  0  3  0  0  0  0  0  0
  183.6190  177.4800  140.0620 N   0  0  0  0  0  2  0  0  0  0  0  0
  183.2080  177.5410  138.7700 O   0  0  0  0  0  0  0  0  0  0  0  0
  182.3350  176.4590  138.6190 C   0  0  1  0  0  3  0  0  0  0  0  0
  181.6150  175.4090  136.6270 C   0  0  2  0  0  0  0  0  0  0  0  0
  180.4010  174.9640  136.0990 O   0  0  0  0  0  1  0  0  0  0  0  0
  182.4020  174.4880  137.5280 C   0  0  2  0  0  3  0  0  0  0  0  0
  181.4330  176.6670  137.4110 C   0  0  2  0  0  3  0  0  0  0  0  0
  183.0720  175.2660  138.4830 O   0  0  0  0  0  0  0  0  0  0  0  0
  182.2210  176.7010  136.1050 C   0  0  2  0  0  3  0  0  0  0  0  0
  181.4240  177.2390  135.0940 O   0  0  0  0  0  1  0  0  0  0  0  0
  183.4190  173.6980  136.7270 C   0  0  0  0  0  2  0  0  0  0  0  0
  183.3970  172.3420  137.1070 O   0  0  0  0  0  0  0  0  0  0  0  0
  182.9660  171.5400  136.0180 C   0  0  0  0  0  0  0  0  0  0  0  0
  183.3840  172.2280  134.7330 C   0  0  0  0  0  1  0  0  0  0  0  0
  183.6460  170.1750  136.0380 C   0  0  0  0  0  1  0  0  0  0  0  0
  180.8890  171.9610  134.8490 O   0  0  0  0  0  1  0  0  0  0  0  0
  181.4420  171.3500  135.9800 C   0  0  0  0  0  2  0  0  0  0  0  0
  188.8100  177.1790  141.4890 C   0  0  0  0  0  2  0  0  0  0  0  0
  189.1450  178.3570  140.8220 O   0  0  0  0  0  0  0  0  0  0  0  0
  188.8060  178.1270  139.5300 N   0  0  0  0  0  2  0  0  0  0  0  0
  189.4970  176.9160  139.1250 C   0  0  0  0  0  2  0  0  0  0  0  0
  190.1220  177.1160  137.7430 C   0  0  0  0  0  2  0  0  0  0  0  0
  189.6630  176.1380  136.7400 N   0  0  0  0  0  0  0  0  0  0  0  0
  188.2980  173.8030  136.6510 S   0  0  0  0  0  0  0  0  0  0  0  0
  189.8900  173.9400  135.8140 C   0  0  0  0  0  2  0  0  0  0  0  0
  190.6270  175.0530  136.5150 C   0  0  2  0  0  3  0  0  0  0  0  0
  188.3270  175.5930  137.0480 C   0  0  2  0  0  3  0  0  0  0  0  0
  186.5620  175.2860  135.5050 C   0  0  0  0  0  1  0  0  0  0  0  0
  187.2860  176.2870  136.2730 N   0  0  0  0  0  0  0  0  0  0  0  0
  186.2970  176.8590  137.1740 C   0  0  0  0  0  1  0  0  0  0  0  0
  191.1550  174.5610  137.7180 O   0  0  0  0  0  0  0  0  0  0  0  0
  192.5020  174.3150  137.4440 C   0  0  0  0  0  1  0  0  0  0  0  0
  1 10  1  0  0  0  0
  2  3  1  0  0  0  0
  2  4  2  0  0  0  0
  3  6  1  0  0  0  0
  4  5  1  0  0  0  0
  5 11  1  0  0  0  0
  6  5  2  0  0  0  0
  6  9  1  0  0  0  0
  9  1  1  0  0  0  0
  9 10  2  0  0  0  0
 10 12  1  0  0  0  0
 11  7  1  0  0  0  0
 11 12  2  0  0  0  0
 12  8  1  0  0  0  0
 13  4  1  0  0  0  0
 14 13  1  0  0  0  0
 15 16  1  1  0  0  0
 15 17  1  0  0  0  0
 15  3  1  0  0  0  0
 18 21  1  0  0  0  0
 19 17  1  0  0  0  0
 19 21  2  0  0  0  0
 20 18  2  0  0  0  0
 22 19  1  0  0  0  0
 23 22  2  0  0  0  0
 23 20  1  0  0  0  0
 24 22  1  0  0  0  0
 25 24  1  0  0  0  0
 26 25  1  6  0  0  0
 27 28  1  6  0  0  0
 27 30  1  0  0  0  0
 27 29  1  0  0  0  0
 29 34  1  6  0  0  0
 29 31  1  0  0  0  0
 30 26  1  0  0  0  0
 31 26  1  0  0  0  0
 32 27  1  0  0  0  0
 32 30  1  0  0  0  0
 33 32  1  0  0  0  0
 34 35  1  0  0  0  0
 36 38  1  0  0  0  0
 36 35  1  0  0  0  0
 37 36  1  0  0  0  0
 39 40  1  0  0  0  0
 40 36  1  0  0  0  0
 41  2  1  0  0  0  0
 42 41  1  0  0  0  0
 43 42  1  0  0  0  0
 44 43  1  0  0  0  0
 45 44  1  0  0  0  0
 46 50  1  0  0  0  0
 46 45  1  0  0  0  0
 47 50  1  0  0  0  0
 48 49  1  0  0  0  0
 48 47  1  0  0  0  0
 49 46  1  0  0  0  0
 49 54  1  0  0  0  0
 51 52  1  0  0  0  0
 52 50  1  0  0  0  0
 52 53  1  0  0  0  0
 55 54  1  0  0  0  0
M  END
>  <MODEL>
3

>  <REMARK>
 VINA RESULT:      -7.6      4.133      8.653
  Name = 
  19 active torsions:
  status: ('A' for Active; 'I' for Inactive)
    1  A    between atoms: C_2  and  O_46
    2  A    between atoms: O_4  and  C_23
    3  A    between atoms: C_5  and  N_10
    4  A    between atoms: C_5  and  C_50
    5  A    between atoms: C_7  and  O_35
    6  A    between atoms: C_7  and  C_49
    7  A    between atoms: C_9  and  C_54
    8  A    between atoms: N_11  and  C_32
    9  A    between atoms: C_13  and  C_50
   10  A    between atoms: C_15  and  C_21
   11  A    between atoms: N_18  and  C_39
   12  A    between atoms: N_18  and  O_46
   13  A    between atoms: O_20  and  N_48
   14  A    between atoms: O_20  and  C_54
   15  A    between atoms: C_26  and  C_51
   16  A    between atoms: C_32  and  C_34
   17  A    between atoms: N_33  and  C_45
   18  A    between atoms: C_34  and  N_48
   19  A    between atoms: O_35  and  C_51
                            x       y       z     vdW  Elec       q    Type
                         _______ _______ _______ _____ _____    ______ ____

>  <TORSDO>
F 19

$$$$
=
 OpenBabel11042410163D

 55 61  0  0  1  0  0  0  0  0999 V2000
  185.3460  178.6460  146.4880 C   0  0  0  0  0  2  0  0  0  0  0  0
  188.3060  177.5580  142.7760 C   0  0  0  0  0  0  0  0  0  0  0  0
  187.1100  178.0750  143.1780 N   0  0  0  0  0  0  0  0  0  0  0  0
  189.1310  177.2540  143.8650 C   0  0  0  0  0  0  0  0  0  0  0  0
  188.4090  177.5410  145.0110 C   0  0  0  0  0  0  0  0  0  0  0  0
  187.1810  178.0250  144.5260 C   0  0  0  0  0  0  0  0  0  0  0  0
  190.0680  176.8590  146.8490 C   0  0  0  0  0  1  0  0  0  0  0  0
  188.0040  177.5970  148.8210 O   0  0  0  0  0  1  0  0  0  0  0  0
  186.2970  178.3240  145.5110 C   0  0  0  0  0  0  0  0  0  0  0  0
  186.5880  178.1730  146.9340 C   0  0  0  0  0  0  0  0  0  0  0  0
  188.7350  177.3800  146.4330 C   0  0  0  0  0  0  0  0  0  0  0  0
  187.7700  177.7200  147.4560 C   0  0  0  0  0  0  0  0  0  0  0  0
  190.4890  176.6330  143.7910 C   0  0  0  0  0  2  0  0  0  0  0  0
  191.5480  177.7090  143.6530 C   0  0  0  0  0  1  0  0  0  0  0  0
  185.9340  178.3510  142.3260 C   0  0  2  0  0  3  0  0  0  0  0  0
  185.6200  179.8410  142.2240 C   0  0  0  0  0  1  0  0  0  0  0  0
  184.6810  177.5470  142.7040 C   0  0  0  0  0  2  0  0  0  0  0  0
  181.5250  179.5840  143.2920 C   0  0  0  0  0  3  0  0  0  0  0  0
  183.3720  178.2570  142.4750 C   0  0  0  0  0  0  0  0  0  0  0  0
  180.8870  179.4190  142.1020 N   0  0  0  0  0  0  0  0  0  0  0  0
  182.7760  179.0030  143.4990 C   0  0  0  0  0  3  0  0  0  0  0  0
  182.6990  178.1080  141.2500 C   0  0  0  0  0  0  0  0  0  0  0  0
  181.4430  178.7040  141.0880 C   0  0  0  0  0  3  0  0  0  0  0  0
  183.3040  177.3870  140.1730 N   0  0  0  0  0  2  0  0  0  0  0  0
  184.1060  177.9940  139.2640 O   0  0  0  0  0  0  0  0  0  0  0  0
  183.4270  177.8750  138.0470 C   0  0  1  0  0  3  0  0  0  0  0  0
  183.7760  176.3120  136.3080 C   0  0  2  0  0  0  0  0  0  0  0  0
  183.8770  176.3530  134.9160 O   0  0  0  0  0  1  0  0  0  0  0  0
  182.4100  176.1970  136.9400 C   0  0  2  0  0  3  0  0  0  0  0  0
  184.3970  177.5200  136.9290 C   0  0  2  0  0  3  0  0  0  0  0  0
  182.4220  176.8940  138.1560 O   0  0  0  0  0  0  0  0  0  0  0  0
  185.0390  176.1530  137.1370 C   0  0  2  0  0  3  0  0  0  0  0  0
  186.1540  176.0310  136.3080 O   0  0  0  0  0  1  0  0  0  0  0  0
  182.0640  174.7430  137.2030 C   0  0  0  0  0  2  0  0  0  0  0  0
  181.2880  174.2240  136.1480 O   0  0  0  0  0  0  0  0  0  0  0  0
  180.1010  173.6400  136.6600 C   0  0  0  0  0  0  0  0  0  0  0  0
  180.3590  173.2380  138.1010 C   0  0  0  0  0  1  0  0  0  0  0  0
  178.9550  174.6450  136.6740 C   0  0  0  0  0  1  0  0  0  0  0  0
  180.1420  171.2240  136.5120 O   0  0  0  0  0  1  0  0  0  0  0  0
  179.6690  172.3840  135.8890 C   0  0  0  0  0  2  0  0  0  0  0  0
  188.6800  177.3000  141.3510 C   0  0  0  0  0  2  0  0  0  0  0  0
  188.8100  178.5130  140.6740 O   0  0  0  0  0  0  0  0  0  0  0  0
  188.0670  178.3590  139.5520 N   0  0  0  0  0  2  0  0  0  0  0  0
  188.9990  178.2500  138.4430 C   0  0  0  0  0  2  0  0  0  0  0  0
  189.1930  176.7790  138.0720 C   0  0  0  0  0  2  0  0  0  0  0  0
  190.4810  176.5010  137.4120 N   0  0  0  0  0  0  0  0  0  0  0  0
  192.3590  174.5540  137.3550 S   0  0  0  0  0  0  0  0  0  0  0  0
  192.8540  176.2650  137.6380 C   0  0  0  0  0  2  0  0  0  0  0  0
  191.6360  176.9570  138.1960 C   0  0  2  0  0  3  0  0  0  0  0  0
  190.6320  175.0820  137.0370 C   0  0  2  0  0  3  0  0  0  0  0  0
  188.9990  174.2450  135.5460 C   0  0  0  0  0  1  0  0  0  0  0  0
  190.3070  174.8770  135.6170 N   0  0  0  0  0  0  0  0  0  0  0  0
  190.1400  176.1620  134.9560 C   0  0  0  0  0  1  0  0  0  0  0  0
  191.5110  176.6310  139.5540 O   0  0  0  0  0  0  0  0  0  0  0  0
  192.5210  177.3560  140.1910 C   0  0  0  0  0  1  0  0  0  0  0  0
  1 10  1  0  0  0  0
  2  3  1  0  0  0  0
  2  4  2  0  0  0  0
  3  6  1  0  0  0  0
  4  5  1  0  0  0  0
  5 11  1  0  0  0  0
  6  5  2  0  0  0  0
  6  9  1  0  0  0  0
  9  1  1  0  0  0  0
  9 10  2  0  0  0  0
 10 12  1  0  0  0  0
 11  7  1  0  0  0  0
 11 12  2  0  0  0  0
 12  8  1  0  0  0  0
 13  4  1  0  0  0  0
 14 13  1  0  0  0  0
 15 16  1  1  0  0  0
 15 17  1  0  0  0  0
 15  3  1  0  0  0  0
 18 21  1  0  0  0  0
 19 17  1  0  0  0  0
 19 21  2  0  0  0  0
 20 18  2  0  0  0  0
 22 19  1  0  0  0  0
 23 22  2  0  0  0  0
 23 20  1  0  0  0  0
 24 22  1  0  0  0  0
 25 24  1  0  0  0  0
 26 31  1  0  0  0  0
 26 25  1  1  0  0  0
 27 28  1  6  0  0  0
 27 30  1  0  0  0  0
 27 29  1  0  0  0  0
 27 32  1  0  0  0  0
 29 34  1  1  0  0  0
 29 31  1  0  0  0  0
 30 32  1  0  0  0  0
 30 26  1  0  0  0  0
 33 32  1  0  0  0  0
 35 36  1  0  0  0  0
 35 34  1  0  0  0  0
 36 38  1  0  0  0  0
 36 37  1  0  0  0  0
 40 39  1  0  0  0  0
 40 36  1  0  0  0  0
 41  2  1  0  0  0  0
 42 41  1  0  0  0  0
 43 42  1  0  0  0  0
 44 43  1  0  0  0  0
 45 44  1  0  0  0  0
 46 45  1  0  0  0  0
 46 49  1  0  0  0  0
 47 48  1  0  0  0  0
 48 49  1  0  0  0  0
 49 54  1  0  0  0  0
 50 47  1  0  0  0  0
 50 46  1  0  0  0  0
 51 52  1  0  0  0  0
 52 50  1  0  0  0  0
 53 52  1  0  0  0  0
 54 55  1  0  0  0  0
M  END
>  <MODEL>
4

>  <REMARK>
 VINA RESULT:      -7.4      3.898      8.967
  Name = 
  19 active torsions:
  status: ('A' for Active; 'I' for Inactive)
    1  A    between atoms: C_2  and  O_46
    2  A    between atoms: O_4  and  C_23
    3  A    between atoms: C_5  and  N_10
    4  A    between atoms: C_5  and  C_50
    5  A    between atoms: C_7  and  O_35
    6  A    between atoms: C_7  and  C_49
    7  A    between atoms: C_9  and  C_54
    8  A    between atoms: N_11  and  C_32
    9  A    between atoms: C_13  and  C_50
   10  A    between atoms: C_15  and  C_21
   11  A    between atoms: N_18  and  C_39
   12  A    between atoms: N_18  and  O_46
   13  A    between atoms: O_20  and  N_48
   14  A    between atoms: O_20  and  C_54
   15  A    between atoms: C_26  and  C_51
   16  A    between atoms: C_32  and  C_34
   17  A    between atoms: N_33  and  C_45
   18  A    between atoms: C_34  and  N_48
   19  A    between atoms: O_35  and  C_51
                            x       y       z     vdW  Elec       q    Type
                         _______ _______ _______ _____ _____    ______ ____

>  <TORSDO>
F 19

$$$$
=
 OpenBabel11042410163D

 55 61  0  0  1  0  0  0  0  0999 V2000
  185.3390  178.7000  146.5110 C   0  0  0  0  0  2  0  0  0  0  0  0
  188.2700  177.6410  142.7680 C   0  0  0  0  0  0  0  0  0  0  0  0
  187.0960  178.1920  143.1860 N   0  0  0  0  0  0  0  0  0  0  0  0
  189.0760  177.2570  143.8460 C   0  0  0  0  0  0  0  0  0  0  0  0
  188.3600  177.5270  145.0000 C   0  0  0  0  0  0  0  0  0  0  0  0
  187.1570  178.0830  144.5310 C   0  0  0  0  0  0  0  0  0  0  0  0
  189.9790  176.6980  146.8150 C   0  0  0  0  0  1  0  0  0  0  0  0
  187.9370  177.4410  148.8080 O   0  0  0  0  0  1  0  0  0  0  0  0
  186.2810  178.3780  145.5250 C   0  0  0  0  0  0  0  0  0  0  0  0
  186.5580  178.1560  146.9410 C   0  0  0  0  0  0  0  0  0  0  0  0
  188.6710  177.2930  146.4160 C   0  0  0  0  0  0  0  0  0  0  0  0
  187.7170  177.6310  147.4480 C   0  0  0  0  0  0  0  0  0  0  0  0
  190.4060  176.5820  143.7510 C   0  0  0  0  0  2  0  0  0  0  0  0
  191.5070  177.6150  143.6110 C   0  0  0  0  0  1  0  0  0  0  0  0
  185.9370  178.5530  142.3420 C   0  0  2  0  0  3  0  0  0  0  0  0
  185.5220  180.0130  142.5080 C   0  0  0  0  0  1  0  0  0  0  0  0
  184.7310  177.6150  142.4960 C   0  0  0  0  0  2  0  0  0  0  0  0
  181.6380  179.2630  143.9710 C   0  0  0  0  0  3  0  0  0  0  0  0
  183.3960  178.3040  142.6180 C   0  0  0  0  0  0  0  0  0  0  0  0
  180.8720  179.4180  142.8570 N   0  0  0  0  0  0  0  0  0  0  0  0
  182.9110  178.7010  143.8710 C   0  0  0  0  0  3  0  0  0  0  0  0
  182.5920  178.4830  141.4800 C   0  0  0  0  0  0  0  0  0  0  0  0
  181.3190  179.0460  141.6280 C   0  0  0  0  0  3  0  0  0  0  0  0
  183.0800  178.1260  140.1840 N   0  0  0  0  0  2  0  0  0  0  0  0
  183.0380  176.8500  139.7260 O   0  0  0  0  0  0  0  0  0  0  0  0
  181.7070  176.6470  139.3480 C   0  0  1  0  0  3  0  0  0  0  0  0
  180.7690  176.6600  137.1780 C   0  0  2  0  0  0  0  0  0  0  0  0
  179.6420  177.2110  136.5660 O   0  0  0  0  0  1  0  0  0  0  0  0
  180.6490  175.3210  137.8650 C   0  0  2  0  0  3  0  0  0  0  0  0
  181.3280  177.5840  138.2100 C   0  0  2  0  0  3  0  0  0  0  0  0
  181.5190  175.3050  138.9640 O   0  0  0  0  0  0  0  0  0  0  0  0
  182.1270  177.2990  136.9420 C   0  0  2  0  0  3  0  0  0  0  0  0
  182.0110  178.3800  136.0670 O   0  0  0  0  0  1  0  0  0  0  0  0
  181.0230  174.1980  136.9170 C   0  0  0  0  0  2  0  0  0  0  0  0
  182.0110  173.3760  137.4940 O   0  0  0  0  0  0  0  0  0  0  0  0
  182.8780  172.8780  136.4860 C   0  0  0  0  0  0  0  0  0  0  0  0
  183.4350  174.0630  135.7190 C   0  0  0  0  0  1  0  0  0  0  0  0
  184.0640  172.1420  137.0980 C   0  0  0  0  0  1  0  0  0  0  0  0
  182.9340  170.8190  135.2160 O   0  0  0  0  0  1  0  0  0  0  0  0
  182.1660  171.9580  135.4840 C   0  0  0  0  0  2  0  0  0  0  0  0
  188.6410  177.4270  141.3340 C   0  0  0  0  0  2  0  0  0  0  0  0
  188.9630  178.6500  140.7460 O   0  0  0  0  0  0  0  0  0  0  0  0
  188.6030  178.5100  139.4480 N   0  0  0  0  0  2  0  0  0  0  0  0
  189.7190  177.8770  138.7680 C   0  0  0  0  0  2  0  0  0  0  0  0
  189.3590  177.6300  137.3020 C   0  0  0  0  0  2  0  0  0  0  0  0
  188.9010  176.2560  137.0300 N   0  0  0  0  0  0  0  0  0  0  0  0
  187.9990  174.7870  134.9430 S   0  0  0  0  0  0  0  0  0  0  0  0
  187.0690  174.8100  136.4890 C   0  0  0  0  0  2  0  0  0  0  0  0
  187.4490  176.0960  137.1770 C   0  0  2  0  0  3  0  0  0  0  0  0
  189.3500  175.7570  135.7160 C   0  0  2  0  0  3  0  0  0  0  0  0
  191.7140  175.7590  135.6730 C   0  0  0  0  0  1  0  0  0  0  0  0
  190.5460  174.9120  135.8560 N   0  0  0  0  0  0  0  0  0  0  0  0
  190.6480  174.4200  137.2210 C   0  0  0  0  0  1  0  0  0  0  0  0
  186.7410  177.1530  136.5850 O   0  0  0  0  0  0  0  0  0  0  0  0
  185.7050  177.4360  137.4780 C   0  0  0  0  0  1  0  0  0  0  0  0
  1 10  1  0  0  0  0
  2  3  1  0  0  0  0
  2  4  2  0  0  0  0
  3  6  1  0  0  0  0
  4  5  1  0  0  0  0
  5 11  1  0  0  0  0
  6  5  2  0  0  0  0
  6  9  1  0  0  0  0
  9  1  1  0  0  0  0
  9 10  2  0  0  0  0
 10 12  1  0  0  0  0
 11  7  1  0  0  0  0
 11 12  2  0  0  0  0
 12  8  1  0  0  0  0
 13  4  1  0  0  0  0
 14 13  1  0  0  0  0
 15 17  1  0  0  0  0
 15 16  1  1  0  0  0
 15  3  1  0  0  0  0
 17 19  1  0  0  0  0
 19 21  2  0  0  0  0
 20 18  2  0  0  0  0
 21 18  1  0  0  0  0
 22 23  2  0  0  0  0
 22 19  1  0  0  0  0
 23 20  1  0  0  0  0
 24 22  1  0  0  0  0
 25 24  1  0  0  0  0
 26 25  1  6  0  0  0
 27 28  1  6  0  0  0
 27 29  1  0  0  0  0
 27 30  1  0  0  0  0
 29 34  1  6  0  0  0
 29 31  1  0  0  0  0
 30 26  1  0  0  0  0
 31 26  1  0  0  0  0
 32 27  1  0  0  0  0
 32 30  1  0  0  0  0
 33 32  1  0  0  0  0
 34 35  1  0  0  0  0
 36 38  1  0  0  0  0
 36 35  1  0  0  0  0
 37 36  1  0  0  0  0
 39 40  1  0  0  0  0
 40 36  1  0  0  0  0
 41  2  1  0  0  0  0
 42 41  1  0  0  0  0
 43 42  1  0  0  0  0
 44 43  1  0  0  0  0
 45 44  1  0  0  0  0
 46 49  1  0  0  0  0
 46 45  1  0  0  0  0
 47 50  1  0  0  0  0
 47 48  1  0  0  0  0
 48 49  1  0  0  0  0
 50 52  1  0  0  0  0
 50 46  1  0  0  0  0
 51 52  1  0  0  0  0
 52 53  1  0  0  0  0
 54 49  1  0  0  0  0
 54 55  1  0  0  0  0
M  END
>  <MODEL>
5

>  <REMARK>
 VINA RESULT:      -7.4      3.822      8.594
  Name = 
  19 active torsions:
  status: ('A' for Active; 'I' for Inactive)
    1  A    between atoms: C_2  and  O_46
    2  A    between atoms: O_4  and  C_23
    3  A    between atoms: C_5  and  N_10
    4  A    between atoms: C_5  and  C_50
    5  A    between atoms: C_7  and  O_35
    6  A    between atoms: C_7  and  C_49
    7  A    between atoms: C_9  and  C_54
    8  A    between atoms: N_11  and  C_32
    9  A    between atoms: C_13  and  C_50
   10  A    between atoms: C_15  and  C_21
   11  A    between atoms: N_18  and  C_39
   12  A    between atoms: N_18  and  O_46
   13  A    between atoms: O_20  and  N_48
   14  A    between atoms: O_20  and  C_54
   15  A    between atoms: C_26  and  C_51
   16  A    between atoms: C_32  and  C_34
   17  A    between atoms: N_33  and  C_45
   18  A    between atoms: C_34  and  N_48
   19  A    between atoms: O_35  and  C_51
                            x       y       z     vdW  Elec       q    Type
                         _______ _______ _______ _____ _____    ______ ____

>  <TORSDO>
F 19

$$$$
=
 OpenBabel11042410163D

 55 61  0  0  1  0  0  0  0  0999 V2000
  185.4420  178.5550  146.3330 C   0  0  0  0  0  2  0  0  0  0  0  0
  188.2300  177.7540  142.4200 C   0  0  0  0  0  0  0  0  0  0  0  0
  187.0590  178.2460  142.9140 N   0  0  0  0  0  0  0  0  0  0  0  0
  189.0970  177.3540  143.4440 C   0  0  0  0  0  0  0  0  0  0  0  0
  188.4270  177.5510  144.6400 C   0  0  0  0  0  0  0  0  0  0  0  0
  187.1850  178.0840  144.2490 C   0  0  0  0  0  0  0  0  0  0  0  0
  190.1540  176.7060  146.3430 C   0  0  0  0  0  1  0  0  0  0  0  0
  188.1830  177.2940  148.4550 O   0  0  0  0  0  1  0  0  0  0  0  0
  186.3470  178.3070  145.2930 C   0  0  0  0  0  0  0  0  0  0  0  0
  186.6970  178.0370  146.6840 C   0  0  0  0  0  0  0  0  0  0  0  0
  188.8110  177.2700  146.0280 C   0  0  0  0  0  0  0  0  0  0  0  0
  187.8940  177.5320  147.1160 C   0  0  0  0  0  0  0  0  0  0  0  0
  190.4430  176.7300  143.2610 C   0  0  0  0  0  2  0  0  0  0  0  0
  191.4990  177.8060  143.0950 C   0  0  0  0  0  1  0  0  0  0  0  0
  185.8520  178.6010  142.1390 C   0  0  2  0  0  3  0  0  0  0  0  0
  185.4590  180.0670  142.3020 C   0  0  0  0  0  1  0  0  0  0  0  0
  184.6500  177.6760  142.3880 C   0  0  0  0  0  2  0  0  0  0  0  0
  181.7190  179.3310  144.1560 C   0  0  0  0  0  3  0  0  0  0  0  0
  183.3420  178.3810  142.6380 C   0  0  0  0  0  0  0  0  0  0  0  0
  180.8650  179.5230  143.1150 N   0  0  0  0  0  0  0  0  0  0  0  0
  182.9700  178.7540  143.9360 C   0  0  0  0  0  3  0  0  0  0  0  0
  182.4480  178.5980  141.5770 C   0  0  0  0  0  0  0  0  0  0  0  0
  181.2010  179.1750  141.8440 C   0  0  0  0  0  3  0  0  0  0  0  0
  182.8200  178.2650  140.2360 N   0  0  0  0  0  2  0  0  0  0  0  0
  181.8960  178.0310  139.2710 O   0  0  0  0  0  0  0  0  0  0  0  0
  182.2070  178.9330  138.2490 C   0  0  1  0  0  3  0  0  0  0  0  0
  180.9130  179.5330  136.3630 C   0  0  2  0  0  0  0  0  0  0  0  0
  181.1360  179.7020  134.9950 O   0  0  0  0  0  1  0  0  0  0  0  0
  181.1700  180.6920  137.2950 C   0  0  2  0  0  3  0  0  0  0  0  0
  181.7250  178.4030  136.9060 C   0  0  2  0  0  3  0  0  0  0  0  0
  181.6220  180.1850  138.5220 O   0  0  0  0  0  0  0  0  0  0  0  0
  180.2060  178.2790  136.8490 C   0  0  2  0  0  3  0  0  0  0  0  0
  179.8440  177.4740  135.7680 O   0  0  0  0  0  1  0  0  0  0  0  0
  179.8990  181.4870  137.5230 C   0  0  0  0  0  2  0  0  0  0  0  0
  180.1780  182.6640  138.2450 O   0  0  0  0  0  0  0  0  0  0  0  0
  179.9810  183.8000  137.4180 C   0  0  0  0  0  0  0  0  0  0  0  0
  181.3390  184.4150  137.1350 C   0  0  0  0  0  1  0  0  0  0  0  0
  179.3790  183.4030  136.0740 C   0  0  0  0  0  1  0  0  0  0  0  0
  179.2320  186.1010  137.4140 O   0  0  0  0  0  1  0  0  0  0  0  0
  179.1020  184.8750  138.0740 C   0  0  0  0  0  2  0  0  0  0  0  0
  188.5410  177.6120  140.9640 C   0  0  0  0  0  2  0  0  0  0  0  0
  188.8080  178.8670  140.4170 O   0  0  0  0  0  0  0  0  0  0  0  0
  188.9500  178.6380  139.0900 N   0  0  0  0  0  2  0  0  0  0  0  0
  189.4010  177.2650  138.9470 C   0  0  0  0  0  2  0  0  0  0  0  0
  188.3660  176.4590  138.1600 C   0  0  0  0  0  2  0  0  0  0  0  0
  188.9240  175.7690  136.9840 N   0  0  0  0  0  0  0  0  0  0  0  0
  190.7050  176.2410  135.0020 S   0  0  0  0  0  0  0  0  0  0  0  0
  189.0540  175.6390  134.5960 C   0  0  0  0  0  2  0  0  0  0  0  0
  188.1750  176.0430  135.7510 C   0  0  2  0  0  3  0  0  0  0  0  0
  190.3600  176.0430  136.7930 C   0  0  2  0  0  3  0  0  0  0  0  0
  191.4290  174.0030  136.2570 C   0  0  0  0  0  1  0  0  0  0  0  0
  191.1800  174.9480  137.3350 N   0  0  0  0  0  0  0  0  0  0  0  0
  192.4930  175.4500  137.7070 C   0  0  0  0  0  1  0  0  0  0  0  0
  187.8520  177.4020  135.6230 O   0  0  0  0  0  0  0  0  0  0  0  0
  186.8980  177.4500  134.6030 C   0  0  0  0  0  1  0  0  0  0  0  0
  1 10  1  0  0  0  0
  2  3  1  0  0  0  0
  2  4  2  0  0  0  0
  3  6  1  0  0  0  0
  4  5  1  0  0  0  0
  5 11  1  0  0  0  0
  6  5  2  0  0  0  0
  6  9  1  0  0  0  0
  9  1  1  0  0  0  0
  9 10  2  0  0  0  0
 10 12  1  0  0  0  0
 11  7  1  0  0  0  0
 11 12  2  0  0  0  0
 12  8  1  0  0  0  0
 13  4  1  0  0  0  0
 14 13  1  0  0  0  0
 15 16  1  1  0  0  0
 15 17  1  0  0  0  0
 15  3  1  0  0  0  0
 17 19  1  0  0  0  0
 19 21  2  0  0  0  0
 20 18  2  0  0  0  0
 21 18  1  0  0  0  0
 22 23  2  0  0  0  0
 22 19  1  0  0  0  0
 23 20  1  0  0  0  0
 24 22  1  0  0  0  0
 25 24  1  0  0  0  0
 26 31  1  0  0  0  0
 26 25  1  1  0  0  0
 27 28  1  6  0  0  0
 27 32  1  0  0  0  0
 27 30  1  0  0  0  0
 27 29  1  0  0  0  0
 29 34  1  1  0  0  0
 29 31  1  0  0  0  0
 30 26  1  0  0  0  0
 32 30  1  0  0  0  0
 33 32  1  0  0  0  0
 34 35  1  0  0  0  0
 36 40  1  0  0  0  0
 36 35  1  0  0  0  0
 37 36  1  0  0  0  0
 38 36  1  0  0  0  0
 39 40  1  0  0  0  0
 41  2  1  0  0  0  0
 42 41  1  0  0  0  0
 43 42  1  0  0  0  0
 44 43  1  0  0  0  0
 45 44  1  0  0  0  0
 46 45  1  0  0  0  0
 47 50  1  0  0  0  0
 48 47  1  0  0  0  0
 48 49  1  0  0  0  0
 49 46  1  0  0  0  0
 50 46  1  0  0  0  0
 50 52  1  0  0  0  0
 51 52  1  0  0  0  0
 52 53  1  0  0  0  0
 54 49  1  0  0  0  0
 55 54  1  0  0  0  0
M  END
>  <MODEL>
6

>  <REMARK>
 VINA RESULT:      -7.0      3.765     10.347
  Name = 
  19 active torsions:
  status: ('A' for Active; 'I' for Inactive)
    1  A    between atoms: C_2  and  O_46
    2  A    between atoms: O_4  and  C_23
    3  A    between atoms: C_5  and  N_10
    4  A    between atoms: C_5  and  C_50
    5  A    between atoms: C_7  and  O_35
    6  A    between atoms: C_7  and  C_49
    7  A    between atoms: C_9  and  C_54
    8  A    between atoms: N_11  and  C_32
    9  A    between atoms: C_13  and  C_50
   10  A    between atoms: C_15  and  C_21
   11  A    between atoms: N_18  and  C_39
   12  A    between atoms: N_18  and  O_46
   13  A    between atoms: O_20  and  N_48
   14  A    between atoms: O_20  and  C_54
   15  A    between atoms: C_26  and  C_51
   16  A    between atoms: C_32  and  C_34
   17  A    between atoms: N_33  and  C_45
   18  A    between atoms: C_34  and  N_48
   19  A    between atoms: O_35  and  C_51
                            x       y       z     vdW  Elec       q    Type
                         _______ _______ _______ _____ _____    ______ ____

>  <TORSDO>
F 19

$$$$
=
 OpenBabel11042410163D

 55 61  0  0  1  0  0  0  0  0999 V2000
  185.5380  178.0980  143.3210 C   0  0  0  0  0  2  0  0  0  0  0  0
  190.2740  177.1610  142.6790 C   0  0  0  0  0  0  0  0  0  0  0  0
  189.0630  177.4030  142.1020 N   0  0  0  0  0  0  0  0  0  0  0  0
  190.2230  177.3050  144.0710 C   0  0  0  0  0  0  0  0  0  0  0  0
  188.9110  177.5990  144.3980 C   0  0  0  0  0  0  0  0  0  0  0  0
  188.2510  177.6320  143.1560 C   0  0  0  0  0  0  0  0  0  0  0  0
  189.0410  177.7540  146.9580 C   0  0  0  0  0  1  0  0  0  0  0  0
  186.1380  178.2700  146.9560 O   0  0  0  0  0  1  0  0  0  0  0  0
  186.9180  177.8640  143.2650 C   0  0  0  0  0  0  0  0  0  0  0  0
  186.2330  178.0720  144.5380 C   0  0  0  0  0  0  0  0  0  0  0  0
  188.2530  177.8070  145.6930 C   0  0  0  0  0  0  0  0  0  0  0  0
  186.8320  178.0630  145.7700 C   0  0  0  0  0  0  0  0  0  0  0  0
  191.3550  177.0700  145.0190 C   0  0  0  0  0  2  0  0  0  0  0  0
  191.6810  175.5910  145.0860 C   0  0  0  0  0  1  0  0  0  0  0  0
  188.6980  177.1840  140.6870 C   0  0  2  0  0  3  0  0  0  0  0  0
  189.5450  176.1010  140.0230 C   0  0  0  0  0  1  0  0  0  0  0  0
  188.6740  178.4640  139.8380 C   0  0  0  0  0  2  0  0  0  0  0  0
  189.0170  177.9480  136.0860 C   0  0  0  0  0  3  0  0  0  0  0  0
  188.3350  178.2610  138.3830 C   0  0  0  0  0  0  0  0  0  0  0  0
  187.7200  178.0560  135.6910 N   0  0  0  0  0  0  0  0  0  0  0  0
  189.3470  178.0520  137.4380 C   0  0  0  0  0  3  0  0  0  0  0  0
  187.0010  178.3590  137.9540 C   0  0  0  0  0  0  0  0  0  0  0  0
  186.7160  178.2540  136.5870 C   0  0  0  0  0  3  0  0  0  0  0  0
  185.9440  178.5290  138.9030 N   0  0  0  0  0  2  0  0  0  0  0  0
  184.9460  179.4280  138.7140 O   0  0  0  0  0  0  0  0  0  0  0  0
  184.0130  179.1460  139.7160 C   0  0  1  0  0  3  0  0  0  0  0  0
  181.7450  178.5180  139.4880 C   0  0  2  0  0  0  0  0  0  0  0  0
  180.5310  178.8790  140.0760 O   0  0  0  0  0  1  0  0  0  0  0  0
  182.5890  177.4540  140.1470 C   0  0  2  0  0  3  0  0  0  0  0  0
  182.6460  179.7010  139.3420 C   0  0  2  0  0  3  0  0  0  0  0  0
  183.9400  177.7550  139.9230 O   0  0  0  0  0  0  0  0  0  0  0  0
  182.0750  179.0290  138.0960 C   0  0  2  0  0  3  0  0  0  0  0  0
  181.0210  179.7950  137.5960 O   0  0  0  0  0  1  0  0  0  0  0  0
  182.2790  176.0890  139.5630 C   0  0  0  0  0  2  0  0  0  0  0  0
  180.8970  175.8250  139.6370 O   0  0  0  0  0  0  0  0  0  0  0  0
  180.4840  175.0790  138.5020 C   0  0  0  0  0  0  0  0  0  0  0  0
  181.7250  174.6650  137.7350 C   0  0  0  0  0  1  0  0  0  0  0  0
  179.7660  173.8000  138.9170 C   0  0  0  0  0  1  0  0  0  0  0  0
  180.2970  176.2950  136.4180 O   0  0  0  0  0  1  0  0  0  0  0  0
  179.5860  175.8840  137.5500 C   0  0  0  0  0  2  0  0  0  0  0  0
  191.5010  176.7460  141.9290 C   0  0  0  0  0  2  0  0  0  0  0  0
  192.3150  177.8570  141.7110 O   0  0  0  0  0  0  0  0  0  0  0  0
  192.2950  178.0380  140.3690 N   0  0  0  0  0  2  0  0  0  0  0  0
  193.1550  177.0170  139.7960 C   0  0  0  0  0  2  0  0  0  0  0  0
  192.7460  176.7500  138.3460 C   0  0  0  0  0  2  0  0  0  0  0  0
  193.2110  175.4500  137.8320 N   0  0  0  0  0  0  0  0  0  0  0  0
  193.6270  174.2340  135.4500 S   0  0  0  0  0  0  0  0  0  0  0  0
  192.6510  173.4040  136.7190 C   0  0  0  0  0  2  0  0  0  0  0  0
  192.1160  174.4980  137.6060 C   0  0  2  0  0  3  0  0  0  0  0  0
  194.0440  175.5830  136.6220 C   0  0  2  0  0  3  0  0  0  0  0  0
  195.7390  174.2060  137.5290 C   0  0  0  0  0  1  0  0  0  0  0  0
  195.4750  175.5180  136.9590 N   0  0  0  0  0  0  0  0  0  0  0  0
  196.2730  175.5680  135.7440 C   0  0  0  0  0  1  0  0  0  0  0  0
  191.0190  175.1000  136.9730 O   0  0  0  0  0  0  0  0  0  0  0  0
  190.0990  174.0650  136.7870 C   0  0  0  0  0  1  0  0  0  0  0  0
  1 10  1  0  0  0  0
  2  4  2  0  0  0  0
  3  2  1  0  0  0  0
  3  6  1  0  0  0  0
  4  5  1  0  0  0  0
  4 13  1  0  0  0  0
  5 11  1  0  0  0  0
  6  9  1  0  0  0  0
  6  5  2  0  0  0  0
  9  1  1  0  0  0  0
  9 10  2  0  0  0  0
 10 12  1  0  0  0  0
 11 12  2  0  0  0  0
 11  7  1  0  0  0  0
 12  8  1  0  0  0  0
 13 14  1  0  0  0  0
 15 16  1  6  0  0  0
 15  3  1  0  0  0  0
 17 15  1  0  0  0  0
 18 21  1  0  0  0  0
 19 17  1  0  0  0  0
 20 18  2  0  0  0  0
 20 23  1  0  0  0  0
 21 19  2  0  0  0  0
 22 19  1  0  0  0  0
 22 24  1  0  0  0  0
 23 22  2  0  0  0  0
 25 24  1  0  0  0  0
 26 25  1  6  0  0  0
 26 31  1  0  0  0  0
 27 28  1  1  0  0  0
 27 29  1  0  0  0  0
 29 34  1  6  0  0  0
 30 27  1  0  0  0  0
 30 26  1  0  0  0  0
 31 29  1  0  0  0  0
 32 30  1  0  0  0  0
 32 27  1  0  0  0  0
 33 32  1  0  0  0  0
 34 35  1  0  0  0  0
 36 38  1  0  0  0  0
 36 35  1  0  0  0  0
 37 36  1  0  0  0  0
 39 40  1  0  0  0  0
 40 36  1  0  0  0  0
 41  2  1  0  0  0  0
 42 41  1  0  0  0  0
 43 42  1  0  0  0  0
 44 43  1  0  0  0  0
 45 44  1  0  0  0  0
 46 45  1  0  0  0  0
 47 50  1  0  0  0  0
 47 48  1  0  0  0  0
 48 49  1  0  0  0  0
 49 46  1  0  0  0  0
 50 52  1  0  0  0  0
 50 46  1  0  0  0  0
 52 51  1  0  0  0  0
 53 52  1  0  0  0  0
 54 49  1  0  0  0  0
 55 54  1  0  0  0  0
M  END
>  <MODEL>
7

>  <REMARK>
 VINA RESULT:      -6.9      3.407      9.946
  Name = 
  19 active torsions:
  status: ('A' for Active; 'I' for Inactive)
    1  A    between atoms: C_2  and  O_46
    2  A    between atoms: O_4  and  C_23
    3  A    between atoms: C_5  and  N_10
    4  A    between atoms: C_5  and  C_50
    5  A    between atoms: C_7  and  O_35
    6  A    between atoms: C_7  and  C_49
    7  A    between atoms: C_9  and  C_54
    8  A    between atoms: N_11  and  C_32
    9  A    between atoms: C_13  and  C_50
   10  A    between atoms: C_15  and  C_21
   11  A    between atoms: N_18  and  C_39
   12  A    between atoms: N_18  and  O_46
   13  A    between atoms: O_20  and  N_48
   14  A    between atoms: O_20  and  C_54
   15  A    between atoms: C_26  and  C_51
   16  A    between atoms: C_32  and  C_34
   17  A    between atoms: N_33  and  C_45
   18  A    between atoms: C_34  and  N_48
   19  A    between atoms: O_35  and  C_51
                            x       y       z     vdW  Elec       q    Type
                         _______ _______ _______ _____ _____    ______ ____

>  <TORSDO>
F 19

$$$$
=
 OpenBabel11042410163D

 55 61  0  0  1  0  0  0  0  0999 V2000
  186.1560  178.5910  146.5570 C   0  0  0  0  0  2  0  0  0  0  0  0
  188.6150  177.4210  142.5190 C   0  0  0  0  0  0  0  0  0  0  0  0
  187.4990  177.9870  143.0610 N   0  0  0  0  0  0  0  0  0  0  0  0
  189.5450  177.0640  143.5030 C   0  0  0  0  0  0  0  0  0  0  0  0
  188.9730  177.3670  144.7270 C   0  0  0  0  0  0  0  0  0  0  0  0
  187.7220  177.9140  144.3910 C   0  0  0  0  0  0  0  0  0  0  0  0
  190.7990  176.5840  146.3550 C   0  0  0  0  0  1  0  0  0  0  0  0
  189.0120  177.3870  148.5580 O   0  0  0  0  0  1  0  0  0  0  0  0
  186.9720  178.2390  145.4740 C   0  0  0  0  0  0  0  0  0  0  0  0
  187.4180  178.0550  146.8520 C   0  0  0  0  0  0  0  0  0  0  0  0
  189.4520  177.1710  146.1000 C   0  0  0  0  0  0  0  0  0  0  0  0
  188.6290  177.5400  147.2310 C   0  0  0  0  0  0  0  0  0  0  0  0
  190.8540  176.3820  143.2660 C   0  0  0  0  0  2  0  0  0  0  0  0
  191.7290  177.2310  142.3650 C   0  0  0  0  0  1  0  0  0  0  0  0
  186.2480  178.3280  142.3520 C   0  0  2  0  0  3  0  0  0  0  0  0
  185.9370  179.8220  142.3970 C   0  0  0  0  0  1  0  0  0  0  0  0
  185.0310  177.4980  142.7900 C   0  0  0  0  0  2  0  0  0  0  0  0
  182.1190  179.5130  144.1710 C   0  0  0  0  0  3  0  0  0  0  0  0
  183.7360  178.2620  142.8840 C   0  0  0  0  0  0  0  0  0  0  0  0
  181.2790  179.5210  143.1000 N   0  0  0  0  0  0  0  0  0  0  0  0
  183.3590  178.8810  144.0820 C   0  0  0  0  0  3  0  0  0  0  0  0
  182.8570  178.2910  141.7880 C   0  0  0  0  0  0  0  0  0  0  0  0
  181.6200  178.9320  141.9230 C   0  0  0  0  0  3  0  0  0  0  0  0
  183.2360  177.7030  140.5400 N   0  0  0  0  0  2  0  0  0  0  0  0
  182.3270  177.4200  139.5730 O   0  0  0  0  0  0  0  0  0  0  0  0
  182.7070  178.2040  138.4800 C   0  0  1  0  0  3  0  0  0  0  0  0
  181.4740  178.7200  136.5300 C   0  0  2  0  0  0  0  0  0  0  0  0
  181.7190  178.7510  135.1560 O   0  0  0  0  0  1  0  0  0  0  0  0
  181.8030  179.9370  137.3600 C   0  0  2  0  0  3  0  0  0  0  0  0
  182.2020  177.5900  137.1820 C   0  0  2  0  0  3  0  0  0  0  0  0
  182.2080  179.5120  138.6330 O   0  0  0  0  0  0  0  0  0  0  0  0
  180.6780  177.5650  137.1150 C   0  0  2  0  0  3  0  0  0  0  0  0
  180.2710  176.6930  136.1040 O   0  0  0  0  0  1  0  0  0  0  0  0
  180.5870  180.8340  137.4980 C   0  0  0  0  0  2  0  0  0  0  0  0
  180.5450  181.7710  136.4470 O   0  0  0  0  0  0  0  0  0  0  0  0
  180.0330  183.0070  136.9190 C   0  0  0  0  0  0  0  0  0  0  0  0
  178.9320  183.4510  135.9740 C   0  0  0  0  0  1  0  0  0  0  0  0
  179.4030  182.8510  138.2980 C   0  0  0  0  0  1  0  0  0  0  0  0
  180.4990  185.3820  136.8990 O   0  0  0  0  0  1  0  0  0  0  0  0
  181.0930  184.1170  136.9650 C   0  0  0  0  0  2  0  0  0  0  0  0
  188.8100  177.1660  141.0580 C   0  0  0  0  0  2  0  0  0  0  0  0
  189.2620  178.3300  140.4360 O   0  0  0  0  0  0  0  0  0  0  0  0
  188.4490  178.4830  139.3630 N   0  0  0  0  0  2  0  0  0  0  0  0
  188.5630  177.2680  138.5740 C   0  0  0  0  0  2  0  0  0  0  0  0
  189.0660  177.6090  137.1710 C   0  0  0  0  0  2  0  0  0  0  0  0
  189.6940  176.4710  136.4760 N   0  0  0  0  0  0  0  0  0  0  0  0
  190.4020  173.9100  136.9930 S   0  0  0  0  0  0  0  0  0  0  0  0
  191.6040  175.0410  136.2640 C   0  0  0  0  0  2  0  0  0  0  0  0
  191.1510  176.4260  136.6510 C   0  0  2  0  0  3  0  0  0  0  0  0
  189.0840  175.1770  136.8390 C   0  0  2  0  0  3  0  0  0  0  0  0
  188.5420  173.4690  135.2980 C   0  0  0  0  0  1  0  0  0  0  0  0
  188.1080  174.7530  135.8240 N   0  0  0  0  0  0  0  0  0  0  0  0
  186.8240  174.4880  136.4530 C   0  0  0  0  0  1  0  0  0  0  0  0
  191.5290  176.6730  137.9790 O   0  0  0  0  0  0  0  0  0  0  0  0
  192.8030  176.1140  138.0990 C   0  0  0  0  0  1  0  0  0  0  0  0
  1 10  1  0  0  0  0
  2  3  1  0  0  0  0
  2  4  2  0  0  0  0
  3  6  1  0  0  0  0
  4  5  1  0  0  0  0
  5 11  1  0  0  0  0
  6  5  2  0  0  0  0
  6  9  1  0  0  0  0
  9  1  1  0  0  0  0
  9 10  2  0  0  0  0
 10 12  1  0  0  0  0
 11  7  1  0  0  0  0
 11 12  2  0  0  0  0
 12  8  1  0  0  0  0
 13  4  1  0  0  0  0
 14 13  1  0  0  0  0
 15 16  1  1  0  0  0
 15 17  1  0  0  0  0
 15  3  1  0  0  0  0
 17 19  1  0  0  0  0
 19 21  2  0  0  0  0
 20 18  2  0  0  0  0
 21 18  1  0  0  0  0
 22 23  2  0  0  0  0
 22 19  1  0  0  0  0
 23 20  1  0  0  0  0
 24 22  1  0  0  0  0
 25 24  1  0  0  0  0
 26 31  1  0  0  0  0
 26 25  1  1  0  0  0
 27 28  1  6  0  0  0
 27 32  1  0  0  0  0
 27 30  1  0  0  0  0
 27 29  1  0  0  0  0
 29 34  1  1  0  0  0
 29 31  1  0  0  0  0
 30 26  1  0  0  0  0
 32 30  1  0  0  0  0
 33 32  1  0  0  0  0
 35 36  1  0  0  0  0
 35 34  1  0  0  0  0
 36 40  1  0  0  0  0
 36 38  1  0  0  0  0
 37 36  1  0  0  0  0
 39 40  1  0  0  0  0
 41  2  1  0  0  0  0
 42 41  1  0  0  0  0
 43 42  1  0  0  0  0
 44 43  1  0  0  0  0
 45 44  1  0  0  0  0
 46 49  1  0  0  0  0
 46 50  1  0  0  0  0
 46 45  1  0  0  0  0
 48 49  1  0  0  0  0
 48 47  1  0  0  0  0
 49 54  1  0  0  0  0
 50 47  1  0  0  0  0
 51 52  1  0  0  0  0
 52 53  1  0  0  0  0
 52 50  1  0  0  0  0
 54 55  1  0  0  0  0
M  END
>  <MODEL>
8

>  <REMARK>
 VINA RESULT:      -6.8      3.686     10.093
  Name = 
  19 active torsions:
  status: ('A' for Active; 'I' for Inactive)
    1  A    between atoms: C_2  and  O_46
    2  A    between atoms: O_4  and  C_23
    3  A    between atoms: C_5  and  N_10
    4  A    between atoms: C_5  and  C_50
    5  A    between atoms: C_7  and  O_35
    6  A    between atoms: C_7  and  C_49
    7  A    between atoms: C_9  and  C_54
    8  A    between atoms: N_11  and  C_32
    9  A    between atoms: C_13  and  C_50
   10  A    between atoms: C_15  and  C_21
   11  A    between atoms: N_18  and  C_39
   12  A    between atoms: N_18  and  O_46
   13  A    between atoms: O_20  and  N_48
   14  A    between atoms: O_20  and  C_54
   15  A    between atoms: C_26  and  C_51
   16  A    between atoms: C_32  and  C_34
   17  A    between atoms: N_33  and  C_45
   18  A    between atoms: C_34  and  N_48
   19  A    between atoms: O_35  and  C_51
                            x       y       z     vdW  Elec       q    Type
                         _______ _______ _______ _____ _____    ______ ____

>  <TORSDO>
F 19

$$$$
=
 OpenBabel11042410163D

 55 61  0  0  1  0  0  0  0  0999 V2000
  191.6760  176.8440  144.7890 C   0  0  0  0  0  2  0  0  0  0  0  0
  186.9480  177.3580  143.7360 C   0  0  0  0  0  0  0  0  0  0  0  0
  188.2000  177.0640  143.2830 N   0  0  0  0  0  0  0  0  0  0  0  0
  186.9240  177.5220  145.1260 C   0  0  0  0  0  0  0  0  0  0  0  0
  188.2270  177.3780  145.5710 C   0  0  0  0  0  0  0  0  0  0  0  0
  188.9590  177.1130  144.3990 C   0  0  0  0  0  0  0  0  0  0  0  0
  187.9560  177.7730  148.0940 C   0  0  0  0  0  1  0  0  0  0  0  0
  190.8740  177.4300  148.3420 O   0  0  0  0  0  1  0  0  0  0  0  0
  190.2920  176.9850  144.6190 C   0  0  0  0  0  0  0  0  0  0  0  0
  190.9100  177.0940  145.9360 C   0  0  0  0  0  0  0  0  0  0  0  0
  188.8170  177.4920  146.9100 C   0  0  0  0  0  0  0  0  0  0  0  0
  190.2410  177.3370  147.1070 C   0  0  0  0  0  0  0  0  0  0  0  0
  185.7300  177.8930  145.9460 C   0  0  0  0  0  2  0  0  0  0  0  0
  185.6780  179.3960  146.1400 C   0  0  0  0  0  1  0  0  0  0  0  0
  188.6360  176.9920  141.8730 C   0  0  2  0  0  3  0  0  0  0  0  0
  190.0830  176.5250  141.7290 C   0  0  0  0  0  1  0  0  0  0  0  0
  188.3900  178.2810  141.0730 C   0  0  0  0  0  2  0  0  0  0  0  0
  185.7960  178.2650  138.2940 C   0  0  0  0  0  3  0  0  0  0  0  0
  187.7280  178.0850  139.7330 C   0  0  0  0  0  0  0  0  0  0  0  0
  186.4580  177.5740  137.3270 N   0  0  0  0  0  0  0  0  0  0  0  0
  186.4180  178.5290  139.5140 C   0  0  0  0  0  3  0  0  0  0  0  0
  188.3960  177.3820  138.7160 C   0  0  0  0  0  0  0  0  0  0  0  0
  187.7310  177.1340  137.5100 C   0  0  0  0  0  3  0  0  0  0  0  0
  189.7490  176.9540  138.8990 N   0  0  0  0  0  2  0  0  0  0  0  0
  190.1460  175.6870  138.6210 O   0  0  0  0  0  0  0  0  0  0  0  0
  190.9950  175.8110  137.5160 C   0  0  1  0  0  3  0  0  0  0  0  0
  193.3550  175.9460  137.4730 C   0  0  2  0  0  0  0  0  0  0  0  0
  194.3120  176.7330  136.8300 O   0  0  0  0  0  1  0  0  0  0  0  0
  192.8210  174.7210  136.7710 C   0  0  2  0  0  3  0  0  0  0  0  0
  192.1490  176.7510  137.8330 C   0  0  2  0  0  3  0  0  0  0  0  0
  191.4810  174.5430  137.1440 O   0  0  0  0  0  0  0  0  0  0  0  0
  193.0470  176.2050  138.9390 C   0  0  2  0  0  3  0  0  0  0  0  0
  193.8540  177.2310  139.4320 O   0  0  0  0  0  1  0  0  0  0  0  0
  193.6160  173.4910  137.1640 C   0  0  0  0  0  2  0  0  0  0  0  0
  194.1890  172.8910  136.0260 O   0  0  0  0  0  0  0  0  0  0  0  0
  195.5340  172.5260  136.2940 C   0  0  0  0  0  0  0  0  0  0  0  0
  196.1890  172.1480  134.9780 C   0  0  0  0  0  1  0  0  0  0  0  0
  196.3190  173.7010  136.8640 C   0  0  0  0  0  1  0  0  0  0  0  0
  196.9840  171.0920  137.5960 O   0  0  0  0  0  1  0  0  0  0  0  0
  195.6510  171.3240  137.2430 C   0  0  0  0  0  2  0  0  0  0  0  0
  185.7500  177.5330  142.8570 C   0  0  0  0  0  2  0  0  0  0  0  0
  185.2180  178.8100  143.0380 O   0  0  0  0  0  0  0  0  0  0  0  0
  184.7380  179.1560  141.8190 N   0  0  0  0  0  2  0  0  0  0  0  0
  183.3870  178.6290  141.7370 C   0  0  0  0  0  2  0  0  0  0  0  0
  182.8300  178.8520  140.3300 C   0  0  0  0  0  2  0  0  0  0  0  0
  181.3660  178.7010  140.2420 N   0  0  0  0  0  0  0  0  0  0  0  0
  179.4020  177.2250  141.3770 S   0  0  0  0  0  0  0  0  0  0  0  0
  179.5160  177.3320  139.5800 C   0  0  0  0  0  2  0  0  0  0  0  0
  180.9540  177.6720  139.2800 C   0  0  2  0  0  3  0  0  0  0  0  0
  180.7400  178.4660  141.5570 C   0  0  2  0  0  3  0  0  0  0  0  0
  179.7720  180.5460  140.9860 C   0  0  0  0  0  1  0  0  0  0  0  0
  180.1850  179.7140  142.1050 N   0  0  0  0  0  0  0  0  0  0  0  0
  178.9610  179.4310  142.8370 C   0  0  0  0  0  1  0  0  0  0  0  0
  181.7280  176.5090  139.3890 O   0  0  0  0  0  0  0  0  0  0  0  0
  181.2040  175.6360  138.4320 C   0  0  0  0  0  1  0  0  0  0  0  0
  1 10  1  0  0  0  0
  2  4  2  0  0  0  0
  3  2  1  0  0  0  0
  3  6  1  0  0  0  0
  4  5  1  0  0  0  0
  4 13  1  0  0  0  0
  5 11  1  0  0  0  0
  6  9  1  0  0  0  0
  6  5  2  0  0  0  0
  9  1  1  0  0  0  0
  9 10  2  0  0  0  0
 10 12  1  0  0  0  0
 11 12  2  0  0  0  0
 11  7  1  0  0  0  0
 12  8  1  0  0  0  0
 13 14  1  0  0  0  0
 15 16  1  1  0  0  0
 15  3  1  0  0  0  0
 17 15  1  0  0  0  0
 18 21  1  0  0  0  0
 19 17  1  0  0  0  0
 20 23  1  0  0  0  0
 20 18  2  0  0  0  0
 21 19  2  0  0  0  0
 22 24  1  0  0  0  0
 22 19  1  0  0  0  0
 23 22  2  0  0  0  0
 25 24  1  0  0  0  0
 26 30  1  0  0  0  0
 26 25  1  1  0  0  0
 27 28  1  6  0  0  0
 27 30  1  0  0  0  0
 27 32  1  0  0  0  0
 29 31  1  0  0  0  0
 29 34  1  1  0  0  0
 29 27  1  0  0  0  0
 30 32  1  0  0  0  0
 31 26  1  0  0  0  0
 32 33  1  0  0  0  0
 35 36  1  0  0  0  0
 35 34  1  0  0  0  0
 36 38  1  0  0  0  0
 36 40  1  0  0  0  0
 37 36  1  0  0  0  0
 40 39  1  0  0  0  0
 41 42  1  0  0  0  0
 41  2  1  0  0  0  0
 43 42  1  0  0  0  0
 44 43  1  0  0  0  0
 45 44  1  0  0  0  0
 46 45  1  0  0  0  0
 46 50  1  0  0  0  0
 47 50  1  0  0  0  0
 48 47  1  0  0  0  0
 49 54  1  0  0  0  0
 49 48  1  0  0  0  0
 49 46  1  0  0  0  0
 50 52  1  0  0  0  0
 51 52  1  0  0  0  0
 52 53  1  0  0  0  0
 55 54  1  0  0  0  0
M  END
>  <MODEL>
9

>  <REMARK>
 VINA RESULT:      -6.7      1.365      2.035
  Name = 
  19 active torsions:
  status: ('A' for Active; 'I' for Inactive)
    1  A    between atoms: C_2  and  O_46
    2  A    between atoms: O_4  and  C_23
    3  A    between atoms: C_5  and  N_10
    4  A    between atoms: C_5  and  C_50
    5  A    between atoms: C_7  and  O_35
    6  A    between atoms: C_7  and  C_49
    7  A    between atoms: C_9  and  C_54
    8  A    between atoms: N_11  and  C_32
    9  A    between atoms: C_13  and  C_50
   10  A    between atoms: C_15  and  C_21
   11  A    between atoms: N_18  and  C_39
   12  A    between atoms: N_18  and  O_46
   13  A    between atoms: O_20  and  N_48
   14  A    between atoms: O_20  and  C_54
   15  A    between atoms: C_26  and  C_51
   16  A    between atoms: C_32  and  C_34
   17  A    between atoms: N_33  and  C_45
   18  A    between atoms: C_34  and  N_48
   19  A    between atoms: O_35  and  C_51
                            x       y       z     vdW  Elec       q    Type
                         _______ _______ _______ _____ _____    ______ ____

>  <TORSDO>
F 19

$$$$
