=
 OpenBabel11042413113D

 32 35  0  0  1  0  0  0  0  0999 V2000
  189.6960  177.2410  147.1360 C   0  0  0  0  0  1  0  0  0  0  0  0
  188.4650  177.1980  146.2360 C   0  0  1  0  0  3  0  0  0  0  0  0
  187.4920  178.2370  146.6270 N   0  0  0  0  0  0  0  0  0  0  0  0
  187.3800  178.2260  148.0830 C   0  0  0  0  0  1  0  0  0  0  0  0
  186.1710  177.8620  146.1280 C   0  0  1  0  0  3  0  0  0  0  0  0
  185.1790  178.6740  146.7220 O   0  0  0  0  0  0  0  0  0  0  0  0
  185.5590  179.0090  145.4090 C   0  0  2  0  0  3  0  0  0  0  0  0
  182.3590  178.8630  142.6000 N   0  0  0  0  0  0  0  0  0  0  0  0
  182.1310  178.8690  144.0160 C   0  0  0  0  0  3  0  0  0  0  0  0
  184.7320  179.2350  143.0280 C   0  0  2  0  0  3  0  0  0  0  0  0
  183.1260  178.7650  144.8460 N   0  0  0  0  0  0  0  0  0  0  0  0
  186.1370  178.6680  141.0620 C   0  0  0  0  0  3  0  0  0  0  0  0
  183.5590  178.9720  142.1120 C   0  0  0  0  0  0  0  0  0  0  0  0
  184.9540  178.8000  140.1900 C   0  0  0  0  0  3  0  0  0  0  0  0
  183.7630  178.9290  140.6940 N   0  0  0  0  0  0  0  0  0  0  0  0
  186.0310  178.8240  142.3850 C   0  0  0  0  0  3  0  0  0  0  0  0
  184.5070  178.5540  144.3830 C   0  0  2  0  0  3  0  0  0  0  0  0
  188.9610  177.3980  144.8070 C   0  0  0  0  0  2  0  0  0  0  0  0
  190.4710  177.5780  144.7850 C   0  0  0  0  0  2  0  0  0  0  0  0
  191.0920  176.8440  143.6030 C   0  0  1  0  0  3  0  0  0  0  0  0
  191.8760  175.6270  144.0860 C   0  0  0  0  0  3  0  0  0  0  0  0
  191.2490  174.4500  143.7060 F   0  0  0  0  0  0  0  0  0  0  0  0
  192.0150  175.6620  145.4620 F   0  0  0  0  0  0  0  0  0  0  0  0
  190.0130  176.4300  142.6050 C   0  0  0  0  0  2  0  0  0  0  0  0
  191.7370  177.5210  141.1690 C   0  0  0  0  0  1  0  0  0  0  0  0
  190.3930  176.8130  141.1810 C   0  0  2  0  0  3  0  0  0  0  0  0
  189.3130  177.6460  140.4860 C   0  0  0  0  0  2  0  0  0  0  0  0
  189.5230  177.7710  138.9790 C   0  0  1  0  0  3  0  0  0  0  0  0
  188.6940  176.7590  138.2520 C   0  0  0  0  0  2  0  0  0  0  0  0
  187.8180  177.6310  137.4030 C   0  0  0  0  0  2  0  0  0  0  0  0
  187.7990  178.8960  138.0040 O   0  0  0  0  0  0  0  0  0  0  0  0
  189.0470  179.0710  138.5280 N   0  0  0  0  0  2  0  0  0  0  0  0
  2  3  1  0  0  0  0
  2  1  1  1  0  0  0
  3  4  1  0  0  0  0
  5  3  1  1  0  0  0
  5  6  1  0  0  0  0
  7  5  1  0  0  0  0
  7  6  1  1  0  0  0
  8  9  1  0  0  0  0
  9 11  2  0  0  0  0
 10 16  1  6  0  0  0
 10 17  1  0  0  0  0
 12 16  2  0  0  0  0
 13  8  2  0  0  0  0
 13 10  1  0  0  0  0
 14 15  2  0  0  0  0
 14 12  1  0  0  0  0
 15 13  1  0  0  0  0
 17 11  1  1  0  0  0
 17  7  1  0  0  0  0
 18  2  1  0  0  0  0
 19 18  1  0  0  0  0
 20 24  1  6  0  0  0
 20 21  1  0  0  0  0
 20 19  1  0  0  0  0
 21 23  1  0  0  0  0
 22 21  1  0  0  0  0
 26 25  1  1  0  0  0
 26 24  1  0  0  0  0
 27 26  1  0  0  0  0
 28 27  1  1  0  0  0
 29 28  1  0  0  0  0
 30 31  1  0  0  0  0
 30 29  1  0  0  0  0
 31 32  1  0  0  0  0
 32 28  1  0  0  0  0
M  END
>  <MODEL>
1

>  <REMARK>
 VINA RESULT:      -8.1      0.000      0.000
  Name = 
  11 active torsions:
  status: ('A' for Active; 'I' for Inactive)
    1  A    between atoms: C_1  and  C_10
    2  A    between atoms: C_1  and  C_16
    3  A    between atoms: C_1  and  C_22
    4  A    between atoms: N_2  and  C_11
    5  A    between atoms: N_2  and  C_20
    6  A    between atoms: C_4  and  C_7
    7  A    between atoms: C_7  and  C_23
    8  A    between atoms: C_16  and  C_25
    9  A    between atoms: C_20  and  C_25
   10  A    between atoms: C_22  and  C_23
   11  A    between atoms: C_30  and  C_32
                            x       y       z     vdW  Elec       q    Type
                         _______ _______ _______ _____ _____    ______ ____

>  <TORSDO>
F 11

$$$$
=
 OpenBabel11042413113D

 32 35  0  0  1  0  0  0  0  0999 V2000
  188.5250  177.4200  139.1320 C   0  0  0  0  0  1  0  0  0  0  0  0
  188.6220  177.5360  140.6490 C   0  0  1  0  0  3  0  0  0  0  0  0
  190.0170  177.7640  141.0710 N   0  0  0  0  0  0  0  0  0  0  0  0
  190.8930  177.3520  139.9780 C   0  0  0  0  0  1  0  0  0  0  0  0
  190.3300  176.8690  142.1830 C   0  0  1  0  0  3  0  0  0  0  0  0
  191.6930  176.9900  142.5360 O   0  0  0  0  0  0  0  0  0  0  0  0
  190.7700  177.6610  143.3600 C   0  0  2  0  0  3  0  0  0  0  0  0
  190.6970  176.4870  147.4550 N   0  0  0  0  0  0  0  0  0  0  0  0
  191.8540  176.2990  146.6290 C   0  0  0  0  0  3  0  0  0  0  0  0
  189.6520  177.7210  145.6290 C   0  0  2  0  0  3  0  0  0  0  0  0
  191.7990  176.5300  145.3510 N   0  0  0  0  0  0  0  0  0  0  0  0
  187.1900  177.8920  145.9050 C   0  0  0  0  0  3  0  0  0  0  0  0
  189.6390  177.0890  147.0020 C   0  0  0  0  0  0  0  0  0  0  0  0
  187.3420  177.6170  147.3460 C   0  0  0  0  0  3  0  0  0  0  0  0
  188.4830  177.2330  147.8380 N   0  0  0  0  0  0  0  0  0  0  0  0
  188.2530  177.8970  145.0950 C   0  0  0  0  0  3  0  0  0  0  0  0
  190.5430  176.9080  144.6820 C   0  0  2  0  0  3  0  0  0  0  0  0
  187.7120  178.6900  141.0580 C   0  0  0  0  0  2  0  0  0  0  0  0
  186.7190  178.2390  142.1180 C   0  0  0  0  0  2  0  0  0  0  0  0
  185.3320  178.8060  141.8450 C   0  0  1  0  0  3  0  0  0  0  0  0
  184.9740  178.6420  140.3700 C   0  0  0  0  0  3  0  0  0  0  0  0
  184.5530  179.8450  139.8240 F   0  0  0  0  0  0  0  0  0  0  0  0
  183.9840  177.6870  140.2220 F   0  0  0  0  0  0  0  0  0  0  0  0
  184.2920  178.1270  142.7320 C   0  0  0  0  0  2  0  0  0  0  0  0
  184.2460  179.7610  144.6160 C   0  0  0  0  0  1  0  0  0  0  0  0
  183.4450  179.1470  143.4810 C   0  0  2  0  0  3  0  0  0  0  0  0
  182.1200  178.5630  143.9800 C   0  0  0  0  0  2  0  0  0  0  0  0
  180.9000  179.1310  143.2610 C   0  0  1  0  0  3  0  0  0  0  0  0
  181.0640  179.0040  141.7780 C   0  0  0  0  0  2  0  0  0  0  0  0
  179.8910  178.1440  141.4120 C   0  0  0  0  0  2  0  0  0  0  0  0
  179.5050  177.4650  142.5750 O   0  0  0  0  0  0  0  0  0  0  0  0
  179.7240  178.3410  143.5990 N   0  0  0  0  0  2  0  0  0  0  0  0
  2  1  1  6  0  0  0
  2 18  1  0  0  0  0
  2  3  1  0  0  0  0
  4  3  1  0  0  0  0
  5  3  1  6  0  0  0
  5  6  1  0  0  0  0
  5  7  1  0  0  0  0
  7  6  1  6  0  0  0
  7 17  1  0  0  0  0
  9  8  1  0  0  0  0
 10 16  1  6  0  0  0
 10 13  1  0  0  0  0
 11  9  2  0  0  0  0
 12 14  1  0  0  0  0
 13  8  2  0  0  0  0
 13 15  1  0  0  0  0
 14 15  2  0  0  0  0
 16 12  2  0  0  0  0
 17 11  1  1  0  0  0
 17 10  1  0  0  0  0
 18 19  1  0  0  0  0
 20 19  1  6  0  0  0
 20 24  1  0  0  0  0
 21 20  1  0  0  0  0
 22 21  1  0  0  0  0
 23 21  1  0  0  0  0
 24 26  1  0  0  0  0
 26 27  1  0  0  0  0
 26 25  1  1  0  0  0
 28 32  1  0  0  0  0
 28 27  1  1  0  0  0
 29 28  1  0  0  0  0
 30 29  1  0  0  0  0
 30 31  1  0  0  0  0
 31 32  1  0  0  0  0
M  END
>  <MODEL>
2

>  <REMARK>
 VINA RESULT:      -8.0      3.344      7.828
  Name = 
  11 active torsions:
  status: ('A' for Active; 'I' for Inactive)
    1  A    between atoms: C_1  and  C_10
    2  A    between atoms: C_1  and  C_16
    3  A    between atoms: C_1  and  C_22
    4  A    between atoms: N_2  and  C_11
    5  A    between atoms: N_2  and  C_20
    6  A    between atoms: C_4  and  C_7
    7  A    between atoms: C_7  and  C_23
    8  A    between atoms: C_16  and  C_25
    9  A    between atoms: C_20  and  C_25
   10  A    between atoms: C_22  and  C_23
   11  A    between atoms: C_30  and  C_32
                            x       y       z     vdW  Elec       q    Type
                         _______ _______ _______ _____ _____    ______ ____

>  <TORSDO>
F 11

$$$$
=
 OpenBabel11042413113D

 32 35  0  0  1  0  0  0  0  0999 V2000
  182.8160  178.6650  144.3960 C   0  0  0  0  0  1  0  0  0  0  0  0
  183.9450  178.4100  143.4030 C   0  0  1  0  0  3  0  0  0  0  0  0
  183.6410  179.0230  142.0950 N   0  0  0  0  0  0  0  0  0  0  0  0
  182.2100  178.8750  141.8480 C   0  0  0  0  0  1  0  0  0  0  0  0
  184.3030  178.2520  141.0440 C   0  0  1  0  0  3  0  0  0  0  0  0
  184.1400  178.8930  139.7960 O   0  0  0  0  0  0  0  0  0  0  0  0
  185.3840  179.0620  140.4290 C   0  0  2  0  0  3  0  0  0  0  0  0
  188.7910  177.6510  138.2940 N   0  0  0  0  0  0  0  0  0  0  0  0
  187.5730  178.0160  137.6300 C   0  0  0  0  0  3  0  0  0  0  0  0
  187.8480  178.4870  140.3830 C   0  0  2  0  0  3  0  0  0  0  0  0
  186.5060  178.3010  138.3170 N   0  0  0  0  0  0  0  0  0  0  0  0
  189.0570  177.6170  142.3690 C   0  0  0  0  0  3  0  0  0  0  0  0
  188.9280  177.8020  139.5770 C   0  0  0  0  0  0  0  0  0  0  0  0
  190.2240  177.3180  141.5160 C   0  0  0  0  0  3  0  0  0  0  0  0
  190.1440  177.3980  140.2210 N   0  0  0  0  0  0  0  0  0  0  0  0
  187.9370  178.1180  141.8410 C   0  0  0  0  0  3  0  0  0  0  0  0
  186.4700  178.1840  139.7830 C   0  0  2  0  0  3  0  0  0  0  0  0
  185.2120  178.9950  144.0200 C   0  0  0  0  0  2  0  0  0  0  0  0
  186.0480  177.8990  144.6640 C   0  0  0  0  0  2  0  0  0  0  0  0
  186.6060  178.3550  146.0060 C   0  0  1  0  0  3  0  0  0  0  0  0
  185.5500  179.1400  146.7800 C   0  0  0  0  0  3  0  0  0  0  0  0
  186.1390  179.9660  147.7250 F   0  0  0  0  0  0  0  0  0  0  0  0
  184.6670  178.2730  147.3990 F   0  0  0  0  0  0  0  0  0  0  0  0
  187.0900  177.1570  146.8180 C   0  0  0  0  0  2  0  0  0  0  0  0
  188.7150  178.2650  148.3530 C   0  0  0  0  0  1  0  0  0  0  0  0
  188.5600  177.2950  147.1950 C   0  0  2  0  0  3  0  0  0  0  0  0
  189.4390  177.6930  146.0060 C   0  0  0  0  0  2  0  0  0  0  0  0
  190.9330  177.5550  146.2870 C   0  0  1  0  0  3  0  0  0  0  0  0
  191.1900  176.3730  147.1690 C   0  0  0  0  0  2  0  0  0  0  0  0
  192.0820  175.5330  146.3040 C   0  0  0  0  0  2  0  0  0  0  0  0
  191.8650  175.9380  144.9820 O   0  0  0  0  0  0  0  0  0  0  0  0
  191.6390  177.2830  145.0430 N   0  0  0  0  0  2  0  0  0  0  0  0
  2 18  1  0  0  0  0
  2  1  1  1  0  0  0
  3  2  1  0  0  0  0
  4  3  1  0  0  0  0
  5  3  1  1  0  0  0
  6  5  1  0  0  0  0
  7  6  1  6  0  0  0
  7  5  1  0  0  0  0
  8 13  2  0  0  0  0
  9  8  1  0  0  0  0
  9 11  2  0  0  0  0
 10 16  1  1  0  0  0
 13 15  1  0  0  0  0
 13 10  1  0  0  0  0
 14 12  1  0  0  0  0
 15 14  2  0  0  0  0
 16 12  2  0  0  0  0
 17 11  1  6  0  0  0
 17 10  1  0  0  0  0
 17  7  1  0  0  0  0
 18 19  1  0  0  0  0
 20 19  1  6  0  0  0
 20 21  1  0  0  0  0
 20 24  1  0  0  0  0
 21 23  1  0  0  0  0
 21 22  1  0  0  0  0
 24 26  1  0  0  0  0
 26 25  1  1  0  0  0
 27 26  1  0  0  0  0
 28 27  1  6  0  0  0
 28 29  1  0  0  0  0
 30 29  1  0  0  0  0
 31 32  1  0  0  0  0
 31 30  1  0  0  0  0
 32 28  1  0  0  0  0
M  END
>  <MODEL>
3

>  <REMARK>
 VINA RESULT:      -7.9      2.919      6.705
  Name = 
  11 active torsions:
  status: ('A' for Active; 'I' for Inactive)
    1  A    between atoms: C_1  and  C_10
    2  A    between atoms: C_1  and  C_16
    3  A    between atoms: C_1  and  C_22
    4  A    between atoms: N_2  and  C_11
    5  A    between atoms: N_2  and  C_20
    6  A    between atoms: C_4  and  C_7
    7  A    between atoms: C_7  and  C_23
    8  A    between atoms: C_16  and  C_25
    9  A    between atoms: C_20  and  C_25
   10  A    between atoms: C_22  and  C_23
   11  A    between atoms: C_30  and  C_32
                            x       y       z     vdW  Elec       q    Type
                         _______ _______ _______ _____ _____    ______ ____

>  <TORSDO>
F 11

$$$$
=
 OpenBabel11042413113D

 32 35  0  0  1  0  0  0  0  0999 V2000
  187.7980  177.5360  148.1980 C   0  0  0  0  0  1  0  0  0  0  0  0
  187.4170  177.4710  146.7220 C   0  0  1  0  0  3  0  0  0  0  0  0
  186.5890  178.6320  146.3430 N   0  0  0  0  0  0  0  0  0  0  0  0
  186.2370  179.3550  147.5620 C   0  0  0  0  0  1  0  0  0  0  0  0
  185.3230  178.1530  145.7910 C   0  0  1  0  0  3  0  0  0  0  0  0
  184.2560  178.9480  146.2640 O   0  0  0  0  0  0  0  0  0  0  0  0
  184.7030  179.2140  144.9570 C   0  0  2  0  0  3  0  0  0  0  0  0
  181.6670  178.6940  142.0130 N   0  0  0  0  0  0  0  0  0  0  0  0
  181.3700  178.7300  143.4160 C   0  0  0  0  0  3  0  0  0  0  0  0
  183.9760  179.2850  142.5340 C   0  0  2  0  0  3  0  0  0  0  0  0
  182.3290  178.7410  144.2950 N   0  0  0  0  0  0  0  0  0  0  0  0
  185.5170  178.7720  140.6570 C   0  0  0  0  0  3  0  0  0  0  0  0
  182.8740  178.8890  141.5770 C   0  0  0  0  0  0  0  0  0  0  0  0
  184.3710  178.7720  139.7280 C   0  0  0  0  0  3  0  0  0  0  0  0
  183.1500  178.8140  140.1720 N   0  0  0  0  0  0  0  0  0  0  0  0
  185.3340  178.9650  141.9670 C   0  0  0  0  0  3  0  0  0  0  0  0
  183.7440  178.6340  143.9030 C   0  0  2  0  0  3  0  0  0  0  0  0
  188.7240  177.4280  145.9350 C   0  0  0  0  0  2  0  0  0  0  0  0
  189.8820  177.0420  146.8430 C   0  0  0  0  0  2  0  0  0  0  0  0
  191.1930  177.0030  146.0680 C   0  0  1  0  0  3  0  0  0  0  0  0
  192.0880  175.8850  146.5970 C   0  0  0  0  0  3  0  0  0  0  0  0
  192.3580  174.9550  145.6050 F   0  0  0  0  0  0  0  0  0  0  0  0
  191.4880  175.2610  147.6750 F   0  0  0  0  0  0  0  0  0  0  0  0
  190.9270  176.8200  144.5760 C   0  0  0  0  0  2  0  0  0  0  0  0
  191.2590  179.2440  144.0880 C   0  0  0  0  0  1  0  0  0  0  0  0
  191.7010  177.8330  143.7420 C   0  0  2  0  0  3  0  0  0  0  0  0
  191.5970  177.5630  142.2390 C   0  0  0  0  0  2  0  0  0  0  0  0
  190.3020  176.8600  141.8390 C   0  0  1  0  0  3  0  0  0  0  0  0
  189.1990  177.8580  141.6730 C   0  0  0  0  0  2  0  0  0  0  0  0
  188.8190  177.6590  140.2360 C   0  0  0  0  0  2  0  0  0  0  0  0
  189.9180  177.0640  139.6030 O   0  0  0  0  0  0  0  0  0  0  0  0
  190.4710  176.2340  140.5360 N   0  0  0  0  0  2  0  0  0  0  0  0
  2  1  1  1  0  0  0
  3  2  1  0  0  0  0
  3  4  1  0  0  0  0
  5  6  1  0  0  0  0
  5  3  1  1  0  0  0
  7  5  1  0  0  0  0
  7  6  1  1  0  0  0
  8  9  1  0  0  0  0
  9 11  2  0  0  0  0
 10 16  1  6  0  0  0
 10 17  1  0  0  0  0
 12 16  2  0  0  0  0
 13  8  2  0  0  0  0
 13 10  1  0  0  0  0
 14 15  2  0  0  0  0
 14 12  1  0  0  0  0
 15 13  1  0  0  0  0
 17 11  1  1  0  0  0
 17  7  1  0  0  0  0
 18  2  1  0  0  0  0
 18 19  1  0  0  0  0
 20 24  1  6  0  0  0
 20 21  1  0  0  0  0
 20 19  1  0  0  0  0
 21 23  1  0  0  0  0
 22 21  1  0  0  0  0
 26 25  1  6  0  0  0
 26 24  1  0  0  0  0
 27 26  1  0  0  0  0
 28 27  1  6  0  0  0
 29 28  1  0  0  0  0
 30 29  1  0  0  0  0
 31 30  1  0  0  0  0
 31 32  1  0  0  0  0
 32 28  1  0  0  0  0
M  END
>  <MODEL>
4

>  <REMARK>
 VINA RESULT:      -7.9      1.446      2.095
  Name = 
  11 active torsions:
  status: ('A' for Active; 'I' for Inactive)
    1  A    between atoms: C_1  and  C_10
    2  A    between atoms: C_1  and  C_16
    3  A    between atoms: C_1  and  C_22
    4  A    between atoms: N_2  and  C_11
    5  A    between atoms: N_2  and  C_20
    6  A    between atoms: C_4  and  C_7
    7  A    between atoms: C_7  and  C_23
    8  A    between atoms: C_16  and  C_25
    9  A    between atoms: C_20  and  C_25
   10  A    between atoms: C_22  and  C_23
   11  A    between atoms: C_30  and  C_32
                            x       y       z     vdW  Elec       q    Type
                         _______ _______ _______ _____ _____    ______ ____

>  <TORSDO>
F 11

$$$$
=
 OpenBabel11042413113D

 32 35  0  0  1  0  0  0  0  0999 V2000
  188.1550  177.9360  139.3800 C   0  0  0  0  0  1  0  0  0  0  0  0
  188.4350  177.6030  140.8420 C   0  0  1  0  0  3  0  0  0  0  0  0
  189.8700  177.7560  141.1500 N   0  0  0  0  0  0  0  0  0  0  0  0
  190.6320  177.3130  139.9860 C   0  0  0  0  0  1  0  0  0  0  0  0
  190.2260  176.8340  142.2260 C   0  0  1  0  0  3  0  0  0  0  0  0
  191.6080  176.9200  142.5030 O   0  0  0  0  0  0  0  0  0  0  0  0
  190.7490  177.5940  143.3900 C   0  0  2  0  0  3  0  0  0  0  0  0
  190.9320  176.3150  147.4500 N   0  0  0  0  0  0  0  0  0  0  0  0
  192.0040  176.0770  146.5270 C   0  0  0  0  0  3  0  0  0  0  0  0
  189.8250  177.6640  145.7440 C   0  0  2  0  0  3  0  0  0  0  0  0
  191.8600  176.3460  145.2630 N   0  0  0  0  0  0  0  0  0  0  0  0
  187.4110  177.9830  146.2270 C   0  0  0  0  0  3  0  0  0  0  0  0
  189.8830  176.9970  147.1000 C   0  0  0  0  0  0  0  0  0  0  0  0
  187.6610  177.6590  147.6450 C   0  0  0  0  0  3  0  0  0  0  0  0
  188.8100  177.1910  148.0310 N   0  0  0  0  0  0  0  0  0  0  0  0
  188.4030  177.9430  145.3330 C   0  0  0  0  0  3  0  0  0  0  0  0
  190.5810  176.8220  144.7090 C   0  0  2  0  0  3  0  0  0  0  0  0
  187.5740  178.5450  141.6780 C   0  0  0  0  0  2  0  0  0  0  0  0
  186.6780  177.7560  142.6200 C   0  0  0  0  0  2  0  0  0  0  0  0
  185.2250  178.1950  142.4880 C   0  0  1  0  0  3  0  0  0  0  0  0
  184.7400  178.8230  143.7920 C   0  0  0  0  0  3  0  0  0  0  0  0
  183.4350  178.4460  144.0690 F   0  0  0  0  0  0  0  0  0  0  0  0
  184.8260  180.2010  143.7210 F   0  0  0  0  0  0  0  0  0  0  0  0
  185.0650  179.1730  141.3270 C   0  0  0  0  0  2  0  0  0  0  0  0
  184.0360  179.5760  139.0910 C   0  0  0  0  0  1  0  0  0  0  0  0
  184.3320  178.5330  140.1550 C   0  0  2  0  0  3  0  0  0  0  0  0
  183.0630  177.7930  140.5860 C   0  0  0  0  0  2  0  0  0  0  0  0
  181.8040  178.6520  140.5020 C   0  0  1  0  0  3  0  0  0  0  0  0
  180.6850  177.8760  139.8800 C   0  0  0  0  0  2  0  0  0  0  0  0
  179.6610  177.8840  140.9750 C   0  0  0  0  0  2  0  0  0  0  0  0
  180.3450  178.1300  142.1720 O   0  0  0  0  0  0  0  0  0  0  0  0
  181.3550  178.9890  141.8450 N   0  0  0  0  0  2  0  0  0  0  0  0
  2  1  1  6  0  0  0
  2  3  1  0  0  0  0
  2 18  1  0  0  0  0
  4  3  1  0  0  0  0
  5  3  1  6  0  0  0
  5  6  1  0  0  0  0
  5  7  1  0  0  0  0
  7  6  1  6  0  0  0
  7 17  1  0  0  0  0
  9  8  1  0  0  0  0
 10 16  1  6  0  0  0
 10 13  1  0  0  0  0
 11  9  2  0  0  0  0
 12 14  1  0  0  0  0
 13  8  2  0  0  0  0
 13 15  1  0  0  0  0
 14 15  2  0  0  0  0
 16 12  2  0  0  0  0
 17 11  1  1  0  0  0
 17 10  1  0  0  0  0
 18 19  1  0  0  0  0
 20 24  1  6  0  0  0
 20 19  1  0  0  0  0
 20 21  1  0  0  0  0
 21 22  1  0  0  0  0
 23 21  1  0  0  0  0
 26 25  1  6  0  0  0
 26 27  1  0  0  0  0
 26 24  1  0  0  0  0
 28 27  1  1  0  0  0
 28 32  1  0  0  0  0
 29 28  1  0  0  0  0
 29 30  1  0  0  0  0
 30 31  1  0  0  0  0
 32 31  1  0  0  0  0
M  END
>  <MODEL>
5

>  <REMARK>
 VINA RESULT:      -7.9      3.347      7.466
  Name = 
  11 active torsions:
  status: ('A' for Active; 'I' for Inactive)
    1  A    between atoms: C_1  and  C_10
    2  A    between atoms: C_1  and  C_16
    3  A    between atoms: C_1  and  C_22
    4  A    between atoms: N_2  and  C_11
    5  A    between atoms: N_2  and  C_20
    6  A    between atoms: C_4  and  C_7
    7  A    between atoms: C_7  and  C_23
    8  A    between atoms: C_16  and  C_25
    9  A    between atoms: C_20  and  C_25
   10  A    between atoms: C_22  and  C_23
   11  A    between atoms: C_30  and  C_32
                            x       y       z     vdW  Elec       q    Type
                         _______ _______ _______ _____ _____    ______ ____

>  <TORSDO>
F 11

$$$$
=
 OpenBabel11042413113D

 32 35  0  0  1  0  0  0  0  0999 V2000
  189.7420  177.3700  147.0560 C   0  0  0  0  0  1  0  0  0  0  0  0
  188.5480  177.4710  146.1120 C   0  0  1  0  0  3  0  0  0  0  0  0
  187.4730  178.2850  146.7120 N   0  0  0  0  0  0  0  0  0  0  0  0
  187.4180  177.9820  148.1390 C   0  0  0  0  0  1  0  0  0  0  0  0
  186.1880  177.8500  146.1680 C   0  0  1  0  0  3  0  0  0  0  0  0
  185.1310  178.5300  146.8130 O   0  0  0  0  0  0  0  0  0  0  0  0
  185.4910  179.0000  145.5370 C   0  0  2  0  0  3  0  0  0  0  0  0
  182.4240  178.8680  142.5830 N   0  0  0  0  0  0  0  0  0  0  0  0
  182.1300  178.8810  143.9870 C   0  0  0  0  0  3  0  0  0  0  0  0
  184.7770  179.2240  143.1200 C   0  0  2  0  0  3  0  0  0  0  0  0
  183.0840  178.7720  144.8630 N   0  0  0  0  0  0  0  0  0  0  0  0
  186.2670  178.6390  141.2230 C   0  0  0  0  0  3  0  0  0  0  0  0
  183.6450  178.9660  142.1510 C   0  0  0  0  0  0  0  0  0  0  0  0
  185.1270  178.7780  140.2970 C   0  0  0  0  0  3  0  0  0  0  0  0
  183.9140  178.9170  140.7440 N   0  0  0  0  0  0  0  0  0  0  0  0
  186.1010  178.8020  142.5380 C   0  0  0  0  0  3  0  0  0  0  0  0
  184.4840  178.5490  144.4650 C   0  0  2  0  0  3  0  0  0  0  0  0
  189.0660  178.0860  144.8160 C   0  0  0  0  0  2  0  0  0  0  0  0
  189.1120  177.0430  143.7100 C   0  0  0  0  0  2  0  0  0  0  0  0
  190.1200  177.4300  142.6360 C   0  0  1  0  0  3  0  0  0  0  0  0
  191.5190  176.9620  143.0270 C   0  0  0  0  0  3  0  0  0  0  0  0
  191.4580  175.8310  143.8280 F   0  0  0  0  0  0  0  0  0  0  0  0
  192.1940  177.9710  143.6900 F   0  0  0  0  0  0  0  0  0  0  0  0
  189.7140  176.8440  141.2860 C   0  0  0  0  0  2  0  0  0  0  0  0
  189.3600  178.1030  139.1620 C   0  0  0  0  0  1  0  0  0  0  0  0
  190.3980  177.5690  140.1340 C   0  0  2  0  0  3  0  0  0  0  0  0
  191.4380  176.6990  139.4230 C   0  0  0  0  0  2  0  0  0  0  0  0
  191.0070  176.2600  138.0260 C   0  0  1  0  0  3  0  0  0  0  0  0
  192.1820  176.2520  137.0980 C   0  0  0  0  0  2  0  0  0  0  0  0
  192.2270  174.8150  136.6730 C   0  0  0  0  0  2  0  0  0  0  0  0
  191.5470  174.0790  137.6510 O   0  0  0  0  0  0  0  0  0  0  0  0
  190.5300  174.8860  138.0730 N   0  0  0  0  0  2  0  0  0  0  0  0
  2  3  1  0  0  0  0
  2  1  1  1  0  0  0
  3  4  1  0  0  0  0
  5  3  1  1  0  0  0
  5  6  1  0  0  0  0
  7  5  1  0  0  0  0
  7  6  1  1  0  0  0
  8  9  1  0  0  0  0
  9 11  2  0  0  0  0
 10 16  1  6  0  0  0
 10 17  1  0  0  0  0
 12 16  2  0  0  0  0
 13  8  2  0  0  0  0
 13 10  1  0  0  0  0
 14 15  2  0  0  0  0
 14 12  1  0  0  0  0
 15 13  1  0  0  0  0
 17 11  1  1  0  0  0
 17  7  1  0  0  0  0
 18  2  1  0  0  0  0
 19 18  1  0  0  0  0
 20 24  1  6  0  0  0
 20 21  1  0  0  0  0
 20 19  1  0  0  0  0
 21 23  1  0  0  0  0
 21 22  1  0  0  0  0
 26 25  1  6  0  0  0
 26 24  1  0  0  0  0
 27 26  1  0  0  0  0
 28 32  1  0  0  0  0
 28 27  1  1  0  0  0
 29 28  1  0  0  0  0
 30 29  1  0  0  0  0
 30 31  1  0  0  0  0
 31 32  1  0  0  0  0
M  END
>  <MODEL>
6

>  <REMARK>
 VINA RESULT:      -7.7      1.891      2.125
  Name = 
  11 active torsions:
  status: ('A' for Active; 'I' for Inactive)
    1  A    between atoms: C_1  and  C_10
    2  A    between atoms: C_1  and  C_16
    3  A    between atoms: C_1  and  C_22
    4  A    between atoms: N_2  and  C_11
    5  A    between atoms: N_2  and  C_20
    6  A    between atoms: C_4  and  C_7
    7  A    between atoms: C_7  and  C_23
    8  A    between atoms: C_16  and  C_25
    9  A    between atoms: C_20  and  C_25
   10  A    between atoms: C_22  and  C_23
   11  A    between atoms: C_30  and  C_32
                            x       y       z     vdW  Elec       q    Type
                         _______ _______ _______ _____ _____    ______ ____

>  <TORSDO>
F 11

$$$$
=
 OpenBabel11042413113D

 32 35  0  0  1  0  0  0  0  0999 V2000
  188.3050  176.7240  142.7970 C   0  0  0  0  0  1  0  0  0  0  0  0
  189.7650  176.8520  143.2190 C   0  0  1  0  0  3  0  0  0  0  0  0
  190.6660  176.5590  142.0870 N   0  0  0  0  0  0  0  0  0  0  0  0
  191.9930  177.0680  142.4220 C   0  0  0  0  0  1  0  0  0  0  0  0
  190.2330  177.3270  140.9220 C   0  0  1  0  0  3  0  0  0  0  0  0
  191.3180  177.5250  140.0390 O   0  0  0  0  0  0  0  0  0  0  0  0
  190.4020  176.5150  139.6900 C   0  0  2  0  0  3  0  0  0  0  0  0
  188.7730  178.2100  136.1360 N   0  0  0  0  0  0  0  0  0  0  0  0
  189.0550  179.0020  137.2990 C   0  0  0  0  0  3  0  0  0  0  0  0
  189.8370  176.3070  137.2330 C   0  0  2  0  0  3  0  0  0  0  0  0
  189.4110  178.4360  138.4140 N   0  0  0  0  0  0  0  0  0  0  0  0
  189.2030  174.1490  136.1820 C   0  0  0  0  0  3  0  0  0  0  0  0
  189.0700  176.9450  136.0970 C   0  0  0  0  0  0  0  0  0  0  0  0
  188.8150  174.8710  134.9550 C   0  0  0  0  0  3  0  0  0  0  0  0
  188.7460  176.1690  134.9360 N   0  0  0  0  0  0  0  0  0  0  0  0
  189.6350  174.8140  137.2570 C   0  0  0  0  0  3  0  0  0  0  0  0
  189.4610  176.9720  138.5620 C   0  0  2  0  0  3  0  0  0  0  0  0
  189.9480  178.2780  143.7310 C   0  0  0  0  0  2  0  0  0  0  0  0
  190.1050  178.2860  145.2440 C   0  0  0  0  0  2  0  0  0  0  0  0
  190.2250  176.8680  145.7880 C   0  0  1  0  0  3  0  0  0  0  0  0
  191.6810  176.5460  146.1130 C   0  0  0  0  0  3  0  0  0  0  0  0
  192.0990  175.4070  145.4420 F   0  0  0  0  0  0  0  0  0  0  0  0
  191.8400  176.3730  147.4760 F   0  0  0  0  0  0  0  0  0  0  0  0
  189.3450  176.6940  147.0240 C   0  0  0  0  0  2  0  0  0  0  0  0
  188.2470  178.2520  148.6320 C   0  0  0  0  0  1  0  0  0  0  0  0
  188.3580  177.8440  147.1730 C   0  0  2  0  0  3  0  0  0  0  0  0
  186.9860  177.5270  146.5720 C   0  0  0  0  0  2  0  0  0  0  0  0
  186.3570  178.7120  145.8440 C   0  0  1  0  0  3  0  0  0  0  0  0
  185.6800  178.2530  144.5910 C   0  0  0  0  0  2  0  0  0  0  0  0
  184.2610  178.6680  144.8380 C   0  0  0  0  0  2  0  0  0  0  0  0
  184.1130  178.8060  146.2240 O   0  0  0  0  0  0  0  0  0  0  0  0
  185.3080  179.2900  146.6720 N   0  0  0  0  0  2  0  0  0  0  0  0
  2  1  1  6  0  0  0
  2 18  1  0  0  0  0
  3  4  1  0  0  0  0
  3  2  1  0  0  0  0
  5  3  1  1  0  0  0
  6  5  1  0  0  0  0
  7  6  1  6  0  0  0
  7  5  1  0  0  0  0
  8  9  1  0  0  0  0
  9 11  2  0  0  0  0
 10 16  1  1  0  0  0
 10 17  1  0  0  0  0
 12 16  2  0  0  0  0
 13  8  2  0  0  0  0
 13 10  1  0  0  0  0
 14 12  1  0  0  0  0
 15 14  2  0  0  0  0
 15 13  1  0  0  0  0
 17 11  1  6  0  0  0
 17  7  1  0  0  0  0
 18 19  1  0  0  0  0
 20 19  1  1  0  0  0
 20 21  1  0  0  0  0
 20 24  1  0  0  0  0
 21 23  1  0  0  0  0
 22 21  1  0  0  0  0
 24 26  1  0  0  0  0
 26 25  1  1  0  0  0
 27 26  1  0  0  0  0
 28 27  1  1  0  0  0
 28 32  1  0  0  0  0
 29 30  1  0  0  0  0
 29 28  1  0  0  0  0
 30 31  1  0  0  0  0
 31 32  1  0  0  0  0
M  END
>  <MODEL>
7

>  <REMARK>
 VINA RESULT:      -7.7      2.371      6.926
  Name = 
  11 active torsions:
  status: ('A' for Active; 'I' for Inactive)
    1  A    between atoms: C_1  and  C_10
    2  A    between atoms: C_1  and  C_16
    3  A    between atoms: C_1  and  C_22
    4  A    between atoms: N_2  and  C_11
    5  A    between atoms: N_2  and  C_20
    6  A    between atoms: C_4  and  C_7
    7  A    between atoms: C_7  and  C_23
    8  A    between atoms: C_16  and  C_25
    9  A    between atoms: C_20  and  C_25
   10  A    between atoms: C_22  and  C_23
   11  A    between atoms: C_30  and  C_32
                            x       y       z     vdW  Elec       q    Type
                         _______ _______ _______ _____ _____    ______ ____

>  <TORSDO>
F 11

$$$$
=
 OpenBabel11042413113D

 32 35  0  0  1  0  0  0  0  0999 V2000
  188.1770  178.0020  139.4400 C   0  0  0  0  0  1  0  0  0  0  0  0
  188.4350  177.6600  140.9040 C   0  0  1  0  0  3  0  0  0  0  0  0
  189.8620  177.8310  141.2390 N   0  0  0  0  0  0  0  0  0  0  0  0
  190.6510  177.4240  140.0790 C   0  0  0  0  0  1  0  0  0  0  0  0
  190.2160  176.8930  142.3030 C   0  0  1  0  0  3  0  0  0  0  0  0
  191.5990  176.9720  142.5810 O   0  0  0  0  0  0  0  0  0  0  0  0
  190.7410  177.6360  143.4770 C   0  0  2  0  0  3  0  0  0  0  0  0
  190.8780  176.3250  147.5280 N   0  0  0  0  0  0  0  0  0  0  0  0
  191.9780  176.1330  146.6270 C   0  0  0  0  0  3  0  0  0  0  0  0
  189.7630  177.6510  145.8100 C   0  0  2  0  0  3  0  0  0  0  0  0
  191.8520  176.4090  145.3630 N   0  0  0  0  0  0  0  0  0  0  0  0
  187.3300  177.8820  146.2420 C   0  0  0  0  0  3  0  0  0  0  0  0
  189.8140  176.9730  147.1610 C   0  0  0  0  0  0  0  0  0  0  0  0
  187.5590  177.5540  147.6620 C   0  0  0  0  0  3  0  0  0  0  0  0
  188.7150  177.1210  148.0700 N   0  0  0  0  0  0  0  0  0  0  0  0
  188.3420  177.8850  145.3700 C   0  0  0  0  0  3  0  0  0  0  0  0
  190.5710  176.8460  144.7850 C   0  0  2  0  0  3  0  0  0  0  0  0
  187.5460  178.5820  141.7320 C   0  0  0  0  0  2  0  0  0  0  0  0
  186.6210  177.7720  142.6270 C   0  0  0  0  0  2  0  0  0  0  0  0
  185.1720  178.2040  142.4490 C   0  0  1  0  0  3  0  0  0  0  0  0
  184.6480  178.8450  143.7320 C   0  0  0  0  0  3  0  0  0  0  0  0
  183.2860  178.6330  143.8730 F   0  0  0  0  0  0  0  0  0  0  0  0
  184.9150  180.2020  143.7310 F   0  0  0  0  0  0  0  0  0  0  0  0
  185.0420  179.1680  141.2720 C   0  0  0  0  0  2  0  0  0  0  0  0
  183.8660  179.6170  139.1190 C   0  0  0  0  0  1  0  0  0  0  0  0
  184.2490  178.5490  140.1290 C   0  0  2  0  0  3  0  0  0  0  0  0
  183.0240  177.7690  140.6140 C   0  0  0  0  0  2  0  0  0  0  0  0
  182.0610  177.3950  139.4900 C   0  0  1  0  0  3  0  0  0  0  0  0
  182.4140  176.0530  138.9270 C   0  0  0  0  0  2  0  0  0  0  0  0
  181.1610  175.2720  139.1880 C   0  0  0  0  0  2  0  0  0  0  0  0
  180.4800  175.9280  140.2210 O   0  0  0  0  0  0  0  0  0  0  0  0
  180.7150  177.2590  140.0270 N   0  0  0  0  0  2  0  0  0  0  0  0
  2  1  1  6  0  0  0
  2  3  1  0  0  0  0
  2 18  1  0  0  0  0
  4  3  1  0  0  0  0
  5  3  1  6  0  0  0
  5  6  1  0  0  0  0
  5  7  1  0  0  0  0
  7  6  1  6  0  0  0
  7 17  1  0  0  0  0
  9  8  1  0  0  0  0
 10 16  1  6  0  0  0
 10 13  1  0  0  0  0
 11  9  2  0  0  0  0
 12 14  1  0  0  0  0
 13  8  2  0  0  0  0
 13 15  1  0  0  0  0
 14 15  2  0  0  0  0
 16 12  2  0  0  0  0
 17 11  1  1  0  0  0
 17 10  1  0  0  0  0
 18 19  1  0  0  0  0
 20 24  1  6  0  0  0
 20 19  1  0  0  0  0
 20 21  1  0  0  0  0
 21 22  1  0  0  0  0
 23 21  1  0  0  0  0
 26 25  1  6  0  0  0
 26 27  1  0  0  0  0
 26 24  1  0  0  0  0
 28 32  1  0  0  0  0
 28 27  1  1  0  0  0
 29 30  1  0  0  0  0
 29 28  1  0  0  0  0
 30 31  1  0  0  0  0
 32 31  1  0  0  0  0
M  END
>  <MODEL>
8

>  <REMARK>
 VINA RESULT:      -7.7      3.593      7.339
  Name = 
  11 active torsions:
  status: ('A' for Active; 'I' for Inactive)
    1  A    between atoms: C_1  and  C_10
    2  A    between atoms: C_1  and  C_16
    3  A    between atoms: C_1  and  C_22
    4  A    between atoms: N_2  and  C_11
    5  A    between atoms: N_2  and  C_20
    6  A    between atoms: C_4  and  C_7
    7  A    between atoms: C_7  and  C_23
    8  A    between atoms: C_16  and  C_25
    9  A    between atoms: C_20  and  C_25
   10  A    between atoms: C_22  and  C_23
   11  A    between atoms: C_30  and  C_32
                            x       y       z     vdW  Elec       q    Type
                         _______ _______ _______ _____ _____    ______ ____

>  <TORSDO>
F 11

$$$$
=
 OpenBabel11042413113D

 32 35  0  0  1  0  0  0  0  0999 V2000
  190.2080  176.6020  141.3170 C   0  0  0  0  0  1  0  0  0  0  0  0
  189.6190  177.9700  141.6430 C   0  0  1  0  0  3  0  0  0  0  0  0
  188.6840  178.4050  140.5870 N   0  0  0  0  0  0  0  0  0  0  0  0
  187.3690  178.5880  141.1950 C   0  0  0  0  0  1  0  0  0  0  0  0
  188.5220  177.3220  139.6200 C   0  0  1  0  0  3  0  0  0  0  0  0
  187.6240  177.7100  138.6010 O   0  0  0  0  0  0  0  0  0  0  0  0
  188.9940  177.7640  138.2830 C   0  0  2  0  0  3  0  0  0  0  0  0
  190.2860  175.3180  135.0440 N   0  0  0  0  0  0  0  0  0  0  0  0
  188.9310  175.7730  135.1610 C   0  0  0  0  0  3  0  0  0  0  0  0
  190.8750  176.7230  136.9490 C   0  0  2  0  0  3  0  0  0  0  0  0
  188.5330  176.3920  136.2330 N   0  0  0  0  0  0  0  0  0  0  0  0
  193.0320  176.0480  137.9770 C   0  0  0  0  0  3  0  0  0  0  0  0
  191.1970  175.6930  135.8900 C   0  0  0  0  0  0  0  0  0  0  0  0
  193.4040  175.3630  136.7240 C   0  0  0  0  0  3  0  0  0  0  0  0
  192.5370  175.1960  135.7700 N   0  0  0  0  0  0  0  0  0  0  0  0
  191.8410  176.6420  138.1020 C   0  0  0  0  0  3  0  0  0  0  0  0
  189.4150  176.5800  137.3960 C   0  0  2  0  0  3  0  0  0  0  0  0
  188.9220  177.8350  142.9940 C   0  0  0  0  0  2  0  0  0  0  0  0
  189.3460  176.5500  143.6880 C   0  0  0  0  0  2  0  0  0  0  0  0
  189.9230  176.8390  145.0680 C   0  0  1  0  0  3  0  0  0  0  0  0
  191.4440  176.9350  144.9980 C   0  0  0  0  0  3  0  0  0  0  0  0
  191.9610  175.9940  144.1190 F   0  0  0  0  0  0  0  0  0  0  0  0
  191.9940  176.7560  146.2540 F   0  0  0  0  0  0  0  0  0  0  0  0
  189.3280  178.1250  145.6370 C   0  0  0  0  0  2  0  0  0  0  0  0
  188.7990  176.7140  147.6250 C   0  0  0  0  0  1  0  0  0  0  0  0
  188.3030  177.8320  146.7250 C   0  0  2  0  0  3  0  0  0  0  0  0
  186.9130  177.5240  146.1600 C   0  0  0  0  0  2  0  0  0  0  0  0
  186.1950  178.7560  145.6150 C   0  0  1  0  0  3  0  0  0  0  0  0
  185.3300  178.3830  144.4530 C   0  0  0  0  0  2  0  0  0  0  0  0
  183.9700  178.7840  144.9410 C   0  0  0  0  0  2  0  0  0  0  0  0
  184.0370  178.8310  146.3380 O   0  0  0  0  0  0  0  0  0  0  0  0
  185.2930  179.2810  146.6300 N   0  0  0  0  0  2  0  0  0  0  0  0
  2  1  1  6  0  0  0
  2 18  1  0  0  0  0
  3  4  1  0  0  0  0
  3  2  1  0  0  0  0
  5  3  1  1  0  0  0
  6  5  1  0  0  0  0
  7  6  1  6  0  0  0
  7  5  1  0  0  0  0
  8  9  1  0  0  0  0
  8 13  2  0  0  0  0
  9 11  2  0  0  0  0
 10 17  1  0  0  0  0
 10 16  1  1  0  0  0
 12 16  2  0  0  0  0
 13 10  1  0  0  0  0
 14 12  1  0  0  0  0
 15 13  1  0  0  0  0
 15 14  2  0  0  0  0
 17 11  1  6  0  0  0
 17  7  1  0  0  0  0
 18 19  1  0  0  0  0
 20 19  1  6  0  0  0
 20 24  1  0  0  0  0
 21 20  1  0  0  0  0
 21 23  1  0  0  0  0
 22 21  1  0  0  0  0
 24 26  1  0  0  0  0
 26 25  1  6  0  0  0
 27 26  1  0  0  0  0
 28 27  1  1  0  0  0
 28 32  1  0  0  0  0
 29 30  1  0  0  0  0
 29 28  1  0  0  0  0
 30 31  1  0  0  0  0
 31 32  1  0  0  0  0
M  END
>  <MODEL>
9

>  <REMARK>
 VINA RESULT:      -7.6      2.433      7.503
  Name = 
  11 active torsions:
  status: ('A' for Active; 'I' for Inactive)
    1  A    between atoms: C_1  and  C_10
    2  A    between atoms: C_1  and  C_16
    3  A    between atoms: C_1  and  C_22
    4  A    between atoms: N_2  and  C_11
    5  A    between atoms: N_2  and  C_20
    6  A    between atoms: C_4  and  C_7
    7  A    between atoms: C_7  and  C_23
    8  A    between atoms: C_16  and  C_25
    9  A    between atoms: C_20  and  C_25
   10  A    between atoms: C_22  and  C_23
   11  A    between atoms: C_30  and  C_32
                            x       y       z     vdW  Elec       q    Type
                         _______ _______ _______ _____ _____    ______ ____

>  <TORSDO>
F 11

$$$$
