=
 OpenBabel11042411473D

 47 49  0  0  1  0  0  0  0  0999 V2000
  187.8270  178.5800  140.9000 C   0  0  2  0  0  3  0  0  0  0  0  0
  189.1360  178.6380  141.6980 C   0  0  0  0  0  2  0  0  0  0  0  0
  189.2670  177.4720  142.6860 C   0  0  1  0  0  3  0  0  0  0  0  0
  190.3880  176.5040  142.2370 C   0  0  1  0  0  3  0  0  0  0  0  0
  191.6630  177.2010  141.7810 C   0  0  0  0  0  1  0  0  0  0  0  0
  191.8340  175.4670  143.8110 O   0  0  0  0  0  0  0  0  0  0  0  0
  190.7180  175.5090  143.3120 C   0  0  0  0  0  3  0  0  0  0  0  0
  189.4890  178.0760  144.0740 C   0  0  0  0  0  2  0  0  0  0  0  0
  185.5440  178.6390  145.6360 C   0  0  0  0  0  0  0  0  0  0  0  0
  191.0540  177.1530  146.4560 O   0  0  0  0  0  0  0  0  0  0  0  0
  187.5490  177.7900  145.6250 C   0  0  0  0  0  0  0  0  0  0  0  0
  189.8040  177.2660  146.5470 C   0  0  0  0  0  0  0  0  0  0  0  0
  187.0540  177.8340  146.8990 C   0  0  0  0  0  0  0  0  0  0  0  0
  187.8610  177.4580  148.0680 C   0  0  0  0  0  3  0  0  0  0  0  0
  189.1670  177.2000  147.8950 C   0  0  0  0  0  3  0  0  0  0  0  0
  188.9350  177.3220  145.2930 C   0  0  2  0  0  3  0  0  0  0  0  0
  186.5900  178.3050  144.7850 C   0  0  0  0  0  3  0  0  0  0  0  0
  185.8250  178.3800  146.9340 N   0  0  0  0  0  2  0  0  0  0  0  0
  184.3710  179.4620  145.1900 C   0  0  0  0  0  2  0  0  0  0  0  0
  183.3170  178.5990  144.5090 C   0  0  0  0  0  1  0  0  0  0  0  0
  186.6150  178.3170  141.8020 C   0  0  0  0  0  2  0  0  0  0  0  0
  185.4370  179.2320  141.5150 C   0  0  0  0  0  2  0  0  0  0  0  0
  184.4560  178.6270  140.5530 C   0  0  0  0  0  0  0  0  0  0  0  0
  183.5920  177.8790  140.9860 O   0  0  0  0  0  0  0  0  0  0  0  0
  184.4270  179.0530  139.1080 C   0  0  2  0  0  3  0  0  0  0  0  0
  184.1530  180.4190  139.0290 O   0  0  0  0  0  1  0  0  0  0  0  0
  183.4060  178.2380  138.2960 C   0  0  2  0  0  3  0  0  0  0  0  0
  183.8080  175.6310  135.6300 C   0  0  0  0  0  3  0  0  0  0  0  0
  185.1920  175.5770  135.4690 C   0  0  0  0  0  3  0  0  0  0  0  0
  183.2520  176.5010  136.5110 N   0  0  0  0  0  0  0  0  0  0  0  0
  185.4120  177.3190  137.1280 C   0  0  0  0  0  3  0  0  0  0  0  0
  185.9960  176.4250  136.2280 C   0  0  0  0  0  3  0  0  0  0  0  0
  184.0210  177.3500  137.2550 C   0  0  0  0  0  0  0  0  0  0  0  0
  182.3410  179.0400  137.7660 O   0  0  0  0  0  0  0  0  0  0  0  0
  180.7360  178.8950  139.6030 N   0  0  0  0  0  1  0  0  0  0  0  0
  181.0120  178.9980  138.2110 C   0  0  0  0  0  0  0  0  0  0  0  0
  180.0550  179.0480  137.3920 O   0  0  0  0  0  0  0  0  0  0  0  0
  187.9380  177.6100  139.7300 C   0  0  0  0  0  2  0  0  0  0  0  0
  189.2460  177.7470  139.0100 C   0  0  0  0  0  3  0  0  0  0  0  0
  189.8490  176.6850  138.4740 C   0  0  0  0  0  3  0  0  0  0  0  0
  191.1230  176.8310  137.7020 C   0  0  0  0  0  2  0  0  0  0  0  0
  192.0980  175.7240  138.0710 C   0  0  0  0  0  2  0  0  0  0  0  0
  193.2040  175.6200  137.0260 C   0  0  0  0  0  2  0  0  0  0  0  0
  194.5150  175.6250  137.6600 N   0  0  0  0  0  2  0  0  0  0  0  0
  194.7440  174.2990  138.2180 C   0  0  0  0  0  2  0  0  0  0  0  0
  196.1070  174.2310  138.8830 C   0  0  0  0  0  2  0  0  0  0  0  0
  196.1420  175.1180  140.0350 N   0  0  0  0  0  1  0  0  0  0  0  0
  1 38  1  6  0  0  0
  1  2  1  0  0  0  0
  1 21  1  0  0  0  0
  3  2  1  6  0  0  0
  3  8  1  0  0  0  0
  4  5  1  1  0  0  0
  4  3  1  0  0  0  0
  4  7  1  0  0  0  0
  7  6  2  0  0  0  0
  9 18  1  0  0  0  0
 10 12  2  0  0  0  0
 11 13  2  0  0  0  0
 12 15  1  0  0  0  0
 13 18  1  0  0  0  0
 13 14  1  0  0  0  0
 15 14  2  0  0  0  0
 16  8  1  6  0  0  0
 16 11  1  0  0  0  0
 16 12  1  0  0  0  0
 17 11  1  0  0  0  0
 17  9  2  0  0  0  0
 19  9  1  0  0  0  0
 20 19  1  0  0  0  0
 22 21  1  0  0  0  0
 23 24  2  0  0  0  0
 23 22  1  0  0  0  0
 25 26  1  1  0  0  0
 25 23  1  0  0  0  0
 27 34  1  6  0  0  0
 27 25  1  0  0  0  0
 28 30  1  0  0  0  0
 29 28  2  0  0  0  0
 29 32  1  0  0  0  0
 30 33  2  0  0  0  0
 31 33  1  0  0  0  0
 32 31  2  0  0  0  0
 33 27  1  0  0  0  0
 34 36  1  0  0  0  0
 36 35  1  0  0  0  0
 37 36  2  0  0  0  0
 39 38  1  0  0  0  0
 40 39  2  0  0  0  0
 41 42  1  0  0  0  0
 41 40  1  0  0  0  0
 43 44  1  0  0  0  0
 43 42  1  0  0  0  0
 44 45  1  0  0  0  0
 45 46  1  0  0  0  0
 46 47  1  0  0  0  0
M  END
>  <MODEL>
1

>  <REMARK>
 VINA RESULT:      -7.2      0.000      0.000
  Name = 
  23 active torsions:
  status: ('A' for Active; 'I' for Inactive)
    1  A    between atoms: C_1  and  C_4
    2  A    between atoms: C_2  and  C_12
    3  A    between atoms: C_2  and  O_22
    4  A    between atoms: C_2  and  C_41
    5  A    between atoms: N_3  and  C_19
    6  A    between atoms: N_3  and  C_33
    7  A    between atoms: C_5  and  C_6
    8  A    between atoms: C_6  and  C_30
    9  A    between atoms: C_8  and  C_25
   10  A    between atoms: C_8  and  C_34
   11  A    between atoms: C_10  and  C_19
   12  A    between atoms: C_10  and  C_47
   13  A    between atoms: C_12  and  C_36
   14  A    between atoms: C_16  and  C_33
   15  A    between atoms: C_17  and  C_30
   16  A    between atoms: C_17  and  C_31
   17  A    between atoms: O_22  and  C_26
   18  A    between atoms: C_25  and  C_35
   19  A    between atoms: C_25  and  C_40
   20  A    between atoms: C_30  and  C_35
   21  A    between atoms: C_31  and  C_36
   22  A    between atoms: C_40  and  C_45
   23  A    between atoms: C_42  and  C_47
                            x       y       z     vdW  Elec       q    Type
                         _______ _______ _______ _____ _____    ______ ____

>  <TORSDO>
F 23

$$$$
=
 OpenBabel11042411473D

 47 49  0  0  1  0  0  0  0  0999 V2000
  187.9540  177.7980  141.2990 C   0  0  2  0  0  3  0  0  0  0  0  0
  189.0760  178.2870  142.2240 C   0  0  0  0  0  2  0  0  0  0  0  0
  189.4630  177.2380  143.2750 C   0  0  1  0  0  3  0  0  0  0  0  0
  190.7600  176.5050  142.8570 C   0  0  1  0  0  3  0  0  0  0  0  0
  191.6290  177.2880  141.8820 C   0  0  0  0  0  1  0  0  0  0  0  0
  192.0020  174.9710  144.1810 O   0  0  0  0  0  0  0  0  0  0  0  0
  191.5780  176.1120  144.0540 C   0  0  0  0  0  3  0  0  0  0  0  0
  189.5640  177.9600  144.6200 C   0  0  0  0  0  2  0  0  0  0  0  0
  185.4210  178.8020  145.2860 C   0  0  0  0  0  0  0  0  0  0  0  0
  190.6080  177.3910  147.3700 O   0  0  0  0  0  0  0  0  0  0  0  0
  187.3550  177.9360  145.7890 C   0  0  0  0  0  0  0  0  0  0  0  0
  189.3690  177.5310  147.1990 C   0  0  0  0  0  0  0  0  0  0  0  0
  186.6290  178.1800  146.9220 C   0  0  0  0  0  0  0  0  0  0  0  0
  187.1820  177.9760  148.2680 C   0  0  0  0  0  3  0  0  0  0  0  0
  188.4850  177.6790  148.3910 C   0  0  0  0  0  3  0  0  0  0  0  0
  188.7580  177.4060  145.8050 C   0  0  2  0  0  3  0  0  0  0  0  0
  186.5950  178.3300  144.7130 C   0  0  0  0  0  3  0  0  0  0  0  0
  185.4390  178.7390  146.6370 N   0  0  0  0  0  2  0  0  0  0  0  0
  184.3900  179.5610  144.5040 C   0  0  0  0  0  2  0  0  0  0  0  0
  183.0490  178.8390  144.5090 C   0  0  0  0  0  1  0  0  0  0  0  0
  188.4870  177.3640  139.9290 C   0  0  0  0  0  2  0  0  0  0  0  0
  188.9940  178.5200  139.0820 C   0  0  0  0  0  2  0  0  0  0  0  0
  188.6060  178.3910  137.6380 C   0  0  0  0  0  0  0  0  0  0  0  0
  187.6390  179.0180  137.2300 O   0  0  0  0  0  0  0  0  0  0  0  0
  189.4770  177.6370  136.6670 C   0  0  2  0  0  3  0  0  0  0  0  0
  188.9560  177.7620  135.3780 O   0  0  0  0  0  1  0  0  0  0  0  0
  189.6210  176.1580  137.0620 C   0  0  2  0  0  3  0  0  0  0  0  0
  192.6700  173.9760  136.9670 C   0  0  0  0  0  3  0  0  0  0  0  0
  193.6320  174.7750  137.5840 C   0  0  0  0  0  3  0  0  0  0  0  0
  191.4070  174.4380  136.7820 N   0  0  0  0  0  0  0  0  0  0  0  0
  191.9750  176.5190  137.8110 C   0  0  0  0  0  3  0  0  0  0  0  0
  193.2760  176.0540  138.0130 C   0  0  0  0  0  3  0  0  0  0  0  0
  191.0420  175.6920  137.1810 C   0  0  0  0  0  0  0  0  0  0  0  0
  188.8270  175.2790  136.2510 O   0  0  0  0  0  0  0  0  0  0  0  0
  188.0920  173.0330  136.8710 N   0  0  0  0  0  1  0  0  0  0  0  0
  187.8300  174.4250  136.7410 C   0  0  0  0  0  0  0  0  0  0  0  0
  186.6980  174.8760  137.0670 O   0  0  0  0  0  0  0  0  0  0  0  0
  186.8230  178.8170  141.2190 C   0  0  0  0  0  2  0  0  0  0  0  0
  185.5800  178.2280  140.6210 C   0  0  0  0  0  3  0  0  0  0  0  0
  185.0490  178.7320  139.5070 C   0  0  0  0  0  3  0  0  0  0  0  0
  183.8440  178.1060  138.8760 C   0  0  0  0  0  2  0  0  0  0  0  0
  182.9890  177.4200  139.9300 C   0  0  0  0  0  2  0  0  0  0  0  0
  181.6050  178.0580  139.9870 C   0  0  0  0  0  2  0  0  0  0  0  0
  181.3040  178.5180  141.3360 N   0  0  0  0  0  2  0  0  0  0  0  0
  179.8820  178.8300  141.3920 C   0  0  0  0  0  2  0  0  0  0  0  0
  179.5060  179.3470  142.7690 C   0  0  0  0  0  2  0  0  0  0  0  0
  179.8040  180.7670  142.8640 N   0  0  0  0  0  1  0  0  0  0  0  0
  1 21  1  6  0  0  0
  1  2  1  0  0  0  0
  3  2  1  6  0  0  0
  3  8  1  0  0  0  0
  4  5  1  6  0  0  0
  4  3  1  0  0  0  0
  4  7  1  0  0  0  0
  7  6  2  0  0  0  0
  9 18  1  0  0  0  0
 11 16  1  0  0  0  0
 11 13  2  0  0  0  0
 12 10  2  0  0  0  0
 12 15  1  0  0  0  0
 13 14  1  0  0  0  0
 14 15  2  0  0  0  0
 16  8  1  6  0  0  0
 16 12  1  0  0  0  0
 17  9  2  0  0  0  0
 17 11  1  0  0  0  0
 18 13  1  0  0  0  0
 19 20  1  0  0  0  0
 19  9  1  0  0  0  0
 22 21  1  0  0  0  0
 23 22  1  0  0  0  0
 24 23  2  0  0  0  0
 25 26  1  6  0  0  0
 25 27  1  0  0  0  0
 25 23  1  0  0  0  0
 27 34  1  6  0  0  0
 27 33  1  0  0  0  0
 28 29  1  0  0  0  0
 29 32  2  0  0  0  0
 30 28  2  0  0  0  0
 30 33  1  0  0  0  0
 31 32  1  0  0  0  0
 33 31  2  0  0  0  0
 34 36  1  0  0  0  0
 36 35  1  0  0  0  0
 36 37  2  0  0  0  0
 38  1  1  0  0  0  0
 39 38  1  0  0  0  0
 40 39  2  0  0  0  0
 41 40  1  0  0  0  0
 41 42  1  0  0  0  0
 42 43  1  0  0  0  0
 43 44  1  0  0  0  0
 44 45  1  0  0  0  0
 45 46  1  0  0  0  0
 46 47  1  0  0  0  0
M  END
>  <MODEL>
2

>  <REMARK>
 VINA RESULT:      -7.2      2.497      6.995
  Name = 
  23 active torsions:
  status: ('A' for Active; 'I' for Inactive)
    1  A    between atoms: C_1  and  C_4
    2  A    between atoms: C_2  and  C_12
    3  A    between atoms: C_2  and  O_22
    4  A    between atoms: C_2  and  C_41
    5  A    between atoms: N_3  and  C_19
    6  A    between atoms: N_3  and  C_33
    7  A    between atoms: C_5  and  C_6
    8  A    between atoms: C_6  and  C_30
    9  A    between atoms: C_8  and  C_25
   10  A    between atoms: C_8  and  C_34
   11  A    between atoms: C_10  and  C_19
   12  A    between atoms: C_10  and  C_47
   13  A    between atoms: C_12  and  C_36
   14  A    between atoms: C_16  and  C_33
   15  A    between atoms: C_17  and  C_30
   16  A    between atoms: C_17  and  C_31
   17  A    between atoms: O_22  and  C_26
   18  A    between atoms: C_25  and  C_35
   19  A    between atoms: C_25  and  C_40
   20  A    between atoms: C_30  and  C_35
   21  A    between atoms: C_31  and  C_36
   22  A    between atoms: C_40  and  C_45
   23  A    between atoms: C_42  and  C_47
                            x       y       z     vdW  Elec       q    Type
                         _______ _______ _______ _____ _____    ______ ____

>  <TORSDO>
F 23

$$$$
=
 OpenBabel11042411473D

 47 49  0  0  1  0  0  0  0  0999 V2000
  188.0230  178.4270  140.4260 C   0  0  2  0  0  3  0  0  0  0  0  0
  187.0640  177.6240  139.5380 C   0  0  0  0  0  2  0  0  0  0  0  0
  187.1270  178.0610  138.0690 C   0  0  1  0  0  3  0  0  0  0  0  0
  187.9600  177.0550  137.2390 C   0  0  1  0  0  3  0  0  0  0  0  0
  187.1800  176.3780  136.1200 C   0  0  0  0  0  1  0  0  0  0  0  0
  190.2230  177.7740  137.3270 O   0  0  0  0  0  0  0  0  0  0  0  0
  189.1930  177.6990  136.6720 C   0  0  0  0  0  3  0  0  0  0  0  0
  185.6860  178.2240  137.5810 C   0  0  0  0  0  2  0  0  0  0  0  0
  182.7090  175.1490  137.6120 C   0  0  0  0  0  0  0  0  0  0  0  0
  184.3140  180.5320  138.9100 O   0  0  0  0  0  0  0  0  0  0  0  0
  183.6430  176.9860  138.3170 C   0  0  0  0  0  0  0  0  0  0  0  0
  183.7510  179.4070  138.8950 C   0  0  0  0  0  0  0  0  0  0  0  0
  182.3020  176.9960  138.5830 C   0  0  0  0  0  0  0  0  0  0  0  0
  181.6250  178.1670  139.1580 C   0  0  0  0  0  3  0  0  0  0  0  0
  182.3160  179.3100  139.2930 C   0  0  0  0  0  3  0  0  0  0  0  0
  184.5540  178.1390  138.6170 C   0  0  2  0  0  3  0  0  0  0  0  0
  183.9350  175.7980  137.6880 C   0  0  0  0  0  3  0  0  0  0  0  0
  181.6980  175.8810  138.1330 N   0  0  0  0  0  2  0  0  0  0  0  0
  182.4990  173.9160  136.7830 C   0  0  0  0  0  2  0  0  0  0  0  0
  183.6540  172.9370  136.9450 C   0  0  0  0  0  1  0  0  0  0  0  0
  189.3650  177.7110  140.6170 C   0  0  0  0  0  2  0  0  0  0  0  0
  189.4110  176.8330  141.8570 C   0  0  0  0  0  2  0  0  0  0  0  0
  190.5570  177.1750  142.7640 C   0  0  0  0  0  0  0  0  0  0  0  0
  191.6780  176.7910  142.4680 O   0  0  0  0  0  0  0  0  0  0  0  0
  190.3680  178.1100  143.9310 C   0  0  2  0  0  3  0  0  0  0  0  0
  191.4770  178.9500  144.0410 O   0  0  0  0  0  1  0  0  0  0  0  0
  190.1270  177.3410  145.2410 C   0  0  2  0  0  3  0  0  0  0  0  0
  187.6680  178.1270  147.9630 C   0  0  0  0  0  3  0  0  0  0  0  0
  186.4670  178.2330  147.2620 C   0  0  0  0  0  3  0  0  0  0  0  0
  188.8280  177.8720  147.3050 N   0  0  0  0  0  0  0  0  0  0  0  0
  187.6740  177.8110  145.2120 C   0  0  0  0  0  3  0  0  0  0  0  0
  186.4740  178.0690  145.8770 C   0  0  0  0  0  3  0  0  0  0  0  0
  188.8580  177.7210  145.9480 C   0  0  0  0  0  0  0  0  0  0  0  0
  191.2620  177.3550  146.1190 O   0  0  0  0  0  0  0  0  0  0  0  0
  192.1690  175.1370  145.6380 N   0  0  0  0  0  1  0  0  0  0  0  0
  191.9550  176.2130  146.5440 C   0  0  0  0  0  0  0  0  0  0  0  0
  192.3910  176.1250  147.7240 O   0  0  0  0  0  0  0  0  0  0  0  0
  187.3550  178.8300  141.7350 C   0  0  0  0  0  2  0  0  0  0  0  0
  185.8620  178.8890  141.6080 C   0  0  0  0  0  3  0  0  0  0  0  0
  185.0740  178.6230  142.6510 C   0  0  0  0  0  3  0  0  0  0  0  0
  183.5850  178.7420  142.5410 C   0  0  0  0  0  2  0  0  0  0  0  0
  182.9840  179.1430  143.8790 C   0  0  0  0  0  2  0  0  0  0  0  0
  181.5440  178.6510  143.9830 C   0  0  0  0  0  2  0  0  0  0  0  0
  180.9190  178.6070  142.6680 N   0  0  0  0  0  2  0  0  0  0  0  0
  179.5100  178.9390  142.8360 C   0  0  0  0  0  2  0  0  0  0  0  0
  179.2970  180.4360  142.6990 C   0  0  0  0  0  2  0  0  0  0  0  0
  179.7710  180.8880  141.4010 N   0  0  0  0  0  1  0  0  0  0  0  0
  1  2  1  1  0  0  0
  1 21  1  0  0  0  0
  1 38  1  0  0  0  0
  3  8  1  6  0  0  0
  3  2  1  0  0  0  0
  4  5  1  6  0  0  0
  4  3  1  0  0  0  0
  7  4  1  0  0  0  0
  7  6  2  0  0  0  0
  9 17  2  0  0  0  0
  9 18  1  0  0  0  0
 11 13  2  0  0  0  0
 11 16  1  0  0  0  0
 12 10  2  0  0  0  0
 12 15  1  0  0  0  0
 13 14  1  0  0  0  0
 14 15  2  0  0  0  0
 16  8  1  6  0  0  0
 16 12  1  0  0  0  0
 17 11  1  0  0  0  0
 18 13  1  0  0  0  0
 19 20  1  0  0  0  0
 19  9  1  0  0  0  0
 21 22  1  0  0  0  0
 22 23  1  0  0  0  0
 23 25  1  0  0  0  0
 24 23  2  0  0  0  0
 25 26  1  1  0  0  0
 25 27  1  0  0  0  0
 27 33  1  0  0  0  0
 27 34  1  1  0  0  0
 29 28  2  0  0  0  0
 30 28  1  0  0  0  0
 31 32  2  0  0  0  0
 31 33  1  0  0  0  0
 32 29  1  0  0  0  0
 33 30  2  0  0  0  0
 34 36  1  0  0  0  0
 35 36  1  0  0  0  0
 36 37  2  0  0  0  0
 39 38  1  0  0  0  0
 39 40  2  0  0  0  0
 41 40  1  0  0  0  0
 41 42  1  0  0  0  0
 42 43  1  0  0  0  0
 44 45  1  0  0  0  0
 44 43  1  0  0  0  0
 46 45  1  0  0  0  0
 47 46  1  0  0  0  0
M  END
>  <MODEL>
3

>  <REMARK>
 VINA RESULT:      -7.2      2.838     10.238
  Name = 
  23 active torsions:
  status: ('A' for Active; 'I' for Inactive)
    1  A    between atoms: C_1  and  C_4
    2  A    between atoms: C_2  and  C_12
    3  A    between atoms: C_2  and  O_22
    4  A    between atoms: C_2  and  C_41
    5  A    between atoms: N_3  and  C_19
    6  A    between atoms: N_3  and  C_33
    7  A    between atoms: C_5  and  C_6
    8  A    between atoms: C_6  and  C_30
    9  A    between atoms: C_8  and  C_25
   10  A    between atoms: C_8  and  C_34
   11  A    between atoms: C_10  and  C_19
   12  A    between atoms: C_10  and  C_47
   13  A    between atoms: C_12  and  C_36
   14  A    between atoms: C_16  and  C_33
   15  A    between atoms: C_17  and  C_30
   16  A    between atoms: C_17  and  C_31
   17  A    between atoms: O_22  and  C_26
   18  A    between atoms: C_25  and  C_35
   19  A    between atoms: C_25  and  C_40
   20  A    between atoms: C_30  and  C_35
   21  A    between atoms: C_31  and  C_36
   22  A    between atoms: C_40  and  C_45
   23  A    between atoms: C_42  and  C_47
                            x       y       z     vdW  Elec       q    Type
                         _______ _______ _______ _____ _____    ______ ____

>  <TORSDO>
F 23

$$$$
=
 OpenBabel11042411473D

 47 49  0  0  1  0  0  0  0  0999 V2000
  187.6900  177.8910  141.1750 C   0  0  2  0  0  3  0  0  0  0  0  0
  188.9600  178.3030  141.9300 C   0  0  0  0  0  2  0  0  0  0  0  0
  189.3630  177.2740  142.9960 C   0  0  1  0  0  3  0  0  0  0  0  0
  190.6930  176.5850  142.6100 C   0  0  1  0  0  3  0  0  0  0  0  0
  191.5010  177.3400  141.5640 C   0  0  0  0  0  1  0  0  0  0  0  0
  191.9770  175.2100  144.0610 O   0  0  0  0  0  0  0  0  0  0  0  0
  191.5500  176.3300  143.8170 C   0  0  0  0  0  3  0  0  0  0  0  0
  189.4100  178.0070  144.3380 C   0  0  0  0  0  2  0  0  0  0  0  0
  185.3000  178.8070  145.2290 C   0  0  0  0  0  0  0  0  0  0  0  0
  190.5750  177.3020  147.0070 O   0  0  0  0  0  0  0  0  0  0  0  0
  187.2550  177.9210  145.6020 C   0  0  0  0  0  0  0  0  0  0  0  0
  189.3290  177.4500  146.8980 C   0  0  0  0  0  0  0  0  0  0  0  0
  186.5790  178.1060  146.7760 C   0  0  0  0  0  0  0  0  0  0  0  0
  187.1920  177.8360  148.0850 C   0  0  0  0  0  3  0  0  0  0  0  0
  188.4990  177.5350  148.1350 C   0  0  0  0  0  3  0  0  0  0  0  0
  188.6570  177.3930  145.5290 C   0  0  2  0  0  3  0  0  0  0  0  0
  186.4480  178.3660  144.5810 C   0  0  0  0  0  3  0  0  0  0  0  0
  185.3780  178.6770  146.5730 N   0  0  0  0  0  2  0  0  0  0  0  0
  184.2360  179.6030  144.5330 C   0  0  0  0  0  2  0  0  0  0  0  0
  182.9480  178.8030  144.3940 C   0  0  0  0  0  1  0  0  0  0  0  0
  187.9990  177.4120  139.7510 C   0  0  0  0  0  2  0  0  0  0  0  0
  188.9300  178.3410  138.9880 C   0  0  0  0  0  2  0  0  0  0  0  0
  188.5810  178.4380  137.5320 C   0  0  0  0  0  0  0  0  0  0  0  0
  187.8170  179.3180  137.1660 O   0  0  0  0  0  0  0  0  0  0  0  0
  189.2780  177.5760  136.5100 C   0  0  2  0  0  3  0  0  0  0  0  0
  189.3880  178.2760  135.3070 O   0  0  0  0  0  1  0  0  0  0  0  0
  188.5510  176.2370  136.3050 C   0  0  2  0  0  3  0  0  0  0  0  0
  185.2310  177.2020  134.8510 C   0  0  0  0  0  3  0  0  0  0  0  0
  184.3380  176.7770  135.8340 C   0  0  0  0  0  3  0  0  0  0  0  0
  186.5650  176.9980  135.0000 N   0  0  0  0  0  0  0  0  0  0  0  0
  186.2080  175.9370  137.1120 C   0  0  0  0  0  3  0  0  0  0  0  0
  184.8340  176.1450  136.9740 C   0  0  0  0  0  3  0  0  0  0  0  0
  187.0710  176.3690  136.1020 C   0  0  0  0  0  0  0  0  0  0  0  0
  188.8770  175.2600  137.3050 O   0  0  0  0  0  0  0  0  0  0  0  0
  191.1530  174.7960  138.0640 N   0  0  0  0  0  1  0  0  0  0  0  0
  190.0170  174.4450  137.2810 C   0  0  0  0  0  0  0  0  0  0  0  0
  190.0510  173.4030  136.5730 O   0  0  0  0  0  0  0  0  0  0  0  0
  186.6340  178.9880  141.2330 C   0  0  0  0  0  2  0  0  0  0  0  0
  185.3130  178.5220  140.6990 C   0  0  0  0  0  3  0  0  0  0  0  0
  184.6930  179.1900  139.7250 C   0  0  0  0  0  3  0  0  0  0  0  0
  183.4040  178.6910  139.1490 C   0  0  0  0  0  2  0  0  0  0  0  0
  182.9010  177.4890  139.9330 C   0  0  0  0  0  2  0  0  0  0  0  0
  181.5090  177.7640  140.4900 C   0  0  0  0  0  2  0  0  0  0  0  0
  180.4860  177.1810  139.6330 N   0  0  0  0  0  2  0  0  0  0  0  0
  180.2590  175.8130  140.0800 C   0  0  0  0  0  2  0  0  0  0  0  0
  179.2990  175.1010  139.1450 C   0  0  0  0  0  2  0  0  0  0  0  0
  179.7830  173.7580  138.8640 N   0  0  0  0  0  1  0  0  0  0  0  0
  1 21  1  6  0  0  0
  1 38  1  0  0  0  0
  1  2  1  0  0  0  0
  3  2  1  6  0  0  0
  3  8  1  0  0  0  0
  4  5  1  6  0  0  0
  4  3  1  0  0  0  0
  4  7  1  0  0  0  0
  7  6  2  0  0  0  0
  9 18  1  0  0  0  0
 11 13  2  0  0  0  0
 12 10  2  0  0  0  0
 12 15  1  0  0  0  0
 13 14  1  0  0  0  0
 14 15  2  0  0  0  0
 16  8  1  6  0  0  0
 16 11  1  0  0  0  0
 16 12  1  0  0  0  0
 17  9  2  0  0  0  0
 17 11  1  0  0  0  0
 18 13  1  0  0  0  0
 19  9  1  0  0  0  0
 20 19  1  0  0  0  0
 22 21  1  0  0  0  0
 23 22  1  0  0  0  0
 24 23  2  0  0  0  0
 25 26  1  6  0  0  0
 25 23  1  0  0  0  0
 27 25  1  0  0  0  0
 27 34  1  1  0  0  0
 28 30  2  0  0  0  0
 28 29  1  0  0  0  0
 29 32  2  0  0  0  0
 30 33  1  0  0  0  0
 32 31  1  0  0  0  0
 33 27  1  0  0  0  0
 33 31  2  0  0  0  0
 36 34  1  0  0  0  0
 36 35  1  0  0  0  0
 37 36  2  0  0  0  0
 39 38  1  0  0  0  0
 40 39  2  0  0  0  0
 41 40  1  0  0  0  0
 41 42  1  0  0  0  0
 42 43  1  0  0  0  0
 44 45  1  0  0  0  0
 44 43  1  0  0  0  0
 46 45  1  0  0  0  0
 47 46  1  0  0  0  0
M  END
>  <MODEL>
4

>  <REMARK>
 VINA RESULT:      -6.9      2.597      6.533
  Name = 
  23 active torsions:
  status: ('A' for Active; 'I' for Inactive)
    1  A    between atoms: C_1  and  C_4
    2  A    between atoms: C_2  and  C_12
    3  A    between atoms: C_2  and  O_22
    4  A    between atoms: C_2  and  C_41
    5  A    between atoms: N_3  and  C_19
    6  A    between atoms: N_3  and  C_33
    7  A    between atoms: C_5  and  C_6
    8  A    between atoms: C_6  and  C_30
    9  A    between atoms: C_8  and  C_25
   10  A    between atoms: C_8  and  C_34
   11  A    between atoms: C_10  and  C_19
   12  A    between atoms: C_10  and  C_47
   13  A    between atoms: C_12  and  C_36
   14  A    between atoms: C_16  and  C_33
   15  A    between atoms: C_17  and  C_30
   16  A    between atoms: C_17  and  C_31
   17  A    between atoms: O_22  and  C_26
   18  A    between atoms: C_25  and  C_35
   19  A    between atoms: C_25  and  C_40
   20  A    between atoms: C_30  and  C_35
   21  A    between atoms: C_31  and  C_36
   22  A    between atoms: C_40  and  C_45
   23  A    between atoms: C_42  and  C_47
                            x       y       z     vdW  Elec       q    Type
                         _______ _______ _______ _____ _____    ______ ____

>  <TORSDO>
F 23

$$$$
=
 OpenBabel11042411473D

 47 49  0  0  1  0  0  0  0  0999 V2000
  187.9140  177.9610  141.3950 C   0  0  2  0  0  3  0  0  0  0  0  0
  189.1650  178.4940  142.1050 C   0  0  0  0  0  2  0  0  0  0  0  0
  189.6480  177.5520  143.2170 C   0  0  1  0  0  3  0  0  0  0  0  0
  191.1180  177.1360  142.9730 C   0  0  1  0  0  3  0  0  0  0  0  0
  191.5430  175.8870  143.7340 C   0  0  0  0  0  1  0  0  0  0  0  0
  192.2620  177.6130  140.9460 O   0  0  0  0  0  0  0  0  0  0  0  0
  191.4010  176.9510  141.5100 C   0  0  0  0  0  3  0  0  0  0  0  0
  189.4190  178.2680  144.5490 C   0  0  0  0  0  2  0  0  0  0  0  0
  185.2680  178.7960  145.4530 C   0  0  0  0  0  0  0  0  0  0  0  0
  190.5880  177.3640  147.1550 O   0  0  0  0  0  0  0  0  0  0  0  0
  187.2570  177.9650  145.7670 C   0  0  0  0  0  0  0  0  0  0  0  0
  189.3380  177.4650  147.0430 C   0  0  0  0  0  0  0  0  0  0  0  0
  186.5630  178.0070  146.9450 C   0  0  0  0  0  0  0  0  0  0  0  0
  187.1740  177.6400  148.2300 C   0  0  0  0  0  3  0  0  0  0  0  0
  188.4930  177.3940  148.2700 C   0  0  0  0  0  3  0  0  0  0  0  0
  188.6830  177.5100  145.6650 C   0  0  2  0  0  3  0  0  0  0  0  0
  186.4410  178.4700  144.7830 C   0  0  0  0  0  3  0  0  0  0  0  0
  185.3390  178.5410  146.7800 N   0  0  0  0  0  2  0  0  0  0  0  0
  184.1760  179.6060  144.8210 C   0  0  0  0  0  2  0  0  0  0  0  0
  183.0170  178.7230  144.3770 C   0  0  0  0  0  1  0  0  0  0  0  0
  188.2150  177.5140  139.9590 C   0  0  0  0  0  2  0  0  0  0  0  0
  189.0210  178.5290  139.1650 C   0  0  0  0  0  2  0  0  0  0  0  0
  188.6910  178.5100  137.7020 C   0  0  0  0  0  0  0  0  0  0  0  0
  187.8190  179.2580  137.2840 O   0  0  0  0  0  0  0  0  0  0  0  0
  189.5210  177.7090  136.7320 C   0  0  2  0  0  3  0  0  0  0  0  0
  189.0080  177.8610  135.4420 O   0  0  0  0  0  1  0  0  0  0  0  0
  189.5840  176.2240  137.1290 C   0  0  2  0  0  3  0  0  0  0  0  0
  193.2670  176.1120  137.8300 C   0  0  0  0  0  3  0  0  0  0  0  0
  193.5820  174.7780  137.5720 C   0  0  0  0  0  3  0  0  0  0  0  0
  191.9880  176.5520  137.7130 N   0  0  0  0  0  0  0  0  0  0  0  0
  191.2530  174.3680  137.0760 C   0  0  0  0  0  3  0  0  0  0  0  0
  192.5650  173.9040  137.1870 C   0  0  0  0  0  3  0  0  0  0  0  0
  190.9760  175.7090  137.3510 C   0  0  0  0  0  0  0  0  0  0  0  0
  188.8240  175.3760  136.2560 O   0  0  0  0  0  0  0  0  0  0  0  0
  187.5030  173.4500  136.9750 N   0  0  0  0  0  1  0  0  0  0  0  0
  187.5810  174.8130  136.5750 C   0  0  0  0  0  0  0  0  0  0  0  0
  186.5260  175.5010  136.5090 O   0  0  0  0  0  0  0  0  0  0  0  0
  186.7590  178.9510  141.4950 C   0  0  0  0  0  2  0  0  0  0  0  0
  185.4300  178.2800  141.3180 C   0  0  0  0  0  3  0  0  0  0  0  0
  184.3690  178.9640  140.8880 C   0  0  0  0  0  3  0  0  0  0  0  0
  183.0570  178.2830  140.6510 C   0  0  0  0  0  2  0  0  0  0  0  0
  183.2010  177.2080  139.5840 C   0  0  0  0  0  2  0  0  0  0  0  0
  182.0390  176.2240  139.6620 C   0  0  0  0  0  2  0  0  0  0  0  0
  181.6880  175.7350  138.3360 N   0  0  0  0  0  2  0  0  0  0  0  0
  182.9280  175.4660  137.6200 C   0  0  0  0  0  2  0  0  0  0  0  0
  182.9820  174.0140  137.1790 C   0  0  0  0  0  2  0  0  0  0  0  0
  181.6360  173.5160  136.9450 N   0  0  0  0  0  1  0  0  0  0  0  0
  1 21  1  6  0  0  0
  1 38  1  0  0  0  0
  1  2  1  0  0  0  0
  3  2  1  6  0  0  0
  3  8  1  0  0  0  0
  4  3  1  0  0  0  0
  4  5  1  1  0  0  0
  6  7  2  0  0  0  0
  7  4  1  0  0  0  0
  9 18  1  0  0  0  0
 11 13  2  0  0  0  0
 12 10  2  0  0  0  0
 12 15  1  0  0  0  0
 13 14  1  0  0  0  0
 14 15  2  0  0  0  0
 16  8  1  6  0  0  0
 16 11  1  0  0  0  0
 16 12  1  0  0  0  0
 17  9  2  0  0  0  0
 17 11  1  0  0  0  0
 18 13  1  0  0  0  0
 19  9  1  0  0  0  0
 20 19  1  0  0  0  0
 22 21  1  0  0  0  0
 23 22  1  0  0  0  0
 24 23  2  0  0  0  0
 25 26  1  6  0  0  0
 25 27  1  0  0  0  0
 25 23  1  0  0  0  0
 27 34  1  6  0  0  0
 27 33  1  0  0  0  0
 29 28  2  0  0  0  0
 30 28  1  0  0  0  0
 31 32  2  0  0  0  0
 31 33  1  0  0  0  0
 32 29  1  0  0  0  0
 33 30  2  0  0  0  0
 34 36  1  0  0  0  0
 36 35  1  0  0  0  0
 37 36  2  0  0  0  0
 39 38  1  0  0  0  0
 40 39  2  0  0  0  0
 41 40  1  0  0  0  0
 42 43  1  0  0  0  0
 42 41  1  0  0  0  0
 44 43  1  0  0  0  0
 45 44  1  0  0  0  0
 46 45  1  0  0  0  0
 47 46  1  0  0  0  0
M  END
>  <MODEL>
5

>  <REMARK>
 VINA RESULT:      -6.9      2.421      6.441
  Name = 
  23 active torsions:
  status: ('A' for Active; 'I' for Inactive)
    1  A    between atoms: C_1  and  C_4
    2  A    between atoms: C_2  and  C_12
    3  A    between atoms: C_2  and  O_22
    4  A    between atoms: C_2  and  C_41
    5  A    between atoms: N_3  and  C_19
    6  A    between atoms: N_3  and  C_33
    7  A    between atoms: C_5  and  C_6
    8  A    between atoms: C_6  and  C_30
    9  A    between atoms: C_8  and  C_25
   10  A    between atoms: C_8  and  C_34
   11  A    between atoms: C_10  and  C_19
   12  A    between atoms: C_10  and  C_47
   13  A    between atoms: C_12  and  C_36
   14  A    between atoms: C_16  and  C_33
   15  A    between atoms: C_17  and  C_30
   16  A    between atoms: C_17  and  C_31
   17  A    between atoms: O_22  and  C_26
   18  A    between atoms: C_25  and  C_35
   19  A    between atoms: C_25  and  C_40
   20  A    between atoms: C_30  and  C_35
   21  A    between atoms: C_31  and  C_36
   22  A    between atoms: C_40  and  C_45
   23  A    between atoms: C_42  and  C_47
                            x       y       z     vdW  Elec       q    Type
                         _______ _______ _______ _____ _____    ______ ____

>  <TORSDO>
F 23

$$$$
=
 OpenBabel11042411473D

 47 49  0  0  1  0  0  0  0  0999 V2000
  186.8700  178.2130  141.0680 C   0  0  2  0  0  3  0  0  0  0  0  0
  188.0020  178.3100  142.0990 C   0  0  0  0  0  2  0  0  0  0  0  0
  188.5310  176.9310  142.5150 C   0  0  1  0  0  3  0  0  0  0  0  0
  190.0770  176.9260  142.5310 C   0  0  1  0  0  3  0  0  0  0  0  0
  190.6890  175.5960  142.9520 C   0  0  0  0  0  1  0  0  0  0  0  0
  191.8430  177.5170  141.0560 O   0  0  0  0  0  0  0  0  0  0  0  0
  190.6420  177.3390  141.2020 C   0  0  0  0  0  3  0  0  0  0  0  0
  187.8940  176.5890  143.8640 C   0  0  0  0  0  2  0  0  0  0  0  0
  190.4450  177.1360  147.2570 C   0  0  0  0  0  0  0  0  0  0  0  0
  185.3030  177.8140  144.7370 O   0  0  0  0  0  0  0  0  0  0  0  0
  188.7320  177.5960  145.9920 C   0  0  0  0  0  0  0  0  0  0  0  0
  186.3230  177.9450  145.4640 C   0  0  0  0  0  0  0  0  0  0  0  0
  188.4880  177.9690  147.2850 C   0  0  0  0  0  0  0  0  0  0  0  0
  187.1840  178.4910  147.7190 C   0  0  0  0  0  3  0  0  0  0  0  0
  186.1590  178.4670  146.8520 C   0  0  0  0  0  3  0  0  0  0  0  0
  187.7200  177.7170  144.8930 C   0  0  2  0  0  3  0  0  0  0  0  0
  189.9950  177.0530  145.9460 C   0  0  0  0  0  3  0  0  0  0  0  0
  189.5230  177.6700  148.0910 N   0  0  0  0  0  2  0  0  0  0  0  0
  191.6870  176.4400  147.7300 C   0  0  0  0  0  2  0  0  0  0  0  0
  192.2160  175.4770  146.6760 C   0  0  0  0  0  1  0  0  0  0  0  0
  187.4060  178.1430  139.6330 C   0  0  0  0  0  2  0  0  0  0  0  0
  186.3260  178.3020  138.5750 C   0  0  0  0  0  2  0  0  0  0  0  0
  186.4850  177.3360  137.4380 C   0  0  0  0  0  0  0  0  0  0  0  0
  185.4830  176.8930  136.8960 O   0  0  0  0  0  0  0  0  0  0  0  0
  187.8450  177.0370  136.8610 C   0  0  2  0  0  3  0  0  0  0  0  0
  187.7960  177.1470  135.4710 O   0  0  0  0  0  1  0  0  0  0  0  0
  188.3500  175.6480  137.2870 C   0  0  2  0  0  3  0  0  0  0  0  0
  191.8020  174.2060  137.5620 C   0  0  0  0  0  3  0  0  0  0  0  0
  192.5950  175.3460  137.6810 C   0  0  0  0  0  3  0  0  0  0  0  0
  190.4570  174.3160  137.4080 N   0  0  0  0  0  0  0  0  0  0  0  0
  190.6050  176.7010  137.4820 C   0  0  0  0  0  3  0  0  0  0  0  0
  191.9880  176.6010  137.6450 C   0  0  0  0  0  3  0  0  0  0  0  0
  189.8440  175.5360  137.3580 C   0  0  0  0  0  0  0  0  0  0  0  0
  187.7600  174.5790  136.5330 O   0  0  0  0  0  0  0  0  0  0  0  0
  185.6820  173.6510  137.4230 N   0  0  0  0  0  1  0  0  0  0  0  0
  187.0580  173.5020  137.0910 C   0  0  0  0  0  0  0  0  0  0  0  0
  187.6310  172.3990  137.3040 O   0  0  0  0  0  0  0  0  0  0  0  0
  185.8360  179.3120  141.2790 C   0  0  0  0  0  2  0  0  0  0  0  0
  184.6550  178.8260  142.0660 C   0  0  0  0  0  3  0  0  0  0  0  0
  183.4180  178.9190  141.5750 C   0  0  0  0  0  3  0  0  0  0  0  0
  182.2460  178.3780  142.3330 C   0  0  0  0  0  2  0  0  0  0  0  0
  180.9770  179.1260  141.9540 C   0  0  0  0  0  2  0  0  0  0  0  0
  180.2920  178.4450  140.7750 C   0  0  0  0  0  2  0  0  0  0  0  0
  179.6310  179.4260  139.9250 N   0  0  0  0  0  2  0  0  0  0  0  0
  180.3180  180.6990  140.1010 C   0  0  0  0  0  2  0  0  0  0  0  0
  180.3790  181.4560  138.7860 C   0  0  0  0  0  2  0  0  0  0  0  0
  181.7590  181.7770  138.4620 N   0  0  0  0  0  1  0  0  0  0  0  0
  1 21  1  6  0  0  0
  1 38  1  0  0  0  0
  1  2  1  0  0  0  0
  3  2  1  1  0  0  0
  3  4  1  0  0  0  0
  3  8  1  0  0  0  0
  4  5  1  6  0  0  0
  6  7  2  0  0  0  0
  7  4  1  0  0  0  0
  9 19  1  0  0  0  0
  9 18  1  0  0  0  0
 10 12  2  0  0  0  0
 11 13  2  0  0  0  0
 12 15  1  0  0  0  0
 13 14  1  0  0  0  0
 13 18  1  0  0  0  0
 15 14  2  0  0  0  0
 16  8  1  1  0  0  0
 16 12  1  0  0  0  0
 16 11  1  0  0  0  0
 17 11  1  0  0  0  0
 17  9  2  0  0  0  0
 20 19  1  0  0  0  0
 22 21  1  0  0  0  0
 23 22  1  0  0  0  0
 24 23  2  0  0  0  0
 25 26  1  6  0  0  0
 25 27  1  0  0  0  0
 25 23  1  0  0  0  0
 27 34  1  6  0  0  0
 27 33  1  0  0  0  0
 28 29  1  0  0  0  0
 30 28  2  0  0  0  0
 31 32  1  0  0  0  0
 32 29  2  0  0  0  0
 33 30  1  0  0  0  0
 33 31  2  0  0  0  0
 34 36  1  0  0  0  0
 36 37  2  0  0  0  0
 36 35  1  0  0  0  0
 38 39  1  0  0  0  0
 40 39  2  0  0  0  0
 40 41  1  0  0  0  0
 42 41  1  0  0  0  0
 43 42  1  0  0  0  0
 44 45  1  0  0  0  0
 44 43  1  0  0  0  0
 46 45  1  0  0  0  0
 47 46  1  0  0  0  0
M  END
>  <MODEL>
6

>  <REMARK>
 VINA RESULT:      -6.7      2.746      7.464
  Name = 
  23 active torsions:
  status: ('A' for Active; 'I' for Inactive)
    1  A    between atoms: C_1  and  C_4
    2  A    between atoms: C_2  and  C_12
    3  A    between atoms: C_2  and  O_22
    4  A    between atoms: C_2  and  C_41
    5  A    between atoms: N_3  and  C_19
    6  A    between atoms: N_3  and  C_33
    7  A    between atoms: C_5  and  C_6
    8  A    between atoms: C_6  and  C_30
    9  A    between atoms: C_8  and  C_25
   10  A    between atoms: C_8  and  C_34
   11  A    between atoms: C_10  and  C_19
   12  A    between atoms: C_10  and  C_47
   13  A    between atoms: C_12  and  C_36
   14  A    between atoms: C_16  and  C_33
   15  A    between atoms: C_17  and  C_30
   16  A    between atoms: C_17  and  C_31
   17  A    between atoms: O_22  and  C_26
   18  A    between atoms: C_25  and  C_35
   19  A    between atoms: C_25  and  C_40
   20  A    between atoms: C_30  and  C_35
   21  A    between atoms: C_31  and  C_36
   22  A    between atoms: C_40  and  C_45
   23  A    between atoms: C_42  and  C_47
                            x       y       z     vdW  Elec       q    Type
                         _______ _______ _______ _____ _____    ______ ____

>  <TORSDO>
F 23

$$$$
=
 OpenBabel11042411473D

 47 49  0  0  1  0  0  0  0  0999 V2000
  186.7320  178.2270  141.3360 C   0  0  2  0  0  3  0  0  0  0  0  0
  187.9460  178.2660  142.2720 C   0  0  0  0  0  2  0  0  0  0  0  0
  188.4870  176.8640  142.5830 C   0  0  1  0  0  3  0  0  0  0  0  0
  190.0080  176.7960  142.3070 C   0  0  1  0  0  3  0  0  0  0  0  0
  190.7820  178.0130  142.7960 C   0  0  0  0  0  1  0  0  0  0  0  0
  191.5030  175.6120  143.7250 O   0  0  0  0  0  0  0  0  0  0  0  0
  190.6150  175.5500  142.8860 C   0  0  0  0  0  3  0  0  0  0  0  0
  188.1030  176.5400  144.0280 C   0  0  0  0  0  2  0  0  0  0  0  0
  190.4770  177.2530  147.5180 C   0  0  0  0  0  0  0  0  0  0  0  0
  185.4630  177.7760  144.7190 O   0  0  0  0  0  0  0  0  0  0  0  0
  188.8260  177.6430  146.1510 C   0  0  0  0  0  0  0  0  0  0  0  0
  186.4440  177.9470  145.4890 C   0  0  0  0  0  0  0  0  0  0  0  0
  188.5150  178.0670  147.4130 C   0  0  0  0  0  0  0  0  0  0  0  0
  187.1870  178.5950  147.7590 C   0  0  0  0  0  3  0  0  0  0  0  0
  186.2070  178.5250  146.8450 C   0  0  0  0  0  3  0  0  0  0  0  0
  187.8690  177.7080  144.9980 C   0  0  2  0  0  3  0  0  0  0  0  0
  190.0940  177.1110  146.1900 C   0  0  0  0  0  3  0  0  0  0  0  0
  189.5110  177.8130  148.2820 N   0  0  0  0  0  2  0  0  0  0  0  0
  191.6980  176.5890  148.0810 C   0  0  0  0  0  2  0  0  0  0  0  0
  192.2640  175.5580  147.1120 C   0  0  0  0  0  1  0  0  0  0  0  0
  187.1430  178.2620  139.8600 C   0  0  0  0  0  2  0  0  0  0  0  0
  188.5970  178.6520  139.6450 C   0  0  0  0  0  2  0  0  0  0  0  0
  189.3180  177.7080  138.7290 C   0  0  0  0  0  0  0  0  0  0  0  0
  189.5490  176.5720  139.1160 O   0  0  0  0  0  0  0  0  0  0  0  0
  189.6130  178.0890  137.3010 C   0  0  2  0  0  3  0  0  0  0  0  0
  189.0960  179.3590  137.0410 O   0  0  0  0  0  1  0  0  0  0  0  0
  189.0570  177.0530  136.3090 C   0  0  2  0  0  3  0  0  0  0  0  0
  186.0050  175.0470  137.1660 C   0  0  0  0  0  3  0  0  0  0  0  0
  184.9690  175.9200  136.8370 C   0  0  0  0  0  3  0  0  0  0  0  0
  187.2990  175.4290  137.0200 N   0  0  0  0  0  0  0  0  0  0  0  0
  186.6160  177.5740  136.2130 C   0  0  0  0  0  3  0  0  0  0  0  0
  185.2810  177.1900  136.3530 C   0  0  0  0  0  3  0  0  0  0  0  0
  187.6270  176.6730  136.5610 C   0  0  0  0  0  0  0  0  0  0  0  0
  189.9050  175.9060  136.1590 O   0  0  0  0  0  0  0  0  0  0  0  0
  191.8180  175.7260  134.6490 N   0  0  0  0  0  1  0  0  0  0  0  0
  191.2900  175.9600  135.9500 C   0  0  0  0  0  0  0  0  0  0  0  0
  192.0770  176.2120  136.9020 O   0  0  0  0  0  0  0  0  0  0  0  0
  185.7130  179.2970  141.7100 C   0  0  0  0  0  2  0  0  0  0  0  0
  184.3100  178.7700  141.6770 C   0  0  0  0  0  3  0  0  0  0  0  0
  183.6850  178.5520  140.5190 C   0  0  0  0  0  3  0  0  0  0  0  0
  182.3070  177.9680  140.4840 C   0  0  0  0  0  2  0  0  0  0  0  0
  182.2610  176.7710  139.5460 C   0  0  0  0  0  2  0  0  0  0  0  0
  181.6800  177.1780  138.1960 C   0  0  0  0  0  2  0  0  0  0  0  0
  180.8430  178.3630  138.3310 N   0  0  0  0  0  2  0  0  0  0  0  0
  180.1320  178.5500  137.0730 C   0  0  0  0  0  2  0  0  0  0  0  0
  179.8280  180.0200  136.8490 C   0  0  0  0  0  2  0  0  0  0  0  0
  180.6200  180.8350  137.7560 N   0  0  0  0  0  1  0  0  0  0  0  0
  1 21  1  6  0  0  0
  1 38  1  0  0  0  0
  1  2  1  0  0  0  0
  3  2  1  1  0  0  0
  3  8  1  0  0  0  0
  4  3  1  0  0  0  0
  4  5  1  1  0  0  0
  4  7  1  0  0  0  0
  7  6  2  0  0  0  0
  9 19  1  0  0  0  0
  9 18  1  0  0  0  0
 10 12  2  0  0  0  0
 11 17  1  0  0  0  0
 11 13  2  0  0  0  0
 12 15  1  0  0  0  0
 13 14  1  0  0  0  0
 13 18  1  0  0  0  0
 15 14  2  0  0  0  0
 16  8  1  1  0  0  0
 16 12  1  0  0  0  0
 16 11  1  0  0  0  0
 17  9  2  0  0  0  0
 20 19  1  0  0  0  0
 22 21  1  0  0  0  0
 23 24  2  0  0  0  0
 23 22  1  0  0  0  0
 25 26  1  6  0  0  0
 25 23  1  0  0  0  0
 27 34  1  1  0  0  0
 27 33  1  0  0  0  0
 27 25  1  0  0  0  0
 29 28  2  0  0  0  0
 30 28  1  0  0  0  0
 31 32  2  0  0  0  0
 31 33  1  0  0  0  0
 32 29  1  0  0  0  0
 33 30  2  0  0  0  0
 35 36  1  0  0  0  0
 36 34  1  0  0  0  0
 36 37  2  0  0  0  0
 39 38  1  0  0  0  0
 40 39  2  0  0  0  0
 41 40  1  0  0  0  0
 42 41  1  0  0  0  0
 43 44  1  0  0  0  0
 43 42  1  0  0  0  0
 45 44  1  0  0  0  0
 46 45  1  0  0  0  0
 46 47  1  0  0  0  0
M  END
>  <MODEL>
7

>  <REMARK>
 VINA RESULT:      -6.4      2.932      7.231
  Name = 
  23 active torsions:
  status: ('A' for Active; 'I' for Inactive)
    1  A    between atoms: C_1  and  C_4
    2  A    between atoms: C_2  and  C_12
    3  A    between atoms: C_2  and  O_22
    4  A    between atoms: C_2  and  C_41
    5  A    between atoms: N_3  and  C_19
    6  A    between atoms: N_3  and  C_33
    7  A    between atoms: C_5  and  C_6
    8  A    between atoms: C_6  and  C_30
    9  A    between atoms: C_8  and  C_25
   10  A    between atoms: C_8  and  C_34
   11  A    between atoms: C_10  and  C_19
   12  A    between atoms: C_10  and  C_47
   13  A    between atoms: C_12  and  C_36
   14  A    between atoms: C_16  and  C_33
   15  A    between atoms: C_17  and  C_30
   16  A    between atoms: C_17  and  C_31
   17  A    between atoms: O_22  and  C_26
   18  A    between atoms: C_25  and  C_35
   19  A    between atoms: C_25  and  C_40
   20  A    between atoms: C_30  and  C_35
   21  A    between atoms: C_31  and  C_36
   22  A    between atoms: C_40  and  C_45
   23  A    between atoms: C_42  and  C_47
                            x       y       z     vdW  Elec       q    Type
                         _______ _______ _______ _____ _____    ______ ____

>  <TORSDO>
F 23

$$$$
=
 OpenBabel11042411473D

 47 49  0  0  1  0  0  0  0  0999 V2000
  183.4860  178.2960  138.2510 C   0  0  2  0  0  3  0  0  0  0  0  0
  182.3470  177.2890  138.4550 C   0  0  0  0  0  2  0  0  0  0  0  0
  181.3540  177.2890  137.2850 C   0  0  1  0  0  3  0  0  0  0  0  0
  181.6730  176.1380  136.3030 C   0  0  1  0  0  3  0  0  0  0  0  0
  182.5750  176.5430  135.1440 C   0  0  0  0  0  1  0  0  0  0  0  0
  183.3700  174.5230  136.6990 O   0  0  0  0  0  0  0  0  0  0  0  0
  182.2710  174.9580  137.0140 C   0  0  0  0  0  3  0  0  0  0  0  0
  179.9480  177.2220  137.8840 C   0  0  0  0  0  2  0  0  0  0  0  0
  180.3120  181.3080  136.6620 C   0  0  0  0  0  0  0  0  0  0  0  0
  179.8980  177.3930  140.8750 O   0  0  0  0  0  0  0  0  0  0  0  0
  179.7870  179.7110  138.0470 C   0  0  0  0  0  0  0  0  0  0  0  0
  179.8480  178.4520  140.1960 C   0  0  0  0  0  0  0  0  0  0  0  0
  180.0820  180.8600  138.7280 C   0  0  0  0  0  0  0  0  0  0  0  0
  180.1360  180.9100  140.1960 C   0  0  0  0  0  3  0  0  0  0  0  0
  180.0350  179.7630  140.8850 C   0  0  0  0  0  3  0  0  0  0  0  0
  179.4560  178.4130  138.7210 C   0  0  2  0  0  3  0  0  0  0  0  0
  179.9280  179.9730  136.7050 C   0  0  0  0  0  3  0  0  0  0  0  0
  180.4340  181.8550  137.8930 N   0  0  0  0  0  2  0  0  0  0  0  0
  180.8150  181.9630  135.4100 C   0  0  0  0  0  2  0  0  0  0  0  0
  179.9010  183.1010  134.9750 C   0  0  0  0  0  1  0  0  0  0  0  0
  184.8070  177.6040  137.8930 C   0  0  0  0  0  2  0  0  0  0  0  0
  186.0160  178.5210  137.9890 C   0  0  0  0  0  2  0  0  0  0  0  0
  187.2860  177.7730  138.2680 C   0  0  0  0  0  0  0  0  0  0  0  0
  187.4990  176.7280  137.6700 O   0  0  0  0  0  0  0  0  0  0  0  0
  188.3580  178.3680  139.1440 C   0  0  2  0  0  3  0  0  0  0  0  0
  189.0470  179.3530  138.4340 O   0  0  0  0  0  1  0  0  0  0  0  0
  189.3230  177.2930  139.6720 C   0  0  2  0  0  3  0  0  0  0  0  0
  190.2520  176.2140  143.1430 C   0  0  0  0  0  3  0  0  0  0  0  0
  189.2550  176.8040  143.9180 C   0  0  0  0  0  3  0  0  0  0  0  0
  190.2790  176.4010  141.7980 N   0  0  0  0  0  0  0  0  0  0  0  0
  188.3240  177.7730  141.9100 C   0  0  0  0  0  3  0  0  0  0  0  0
  188.2830  177.5840  143.2930 C   0  0  0  0  0  3  0  0  0  0  0  0
  189.3440  177.1720  141.1680 C   0  0  0  0  0  0  0  0  0  0  0  0
  190.6420  177.4000  139.1170 O   0  0  0  0  0  0  0  0  0  0  0  0
  190.6760  175.1390  138.1910 N   0  0  0  0  0  1  0  0  0  0  0  0
  191.2350  176.4450  138.2800 C   0  0  0  0  0  0  0  0  0  0  0  0
  192.2610  176.7280  137.6040 O   0  0  0  0  0  0  0  0  0  0  0  0
  183.5990  179.2480  139.4360 C   0  0  0  0  0  2  0  0  0  0  0  0
  183.7190  178.5120  140.7370 C   0  0  0  0  0  3  0  0  0  0  0  0
  184.6870  178.8070  141.6050 C   0  0  0  0  0  3  0  0  0  0  0  0
  184.7710  178.1160  142.9310 C   0  0  0  0  0  2  0  0  0  0  0  0
  184.8780  179.1340  144.0560 C   0  0  0  0  0  2  0  0  0  0  0  0
  183.8340  178.8500  145.1290 C   0  0  0  0  0  2  0  0  0  0  0  0
  184.4670  178.6550  146.4260 N   0  0  0  0  0  2  0  0  0  0  0  0
  185.8060  179.2260  146.3560 C   0  0  0  0  0  2  0  0  0  0  0  0
  186.6870  178.6490  147.4500 C   0  0  0  0  0  2  0  0  0  0  0  0
  187.3760  177.4660  146.9590 N   0  0  0  0  0  1  0  0  0  0  0  0
  1 21  1  1  0  0  0
  1  2  1  0  0  0  0
  1 38  1  0  0  0  0
  3  8  1  1  0  0  0
  3  2  1  0  0  0  0
  4  5  1  6  0  0  0
  4  7  1  0  0  0  0
  4  3  1  0  0  0  0
  6  7  2  0  0  0  0
  9 17  2  0  0  0  0
  9 18  1  0  0  0  0
 11 16  1  0  0  0  0
 11 13  2  0  0  0  0
 12 10  2  0  0  0  0
 12 15  1  0  0  0  0
 13 14  1  0  0  0  0
 14 15  2  0  0  0  0
 16  8  1  6  0  0  0
 16 12  1  0  0  0  0
 17 11  1  0  0  0  0
 18 13  1  0  0  0  0
 19  9  1  0  0  0  0
 20 19  1  0  0  0  0
 21 22  1  0  0  0  0
 22 23  1  0  0  0  0
 23 25  1  0  0  0  0
 24 23  2  0  0  0  0
 25 26  1  6  0  0  0
 25 27  1  0  0  0  0
 27 34  1  1  0  0  0
 27 33  1  0  0  0  0
 28 29  1  0  0  0  0
 30 28  2  0  0  0  0
 31 32  1  0  0  0  0
 32 29  2  0  0  0  0
 33 30  1  0  0  0  0
 33 31  2  0  0  0  0
 35 36  1  0  0  0  0
 36 34  1  0  0  0  0
 37 36  2  0  0  0  0
 38 39  1  0  0  0  0
 39 40  2  0  0  0  0
 40 41  1  0  0  0  0
 41 42  1  0  0  0  0
 42 43  1  0  0  0  0
 43 44  1  0  0  0  0
 45 44  1  0  0  0  0
 45 46  1  0  0  0  0
 47 46  1  0  0  0  0
M  END
>  <MODEL>
8

>  <REMARK>
 VINA RESULT:      -6.3      2.860      9.696
  Name = 
  23 active torsions:
  status: ('A' for Active; 'I' for Inactive)
    1  A    between atoms: C_1  and  C_4
    2  A    between atoms: C_2  and  C_12
    3  A    between atoms: C_2  and  O_22
    4  A    between atoms: C_2  and  C_41
    5  A    between atoms: N_3  and  C_19
    6  A    between atoms: N_3  and  C_33
    7  A    between atoms: C_5  and  C_6
    8  A    between atoms: C_6  and  C_30
    9  A    between atoms: C_8  and  C_25
   10  A    between atoms: C_8  and  C_34
   11  A    between atoms: C_10  and  C_19
   12  A    between atoms: C_10  and  C_47
   13  A    between atoms: C_12  and  C_36
   14  A    between atoms: C_16  and  C_33
   15  A    between atoms: C_17  and  C_30
   16  A    between atoms: C_17  and  C_31
   17  A    between atoms: O_22  and  C_26
   18  A    between atoms: C_25  and  C_35
   19  A    between atoms: C_25  and  C_40
   20  A    between atoms: C_30  and  C_35
   21  A    between atoms: C_31  and  C_36
   22  A    between atoms: C_40  and  C_45
   23  A    between atoms: C_42  and  C_47
                            x       y       z     vdW  Elec       q    Type
                         _______ _______ _______ _____ _____    ______ ____

>  <TORSDO>
F 23

$$$$
=
 OpenBabel11042411473D

 47 49  0  0  1  0  0  0  0  0999 V2000
  189.1650  177.3940  140.5490 C   0  0  2  0  0  3  0  0  0  0  0  0
  189.5300  177.9810  141.9180 C   0  0  0  0  0  2  0  0  0  0  0  0
  188.8090  177.2660  143.0690 C   0  0  1  0  0  3  0  0  0  0  0  0
  189.8330  176.6290  144.0380 C   0  0  1  0  0  3  0  0  0  0  0  0
  191.2510  176.5660  143.4870 C   0  0  0  0  0  1  0  0  0  0  0  0
  189.4670  176.7600  146.3820 O   0  0  0  0  0  0  0  0  0  0  0  0
  189.8420  177.3290  145.3670 C   0  0  0  0  0  3  0  0  0  0  0  0
  187.8840  178.2900  143.7300 C   0  0  0  0  0  2  0  0  0  0  0  0
  184.6410  178.8200  140.9870 C   0  0  0  0  0  0  0  0  0  0  0  0
  186.5400  178.3170  146.4080 O   0  0  0  0  0  0  0  0  0  0  0  0
  185.5290  178.2520  142.8930 C   0  0  0  0  0  0  0  0  0  0  0  0
  185.8350  178.3020  145.3650 C   0  0  0  0  0  0  0  0  0  0  0  0
  184.2220  178.6170  143.0610 C   0  0  0  0  0  0  0  0  0  0  0  0
  183.5970  178.7070  144.3890 C   0  0  0  0  0  3  0  0  0  0  0  0
  184.3710  178.5670  145.4770 C   0  0  0  0  0  3  0  0  0  0  0  0
  186.4340  177.8750  144.0280 C   0  0  2  0  0  3  0  0  0  0  0  0
  185.8270  178.3740  141.5560 C   0  0  0  0  0  3  0  0  0  0  0  0
  183.6590  178.9970  141.9000 N   0  0  0  0  0  2  0  0  0  0  0  0
  184.5630  179.3250  139.5760 C   0  0  0  0  0  2  0  0  0  0  0  0
  184.2940  178.1900  138.5960 C   0  0  0  0  0  1  0  0  0  0  0  0
  190.1390  176.2890  140.1210 C   0  0  0  0  0  2  0  0  0  0  0  0
  191.2200  176.7710  139.1670 C   0  0  0  0  0  2  0  0  0  0  0  0
  191.3850  175.8700  137.9790 C   0  0  0  0  0  0  0  0  0  0  0  0
  190.8180  174.7870  137.9780 O   0  0  0  0  0  0  0  0  0  0  0  0
  192.1000  176.3450  136.7400 C   0  0  2  0  0  3  0  0  0  0  0  0
  191.1620  176.7480  135.7870 O   0  0  0  0  0  1  0  0  0  0  0  0
  193.0340  175.2640  136.1720 C   0  0  2  0  0  3  0  0  0  0  0  0
  195.4410  174.8890  139.0250 C   0  0  0  0  0  3  0  0  0  0  0  0
  195.7930  173.5420  138.9470 C   0  0  0  0  0  3  0  0  0  0  0  0
  194.5420  175.4170  138.1550 N   0  0  0  0  0  0  0  0  0  0  0  0
  194.2840  173.3000  137.0750 C   0  0  0  0  0  3  0  0  0  0  0  0
  195.2110  172.7460  137.9600 C   0  0  0  0  0  3  0  0  0  0  0  0
  193.9510  174.6520  137.1900 C   0  0  0  0  0  0  0  0  0  0  0  0
  193.7360  175.6880  134.9950 O   0  0  0  0  0  0  0  0  0  0  0  0
  195.0630  177.6990  135.4070 N   0  0  0  0  0  1  0  0  0  0  0  0
  194.9780  176.3390  134.9980 C   0  0  0  0  0  0  0  0  0  0  0  0
  196.0240  175.7320  134.6410 O   0  0  0  0  0  0  0  0  0  0  0  0
  188.9920  178.4910  139.5070 C   0  0  0  0  0  2  0  0  0  0  0  0
  188.1160  178.0530  138.3720 C   0  0  0  0  0  3  0  0  0  0  0  0
  188.0070  178.7890  137.2640 C   0  0  0  0  0  3  0  0  0  0  0  0
  187.1820  178.3210  136.1070 C   0  0  0  0  0  2  0  0  0  0  0  0
  187.5500  176.8930  135.7330 C   0  0  0  0  0  2  0  0  0  0  0  0
  186.4150  176.2400  134.9520 C   0  0  0  0  0  2  0  0  0  0  0  0
  186.0930  174.9320  135.5080 N   0  0  0  0  0  2  0  0  0  0  0  0
  185.5280  175.1410  136.8340 C   0  0  0  0  0  2  0  0  0  0  0  0
  184.5930  174.0000  137.1990 C   0  0  0  0  0  2  0  0  0  0  0  0
  185.3120  172.9970  137.9680 N   0  0  0  0  0  1  0  0  0  0  0  0
  1 38  1  6  0  0  0
  1  2  1  0  0  0  0
  3  2  1  6  0  0  0
  3  8  1  0  0  0  0
  3  4  1  0  0  0  0
  4  5  1  6  0  0  0
  4  7  1  0  0  0  0
  7  6  2  0  0  0  0
  9 17  2  0  0  0  0
  9 18  1  0  0  0  0
 11 13  2  0  0  0  0
 11 16  1  0  0  0  0
 12 15  1  0  0  0  0
 12 10  2  0  0  0  0
 13 14  1  0  0  0  0
 14 15  2  0  0  0  0
 16  8  1  6  0  0  0
 16 12  1  0  0  0  0
 17 11  1  0  0  0  0
 18 13  1  0  0  0  0
 19  9  1  0  0  0  0
 20 19  1  0  0  0  0
 21  1  1  0  0  0  0
 22 21  1  0  0  0  0
 23 22  1  0  0  0  0
 24 23  2  0  0  0  0
 25 26  1  6  0  0  0
 25 23  1  0  0  0  0
 27 34  1  6  0  0  0
 27 25  1  0  0  0  0
 27 33  1  0  0  0  0
 29 28  1  0  0  0  0
 30 28  2  0  0  0  0
 31 33  2  0  0  0  0
 31 32  1  0  0  0  0
 32 29  2  0  0  0  0
 33 30  1  0  0  0  0
 34 36  1  0  0  0  0
 36 35  1  0  0  0  0
 37 36  2  0  0  0  0
 39 38  1  0  0  0  0
 40 39  2  0  0  0  0
 41 40  1  0  0  0  0
 42 41  1  0  0  0  0
 43 44  1  0  0  0  0
 43 42  1  0  0  0  0
 44 45  1  0  0  0  0
 45 46  1  0  0  0  0
 46 47  1  0  0  0  0
M  END
>  <MODEL>
9

>  <REMARK>
 VINA RESULT:      -6.2      3.181      7.813
  Name = 
  23 active torsions:
  status: ('A' for Active; 'I' for Inactive)
    1  A    between atoms: C_1  and  C_4
    2  A    between atoms: C_2  and  C_12
    3  A    between atoms: C_2  and  O_22
    4  A    between atoms: C_2  and  C_41
    5  A    between atoms: N_3  and  C_19
    6  A    between atoms: N_3  and  C_33
    7  A    between atoms: C_5  and  C_6
    8  A    between atoms: C_6  and  C_30
    9  A    between atoms: C_8  and  C_25
   10  A    between atoms: C_8  and  C_34
   11  A    between atoms: C_10  and  C_19
   12  A    between atoms: C_10  and  C_47
   13  A    between atoms: C_12  and  C_36
   14  A    between atoms: C_16  and  C_33
   15  A    between atoms: C_17  and  C_30
   16  A    between atoms: C_17  and  C_31
   17  A    between atoms: O_22  and  C_26
   18  A    between atoms: C_25  and  C_35
   19  A    between atoms: C_25  and  C_40
   20  A    between atoms: C_30  and  C_35
   21  A    between atoms: C_31  and  C_36
   22  A    between atoms: C_40  and  C_45
   23  A    between atoms: C_42  and  C_47
                            x       y       z     vdW  Elec       q    Type
                         _______ _______ _______ _____ _____    ______ ____

>  <TORSDO>
F 23

$$$$
