=
 OpenBabel11032420513D

 44 47  0  0  1  0  0  0  0  0999 V2000
  185.6080  177.9130  146.1330 C   0  0  0  0  0  3  0  0  0  0  0  0
  186.7750  178.5820  142.1650 N   0  0  0  0  0  0  0  0  0  0  0  0
  186.5740  177.6830  147.1160 C   0  0  0  0  0  3  0  0  0  0  0  0
  188.2950  177.6000  145.4140 C   0  0  0  0  0  3  0  0  0  0  0  0
  187.7430  177.8480  142.9800 C   0  0  0  0  0  2  0  0  0  0  0  0
  187.3360  177.8460  144.4270 C   0  0  0  0  0  0  0  0  0  0  0  0
  185.4680  177.9540  142.3410 C   0  0  0  0  0  2  0  0  0  0  0  0
  185.9780  177.9880  144.7860 C   0  0  0  0  0  0  0  0  0  0  0  0
  187.9180  177.5250  146.7640 C   0  0  0  0  0  0  0  0  0  0  0  0
  184.9290  178.2700  143.7400 C   0  0  1  0  0  3  0  0  0  0  0  0
  184.5010  179.7300  143.8140 C   0  0  0  0  0  2  0  0  0  0  0  0
  183.1080  179.8410  144.3980 C   0  0  0  0  0  2  0  0  0  0  0  0
  182.2840  178.7440  143.9040 N   0  0  0  0  0  2  0  0  0  0  0  0
  181.4420  179.2020  142.7970 C   0  0  2  0  0  3  0  0  0  0  0  0
  180.0910  179.0090  143.0960 O   0  0  0  0  0  1  0  0  0  0  0  0
  181.7960  178.5140  141.4720 C   0  0  0  0  0  2  0  0  0  0  0  0
  180.4710  179.3860  139.6500 O   0  0  0  0  0  1  0  0  0  0  0  0
  181.7280  179.4370  140.2550 C   0  0  2  0  0  3  0  0  0  0  0  0
  183.7080  177.5570  139.3750 O   0  0  0  0  0  1  0  0  0  0  0  0
  184.1050  180.1280  139.1210 O   0  0  0  0  0  1  0  0  0  0  0  0
  183.0300  179.0690  139.0380 P   0  0  0  0  0  0  0  0  0  0  0  0
  182.3740  179.0570  137.4780 O   0  0  0  0  0  0  0  0  0  0  0  0
  187.1460  178.4090  140.7740 C   0  0  0  0  0  2  0  0  0  0  0  0
  188.6330  178.1240  140.6800 C   0  0  0  0  0  2  0  0  0  0  0  0
  188.0700  177.8740  138.2540 C   0  0  0  0  0  3  0  0  0  0  0  0
  192.1990  175.8130  136.2280 N   0  0  0  0  0  0  0  0  0  0  0  0
  190.2790  177.2430  139.0210 C   0  0  0  0  0  3  0  0  0  0  0  0
  189.6920  177.0070  136.6780 C   0  0  0  0  0  0  0  0  0  0  0  0
  190.0900  176.6870  135.2680 C   0  0  0  0  0  2  0  0  0  0  0  0
  190.6320  176.8770  137.7160 C   0  0  0  0  0  0  0  0  0  0  0  0
  188.4190  177.5170  136.9470 C   0  0  0  0  0  3  0  0  0  0  0  0
  191.9760  176.3540  137.3910 C   0  0  0  0  0  0  0  0  0  0  0  0
  191.1430  175.5730  135.2400 C   0  0  2  0  0  3  0  0  0  0  0  0
  188.9980  177.7320  139.2920 C   0  0  0  0  0  0  0  0  0  0  0  0
  190.5320  174.3460  135.4970 O   0  0  0  0  0  1  0  0  0  0  0  0
  193.1080  176.5030  138.3470 C   0  0  0  0  0  1  0  0  0  0  0  0
  188.8820  177.2830  147.7900 N   0  0  0  0  0  2  0  0  0  0  0  0
  190.3130  177.4420  147.5880 C   0  0  0  0  0  2  0  0  0  0  0  0
  190.9580  176.0760  147.4690 C   0  0  0  0  0  2  0  0  0  0  0  0
  192.0020  176.1030  146.3730 C   0  0  0  0  0  2  0  0  0  0  0  0
  191.3490  178.4100  143.3390 C   0  0  0  0  0  1  0  0  0  0  0  0
  191.6570  176.0630  143.5500 O   0  0  0  0  0  0  0  0  0  0  0  0
  191.6050  177.1790  144.1310 C   0  0  0  0  0  0  0  0  0  0  0  0
  191.8000  177.2770  145.5420 N   0  0  0  0  0  2  0  0  0  0  0  0
  1  3  1  0  0  0  0
  2  7  1  0  0  0  0
  2  5  1  0  0  0  0
  4  9  1  0  0  0  0
  5  6  1  0  0  0  0
  6  8  1  0  0  0  0
  6  4  2  0  0  0  0
  7 10  1  0  0  0  0
  8  1  2  0  0  0  0
  9  3  2  0  0  0  0
  9 37  1  0  0  0  0
 10 11  1  6  0  0  0
 10  8  1  0  0  0  0
 11 12  1  0  0  0  0
 13 12  1  0  0  0  0
 14 15  1  1  0  0  0
 14 13  1  0  0  0  0
 16 14  1  0  0  0  0
 18 17  1  6  0  0  0
 18 16  1  0  0  0  0
 21 20  1  0  0  0  0
 21 19  1  0  0  0  0
 21 18  1  0  0  0  0
 22 21  2  0  0  0  0
 23  2  1  0  0  0  0
 24 23  1  0  0  0  0
 25 34  1  0  0  0  0
 26 32  2  0  0  0  0
 27 34  2  0  0  0  0
 28 31  1  0  0  0  0
 28 30  2  0  0  0  0
 29 28  1  0  0  0  0
 30 27  1  0  0  0  0
 31 25  2  0  0  0  0
 32 30  1  0  0  0  0
 32 36  1  0  0  0  0
 33 29  1  0  0  0  0
 33 35  1  1  0  0  0
 33 26  1  0  0  0  0
 34 24  1  0  0  0  0
 38 37  1  0  0  0  0
 39 38  1  0  0  0  0
 40 39  1  0  0  0  0
 41 43  1  0  0  0  0
 42 43  2  0  0  0  0
 43 44  1  0  0  0  0
 44 40  1  0  0  0  0
M  END
>  <MODEL>
1

>  <REMARK>
 VINA RESULT:      -8.2      0.000      0.000
  Name = 
  15 active torsions:
  status: ('A' for Active; 'I' for Inactive)
    1  A    between atoms: C_5  and  C_29
    2  A    between atoms: C_5  and  C_36
    3  A    between atoms: C_6  and  C_24
    4  A    between atoms: C_6  and  C_37
    5  A    between atoms: N_7  and  C_36
    6  A    between atoms: N_19  and  C_23
    7  A    between atoms: N_19  and  C_24
    8  A    between atoms: C_21  and  C_28
    9  A    between atoms: C_21  and  N_41
   10  A    between atoms: C_23  and  C_43
   11  A    between atoms: C_28  and  C_33
   12  A    between atoms: C_32  and  N_41
   13  A    between atoms: C_33  and  N_42
   14  A    between atoms: P_35  and  C_44
   15  A    between atoms: C_43  and  C_44
                            x       y       z     vdW  Elec       q    Type
                         _______ _______ _______ _____ _____    ______ ____

>  <TORSDO>
F 15

$$$$
=
 OpenBabel11032420513D

 44 47  0  0  1  0  0  0  0  0999 V2000
  191.6000  177.3340  142.5710 C   0  0  0  0  0  3  0  0  0  0  0  0
  187.9170  177.8510  140.6440 N   0  0  0  0  0  0  0  0  0  0  0  0
  191.6460  177.1650  143.9570 C   0  0  0  0  0  3  0  0  0  0  0  0
  189.2750  177.6370  144.0980 C   0  0  0  0  0  3  0  0  0  0  0  0
  187.9290  178.2100  142.0610 C   0  0  0  0  0  2  0  0  0  0  0  0
  189.2190  177.7920  142.7100 C   0  0  0  0  0  0  0  0  0  0  0  0
  189.0590  178.4960  140.0030 C   0  0  0  0  0  2  0  0  0  0  0  0
  190.3940  177.6560  141.9400 C   0  0  0  0  0  0  0  0  0  0  0  0
  190.4880  177.3150  144.7270 C   0  0  0  0  0  0  0  0  0  0  0  0
  190.3540  177.8020  140.4400 C   0  0  1  0  0  3  0  0  0  0  0  0
  190.4560  176.4320  139.7810 C   0  0  0  0  0  2  0  0  0  0  0  0
  191.5150  176.4490  138.6970 C   0  0  0  0  0  2  0  0  0  0  0  0
  190.9110  176.0840  137.4210 N   0  0  0  0  0  2  0  0  0  0  0  0
  189.8290  175.1190  137.6300 C   0  0  2  0  0  3  0  0  0  0  0  0
  190.3110  173.8120  137.5220 O   0  0  0  0  0  1  0  0  0  0  0  0
  188.6590  175.3360  136.6630 C   0  0  0  0  0  2  0  0  0  0  0  0
  186.3880  175.9590  137.2060 O   0  0  0  0  0  1  0  0  0  0  0  0
  187.6940  176.4420  137.0930 C   0  0  2  0  0  3  0  0  0  0  0  0
  186.3990  177.8330  134.9440 O   0  0  0  0  0  0  0  0  0  0  0  0
  189.0060  177.8160  135.1430 O   0  0  0  0  0  1  0  0  0  0  0  0
  187.7430  177.8740  135.9700 P   0  0  0  0  0  0  0  0  0  0  0  0
  187.7240  179.3090  136.8670 O   0  0  0  0  0  1  0  0  0  0  0  0
  186.7210  178.4200  140.0530 C   0  0  0  0  0  2  0  0  0  0  0  0
  185.7750  178.8610  141.1550 C   0  0  0  0  0  2  0  0  0  0  0  0
  184.0650  178.1500  139.4710 C   0  0  0  0  0  3  0  0  0  0  0  0
  179.6690  178.6290  141.8890 N   0  0  0  0  0  0  0  0  0  0  0  0
  183.3410  178.7520  141.7030 C   0  0  0  0  0  3  0  0  0  0  0  0
  181.7120  178.0660  140.0390 C   0  0  0  0  0  0  0  0  0  0  0  0
  180.3000  177.7160  139.6750 C   0  0  0  0  0  2  0  0  0  0  0  0
  182.0110  178.4930  141.3450 C   0  0  0  0  0  0  0  0  0  0  0  0
  182.7400  177.8830  139.1100 C   0  0  0  0  0  3  0  0  0  0  0  0
  180.9010  178.6550  142.3080 C   0  0  0  0  0  0  0  0  0  0  0  0
  179.3060  178.5700  140.4700 C   0  0  2  0  0  3  0  0  0  0  0  0
  184.3650  178.5900  140.7650 C   0  0  0  0  0  0  0  0  0  0  0  0
  179.2730  179.8610  139.9420 O   0  0  0  0  0  1  0  0  0  0  0  0
  181.1650  178.7720  143.7690 C   0  0  0  0  0  1  0  0  0  0  0  0
  190.5680  177.1430  146.1430 N   0  0  0  0  0  2  0  0  0  0  0  0
  189.4260  176.7680  146.9610 C   0  0  0  0  0  2  0  0  0  0  0  0
  189.0390  177.9330  147.8480 C   0  0  0  0  0  2  0  0  0  0  0  0
  187.5310  178.0630  147.8850 C   0  0  0  0  0  2  0  0  0  0  0  0
  185.2010  178.5590  144.8380 C   0  0  0  0  0  1  0  0  0  0  0  0
  184.8310  178.6220  147.1850 O   0  0  0  0  0  0  0  0  0  0  0  0
  185.6560  178.4480  146.2480 C   0  0  0  0  0  0  0  0  0  0  0  0
  187.0200  178.1330  146.5270 N   0  0  0  0  0  2  0  0  0  0  0  0
  1  3  1  0  0  0  0
  2  5  1  0  0  0  0
  3  9  2  0  0  0  0
  4  9  1  0  0  0  0
  5  6  1  0  0  0  0
  6  4  2  0  0  0  0
  7 10  1  0  0  0  0
  7  2  1  0  0  0  0
  8  1  2  0  0  0  0
  8  6  1  0  0  0  0
  9 37  1  0  0  0  0
 10 11  1  6  0  0  0
 10  8  1  0  0  0  0
 12 11  1  0  0  0  0
 13 14  1  0  0  0  0
 13 12  1  0  0  0  0
 14 15  1  6  0  0  0
 16 18  1  0  0  0  0
 16 14  1  0  0  0  0
 18 17  1  6  0  0  0
 19 21  2  0  0  0  0
 20 21  1  0  0  0  0
 21 22  1  0  0  0  0
 21 18  1  0  0  0  0
 23  2  1  0  0  0  0
 23 24  1  0  0  0  0
 25 34  1  0  0  0  0
 26 32  2  0  0  0  0
 28 30  2  0  0  0  0
 29 28  1  0  0  0  0
 29 33  1  0  0  0  0
 30 27  1  0  0  0  0
 30 32  1  0  0  0  0
 31 25  2  0  0  0  0
 31 28  1  0  0  0  0
 32 36  1  0  0  0  0
 33 35  1  6  0  0  0
 33 26  1  0  0  0  0
 34 24  1  0  0  0  0
 34 27  2  0  0  0  0
 37 38  1  0  0  0  0
 38 39  1  0  0  0  0
 39 40  1  0  0  0  0
 41 43  1  0  0  0  0
 43 44  1  0  0  0  0
 43 42  2  0  0  0  0
 44 40  1  0  0  0  0
M  END
>  <MODEL>
2

>  <REMARK>
 VINA RESULT:      -8.0      2.380      7.713
  Name = 
  15 active torsions:
  status: ('A' for Active; 'I' for Inactive)
    1  A    between atoms: C_5  and  C_29
    2  A    between atoms: C_5  and  C_36
    3  A    between atoms: C_6  and  C_24
    4  A    between atoms: C_6  and  C_37
    5  A    between atoms: N_7  and  C_36
    6  A    between atoms: N_19  and  C_23
    7  A    between atoms: N_19  and  C_24
    8  A    between atoms: C_21  and  C_28
    9  A    between atoms: C_21  and  N_41
   10  A    between atoms: C_23  and  C_43
   11  A    between atoms: C_28  and  C_33
   12  A    between atoms: C_32  and  N_41
   13  A    between atoms: C_33  and  N_42
   14  A    between atoms: P_35  and  C_44
   15  A    between atoms: C_43  and  C_44
                            x       y       z     vdW  Elec       q    Type
                         _______ _______ _______ _____ _____    ______ ____

>  <TORSDO>
F 15

$$$$
=
 OpenBabel11032420513D

 44 47  0  0  1  0  0  0  0  0999 V2000
  189.5700  177.2420  135.7360 C   0  0  0  0  0  3  0  0  0  0  0  0
  189.5100  177.0970  139.9230 N   0  0  0  0  0  0  0  0  0  0  0  0
  190.5160  176.5010  135.0250 C   0  0  0  0  0  3  0  0  0  0  0  0
  191.6120  175.9000  137.0990 C   0  0  0  0  0  3  0  0  0  0  0  0
  190.7930  176.7550  139.3100 C   0  0  0  0  0  2  0  0  0  0  0  0
  190.6590  176.6260  137.8180 C   0  0  0  0  0  0  0  0  0  0  0  0
  189.0440  178.3470  139.3290 C   0  0  0  0  0  2  0  0  0  0  0  0
  189.6370  177.3180  137.1320 C   0  0  0  0  0  0  0  0  0  0  0  0
  191.5400  175.8280  135.6990 C   0  0  0  0  0  0  0  0  0  0  0  0
  188.5880  178.0930  137.8870 C   0  0  1  0  0  3  0  0  0  0  0  0
  187.2720  177.3260  137.8870 C   0  0  0  0  0  2  0  0  0  0  0  0
  186.1030  178.2890  137.8390 C   0  0  0  0  0  2  0  0  0  0  0  0
  185.7510  178.6940  139.1950 N   0  0  0  0  0  2  0  0  0  0  0  0
  184.3240  179.0120  139.2740 C   0  0  2  0  0  3  0  0  0  0  0  0
  184.1170  180.3840  139.1010 O   0  0  0  0  0  1  0  0  0  0  0  0
  183.6930  178.5420  140.5900 C   0  0  0  0  0  2  0  0  0  0  0  0
  182.1250  177.4850  139.0850 O   0  0  0  0  0  1  0  0  0  0  0  0
  182.3460  177.8390  140.4180 C   0  0  2  0  0  3  0  0  0  0  0  0
  179.5440  177.9180  141.0290 O   0  0  0  0  0  1  0  0  0  0  0  0
  180.7800  180.0500  140.1550 O   0  0  0  0  0  0  0  0  0  0  0  0
  180.9610  178.8410  141.0430 P   0  0  0  0  0  0  0  0  0  0  0  0
  181.2870  179.3500  142.6240 O   0  0  0  0  0  1  0  0  0  0  0  0
  189.7470  177.3580  141.3300 C   0  0  0  0  0  2  0  0  0  0  0  0
  188.6760  176.6720  142.1580 C   0  0  0  0  0  2  0  0  0  0  0  0
  190.0820  176.9010  144.2160 C   0  0  0  0  0  3  0  0  0  0  0  0
  186.8390  178.4000  147.7720 N   0  0  0  0  0  0  0  0  0  0  0  0
  187.7340  177.4870  144.3220 C   0  0  0  0  0  3  0  0  0  0  0  0
  189.1280  177.6870  146.2990 C   0  0  0  0  0  0  0  0  0  0  0  0
  189.3000  178.1140  147.7260 C   0  0  0  0  0  2  0  0  0  0  0  0
  187.8740  177.8210  145.6750 C   0  0  0  0  0  0  0  0  0  0  0  0
  190.2300  177.2400  145.5650 C   0  0  0  0  0  3  0  0  0  0  0  0
  186.7360  178.3160  146.4770 C   0  0  0  0  0  0  0  0  0  0  0  0
  188.0020  177.9050  148.5160 C   0  0  2  0  0  3  0  0  0  0  0  0
  188.8320  177.0190  143.5950 C   0  0  0  0  0  0  0  0  0  0  0  0
  187.8370  176.5480  148.7930 O   0  0  0  0  0  1  0  0  0  0  0  0
  185.4880  178.7970  145.8200 C   0  0  0  0  0  1  0  0  0  0  0  0
  192.4980  175.0850  134.9440 N   0  0  0  0  0  2  0  0  0  0  0  0
  193.8960  174.9690  135.3310 C   0  0  0  0  0  2  0  0  0  0  0  0
  194.2860  173.5060  135.3720 C   0  0  0  0  0  2  0  0  0  0  0  0
  193.8670  172.9070  136.6980 C   0  0  0  0  0  2  0  0  0  0  0  0
  196.1020  174.4490  139.4510 C   0  0  0  0  0  1  0  0  0  0  0  0
  196.3580  172.5640  138.0280 O   0  0  0  0  0  0  0  0  0  0  0  0
  195.6320  173.5300  138.3840 C   0  0  0  0  0  0  0  0  0  0  0  0
  194.3560  173.7430  137.7810 N   0  0  0  0  0  2  0  0  0  0  0  0
  1  8  1  0  0  0  0
  2 23  1  0  0  0  0
  3  9  1  0  0  0  0
  3  1  2  0  0  0  0
  4  6  1  0  0  0  0
  5  2  1  0  0  0  0
  6  5  1  0  0  0  0
  7  2  1  0  0  0  0
  8  6  2  0  0  0  0
  8 10  1  0  0  0  0
  9  4  2  0  0  0  0
 10 11  1  1  0  0  0
 10  7  1  0  0  0  0
 12 11  1  0  0  0  0
 12 13  1  0  0  0  0
 13 14  1  0  0  0  0
 14 15  1  1  0  0  0
 14 16  1  0  0  0  0
 18 17  1  6  0  0  0
 18 16  1  0  0  0  0
 18 21  1  0  0  0  0
 19 21  1  0  0  0  0
 20 21  2  0  0  0  0
 21 22  1  0  0  0  0
 23 24  1  0  0  0  0
 24 34  1  0  0  0  0
 25 31  1  0  0  0  0
 26 33  1  0  0  0  0
 27 30  2  0  0  0  0
 28 29  1  0  0  0  0
 29 33  1  0  0  0  0
 30 28  1  0  0  0  0
 30 32  1  0  0  0  0
 31 28  2  0  0  0  0
 32 26  2  0  0  0  0
 33 35  1  6  0  0  0
 34 25  2  0  0  0  0
 34 27  1  0  0  0  0
 36 32  1  0  0  0  0
 37 38  1  0  0  0  0
 37  9  1  0  0  0  0
 38 39  1  0  0  0  0
 39 40  1  0  0  0  0
 40 44  1  0  0  0  0
 42 43  2  0  0  0  0
 43 41  1  0  0  0  0
 44 43  1  0  0  0  0
M  END
>  <MODEL>
3

>  <REMARK>
 VINA RESULT:      -7.6      2.473      8.519
  Name = 
  15 active torsions:
  status: ('A' for Active; 'I' for Inactive)
    1  A    between atoms: C_5  and  C_29
    2  A    between atoms: C_5  and  C_36
    3  A    between atoms: C_6  and  C_24
    4  A    between atoms: C_6  and  C_37
    5  A    between atoms: N_7  and  C_36
    6  A    between atoms: N_19  and  C_23
    7  A    between atoms: N_19  and  C_24
    8  A    between atoms: C_21  and  C_28
    9  A    between atoms: C_21  and  N_41
   10  A    between atoms: C_23  and  C_43
   11  A    between atoms: C_28  and  C_33
   12  A    between atoms: C_32  and  N_41
   13  A    between atoms: C_33  and  N_42
   14  A    between atoms: P_35  and  C_44
   15  A    between atoms: C_43  and  C_44
                            x       y       z     vdW  Elec       q    Type
                         _______ _______ _______ _____ _____    ______ ____

>  <TORSDO>
F 15

$$$$
=
 OpenBabel11032420513D

 44 47  0  0  1  0  0  0  0  0999 V2000
  190.1060  176.7840  136.0230 C   0  0  0  0  0  3  0  0  0  0  0  0
  189.2760  177.4220  140.0790 N   0  0  0  0  0  0  0  0  0  0  0  0
  191.1920  175.9890  135.6490 C   0  0  0  0  0  3  0  0  0  0  0  0
  191.9040  175.8630  137.9600 C   0  0  0  0  0  3  0  0  0  0  0  0
  190.6610  177.0590  139.7810 C   0  0  0  0  0  2  0  0  0  0  0  0
  190.8090  176.6440  138.3440 C   0  0  0  0  0  0  0  0  0  0  0  0
  188.8870  178.5030  139.1790 C   0  0  0  0  0  2  0  0  0  0  0  0
  189.9110  177.1230  137.3660 C   0  0  0  0  0  0  0  0  0  0  0  0
  192.0950  175.5250  136.6110 C   0  0  0  0  0  0  0  0  0  0  0  0
  188.7150  177.9530  137.7580 C   0  0  1  0  0  3  0  0  0  0  0  0
  187.4480  177.1120  137.6770 C   0  0  0  0  0  2  0  0  0  0  0  0
  186.2970  177.9440  137.1500 C   0  0  0  0  0  2  0  0  0  0  0  0
  185.4680  177.1270  136.2720 N   0  0  0  0  0  2  0  0  0  0  0  0
  184.5620  176.2920  137.0640 C   0  0  2  0  0  3  0  0  0  0  0  0
  184.0770  175.2300  136.2960 O   0  0  0  0  0  1  0  0  0  0  0  0
  183.3980  177.0940  137.6570 C   0  0  0  0  0  2  0  0  0  0  0  0
  182.4250  176.4360  139.7690 O   0  0  0  0  0  1  0  0  0  0  0  0
  183.4320  177.2050  139.1820 C   0  0  2  0  0  3  0  0  0  0  0  0
  184.8780  179.5460  139.9950 O   0  0  0  0  0  1  0  0  0  0  0  0
  182.5550  178.9790  141.0510 O   0  0  0  0  0  1  0  0  0  0  0  0
  183.3220  178.9310  139.7500 P   0  0  0  0  0  0  0  0  0  0  0  0
  182.5210  179.8680  138.5910 O   0  0  0  0  0  0  0  0  0  0  0  0
  189.2390  177.9570  141.4270 C   0  0  0  0  0  2  0  0  0  0  0  0
  187.8100  177.9420  141.9370 C   0  0  0  0  0  2  0  0  0  0  0  0
  186.5740  177.7600  144.1060 C   0  0  0  0  0  3  0  0  0  0  0  0
  190.2000  177.1520  147.5540 N   0  0  0  0  0  0  0  0  0  0  0  0
  188.9850  177.5240  144.1010 C   0  0  0  0  0  3  0  0  0  0  0  0
  187.7510  177.3640  146.1850 C   0  0  0  0  0  0  0  0  0  0  0  0
  187.7260  177.0860  147.6590 C   0  0  0  0  0  2  0  0  0  0  0  0
  188.9730  177.3340  145.4890 C   0  0  0  0  0  0  0  0  0  0  0  0
  186.5550  177.5640  145.4910 C   0  0  0  0  0  3  0  0  0  0  0  0
  190.2160  177.0980  146.2530 C   0  0  0  0  0  0  0  0  0  0  0  0
  189.0230  177.5640  148.3240 C   0  0  2  0  0  3  0  0  0  0  0  0
  187.7890  177.7460  143.4120 C   0  0  0  0  0  0  0  0  0  0  0  0
  189.0030  178.9540  148.4410 O   0  0  0  0  0  1  0  0  0  0  0  0
  191.4810  176.7220  145.5610 C   0  0  0  0  0  1  0  0  0  0  0  0
  193.2000  174.7210  136.1970 N   0  0  0  0  0  2  0  0  0  0  0  0
  193.3020  173.3010  136.4930 C   0  0  0  0  0  2  0  0  0  0  0  0
  194.7510  172.9450  136.7540 C   0  0  0  0  0  2  0  0  0  0  0  0
  195.3080  173.8490  137.8340 C   0  0  0  0  0  2  0  0  0  0  0  0
  199.1640  174.1170  137.9660 C   0  0  0  0  0  1  0  0  0  0  0  0
  197.4710  175.5510  137.1150 O   0  0  0  0  0  0  0  0  0  0  0  0
  197.7470  174.4600  137.6810 C   0  0  0  0  0  0  0  0  0  0  0  0
  196.7130  173.5440  138.0410 N   0  0  0  0  0  2  0  0  0  0  0  0
  1  8  1  0  0  0  0
  2 23  1  0  0  0  0
  3  1  2  0  0  0  0
  3  9  1  0  0  0  0
  4  6  1  0  0  0  0
  5  2  1  0  0  0  0
  6  5  1  0  0  0  0
  7  2  1  0  0  0  0
  8 10  1  0  0  0  0
  8  6  2  0  0  0  0
  9  4  2  0  0  0  0
 10 11  1  1  0  0  0
 10  7  1  0  0  0  0
 12 11  1  0  0  0  0
 13 14  1  0  0  0  0
 13 12  1  0  0  0  0
 14 15  1  6  0  0  0
 14 16  1  0  0  0  0
 16 18  1  0  0  0  0
 18 21  1  0  0  0  0
 18 17  1  1  0  0  0
 21 19  1  0  0  0  0
 21 20  1  0  0  0  0
 22 21  2  0  0  0  0
 23 24  1  0  0  0  0
 24 34  1  0  0  0  0
 25 31  1  0  0  0  0
 26 33  1  0  0  0  0
 27 30  2  0  0  0  0
 28 29  1  0  0  0  0
 29 33  1  0  0  0  0
 30 28  1  0  0  0  0
 30 32  1  0  0  0  0
 31 28  2  0  0  0  0
 32 26  2  0  0  0  0
 33 35  1  6  0  0  0
 34 27  1  0  0  0  0
 34 25  2  0  0  0  0
 36 32  1  0  0  0  0
 37 38  1  0  0  0  0
 37  9  1  0  0  0  0
 38 39  1  0  0  0  0
 39 40  1  0  0  0  0
 40 44  1  0  0  0  0
 42 43  2  0  0  0  0
 43 41  1  0  0  0  0
 43 44  1  0  0  0  0
M  END
>  <MODEL>
4

>  <REMARK>
 VINA RESULT:      -7.5      2.934      8.396
  Name = 
  15 active torsions:
  status: ('A' for Active; 'I' for Inactive)
    1  A    between atoms: C_5  and  C_29
    2  A    between atoms: C_5  and  C_36
    3  A    between atoms: C_6  and  C_24
    4  A    between atoms: C_6  and  C_37
    5  A    between atoms: N_7  and  C_36
    6  A    between atoms: N_19  and  C_23
    7  A    between atoms: N_19  and  C_24
    8  A    between atoms: C_21  and  C_28
    9  A    between atoms: C_21  and  N_41
   10  A    between atoms: C_23  and  C_43
   11  A    between atoms: C_28  and  C_33
   12  A    between atoms: C_32  and  N_41
   13  A    between atoms: C_33  and  N_42
   14  A    between atoms: P_35  and  C_44
   15  A    between atoms: C_43  and  C_44
                            x       y       z     vdW  Elec       q    Type
                         _______ _______ _______ _____ _____    ______ ____

>  <TORSDO>
F 15

$$$$
=
 OpenBabel11032420513D

 44 47  0  0  1  0  0  0  0  0999 V2000
  191.1320  177.1040  140.5360 C   0  0  0  0  0  3  0  0  0  0  0  0
  187.7600  177.6240  138.1060 N   0  0  0  0  0  0  0  0  0  0  0  0
  191.0140  177.1990  141.9250 C   0  0  0  0  0  3  0  0  0  0  0  0
  188.7190  177.9350  141.6850 C   0  0  0  0  0  3  0  0  0  0  0  0
  187.6710  178.2450  139.4270 C   0  0  0  0  0  2  0  0  0  0  0  0
  188.8250  177.8260  140.2950 C   0  0  0  0  0  0  0  0  0  0  0  0
  189.0340  178.0120  137.5070 C   0  0  0  0  0  2  0  0  0  0  0  0
  190.0470  177.4230  139.7130 C   0  0  0  0  0  0  0  0  0  0  0  0
  189.8110  177.6140  142.5060 C   0  0  0  0  0  0  0  0  0  0  0  0
  190.1790  177.2830  138.2180 C   0  0  1  0  0  3  0  0  0  0  0  0
  190.1760  175.8100  137.8310 C   0  0  0  0  0  2  0  0  0  0  0  0
  191.2910  175.5220  136.8470 C   0  0  0  0  0  2  0  0  0  0  0  0
  192.4210  176.4020  137.1210 N   0  0  0  0  0  2  0  0  0  0  0  0
  193.5000  175.6540  137.7690 C   0  0  2  0  0  3  0  0  0  0  0  0
  194.0540  176.3990  138.8140 O   0  0  0  0  0  1  0  0  0  0  0  0
  194.5930  175.2320  136.7800 C   0  0  0  0  0  2  0  0  0  0  0  0
  194.6920  173.2760  138.1940 O   0  0  0  0  0  1  0  0  0  0  0  0
  195.3770  173.9920  137.2100 C   0  0  2  0  0  3  0  0  0  0  0  0
  197.0050  174.8540  139.4090 O   0  0  0  0  0  1  0  0  0  0  0  0
  197.5950  175.5490  136.9590 O   0  0  0  0  0  0  0  0  0  0  0  0
  197.0560  174.4010  137.7800 P   0  0  0  0  0  0  0  0  0  0  0  0
  198.0690  173.0570  137.6000 O   0  0  0  0  0  1  0  0  0  0  0  0
  186.7120  178.1920  137.2790 C   0  0  0  0  0  2  0  0  0  0  0  0
  185.7080  177.1110  136.9230 C   0  0  0  0  0  2  0  0  0  0  0  0
  183.2530  177.4410  136.5610 C   0  0  0  0  0  3  0  0  0  0  0  0
  181.5500  179.0760  141.0130 N   0  0  0  0  0  0  0  0  0  0  0  0
  184.1810  177.8300  138.7640 C   0  0  0  0  0  3  0  0  0  0  0  0
  181.8080  178.1470  138.3700 C   0  0  0  0  0  0  0  0  0  0  0  0
  180.4330  178.4370  138.8970 C   0  0  0  0  0  2  0  0  0  0  0  0
  182.9090  178.1690  139.2440 C   0  0  0  0  0  0  0  0  0  0  0  0
  181.9800  177.7710  137.0350 C   0  0  0  0  0  3  0  0  0  0  0  0
  182.6860  178.5510  140.6540 C   0  0  0  0  0  0  0  0  0  0  0  0
  180.4960  179.4340  140.0600 C   0  0  2  0  0  3  0  0  0  0  0  0
  184.3560  177.4750  137.4230 C   0  0  0  0  0  0  0  0  0  0  0  0
  180.7300  180.7170  139.5630 O   0  0  0  0  0  1  0  0  0  0  0  0
  183.7150  178.2760  141.6950 C   0  0  0  0  0  1  0  0  0  0  0  0
  189.7230  177.7090  143.9280 N   0  0  0  0  0  2  0  0  0  0  0  0
  188.6210  177.1470  144.6940 C   0  0  0  0  0  2  0  0  0  0  0  0
  188.9620  177.1890  146.1690 C   0  0  0  0  0  2  0  0  0  0  0  0
  187.8080  177.7960  146.9390 C   0  0  0  0  0  2  0  0  0  0  0  0
  184.4270  178.8290  145.3720 C   0  0  0  0  0  1  0  0  0  0  0  0
  185.6090  179.5650  147.2970 O   0  0  0  0  0  0  0  0  0  0  0  0
  185.5790  178.7850  146.3090 C   0  0  0  0  0  0  0  0  0  0  0  0
  186.6340  177.8490  146.0850 N   0  0  0  0  0  2  0  0  0  0  0  0
  1  3  1  0  0  0  0
  2  5  1  0  0  0  0
  3  9  2  0  0  0  0
  4  9  1  0  0  0  0
  5  6  1  0  0  0  0
  6  4  2  0  0  0  0
  7  2  1  0  0  0  0
  7 10  1  0  0  0  0
  8  6  1  0  0  0  0
  8  1  2  0  0  0  0
  9 37  1  0  0  0  0
 10 11  1  1  0  0  0
 10  8  1  0  0  0  0
 12 13  1  0  0  0  0
 12 11  1  0  0  0  0
 13 14  1  0  0  0  0
 14 15  1  1  0  0  0
 16 18  1  0  0  0  0
 16 14  1  0  0  0  0
 18 21  1  0  0  0  0
 18 17  1  1  0  0  0
 20 21  2  0  0  0  0
 21 19  1  0  0  0  0
 22 21  1  0  0  0  0
 23  2  1  0  0  0  0
 24 23  1  0  0  0  0
 24 34  1  0  0  0  0
 25 31  2  0  0  0  0
 25 34  1  0  0  0  0
 27 30  1  0  0  0  0
 28 29  1  0  0  0  0
 28 30  2  0  0  0  0
 29 33  1  0  0  0  0
 30 32  1  0  0  0  0
 31 28  1  0  0  0  0
 32 26  2  0  0  0  0
 32 36  1  0  0  0  0
 33 35  1  6  0  0  0
 33 26  1  0  0  0  0
 34 27  2  0  0  0  0
 37 38  1  0  0  0  0
 38 39  1  0  0  0  0
 39 40  1  0  0  0  0
 41 43  1  0  0  0  0
 43 42  2  0  0  0  0
 44 43  1  0  0  0  0
 44 40  1  0  0  0  0
M  END
>  <MODEL>
5

>  <REMARK>
 VINA RESULT:      -7.5      3.887      9.508
  Name = 
  15 active torsions:
  status: ('A' for Active; 'I' for Inactive)
    1  A    between atoms: C_5  and  C_29
    2  A    between atoms: C_5  and  C_36
    3  A    between atoms: C_6  and  C_24
    4  A    between atoms: C_6  and  C_37
    5  A    between atoms: N_7  and  C_36
    6  A    between atoms: N_19  and  C_23
    7  A    between atoms: N_19  and  C_24
    8  A    between atoms: C_21  and  C_28
    9  A    between atoms: C_21  and  N_41
   10  A    between atoms: C_23  and  C_43
   11  A    between atoms: C_28  and  C_33
   12  A    between atoms: C_32  and  N_41
   13  A    between atoms: C_33  and  N_42
   14  A    between atoms: P_35  and  C_44
   15  A    between atoms: C_43  and  C_44
                            x       y       z     vdW  Elec       q    Type
                         _______ _______ _______ _____ _____    ______ ____

>  <TORSDO>
F 15

$$$$
=
 OpenBabel11032420513D

 44 47  0  0  1  0  0  0  0  0999 V2000
  182.0230  178.4690  142.9690 C   0  0  0  0  0  3  0  0  0  0  0  0
  184.3350  179.3750  139.5950 N   0  0  0  0  0  0  0  0  0  0  0  0
  182.5640  178.6220  144.2480 C   0  0  0  0  0  3  0  0  0  0  0  0
  184.7350  179.0900  143.2800 C   0  0  0  0  0  3  0  0  0  0  0  0
  185.0990  179.0520  140.7990 C   0  0  0  0  0  2  0  0  0  0  0  0
  184.1960  178.9540  141.9970 C   0  0  0  0  0  0  0  0  0  0  0  0
  183.3250  178.3370  139.4070 C   0  0  0  0  0  2  0  0  0  0  0  0
  182.8320  178.6250  141.8380 C   0  0  0  0  0  0  0  0  0  0  0  0
  183.9180  178.9320  144.4110 C   0  0  0  0  0  0  0  0  0  0  0  0
  182.2270  178.4900  140.4640 C   0  0  1  0  0  3  0  0  0  0  0  0
  181.3710  179.7110  140.1510 C   0  0  0  0  0  2  0  0  0  0  0  0
  180.2610  179.3410  139.1890 C   0  0  0  0  0  2  0  0  0  0  0  0
  179.1390  180.2550  139.3660 N   0  0  0  0  0  2  0  0  0  0  0  0
  179.6200  181.6350  139.4640 C   0  0  2  0  0  3  0  0  0  0  0  0
  178.9320  182.3250  140.4650 O   0  0  0  0  0  1  0  0  0  0  0  0
  179.5110  182.3850  138.1310 C   0  0  0  0  0  2  0  0  0  0  0  0
  181.9200  182.3300  138.3140 O   0  0  0  0  0  1  0  0  0  0  0  0
  180.8600  182.7100  137.4880 C   0  0  2  0  0  3  0  0  0  0  0  0
  180.9730  184.6300  135.3590 O   0  0  0  0  0  0  0  0  0  0  0  0
  182.3130  185.0110  137.5710 O   0  0  0  0  0  1  0  0  0  0  0  0
  181.0060  184.4690  137.0420 P   0  0  0  0  0  0  0  0  0  0  0  0
  179.7220  185.3420  137.7170 O   0  0  0  0  0  1  0  0  0  0  0  0
  185.2390  179.2980  138.4630 C   0  0  0  0  0  2  0  0  0  0  0  0
  185.3400  177.8580  137.9950 C   0  0  0  0  0  2  0  0  0  0  0  0
  187.1600  177.3010  136.3690 C   0  0  0  0  0  3  0  0  0  0  0  0
  191.2000  176.4690  139.2650 N   0  0  0  0  0  0  0  0  0  0  0  0
  187.6860  177.4180  138.7300 C   0  0  0  0  0  3  0  0  0  0  0  0
  189.4200  176.8720  137.1230 C   0  0  0  0  0  0  0  0  0  0  0  0
  190.8630  176.6010  136.8140 C   0  0  0  0  0  2  0  0  0  0  0  0
  189.0210  177.0970  138.4520 C   0  0  0  0  0  0  0  0  0  0  0  0
  188.4920  176.9870  136.0850 C   0  0  0  0  0  3  0  0  0  0  0  0
  190.0340  176.9870  139.5230 C   0  0  0  0  0  0  0  0  0  0  0  0
  191.5380  175.8600  137.9750 C   0  0  2  0  0  3  0  0  0  0  0  0
  186.7540  177.5110  137.6920 C   0  0  0  0  0  0  0  0  0  0  0  0
  191.1390  174.5230  137.9700 O   0  0  0  0  0  1  0  0  0  0  0  0
  189.7720  177.5310  140.8850 C   0  0  0  0  0  1  0  0  0  0  0  0
  184.4440  179.0740  145.7320 N   0  0  0  0  0  2  0  0  0  0  0  0
  185.8450  179.3580  146.0010 C   0  0  0  0  0  2  0  0  0  0  0  0
  186.5370  178.0880  146.4520 C   0  0  0  0  0  2  0  0  0  0  0  0
  187.5950  177.7010  145.4400 C   0  0  0  0  0  2  0  0  0  0  0  0
  191.1650  176.7760  146.6020 C   0  0  0  0  0  1  0  0  0  0  0  0
  190.3390  178.2400  144.9220 O   0  0  0  0  0  0  0  0  0  0  0  0
  190.0660  177.4130  145.8320 C   0  0  0  0  0  0  0  0  0  0  0  0
  188.7110  177.0720  146.1240 N   0  0  0  0  0  2  0  0  0  0  0  0
  1  3  1  0  0  0  0
  2  5  1  0  0  0  0
  3  9  2  0  0  0  0
  4  9  1  0  0  0  0
  5  6  1  0  0  0  0
  6  4  2  0  0  0  0
  7  2  1  0  0  0  0
  7 10  1  0  0  0  0
  8  6  1  0  0  0  0
  8  1  2  0  0  0  0
  9 37  1  0  0  0  0
 10 11  1  6  0  0  0
 10  8  1  0  0  0  0
 12 13  1  0  0  0  0
 12 11  1  0  0  0  0
 13 14  1  0  0  0  0
 14 15  1  1  0  0  0
 16 14  1  0  0  0  0
 18 16  1  0  0  0  0
 18 17  1  1  0  0  0
 19 21  2  0  0  0  0
 21 18  1  0  0  0  0
 21 20  1  0  0  0  0
 21 22  1  0  0  0  0
 23  2  1  0  0  0  0
 24 23  1  0  0  0  0
 25 34  1  0  0  0  0
 26 32  2  0  0  0  0
 28 30  2  0  0  0  0
 29 28  1  0  0  0  0
 29 33  1  0  0  0  0
 30 27  1  0  0  0  0
 30 32  1  0  0  0  0
 31 25  2  0  0  0  0
 31 28  1  0  0  0  0
 32 36  1  0  0  0  0
 33 35  1  1  0  0  0
 33 26  1  0  0  0  0
 34 24  1  0  0  0  0
 34 27  2  0  0  0  0
 37 38  1  0  0  0  0
 38 39  1  0  0  0  0
 40 44  1  0  0  0  0
 40 39  1  0  0  0  0
 42 43  2  0  0  0  0
 43 44  1  0  0  0  0
 43 41  1  0  0  0  0
M  END
>  <MODEL>
6

>  <REMARK>
 VINA RESULT:      -7.5      2.832      4.292
  Name = 
  15 active torsions:
  status: ('A' for Active; 'I' for Inactive)
    1  A    between atoms: C_5  and  C_29
    2  A    between atoms: C_5  and  C_36
    3  A    between atoms: C_6  and  C_24
    4  A    between atoms: C_6  and  C_37
    5  A    between atoms: N_7  and  C_36
    6  A    between atoms: N_19  and  C_23
    7  A    between atoms: N_19  and  C_24
    8  A    between atoms: C_21  and  C_28
    9  A    between atoms: C_21  and  N_41
   10  A    between atoms: C_23  and  C_43
   11  A    between atoms: C_28  and  C_33
   12  A    between atoms: C_32  and  N_41
   13  A    between atoms: C_33  and  N_42
   14  A    between atoms: P_35  and  C_44
   15  A    between atoms: C_43  and  C_44
                            x       y       z     vdW  Elec       q    Type
                         _______ _______ _______ _____ _____    ______ ____

>  <TORSDO>
F 15

$$$$
=
 OpenBabel11032420513D

 44 47  0  0  1  0  0  0  0  0999 V2000
  182.6910  179.0030  144.2770 C   0  0  0  0  0  3  0  0  0  0  0  0
  185.6510  178.4210  141.3700 N   0  0  0  0  0  0  0  0  0  0  0  0
  181.3450  178.8210  143.9490 C   0  0  0  0  0  3  0  0  0  0  0  0
  181.9430  178.5440  141.6190 C   0  0  0  0  0  3  0  0  0  0  0  0
  184.3220  178.7310  140.8460 C   0  0  0  0  0  2  0  0  0  0  0  0
  183.2930  178.7100  141.9420 C   0  0  0  0  0  0  0  0  0  0  0  0
  185.9690  179.4000  142.4060 C   0  0  0  0  0  2  0  0  0  0  0  0
  183.6710  178.9580  143.2800 C   0  0  0  0  0  0  0  0  0  0  0  0
  180.9640  178.5910  142.6240 C   0  0  0  0  0  0  0  0  0  0  0  0
  185.1220  179.1230  143.6530 C   0  0  1  0  0  3  0  0  0  0  0  0
  185.6250  177.8670  144.3530 C   0  0  0  0  0  2  0  0  0  0  0  0
  186.8570  178.1830  145.1780 C   0  0  0  0  0  2  0  0  0  0  0  0
  186.7290  177.5730  146.4960 N   0  0  0  0  0  2  0  0  0  0  0  0
  188.0520  177.3610  147.0860 C   0  0  2  0  0  3  0  0  0  0  0  0
  188.1240  177.9440  148.3530 O   0  0  0  0  0  1  0  0  0  0  0  0
  189.1810  177.8910  146.1930 C   0  0  0  0  0  2  0  0  0  0  0  0
  191.4010  176.9510  146.3550 O   0  0  0  0  0  1  0  0  0  0  0  0
  190.1620  176.8150  145.7260 C   0  0  2  0  0  3  0  0  0  0  0  0
  189.0860  175.9680  143.2050 O   0  0  0  0  0  0  0  0  0  0  0  0
  191.6700  176.1240  143.5670 O   0  0  0  0  0  1  0  0  0  0  0  0
  190.3690  176.8080  143.9180 P   0  0  0  0  0  0  0  0  0  0  0  0
  190.3950  178.3970  143.3360 O   0  0  0  0  0  1  0  0  0  0  0  0
  186.6070  178.6140  140.2960 C   0  0  0  0  0  2  0  0  0  0  0  0
  187.9990  178.2690  140.7910 C   0  0  0  0  0  2  0  0  0  0  0  0
  188.2180  177.3880  138.4580 C   0  0  0  0  0  3  0  0  0  0  0  0
  193.0660  176.0630  138.0830 N   0  0  0  0  0  0  0  0  0  0  0  0
  190.1890  177.5080  139.8620 C   0  0  0  0  0  3  0  0  0  0  0  0
  190.3580  176.6510  137.5970 C   0  0  0  0  0  0  0  0  0  0  0  0
  191.1990  176.1570  136.4580 C   0  0  0  0  0  2  0  0  0  0  0  0
  190.9660  176.9810  138.8220 C   0  0  0  0  0  0  0  0  0  0  0  0
  188.9900  176.8680  137.4150 C   0  0  0  0  0  3  0  0  0  0  0  0
  192.4190  176.7580  138.9730 C   0  0  0  0  0  0  0  0  0  0  0  0
  192.4050  175.3650  136.9760 C   0  0  2  0  0  3  0  0  0  0  0  0
  188.8160  177.7030  139.6840 C   0  0  0  0  0  0  0  0  0  0  0  0
  191.9870  174.1030  137.4020 O   0  0  0  0  0  1  0  0  0  0  0  0
  193.1780  177.3830  140.0930 C   0  0  0  0  0  1  0  0  0  0  0  0
  179.5790  178.4160  142.3190 N   0  0  0  0  0  2  0  0  0  0  0  0
  179.1030  177.9780  141.0160 C   0  0  0  0  0  2  0  0  0  0  0  0
  179.1920  176.4680  140.9310 C   0  0  0  0  0  2  0  0  0  0  0  0
  179.6250  176.0640  139.5370 C   0  0  0  0  0  2  0  0  0  0  0  0
  183.2680  175.4620  138.3880 C   0  0  0  0  0  1  0  0  0  0  0  0
  181.2340  175.7990  137.2070 O   0  0  0  0  0  0  0  0  0  0  0  0
  181.8020  175.6950  138.3260 C   0  0  0  0  0  0  0  0  0  0  0  0
  181.0510  175.7870  139.5370 N   0  0  0  0  0  2  0  0  0  0  0  0
  2  7  1  0  0  0  0
  3  1  1  0  0  0  0
  4  6  2  0  0  0  0
  4  9  1  0  0  0  0
  5  2  1  0  0  0  0
  5  6  1  0  0  0  0
  6  8  1  0  0  0  0
  7 10  1  0  0  0  0
  8 10  1  0  0  0  0
  8  1  2  0  0  0  0
  9  3  2  0  0  0  0
 10 11  1  6  0  0  0
 11 12  1  0  0  0  0
 12 13  1  0  0  0  0
 13 14  1  0  0  0  0
 14 15  1  1  0  0  0
 16 14  1  0  0  0  0
 18 16  1  0  0  0  0
 18 17  1  1  0  0  0
 19 21  2  0  0  0  0
 20 21  1  0  0  0  0
 21 18  1  0  0  0  0
 22 21  1  0  0  0  0
 23 24  1  0  0  0  0
 23  2  1  0  0  0  0
 25 34  1  0  0  0  0
 26 32  2  0  0  0  0
 28 30  2  0  0  0  0
 29 33  1  0  0  0  0
 29 28  1  0  0  0  0
 30 32  1  0  0  0  0
 30 27  1  0  0  0  0
 31 28  1  0  0  0  0
 31 25  2  0  0  0  0
 32 36  1  0  0  0  0
 33 35  1  1  0  0  0
 33 26  1  0  0  0  0
 34 27  2  0  0  0  0
 34 24  1  0  0  0  0
 37  9  1  0  0  0  0
 38 37  1  0  0  0  0
 39 38  1  0  0  0  0
 40 44  1  0  0  0  0
 40 39  1  0  0  0  0
 42 43  2  0  0  0  0
 43 41  1  0  0  0  0
 43 44  1  0  0  0  0
M  END
>  <MODEL>
7

>  <REMARK>
 VINA RESULT:      -7.4      2.692      7.301
  Name = 
  15 active torsions:
  status: ('A' for Active; 'I' for Inactive)
    1  A    between atoms: C_5  and  C_29
    2  A    between atoms: C_5  and  C_36
    3  A    between atoms: C_6  and  C_24
    4  A    between atoms: C_6  and  C_37
    5  A    between atoms: N_7  and  C_36
    6  A    between atoms: N_19  and  C_23
    7  A    between atoms: N_19  and  C_24
    8  A    between atoms: C_21  and  C_28
    9  A    between atoms: C_21  and  N_41
   10  A    between atoms: C_23  and  C_43
   11  A    between atoms: C_28  and  C_33
   12  A    between atoms: C_32  and  N_41
   13  A    between atoms: C_33  and  N_42
   14  A    between atoms: P_35  and  C_44
   15  A    between atoms: C_43  and  C_44
                            x       y       z     vdW  Elec       q    Type
                         _______ _______ _______ _____ _____    ______ ____

>  <TORSDO>
F 15

$$$$
=
 OpenBabel11032420513D

 44 47  0  0  1  0  0  0  0  0999 V2000
  186.1180  178.1410  144.6200 C   0  0  0  0  0  3  0  0  0  0  0  0
  187.3230  177.9290  140.6130 N   0  0  0  0  0  0  0  0  0  0  0  0
  184.7810  178.3990  144.9340 C   0  0  0  0  0  3  0  0  0  0  0  0
  184.3040  178.8120  142.5960 C   0  0  0  0  0  3  0  0  0  0  0  0
  186.1030  178.6990  140.8520 C   0  0  0  0  0  2  0  0  0  0  0  0
  185.6370  178.5390  142.2720 C   0  0  0  0  0  0  0  0  0  0  0  0
  188.3410  178.3900  141.5540 C   0  0  0  0  0  2  0  0  0  0  0  0
  186.5570  178.2170  143.2930 C   0  0  0  0  0  0  0  0  0  0  0  0
  183.8700  178.7350  143.9280 C   0  0  0  0  0  0  0  0  0  0  0  0
  187.9940  177.9030  142.9650 C   0  0  1  0  0  3  0  0  0  0  0  0
  188.2370  176.4030  143.0710 C   0  0  0  0  0  2  0  0  0  0  0  0
  189.7230  176.1080  143.0450 C   0  0  0  0  0  2  0  0  0  0  0  0
  190.4180  177.0320  143.9340 N   0  0  0  0  0  2  0  0  0  0  0  0
  191.5750  176.3740  144.5440 C   0  0  2  0  0  3  0  0  0  0  0  0
  191.9540  175.2570  143.7960 O   0  0  0  0  0  1  0  0  0  0  0  0
  191.3160  175.9740  146.0020 C   0  0  0  0  0  2  0  0  0  0  0  0
  192.0010  176.9820  148.0890 O   0  0  0  0  0  1  0  0  0  0  0  0
  191.1980  177.1600  146.9600 C   0  0  2  0  0  3  0  0  0  0  0  0
  188.7060  176.0110  147.7980 O   0  0  0  0  0  1  0  0  0  0  0  0
  188.7510  178.1680  146.3220 O   0  0  0  0  0  0  0  0  0  0  0  0
  189.4750  177.4770  147.4540 P   0  0  0  0  0  0  0  0  0  0  0  0
  189.4430  178.4660  148.8270 O   0  0  0  0  0  1  0  0  0  0  0  0
  187.7980  178.2540  139.2820 C   0  0  0  0  0  2  0  0  0  0  0  0
  187.7450  177.0120  138.4100 C   0  0  0  0  0  2  0  0  0  0  0  0
  189.2330  176.2850  136.5340 C   0  0  0  0  0  3  0  0  0  0  0  0
  193.8520  176.2640  138.5500 N   0  0  0  0  0  0  0  0  0  0  0  0
  190.2250  176.8680  138.6650 C   0  0  0  0  0  3  0  0  0  0  0  0
  191.6330  176.1490  136.8240 C   0  0  0  0  0  0  0  0  0  0  0  0
  193.0000  175.9210  136.2500 C   0  0  0  0  0  2  0  0  0  0  0  0
  191.4990  176.5880  138.1530 C   0  0  0  0  0  0  0  0  0  0  0  0
  190.5020  176.0110  136.0150 C   0  0  0  0  0  3  0  0  0  0  0  0
  192.7180  176.7430  138.9740 C   0  0  0  0  0  0  0  0  0  0  0  0
  193.9740  175.4510  137.3370 C   0  0  2  0  0  3  0  0  0  0  0  0
  189.0930  176.7080  137.8610 C   0  0  0  0  0  0  0  0  0  0  0  0
  193.7240  174.1130  137.6420 O   0  0  0  0  0  1  0  0  0  0  0  0
  192.6900  177.5100  140.2500 C   0  0  0  0  0  1  0  0  0  0  0  0
  182.5110  179.0000  144.2820 N   0  0  0  0  0  2  0  0  0  0  0  0
  181.3810  178.5480  143.4860 C   0  0  0  0  0  2  0  0  0  0  0  0
  180.8110  179.7190  142.7130 C   0  0  0  0  0  2  0  0  0  0  0  0
  180.2830  179.2360  141.3790 C   0  0  0  0  0  2  0  0  0  0  0  0
  182.6880  176.6870  139.7440 C   0  0  0  0  0  1  0  0  0  0  0  0
  182.3360  179.0150  139.4230 O   0  0  0  0  0  0  0  0  0  0  0  0
  182.0000  177.9690  140.0390 C   0  0  0  0  0  0  0  0  0  0  0  0
  180.9550  178.0010  141.0120 N   0  0  0  0  0  2  0  0  0  0  0  0
  1  3  1  0  0  0  0
  2  5  1  0  0  0  0
  2  7  1  0  0  0  0
  4  9  1  0  0  0  0
  5  6  1  0  0  0  0
  6  4  2  0  0  0  0
  6  8  1  0  0  0  0
  7 10  1  0  0  0  0
  8  1  2  0  0  0  0
  9 37  1  0  0  0  0
  9  3  2  0  0  0  0
 10 11  1  6  0  0  0
 10  8  1  0  0  0  0
 12 11  1  0  0  0  0
 12 13  1  0  0  0  0
 13 14  1  0  0  0  0
 14 15  1  6  0  0  0
 14 16  1  0  0  0  0
 16 18  1  0  0  0  0
 18 21  1  0  0  0  0
 18 17  1  1  0  0  0
 20 21  2  0  0  0  0
 21 19  1  0  0  0  0
 21 22  1  0  0  0  0
 23  2  1  0  0  0  0
 24 23  1  0  0  0  0
 25 34  1  0  0  0  0
 26 32  2  0  0  0  0
 28 30  2  0  0  0  0
 29 28  1  0  0  0  0
 29 33  1  0  0  0  0
 30 27  1  0  0  0  0
 30 32  1  0  0  0  0
 31 25  2  0  0  0  0
 31 28  1  0  0  0  0
 32 36  1  0  0  0  0
 33 35  1  1  0  0  0
 33 26  1  0  0  0  0
 34 24  1  0  0  0  0
 34 27  2  0  0  0  0
 38 37  1  0  0  0  0
 39 38  1  0  0  0  0
 40 39  1  0  0  0  0
 41 43  1  0  0  0  0
 42 43  2  0  0  0  0
 43 44  1  0  0  0  0
 44 40  1  0  0  0  0
M  END
>  <MODEL>
8

>  <REMARK>
 VINA RESULT:      -7.4      2.700      7.487
  Name = 
  15 active torsions:
  status: ('A' for Active; 'I' for Inactive)
    1  A    between atoms: C_5  and  C_29
    2  A    between atoms: C_5  and  C_36
    3  A    between atoms: C_6  and  C_24
    4  A    between atoms: C_6  and  C_37
    5  A    between atoms: N_7  and  C_36
    6  A    between atoms: N_19  and  C_23
    7  A    between atoms: N_19  and  C_24
    8  A    between atoms: C_21  and  C_28
    9  A    between atoms: C_21  and  N_41
   10  A    between atoms: C_23  and  C_43
   11  A    between atoms: C_28  and  C_33
   12  A    between atoms: C_32  and  N_41
   13  A    between atoms: C_33  and  N_42
   14  A    between atoms: P_35  and  C_44
   15  A    between atoms: C_43  and  C_44
                            x       y       z     vdW  Elec       q    Type
                         _______ _______ _______ _____ _____    ______ ____

>  <TORSDO>
F 15

$$$$
=
 OpenBabel11032420513D

 44 47  0  0  1  0  0  0  0  0999 V2000
  188.6890  177.8390  141.4920 C   0  0  0  0  0  3  0  0  0  0  0  0
  191.1670  177.0400  138.2100 N   0  0  0  0  0  0  0  0  0  0  0  0
  189.2470  178.0210  142.7610 C   0  0  0  0  0  3  0  0  0  0  0  0
  191.4190  177.3770  141.9050 C   0  0  0  0  0  3  0  0  0  0  0  0
  191.7350  176.6920  139.5130 C   0  0  0  0  0  2  0  0  0  0  0  0
  190.8710  177.2090  140.6300 C   0  0  0  0  0  0  0  0  0  0  0  0
  189.8230  176.4760  138.1370 C   0  0  0  0  0  2  0  0  0  0  0  0
  189.4910  177.4250  140.4230 C   0  0  0  0  0  0  0  0  0  0  0  0
  190.6100  177.7910  142.9740 C   0  0  0  0  0  0  0  0  0  0  0  0
  188.8820  177.2660  139.0530 C   0  0  1  0  0  3  0  0  0  0  0  0
  188.5970  178.6350  138.4480 C   0  0  0  0  0  2  0  0  0  0  0  0
  187.9250  178.4830  137.0990 C   0  0  0  0  0  2  0  0  0  0  0  0
  186.5470  178.9510  137.1870 N   0  0  0  0  0  2  0  0  0  0  0  0
  185.7540  178.0390  138.0150 C   0  0  2  0  0  3  0  0  0  0  0  0
  185.6150  176.8000  137.3840 O   0  0  0  0  0  1  0  0  0  0  0  0
  184.3770  178.6160  138.3630 C   0  0  0  0  0  2  0  0  0  0  0  0
  185.5610  179.4090  140.3140 O   0  0  0  0  0  1  0  0  0  0  0  0
  184.2910  179.2170  139.7660 C   0  0  2  0  0  3  0  0  0  0  0  0
  181.8890  179.0890  141.3300 O   0  0  0  0  0  1  0  0  0  0  0  0
  184.0630  177.8720  142.1220 O   0  0  0  0  0  1  0  0  0  0  0  0
  183.2650  178.2130  140.8850 P   0  0  0  0  0  0  0  0  0  0  0  0
  182.7970  176.7840  140.1090 O   0  0  0  0  0  0  0  0  0  0  0  0
  191.9610  176.3800  137.1920 C   0  0  0  0  0  2  0  0  0  0  0  0
  191.2620  175.1080  136.7520 C   0  0  0  0  0  2  0  0  0  0  0  0
  192.0170  172.9470  135.7400 C   0  0  0  0  0  3  0  0  0  0  0  0
  196.2640  171.8350  138.2170 N   0  0  0  0  0  0  0  0  0  0  0  0
  193.3900  173.9960  137.4380 C   0  0  0  0  0  3  0  0  0  0  0  0
  194.0830  171.8950  136.4400 C   0  0  0  0  0  0  0  0  0  0  0  0
  195.1090  170.8120  136.2780 C   0  0  0  0  0  2  0  0  0  0  0  0
  194.3170  172.9490  137.3410 C   0  0  0  0  0  0  0  0  0  0  0  0
  192.9420  171.9030  135.6340 C   0  0  0  0  0  3  0  0  0  0  0  0
  195.5450  172.9190  138.1620 C   0  0  0  0  0  0  0  0  0  0  0  0
  195.8560  170.5710  137.5960 C   0  0  2  0  0  3  0  0  0  0  0  0
  192.2380  173.9900  136.6470 C   0  0  0  0  0  0  0  0  0  0  0  0
  195.0370  169.8610  138.4740 O   0  0  0  0  0  1  0  0  0  0  0  0
  196.0200  174.1370  138.8750 C   0  0  0  0  0  1  0  0  0  0  0  0
  191.1490  177.9780  144.2840 N   0  0  0  0  0  2  0  0  0  0  0  0
  190.8050  177.1270  145.4120 C   0  0  0  0  0  2  0  0  0  0  0  0
  189.8750  177.8780  146.3430 C   0  0  0  0  0  2  0  0  0  0  0  0
  188.6500  177.0340  146.6240 C   0  0  0  0  0  2  0  0  0  0  0  0
  185.2500  178.7290  145.9030 C   0  0  0  0  0  1  0  0  0  0  0  0
  186.5420  177.1260  144.7170 O   0  0  0  0  0  0  0  0  0  0  0  0
  186.4470  177.8660  145.7320 C   0  0  0  0  0  0  0  0  0  0  0  0
  187.4830  177.8940  146.7140 N   0  0  0  0  0  2  0  0  0  0  0  0
  1  3  1  0  0  0  0
  2  5  1  0  0  0  0
  3  9  2  0  0  0  0
  4  9  1  0  0  0  0
  5  6  1  0  0  0  0
  6  4  2  0  0  0  0
  7  2  1  0  0  0  0
  7 10  1  0  0  0  0
  8  6  1  0  0  0  0
  8  1  2  0  0  0  0
  9 37  1  0  0  0  0
 10 11  1  6  0  0  0
 10  8  1  0  0  0  0
 12 13  1  0  0  0  0
 12 11  1  0  0  0  0
 13 14  1  0  0  0  0
 14 15  1  6  0  0  0
 14 16  1  0  0  0  0
 16 18  1  0  0  0  0
 18 17  1  1  0  0  0
 18 21  1  0  0  0  0
 21 19  1  0  0  0  0
 21 20  1  0  0  0  0
 22 21  2  0  0  0  0
 23  2  1  0  0  0  0
 24 23  1  0  0  0  0
 25 34  1  0  0  0  0
 28 30  2  0  0  0  0
 29 28  1  0  0  0  0
 29 33  1  0  0  0  0
 30 27  1  0  0  0  0
 30 32  1  0  0  0  0
 31 25  2  0  0  0  0
 31 28  1  0  0  0  0
 32 26  2  0  0  0  0
 32 36  1  0  0  0  0
 33 26  1  0  0  0  0
 33 35  1  1  0  0  0
 34 24  1  0  0  0  0
 34 27  2  0  0  0  0
 37 38  1  0  0  0  0
 38 39  1  0  0  0  0
 39 40  1  0  0  0  0
 40 44  1  0  0  0  0
 42 43  2  0  0  0  0
 43 41  1  0  0  0  0
 43 44  1  0  0  0  0
M  END
>  <MODEL>
9

>  <REMARK>
 VINA RESULT:      -7.2      3.109      5.631
  Name = 
  15 active torsions:
  status: ('A' for Active; 'I' for Inactive)
    1  A    between atoms: C_5  and  C_29
    2  A    between atoms: C_5  and  C_36
    3  A    between atoms: C_6  and  C_24
    4  A    between atoms: C_6  and  C_37
    5  A    between atoms: N_7  and  C_36
    6  A    between atoms: N_19  and  C_23
    7  A    between atoms: N_19  and  C_24
    8  A    between atoms: C_21  and  C_28
    9  A    between atoms: C_21  and  N_41
   10  A    between atoms: C_23  and  C_43
   11  A    between atoms: C_28  and  C_33
   12  A    between atoms: C_32  and  N_41
   13  A    between atoms: C_33  and  N_42
   14  A    between atoms: P_35  and  C_44
   15  A    between atoms: C_43  and  C_44
                            x       y       z     vdW  Elec       q    Type
                         _______ _______ _______ _____ _____    ______ ____

>  <TORSDO>
F 15

$$$$
