=
 OpenBabel11042411473D

 53 56  0  0  1  0  0  0  0  0999 V2000
  184.0070  178.6500  144.8940 C   0  0  0  0  0  3  0  0  0  0  0  0
  183.4060  178.6690  143.6250 C   0  0  0  0  0  0  0  0  0  0  0  0
  184.2230  178.4570  142.4830 C   0  0  0  0  0  0  0  0  0  0  0  0
  185.5930  178.2200  142.6440 C   0  0  0  0  0  3  0  0  0  0  0  0
  186.1730  178.1980  143.9120 C   0  0  0  0  0  0  0  0  0  0  0  0
  185.3750  178.4190  145.0400 C   0  0  0  0  0  3  0  0  0  0  0  0
  180.9550  178.3430  144.3600 C   0  0  0  0  0  3  0  0  0  0  0  0
  180.0660  179.7100  142.9710 N   0  0  0  0  0  0  0  0  0  0  0  0
  181.3580  179.7550  142.6980 N   0  0  0  0  0  0  0  0  0  0  0  0
  179.7850  178.8780  143.9590 N   0  0  0  0  0  0  0  0  0  0  0  0
  181.9410  178.9000  143.5610 C   0  0  0  0  0  0  0  0  0  0  0  0
  179.0700  180.5040  142.2750 C   0  0  0  0  0  2  0  0  0  0  0  0
  179.7170  181.3440  141.2800 N   0  0  0  0  0  2  0  0  0  0  0  0
  179.3690  182.3280  139.0940 C   0  0  0  0  0  1  0  0  0  0  0  0
  179.1250  179.9970  139.4710 O   0  0  0  0  0  1  0  0  0  0  0  0
  178.9330  181.2480  140.0610 C   0  0  1  0  0  3  0  0  0  0  0  0
  183.6930  178.4610  141.0870 C   0  0  0  0  0  2  0  0  0  0  0  0
  184.7200  179.0430  140.1370 C   0  0  0  0  0  2  0  0  0  0  0  0
  184.1280  179.0980  138.7430 C   0  0  0  0  0  2  0  0  0  0  0  0
  185.6740  177.4740  137.5140 C   0  0  0  0  0  0  0  0  0  0  0  0
  185.5230  176.2360  136.9190 C   0  0  0  0  0  0  0  0  0  0  0  0
  184.1910  175.8890  137.0720 C   0  0  0  0  0  0  0  0  0  0  0  0
  186.8300  178.1710  137.6440 F   0  0  0  0  0  0  0  0  0  0  0  0
  183.5370  176.8660  137.7370 N   0  0  0  0  0  0  0  0  0  0  0  0
  182.1330  176.8590  138.1230 C   0  0  0  0  0  1  0  0  0  0  0  0
  184.4340  177.8380  138.0020 C   0  0  0  0  0  0  0  0  0  0  0  0
  186.6080  175.3970  136.3390 C   0  0  0  0  0  2  0  0  0  0  0  0
  186.9040  174.3480  137.2070 O   0  0  0  0  0  1  0  0  0  0  0  0
  183.5750  174.5910  136.6550 C   0  0  0  0  0  2  0  0  0  0  0  0
  183.1720  174.6710  135.3210 O   0  0  0  0  0  1  0  0  0  0  0  0
  187.6420  177.9320  144.0330 C   0  0  2  0  0  3  0  0  0  0  0  0
  188.1940  175.8770  142.9600 O   0  0  0  0  0  0  0  0  0  0  0  0
  188.5990  177.7900  141.6850 N   0  0  0  0  0  2  0  0  0  0  0  0
  188.1510  177.1330  142.8730 C   0  0  0  0  0  0  0  0  0  0  0  0
  189.1130  177.0460  140.5450 C   0  0  0  0  0  2  0  0  0  0  0  0
  190.6340  177.0330  140.5760 C   0  0  0  0  0  2  0  0  0  0  0  0
  191.1520  176.1300  139.5550 N   0  0  0  0  0  2  0  0  0  0  0  0
  191.8310  175.5130  136.3980 C   0  0  1  0  0  3  0  0  0  0  0  0
  192.9030  176.0230  135.6360 O   0  0  0  0  0  0  0  0  0  0  0  0
  191.7960  176.9280  138.5170 C   0  0  2  0  0  3  0  0  0  0  0  0
  193.9280  177.1310  137.3660 O   0  0  0  0  0  0  0  0  0  0  0  0
  194.0270  176.1400  136.4150 N   0  0  0  0  0  0  0  0  0  0  0  0
  191.1420  176.6650  137.1480 C   0  0  2  0  0  3  0  0  0  0  0  0
  189.7650  176.4670  137.2900 O   0  0  0  0  0  1  0  0  0  0  0  0
  193.2960  176.6250  138.5160 C   0  0  0  0  0  2  0  0  0  0  0  0
  194.8590  173.5630  135.5870 O   0  0  0  0  0  0  0  0  0  0  0  0
  194.7500  174.5950  136.9220 P   0  0  0  0  0  0  0  0  0  0  0  0
  196.2990  174.8340  137.5670 O   0  0  0  0  0  1  0  0  0  0  0  0
  193.8700  173.9540  137.9720 O   0  0  0  0  0  1  0  0  0  0  0  0
  190.6840  174.5690  135.2600 P   0  0  0  0  0  2  0  0  0  0  0  0
  190.6280  173.1470  136.2560 O   0  0  0  0  0  1  0  0  0  0  0  0
  187.9810  177.2910  145.3730 C   0  0  0  0  0  2  0  0  0  0  0  0
  189.3020  177.5810  145.7190 O   0  0  0  0  0  1  0  0  0  0  0  0
  1  6  1  0  0  0  0
  2  1  2  0  0  0  0
  3  4  2  0  0  0  0
  3  2  1  0  0  0  0
  4  5  1  0  0  0  0
  5 31  1  0  0  0  0
  5  6  2  0  0  0  0
  8 10  1  0  0  0  0
  9  8  1  0  0  0  0
  9 11  2  0  0  0  0
 10  7  2  0  0  0  0
 11  2  1  0  0  0  0
 11  7  1  0  0  0  0
 12  8  1  0  0  0  0
 13 12  1  0  0  0  0
 15 16  1  0  0  0  0
 16 14  1  6  0  0  0
 16 13  1  0  0  0  0
 17  3  1  0  0  0  0
 18 17  1  0  0  0  0
 19 18  1  0  0  0  0
 20 23  1  0  0  0  0
 20 26  2  0  0  0  0
 21 22  2  0  0  0  0
 21 20  1  0  0  0  0
 22 24  1  0  0  0  0
 24 26  1  0  0  0  0
 24 25  1  0  0  0  0
 26 19  1  0  0  0  0
 27 21  1  0  0  0  0
 27 28  1  0  0  0  0
 29 22  1  0  0  0  0
 30 29  1  0  0  0  0
 31 52  1  1  0  0  0
 33 34  1  0  0  0  0
 34 32  2  0  0  0  0
 34 31  1  0  0  0  0
 35 36  1  0  0  0  0
 35 33  1  0  0  0  0
 37 36  1  0  0  0  0
 38 50  1  6  0  0  0
 38 43  1  0  0  0  0
 39 38  1  0  0  0  0
 39 42  1  0  0  0  0
 40 37  1  1  0  0  0
 41 45  1  0  0  0  0
 42 47  1  0  0  0  0
 42 41  1  0  0  0  0
 43 44  1  1  0  0  0
 43 40  1  0  0  0  0
 45 40  1  0  0  0  0
 46 47  2  0  0  0  0
 47 48  1  0  0  0  0
 47 49  1  0  0  0  0
 50 51  1  0  0  0  0
 52 53  1  0  0  0  0
M  END
>  <MODEL>
1

>  <REMARK>
 VINA RESULT:      -7.2      0.000      0.000
  Name = 
  19 active torsions:
  status: ('A' for Active; 'I' for Inactive)
    1  A    between atoms: C_2  and  C_3
    2  A    between atoms: C_4  and  N_35
    3  A    between atoms: C_4  and  N_45
    4  A    between atoms: C_5  and  C_19
    5  A    between atoms: N_6  and  C_12
    6  A    between atoms: N_6  and  C_25
    7  A    between atoms: C_10  and  P_15
    8  A    between atoms: C_12  and  C_21
    9  A    between atoms: C_13  and  C_18
   10  A    between atoms: C_13  and  C_48
   11  A    between atoms: C_18  and  C_33
   12  A    between atoms: C_21  and  N_30
   13  A    between atoms: C_22  and  C_34
   14  A    between atoms: P_23  and  N_29
   15  A    between atoms: C_24  and  C_51
   16  A    between atoms: C_34  and  C_42
   17  A    between atoms: C_34  and  C_50
   18  A    between atoms: C_41  and  C_48
   19  A    between atoms: N_45  and  C_52
                            x       y       z     vdW  Elec       q    Type
                         _______ _______ _______ _____ _____    ______ ____

>  <TORSDO>
F 19

$$$$
=
 OpenBabel11042411473D

 53 56  0  0  1  0  0  0  0  0999 V2000
  184.7800  178.2190  144.4540 C   0  0  0  0  0  3  0  0  0  0  0  0
  184.3830  178.5350  143.1460 C   0  0  0  0  0  0  0  0  0  0  0  0
  185.3760  178.6010  142.1320 C   0  0  0  0  0  0  0  0  0  0  0  0
  186.7130  178.3390  142.4510 C   0  0  0  0  0  3  0  0  0  0  0  0
  187.0900  178.0200  143.7550 C   0  0  0  0  0  0  0  0  0  0  0  0
  186.1180  177.9660  144.7600 C   0  0  0  0  0  3  0  0  0  0  0  0
  181.9430  179.0030  143.8400 C   0  0  0  0  0  3  0  0  0  0  0  0
  181.1070  179.0820  141.8700 N   0  0  0  0  0  0  0  0  0  0  0  0
  182.3870  178.8240  141.6740 N   0  0  0  0  0  0  0  0  0  0  0  0
  180.8020  179.1970  143.1510 N   0  0  0  0  0  0  0  0  0  0  0  0
  182.9370  178.7680  142.9030 C   0  0  0  0  0  0  0  0  0  0  0  0
  180.1460  179.2420  140.7930 C   0  0  0  0  0  2  0  0  0  0  0  0
  180.6110  180.2620  139.8660 N   0  0  0  0  0  2  0  0  0  0  0  0
  178.9320  181.6990  140.8560 C   0  0  0  0  0  1  0  0  0  0  0  0
  179.8790  182.1620  138.7300 O   0  0  0  0  0  1  0  0  0  0  0  0
  179.4780  181.1210  139.5690 C   0  0  1  0  0  3  0  0  0  0  0  0
  185.0680  178.9340  140.7080 C   0  0  0  0  0  2  0  0  0  0  0  0
  186.1900  178.4640  139.8050 C   0  0  0  0  0  2  0  0  0  0  0  0
  185.7320  178.5480  138.3630 C   0  0  0  0  0  2  0  0  0  0  0  0
  183.5580  177.2210  138.1320 C   0  0  0  0  0  0  0  0  0  0  0  0
  183.2220  175.9610  137.6740 C   0  0  0  0  0  0  0  0  0  0  0  0
  184.4060  175.3610  137.2780 C   0  0  0  0  0  0  0  0  0  0  0  0
  182.7000  178.1750  138.5700 F   0  0  0  0  0  0  0  0  0  0  0  0
  185.4380  176.2080  137.4780 N   0  0  0  0  0  0  0  0  0  0  0  0
  186.8360  175.9600  137.1570 C   0  0  0  0  0  1  0  0  0  0  0  0
  184.9290  177.3410  138.0060 C   0  0  0  0  0  0  0  0  0  0  0  0
  181.8450  175.4150  137.5250 C   0  0  0  0  0  2  0  0  0  0  0  0
  181.3050  175.8310  136.3100 O   0  0  0  0  0  1  0  0  0  0  0  0
  184.5280  174.0150  136.6370 C   0  0  0  0  0  2  0  0  0  0  0  0
  184.6200  173.0310  137.6230 O   0  0  0  0  0  1  0  0  0  0  0  0
  188.5320  177.7390  144.0440 C   0  0  2  0  0  3  0  0  0  0  0  0
  188.7070  175.6500  142.9130 O   0  0  0  0  0  0  0  0  0  0  0  0
  190.1830  177.2970  142.1660 N   0  0  0  0  0  2  0  0  0  0  0  0
  189.1300  176.8310  143.0140 C   0  0  0  0  0  0  0  0  0  0  0  0
  190.7970  176.4380  141.1650 C   0  0  0  0  0  2  0  0  0  0  0  0
  190.2510  176.7750  139.7850 C   0  0  0  0  0  2  0  0  0  0  0  0
  190.7780  175.8470  138.7920 N   0  0  0  0  0  2  0  0  0  0  0  0
  192.4150  174.9510  136.0850 C   0  0  1  0  0  3  0  0  0  0  0  0
  193.6140  175.5020  135.5860 O   0  0  0  0  0  0  0  0  0  0  0  0
  191.6260  176.5930  137.8680 C   0  0  2  0  0  3  0  0  0  0  0  0
  193.9760  176.9330  137.3450 O   0  0  0  0  0  0  0  0  0  0  0  0
  194.4400  175.8570  136.6220 N   0  0  0  0  0  0  0  0  0  0  0  0
  191.4330  176.0850  136.4270 C   0  0  2  0  0  3  0  0  0  0  0  0
  190.1000  175.7260  136.2050 O   0  0  0  0  0  1  0  0  0  0  0  0
  193.0790  176.4900  138.3340 C   0  0  0  0  0  2  0  0  0  0  0  0
  195.5720  175.0230  139.0810 O   0  0  0  0  0  1  0  0  0  0  0  0
  195.1170  174.4910  137.5420 P   0  0  0  0  0  0  0  0  0  0  0  0
  193.9810  173.2440  137.6980 O   0  0  0  0  0  1  0  0  0  0  0  0
  196.3370  173.9630  136.8210 O   0  0  0  0  0  0  0  0  0  0  0  0
  191.7460  173.7360  134.8280 P   0  0  0  0  0  2  0  0  0  0  0  0
  190.8670  172.7920  135.9920 O   0  0  0  0  0  1  0  0  0  0  0  0
  188.7210  177.2130  145.4620 C   0  0  0  0  0  2  0  0  0  0  0  0
  190.0580  177.3390  145.8430 O   0  0  0  0  0  1  0  0  0  0  0  0
  1  6  1  0  0  0  0
  2  1  2  0  0  0  0
  3  4  2  0  0  0  0
  3  2  1  0  0  0  0
  4  5  1  0  0  0  0
  5 31  1  0  0  0  0
  5  6  2  0  0  0  0
  8 10  1  0  0  0  0
  9  8  1  0  0  0  0
  9 11  2  0  0  0  0
 10  7  2  0  0  0  0
 11  2  1  0  0  0  0
 11  7  1  0  0  0  0
 12  8  1  0  0  0  0
 13 12  1  0  0  0  0
 15 16  1  0  0  0  0
 16 13  1  0  0  0  0
 16 14  1  1  0  0  0
 17  3  1  0  0  0  0
 18 17  1  0  0  0  0
 19 18  1  0  0  0  0
 20 23  1  0  0  0  0
 21 20  1  0  0  0  0
 22 24  1  0  0  0  0
 22 21  2  0  0  0  0
 24 26  1  0  0  0  0
 25 24  1  0  0  0  0
 26 20  2  0  0  0  0
 26 19  1  0  0  0  0
 27 21  1  0  0  0  0
 28 27  1  0  0  0  0
 29 22  1  0  0  0  0
 29 30  1  0  0  0  0
 31 52  1  1  0  0  0
 32 34  2  0  0  0  0
 33 34  1  0  0  0  0
 34 31  1  0  0  0  0
 35 33  1  0  0  0  0
 36 35  1  0  0  0  0
 37 36  1  0  0  0  0
 38 50  1  6  0  0  0
 38 43  1  0  0  0  0
 39 38  1  0  0  0  0
 39 42  1  0  0  0  0
 40 45  1  0  0  0  0
 40 37  1  1  0  0  0
 41 45  1  0  0  0  0
 42 41  1  0  0  0  0
 42 47  1  0  0  0  0
 43 44  1  1  0  0  0
 43 40  1  0  0  0  0
 47 48  1  0  0  0  0
 47 46  1  0  0  0  0
 49 47  2  0  0  0  0
 50 51  1  0  0  0  0
 52 53  1  0  0  0  0
M  END
>  <MODEL>
2

>  <REMARK>
 VINA RESULT:      -6.8      1.349      2.044
  Name = 
  19 active torsions:
  status: ('A' for Active; 'I' for Inactive)
    1  A    between atoms: C_2  and  C_3
    2  A    between atoms: C_4  and  N_35
    3  A    between atoms: C_4  and  N_45
    4  A    between atoms: C_5  and  C_19
    5  A    between atoms: N_6  and  C_12
    6  A    between atoms: N_6  and  C_25
    7  A    between atoms: C_10  and  P_15
    8  A    between atoms: C_12  and  C_21
    9  A    between atoms: C_13  and  C_18
   10  A    between atoms: C_13  and  C_48
   11  A    between atoms: C_18  and  C_33
   12  A    between atoms: C_21  and  N_30
   13  A    between atoms: C_22  and  C_34
   14  A    between atoms: P_23  and  N_29
   15  A    between atoms: C_24  and  C_51
   16  A    between atoms: C_34  and  C_42
   17  A    between atoms: C_34  and  C_50
   18  A    between atoms: C_41  and  C_48
   19  A    between atoms: N_45  and  C_52
                            x       y       z     vdW  Elec       q    Type
                         _______ _______ _______ _____ _____    ______ ____

>  <TORSDO>
F 19

$$$$
=
 OpenBabel11042411473D

 53 56  0  0  1  0  0  0  0  0999 V2000
  183.9930  178.6790  144.8450 C   0  0  0  0  0  3  0  0  0  0  0  0
  183.5610  178.7550  143.5120 C   0  0  0  0  0  0  0  0  0  0  0  0
  184.5130  178.5550  142.4770 C   0  0  0  0  0  0  0  0  0  0  0  0
  185.8450  178.2760  142.8030 C   0  0  0  0  0  3  0  0  0  0  0  0
  186.2570  178.1970  144.1330 C   0  0  0  0  0  0  0  0  0  0  0  0
  185.3250  178.4050  145.1560 C   0  0  0  0  0  3  0  0  0  0  0  0
  181.0360  178.6020  144.0170 C   0  0  0  0  0  3  0  0  0  0  0  0
  180.3570  179.8310  142.4000 N   0  0  0  0  0  0  0  0  0  0  0  0
  181.6700  179.7990  142.2610 N   0  0  0  0  0  0  0  0  0  0  0  0
  179.9390  179.1290  143.4390 N   0  0  0  0  0  0  0  0  0  0  0  0
  182.1220  179.0290  143.2690 C   0  0  0  0  0  0  0  0  0  0  0  0
  179.4730  180.5750  141.5200 C   0  0  0  0  0  2  0  0  0  0  0  0
  179.7860  180.2660  140.1330 N   0  0  0  0  0  2  0  0  0  0  0  0
  181.2200  181.3490  138.5100 C   0  0  0  0  0  1  0  0  0  0  0  0
  178.9310  181.9330  138.7450 O   0  0  0  0  0  1  0  0  0  0  0  0
  180.0570  181.5250  139.4630 C   0  0  1  0  0  3  0  0  0  0  0  0
  184.1670  178.6190  141.0250 C   0  0  0  0  0  2  0  0  0  0  0  0
  183.3910  177.3830  140.6160 C   0  0  0  0  0  2  0  0  0  0  0  0
  182.5310  177.7160  139.4140 C   0  0  0  0  0  2  0  0  0  0  0  0
  183.8510  176.7950  137.4260 C   0  0  0  0  0  0  0  0  0  0  0  0
  183.7260  175.7060  136.5860 C   0  0  0  0  0  0  0  0  0  0  0  0
  182.5920  175.0250  136.9940 C   0  0  0  0  0  0  0  0  0  0  0  0
  184.8540  177.7090  137.4200 F   0  0  0  0  0  0  0  0  0  0  0  0
  182.0310  175.6600  138.0470 N   0  0  0  0  0  0  0  0  0  0  0  0
  180.8470  175.2380  138.7810 C   0  0  0  0  0  1  0  0  0  0  0  0
  182.7900  176.7440  138.3090 C   0  0  0  0  0  0  0  0  0  0  0  0
  184.6930  175.2890  135.5320 C   0  0  0  0  0  2  0  0  0  0  0  0
  185.2920  174.0850  135.8970 O   0  0  0  0  0  1  0  0  0  0  0  0
  182.1010  173.7310  136.4280 C   0  0  0  0  0  2  0  0  0  0  0  0
  181.5960  173.9410  135.1440 O   0  0  0  0  0  1  0  0  0  0  0  0
  187.6910  177.8860  144.4310 C   0  0  2  0  0  3  0  0  0  0  0  0
  187.9040  175.8280  143.2510 O   0  0  0  0  0  0  0  0  0  0  0  0
  189.3160  177.5330  142.5120 N   0  0  0  0  0  2  0  0  0  0  0  0
  188.2950  177.0190  143.3700 C   0  0  0  0  0  0  0  0  0  0  0  0
  189.9350  176.7140  141.4810 C   0  0  0  0  0  2  0  0  0  0  0  0
  190.9680  177.5310  140.7190 C   0  0  0  0  0  2  0  0  0  0  0  0
  190.9990  177.1270  139.3190 N   0  0  0  0  0  2  0  0  0  0  0  0
  189.8690  175.7180  136.5700 C   0  0  1  0  0  3  0  0  0  0  0  0
  188.5260  175.4350  136.2420 O   0  0  0  0  0  0  0  0  0  0  0  0
  189.8330  176.2890  139.0540 C   0  0  2  0  0  3  0  0  0  0  0  0
  187.6050  176.4350  138.0910 O   0  0  0  0  0  0  0  0  0  0  0  0
  187.7020  176.4230  136.7180 N   0  0  0  0  0  0  0  0  0  0  0  0
  190.1630  175.2210  137.9960 C   0  0  2  0  0  3  0  0  0  0  0  0
  191.4770  174.7670  138.1460 O   0  0  0  0  0  1  0  0  0  0  0  0
  188.6630  177.1840  138.6370 C   0  0  0  0  0  2  0  0  0  0  0  0
  186.7970  178.0630  134.5940 O   0  0  0  0  0  0  0  0  0  0  0  0
  187.8680  177.9960  135.9010 P   0  0  0  0  0  0  0  0  0  0  0  0
  187.5270  179.2700  136.9640 O   0  0  0  0  0  1  0  0  0  0  0  0
  189.2830  178.1430  135.3890 O   0  0  0  0  0  1  0  0  0  0  0  0
  190.9770  174.9580  135.2690 P   0  0  0  0  0  2  0  0  0  0  0  0
  190.4430  173.3290  135.5560 O   0  0  0  0  0  1  0  0  0  0  0  0
  187.8520  177.2940  145.8260 C   0  0  0  0  0  2  0  0  0  0  0  0
  189.2060  177.1160  146.1150 O   0  0  0  0  0  1  0  0  0  0  0  0
  1  6  1  0  0  0  0
  2  1  2  0  0  0  0
  3  4  2  0  0  0  0
  3  2  1  0  0  0  0
  4  5  1  0  0  0  0
  5 31  1  0  0  0  0
  5  6  2  0  0  0  0
  8 10  1  0  0  0  0
  9  8  1  0  0  0  0
  9 11  2  0  0  0  0
 10  7  2  0  0  0  0
 11  2  1  0  0  0  0
 11  7  1  0  0  0  0
 12  8  1  0  0  0  0
 13 12  1  0  0  0  0
 15 16  1  0  0  0  0
 16 14  1  6  0  0  0
 16 13  1  0  0  0  0
 17  3  1  0  0  0  0
 18 17  1  0  0  0  0
 19 18  1  0  0  0  0
 20 26  2  0  0  0  0
 21 22  2  0  0  0  0
 21 20  1  0  0  0  0
 22 24  1  0  0  0  0
 23 20  1  0  0  0  0
 24 26  1  0  0  0  0
 24 25  1  0  0  0  0
 26 19  1  0  0  0  0
 27 28  1  0  0  0  0
 27 21  1  0  0  0  0
 29 22  1  0  0  0  0
 30 29  1  0  0  0  0
 31 52  1  1  0  0  0
 32 34  2  0  0  0  0
 33 34  1  0  0  0  0
 34 31  1  0  0  0  0
 35 33  1  0  0  0  0
 36 35  1  0  0  0  0
 37 36  1  0  0  0  0
 38 50  1  6  0  0  0
 38 43  1  0  0  0  0
 39 38  1  0  0  0  0
 39 42  1  0  0  0  0
 40 37  1  6  0  0  0
 41 45  1  0  0  0  0
 42 41  1  0  0  0  0
 43 44  1  6  0  0  0
 43 40  1  0  0  0  0
 45 40  1  0  0  0  0
 46 47  2  0  0  0  0
 47 42  1  0  0  0  0
 47 48  1  0  0  0  0
 49 47  1  0  0  0  0
 50 51  1  0  0  0  0
 52 53  1  0  0  0  0
M  END
>  <MODEL>
3

>  <REMARK>
 VINA RESULT:      -6.8      1.890      3.084
  Name = 
  19 active torsions:
  status: ('A' for Active; 'I' for Inactive)
    1  A    between atoms: C_2  and  C_3
    2  A    between atoms: C_4  and  N_35
    3  A    between atoms: C_4  and  N_45
    4  A    between atoms: C_5  and  C_19
    5  A    between atoms: N_6  and  C_12
    6  A    between atoms: N_6  and  C_25
    7  A    between atoms: C_10  and  P_15
    8  A    between atoms: C_12  and  C_21
    9  A    between atoms: C_13  and  C_18
   10  A    between atoms: C_13  and  C_48
   11  A    between atoms: C_18  and  C_33
   12  A    between atoms: C_21  and  N_30
   13  A    between atoms: C_22  and  C_34
   14  A    between atoms: P_23  and  N_29
   15  A    between atoms: C_24  and  C_51
   16  A    between atoms: C_34  and  C_42
   17  A    between atoms: C_34  and  C_50
   18  A    between atoms: C_41  and  C_48
   19  A    between atoms: N_45  and  C_52
                            x       y       z     vdW  Elec       q    Type
                         _______ _______ _______ _____ _____    ______ ____

>  <TORSDO>
F 19

$$$$
=
 OpenBabel11042411473D

 53 56  0  0  1  0  0  0  0  0999 V2000
  190.4460  176.2480  142.3560 C   0  0  0  0  0  3  0  0  0  0  0  0
  190.2700  176.9560  141.1570 C   0  0  0  0  0  0  0  0  0  0  0  0
  189.0710  177.6950  140.9730 C   0  0  0  0  0  0  0  0  0  0  0  0
  188.1050  177.7140  141.9860 C   0  0  0  0  0  3  0  0  0  0  0  0
  188.2980  177.0090  143.1740 C   0  0  0  0  0  0  0  0  0  0  0  0
  189.4720  176.2700  143.3550 C   0  0  0  0  0  3  0  0  0  0  0  0
  192.6090  177.5050  140.2170 C   0  0  0  0  0  3  0  0  0  0  0  0
  192.4640  176.3460  138.4220 N   0  0  0  0  0  0  0  0  0  0  0  0
  191.2990  176.1740  139.0210 N   0  0  0  0  0  0  0  0  0  0  0  0
  193.2750  177.1340  139.1060 N   0  0  0  0  0  0  0  0  0  0  0  0
  191.3650  176.8970  140.1560 C   0  0  0  0  0  0  0  0  0  0  0  0
  192.8200  175.7180  137.1620 C   0  0  0  0  0  2  0  0  0  0  0  0
  191.6430  175.1020  136.5700 N   0  0  0  0  0  2  0  0  0  0  0  0
  190.5200  176.3730  134.8410 C   0  0  0  0  0  1  0  0  0  0  0  0
  192.8690  176.0290  134.8160 O   0  0  0  0  0  1  0  0  0  0  0  0
  191.6570  175.4230  135.1530 C   0  0  1  0  0  3  0  0  0  0  0  0
  188.7770  178.4800  139.7370 C   0  0  0  0  0  2  0  0  0  0  0  0
  187.3360  178.2740  139.3150 C   0  0  0  0  0  2  0  0  0  0  0  0
  187.2710  178.1910  137.8030 C   0  0  0  0  0  2  0  0  0  0  0  0
  187.3140  175.7020  137.2200 C   0  0  0  0  0  0  0  0  0  0  0  0
  186.3690  174.7650  136.8480 C   0  0  0  0  0  0  0  0  0  0  0  0
  185.1550  175.4300  136.8050 C   0  0  0  0  0  0  0  0  0  0  0  0
  188.6330  175.4750  137.4360 F   0  0  0  0  0  0  0  0  0  0  0  0
  185.3320  176.7270  137.1380 N   0  0  0  0  0  0  0  0  0  0  0  0
  184.2950  177.7430  137.2410 C   0  0  0  0  0  1  0  0  0  0  0  0
  186.6470  176.9000  137.3840 C   0  0  0  0  0  0  0  0  0  0  0  0
  186.6000  173.3060  136.6550 C   0  0  0  0  0  2  0  0  0  0  0  0
  186.3350  172.6280  137.8430 O   0  0  0  0  0  1  0  0  0  0  0  0
  183.8260  174.8020  136.5280 C   0  0  0  0  0  2  0  0  0  0  0  0
  183.3010  174.2740  137.7080 O   0  0  0  0  0  1  0  0  0  0  0  0
  187.2380  177.0680  144.2310 C   0  0  2  0  0  3  0  0  0  0  0  0
  185.7710  178.8470  144.8300 O   0  0  0  0  0  0  0  0  0  0  0  0
  185.6970  178.2280  142.5800 N   0  0  0  0  0  2  0  0  0  0  0  0
  186.2020  178.1010  143.9110 C   0  0  0  0  0  0  0  0  0  0  0  0
  184.6800  179.2110  142.2370 C   0  0  0  0  0  2  0  0  0  0  0  0
  183.2960  178.5910  142.3630 C   0  0  0  0  0  2  0  0  0  0  0  0
  182.7560  178.2900  141.0430 N   0  0  0  0  0  2  0  0  0  0  0  0
  180.3930  178.0370  138.7690 C   0  0  1  0  0  3  0  0  0  0  0  0
  179.0760  178.5380  138.8420 O   0  0  0  0  0  0  0  0  0  0  0  0
  181.3010  178.2230  141.1440 C   0  0  2  0  0  3  0  0  0  0  0  0
  179.3380  179.6270  140.8460 O   0  0  0  0  0  0  0  0  0  0  0  0
  179.0610  179.7400  139.5020 N   0  0  0  0  0  0  0  0  0  0  0  0
  180.7260  177.2830  140.0680 C   0  0  2  0  0  3  0  0  0  0  0  0
  181.5820  176.1970  139.8540 O   0  0  0  0  0  1  0  0  0  0  0  0
  180.7300  179.6390  141.0470 C   0  0  0  0  0  2  0  0  0  0  0  0
  181.5080  180.9280  138.7160 O   0  0  0  0  0  1  0  0  0  0  0  0
  179.8270  181.0860  138.6240 P   0  0  0  0  0  0  0  0  0  0  0  0
  179.3580  181.0920  136.9970 O   0  0  0  0  0  0  0  0  0  0  0  0
  179.4180  182.3940  139.2640 O   0  0  0  0  0  1  0  0  0  0  0  0
  180.5490  176.9830  137.2310 P   0  0  0  0  0  2  0  0  0  0  0  0
  178.9760  176.2610  137.3890 O   0  0  0  0  0  1  0  0  0  0  0  0
  187.8460  177.2640  145.6150 C   0  0  0  0  0  2  0  0  0  0  0  0
  188.8360  178.2470  145.5650 O   0  0  0  0  0  1  0  0  0  0  0  0
  1  6  1  0  0  0  0
  2  1  2  0  0  0  0
  3  2  1  0  0  0  0
  3  4  2  0  0  0  0
  4  5  1  0  0  0  0
  5  6  2  0  0  0  0
  5 31  1  0  0  0  0
  8  9  1  0  0  0  0
  8 10  1  0  0  0  0
  9 11  2  0  0  0  0
 10  7  2  0  0  0  0
 11  7  1  0  0  0  0
 11  2  1  0  0  0  0
 12  8  1  0  0  0  0
 13 12  1  0  0  0  0
 15 16  1  0  0  0  0
 16 14  1  1  0  0  0
 16 13  1  0  0  0  0
 17  3  1  0  0  0  0
 18 17  1  0  0  0  0
 19 18  1  0  0  0  0
 20 26  2  0  0  0  0
 20 23  1  0  0  0  0
 21 20  1  0  0  0  0
 22 21  2  0  0  0  0
 22 24  1  0  0  0  0
 24 25  1  0  0  0  0
 24 26  1  0  0  0  0
 26 19  1  0  0  0  0
 27 21  1  0  0  0  0
 27 28  1  0  0  0  0
 29 22  1  0  0  0  0
 29 30  1  0  0  0  0
 31 52  1  1  0  0  0
 33 34  1  0  0  0  0
 34 31  1  0  0  0  0
 34 32  2  0  0  0  0
 35 36  1  0  0  0  0
 35 33  1  0  0  0  0
 37 36  1  0  0  0  0
 38 50  1  6  0  0  0
 38 39  1  0  0  0  0
 38 43  1  0  0  0  0
 39 42  1  0  0  0  0
 40 37  1  6  0  0  0
 41 45  1  0  0  0  0
 42 41  1  0  0  0  0
 43 44  1  6  0  0  0
 43 40  1  0  0  0  0
 45 40  1  0  0  0  0
 47 46  1  0  0  0  0
 47 49  1  0  0  0  0
 47 42  1  0  0  0  0
 48 47  2  0  0  0  0
 50 51  1  0  0  0  0
 53 52  1  0  0  0  0
M  END
>  <MODEL>
4

>  <REMARK>
 VINA RESULT:      -6.3      3.337      9.716
  Name = 
  19 active torsions:
  status: ('A' for Active; 'I' for Inactive)
    1  A    between atoms: C_2  and  C_3
    2  A    between atoms: C_4  and  N_35
    3  A    between atoms: C_4  and  N_45
    4  A    between atoms: C_5  and  C_19
    5  A    between atoms: N_6  and  C_12
    6  A    between atoms: N_6  and  C_25
    7  A    between atoms: C_10  and  P_15
    8  A    between atoms: C_12  and  C_21
    9  A    between atoms: C_13  and  C_18
   10  A    between atoms: C_13  and  C_48
   11  A    between atoms: C_18  and  C_33
   12  A    between atoms: C_21  and  N_30
   13  A    between atoms: C_22  and  C_34
   14  A    between atoms: P_23  and  N_29
   15  A    between atoms: C_24  and  C_51
   16  A    between atoms: C_34  and  C_42
   17  A    between atoms: C_34  and  C_50
   18  A    between atoms: C_41  and  C_48
   19  A    between atoms: N_45  and  C_52
                            x       y       z     vdW  Elec       q    Type
                         _______ _______ _______ _____ _____    ______ ____

>  <TORSDO>
F 19

$$$$
=
 OpenBabel11042411473D

 53 56  0  0  1  0  0  0  0  0999 V2000
  183.1050  178.2480  144.5620 C   0  0  0  0  0  3  0  0  0  0  0  0
  184.4170  178.6170  144.2270 C   0  0  0  0  0  0  0  0  0  0  0  0
  184.6970  178.9870  142.8850 C   0  0  0  0  0  0  0  0  0  0  0  0
  183.6680  178.9910  141.9360 C   0  0  0  0  0  3  0  0  0  0  0  0
  182.3680  178.6280  142.2870 C   0  0  0  0  0  0  0  0  0  0  0  0
  182.0900  178.2500  143.6050 C   0  0  0  0  0  3  0  0  0  0  0  0
  185.5800  179.5160  146.3460 C   0  0  0  0  0  3  0  0  0  0  0  0
  187.0440  177.9640  146.5370 N   0  0  0  0  0  0  0  0  0  0  0  0
  186.3620  177.6430  145.4530 N   0  0  0  0  0  0  0  0  0  0  0  0
  186.6080  179.0770  147.1000 N   0  0  0  0  0  0  0  0  0  0  0  0
  185.4330  178.6080  145.3100 C   0  0  0  0  0  0  0  0  0  0  0  0
  188.1400  177.1690  147.0620 C   0  0  0  0  0  2  0  0  0  0  0  0
  189.3960  177.8780  146.8750 N   0  0  0  0  0  2  0  0  0  0  0  0
  190.1960  178.2610  144.6220 C   0  0  0  0  0  1  0  0  0  0  0  0
  191.3510  176.8440  146.1350 O   0  0  0  0  0  1  0  0  0  0  0  0
  190.0750  177.2600  145.7500 C   0  0  1  0  0  3  0  0  0  0  0  0
  186.0560  179.3910  142.4150 C   0  0  0  0  0  2  0  0  0  0  0  0
  186.7290  178.2380  141.6990 C   0  0  0  0  0  2  0  0  0  0  0  0
  188.1640  178.6170  141.3930 C   0  0  0  0  0  2  0  0  0  0  0  0
  188.0370  177.8720  138.9500 C   0  0  0  0  0  0  0  0  0  0  0  0
  188.8150  177.0840  138.1230 C   0  0  0  0  0  0  0  0  0  0  0  0
  189.8780  176.6410  138.8920 C   0  0  0  0  0  0  0  0  0  0  0  0
  186.9200  178.5540  138.5970 F   0  0  0  0  0  0  0  0  0  0  0  0
  189.7720  177.1320  140.1450 N   0  0  0  0  0  0  0  0  0  0  0  0
  190.7100  176.9230  141.2390 C   0  0  0  0  0  1  0  0  0  0  0  0
  188.6470  177.8760  140.1890 C   0  0  0  0  0  0  0  0  0  0  0  0
  188.6080  176.8630  136.6640 C   0  0  0  0  0  2  0  0  0  0  0  0
  189.3280  177.8110  135.9400 O   0  0  0  0  0  1  0  0  0  0  0  0
  191.0280  175.8210  138.3990 C   0  0  0  0  0  2  0  0  0  0  0  0
  190.5650  174.5780  137.9630 O   0  0  0  0  0  1  0  0  0  0  0  0
  181.2990  178.6570  141.2380 C   0  0  2  0  0  3  0  0  0  0  0  0
  183.0210  179.5060  139.8270 O   0  0  0  0  0  0  0  0  0  0  0  0
  181.0640  178.8800  138.7190 N   0  0  0  0  0  2  0  0  0  0  0  0
  181.8550  179.0350  139.9000 C   0  0  0  0  0  0  0  0  0  0  0  0
  181.5670  179.2510  137.4050 C   0  0  0  0  0  2  0  0  0  0  0  0
  181.3590  178.1050  136.4270 C   0  0  0  0  0  2  0  0  0  0  0  0
  182.6440  177.6160  135.9410 N   0  0  0  0  0  2  0  0  0  0  0  0
  184.8030  175.1370  136.0220 C   0  0  1  0  0  3  0  0  0  0  0  0
  184.9830  174.1910  137.0530 O   0  0  0  0  0  0  0  0  0  0  0  0
  183.3320  176.9510  137.0430 C   0  0  2  0  0  3  0  0  0  0  0  0
  183.2280  174.9040  138.3500 O   0  0  0  0  0  0  0  0  0  0  0  0
  183.7750  173.8720  137.6210 N   0  0  0  0  0  0  0  0  0  0  0  0
  184.7600  176.5510  136.6270 C   0  0  2  0  0  3  0  0  0  0  0  0
  185.3150  177.5150  135.7800 O   0  0  0  0  0  1  0  0  0  0  0  0
  182.4980  175.7520  137.4980 C   0  0  0  0  0  2  0  0  0  0  0  0
  181.2850  172.5360  137.4430 O   0  0  0  0  0  1  0  0  0  0  0  0
  182.6760  172.9430  136.5730 P   0  0  0  0  0  0  0  0  0  0  0  0
  182.2340  173.8460  135.2090 O   0  0  0  0  0  0  0  0  0  0  0  0
  183.3690  171.6760  136.1260 O   0  0  0  0  0  1  0  0  0  0  0  0
  186.1600  174.9080  134.7540 P   0  0  0  0  0  2  0  0  0  0  0  0
  186.0750  173.1720  134.7620 O   0  0  0  0  0  1  0  0  0  0  0  0
  180.1360  179.5480  141.6560 C   0  0  0  0  0  2  0  0  0  0  0  0
  180.4190  180.8790  141.3450 O   0  0  0  0  0  1  0  0  0  0  0  0
  2  1  1  0  0  0  0
  2 11  1  0  0  0  0
  3  2  2  0  0  0  0
  4  5  2  0  0  0  0
  4  3  1  0  0  0  0
  5  6  1  0  0  0  0
  6  1  2  0  0  0  0
  7 10  2  0  0  0  0
  8 12  1  0  0  0  0
  8 10  1  0  0  0  0
  9  8  1  0  0  0  0
 11  9  2  0  0  0  0
 11  7  1  0  0  0  0
 13 12  1  0  0  0  0
 16 14  1  6  0  0  0
 16 15  1  0  0  0  0
 16 13  1  0  0  0  0
 17  3  1  0  0  0  0
 18 17  1  0  0  0  0
 19 18  1  0  0  0  0
 20 26  2  0  0  0  0
 21 22  2  0  0  0  0
 21 20  1  0  0  0  0
 22 24  1  0  0  0  0
 23 20  1  0  0  0  0
 24 26  1  0  0  0  0
 24 25  1  0  0  0  0
 26 19  1  0  0  0  0
 27 21  1  0  0  0  0
 28 27  1  0  0  0  0
 29 22  1  0  0  0  0
 30 29  1  0  0  0  0
 31 52  1  1  0  0  0
 31  5  1  0  0  0  0
 32 34  2  0  0  0  0
 33 34  1  0  0  0  0
 34 31  1  0  0  0  0
 35 33  1  0  0  0  0
 36 35  1  0  0  0  0
 37 36  1  0  0  0  0
 38 50  1  6  0  0  0
 38 43  1  0  0  0  0
 38 39  1  0  0  0  0
 39 42  1  0  0  0  0
 40 37  1  6  0  0  0
 40 45  1  0  0  0  0
 42 41  1  0  0  0  0
 43 44  1  6  0  0  0
 43 40  1  0  0  0  0
 45 41  1  0  0  0  0
 47 46  1  0  0  0  0
 47 42  1  0  0  0  0
 48 47  2  0  0  0  0
 49 47  1  0  0  0  0
 50 51  1  0  0  0  0
 53 52  1  0  0  0  0
M  END
>  <MODEL>
5

>  <REMARK>
 VINA RESULT:      -6.3      2.951      8.019
  Name = 
  19 active torsions:
  status: ('A' for Active; 'I' for Inactive)
    1  A    between atoms: C_2  and  C_3
    2  A    between atoms: C_4  and  N_35
    3  A    between atoms: C_4  and  N_45
    4  A    between atoms: C_5  and  C_19
    5  A    between atoms: N_6  and  C_12
    6  A    between atoms: N_6  and  C_25
    7  A    between atoms: C_10  and  P_15
    8  A    between atoms: C_12  and  C_21
    9  A    between atoms: C_13  and  C_18
   10  A    between atoms: C_13  and  C_48
   11  A    between atoms: C_18  and  C_33
   12  A    between atoms: C_21  and  N_30
   13  A    between atoms: C_22  and  C_34
   14  A    between atoms: P_23  and  N_29
   15  A    between atoms: C_24  and  C_51
   16  A    between atoms: C_34  and  C_42
   17  A    between atoms: C_34  and  C_50
   18  A    between atoms: C_41  and  C_48
   19  A    between atoms: N_45  and  C_52
                            x       y       z     vdW  Elec       q    Type
                         _______ _______ _______ _____ _____    ______ ____

>  <TORSDO>
F 19

$$$$
=
 OpenBabel11042411473D

 53 56  0  0  1  0  0  0  0  0999 V2000
  180.1260  176.7900  139.8660 C   0  0  0  0  0  3  0  0  0  0  0  0
  181.1150  176.9490  138.8830 C   0  0  0  0  0  0  0  0  0  0  0  0
  182.0590  178.0000  139.0320 C   0  0  0  0  0  0  0  0  0  0  0  0
  181.9930  178.8380  140.1510 C   0  0  0  0  0  3  0  0  0  0  0  0
  181.0070  178.6630  141.1220 C   0  0  0  0  0  0  0  0  0  0  0  0
  180.0680  177.6370  140.9730 C   0  0  0  0  0  3  0  0  0  0  0  0
  180.0890  175.7170  136.8620 C   0  0  0  0  0  3  0  0  0  0  0  0
  181.8160  174.5670  136.3340 N   0  0  0  0  0  0  0  0  0  0  0  0
  182.1920  175.2570  137.3950 N   0  0  0  0  0  0  0  0  0  0  0  0
  180.5660  174.8140  135.9830 N   0  0  0  0  0  0  0  0  0  0  0  0
  181.1180  175.9910  137.7490 C   0  0  0  0  0  0  0  0  0  0  0  0
  182.6900  173.6530  135.6190 C   0  0  0  0  0  2  0  0  0  0  0  0
  182.5590  172.3140  136.1710 N   0  0  0  0  0  2  0  0  0  0  0  0
  184.6920  172.3820  137.3160 C   0  0  0  0  0  1  0  0  0  0  0  0
  183.8000  170.3600  136.4490 O   0  0  0  0  0  1  0  0  0  0  0  0
  183.8890  171.7330  136.2090 C   0  0  1  0  0  3  0  0  0  0  0  0
  183.1490  178.2640  138.0470 C   0  0  0  0  0  2  0  0  0  0  0  0
  184.4820  177.8060  138.6030 C   0  0  0  0  0  2  0  0  0  0  0  0
  185.5880  178.2600  137.6720 C   0  0  0  0  0  2  0  0  0  0  0  0
  186.3660  175.9870  136.7970 C   0  0  0  0  0  0  0  0  0  0  0  0
  187.5450  175.2680  136.8450 C   0  0  0  0  0  0  0  0  0  0  0  0
  188.4460  176.0420  137.5580 C   0  0  0  0  0  0  0  0  0  0  0  0
  185.2290  175.6280  136.1520 F   0  0  0  0  0  0  0  0  0  0  0  0
  187.8560  177.1960  137.9380 N   0  0  0  0  0  0  0  0  0  0  0  0
  188.4820  178.2860  138.6740 C   0  0  0  0  0  1  0  0  0  0  0  0
  186.5860  177.1650  137.4840 C   0  0  0  0  0  0  0  0  0  0  0  0
  187.8190  173.9750  136.1590 C   0  0  0  0  0  2  0  0  0  0  0  0
  188.4790  174.2140  134.9560 O   0  0  0  0  0  1  0  0  0  0  0  0
  189.8840  175.7080  137.7980 C   0  0  0  0  0  2  0  0  0  0  0  0
  190.6360  176.0330  136.6670 O   0  0  0  0  0  1  0  0  0  0  0  0
  180.9840  179.5810  142.3050 C   0  0  2  0  0  3  0  0  0  0  0  0
  181.1930  178.2700  144.2840 O   0  0  0  0  0  0  0  0  0  0  0  0
  183.1530  179.3380  143.6030 N   0  0  0  0  0  2  0  0  0  0  0  0
  181.7690  179.0180  143.4500 C   0  0  0  0  0  0  0  0  0  0  0  0
  183.9420  178.8210  144.7110 C   0  0  0  0  0  2  0  0  0  0  0  0
  185.3970  179.2340  144.5500 C   0  0  0  0  0  2  0  0  0  0  0  0
  186.1690  178.8330  145.7210 N   0  0  0  0  0  2  0  0  0  0  0  0
  189.1470  177.5290  146.2140 C   0  0  1  0  0  3  0  0  0  0  0  0
  189.7600  176.4910  145.4810 O   0  0  0  0  0  0  0  0  0  0  0  0
  186.7050  177.4960  145.4850 C   0  0  2  0  0  3  0  0  0  0  0  0
  188.1050  176.2950  143.9020 O   0  0  0  0  0  0  0  0  0  0  0  0
  189.4270  176.5860  144.1530 N   0  0  0  0  0  0  0  0  0  0  0  0
  187.7130  177.1150  146.5850 C   0  0  2  0  0  3  0  0  0  0  0  0
  187.3090  177.6280  147.8220 O   0  0  0  0  0  1  0  0  0  0  0  0
  187.3210  177.4470  144.0850 C   0  0  0  0  0  2  0  0  0  0  0  0
  191.5550  177.5110  142.5300 O   0  0  0  0  0  1  0  0  0  0  0  0
  190.1270  177.9840  143.3030 P   0  0  0  0  0  0  0  0  0  0  0  0
  189.0470  178.5950  142.1500 O   0  0  0  0  0  0  0  0  0  0  0  0
  190.4450  179.0680  144.3080 O   0  0  0  0  0  1  0  0  0  0  0  0
  190.2170  177.9300  147.6950 P   0  0  0  0  0  2  0  0  0  0  0  0
  191.5860  177.0160  147.1380 O   0  0  0  0  0  1  0  0  0  0  0  0
  179.5570  179.9400  142.7010 C   0  0  0  0  0  2  0  0  0  0  0  0
  179.2640  181.2430  142.2950 O   0  0  0  0  0  1  0  0  0  0  0  0
  1  6  1  0  0  0  0
  2  3  1  0  0  0  0
  2  1  2  0  0  0  0
  3  4  2  0  0  0  0
  4  5  1  0  0  0  0
  5 31  1  0  0  0  0
  6  5  2  0  0  0  0
  7 11  1  0  0  0  0
  8  9  1  0  0  0  0
  9 11  2  0  0  0  0
 10  8  1  0  0  0  0
 10  7  2  0  0  0  0
 11  2  1  0  0  0  0
 12 13  1  0  0  0  0
 12  8  1  0  0  0  0
 13 16  1  0  0  0  0
 16 15  1  0  0  0  0
 16 14  1  1  0  0  0
 17 18  1  0  0  0  0
 17  3  1  0  0  0  0
 19 18  1  0  0  0  0
 20 21  1  0  0  0  0
 20 26  2  0  0  0  0
 21 22  2  0  0  0  0
 22 29  1  0  0  0  0
 22 24  1  0  0  0  0
 23 20  1  0  0  0  0
 24 25  1  0  0  0  0
 26 19  1  0  0  0  0
 26 24  1  0  0  0  0
 27 21  1  0  0  0  0
 28 27  1  0  0  0  0
 30 29  1  0  0  0  0
 31 52  1  1  0  0  0
 31 34  1  0  0  0  0
 33 35  1  0  0  0  0
 34 33  1  0  0  0  0
 34 32  2  0  0  0  0
 36 35  1  0  0  0  0
 36 37  1  0  0  0  0
 38 43  1  0  0  0  0
 38 50  1  1  0  0  0
 39 38  1  0  0  0  0
 40 37  1  1  0  0  0
 40 43  1  0  0  0  0
 41 45  1  0  0  0  0
 41 42  1  0  0  0  0
 42 39  1  0  0  0  0
 43 44  1  1  0  0  0
 45 40  1  0  0  0  0
 46 47  1  0  0  0  0
 47 42  1  0  0  0  0
 47 49  1  0  0  0  0
 48 47  2  0  0  0  0
 51 50  1  0  0  0  0
 53 52  1  0  0  0  0
M  END
>  <MODEL>
6

>  <REMARK>
 VINA RESULT:      -6.2      3.210      7.834
  Name = 
  19 active torsions:
  status: ('A' for Active; 'I' for Inactive)
    1  A    between atoms: C_2  and  C_3
    2  A    between atoms: C_4  and  N_35
    3  A    between atoms: C_4  and  N_45
    4  A    between atoms: C_5  and  C_19
    5  A    between atoms: N_6  and  C_12
    6  A    between atoms: N_6  and  C_25
    7  A    between atoms: C_10  and  P_15
    8  A    between atoms: C_12  and  C_21
    9  A    between atoms: C_13  and  C_18
   10  A    between atoms: C_13  and  C_48
   11  A    between atoms: C_18  and  C_33
   12  A    between atoms: C_21  and  N_30
   13  A    between atoms: C_22  and  C_34
   14  A    between atoms: P_23  and  N_29
   15  A    between atoms: C_24  and  C_51
   16  A    between atoms: C_34  and  C_42
   17  A    between atoms: C_34  and  C_50
   18  A    between atoms: C_41  and  C_48
   19  A    between atoms: N_45  and  C_52
                            x       y       z     vdW  Elec       q    Type
                         _______ _______ _______ _____ _____    ______ ____

>  <TORSDO>
F 19

$$$$
=
 OpenBabel11042411473D

 53 56  0  0  1  0  0  0  0  0999 V2000
  190.2780  176.8520  141.5930 C   0  0  0  0  0  3  0  0  0  0  0  0
  189.2290  177.5480  142.2140 C   0  0  0  0  0  0  0  0  0  0  0  0
  188.2180  178.1210  141.3970 C   0  0  0  0  0  0  0  0  0  0  0  0
  188.2790  177.9710  140.0070 C   0  0  0  0  0  3  0  0  0  0  0  0
  189.3260  177.2710  139.4070 C   0  0  0  0  0  0  0  0  0  0  0  0
  190.3310  176.7150  140.2060 C   0  0  0  0  0  3  0  0  0  0  0  0
  190.3290  177.7970  144.5330 C   0  0  0  0  0  3  0  0  0  0  0  0
  188.5340  177.7220  145.7000 N   0  0  0  0  0  0  0  0  0  0  0  0
  188.1230  177.5860  144.4520 N   0  0  0  0  0  0  0  0  0  0  0  0
  189.8460  177.8510  145.7900 N   0  0  0  0  0  0  0  0  0  0  0  0
  189.2370  177.6280  143.6960 C   0  0  0  0  0  0  0  0  0  0  0  0
  187.6390  177.7480  146.8420 C   0  0  0  0  0  2  0  0  0  0  0  0
  186.2710  177.5220  146.4020 N   0  0  0  0  0  2  0  0  0  0  0  0
  184.4620  178.5590  145.1710 C   0  0  0  0  0  1  0  0  0  0  0  0
  185.5450  179.6630  146.9720 O   0  0  0  0  0  1  0  0  0  0  0  0
  185.7650  178.7890  145.9050 C   0  0  1  0  0  3  0  0  0  0  0  0
  187.0590  178.8860  141.9490 C   0  0  0  0  0  2  0  0  0  0  0  0
  185.7560  178.2170  141.5610 C   0  0  0  0  0  2  0  0  0  0  0  0
  184.9950  179.1280  140.6180 C   0  0  0  0  0  2  0  0  0  0  0  0
  182.7590  177.9620  140.1930 C   0  0  0  0  0  0  0  0  0  0  0  0
  182.2030  177.2610  139.1400 C   0  0  0  0  0  0  0  0  0  0  0  0
  183.1580  177.2380  138.1380 C   0  0  0  0  0  0  0  0  0  0  0  0
  182.1530  178.2720  141.3660 F   0  0  0  0  0  0  0  0  0  0  0  0
  184.2640  177.8970  138.5450 N   0  0  0  0  0  0  0  0  0  0  0  0
  185.4740  178.1220  137.7660 C   0  0  0  0  0  1  0  0  0  0  0  0
  184.0300  178.3330  139.8010 C   0  0  0  0  0  0  0  0  0  0  0  0
  180.8080  176.7450  139.0630 C   0  0  0  0  0  2  0  0  0  0  0  0
  180.6080  175.7830  140.0510 O   0  0  0  0  0  1  0  0  0  0  0  0
  182.9740  176.6580  136.7720 C   0  0  0  0  0  2  0  0  0  0  0  0
  183.6210  175.4230  136.6950 O   0  0  0  0  0  1  0  0  0  0  0  0
  189.3420  177.1290  137.9160 C   0  0  2  0  0  3  0  0  0  0  0  0
  191.5890  176.5720  137.3520 O   0  0  0  0  0  0  0  0  0  0  0  0
  190.0640  174.8140  137.1630 N   0  0  0  0  0  2  0  0  0  0  0  0
  190.4010  176.1690  137.4690 C   0  0  0  0  0  0  0  0  0  0  0  0
  191.0650  173.8590  136.7110 C   0  0  0  0  0  2  0  0  0  0  0  0
  191.8200  174.4220  135.5170 C   0  0  0  0  0  2  0  0  0  0  0  0
  193.2050  173.9690  135.5350 N   0  0  0  0  0  2  0  0  0  0  0  0
  196.2120  174.1470  136.8540 C   0  0  1  0  0  3  0  0  0  0  0  0
  196.6500  173.5810  138.0710 O   0  0  0  0  0  0  0  0  0  0  0  0
  193.6710  173.9630  136.9190 C   0  0  2  0  0  3  0  0  0  0  0  0
  194.6960  172.4700  138.5410 O   0  0  0  0  0  0  0  0  0  0  0  0
  196.0430  172.3680  138.2750 N   0  0  0  0  0  0  0  0  0  0  0  0
  194.8870  174.8930  137.0850 C   0  0  2  0  0  3  0  0  0  0  0  0
  194.7580  176.0230  136.2710 O   0  0  0  0  0  1  0  0  0  0  0  0
  193.9760  172.5220  137.3340 C   0  0  0  0  0  2  0  0  0  0  0  0
  195.7910  169.6320  137.5900 O   0  0  0  0  0  1  0  0  0  0  0  0
  196.5560  171.0770  137.1610 P   0  0  0  0  0  0  0  0  0  0  0  0
  196.1570  171.4640  135.5610 O   0  0  0  0  0  0  0  0  0  0  0  0
  198.0540  170.8950  137.2690 O   0  0  0  0  0  1  0  0  0  0  0  0
  197.5740  175.2350  136.1760 P   0  0  0  0  0  2  0  0  0  0  0  0
  198.2910  175.5570  137.7250 O   0  0  0  0  0  1  0  0  0  0  0  0
  189.4620  178.4860  137.2320 C   0  0  0  0  0  2  0  0  0  0  0  0
  188.9870  179.4890  138.0780 O   0  0  0  0  0  1  0  0  0  0  0  0
  1  2  1  0  0  0  0
  2 11  1  0  0  0  0
  3 17  1  0  0  0  0
  3  2  2  0  0  0  0
  4  3  1  0  0  0  0
  5  4  2  0  0  0  0
  5  6  1  0  0  0  0
  6  1  2  0  0  0  0
  7 10  2  0  0  0  0
  8 10  1  0  0  0  0
  8 12  1  0  0  0  0
  9  8  1  0  0  0  0
 11  9  2  0  0  0  0
 11  7  1  0  0  0  0
 13 12  1  0  0  0  0
 16 14  1  1  0  0  0
 16 13  1  0  0  0  0
 16 15  1  0  0  0  0
 18 17  1  0  0  0  0
 19 18  1  0  0  0  0
 20 23  1  0  0  0  0
 21 20  1  0  0  0  0
 22 24  1  0  0  0  0
 22 21  2  0  0  0  0
 24 26  1  0  0  0  0
 25 24  1  0  0  0  0
 26 20  2  0  0  0  0
 26 19  1  0  0  0  0
 27 21  1  0  0  0  0
 27 28  1  0  0  0  0
 29 22  1  0  0  0  0
 30 29  1  0  0  0  0
 31 52  1  6  0  0  0
 31  5  1  0  0  0  0
 32 34  2  0  0  0  0
 33 34  1  0  0  0  0
 34 31  1  0  0  0  0
 35 33  1  0  0  0  0
 36 37  1  0  0  0  0
 36 35  1  0  0  0  0
 38 50  1  1  0  0  0
 38 43  1  0  0  0  0
 38 39  1  0  0  0  0
 39 42  1  0  0  0  0
 40 37  1  6  0  0  0
 40 43  1  0  0  0  0
 40 45  1  0  0  0  0
 42 41  1  0  0  0  0
 43 44  1  6  0  0  0
 45 41  1  0  0  0  0
 47 49  1  0  0  0  0
 47 46  1  0  0  0  0
 47 42  1  0  0  0  0
 48 47  2  0  0  0  0
 50 51  1  0  0  0  0
 52 53  1  0  0  0  0
M  END
>  <MODEL>
7

>  <REMARK>
 VINA RESULT:      -6.1      3.291      6.116
  Name = 
  19 active torsions:
  status: ('A' for Active; 'I' for Inactive)
    1  A    between atoms: C_2  and  C_3
    2  A    between atoms: C_4  and  N_35
    3  A    between atoms: C_4  and  N_45
    4  A    between atoms: C_5  and  C_19
    5  A    between atoms: N_6  and  C_12
    6  A    between atoms: N_6  and  C_25
    7  A    between atoms: C_10  and  P_15
    8  A    between atoms: C_12  and  C_21
    9  A    between atoms: C_13  and  C_18
   10  A    between atoms: C_13  and  C_48
   11  A    between atoms: C_18  and  C_33
   12  A    between atoms: C_21  and  N_30
   13  A    between atoms: C_22  and  C_34
   14  A    between atoms: P_23  and  N_29
   15  A    between atoms: C_24  and  C_51
   16  A    between atoms: C_34  and  C_42
   17  A    between atoms: C_34  and  C_50
   18  A    between atoms: C_41  and  C_48
   19  A    between atoms: N_45  and  C_52
                            x       y       z     vdW  Elec       q    Type
                         _______ _______ _______ _____ _____    ______ ____

>  <TORSDO>
F 19

$$$$
=
 OpenBabel11042411473D

 53 56  0  0  1  0  0  0  0  0999 V2000
  184.3740  176.6960  137.3740 C   0  0  0  0  0  3  0  0  0  0  0  0
  183.9600  177.4920  138.4530 C   0  0  0  0  0  0  0  0  0  0  0  0
  184.9120  178.3480  139.0700 C   0  0  0  0  0  0  0  0  0  0  0  0
  186.2240  178.3900  138.5870 C   0  0  0  0  0  3  0  0  0  0  0  0
  186.6180  177.5960  137.5090 C   0  0  0  0  0  0  0  0  0  0  0  0
  185.6880  176.7430  136.9060 C   0  0  0  0  0  3  0  0  0  0  0  0
  181.6490  176.3620  138.6370 C   0  0  0  0  0  3  0  0  0  0  0  0
  180.6930  177.8790  139.8080 N   0  0  0  0  0  0  0  0  0  0  0  0
  181.9160  178.3360  139.6120 N   0  0  0  0  0  0  0  0  0  0  0  0
  180.4940  176.7020  139.2420 N   0  0  0  0  0  0  0  0  0  0  0  0
  182.5400  177.3970  138.8740 C   0  0  0  0  0  0  0  0  0  0  0  0
  179.6860  178.5850  140.5800 C   0  0  0  0  0  2  0  0  0  0  0  0
  179.7360  178.1530  141.9680 N   0  0  0  0  0  2  0  0  0  0  0  0
  181.6590  179.0360  143.1460 C   0  0  0  0  0  1  0  0  0  0  0  0
  180.1370  180.4490  141.9970 O   0  0  0  0  0  1  0  0  0  0  0  0
  180.2180  179.2770  142.7510 C   0  0  1  0  0  3  0  0  0  0  0  0
  184.5840  179.2340  140.2270 C   0  0  0  0  0  2  0  0  0  0  0  0
  185.6000  179.0470  141.3360 C   0  0  0  0  0  2  0  0  0  0  0  0
  185.0640  178.0370  142.3310 C   0  0  0  0  0  2  0  0  0  0  0  0
  185.4070  178.5260  144.8170 C   0  0  0  0  0  0  0  0  0  0  0  0
  186.4500  178.3810  145.7110 C   0  0  0  0  0  0  0  0  0  0  0  0
  187.5070  177.8450  144.9940 C   0  0  0  0  0  0  0  0  0  0  0  0
  184.1570  178.9680  145.1020 F   0  0  0  0  0  0  0  0  0  0  0  0
  187.1400  177.6610  143.7070 N   0  0  0  0  0  0  0  0  0  0  0  0
  187.9580  177.0890  142.6470 C   0  0  0  0  0  1  0  0  0  0  0  0
  185.8630  178.0820  143.5920 C   0  0  0  0  0  0  0  0  0  0  0  0
  186.3990  178.6360  147.1780 C   0  0  0  0  0  2  0  0  0  0  0  0
  187.2310  177.7360  147.8390 O   0  0  0  0  0  1  0  0  0  0  0  0
  188.8290  177.4380  145.5630 C   0  0  0  0  0  2  0  0  0  0  0  0
  189.8590  177.9910  144.8000 O   0  0  0  0  0  1  0  0  0  0  0  0
  188.0320  177.6840  137.0230 C   0  0  2  0  0  3  0  0  0  0  0  0
  188.7510  175.5080  137.6760 O   0  0  0  0  0  0  0  0  0  0  0  0
  189.9650  177.2660  138.6150 N   0  0  0  0  0  2  0  0  0  0  0  0
  188.9290  176.7510  137.7760 C   0  0  0  0  0  0  0  0  0  0  0  0
  190.8450  176.3900  139.3730 C   0  0  0  0  0  2  0  0  0  0  0  0
  192.1560  176.1970  138.6250 C   0  0  0  0  0  2  0  0  0  0  0  0
  192.1320  174.9440  137.8800 N   0  0  0  0  0  2  0  0  0  0  0  0
  194.1930  172.9780  136.2350 C   0  0  1  0  0  3  0  0  0  0  0  0
  195.2860  173.3630  135.4310 O   0  0  0  0  0  0  0  0  0  0  0  0
  192.8860  175.1280  136.6430 C   0  0  2  0  0  3  0  0  0  0  0  0
  195.1450  175.6090  135.8840 O   0  0  0  0  0  0  0  0  0  0  0  0
  195.9050  174.4650  135.9670 N   0  0  0  0  0  0  0  0  0  0  0  0
  192.9570  173.8100  135.8510 C   0  0  2  0  0  3  0  0  0  0  0  0
  191.7640  173.0920  135.9810 O   0  0  0  0  0  1  0  0  0  0  0  0
  194.2710  175.6810  136.9840 C   0  0  0  0  0  2  0  0  0  0  0  0
  195.6450  174.0170  138.7510 O   0  0  0  0  0  1  0  0  0  0  0  0
  196.7680  174.1690  137.4950 P   0  0  0  0  0  0  0  0  0  0  0  0
  197.6950  172.7540  137.4040 O   0  0  0  0  0  0  0  0  0  0  0  0
  197.6790  175.3410  137.7860 O   0  0  0  0  0  1  0  0  0  0  0  0
  193.9380  171.1330  136.0560 P   0  0  0  0  0  2  0  0  0  0  0  0
  194.9250  170.7160  137.4230 O   0  0  0  0  0  1  0  0  0  0  0  0
  188.5380  179.1210  137.0450 C   0  0  0  0  0  2  0  0  0  0  0  0
  189.0490  179.4260  138.3080 O   0  0  0  0  0  1  0  0  0  0  0  0
  1  2  1  0  0  0  0
  2 11  1  0  0  0  0
  2  3  2  0  0  0  0
  3 17  1  0  0  0  0
  4  3  1  0  0  0  0
  5  4  2  0  0  0  0
  6  1  2  0  0  0  0
  6  5  1  0  0  0  0
  7 11  1  0  0  0  0
  7 10  2  0  0  0  0
  8 12  1  0  0  0  0
  9  8  1  0  0  0  0
 10  8  1  0  0  0  0
 11  9  2  0  0  0  0
 12 13  1  0  0  0  0
 13 16  1  0  0  0  0
 15 16  1  0  0  0  0
 16 14  1  6  0  0  0
 17 18  1  0  0  0  0
 18 19  1  0  0  0  0
 19 26  1  0  0  0  0
 20 23  1  0  0  0  0
 20 21  1  0  0  0  0
 21 27  1  0  0  0  0
 22 29  1  0  0  0  0
 22 21  2  0  0  0  0
 24 22  1  0  0  0  0
 25 24  1  0  0  0  0
 26 24  1  0  0  0  0
 26 20  2  0  0  0  0
 27 28  1  0  0  0  0
 30 29  1  0  0  0  0
 31 52  1  1  0  0  0
 31  5  1  0  0  0  0
 31 34  1  0  0  0  0
 32 34  2  0  0  0  0
 33 35  1  0  0  0  0
 34 33  1  0  0  0  0
 36 35  1  0  0  0  0
 37 36  1  0  0  0  0
 38 50  1  6  0  0  0
 39 42  1  0  0  0  0
 39 38  1  0  0  0  0
 40 45  1  0  0  0  0
 40 37  1  1  0  0  0
 41 42  1  0  0  0  0
 41 45  1  0  0  0  0
 42 47  1  0  0  0  0
 43 44  1  1  0  0  0
 43 38  1  0  0  0  0
 43 40  1  0  0  0  0
 47 49  1  0  0  0  0
 47 46  1  0  0  0  0
 48 47  2  0  0  0  0
 50 51  1  0  0  0  0
 52 53  1  0  0  0  0
M  END
>  <MODEL>
8

>  <REMARK>
 VINA RESULT:      -6.0      2.342      5.816
  Name = 
  19 active torsions:
  status: ('A' for Active; 'I' for Inactive)
    1  A    between atoms: C_2  and  C_3
    2  A    between atoms: C_4  and  N_35
    3  A    between atoms: C_4  and  N_45
    4  A    between atoms: C_5  and  C_19
    5  A    between atoms: N_6  and  C_12
    6  A    between atoms: N_6  and  C_25
    7  A    between atoms: C_10  and  P_15
    8  A    between atoms: C_12  and  C_21
    9  A    between atoms: C_13  and  C_18
   10  A    between atoms: C_13  and  C_48
   11  A    between atoms: C_18  and  C_33
   12  A    between atoms: C_21  and  N_30
   13  A    between atoms: C_22  and  C_34
   14  A    between atoms: P_23  and  N_29
   15  A    between atoms: C_24  and  C_51
   16  A    between atoms: C_34  and  C_42
   17  A    between atoms: C_34  and  C_50
   18  A    between atoms: C_41  and  C_48
   19  A    between atoms: N_45  and  C_52
                            x       y       z     vdW  Elec       q    Type
                         _______ _______ _______ _____ _____    ______ ____

>  <TORSDO>
F 19

$$$$
=
 OpenBabel11042411473D

 53 56  0  0  1  0  0  0  0  0999 V2000
  190.9000  176.7520  140.5730 C   0  0  0  0  0  3  0  0  0  0  0  0
  190.0360  177.5390  141.3500 C   0  0  0  0  0  0  0  0  0  0  0  0
  188.8810  178.0910  140.7330 C   0  0  0  0  0  0  0  0  0  0  0  0
  188.6220  177.8280  139.3830 C   0  0  0  0  0  3  0  0  0  0  0  0
  189.4880  177.0380  138.6270 C   0  0  0  0  0  0  0  0  0  0  0  0
  190.6340  176.5030  139.2270 C   0  0  0  0  0  3  0  0  0  0  0  0
  191.3820  178.5360  143.3120 C   0  0  0  0  0  3  0  0  0  0  0  0
  190.2850  177.6050  144.8990 N   0  0  0  0  0  0  0  0  0  0  0  0
  189.7080  177.1640  143.7960 N   0  0  0  0  0  0  0  0  0  0  0  0
  191.2900  178.4270  144.6520 N   0  0  0  0  0  0  0  0  0  0  0  0
  190.3820  177.7360  142.7800 C   0  0  0  0  0  0  0  0  0  0  0  0
  189.8490  177.2400  146.2350 C   0  0  0  0  0  2  0  0  0  0  0  0
  188.8420  178.1810  146.6980 N   0  0  0  0  0  2  0  0  0  0  0  0
  188.7220  176.2020  148.0890 C   0  0  0  0  0  1  0  0  0  0  0  0
  187.9060  178.3040  148.8310 O   0  0  0  0  0  1  0  0  0  0  0  0
  188.0420  177.4970  147.6990 C   0  0  1  0  0  3  0  0  0  0  0  0
  187.8970  178.9470  141.4610 C   0  0  0  0  0  2  0  0  0  0  0  0
  186.4840  178.5930  141.0440 C   0  0  0  0  0  2  0  0  0  0  0  0
  185.6880  178.2060  142.2750 C   0  0  0  0  0  2  0  0  0  0  0  0
  183.5810  178.2760  140.8280 C   0  0  0  0  0  0  0  0  0  0  0  0
  182.2470  178.5570  141.0510 C   0  0  0  0  0  0  0  0  0  0  0  0
  182.1320  178.8630  142.3970 C   0  0  0  0  0  0  0  0  0  0  0  0
  184.1370  177.8760  139.6570 F   0  0  0  0  0  0  0  0  0  0  0  0
  183.3420  178.7770  142.9910 N   0  0  0  0  0  0  0  0  0  0  0  0
  183.6300  178.9910  144.4020 C   0  0  0  0  0  1  0  0  0  0  0  0
  184.2310  178.4270  142.0380 C   0  0  0  0  0  0  0  0  0  0  0  0
  181.1410  178.4310  140.0610 C   0  0  0  0  0  2  0  0  0  0  0  0
  181.1670  179.5170  139.1890 O   0  0  0  0  0  1  0  0  0  0  0  0
  180.8540  179.1550  143.1180 C   0  0  0  0  0  2  0  0  0  0  0  0
  180.5340  180.5070  142.9770 O   0  0  0  0  0  1  0  0  0  0  0  0
  189.1630  176.7790  137.1890 C   0  0  2  0  0  3  0  0  0  0  0  0
  187.1550  175.5670  137.6090 O   0  0  0  0  0  0  0  0  0  0  0  0
  186.9340  177.3440  136.1110 N   0  0  0  0  0  2  0  0  0  0  0  0
  187.7000  176.5220  136.9950 C   0  0  0  0  0  0  0  0  0  0  0  0
  185.5150  177.1140  135.8880 C   0  0  0  0  0  2  0  0  0  0  0  0
  185.3170  176.2260  134.6690 C   0  0  0  0  0  2  0  0  0  0  0  0
  184.0540  175.5050  134.7680 N   0  0  0  0  0  2  0  0  0  0  0  0
  183.0020  172.5350  135.7100 C   0  0  1  0  0  3  0  0  0  0  0  0
  182.4420  172.1790  136.9550 O   0  0  0  0  0  0  0  0  0  0  0  0
  183.9960  174.8530  136.0740 C   0  0  2  0  0  3  0  0  0  0  0  0
  182.3970  174.3050  137.8210 O   0  0  0  0  0  0  0  0  0  0  0  0
  181.6660  173.2030  137.4370 N   0  0  0  0  0  0  0  0  0  0  0  0
  184.2880  173.3470  135.9400 C   0  0  2  0  0  3  0  0  0  0  0  0
  185.2520  173.1170  134.9540 O   0  0  0  0  0  1  0  0  0  0  0  0
  182.6310  175.1310  136.7070 C   0  0  0  0  0  2  0  0  0  0  0  0
  179.2390  172.0840  136.5000 O   0  0  0  0  0  1  0  0  0  0  0  0
  180.1660  173.4990  136.5260 P   0  0  0  0  0  0  0  0  0  0  0  0
  179.2610  174.7420  137.2370 O   0  0  0  0  0  1  0  0  0  0  0  0
  180.5140  173.8880  135.1070 O   0  0  0  0  0  0  0  0  0  0  0  0
  183.2700  170.9780  134.7070 P   0  0  0  0  0  2  0  0  0  0  0  0
  181.6400  170.4040  134.8890 O   0  0  0  0  0  1  0  0  0  0  0  0
  190.0290  175.6620  136.6170 C   0  0  0  0  0  2  0  0  0  0  0  0
  189.4760  175.1940  135.4240 O   0  0  0  0  0  1  0  0  0  0  0  0
  1  2  1  0  0  0  0
  2 11  1  0  0  0  0
  3  2  2  0  0  0  0
  3 17  1  0  0  0  0
  4  3  1  0  0  0  0
  5  6  1  0  0  0  0
  5  4  2  0  0  0  0
  6  1  2  0  0  0  0
  7 10  2  0  0  0  0
  8 12  1  0  0  0  0
  9  8  1  0  0  0  0
 10  8  1  0  0  0  0
 11  7  1  0  0  0  0
 11  9  2  0  0  0  0
 12 13  1  0  0  0  0
 13 16  1  0  0  0  0
 16 14  1  1  0  0  0
 16 15  1  0  0  0  0
 18 17  1  0  0  0  0
 18 19  1  0  0  0  0
 20 21  1  0  0  0  0
 20 26  2  0  0  0  0
 21 22  2  0  0  0  0
 22 24  1  0  0  0  0
 22 29  1  0  0  0  0
 23 20  1  0  0  0  0
 24 25  1  0  0  0  0
 26 19  1  0  0  0  0
 26 24  1  0  0  0  0
 27 21  1  0  0  0  0
 28 27  1  0  0  0  0
 30 29  1  0  0  0  0
 31 52  1  1  0  0  0
 31  5  1  0  0  0  0
 33 34  1  0  0  0  0
 34 31  1  0  0  0  0
 34 32  2  0  0  0  0
 35 33  1  0  0  0  0
 36 37  1  0  0  0  0
 36 35  1  0  0  0  0
 38 50  1  6  0  0  0
 38 43  1  0  0  0  0
 38 39  1  0  0  0  0
 39 42  1  0  0  0  0
 40 37  1  6  0  0  0
 40 45  1  0  0  0  0
 42 41  1  0  0  0  0
 43 44  1  6  0  0  0
 43 40  1  0  0  0  0
 45 41  1  0  0  0  0
 46 47  1  0  0  0  0
 47 48  1  0  0  0  0
 47 42  1  0  0  0  0
 49 47  2  0  0  0  0
 50 51  1  0  0  0  0
 53 52  1  0  0  0  0
M  END
>  <MODEL>
9

>  <REMARK>
 VINA RESULT:      -6.0      3.637      9.223
  Name = 
  19 active torsions:
  status: ('A' for Active; 'I' for Inactive)
    1  A    between atoms: C_2  and  C_3
    2  A    between atoms: C_4  and  N_35
    3  A    between atoms: C_4  and  N_45
    4  A    between atoms: C_5  and  C_19
    5  A    between atoms: N_6  and  C_12
    6  A    between atoms: N_6  and  C_25
    7  A    between atoms: C_10  and  P_15
    8  A    between atoms: C_12  and  C_21
    9  A    between atoms: C_13  and  C_18
   10  A    between atoms: C_13  and  C_48
   11  A    between atoms: C_18  and  C_33
   12  A    between atoms: C_21  and  N_30
   13  A    between atoms: C_22  and  C_34
   14  A    between atoms: P_23  and  N_29
   15  A    between atoms: C_24  and  C_51
   16  A    between atoms: C_34  and  C_42
   17  A    between atoms: C_34  and  C_50
   18  A    between atoms: C_41  and  C_48
   19  A    between atoms: N_45  and  C_52
                            x       y       z     vdW  Elec       q    Type
                         _______ _______ _______ _____ _____    ______ ____

>  <TORSDO>
F 19

$$$$
