=
 OpenBabel11042410393D

 44 48  0  0  1  0  0  0  0  0999 V2000
  183.9720  179.2730  139.2530 C   0  0  0  0  0  2  0  0  0  0  0  0
  186.3880  177.6910  136.6630 C   0  0  0  0  0  3  0  0  0  0  0  0
  180.4220  179.5540  141.4590 O   0  0  0  0  0  0  0  0  0  0  0  0
  181.9660  178.2650  140.2730 N   0  0  0  0  0  2  0  0  0  0  0  0
  180.7330  174.6340  137.7250 C   0  0  0  0  0  0  0  0  0  0  0  0
  178.9380  177.2150  139.6570 C   0  0  0  0  0  2  0  0  0  0  0  0
  181.1640  179.2020  135.5580 C   0  0  1  0  0  3  0  0  0  0  0  0
  179.6280  178.0030  136.7940 C   0  0  0  0  0  2  0  0  0  0  0  0
  180.7030  178.4530  140.9160 C   0  0  0  0  0  0  0  0  0  0  0  0
  183.0730  179.1900  140.4830 C   0  0  1  0  0  3  0  0  0  0  0  0
  184.4650  177.9110  138.7890 C   0  0  1  0  0  3  0  0  0  0  0  0
  183.8680  178.7880  141.7140 C   0  0  0  0  0  1  0  0  0  0  0  0
  183.4400  176.5040  134.6600 C   0  0  0  0  0  2  0  0  0  0  0  0
  184.5060  177.5670  134.9310 C   0  0  0  0  0  2  0  0  0  0  0  0
  179.9240  176.7070  137.3960 N   0  0  0  0  0  0  0  0  0  0  0  0
  180.7680  178.8230  136.8650 O   0  0  0  0  0  0  0  0  0  0  0  0
  181.1810  175.7110  135.4420 C   0  0  0  0  0  2  0  0  0  0  0  0
  180.6000  175.6850  136.8240 C   0  0  0  0  0  0  0  0  0  0  0  0
  184.9520  177.6220  136.3660 C   0  0  0  0  0  0  0  0  0  0  0  0
  184.0620  177.7270  137.3570 C   0  0  0  0  0  3  0  0  0  0  0  0
  182.1200  176.8910  135.3110 C   0  0  2  0  0  3  0  0  0  0  0  0
  181.4260  178.0360  134.5940 C   0  0  0  0  0  2  0  0  0  0  0  0
  179.7110  177.3410  140.9630 C   0  0  0  0  0  2  0  0  0  0  0  0
  179.6630  176.3500  138.6690 C   0  0  0  0  0  0  0  0  0  0  0  0
  185.8820  177.8130  138.9810 O   0  0  0  0  0  0  0  0  0  0  0  0
  180.1400  175.0730  138.9060 C   0  0  0  0  0  0  0  0  0  0  0  0
  186.8110  177.7870  137.9270 C   0  0  0  0  0  0  0  0  0  0  0  0
  188.4700  178.0010  139.5810 F   0  0  0  0  0  0  0  0  0  0  0  0
  188.8730  176.6400  137.8270 F   0  0  0  0  0  0  0  0  0  0  0  0
  188.8720  178.8740  137.5450 F   0  0  0  0  0  0  0  0  0  0  0  0
  188.2780  177.8250  138.2230 C   0  0  0  0  0  0  0  0  0  0  0  0
  180.7060  172.2830  138.0380 O   0  0  0  0  0  0  0  0  0  0  0  0
  180.6690  172.4170  136.6400 C   0  0  0  0  0  2  0  0  0  0  0  0
  181.4580  173.3410  137.4910 C   0  0  1  0  0  3  0  0  0  0  0  0
  180.0440  174.4100  140.1350 O   0  0  0  0  0  0  0  0  0  0  0  0
  178.9460  173.5880  140.5020 C   0  0  0  0  0  2  0  0  0  0  0  0
  178.9340  173.3900  142.0060 C   0  0  0  0  0  2  0  0  0  0  0  0
  179.3320  174.5660  142.6410 O   0  0  0  0  0  1  0  0  0  0  0  0
  180.2250  180.2330  134.9380 C   0  0  0  0  0  2  0  0  0  0  0  0
  179.9140  181.3550  135.9200 C   0  0  0  0  0  2  0  0  0  0  0  0
  180.2540  182.7210  135.3330 C   0  0  0  0  0  2  0  0  0  0  0  0
  180.0240  183.8460  136.3340 C   0  0  0  0  0  2  0  0  0  0  0  0
  181.1750  184.8420  136.3210 C   0  0  0  0  0  2  0  0  0  0  0  0
  181.8120  184.9320  137.6960 C   0  0  0  0  0  1  0  0  0  0  0  0
  1 10  1  0  0  0  0
  2 27  2  0  0  0  0
  4 10  1  0  0  0  0
  4  9  1  0  0  0  0
  5 26  1  0  0  0  0
  6 23  1  0  0  0  0
  7 39  1  6  0  0  0
  7 16  1  0  0  0  0
  8 16  1  0  0  0  0
  8 15  1  0  0  0  0
  9 23  1  0  0  0  0
  9  3  2  0  0  0  0
 10 12  1  1  0  0  0
 11 20  1  6  0  0  0
 11 25  1  0  0  0  0
 11  1  1  0  0  0  0
 13 14  1  0  0  0  0
 13 21  1  0  0  0  0
 14 19  1  0  0  0  0
 15 24  1  0  0  0  0
 17 18  1  0  0  0  0
 18 15  1  0  0  0  0
 18  5  2  0  0  0  0
 19  2  1  0  0  0  0
 19 20  2  0  0  0  0
 21 22  1  6  0  0  0
 21 17  1  0  0  0  0
 22  7  1  0  0  0  0
 24 26  2  0  0  0  0
 24  6  1  0  0  0  0
 26 35  1  0  0  0  0
 27 31  1  0  0  0  0
 27 25  1  0  0  0  0
 29 31  1  0  0  0  0
 30 31  1  0  0  0  0
 31 28  1  0  0  0  0
 33 34  1  0  0  0  0
 33 32  1  0  0  0  0
 34  5  1  1  0  0  0
 34 32  1  0  0  0  0
 35 36  1  0  0  0  0
 36 37  1  0  0  0  0
 37 38  1  0  0  0  0
 39 40  1  0  0  0  0
 41 40  1  0  0  0  0
 41 42  1  0  0  0  0
 43 42  1  0  0  0  0
 43 44  1  0  0  0  0
M  END
>  <MODEL>
1

>  <REMARK>
 VINA RESULT:      -5.3      0.000      0.000
  Name = 
  10 active torsions:
  status: ('A' for Active; 'I' for Inactive)
    1  A    between atoms: C_1  and  C_34
    2  A    between atoms: C_7  and  C_39
    3  A    between atoms: O_9  and  C_34
    4  A    between atoms: O_9  and  C_42
    5  A    between atoms: C_11  and  C_20
    6  A    between atoms: C_14  and  C_15
    7  A    between atoms: C_15  and  C_17
    8  A    between atoms: C_17  and  C_19
    9  A    between atoms: C_19  and  C_39
   10  A    between atoms: C_43  and  C_44
                            x       y       z     vdW  Elec       q    Type
                         _______ _______ _______ _____ _____    ______ ____

>  <TORSDO>
F 10

$$$$
=
 OpenBabel11042410393D

 44 48  0  0  1  0  0  0  0  0999 V2000
  184.3020  176.8260  138.0140 C   0  0  0  0  0  2  0  0  0  0  0  0
  185.4040  178.5480  141.3100 C   0  0  0  0  0  3  0  0  0  0  0  0
  181.9290  176.3270  134.5970 O   0  0  0  0  0  0  0  0  0  0  0  0
  182.8010  177.7080  136.2670 N   0  0  0  0  0  2  0  0  0  0  0  0
  180.4450  181.2380  138.0520 C   0  0  0  0  0  0  0  0  0  0  0  0
  179.7160  178.5560  135.6240 C   0  0  0  0  0  2  0  0  0  0  0  0
  180.2700  176.6960  140.3080 C   0  0  1  0  0  3  0  0  0  0  0  0
  179.2730  177.7990  138.5440 C   0  0  0  0  0  2  0  0  0  0  0  0
  181.9060  177.4420  135.1840 C   0  0  0  0  0  0  0  0  0  0  0  0
  183.9560  176.8570  136.5280 C   0  0  1  0  0  3  0  0  0  0  0  0
  184.4890  178.2150  138.6060 C   0  0  1  0  0  3  0  0  0  0  0  0
  185.1450  177.3160  135.7000 C   0  0  0  0  0  1  0  0  0  0  0  0
  181.8390  179.5310  141.9700 C   0  0  0  0  0  2  0  0  0  0  0  0
  182.9890  178.5410  142.1620 C   0  0  0  0  0  2  0  0  0  0  0  0
  179.7010  179.1150  138.0790 N   0  0  0  0  0  0  0  0  0  0  0  0
  180.3970  177.0560  138.9420 O   0  0  0  0  0  0  0  0  0  0  0  0
  180.0240  180.1800  140.3490 C   0  0  0  0  0  2  0  0  0  0  0  0
  180.0340  180.1760  138.8500 C   0  0  0  0  0  0  0  0  0  0  0  0
  183.9660  178.5230  141.0190 C   0  0  0  0  0  0  0  0  0  0  0  0
  183.5440  178.3650  139.7600 C   0  0  0  0  0  3  0  0  0  0  0  0
  180.9080  179.0630  140.8620 C   0  0  2  0  0  3  0  0  0  0  0  0
  180.0590  177.8710  141.2730 C   0  0  0  0  0  2  0  0  0  0  0  0
  180.9460  178.4880  134.7290 C   0  0  0  0  0  2  0  0  0  0  0  0
  179.9400  179.4610  136.7980 C   0  0  0  0  0  0  0  0  0  0  0  0
  185.8580  178.4050  138.9830 O   0  0  0  0  0  0  0  0  0  0  0  0
  180.3920  180.7680  136.7420 C   0  0  0  0  0  0  0  0  0  0  0  0
  186.2950  178.4860  140.3160 C   0  0  0  0  0  0  0  0  0  0  0  0
  187.9990  179.5450  141.5460 F   0  0  0  0  0  0  0  0  0  0  0  0
  188.1850  177.3330  141.1360 F   0  0  0  0  0  0  0  0  0  0  0  0
  188.4730  178.8180  139.4680 F   0  0  0  0  0  0  0  0  0  0  0  0
  187.7590  178.5450  140.6210 C   0  0  0  0  0  0  0  0  0  0  0  0
  182.3270  182.5030  138.7490 O   0  0  0  0  0  0  0  0  0  0  0  0
  181.9180  183.1620  137.5780 C   0  0  0  0  0  2  0  0  0  0  0  0
  180.9380  182.5740  138.5240 C   0  0  1  0  0  3  0  0  0  0  0  0
  180.7460  181.4290  135.5600 O   0  0  0  0  0  0  0  0  0  0  0  0
  179.8020  181.9640  134.6440 C   0  0  0  0  0  2  0  0  0  0  0  0
  179.0000  183.0610  135.3160 C   0  0  0  0  0  2  0  0  0  0  0  0
  179.4100  184.3060  134.8410 O   0  0  0  0  0  1  0  0  0  0  0  0
  179.2280  175.6040  140.5300 C   0  0  0  0  0  2  0  0  0  0  0  0
  179.6980  174.2710  139.9610 C   0  0  0  0  0  2  0  0  0  0  0  0
  178.9310  173.9030  138.6950 C   0  0  0  0  0  2  0  0  0  0  0  0
  179.7130  174.2450  137.4330 C   0  0  0  0  0  2  0  0  0  0  0  0
  181.2120  174.1170  137.6610 C   0  0  0  0  0  2  0  0  0  0  0  0
  181.7390  172.8470  137.0170 C   0  0  0  0  0  1  0  0  0  0  0  0
  3  9  2  0  0  0  0
  4 10  1  0  0  0  0
  5 18  2  0  0  0  0
  6 24  1  0  0  0  0
  7 39  1  6  0  0  0
  7 22  1  0  0  0  0
  8 16  1  0  0  0  0
  9  4  1  0  0  0  0
 10 12  1  6  0  0  0
 10  1  1  0  0  0  0
 11  1  1  1  0  0  0
 11 25  1  0  0  0  0
 11 20  1  0  0  0  0
 13 14  1  0  0  0  0
 15  8  1  0  0  0  0
 15 18  1  0  0  0  0
 16  7  1  0  0  0  0
 18 17  1  0  0  0  0
 19  2  1  0  0  0  0
 19 14  1  0  0  0  0
 20 19  2  0  0  0  0
 21 17  1  1  0  0  0
 21 22  1  0  0  0  0
 21 13  1  0  0  0  0
 23  9  1  0  0  0  0
 23  6  1  0  0  0  0
 24 15  1  0  0  0  0
 25 27  1  0  0  0  0
 26 24  2  0  0  0  0
 26  5  1  0  0  0  0
 27 31  1  0  0  0  0
 27  2  2  0  0  0  0
 30 31  1  0  0  0  0
 31 29  1  0  0  0  0
 31 28  1  0  0  0  0
 33 34  1  0  0  0  0
 33 32  1  0  0  0  0
 34  5  1  6  0  0  0
 34 32  1  0  0  0  0
 35 26  1  0  0  0  0
 36 37  1  0  0  0  0
 36 35  1  0  0  0  0
 38 37  1  0  0  0  0
 40 39  1  0  0  0  0
 41 40  1  0  0  0  0
 42 43  1  0  0  0  0
 42 41  1  0  0  0  0
 44 43  1  0  0  0  0
M  END
>  <MODEL>
2

>  <REMARK>
 VINA RESULT:      -4.8      2.055      6.902
  Name = 
  10 active torsions:
  status: ('A' for Active; 'I' for Inactive)
    1  A    between atoms: C_1  and  C_34
    2  A    between atoms: C_7  and  C_39
    3  A    between atoms: O_9  and  C_34
    4  A    between atoms: O_9  and  C_42
    5  A    between atoms: C_11  and  C_20
    6  A    between atoms: C_14  and  C_15
    7  A    between atoms: C_15  and  C_17
    8  A    between atoms: C_17  and  C_19
    9  A    between atoms: C_19  and  C_39
   10  A    between atoms: C_43  and  C_44
                            x       y       z     vdW  Elec       q    Type
                         _______ _______ _______ _____ _____    ______ ____

>  <TORSDO>
F 10

$$$$
=
 OpenBabel11042410393D

 44 48  0  0  1  0  0  0  0  0999 V2000
  184.2950  175.6470  135.8350 C   0  0  0  0  0  2  0  0  0  0  0  0
  181.2330  173.2860  135.5370 C   0  0  0  0  0  3  0  0  0  0  0  0
  186.5290  178.7810  137.4900 O   0  0  0  0  0  0  0  0  0  0  0  0
  184.8960  177.1270  137.7140 N   0  0  0  0  0  2  0  0  0  0  0  0
  181.1700  177.6600  140.3650 C   0  0  0  0  0  0  0  0  0  0  0  0
  183.9990  179.8020  139.3540 C   0  0  0  0  0  2  0  0  0  0  0  0
  180.9380  178.8260  135.4330 C   0  0  1  0  0  3  0  0  0  0  0  0
  181.6510  179.7760  137.4110 C   0  0  0  0  0  2  0  0  0  0  0  0
  185.5940  178.2870  138.1750 C   0  0  0  0  0  0  0  0  0  0  0  0
  185.4200  176.3010  136.6330 C   0  0  1  0  0  3  0  0  0  0  0  0
  183.3260  174.8680  136.7120 C   0  0  1  0  0  3  0  0  0  0  0  0
  186.3760  175.2570  137.1850 C   0  0  0  0  0  1  0  0  0  0  0  0
  179.0030  176.0470  136.7720 C   0  0  0  0  0  2  0  0  0  0  0  0
  179.6380  175.2880  135.6040 C   0  0  0  0  0  2  0  0  0  0  0  0
  181.6940  179.0490  138.6760 N   0  0  0  0  0  0  0  0  0  0  0  0
  182.0050  178.9090  136.3620 O   0  0  0  0  0  0  0  0  0  0  0  0
  179.4740  177.8610  138.4530 C   0  0  0  0  0  2  0  0  0  0  0  0
  180.7520  178.2070  139.1570 C   0  0  0  0  0  0  0  0  0  0  0  0
  180.9690  174.6730  135.9370 C   0  0  0  0  0  0  0  0  0  0  0  0
  181.9460  175.4060  136.4800 C   0  0  0  0  0  3  0  0  0  0  0  0
  179.7880  177.3140  137.0770 C   0  0  2  0  0  3  0  0  0  0  0  0
  179.5900  178.3930  136.0260 C   0  0  0  0  0  2  0  0  0  0  0  0
  185.2310  178.9150  139.4770 C   0  0  0  0  0  2  0  0  0  0  0  0
  182.7350  179.0160  139.5320 C   0  0  0  0  0  0  0  0  0  0  0  0
  183.4270  173.4670  136.4270 O   0  0  0  0  0  0  0  0  0  0  0  0
  182.4440  178.1750  140.5920 C   0  0  0  0  0  0  0  0  0  0  0  0
  182.4220  172.7280  135.7790 C   0  0  0  0  0  0  0  0  0  0  0  0
  181.6030  170.8290  134.6580 F   0  0  0  0  0  0  0  0  0  0  0  0
  183.8270  171.2090  134.6420 F   0  0  0  0  0  0  0  0  0  0  0  0
  182.8130  170.5250  136.5320 F   0  0  0  0  0  0  0  0  0  0  0  0
  182.6710  171.3030  135.3980 C   0  0  0  0  0  0  0  0  0  0  0  0
  179.4610  177.3040  141.9720 O   0  0  0  0  0  0  0  0  0  0  0  0
  178.9900  176.6060  140.8490 C   0  0  0  0  0  2  0  0  0  0  0  0
  180.4330  176.6470  141.1920 C   0  0  1  0  0  3  0  0  0  0  0  0
  183.3210  177.9070  141.6490 O   0  0  0  0  0  0  0  0  0  0  0  0
  183.2790  178.5820  142.8970 C   0  0  0  0  0  2  0  0  0  0  0  0
  184.6810  178.9910  143.3060 C   0  0  0  0  0  2  0  0  0  0  0  0
  185.5160  177.8740  143.3140 O   0  0  0  0  0  1  0  0  0  0  0  0
  180.7930  180.0930  134.5940 C   0  0  0  0  0  2  0  0  0  0  0  0
  179.3780  180.6510  134.6800 C   0  0  0  0  0  2  0  0  0  0  0  0
  179.3780  182.1030  135.1490 C   0  0  0  0  0  2  0  0  0  0  0  0
  180.7400  182.7610  134.9710 C   0  0  0  0  0  2  0  0  0  0  0  0
  180.7900  184.1210  135.6500 C   0  0  0  0  0  2  0  0  0  0  0  0
  181.1100  183.9640  137.1260 C   0  0  0  0  0  1  0  0  0  0  0  0
  1 10  1  0  0  0  0
  2 27  2  0  0  0  0
  2 19  1  0  0  0  0
  3  9  2  0  0  0  0
  4  9  1  0  0  0  0
  5 26  1  0  0  0  0
  6 23  1  0  0  0  0
  6 24  1  0  0  0  0
  7 39  1  1  0  0  0
  7 22  1  0  0  0  0
  7 16  1  0  0  0  0
  8 15  1  0  0  0  0
  9 23  1  0  0  0  0
 10 12  1  1  0  0  0
 10  4  1  0  0  0  0
 11  1  1  6  0  0  0
 13 21  1  0  0  0  0
 14 19  1  0  0  0  0
 14 13  1  0  0  0  0
 15 18  1  0  0  0  0
 15 24  1  0  0  0  0
 16  8  1  0  0  0  0
 17 18  1  0  0  0  0
 18  5  2  0  0  0  0
 19 20  2  0  0  0  0
 20 11  1  0  0  0  0
 21 22  1  6  0  0  0
 21 17  1  0  0  0  0
 24 26  2  0  0  0  0
 25 11  1  0  0  0  0
 26 35  1  0  0  0  0
 27 25  1  0  0  0  0
 28 31  1  0  0  0  0
 29 31  1  0  0  0  0
 31 27  1  0  0  0  0
 31 30  1  0  0  0  0
 33 34  1  0  0  0  0
 33 32  1  0  0  0  0
 34  5  1  6  0  0  0
 34 32  1  0  0  0  0
 35 36  1  0  0  0  0
 36 37  1  0  0  0  0
 37 38  1  0  0  0  0
 39 40  1  0  0  0  0
 40 41  1  0  0  0  0
 42 41  1  0  0  0  0
 42 43  1  0  0  0  0
 43 44  1  0  0  0  0
M  END
>  <MODEL>
3

>  <REMARK>
 VINA RESULT:      -4.7      2.997      5.419
  Name = 
  10 active torsions:
  status: ('A' for Active; 'I' for Inactive)
    1  A    between atoms: C_1  and  C_34
    2  A    between atoms: C_7  and  C_39
    3  A    between atoms: O_9  and  C_34
    4  A    between atoms: O_9  and  C_42
    5  A    between atoms: C_11  and  C_20
    6  A    between atoms: C_14  and  C_15
    7  A    between atoms: C_15  and  C_17
    8  A    between atoms: C_17  and  C_19
    9  A    between atoms: C_19  and  C_39
   10  A    between atoms: C_43  and  C_44
                            x       y       z     vdW  Elec       q    Type
                         _______ _______ _______ _____ _____    ______ ____

>  <TORSDO>
F 10

$$$$
=
 OpenBabel11042410393D

 44 48  0  0  1  0  0  0  0  0999 V2000
  184.0890  174.6090  137.8990 C   0  0  0  0  0  2  0  0  0  0  0  0
  186.7720  177.2470  136.9530 C   0  0  0  0  0  3  0  0  0  0  0  0
  180.1950  173.2360  138.6040 O   0  0  0  0  0  0  0  0  0  0  0  0
  181.6510  174.7330  137.5580 N   0  0  0  0  0  2  0  0  0  0  0  0
  180.5370  179.1270  136.7530 C   0  0  0  0  0  0  0  0  0  0  0  0
  178.9340  176.2880  138.4810 C   0  0  0  0  0  2  0  0  0  0  0  0
  183.0290  177.8980  140.9980 C   0  0  1  0  0  3  0  0  0  0  0  0
  180.8670  177.9070  140.1940 C   0  0  0  0  0  2  0  0  0  0  0  0
  180.3440  174.2990  137.9450 C   0  0  0  0  0  0  0  0  0  0  0  0
  182.8010  173.8400  137.6240 C   0  0  1  0  0  3  0  0  0  0  0  0
  184.3220  175.7440  136.9120 C   0  0  1  0  0  3  0  0  0  0  0  0
  182.9120  173.0290  136.3440 C   0  0  0  0  0  1  0  0  0  0  0  0
  184.6220  179.9450  138.4420 C   0  0  0  0  0  2  0  0  0  0  0  0
  185.7520  178.9250  138.5970 C   0  0  0  0  0  2  0  0  0  0  0  0
  180.5320  178.2060  138.8050 N   0  0  0  0  0  0  0  0  0  0  0  0
  182.0700  177.1820  140.2390 O   0  0  0  0  0  0  0  0  0  0  0  0
  182.1130  180.1540  138.4940 C   0  0  0  0  0  2  0  0  0  0  0  0
  181.0620  179.1870  138.0390 C   0  0  0  0  0  0  0  0  0  0  0  0
  185.6050  177.7220  137.7070 C   0  0  0  0  0  0  0  0  0  0  0  0
  184.4690  177.0190  137.6870 C   0  0  0  0  0  3  0  0  0  0  0  0
  183.3190  179.3880  138.9960 C   0  0  2  0  0  3  0  0  0  0  0  0
  183.3060  179.3280  140.5140 C   0  0  0  0  0  2  0  0  0  0  0  0
  179.1430  175.0940  137.5590 C   0  0  0  0  0  2  0  0  0  0  0  0
  179.7100  177.4830  138.0180 C   0  0  0  0  0  0  0  0  0  0  0  0
  185.4660  175.4570  136.0980 O   0  0  0  0  0  0  0  0  0  0  0  0
  179.6820  178.0280  136.7460 C   0  0  0  0  0  0  0  0  0  0  0  0
  186.6820  176.1540  136.1900 C   0  0  0  0  0  0  0  0  0  0  0  0
  188.3190  176.7310  134.6020 F   0  0  0  0  0  0  0  0  0  0  0  0
  188.8830  175.2990  136.2540 F   0  0  0  0  0  0  0  0  0  0  0  0
  187.5170  174.6270  134.5940 F   0  0  0  0  0  0  0  0  0  0  0  0
  187.8680  175.6950  135.4000 C   0  0  0  0  0  0  0  0  0  0  0  0
  179.7270  180.4350  134.9470 O   0  0  0  0  0  0  0  0  0  0  0  0
  180.3680  181.3820  135.7620 C   0  0  0  0  0  2  0  0  0  0  0  0
  180.9030  180.0080  135.5950 C   0  0  1  0  0  3  0  0  0  0  0  0
  178.9370  177.5050  135.6810 O   0  0  0  0  0  0  0  0  0  0  0  0
  179.5080  176.7920  134.5960 C   0  0  0  0  0  2  0  0  0  0  0  0
  181.0160  176.7450  134.7500 C   0  0  0  0  0  2  0  0  0  0  0  0
  181.4670  175.4340  134.5940 O   0  0  0  0  0  1  0  0  0  0  0  0
  182.7310  177.8670  142.4940 C   0  0  0  0  0  2  0  0  0  0  0  0
  183.5300  178.9310  143.2370 C   0  0  0  0  0  2  0  0  0  0  0  0
  184.6590  178.3110  144.0540 C   0  0  0  0  0  2  0  0  0  0  0  0
  185.2180  179.2830  145.0860 C   0  0  0  0  0  2  0  0  0  0  0  0
  185.9410  178.5470  146.2040 C   0  0  0  0  0  2  0  0  0  0  0  0
  187.1730  177.8430  145.6640 C   0  0  0  0  0  1  0  0  0  0  0  0
  2 19  1  0  0  0  0
  4 10  1  0  0  0  0
  4  9  1  0  0  0  0
  5 18  2  0  0  0  0
  7 39  1  1  0  0  0
  8 16  1  0  0  0  0
  9  3  2  0  0  0  0
 10 12  1  6  0  0  0
 10  1  1  0  0  0  0
 11 20  1  1  0  0  0
 11  1  1  0  0  0  0
 13 14  1  0  0  0  0
 15  8  1  0  0  0  0
 16  7  1  0  0  0  0
 17 21  1  0  0  0  0
 18 17  1  0  0  0  0
 18 15  1  0  0  0  0
 19 14  1  0  0  0  0
 20 19  2  0  0  0  0
 21 13  1  1  0  0  0
 21 22  1  0  0  0  0
 22  7  1  0  0  0  0
 23  9  1  0  0  0  0
 23  6  1  0  0  0  0
 24  6  1  0  0  0  0
 24 15  1  0  0  0  0
 25 27  1  0  0  0  0
 25 11  1  0  0  0  0
 26  5  1  0  0  0  0
 26 24  2  0  0  0  0
 27  2  2  0  0  0  0
 28 31  1  0  0  0  0
 30 31  1  0  0  0  0
 31 27  1  0  0  0  0
 31 29  1  0  0  0  0
 32 34  1  0  0  0  0
 32 33  1  0  0  0  0
 34 33  1  0  0  0  0
 34  5  1  1  0  0  0
 35 26  1  0  0  0  0
 36 37  1  0  0  0  0
 36 35  1  0  0  0  0
 38 37  1  0  0  0  0
 39 40  1  0  0  0  0
 40 41  1  0  0  0  0
 41 42  1  0  0  0  0
 42 43  1  0  0  0  0
 44 43  1  0  0  0  0
M  END
>  <MODEL>
4

>  <REMARK>
 VINA RESULT:      -4.1      2.331      6.214
  Name = 
  10 active torsions:
  status: ('A' for Active; 'I' for Inactive)
    1  A    between atoms: C_1  and  C_34
    2  A    between atoms: C_7  and  C_39
    3  A    between atoms: O_9  and  C_34
    4  A    between atoms: O_9  and  C_42
    5  A    between atoms: C_11  and  C_20
    6  A    between atoms: C_14  and  C_15
    7  A    between atoms: C_15  and  C_17
    8  A    between atoms: C_17  and  C_19
    9  A    between atoms: C_19  and  C_39
   10  A    between atoms: C_43  and  C_44
                            x       y       z     vdW  Elec       q    Type
                         _______ _______ _______ _____ _____    ______ ____

>  <TORSDO>
F 10

$$$$
=
 OpenBabel11042410393D

 44 48  0  0  1  0  0  0  0  0999 V2000
  182.7420  175.5650  136.1650 C   0  0  0  0  0  2  0  0  0  0  0  0
  179.7170  174.2210  138.1870 C   0  0  0  0  0  3  0  0  0  0  0  0
  186.1430  177.9290  135.5370 O   0  0  0  0  0  0  0  0  0  0  0  0
  184.6770  176.8470  136.9980 N   0  0  0  0  0  2  0  0  0  0  0  0
  183.5980  178.5420  141.1400 C   0  0  0  0  0  0  0  0  0  0  0  0
  185.5940  179.7110  138.2650 C   0  0  0  0  0  2  0  0  0  0  0  0
  180.6520  179.5910  137.1440 C   0  0  1  0  0  3  0  0  0  0  0  0
  182.6150  180.3370  138.0980 C   0  0  0  0  0  2  0  0  0  0  0  0
  185.7440  177.7570  136.7200 C   0  0  0  0  0  0  0  0  0  0  0  0
  184.2290  175.8730  136.0100 C   0  0  1  0  0  3  0  0  0  0  0  0
  182.3730  175.1350  137.5780 C   0  0  1  0  0  3  0  0  0  0  0  0
  185.0620  174.6060  136.1040 C   0  0  0  0  0  1  0  0  0  0  0  0
  179.3940  177.5550  139.8890 C   0  0  0  0  0  2  0  0  0  0  0  0
  178.9910  176.6100  138.7550 C   0  0  0  0  0  2  0  0  0  0  0  0
  183.2650  179.6650  139.2190 N   0  0  0  0  0  0  0  0  0  0  0  0
  182.0490  179.3760  137.2420 O   0  0  0  0  0  0  0  0  0  0  0  0
  181.1830  179.1900  140.5730 C   0  0  0  0  0  2  0  0  0  0  0  0
  182.6600  179.1560  140.3170 C   0  0  0  0  0  0  0  0  0  0  0  0
  180.0690  175.6340  138.3720 C   0  0  0  0  0  0  0  0  0  0  0  0
  181.3040  176.0560  138.0850 C   0  0  0  0  0  3  0  0  0  0  0  0
  180.4550  178.5370  139.4170 C   0  0  2  0  0  3  0  0  0  0  0  0
  179.8990  179.5980  138.4820 C   0  0  0  0  0  2  0  0  0  0  0  0
  186.4070  178.4990  137.8300 C   0  0  0  0  0  2  0  0  0  0  0  0
  184.5720  179.3450  139.2990 C   0  0  0  0  0  0  0  0  0  0  0  0
  181.9660  173.7610  137.5800 O   0  0  0  0  0  0  0  0  0  0  0  0
  184.8160  178.6580  140.4750 C   0  0  0  0  0  0  0  0  0  0  0  0
  180.6440  173.3400  137.8020 C   0  0  0  0  0  0  0  0  0  0  0  0
  178.9340  171.7270  137.8980 F   0  0  0  0  0  0  0  0  0  0  0  0
  180.5680  171.4710  136.3610 F   0  0  0  0  0  0  0  0  0  0  0  0
  181.0060  171.1280  138.5430 F   0  0  0  0  0  0  0  0  0  0  0  0
  180.2840  171.8960  137.6480 C   0  0  0  0  0  0  0  0  0  0  0  0
  184.2670  178.2180  143.3930 O   0  0  0  0  0  0  0  0  0  0  0  0
  182.9770  178.7600  143.5200 C   0  0  0  0  0  2  0  0  0  0  0  0
  183.3230  177.8190  142.4260 C   0  0  1  0  0  3  0  0  0  0  0  0
  186.0710  178.1680  140.8560 O   0  0  0  0  0  0  0  0  0  0  0  0
  187.0030  178.9070  141.6310 C   0  0  0  0  0  2  0  0  0  0  0  0
  188.0830  177.9820  142.1540 C   0  0  0  0  0  2  0  0  0  0  0  0
  189.2090  178.7230  142.5120 O   0  0  0  0  0  1  0  0  0  0  0  0
  180.3060  180.8200  136.3080 C   0  0  0  0  0  2  0  0  0  0  0  0
  179.3800  181.7600  137.0690 C   0  0  0  0  0  2  0  0  0  0  0  0
  180.1120  183.0200  137.5220 C   0  0  0  0  0  2  0  0  0  0  0  0
  179.2680  184.2730  137.3290 C   0  0  0  0  0  2  0  0  0  0  0  0
  179.9960  185.3050  136.4820 C   0  0  0  0  0  2  0  0  0  0  0  0
  180.8050  184.6220  135.3940 C   0  0  0  0  0  1  0  0  0  0  0  0
  2 19  1  0  0  0  0
  3  9  2  0  0  0  0
  6 24  1  0  0  0  0
  7 39  1  1  0  0  0
  7 16  1  0  0  0  0
  7 22  1  0  0  0  0
  8 15  1  0  0  0  0
  9  4  1  0  0  0  0
  9 23  1  0  0  0  0
 10 12  1  1  0  0  0
 10  1  1  0  0  0  0
 10  4  1  0  0  0  0
 11  1  1  6  0  0  0
 11 25  1  0  0  0  0
 11 20  1  0  0  0  0
 14 13  1  0  0  0  0
 15 24  1  0  0  0  0
 15 18  1  0  0  0  0
 16  8  1  0  0  0  0
 18 17  1  0  0  0  0
 18  5  2  0  0  0  0
 19 14  1  0  0  0  0
 20 19  2  0  0  0  0
 21 22  1  1  0  0  0
 21 13  1  0  0  0  0
 21 17  1  0  0  0  0
 23  6  1  0  0  0  0
 24 26  2  0  0  0  0
 25 27  1  0  0  0  0
 26 35  1  0  0  0  0
 26  5  1  0  0  0  0
 27  2  2  0  0  0  0
 29 31  1  0  0  0  0
 31 27  1  0  0  0  0
 31 28  1  0  0  0  0
 31 30  1  0  0  0  0
 32 33  1  0  0  0  0
 34  5  1  6  0  0  0
 34 32  1  0  0  0  0
 34 33  1  0  0  0  0
 35 36  1  0  0  0  0
 36 37  1  0  0  0  0
 37 38  1  0  0  0  0
 39 40  1  0  0  0  0
 40 41  1  0  0  0  0
 42 41  1  0  0  0  0
 43 42  1  0  0  0  0
 44 43  1  0  0  0  0
M  END
>  <MODEL>
5

>  <REMARK>
 VINA RESULT:      -3.8      3.401      6.676
  Name = 
  10 active torsions:
  status: ('A' for Active; 'I' for Inactive)
    1  A    between atoms: C_1  and  C_34
    2  A    between atoms: C_7  and  C_39
    3  A    between atoms: O_9  and  C_34
    4  A    between atoms: O_9  and  C_42
    5  A    between atoms: C_11  and  C_20
    6  A    between atoms: C_14  and  C_15
    7  A    between atoms: C_15  and  C_17
    8  A    between atoms: C_17  and  C_19
    9  A    between atoms: C_19  and  C_39
   10  A    between atoms: C_43  and  C_44
                            x       y       z     vdW  Elec       q    Type
                         _______ _______ _______ _____ _____    ______ ____

>  <TORSDO>
F 10

$$$$
=
 OpenBabel11042410393D

 44 48  0  0  1  0  0  0  0  0999 V2000
  184.0610  179.7040  142.9130 C   0  0  0  0  0  2  0  0  0  0  0  0
  186.9560  178.3620  140.7080 C   0  0  0  0  0  3  0  0  0  0  0  0
  180.0640  180.1120  144.0980 O   0  0  0  0  0  0  0  0  0  0  0  0
  181.7420  178.8770  143.0430 N   0  0  0  0  0  2  0  0  0  0  0  0
  180.9430  176.2620  139.3390 C   0  0  0  0  0  0  0  0  0  0  0  0
  178.9450  178.5950  141.3840 C   0  0  0  0  0  2  0  0  0  0  0  0
  182.5140  181.0500  138.7490 C   0  0  1  0  0  3  0  0  0  0  0  0
  180.5530  179.9020  139.1470 C   0  0  0  0  0  2  0  0  0  0  0  0
  180.3720  179.1400  143.3580 C   0  0  0  0  0  0  0  0  0  0  0  0
  182.8290  179.4990  143.7890 C   0  0  1  0  0  3  0  0  0  0  0  0
  184.5170  178.4240  142.2270 C   0  0  1  0  0  3  0  0  0  0  0  0
  183.1640  178.6720  145.0180 C   0  0  0  0  0  1  0  0  0  0  0  0
  184.6400  178.2660  137.7510 C   0  0  0  0  0  2  0  0  0  0  0  0
  185.6860  179.0130  138.5820 C   0  0  0  0  0  2  0  0  0  0  0  0
  180.5070  178.4670  139.4120 N   0  0  0  0  0  0  0  0  0  0  0  0
  181.7020  180.4500  139.7440 O   0  0  0  0  0  0  0  0  0  0  0  0
  182.1770  177.7500  137.6560 C   0  0  0  0  0  2  0  0  0  0  0  0
  181.2070  177.5030  138.7710 C   0  0  0  0  0  0  0  0  0  0  0  0
  185.6800  178.6370  140.0380 C   0  0  0  0  0  0  0  0  0  0  0  0
  184.5480  178.6680  140.7480 C   0  0  0  0  0  3  0  0  0  0  0  0
  183.2370  178.7280  138.1160 C   0  0  2  0  0  3  0  0  0  0  0  0
  182.9250  180.1210  137.5970 C   0  0  0  0  0  2  0  0  0  0  0  0
  179.2950  178.2570  142.8260 C   0  0  0  0  0  2  0  0  0  0  0  0
  179.8340  177.8710  140.4170 C   0  0  0  0  0  0  0  0  0  0  0  0
  185.7900  178.0180  142.7480 O   0  0  0  0  0  0  0  0  0  0  0  0
  180.0720  176.5090  140.3980 C   0  0  0  0  0  0  0  0  0  0  0  0
  186.9850  178.0700  142.0110 C   0  0  0  0  0  0  0  0  0  0  0  0
  189.2400  178.6820  142.2860 F   0  0  0  0  0  0  0  0  0  0  0  0
  188.1400  177.8120  144.0540 F   0  0  0  0  0  0  0  0  0  0  0  0
  188.7140  176.4930  142.3220 F   0  0  0  0  0  0  0  0  0  0  0  0
  188.2880  177.7590  142.6790 C   0  0  0  0  0  0  0  0  0  0  0  0
  180.6480  174.2380  138.1370 O   0  0  0  0  0  0  0  0  0  0  0  0
  181.7290  174.8440  137.4770 C   0  0  0  0  0  2  0  0  0  0  0  0
  181.5560  174.9490  138.9460 C   0  0  1  0  0  3  0  0  0  0  0  0
  179.5350  175.6010  141.3190 O   0  0  0  0  0  0  0  0  0  0  0  0
  178.9320  174.3700  140.9500 C   0  0  0  0  0  2  0  0  0  0  0  0
  179.7520  173.2150  141.4900 C   0  0  0  0  0  2  0  0  0  0  0  0
  179.0690  172.5990  142.5380 O   0  0  0  0  0  1  0  0  0  0  0  0
  181.9280  182.3570  138.2240 C   0  0  0  0  0  2  0  0  0  0  0  0
  181.1030  182.1240  136.9650 C   0  0  0  0  0  2  0  0  0  0  0  0
  180.7730  183.4380  136.2620 C   0  0  0  0  0  2  0  0  0  0  0  0
  180.9720  184.6400  137.1760 C   0  0  0  0  0  2  0  0  0  0  0  0
  179.6840  185.0060  137.8980 C   0  0  0  0  0  2  0  0  0  0  0  0
  179.9320  186.1330  138.8840 C   0  0  0  0  0  1  0  0  0  0  0  0
  1 10  1  0  0  0  0
  2 27  2  0  0  0  0
  4  9  1  0  0  0  0
  4 10  1  0  0  0  0
  5 26  1  0  0  0  0
  6 23  1  0  0  0  0
  7 39  1  6  0  0  0
  7 16  1  0  0  0  0
  8 15  1  0  0  0  0
  8 16  1  0  0  0  0
  9  3  2  0  0  0  0
 10 12  1  1  0  0  0
 11 20  1  6  0  0  0
 11 25  1  0  0  0  0
 11  1  1  0  0  0  0
 13 21  1  0  0  0  0
 13 14  1  0  0  0  0
 14 19  1  0  0  0  0
 15 24  1  0  0  0  0
 17 21  1  0  0  0  0
 17 18  1  0  0  0  0
 18  5  2  0  0  0  0
 18 15  1  0  0  0  0
 19  2  1  0  0  0  0
 19 20  2  0  0  0  0
 21 22  1  6  0  0  0
 22  7  1  0  0  0  0
 23  9  1  0  0  0  0
 24  6  1  0  0  0  0
 26 24  2  0  0  0  0
 26 35  1  0  0  0  0
 27 31  1  0  0  0  0
 27 25  1  0  0  0  0
 28 31  1  0  0  0  0
 30 31  1  0  0  0  0
 31 29  1  0  0  0  0
 32 34  1  0  0  0  0
 33 32  1  0  0  0  0
 33 34  1  0  0  0  0
 34  5  1  6  0  0  0
 36 35  1  0  0  0  0
 36 37  1  0  0  0  0
 37 38  1  0  0  0  0
 40 39  1  0  0  0  0
 41 40  1  0  0  0  0
 41 42  1  0  0  0  0
 42 43  1  0  0  0  0
 43 44  1  0  0  0  0
M  END
>  <MODEL>
6

>  <REMARK>
 VINA RESULT:      -3.7      2.256      3.200
  Name = 
  10 active torsions:
  status: ('A' for Active; 'I' for Inactive)
    1  A    between atoms: C_1  and  C_34
    2  A    between atoms: C_7  and  C_39
    3  A    between atoms: O_9  and  C_34
    4  A    between atoms: O_9  and  C_42
    5  A    between atoms: C_11  and  C_20
    6  A    between atoms: C_14  and  C_15
    7  A    between atoms: C_15  and  C_17
    8  A    between atoms: C_17  and  C_19
    9  A    between atoms: C_19  and  C_39
   10  A    between atoms: C_43  and  C_44
                            x       y       z     vdW  Elec       q    Type
                         _______ _______ _______ _____ _____    ______ ____

>  <TORSDO>
F 10

$$$$
=
 OpenBabel11042410393D

 44 48  0  0  1  0  0  0  0  0999 V2000
  184.5810  177.1430  139.4080 C   0  0  0  0  0  2  0  0  0  0  0  0
  183.6450  178.8710  142.7530 C   0  0  0  0  0  3  0  0  0  0  0  0
  184.1110  176.2140  135.3510 O   0  0  0  0  0  0  0  0  0  0  0  0
  183.7550  177.6660  137.1450 N   0  0  0  0  0  2  0  0  0  0  0  0
  179.9370  180.2040  137.5640 C   0  0  0  0  0  0  0  0  0  0  0  0
  181.1180  177.6100  135.2220 C   0  0  0  0  0  2  0  0  0  0  0  0
  180.2010  175.6630  139.8120 C   0  0  1  0  0  3  0  0  0  0  0  0
  179.7490  176.5470  137.7300 C   0  0  0  0  0  2  0  0  0  0  0  0
  183.5150  177.2270  135.8050 C   0  0  0  0  0  0  0  0  0  0  0  0
  184.8920  177.1780  137.9150 C   0  0  1  0  0  3  0  0  0  0  0  0
  184.0820  178.4790  139.9390 C   0  0  1  0  0  3  0  0  0  0  0  0
  186.1210  178.0250  137.6330 C   0  0  0  0  0  1  0  0  0  0  0  0
  180.0140  178.7070  141.8020 C   0  0  0  0  0  2  0  0  0  0  0  0
  181.2170  178.0900  142.5170 C   0  0  0  0  0  2  0  0  0  0  0  0
  179.9190  177.9610  137.4070 N   0  0  0  0  0  0  0  0  0  0  0  0
  180.7710  176.1420  138.6060 O   0  0  0  0  0  0  0  0  0  0  0  0
  178.9360  178.9070  139.5360 C   0  0  0  0  0  2  0  0  0  0  0  0
  179.5680  179.0140  138.1800 C   0  0  0  0  0  0  0  0  0  0  0  0
  182.5380  178.4430  141.8890 C   0  0  0  0  0  0  0  0  0  0  0  0
  182.7450  178.2590  140.5820 C   0  0  0  0  0  3  0  0  0  0  0  0
  179.8140  178.0660  140.4370 C   0  0  2  0  0  3  0  0  0  0  0  0
  179.2690  176.6510  140.5280 C   0  0  0  0  0  2  0  0  0  0  0  0
  182.5680  177.9720  134.9280 C   0  0  0  0  0  2  0  0  0  0  0  0
  180.5530  178.4530  136.3250 C   0  0  0  0  0  0  0  0  0  0  0  0
  185.0450  179.0370  140.8410 O   0  0  0  0  0  0  0  0  0  0  0  0
  180.5760  179.8350  136.3830 C   0  0  0  0  0  0  0  0  0  0  0  0
  184.8420  179.1470  142.2270 C   0  0  0  0  0  0  0  0  0  0  0  0
  185.4610  180.4990  144.0510 F   0  0  0  0  0  0  0  0  0  0  0  0
  186.5310  178.5330  143.7590 F   0  0  0  0  0  0  0  0  0  0  0  0
  186.9240  180.2510  142.3580 F   0  0  0  0  0  0  0  0  0  0  0  0
  185.9560  179.6130  143.1110 C   0  0  0  0  0  0  0  0  0  0  0  0
  180.1570  181.5980  139.4710 O   0  0  0  0  0  0  0  0  0  0  0  0
  181.0600  182.1660  138.5580 C   0  0  0  0  0  2  0  0  0  0  0  0
  179.7660  181.5890  138.1180 C   0  0  1  0  0  3  0  0  0  0  0  0
  181.1750  180.6560  135.4190 O   0  0  0  0  0  0  0  0  0  0  0  0
  180.5150  181.7460  134.7940 C   0  0  0  0  0  2  0  0  0  0  0  0
  181.3200  183.0150  134.9940 C   0  0  0  0  0  2  0  0  0  0  0  0
  180.4690  184.1200  134.9930 O   0  0  0  0  0  1  0  0  0  0  0  0
  179.5390  174.2990  139.6450 C   0  0  0  0  0  2  0  0  0  0  0  0
  179.7330  173.7610  138.2330 C   0  0  0  0  0  2  0  0  0  0  0  0
  180.1630  172.2970  138.2480 C   0  0  0  0  0  2  0  0  0  0  0  0
  179.6460  171.5380  137.0330 C   0  0  0  0  0  2  0  0  0  0  0  0
  179.3440  172.4820  135.8780 C   0  0  0  0  0  2  0  0  0  0  0  0
  180.5690  172.6470  134.9960 C   0  0  0  0  0  1  0  0  0  0  0  0
  3  9  2  0  0  0  0
  4 10  1  0  0  0  0
  5 18  2  0  0  0  0
  6 24  1  0  0  0  0
  7 39  1  6  0  0  0
  7 22  1  0  0  0  0
  8 16  1  0  0  0  0
  9  4  1  0  0  0  0
 10 12  1  1  0  0  0
 10  1  1  0  0  0  0
 11  1  1  1  0  0  0
 11 20  1  0  0  0  0
 11 25  1  0  0  0  0
 13 14  1  0  0  0  0
 15  8  1  0  0  0  0
 15 18  1  0  0  0  0
 16  7  1  0  0  0  0
 18 17  1  0  0  0  0
 19 14  1  0  0  0  0
 19  2  1  0  0  0  0
 20 19  2  0  0  0  0
 21 17  1  6  0  0  0
 21 22  1  0  0  0  0
 21 13  1  0  0  0  0
 23  6  1  0  0  0  0
 23  9  1  0  0  0  0
 24 26  2  0  0  0  0
 24 15  1  0  0  0  0
 25 27  1  0  0  0  0
 26  5  1  0  0  0  0
 27  2  2  0  0  0  0
 27 31  1  0  0  0  0
 30 31  1  0  0  0  0
 31 29  1  0  0  0  0
 31 28  1  0  0  0  0
 33 32  1  0  0  0  0
 34  5  1  6  0  0  0
 34 33  1  0  0  0  0
 34 32  1  0  0  0  0
 35 26  1  0  0  0  0
 36 37  1  0  0  0  0
 36 35  1  0  0  0  0
 38 37  1  0  0  0  0
 40 41  1  0  0  0  0
 40 39  1  0  0  0  0
 42 41  1  0  0  0  0
 43 42  1  0  0  0  0
 44 43  1  0  0  0  0
M  END
>  <MODEL>
7

>  <REMARK>
 VINA RESULT:      -2.4      2.304      7.219
  Name = 
  10 active torsions:
  status: ('A' for Active; 'I' for Inactive)
    1  A    between atoms: C_1  and  C_34
    2  A    between atoms: C_7  and  C_39
    3  A    between atoms: O_9  and  C_34
    4  A    between atoms: O_9  and  C_42
    5  A    between atoms: C_11  and  C_20
    6  A    between atoms: C_14  and  C_15
    7  A    between atoms: C_15  and  C_17
    8  A    between atoms: C_17  and  C_19
    9  A    between atoms: C_19  and  C_39
   10  A    between atoms: C_43  and  C_44
                            x       y       z     vdW  Elec       q    Type
                         _______ _______ _______ _____ _____    ______ ____

>  <TORSDO>
F 10

$$$$
=
 OpenBabel11042410393D

 44 48  0  0  1  0  0  0  0  0999 V2000
  181.4370  174.8530  139.9840 C   0  0  0  0  0  2  0  0  0  0  0  0
  183.5630  174.0150  136.8500 C   0  0  0  0  0  3  0  0  0  0  0  0
  179.4090  177.3870  142.6320 O   0  0  0  0  0  0  0  0  0  0  0  0
  180.2480  176.9520  140.4970 N   0  0  0  0  0  2  0  0  0  0  0  0
  181.9340  180.2560  137.7700 C   0  0  0  0  0  0  0  0  0  0  0  0
  180.6620  180.1050  141.2300 C   0  0  0  0  0  2  0  0  0  0  0  0
  185.0660  177.6340  140.7790 C   0  0  1  0  0  3  0  0  0  0  0  0
  183.6170  179.4240  140.9180 C   0  0  0  0  0  2  0  0  0  0  0  0
  179.6850  177.8210  141.4820 C   0  0  0  0  0  0  0  0  0  0  0  0
  180.2340  175.5030  140.6610 C   0  0  1  0  0  3  0  0  0  0  0  0
  181.5740  175.2460  138.5200 C   0  0  1  0  0  3  0  0  0  0  0  0
  178.9320  174.9270  140.1320 C   0  0  0  0  0  1  0  0  0  0  0  0
  185.2960  177.3350  137.1570 C   0  0  0  0  0  2  0  0  0  0  0  0
  185.2540  175.8370  137.4670 C   0  0  0  0  0  2  0  0  0  0  0  0
  182.7340  179.8230  139.8270 N   0  0  0  0  0  0  0  0  0  0  0  0
  183.7140  178.0220  140.9520 O   0  0  0  0  0  0  0  0  0  0  0  0
  184.3930  179.5520  137.9390 C   0  0  0  0  0  2  0  0  0  0  0  0
  183.0500  179.8900  138.5140 C   0  0  0  0  0  0  0  0  0  0  0  0
  183.8610  175.2750  137.5410 C   0  0  0  0  0  0  0  0  0  0  0  0
  182.9340  175.8430  138.3190 C   0  0  0  0  0  3  0  0  0  0  0  0
  184.7700  178.1400  138.3360 C   0  0  2  0  0  3  0  0  0  0  0  0
  185.7390  178.1670  139.5060 C   0  0  0  0  0  2  0  0  0  0  0  0
  179.4050  179.2480  141.1530 C   0  0  0  0  0  2  0  0  0  0  0  0
  181.4170  180.0920  139.9350 C   0  0  0  0  0  0  0  0  0  0  0  0
  181.3410  174.1050  137.6840 O   0  0  0  0  0  0  0  0  0  0  0  0
  180.8920  180.3720  138.6860 C   0  0  0  0  0  0  0  0  0  0  0  0
  182.3470  173.4690  136.9360 C   0  0  0  0  0  0  0  0  0  0  0  0
  182.7020  171.1470  136.8090 F   0  0  0  0  0  0  0  0  0  0  0  0
  180.6810  171.9580  136.2180 F   0  0  0  0  0  0  0  0  0  0  0  0
  182.4660  172.3000  134.8890 F   0  0  0  0  0  0  0  0  0  0  0  0
  182.0430  172.2010  136.2020 C   0  0  0  0  0  0  0  0  0  0  0  0
  181.9450  179.1160  135.6890 O   0  0  0  0  0  0  0  0  0  0  0  0
  180.6690  179.7030  135.7230 C   0  0  0  0  0  2  0  0  0  0  0  0
  181.8590  180.3930  136.2770 C   0  0  1  0  0  3  0  0  0  0  0  0
  179.5460  180.6770  138.4470 O   0  0  0  0  0  0  0  0  0  0  0  0
  179.0040  181.9840  138.5600 C   0  0  0  0  0  2  0  0  0  0  0  0
  179.3320  182.7850  137.3150 C   0  0  0  0  0  2  0  0  0  0  0  0
  180.4030  183.6410  137.5720 O   0  0  0  0  0  1  0  0  0  0  0  0
  185.9170  177.9150  142.0140 C   0  0  0  0  0  2  0  0  0  0  0  0
  187.3330  178.3220  141.6270 C   0  0  0  0  0  2  0  0  0  0  0  0
  188.3570  177.8100  142.6350 C   0  0  0  0  0  2  0  0  0  0  0  0
  187.7230  176.9090  143.6870 C   0  0  0  0  0  2  0  0  0  0  0  0
  187.9160  177.4730  145.0870 C   0  0  0  0  0  2  0  0  0  0  0  0
  186.5910  177.5160  145.8270 C   0  0  0  0  0  1  0  0  0  0  0  0
  1 10  1  0  0  0  0
  2 27  2  0  0  0  0
  2 19  1  0  0  0  0
  4 10  1  0  0  0  0
  4  9  1  0  0  0  0
  5 18  2  0  0  0  0
  5 26  1  0  0  0  0
  7 16  1  0  0  0  0
  7 39  1  1  0  0  0
  8 16  1  0  0  0  0
  9  3  2  0  0  0  0
 10 12  1  6  0  0  0
 11 20  1  1  0  0  0
 11  1  1  0  0  0  0
 13 14  1  0  0  0  0
 14 19  1  0  0  0  0
 15 24  1  0  0  0  0
 15  8  1  0  0  0  0
 17 21  1  0  0  0  0
 17 18  1  0  0  0  0
 18 15  1  0  0  0  0
 19 20  2  0  0  0  0
 21 13  1  6  0  0  0
 21 22  1  0  0  0  0
 22  7  1  0  0  0  0
 23  6  1  0  0  0  0
 23  9  1  0  0  0  0
 24  6  1  0  0  0  0
 25 11  1  0  0  0  0
 26 24  2  0  0  0  0
 27 25  1  0  0  0  0
 30 31  1  0  0  0  0
 31 29  1  0  0  0  0
 31 28  1  0  0  0  0
 31 27  1  0  0  0  0
 32 33  1  0  0  0  0
 32 34  1  0  0  0  0
 33 34  1  0  0  0  0
 34  5  1  1  0  0  0
 35 36  1  0  0  0  0
 35 26  1  0  0  0  0
 37 38  1  0  0  0  0
 37 36  1  0  0  0  0
 40 39  1  0  0  0  0
 40 41  1  0  0  0  0
 41 42  1  0  0  0  0
 42 43  1  0  0  0  0
 43 44  1  0  0  0  0
M  END
>  <MODEL>
8

>  <REMARK>
 VINA RESULT:      -2.4      3.337      7.146
  Name = 
  10 active torsions:
  status: ('A' for Active; 'I' for Inactive)
    1  A    between atoms: C_1  and  C_34
    2  A    between atoms: C_7  and  C_39
    3  A    between atoms: O_9  and  C_34
    4  A    between atoms: O_9  and  C_42
    5  A    between atoms: C_11  and  C_20
    6  A    between atoms: C_14  and  C_15
    7  A    between atoms: C_15  and  C_17
    8  A    between atoms: C_17  and  C_19
    9  A    between atoms: C_19  and  C_39
   10  A    between atoms: C_43  and  C_44
                            x       y       z     vdW  Elec       q    Type
                         _______ _______ _______ _____ _____    ______ ____

>  <TORSDO>
F 10

$$$$
