=
 OpenBabel11042413213D

 40 45  0  0  1  0  0  0  0  0999 V2000
  191.1300  178.5980  144.1710 C   0  0  0  0  0  2  0  0  0  0  0  0
  191.6820  176.5860  147.6690 O   0  0  0  0  0  1  0  0  0  0  0  0
  188.9610  177.5620  147.0470 N   0  0  0  0  0  2  0  0  0  0  0  0
  191.3130  176.0140  143.9820 C   0  0  0  0  0  2  0  0  0  0  0  0
  190.0060  178.3780  145.0820 N   0  0  0  0  0  0  0  0  0  0  0  0
  191.8170  176.0180  145.3950 C   0  0  0  0  0  3  0  0  0  0  0  0
  190.0350  177.5620  146.0990 C   0  0  0  0  0  0  0  0  0  0  0  0
  191.4410  177.3810  143.2900 C   0  0  1  0  0  3  0  0  0  0  0  0
  191.2110  176.7050  146.3670 C   0  0  0  0  0  0  0  0  0  0  0  0
  189.8130  178.7020  141.9250 C   0  0  0  0  0  2  0  0  0  0  0  0
  188.4850  178.4720  141.1980 C   0  0  0  0  0  2  0  0  0  0  0  0
  189.8210  177.9790  139.0740 C   0  0  0  0  0  2  0  0  0  0  0  0
  190.9450  177.0280  139.4690 C   0  0  0  0  0  2  0  0  0  0  0  0
  190.6890  177.4560  141.9600 C   0  0  1  0  0  3  0  0  0  0  0  0
  188.5800  177.6620  139.8990 C   0  0  2  0  0  3  0  0  0  0  0  0
  191.6380  177.4560  140.7600 C   0  0  0  0  0  2  0  0  0  0  0  0
  186.4310  178.6200  139.4830 O   0  0  0  0  0  0  0  0  0  0  0  0
  187.2100  177.1330  137.8510 N   0  0  0  0  0  2  0  0  0  0  0  0
  187.3430  177.8450  139.0870 C   0  0  0  0  0  0  0  0  0  0  0  0
  186.2770  176.4190  135.6720 C   0  0  0  0  0  2  0  0  0  0  0  0
  184.0120  175.2860  135.8360 C   0  0  2  0  0  3  0  0  0  0  0  0
  183.6480  176.4670  136.7490 C   0  0  0  0  0  2  0  0  0  0  0  0
  186.0400  177.1940  136.9790 C   0  0  1  0  0  3  0  0  0  0  0  0
  185.5230  175.0890  135.6480 C   0  0  0  0  0  2  0  0  0  0  0  0
  184.7690  176.7830  137.7330 C   0  0  0  0  0  2  0  0  0  0  0  0
  183.3990  175.4560  134.5960 O   0  0  0  0  0  1  0  0  0  0  0  0
  185.7420  178.6290  145.4160 N   0  0  0  0  0  2  0  0  0  0  0  0
  187.7170  178.1800  146.8210 N   0  0  0  0  0  2  0  0  0  0  0  0
  186.7900  177.7480  145.8220 C   0  0  0  0  0  0  0  0  0  0  0  0
  186.8790  176.5930  145.3250 O   0  0  0  0  0  0  0  0  0  0  0  0
  181.1900  178.4420  141.7740 N   0  0  0  0  0  0  0  0  0  0  0  0
  184.6970  178.2230  144.4890 C   0  0  1  0  0  3  0  0  0  0  0  0
  182.3690  179.0840  143.9650 C   0  0  0  0  0  2  0  0  0  0  0  0
  183.8820  179.4400  144.0730 C   0  0  2  0  0  3  0  0  0  0  0  0
  181.7360  178.3450  140.5290 C   0  0  0  0  0  3  0  0  0  0  0  0
  183.0990  178.6570  140.5660 C   0  0  0  0  0  3  0  0  0  0  0  0
  182.2410  178.8100  142.5230 C   0  0  0  0  0  0  0  0  0  0  0  0
  185.2810  178.1220  143.0870 C   0  0  0  0  0  2  0  0  0  0  0  0
  184.4830  179.3400  142.6490 C   0  0  1  0  0  3  0  0  0  0  0  0
  183.3510  178.9390  141.8490 N   0  0  0  0  0  0  0  0  0  0  0  0
  1  5  1  0  0  0  0
  4  6  1  0  0  0  0
  5  7  2  0  0  0  0
  6  9  2  0  0  0  0
  7  9  1  0  0  0  0
  7  3  1  0  0  0  0
  8  4  1  1  0  0  0
  8  1  1  0  0  0  0
  9  2  1  0  0  0  0
 10 14  1  0  0  0  0
 11 10  1  0  0  0  0
 12 13  1  0  0  0  0
 12 15  1  0  0  0  0
 13 16  1  0  0  0  0
 14 16  1  6  0  0  0
 14  8  1  0  0  0  0
 15 19  1  6  0  0  0
 15 11  1  0  0  0  0
 18 19  1  0  0  0  0
 19 17  2  0  0  0  0
 20 23  1  0  0  0  0
 21 26  1  6  0  0  0
 21 22  1  0  0  0  0
 22 25  1  0  0  0  0
 23 25  1  0  0  0  0
 23 18  1  1  0  0  0
 24 20  1  0  0  0  0
 24 21  1  0  0  0  0
 27 29  1  0  0  0  0
 28  3  1  0  0  0  0
 29 28  1  0  0  0  0
 30 29  2  0  0  0  0
 31 37  2  0  0  0  0
 32 27  1  1  0  0  0
 34 33  1  6  0  0  0
 34 32  1  0  0  0  0
 35 36  2  0  0  0  0
 35 31  1  0  0  0  0
 36 40  1  0  0  0  0
 37 33  1  0  0  0  0
 38 32  1  0  0  0  0
 39 38  1  1  0  0  0
 39 34  1  0  0  0  0
 40 37  1  0  0  0  0
 40 39  1  0  0  0  0
M  END
>  <MODEL>
1

>  <REMARK>
 VINA RESULT:      -9.7      0.000      0.000
  Name = 
  5 active torsions:
  status: ('A' for Active; 'I' for Inactive)
    1  A    between atoms: N_3  and  C_8
    2  A    between atoms: N_7  and  N_10
    3  A    between atoms: C_24  and  N_31
    4  A    between atoms: C_27  and  C_34
    5  A    between atoms: C_28  and  C_33
                            x       y       z     vdW  Elec       q    Type
                         _______ _______ _______ _____ _____    ______ ____

>  <TORSDO>
F 5

$$$$
=
 OpenBabel11042413213D

 40 45  0  0  1  0  0  0  0  0999 V2000
  188.2440  176.4550  147.0110 C   0  0  0  0  0  2  0  0  0  0  0  0
  191.7770  177.4550  148.7760 O   0  0  0  0  0  1  0  0  0  0  0  0
  191.7730  176.9730  145.8590 N   0  0  0  0  0  2  0  0  0  0  0  0
  188.5570  178.9670  147.5920 C   0  0  0  0  0  2  0  0  0  0  0  0
  189.4650  176.5640  146.2110 N   0  0  0  0  0  0  0  0  0  0  0  0
  189.7320  178.5540  148.4280 C   0  0  0  0  0  3  0  0  0  0  0  0
  190.5780  177.0910  146.6410 C   0  0  0  0  0  0  0  0  0  0  0  0
  187.5870  177.8120  147.2990 C   0  0  1  0  0  3  0  0  0  0  0  0
  190.6700  177.7180  147.9780 C   0  0  0  0  0  0  0  0  0  0  0  0
  186.5930  177.1320  145.1060 C   0  0  0  0  0  2  0  0  0  0  0  0
  186.3340  177.7520  143.7300 C   0  0  0  0  0  2  0  0  0  0  0  0
  184.0040  178.4130  144.5500 C   0  0  0  0  0  2  0  0  0  0  0  0
  184.1790  179.0320  145.9310 C   0  0  0  0  0  2  0  0  0  0  0  0
  186.5450  178.1560  146.2330 C   0  0  1  0  0  3  0  0  0  0  0  0
  185.1970  178.7800  143.6770 C   0  0  2  0  0  3  0  0  0  0  0  0
  185.1300  178.2240  146.8110 C   0  0  0  0  0  2  0  0  0  0  0  0
  185.5410  179.5910  141.4560 O   0  0  0  0  0  0  0  0  0  0  0  0
  183.4840  178.5410  141.8440 N   0  0  0  0  0  2  0  0  0  0  0  0
  184.7720  179.0050  142.2650 C   0  0  0  0  0  0  0  0  0  0  0  0
  183.2800  177.5420  139.5880 C   0  0  0  0  0  2  0  0  0  0  0  0
  180.8960  177.3980  138.7300 C   0  0  2  0  0  3  0  0  0  0  0  0
  180.7920  178.8570  139.1980 C   0  0  0  0  0  2  0  0  0  0  0  0
  182.9320  178.7270  140.5050 C   0  0  1  0  0  3  0  0  0  0  0  0
  182.0770  176.6310  139.3440 C   0  0  0  0  0  2  0  0  0  0  0  0
  181.4350  179.0560  140.5660 C   0  0  0  0  0  2  0  0  0  0  0  0
  180.9830  177.3650  137.3390 O   0  0  0  0  0  1  0  0  0  0  0  0
  191.0000  176.7610  142.1820 N   0  0  0  0  0  2  0  0  0  0  0  0
  191.7900  176.5730  144.5100 N   0  0  0  0  0  2  0  0  0  0  0  0
  191.2780  177.3740  143.4420 C   0  0  0  0  0  0  0  0  0  0  0  0
  191.0990  178.6120  143.6010 O   0  0  0  0  0  0  0  0  0  0  0  0
  189.3740  178.4960  136.8560 N   0  0  0  0  0  0  0  0  0  0  0  0
  190.5840  177.5270  141.0170 C   0  0  1  0  0  3  0  0  0  0  0  0
  190.8780  177.2360  138.5140 C   0  0  0  0  0  2  0  0  0  0  0  0
  190.3710  176.5880  139.8380 C   0  0  2  0  0  3  0  0  0  0  0  0
  188.0340  178.7260  136.9520 C   0  0  0  0  0  3  0  0  0  0  0  0
  187.5230  178.1630  138.1260 C   0  0  0  0  0  3  0  0  0  0  0  0
  189.6300  177.8010  137.9750 C   0  0  0  0  0  0  0  0  0  0  0  0
  189.0860  177.7840  141.0950 C   0  0  0  0  0  2  0  0  0  0  0  0
  188.8470  176.8450  139.9230 C   0  0  1  0  0  3  0  0  0  0  0  0
  188.5790  177.5970  138.7220 N   0  0  0  0  0  0  0  0  0  0  0  0
  3  7  1  0  0  0  0
  4  6  1  0  0  0  0
  5  7  2  0  0  0  0
  5  1  1  0  0  0  0
  7  9  1  0  0  0  0
  8  1  1  6  0  0  0
  8  4  1  0  0  0  0
  9  6  2  0  0  0  0
  9  2  1  0  0  0  0
 11 10  1  0  0  0  0
 12 13  1  0  0  0  0
 13 16  1  0  0  0  0
 14 10  1  6  0  0  0
 14 16  1  0  0  0  0
 14  8  1  0  0  0  0
 15 19  1  6  0  0  0
 15 11  1  0  0  0  0
 15 12  1  0  0  0  0
 17 19  2  0  0  0  0
 18 19  1  0  0  0  0
 20 23  1  0  0  0  0
 21 26  1  6  0  0  0
 21 22  1  0  0  0  0
 21 24  1  0  0  0  0
 22 25  1  0  0  0  0
 23 25  1  0  0  0  0
 23 18  1  1  0  0  0
 24 20  1  0  0  0  0
 27 29  1  0  0  0  0
 28  3  1  0  0  0  0
 29 30  2  0  0  0  0
 29 28  1  0  0  0  0
 31 35  1  0  0  0  0
 31 37  2  0  0  0  0
 32 38  1  0  0  0  0
 32 27  1  1  0  0  0
 34 33  1  6  0  0  0
 34 39  1  0  0  0  0
 34 32  1  0  0  0  0
 35 36  2  0  0  0  0
 36 40  1  0  0  0  0
 37 33  1  0  0  0  0
 37 40  1  0  0  0  0
 39 38  1  1  0  0  0
 40 39  1  0  0  0  0
M  END
>  <MODEL>
2

>  <REMARK>
 VINA RESULT:      -9.7      2.160      5.801
  Name = 
  5 active torsions:
  status: ('A' for Active; 'I' for Inactive)
    1  A    between atoms: N_3  and  C_8
    2  A    between atoms: N_7  and  N_10
    3  A    between atoms: C_24  and  N_31
    4  A    between atoms: C_27  and  C_34
    5  A    between atoms: C_28  and  C_33
                            x       y       z     vdW  Elec       q    Type
                         _______ _______ _______ _____ _____    ______ ____

>  <TORSDO>
F 5

$$$$
=
 OpenBabel11042413213D

 40 45  0  0  1  0  0  0  0  0999 V2000
  190.0880  176.0210  142.9190 C   0  0  0  0  0  2  0  0  0  0  0  0
  192.8870  177.2890  140.2450 O   0  0  0  0  0  1  0  0  0  0  0  0
  190.1360  176.8370  139.2600 N   0  0  0  0  0  2  0  0  0  0  0  0
  190.6950  178.5440  143.0150 C   0  0  0  0  0  2  0  0  0  0  0  0
  189.7260  176.2360  141.5170 N   0  0  0  0  0  0  0  0  0  0  0  0
  191.8740  178.2210  142.1470 C   0  0  0  0  0  3  0  0  0  0  0  0
  190.4850  176.8500  140.6500 C   0  0  0  0  0  0  0  0  0  0  0  0
  190.1220  177.3160  143.7400 C   0  0  1  0  0  3  0  0  0  0  0  0
  191.7680  177.4690  141.0490 C   0  0  0  0  0  0  0  0  0  0  0  0
  187.6590  176.8950  143.6200 C   0  0  0  0  0  2  0  0  0  0  0  0
  186.3640  177.7100  143.5880 C   0  0  0  0  0  2  0  0  0  0  0  0
  186.2490  177.4870  146.1330 C   0  0  0  0  0  2  0  0  0  0  0  0
  187.6400  177.8040  146.6690 C   0  0  0  0  0  2  0  0  0  0  0  0
  188.7700  177.5840  144.4030 C   0  0  1  0  0  3  0  0  0  0  0  0
  185.9650  178.3620  144.9180 C   0  0  2  0  0  3  0  0  0  0  0  0
  188.7410  177.1190  145.8610 C   0  0  0  0  0  2  0  0  0  0  0  0
  183.9140  179.0220  145.9530 O   0  0  0  0  0  0  0  0  0  0  0  0
  183.8690  178.8750  143.6160 N   0  0  0  0  0  2  0  0  0  0  0  0
  184.5310  178.7700  144.8820 C   0  0  0  0  0  0  0  0  0  0  0  0
  182.0830  179.2870  141.9520 C   0  0  0  0  0  2  0  0  0  0  0  0
  179.9620  177.9540  142.3580 C   0  0  2  0  0  3  0  0  0  0  0  0
  180.1130  178.4280  143.8110 C   0  0  0  0  0  2  0  0  0  0  0  0
  182.4630  179.2300  143.4410 C   0  0  1  0  0  3  0  0  0  0  0  0
  181.2470  178.0790  141.5260 C   0  0  0  0  0  2  0  0  0  0  0  0
  181.5570  178.3270  144.2880 C   0  0  0  0  0  2  0  0  0  0  0  0
  178.9310  178.6640  141.7450 O   0  0  0  0  0  1  0  0  0  0  0  0
  186.5300  176.9510  138.1920 N   0  0  0  0  0  2  0  0  0  0  0  0
  188.8730  176.4530  138.7740 N   0  0  0  0  0  2  0  0  0  0  0  0
  187.8850  177.3820  138.3200 C   0  0  0  0  0  0  0  0  0  0  0  0
  188.2100  178.5590  138.0090 O   0  0  0  0  0  0  0  0  0  0  0  0
  181.5160  179.1610  136.1920 N   0  0  0  0  0  0  0  0  0  0  0  0
  185.4900  177.8010  137.6330 C   0  0  1  0  0  3  0  0  0  0  0  0
  183.3400  177.3590  136.3610 C   0  0  0  0  0  2  0  0  0  0  0  0
  184.1590  177.0620  137.6540 C   0  0  2  0  0  3  0  0  0  0  0  0
  181.0900  180.0130  137.1670 C   0  0  0  0  0  3  0  0  0  0  0  0
  181.7940  179.7890  138.3540 C   0  0  0  0  0  3  0  0  0  0  0  0
  182.4620  178.4490  136.8230 C   0  0  0  0  0  0  0  0  0  0  0  0
  184.9880  178.7540  138.7090 C   0  0  0  0  0  2  0  0  0  0  0  0
  183.6530  178.0270  138.7530 C   0  0  1  0  0  3  0  0  0  0  0  0
  182.6410  178.7940  138.0690 N   0  0  0  0  0  0  0  0  0  0  0  0
  2  9  1  0  0  0  0
  3  7  1  0  0  0  0
  4  8  1  0  0  0  0
  5  1  1  0  0  0  0
  6  4  1  0  0  0  0
  7  9  1  0  0  0  0
  7  5  2  0  0  0  0
  8  1  1  6  0  0  0
  8 14  1  0  0  0  0
  9  6  2  0  0  0  0
 11 10  1  0  0  0  0
 11 15  1  0  0  0  0
 12 13  1  0  0  0  0
 14 10  1  6  0  0  0
 14 16  1  0  0  0  0
 15 19  1  6  0  0  0
 15 12  1  0  0  0  0
 16 13  1  0  0  0  0
 18 19  1  0  0  0  0
 19 17  2  0  0  0  0
 20 23  1  0  0  0  0
 21 26  1  6  0  0  0
 21 22  1  0  0  0  0
 22 25  1  0  0  0  0
 23 18  1  6  0  0  0
 23 25  1  0  0  0  0
 24 20  1  0  0  0  0
 24 21  1  0  0  0  0
 27 29  1  0  0  0  0
 28  3  1  0  0  0  0
 29 28  1  0  0  0  0
 30 29  2  0  0  0  0
 31 37  2  0  0  0  0
 31 35  1  0  0  0  0
 32 34  1  0  0  0  0
 32 27  1  1  0  0  0
 32 38  1  0  0  0  0
 33 37  1  0  0  0  0
 34 33  1  6  0  0  0
 34 39  1  0  0  0  0
 35 36  2  0  0  0  0
 37 40  1  0  0  0  0
 39 38  1  6  0  0  0
 40 36  1  0  0  0  0
 40 39  1  0  0  0  0
M  END
>  <MODEL>
3

>  <REMARK>
 VINA RESULT:      -9.6      2.740      6.296
  Name = 
  5 active torsions:
  status: ('A' for Active; 'I' for Inactive)
    1  A    between atoms: N_3  and  C_8
    2  A    between atoms: N_7  and  N_10
    3  A    between atoms: C_24  and  N_31
    4  A    between atoms: C_27  and  C_34
    5  A    between atoms: C_28  and  C_33
                            x       y       z     vdW  Elec       q    Type
                         _______ _______ _______ _____ _____    ______ ____

>  <TORSDO>
F 5

$$$$
=
 OpenBabel11042413213D

 40 45  0  0  1  0  0  0  0  0999 V2000
  180.8710  177.6880  140.1160 C   0  0  0  0  0  2  0  0  0  0  0  0
  179.0400  180.6540  142.2220 O   0  0  0  0  0  1  0  0  0  0  0  0
  181.4130  179.3640  143.4240 N   0  0  0  0  0  2  0  0  0  0  0  0
  181.3640  180.1140  139.3300 C   0  0  0  0  0  2  0  0  0  0  0  0
  181.3830  178.0870  141.4270 N   0  0  0  0  0  0  0  0  0  0  0  0
  180.2180  180.5500  140.1940 C   0  0  0  0  0  3  0  0  0  0  0  0
  181.0080  179.1620  142.0640 C   0  0  0  0  0  0  0  0  0  0  0  0
  181.3240  178.6180  138.9820 C   0  0  1  0  0  3  0  0  0  0  0  0
  180.0750  180.1350  141.4550 C   0  0  0  0  0  0  0  0  0  0  0  0
  183.7730  178.2410  139.3230 C   0  0  0  0  0  2  0  0  0  0  0  0
  185.0910  178.6220  138.6420 C   0  0  0  0  0  2  0  0  0  0  0  0
  184.9640  176.4280  137.3360 C   0  0  0  0  0  2  0  0  0  0  0  0
  183.5400  176.3090  136.8060 C   0  0  0  0  0  2  0  0  0  0  0  0
  182.6170  178.1130  138.3390 C   0  0  1  0  0  3  0  0  0  0  0  0
  185.3850  177.8920  137.3270 C   0  0  2  0  0  3  0  0  0  0  0  0
  182.4980  176.6630  137.8650 C   0  0  0  0  0  2  0  0  0  0  0  0
  187.1690  178.4490  135.8370 O   0  0  0  0  0  0  0  0  0  0  0  0
  187.8180  177.6740  137.9500 N   0  0  0  0  0  2  0  0  0  0  0  0
  186.8290  178.0260  136.9750 C   0  0  0  0  0  0  0  0  0  0  0  0
  190.0260  177.8770  139.0490 C   0  0  0  0  0  2  0  0  0  0  0  0
  191.6790  176.0660  138.3970 C   0  0  2  0  0  3  0  0  0  0  0  0
  191.2370  176.3800  136.9600 C   0  0  0  0  0  2  0  0  0  0  0  0
  189.2600  177.7250  137.7250 C   0  0  1  0  0  3  0  0  0  0  0  0
  190.7080  176.5760  139.4720 C   0  0  0  0  0  2  0  0  0  0  0  0
  189.7250  176.5460  136.8600 C   0  0  0  0  0  2  0  0  0  0  0  0
  192.9490  176.5980  138.6160 O   0  0  0  0  0  1  0  0  0  0  0  0
  184.7940  177.9750  144.3150 N   0  0  0  0  0  2  0  0  0  0  0  0
  182.4310  178.6280  144.0560 N   0  0  0  0  0  2  0  0  0  0  0  0
  183.8200  178.9570  143.9620 C   0  0  0  0  0  0  0  0  0  0  0  0
  184.1800  180.1090  143.5980 O   0  0  0  0  0  0  0  0  0  0  0  0
  190.5570  177.8640  145.2090 N   0  0  0  0  0  0  0  0  0  0  0  0
  186.2190  178.2670  144.3520 C   0  0  1  0  0  3  0  0  0  0  0  0
  188.1030  177.6800  145.9460 C   0  0  0  0  0  2  0  0  0  0  0  0
  186.9570  177.1300  145.0430 C   0  0  2  0  0  3  0  0  0  0  0  0
  191.0960  177.5200  144.0040 C   0  0  0  0  0  3  0  0  0  0  0  0
  190.1080  177.0170  143.1520 C   0  0  0  0  0  3  0  0  0  0  0  0
  189.2610  177.5560  145.0440 C   0  0  0  0  0  0  0  0  0  0  0  0
  186.8460  177.8780  143.0210 C   0  0  0  0  0  2  0  0  0  0  0  0
  187.5880  176.7310  143.6870 C   0  0  1  0  0  3  0  0  0  0  0  0
  188.9790  177.0680  143.8670 N   0  0  0  0  0  0  0  0  0  0  0  0
  1  5  1  0  0  0  0
  3 28  1  0  0  0  0
  4  6  1  0  0  0  0
  5  7  2  0  0  0  0
  6  9  2  0  0  0  0
  7  3  1  0  0  0  0
  8  4  1  1  0  0  0
  8  1  1  0  0  0  0
  9  7  1  0  0  0  0
  9  2  1  0  0  0  0
 11 10  1  0  0  0  0
 13 12  1  0  0  0  0
 13 16  1  0  0  0  0
 14 16  1  1  0  0  0
 14  8  1  0  0  0  0
 14 10  1  0  0  0  0
 15 19  1  1  0  0  0
 15 12  1  0  0  0  0
 15 11  1  0  0  0  0
 17 19  2  0  0  0  0
 19 18  1  0  0  0  0
 20 24  1  0  0  0  0
 21 26  1  1  0  0  0
 21 24  1  0  0  0  0
 22 21  1  0  0  0  0
 23 18  1  1  0  0  0
 23 20  1  0  0  0  0
 25 22  1  0  0  0  0
 25 23  1  0  0  0  0
 29 28  1  0  0  0  0
 29 27  1  0  0  0  0
 30 29  2  0  0  0  0
 32 27  1  6  0  0  0
 32 34  1  0  0  0  0
 34 33  1  1  0  0  0
 35 31  1  0  0  0  0
 36 40  1  0  0  0  0
 36 35  2  0  0  0  0
 37 31  2  0  0  0  0
 37 33  1  0  0  0  0
 38 32  1  0  0  0  0
 39 38  1  6  0  0  0
 39 40  1  0  0  0  0
 39 34  1  0  0  0  0
 40 37  1  0  0  0  0
M  END
>  <MODEL>
4

>  <REMARK>
 VINA RESULT:      -9.5      2.485      7.745
  Name = 
  5 active torsions:
  status: ('A' for Active; 'I' for Inactive)
    1  A    between atoms: N_3  and  C_8
    2  A    between atoms: N_7  and  N_10
    3  A    between atoms: C_24  and  N_31
    4  A    between atoms: C_27  and  C_34
    5  A    between atoms: C_28  and  C_33
                            x       y       z     vdW  Elec       q    Type
                         _______ _______ _______ _____ _____    ______ ____

>  <TORSDO>
F 5

$$$$
=
 OpenBabel11042413213D

 40 45  0  0  1  0  0  0  0  0999 V2000
  183.9760  179.3790  139.7290 C   0  0  0  0  0  2  0  0  0  0  0  0
  182.7060  177.3010  136.4640 O   0  0  0  0  0  1  0  0  0  0  0  0
  185.6130  177.4020  136.9970 N   0  0  0  0  0  2  0  0  0  0  0  0
  182.9730  177.0290  140.1940 C   0  0  0  0  0  2  0  0  0  0  0  0
  184.9430  178.7130  138.8560 N   0  0  0  0  0  0  0  0  0  0  0  0
  182.4580  177.0490  138.7850 C   0  0  0  0  0  3  0  0  0  0  0  0
  184.6230  177.8490  137.9320 C   0  0  0  0  0  0  0  0  0  0  0  0
  183.3130  178.4270  140.7330 C   0  0  1  0  0  3  0  0  0  0  0  0
  183.2260  177.3960  137.7490 C   0  0  0  0  0  0  0  0  0  0  0  0
  185.4460  179.0560  141.8790 C   0  0  0  0  0  2  0  0  0  0  0  0
  186.5480  178.3710  142.6930 C   0  0  0  0  0  2  0  0  0  0  0  0
  185.2600  178.9890  144.8140 C   0  0  0  0  0  2  0  0  0  0  0  0
  183.8000  178.6270  144.5670 C   0  0  0  0  0  2  0  0  0  0  0  0
  184.0860  178.3930  142.0530 C   0  0  1  0  0  3  0  0  0  0  0  0
  186.1560  177.9700  144.1200 C   0  0  2  0  0  3  0  0  0  0  0  0
  183.3190  179.0740  143.1890 C   0  0  0  0  0  2  0  0  0  0  0  0
  187.2940  177.0430  146.0060 O   0  0  0  0  0  0  0  0  0  0  0  0
  188.6420  178.1870  144.4710 N   0  0  0  0  0  2  0  0  0  0  0  0
  187.3770  177.6990  144.9320 C   0  0  0  0  0  0  0  0  0  0  0  0
  189.7060  178.1220  146.7050 C   0  0  0  0  0  2  0  0  0  0  0  0
  191.1390  176.0680  147.1110 C   0  0  2  0  0  3  0  0  0  0  0  0
  191.7250  176.3790  145.7260 C   0  0  0  0  0  2  0  0  0  0  0  0
  189.9060  178.0230  145.1840 C   0  0  1  0  0  3  0  0  0  0  0  0
  189.7940  176.7570  147.3870 C   0  0  0  0  0  2  0  0  0  0  0  0
  190.6360  176.7530  144.7260 C   0  0  0  0  0  2  0  0  0  0  0  0
  192.0620  176.4230  148.0940 O   0  0  0  0  0  1  0  0  0  0  0  0
  189.2190  176.8580  137.9240 N   0  0  0  0  0  2  0  0  0  0  0  0
  186.9950  177.6030  137.1650 N   0  0  0  0  0  2  0  0  0  0  0  0
  187.9240  176.5440  137.4110 C   0  0  0  0  0  0  0  0  0  0  0  0
  187.6140  175.3500  137.1520 O   0  0  0  0  0  0  0  0  0  0  0  0
  193.6700  173.1590  137.1960 N   0  0  0  0  0  0  0  0  0  0  0  0
  190.2550  175.8520  138.0960 C   0  0  1  0  0  3  0  0  0  0  0  0
  191.4450  174.2540  136.5250 C   0  0  0  0  0  2  0  0  0  0  0  0
  191.0760  175.7400  136.8190 C   0  0  2  0  0  3  0  0  0  0  0  0
  194.7180  173.7320  137.8540 C   0  0  0  0  0  3  0  0  0  0  0  0
  194.4410  175.0720  138.1440 C   0  0  0  0  0  3  0  0  0  0  0  0
  192.7950  174.1730  137.1090 C   0  0  0  0  0  0  0  0  0  0  0  0
  191.4430  176.4720  138.8170 C   0  0  0  0  0  2  0  0  0  0  0  0
  192.2820  176.3780  137.5520 C   0  0  1  0  0  3  0  0  0  0  0  0
  193.2170  175.2840  137.6490 N   0  0  0  0  0  0  0  0  0  0  0  0
  2  9  1  0  0  0  0
  3 28  1  0  0  0  0
  3  7  1  0  0  0  0
  4  8  1  0  0  0  0
  5  1  1  0  0  0  0
  6  4  1  0  0  0  0
  7  5  2  0  0  0  0
  8  1  1  6  0  0  0
  8 14  1  0  0  0  0
  9  7  1  0  0  0  0
  9  6  2  0  0  0  0
 10 11  1  0  0  0  0
 11 15  1  0  0  0  0
 13 12  1  0  0  0  0
 14 10  1  6  0  0  0
 14 16  1  0  0  0  0
 15 12  1  0  0  0  0
 15 19  1  1  0  0  0
 16 13  1  0  0  0  0
 18 19  1  0  0  0  0
 19 17  2  0  0  0  0
 20 24  1  0  0  0  0
 21 24  1  0  0  0  0
 21 26  1  1  0  0  0
 22 21  1  0  0  0  0
 23 18  1  6  0  0  0
 23 20  1  0  0  0  0
 25 23  1  0  0  0  0
 25 22  1  0  0  0  0
 28 29  1  0  0  0  0
 29 27  1  0  0  0  0
 30 29  2  0  0  0  0
 31 35  1  0  0  0  0
 32 27  1  6  0  0  0
 32 38  1  0  0  0  0
 33 37  1  0  0  0  0
 34 33  1  1  0  0  0
 34 39  1  0  0  0  0
 34 32  1  0  0  0  0
 35 36  2  0  0  0  0
 37 31  2  0  0  0  0
 37 40  1  0  0  0  0
 39 40  1  0  0  0  0
 39 38  1  1  0  0  0
 40 36  1  0  0  0  0
M  END
>  <MODEL>
5

>  <REMARK>
 VINA RESULT:      -9.4      2.631     10.143
  Name = 
  5 active torsions:
  status: ('A' for Active; 'I' for Inactive)
    1  A    between atoms: N_3  and  C_8
    2  A    between atoms: N_7  and  N_10
    3  A    between atoms: C_24  and  N_31
    4  A    between atoms: C_27  and  C_34
    5  A    between atoms: C_28  and  C_33
                            x       y       z     vdW  Elec       q    Type
                         _______ _______ _______ _____ _____    ______ ____

>  <TORSDO>
F 5

$$$$
=
 OpenBabel11042413213D

 40 45  0  0  1  0  0  0  0  0999 V2000
  186.4250  176.7290  145.9900 C   0  0  0  0  0  2  0  0  0  0  0  0
  188.9590  178.1200  148.8600 O   0  0  0  0  0  1  0  0  0  0  0  0
  190.0760  177.5570  146.1810 N   0  0  0  0  0  2  0  0  0  0  0  0
  186.2970  179.2760  146.4850 C   0  0  0  0  0  2  0  0  0  0  0  0
  187.8420  176.9330  145.6880 N   0  0  0  0  0  0  0  0  0  0  0  0
  187.1070  179.0040  147.7180 C   0  0  0  0  0  3  0  0  0  0  0  0
  188.6710  177.5800  146.4610 C   0  0  0  0  0  0  0  0  0  0  0  0
  185.6020  178.0230  145.9300 C   0  0  1  0  0  3  0  0  0  0  0  0
  188.2100  178.2510  147.6970 C   0  0  0  0  0  0  0  0  0  0  0  0
  183.9820  179.3600  144.5700 C   0  0  0  0  0  2  0  0  0  0  0  0
  182.7900  179.1070  143.6440 C   0  0  0  0  0  2  0  0  0  0  0  0
  184.4170  179.1240  141.6710 C   0  0  0  0  0  2  0  0  0  0  0  0
  185.6030  178.2530  142.0670 C   0  0  0  0  0  2  0  0  0  0  0  0
  185.0050  178.2320  144.5370 C   0  0  1  0  0  3  0  0  0  0  0  0
  183.1410  178.5380  142.2630 C   0  0  2  0  0  3  0  0  0  0  0  0
  186.0790  178.5370  143.4900 C   0  0  0  0  0  2  0  0  0  0  0  0
  180.8490  178.2850  141.6380 O   0  0  0  0  0  0  0  0  0  0  0  0
  182.2090  179.3790  140.0770 N   0  0  0  0  0  2  0  0  0  0  0  0
  181.9930  178.7130  141.3270 C   0  0  0  0  0  0  0  0  0  0  0  0
  180.6300  181.0180  139.1050 C   0  0  0  0  0  2  0  0  0  0  0  0
  180.8050  181.2570  136.5850 C   0  0  2  0  0  3  0  0  0  0  0  0
  180.7900  179.7220  136.5820 C   0  0  0  0  0  2  0  0  0  0  0  0
  181.1840  179.5850  139.0580 C   0  0  1  0  0  3  0  0  0  0  0  0
  181.1490  181.8740  137.9490 C   0  0  0  0  0  2  0  0  0  0  0  0
  181.6860  179.1490  137.6750 C   0  0  0  0  0  2  0  0  0  0  0  0
  179.5680  181.7320  136.1500 O   0  0  0  0  0  1  0  0  0  0  0  0
  190.6280  177.0250  142.4970 N   0  0  0  0  0  2  0  0  0  0  0  0
  190.6240  177.1220  144.9600 N   0  0  0  0  0  2  0  0  0  0  0  0
  190.3340  177.7340  143.7010 C   0  0  0  0  0  0  0  0  0  0  0  0
  189.8500  178.8970  143.6530 O   0  0  0  0  0  0  0  0  0  0  0  0
  189.8050  178.0010  136.8060 N   0  0  0  0  0  0  0  0  0  0  0  0
  190.4660  177.6220  141.1800 C   0  0  1  0  0  3  0  0  0  0  0  0
  190.8920  176.8200  138.8120 C   0  0  0  0  0  2  0  0  0  0  0  0
  190.1630  176.5340  140.1590 C   0  0  2  0  0  3  0  0  0  0  0  0
  188.5350  178.4850  136.7090 C   0  0  0  0  0  3  0  0  0  0  0  0
  187.8310  178.2540  137.8950 C   0  0  0  0  0  3  0  0  0  0  0  0
  189.8280  177.4920  138.0470 C   0  0  0  0  0  0  0  0  0  0  0  0
  189.0480  178.1580  141.0440 C   0  0  0  0  0  2  0  0  0  0  0  0
  188.7190  177.0760  140.0270 C   0  0  1  0  0  3  0  0  0  0  0  0
  188.7020  177.6270  138.6940 N   0  0  0  0  0  0  0  0  0  0  0  0
  3  7  1  0  0  0  0
  4  6  1  0  0  0  0
  5  1  1  0  0  0  0
  5  7  2  0  0  0  0
  7  9  1  0  0  0  0
  8  1  1  6  0  0  0
  8  4  1  0  0  0  0
  9  6  2  0  0  0  0
  9  2  1  0  0  0  0
 11 10  1  0  0  0  0
 12 13  1  0  0  0  0
 12 15  1  0  0  0  0
 13 16  1  0  0  0  0
 14 16  1  6  0  0  0
 14 10  1  0  0  0  0
 14  8  1  0  0  0  0
 15 19  1  6  0  0  0
 15 11  1  0  0  0  0
 18 19  1  0  0  0  0
 19 17  2  0  0  0  0
 21 26  1  1  0  0  0
 21 24  1  0  0  0  0
 22 21  1  0  0  0  0
 22 25  1  0  0  0  0
 23 20  1  0  0  0  0
 23 18  1  1  0  0  0
 24 20  1  0  0  0  0
 25 23  1  0  0  0  0
 27 29  1  0  0  0  0
 28  3  1  0  0  0  0
 29 28  1  0  0  0  0
 30 29  2  0  0  0  0
 31 37  2  0  0  0  0
 32 27  1  1  0  0  0
 34 33  1  6  0  0  0
 34 32  1  0  0  0  0
 35 31  1  0  0  0  0
 35 36  2  0  0  0  0
 36 40  1  0  0  0  0
 37 40  1  0  0  0  0
 37 33  1  0  0  0  0
 38 32  1  0  0  0  0
 39 34  1  0  0  0  0
 39 38  1  1  0  0  0
 40 39  1  0  0  0  0
M  END
>  <MODEL>
6

>  <REMARK>
 VINA RESULT:      -8.8      2.637      6.157
  Name = 
  5 active torsions:
  status: ('A' for Active; 'I' for Inactive)
    1  A    between atoms: N_3  and  C_8
    2  A    between atoms: N_7  and  N_10
    3  A    between atoms: C_24  and  N_31
    4  A    between atoms: C_27  and  C_34
    5  A    between atoms: C_28  and  C_33
                            x       y       z     vdW  Elec       q    Type
                         _______ _______ _______ _____ _____    ______ ____

>  <TORSDO>
F 5

$$$$
=
 OpenBabel11042413213D

 40 45  0  0  1  0  0  0  0  0999 V2000
  181.5180  179.0030  139.1680 C   0  0  0  0  0  2  0  0  0  0  0  0
  180.0920  176.4750  136.3090 O   0  0  0  0  0  1  0  0  0  0  0  0
  183.0000  177.0100  136.3600 N   0  0  0  0  0  2  0  0  0  0  0  0
  180.9480  176.5950  139.9570 C   0  0  0  0  0  2  0  0  0  0  0  0
  182.4310  178.3910  138.2010 N   0  0  0  0  0  0  0  0  0  0  0  0
  180.2320  176.4130  138.6520 C   0  0  0  0  0  3  0  0  0  0  0  0
  182.1060  177.4080  137.4070 C   0  0  0  0  0  0  0  0  0  0  0  0
  181.1570  178.0710  140.3320 C   0  0  1  0  0  3  0  0  0  0  0  0
  180.7780  176.7600  137.4840 C   0  0  0  0  0  0  0  0  0  0  0  0
  183.4130  178.9010  141.0280 C   0  0  0  0  0  2  0  0  0  0  0  0
  184.6430  178.3710  141.7690 C   0  0  0  0  0  2  0  0  0  0  0  0
  183.6590  179.3230  143.9290 C   0  0  0  0  0  2  0  0  0  0  0  0
  182.1910  178.9130  143.9650 C   0  0  0  0  0  2  0  0  0  0  0  0
  182.1150  178.2640  141.5100 C   0  0  1  0  0  3  0  0  0  0  0  0
  184.4770  178.2110  143.2860 C   0  0  2  0  0  3  0  0  0  0  0  0
  181.4990  179.1190  142.6200 C   0  0  0  0  0  2  0  0  0  0  0  0
  185.9830  178.5020  145.1190 O   0  0  0  0  0  0  0  0  0  0  0  0
  186.8930  177.4940  143.2110 N   0  0  0  0  0  2  0  0  0  0  0  0
  185.8120  178.0900  143.9400 C   0  0  0  0  0  0  0  0  0  0  0  0
  188.9150  176.0660  143.1790 C   0  0  0  0  0  2  0  0  0  0  0  0
  191.0520  177.3090  142.6110 C   0  0  2  0  0  3  0  0  0  0  0  0
  190.5610  178.3350  143.6430 C   0  0  0  0  0  2  0  0  0  0  0  0
  188.2540  177.3460  143.7180 C   0  0  1  0  0  3  0  0  0  0  0  0
  189.9530  176.3660  142.0990 C   0  0  0  0  0  2  0  0  0  0  0  0
  189.0720  178.6230  143.4840 C   0  0  0  0  0  2  0  0  0  0  0  0
  192.0950  176.5650  143.1610 O   0  0  0  0  0  1  0  0  0  0  0  0
  186.6810  177.3150  137.0770 N   0  0  0  0  0  2  0  0  0  0  0  0
  184.3480  177.4080  136.2880 N   0  0  0  0  0  2  0  0  0  0  0  0
  185.4210  176.6720  136.8800 C   0  0  0  0  0  0  0  0  0  0  0  0
  185.2670  175.4630  137.2000 O   0  0  0  0  0  0  0  0  0  0  0  0
  191.5530  174.1530  137.6110 N   0  0  0  0  0  0  0  0  0  0  0  0
  187.8510  176.6040  137.5690 C   0  0  1  0  0  3  0  0  0  0  0  0
  189.1720  174.5970  136.7560 C   0  0  0  0  0  2  0  0  0  0  0  0
  188.6200  176.0100  136.3970 C   0  0  2  0  0  3  0  0  0  0  0  0
  192.5430  175.0620  137.8360 C   0  0  0  0  0  3  0  0  0  0  0  0
  192.1020  176.3530  137.5280 C   0  0  0  0  0  3  0  0  0  0  0  0
  190.5460  174.9240  137.1740 C   0  0  0  0  0  0  0  0  0  0  0  0
  188.9770  177.5990  137.8150 C   0  0  0  0  0  2  0  0  0  0  0  0
  189.7600  177.0270  136.6440 C   0  0  1  0  0  3  0  0  0  0  0  0
  190.8380  176.1950  137.1190 N   0  0  0  0  0  0  0  0  0  0  0  0
  2  9  1  0  0  0  0
  3  7  1  0  0  0  0
  4  8  1  0  0  0  0
  5  1  1  0  0  0  0
  6  4  1  0  0  0  0
  7  9  1  0  0  0  0
  7  5  2  0  0  0  0
  8  1  1  6  0  0  0
  8 14  1  0  0  0  0
  9  6  2  0  0  0  0
 10 11  1  0  0  0  0
 11 15  1  0  0  0  0
 12 13  1  0  0  0  0
 14 10  1  6  0  0  0
 14 16  1  0  0  0  0
 15 12  1  0  0  0  0
 15 19  1  1  0  0  0
 16 13  1  0  0  0  0
 18 19  1  0  0  0  0
 19 17  2  0  0  0  0
 20 23  1  0  0  0  0
 21 26  1  1  0  0  0
 21 22  1  0  0  0  0
 23 18  1  6  0  0  0
 24 21  1  0  0  0  0
 24 20  1  0  0  0  0
 25 22  1  0  0  0  0
 25 23  1  0  0  0  0
 28  3  1  0  0  0  0
 28 29  1  0  0  0  0
 29 27  1  0  0  0  0
 29 30  2  0  0  0  0
 31 35  1  0  0  0  0
 32 27  1  6  0  0  0
 32 38  1  0  0  0  0
 33 37  1  0  0  0  0
 34 39  1  0  0  0  0
 34 33  1  1  0  0  0
 34 32  1  0  0  0  0
 36 35  2  0  0  0  0
 37 31  2  0  0  0  0
 39 40  1  0  0  0  0
 39 38  1  1  0  0  0
 40 37  1  0  0  0  0
 40 36  1  0  0  0  0
M  END
>  <MODEL>
7

>  <REMARK>
 VINA RESULT:      -8.8      2.535      9.726
  Name = 
  5 active torsions:
  status: ('A' for Active; 'I' for Inactive)
    1  A    between atoms: N_3  and  C_8
    2  A    between atoms: N_7  and  N_10
    3  A    between atoms: C_24  and  N_31
    4  A    between atoms: C_27  and  C_34
    5  A    between atoms: C_28  and  C_33
                            x       y       z     vdW  Elec       q    Type
                         _______ _______ _______ _____ _____    ______ ____

>  <TORSDO>
F 5

$$$$
=
 OpenBabel11042413213D

 40 45  0  0  1  0  0  0  0  0999 V2000
  182.6470  176.9870  139.5660 C   0  0  0  0  0  2  0  0  0  0  0  0
  179.9090  179.7100  140.8620 O   0  0  0  0  0  1  0  0  0  0  0  0
  182.1650  179.0530  142.6570 N   0  0  0  0  0  2  0  0  0  0  0  0
  182.8520  179.3750  138.5640 C   0  0  0  0  0  2  0  0  0  0  0  0
  182.7890  177.6080  140.8840 N   0  0  0  0  0  0  0  0  0  0  0  0
  181.4900  179.6510  139.1270 C   0  0  0  0  0  3  0  0  0  0  0  0
  182.1010  178.6410  141.2850 C   0  0  0  0  0  0  0  0  0  0  0  0
  183.1560  177.8750  138.4220 C   0  0  1  0  0  3  0  0  0  0  0  0
  181.1590  179.3400  140.3830 C   0  0  0  0  0  0  0  0  0  0  0  0
  184.8390  177.5270  136.6040 C   0  0  0  0  0  2  0  0  0  0  0  0
  185.8690  176.4720  136.1910 C   0  0  0  0  0  2  0  0  0  0  0  0
  187.6210  177.7720  137.5250 C   0  0  0  0  0  2  0  0  0  0  0  0
  186.9920  178.1100  138.8710 C   0  0  0  0  0  2  0  0  0  0  0  0
  184.6250  177.5840  138.1110 C   0  0  1  0  0  3  0  0  0  0  0  0
  187.1270  176.4060  137.0670 C   0  0  2  0  0  3  0  0  0  0  0  0
  185.5620  178.6260  138.7280 C   0  0  0  0  0  2  0  0  0  0  0  0
  187.9280  174.8940  135.3980 O   0  0  0  0  0  0  0  0  0  0  0  0
  189.5650  175.8330  136.7840 N   0  0  0  0  0  2  0  0  0  0  0  0
  188.2080  175.6610  136.3590 C   0  0  0  0  0  0  0  0  0  0  0  0
  191.9730  176.0180  136.2410 C   0  0  0  0  0  2  0  0  0  0  0  0
  193.3830  174.0980  137.1170 C   0  0  2  0  0  3  0  0  0  0  0  0
  192.2820  173.2070  136.5220 C   0  0  0  0  0  2  0  0  0  0  0  0
  190.7120  175.1400  136.2030 C   0  0  1  0  0  3  0  0  0  0  0  0
  192.9590  175.5610  137.3170 C   0  0  0  0  0  2  0  0  0  0  0  0
  190.8910  173.7510  136.8300 C   0  0  0  0  0  2  0  0  0  0  0  0
  194.5130  174.0400  136.3040 O   0  0  0  0  0  1  0  0  0  0  0  0
  185.4570  177.9690  144.1210 N   0  0  0  0  0  2  0  0  0  0  0  0
  183.1410  178.6030  143.5650 N   0  0  0  0  0  2  0  0  0  0  0  0
  184.5470  178.7580  143.3540 C   0  0  0  0  0  0  0  0  0  0  0  0
  184.9790  179.6010  142.5230 O   0  0  0  0  0  0  0  0  0  0  0  0
  191.2380  177.5460  144.7740 N   0  0  0  0  0  0  0  0  0  0  0  0
  186.8990  178.1470  144.0440 C   0  0  1  0  0  3  0  0  0  0  0  0
  188.8220  177.6930  145.6360 C   0  0  0  0  0  2  0  0  0  0  0  0
  187.5910  177.0900  144.8940 C   0  0  2  0  0  3  0  0  0  0  0  0
  191.6820  176.9570  143.6280 C   0  0  0  0  0  3  0  0  0  0  0  0
  190.6140  176.3960  142.9200 C   0  0  0  0  0  3  0  0  0  0  0  0
  189.9160  177.3210  144.7220 C   0  0  0  0  0  0  0  0  0  0  0  0
  187.4210  177.4830  142.7780 C   0  0  0  0  0  2  0  0  0  0  0  0
  188.1140  176.4120  143.6050 C   0  0  1  0  0  3  0  0  0  0  0  0
  189.5340  176.6610  143.6630 N   0  0  0  0  0  0  0  0  0  0  0  0
  1  5  1  0  0  0  0
  3 28  1  0  0  0  0
  4  6  1  0  0  0  0
  5  7  2  0  0  0  0
  6  9  2  0  0  0  0
  7  3  1  0  0  0  0
  8  4  1  1  0  0  0
  8  1  1  0  0  0  0
  9  2  1  0  0  0  0
  9  7  1  0  0  0  0
 11 10  1  0  0  0  0
 11 15  1  0  0  0  0
 12 13  1  0  0  0  0
 14 10  1  6  0  0  0
 14  8  1  0  0  0  0
 14 16  1  0  0  0  0
 15 19  1  6  0  0  0
 15 12  1  0  0  0  0
 16 13  1  0  0  0  0
 17 19  2  0  0  0  0
 19 18  1  0  0  0  0
 20 24  1  0  0  0  0
 21 26  1  6  0  0  0
 21 24  1  0  0  0  0
 22 25  1  0  0  0  0
 22 21  1  0  0  0  0
 23 20  1  0  0  0  0
 23 18  1  1  0  0  0
 23 25  1  0  0  0  0
 29 28  1  0  0  0  0
 29 27  1  0  0  0  0
 30 29  2  0  0  0  0
 32 27  1  6  0  0  0
 32 34  1  0  0  0  0
 34 33  1  1  0  0  0
 35 31  1  0  0  0  0
 36 35  2  0  0  0  0
 36 40  1  0  0  0  0
 37 31  2  0  0  0  0
 37 33  1  0  0  0  0
 38 32  1  0  0  0  0
 39 38  1  6  0  0  0
 39 40  1  0  0  0  0
 39 34  1  0  0  0  0
 40 37  1  0  0  0  0
M  END
>  <MODEL>
8

>  <REMARK>
 VINA RESULT:      -8.8      3.008      7.640
  Name = 
  5 active torsions:
  status: ('A' for Active; 'I' for Inactive)
    1  A    between atoms: N_3  and  C_8
    2  A    between atoms: N_7  and  N_10
    3  A    between atoms: C_24  and  N_31
    4  A    between atoms: C_27  and  C_34
    5  A    between atoms: C_28  and  C_33
                            x       y       z     vdW  Elec       q    Type
                         _______ _______ _______ _____ _____    ______ ____

>  <TORSDO>
F 5

$$$$
=
 OpenBabel11042413213D

 40 45  0  0  1  0  0  0  0  0999 V2000
  186.6850  176.9940  146.6000 C   0  0  0  0  0  2  0  0  0  0  0  0
  189.6010  178.2110  149.1710 O   0  0  0  0  0  1  0  0  0  0  0  0
  190.3910  177.5190  146.4070 N   0  0  0  0  0  2  0  0  0  0  0  0
  186.8150  179.5490  147.0480 C   0  0  0  0  0  2  0  0  0  0  0  0
  188.0760  177.0760  146.1530 N   0  0  0  0  0  0  0  0  0  0  0  0
  187.7210  179.2290  148.2000 C   0  0  0  0  0  3  0  0  0  0  0  0
  189.0280  177.6630  146.8250 C   0  0  0  0  0  0  0  0  0  0  0  0
  185.9670  178.3510  146.5940 C   0  0  1  0  0  3  0  0  0  0  0  0
  188.7510  178.3870  148.0860 C   0  0  0  0  0  0  0  0  0  0  0  0
  185.6440  177.5130  144.2590 C   0  0  0  0  0  2  0  0  0  0  0  0
  185.7570  178.0490  142.8290 C   0  0  0  0  0  2  0  0  0  0  0  0
  183.2710  178.6360  142.9330 C   0  0  0  0  0  2  0  0  0  0  0  0
  183.0350  179.3330  144.2670 C   0  0  0  0  0  2  0  0  0  0  0  0
  185.2510  178.5890  145.2630 C   0  0  1  0  0  3  0  0  0  0  0  0
  184.6470  179.0160  142.4010 C   0  0  2  0  0  3  0  0  0  0  0  0
  183.7300  178.6180  145.4240 C   0  0  0  0  0  2  0  0  0  0  0  0
  185.6900  179.3690  140.2800 O   0  0  0  0  0  0  0  0  0  0  0  0
  183.3750  179.0160  140.2250 N   0  0  0  0  0  2  0  0  0  0  0  0
  184.6230  179.1490  140.9160 C   0  0  0  0  0  0  0  0  0  0  0  0
  183.8760  177.9980  138.0240 C   0  0  0  0  0  2  0  0  0  0  0  0
  181.8410  177.6810  136.5420 C   0  0  2  0  0  3  0  0  0  0  0  0
  181.5110  179.1310  136.9290 C   0  0  0  0  0  2  0  0  0  0  0  0
  183.2070  179.1580  138.7810 C   0  0  1  0  0  3  0  0  0  0  0  0
  182.8530  177.0030  137.4770 C   0  0  0  0  0  2  0  0  0  0  0  0
  181.7330  179.3800  138.4170 C   0  0  0  0  0  2  0  0  0  0  0  0
  182.3130  177.6500  135.2310 O   0  0  0  0  0  1  0  0  0  0  0  0
  190.5860  176.9620  142.6900 N   0  0  0  0  0  2  0  0  0  0  0  0
  190.7750  177.0230  145.1470 N   0  0  0  0  0  2  0  0  0  0  0  0
  190.4920  177.6910  143.9150 C   0  0  0  0  0  0  0  0  0  0  0  0
  190.1910  178.9150  143.9060 O   0  0  0  0  0  0  0  0  0  0  0  0
  189.8060  178.0950  137.0220 N   0  0  0  0  0  0  0  0  0  0  0  0
  190.4220  177.5960  141.3910 C   0  0  1  0  0  3  0  0  0  0  0  0
  190.9020  176.8840  139.0040 C   0  0  0  0  0  2  0  0  0  0  0  0
  190.1650  176.5330  140.3320 C   0  0  2  0  0  3  0  0  0  0  0  0
  188.5220  178.5440  136.9240 C   0  0  0  0  0  3  0  0  0  0  0  0
  187.8110  178.2540  138.0920 C   0  0  0  0  0  3  0  0  0  0  0  0
  189.8280  177.5480  138.2470 C   0  0  0  0  0  0  0  0  0  0  0  0
  188.9900  178.0940  141.2520 C   0  0  0  0  0  2  0  0  0  0  0  0
  188.7070  177.0360  140.1970 C   0  0  1  0  0  3  0  0  0  0  0  0
  188.6900  177.6280  138.8820 N   0  0  0  0  0  0  0  0  0  0  0  0
  3  7  1  0  0  0  0
  4  6  1  0  0  0  0
  5  1  1  0  0  0  0
  5  7  2  0  0  0  0
  7  9  1  0  0  0  0
  8  1  1  6  0  0  0
  8  4  1  0  0  0  0
  9  6  2  0  0  0  0
  9  2  1  0  0  0  0
 11 10  1  0  0  0  0
 12 13  1  0  0  0  0
 13 16  1  0  0  0  0
 14 10  1  6  0  0  0
 14 16  1  0  0  0  0
 14  8  1  0  0  0  0
 15 19  1  6  0  0  0
 15 11  1  0  0  0  0
 15 12  1  0  0  0  0
 17 19  2  0  0  0  0
 18 19  1  0  0  0  0
 20 23  1  0  0  0  0
 21 26  1  6  0  0  0
 21 22  1  0  0  0  0
 21 24  1  0  0  0  0
 22 25  1  0  0  0  0
 23 18  1  1  0  0  0
 24 20  1  0  0  0  0
 25 23  1  0  0  0  0
 27 29  1  0  0  0  0
 28  3  1  0  0  0  0
 29 28  1  0  0  0  0
 30 29  2  0  0  0  0
 31 37  2  0  0  0  0
 32 27  1  1  0  0  0
 34 33  1  6  0  0  0
 34 32  1  0  0  0  0
 35 31  1  0  0  0  0
 35 36  2  0  0  0  0
 36 40  1  0  0  0  0
 37 40  1  0  0  0  0
 37 33  1  0  0  0  0
 38 32  1  0  0  0  0
 39 34  1  0  0  0  0
 39 38  1  1  0  0  0
 40 39  1  0  0  0  0
M  END
>  <MODEL>
9

>  <REMARK>
 VINA RESULT:      -8.5      1.914      5.651
  Name = 
  5 active torsions:
  status: ('A' for Active; 'I' for Inactive)
    1  A    between atoms: N_3  and  C_8
    2  A    between atoms: N_7  and  N_10
    3  A    between atoms: C_24  and  N_31
    4  A    between atoms: C_27  and  C_34
    5  A    between atoms: C_28  and  C_33
                            x       y       z     vdW  Elec       q    Type
                         _______ _______ _______ _____ _____    ______ ____

>  <TORSDO>
F 5

$$$$
