=
 OpenBabel11042410353D

 38 40  0  0  1  0  0  0  0  0999 V2000
  187.5150  177.3180  146.0870 N   0  0  0  0  0  0  0  0  0  0  0  0
  187.8530  177.4520  147.3860 C   0  0  0  0  0  3  0  0  0  0  0  0
  189.6540  177.3610  146.1630 C   0  0  0  0  0  0  0  0  0  0  0  0
  188.5990  177.2820  145.3330 N   0  0  0  0  0  0  0  0  0  0  0  0
  189.2360  177.4800  147.4760 C   0  0  0  0  0  3  0  0  0  0  0  0
  184.8400  178.4020  143.6980 C   0  0  1  0  0  3  0  0  0  0  0  0
  185.3370  179.5850  145.8950 C   0  0  0  0  0  2  0  0  0  0  0  0
  185.2750  178.2050  146.3770 N   0  0  0  0  0  2  0  0  0  0  0  0
  186.1460  177.3300  145.5700 C   0  0  1  0  0  3  0  0  0  0  0  0
  186.1260  177.6670  144.0650 C   0  0  0  0  0  2  0  0  0  0  0  0
  184.7210  179.7030  144.4960 C   0  0  0  0  0  2  0  0  0  0  0  0
  184.7990  178.7050  142.2120 C   0  0  0  0  0  2  0  0  0  0  0  0
  183.4030  178.4610  141.6640 C   0  0  0  0  0  2  0  0  0  0  0  0
  183.4530  177.6020  140.4080 C   0  0  0  0  0  2  0  0  0  0  0  0
  185.8440  178.2310  138.0540 C   0  0  0  0  0  3  0  0  0  0  0  0
  182.3150  177.0880  137.4890 C   0  0  0  0  0  1  0  0  0  0  0  0
  183.6300  177.6330  137.9480 C   0  0  0  0  0  0  0  0  0  0  0  0
  183.7900  178.4420  139.1790 C   0  0  2  0  0  3  0  0  0  0  0  0
  184.7820  177.5060  137.3190 C   0  0  0  0  0  0  0  0  0  0  0  0
  185.2000  178.8430  139.2200 N   0  0  0  0  0  0  0  0  0  0  0  0
  184.7250  177.2870  134.9600 O   0  0  0  0  0  0  0  0  0  0  0  0
  185.0270  176.7640  136.0670 C   0  0  0  0  0  0  0  0  0  0  0  0
  185.5920  175.4960  136.0840 O   0  0  0  0  0  1  0  0  0  0  0  0
  191.0820  177.4170  145.7140 C   0  0  1  0  0  3  0  0  0  0  0  0
  192.3870  176.2700  147.4020 O   0  0  0  0  0  1  0  0  0  0  0  0
  191.8920  176.1760  146.0990 C   0  0  0  0  0  2  0  0  0  0  0  0
  192.1050  178.9250  144.1410 O   0  0  0  0  0  1  0  0  0  0  0  0
  191.2230  177.8490  144.2500 C   0  0  1  0  0  3  0  0  0  0  0  0
  191.6540  176.7170  143.3260 C   0  0  0  0  0  2  0  0  0  0  0  0
  190.5600  176.2650  142.5830 O   0  0  0  0  0  0  0  0  0  0  0  0
  190.2730  177.3050  141.6910 C   0  0  2  0  0  3  0  0  0  0  0  0
  188.3580  178.7270  141.6570 O   0  0  0  0  0  1  0  0  0  0  0  0
  188.7700  177.4070  141.4890 C   0  0  0  0  0  2  0  0  0  0  0  0
  190.9590  177.0310  140.3580 C   0  0  0  0  0  2  0  0  0  0  0  0
  190.1340  177.5440  139.1830 C   0  0  0  0  0  2  0  0  0  0  0  0
  190.0620  176.5100  138.0720 C   0  0  2  0  0  3  0  0  0  0  0  0
  188.7290  176.1800  137.8210 O   0  0  0  0  0  1  0  0  0  0  0  0
  190.7820  175.3160  138.4750 N   0  0  0  0  0  1  0  0  0  0  0  0
  1  2  1  0  0  0  0
  2  5  2  0  0  0  0
  3  5  1  0  0  0  0
  4  1  1  0  0  0  0
  4  3  2  0  0  0  0
  6 12  1  6  0  0  0
  6 10  1  0  0  0  0
  6 11  1  0  0  0  0
  7  8  1  0  0  0  0
  9 10  1  6  0  0  0
  9  1  1  0  0  0  0
  9  8  1  0  0  0  0
 11  7  1  0  0  0  0
 13 12  1  0  0  0  0
 14 13  1  0  0  0  0
 15 20  2  0  0  0  0
 16 17  1  0  0  0  0
 17 18  1  0  0  0  0
 18 20  1  0  0  0  0
 18 14  1  1  0  0  0
 19 17  2  0  0  0  0
 19 15  1  0  0  0  0
 21 22  2  0  0  0  0
 22 23  1  0  0  0  0
 22 19  1  0  0  0  0
 24 26  1  6  0  0  0
 24  3  1  0  0  0  0
 26 25  1  0  0  0  0
 28 27  1  1  0  0  0
 28 24  1  0  0  0  0
 29 28  1  0  0  0  0
 30 29  1  0  0  0  0
 31 34  1  6  0  0  0
 31 30  1  0  0  0  0
 33 32  1  0  0  0  0
 33 31  1  0  0  0  0
 35 34  1  0  0  0  0
 36 37  1  1  0  0  0
 36 38  1  0  0  0  0
 36 35  1  0  0  0  0
M  END
>  <MODEL>
1

>  <REMARK>
 VINA RESULT:      -7.4      0.000      0.000
  Name = 
  16 active torsions:
  status: ('A' for Active; 'I' for Inactive)
    1  A    between atoms: C_1  and  C_35
    2  A    between atoms: N_3  and  C_22
    3  A    between atoms: C_8  and  C_29
    4  A    between atoms: C_8  and  C_31
    5  A    between atoms: C_8  and  O_37
    6  A    between atoms: C_10  and  C_21
    7  A    between atoms: C_10  and  C_35
    8  A    between atoms: C_12  and  C_21
    9  A    between atoms: C_13  and  C_32
   10  A    between atoms: C_14  and  C_16
   11  A    between atoms: C_15  and  C_20
   12  A    between atoms: C_17  and  C_30
   13  A    between atoms: C_17  and  O_37
   14  A    between atoms: C_20  and  C_30
   15  A    between atoms: C_20  and  C_38
   16  A    between atoms: C_31  and  C_32
                            x       y       z     vdW  Elec       q    Type
                         _______ _______ _______ _____ _____    ______ ____

>  <TORSDO>
F 16

$$$$
=
 OpenBabel11042410353D

 38 40  0  0  1  0  0  0  0  0999 V2000
  190.1260  176.6050  142.4940 N   0  0  0  0  0  0  0  0  0  0  0  0
  191.3960  177.0540  142.4280 C   0  0  0  0  0  3  0  0  0  0  0  0
  190.4860  177.1300  140.4500 C   0  0  0  0  0  0  0  0  0  0  0  0
  189.5560  176.6650  141.3030 N   0  0  0  0  0  0  0  0  0  0  0  0
  191.6680  177.4020  141.1140 C   0  0  0  0  0  3  0  0  0  0  0  0
  187.4450  176.9510  145.0880 C   0  0  1  0  0  3  0  0  0  0  0  0
  189.7270  178.0640  145.2560 C   0  0  0  0  0  2  0  0  0  0  0  0
  190.1500  176.7040  144.9170 N   0  0  0  0  0  2  0  0  0  0  0  0
  189.4340  176.2170  143.7230 C   0  0  1  0  0  3  0  0  0  0  0  0
  187.9520  176.6400  143.6820 C   0  0  0  0  0  2  0  0  0  0  0  0
  188.2640  178.0820  145.7150 C   0  0  0  0  0  2  0  0  0  0  0  0
  185.9780  177.3350  145.0580 C   0  0  0  0  0  2  0  0  0  0  0  0
  185.8250  178.8400  145.2110 C   0  0  0  0  0  2  0  0  0  0  0  0
  184.8960  179.4040  144.1450 C   0  0  0  0  0  2  0  0  0  0  0  0
  182.9690  178.7210  141.4110 C   0  0  0  0  0  3  0  0  0  0  0  0
  186.7130  178.8870  141.5940 C   0  0  0  0  0  1  0  0  0  0  0  0
  185.2340  178.7780  141.7840 C   0  0  0  0  0  0  0  0  0  0  0  0
  184.6060  178.3690  143.0620 C   0  0  2  0  0  3  0  0  0  0  0  0
  184.3190  178.9840  140.8570 C   0  0  0  0  0  0  0  0  0  0  0  0
  183.1640  178.3070  142.8040 N   0  0  0  0  0  0  0  0  0  0  0  0
  185.2600  178.7000  138.7020 O   0  0  0  0  0  0  0  0  0  0  0  0
  184.5520  179.4110  139.4640 C   0  0  0  0  0  0  0  0  0  0  0  0
  183.9990  180.5860  138.9730 O   0  0  0  0  0  1  0  0  0  0  0  0
  190.2380  177.4120  138.9990 C   0  0  1  0  0  3  0  0  0  0  0  0
  190.9730  175.1470  138.5580 O   0  0  0  0  0  1  0  0  0  0  0  0
  190.9680  176.4510  138.0570 C   0  0  0  0  0  2  0  0  0  0  0  0
  188.5090  178.9390  138.3100 O   0  0  0  0  0  1  0  0  0  0  0  0
  188.7510  177.6160  138.6850 C   0  0  1  0  0  3  0  0  0  0  0  0
  188.2230  176.6620  137.6220 C   0  0  0  0  0  2  0  0  0  0  0  0
  187.4090  177.3550  136.7210 O   0  0  0  0  0  0  0  0  0  0  0  0
  186.8300  176.3640  135.9200 C   0  0  2  0  0  3  0  0  0  0  0  0
  184.5220  176.9380  136.1210 O   0  0  0  0  0  1  0  0  0  0  0  0
  185.5940  176.9200  135.2300 C   0  0  0  0  0  2  0  0  0  0  0  0
  186.4470  175.1720  136.7880 C   0  0  0  0  0  2  0  0  0  0  0  0
  186.3960  173.8800  135.9820 C   0  0  0  0  0  2  0  0  0  0  0  0
  186.3550  172.6660  136.8960 C   0  0  2  0  0  3  0  0  0  0  0  0
  185.6520  172.9760  138.0620 O   0  0  0  0  0  1  0  0  0  0  0  0
  187.7090  172.2760  137.2440 N   0  0  0  0  0  1  0  0  0  0  0  0
  2  1  1  0  0  0  0
  3  5  1  0  0  0  0
  3  4  2  0  0  0  0
  4  1  1  0  0  0  0
  5  2  2  0  0  0  0
  6 12  1  6  0  0  0
  6 11  1  0  0  0  0
  7 11  1  0  0  0  0
  8  7  1  0  0  0  0
  9  1  1  6  0  0  0
  9  8  1  0  0  0  0
 10  9  1  0  0  0  0
 10  6  1  0  0  0  0
 12 13  1  0  0  0  0
 14 13  1  0  0  0  0
 15 20  2  0  0  0  0
 16 17  1  0  0  0  0
 17 18  1  0  0  0  0
 18 14  1  1  0  0  0
 19 15  1  0  0  0  0
 19 17  2  0  0  0  0
 20 18  1  0  0  0  0
 21 22  2  0  0  0  0
 22 19  1  0  0  0  0
 23 22  1  0  0  0  0
 24 26  1  6  0  0  0
 24  3  1  0  0  0  0
 26 25  1  0  0  0  0
 28 27  1  6  0  0  0
 28 24  1  0  0  0  0
 29 28  1  0  0  0  0
 30 29  1  0  0  0  0
 31 33  1  1  0  0  0
 31 30  1  0  0  0  0
 31 34  1  0  0  0  0
 33 32  1  0  0  0  0
 35 34  1  0  0  0  0
 35 36  1  0  0  0  0
 36 38  1  1  0  0  0
 36 37  1  0  0  0  0
M  END
>  <MODEL>
2

>  <REMARK>
 VINA RESULT:      -7.4      2.788      5.511
  Name = 
  16 active torsions:
  status: ('A' for Active; 'I' for Inactive)
    1  A    between atoms: C_1  and  C_35
    2  A    between atoms: N_3  and  C_22
    3  A    between atoms: C_8  and  C_29
    4  A    between atoms: C_8  and  C_31
    5  A    between atoms: C_8  and  O_37
    6  A    between atoms: C_10  and  C_21
    7  A    between atoms: C_10  and  C_35
    8  A    between atoms: C_12  and  C_21
    9  A    between atoms: C_13  and  C_32
   10  A    between atoms: C_14  and  C_16
   11  A    between atoms: C_15  and  C_20
   12  A    between atoms: C_17  and  C_30
   13  A    between atoms: C_17  and  O_37
   14  A    between atoms: C_20  and  C_30
   15  A    between atoms: C_20  and  C_38
   16  A    between atoms: C_31  and  C_32
                            x       y       z     vdW  Elec       q    Type
                         _______ _______ _______ _____ _____    ______ ____

>  <TORSDO>
F 16

$$$$
=
 OpenBabel11042410353D

 38 40  0  0  1  0  0  0  0  0999 V2000
  186.7130  178.7300  140.6360 N   0  0  0  0  0  0  0  0  0  0  0  0
  187.8420  178.3430  141.2630 C   0  0  0  0  0  3  0  0  0  0  0  0
  187.9670  177.8410  139.1470 C   0  0  0  0  0  0  0  0  0  0  0  0
  186.7850  178.4490  139.3470 N   0  0  0  0  0  0  0  0  0  0  0  0
  188.6820  177.7570  140.3290 C   0  0  0  0  0  3  0  0  0  0  0  0
  184.3590  179.4860  143.4510 C   0  0  1  0  0  3  0  0  0  0  0  0
  183.8390  177.8480  141.5760 C   0  0  0  0  0  2  0  0  0  0  0  0
  184.3040  178.9830  140.7770 N   0  0  0  0  0  2  0  0  0  0  0  0
  185.6120  179.4620  141.2630 C   0  0  1  0  0  3  0  0  0  0  0  0
  185.7390  179.4430  142.8000 C   0  0  0  0  0  2  0  0  0  0  0  0
  183.5210  178.2840  143.0110 C   0  0  0  0  0  2  0  0  0  0  0  0
  184.4790  179.5040  144.9630 C   0  0  0  0  0  2  0  0  0  0  0  0
  185.1030  178.2080  145.4560 C   0  0  0  0  0  2  0  0  0  0  0  0
  186.4700  178.4630  146.0760 C   0  0  0  0  0  2  0  0  0  0  0  0
  188.8450  176.8240  144.2510 C   0  0  0  0  0  3  0  0  0  0  0  0
  189.0910  177.9990  147.8060 C   0  0  0  0  0  1  0  0  0  0  0  0
  188.7290  177.5400  146.4300 C   0  0  0  0  0  0  0  0  0  0  0  0
  187.3440  177.2130  146.0190 C   0  0  2  0  0  3  0  0  0  0  0  0
  189.5730  177.3300  145.4380 C   0  0  0  0  0  0  0  0  0  0  0  0
  187.4330  176.7290  144.6380 N   0  0  0  0  0  0  0  0  0  0  0  0
  191.5550  178.3530  144.6380 O   0  0  0  0  0  0  0  0  0  0  0  0
  191.0320  177.5500  145.4570 C   0  0  0  0  0  0  0  0  0  0  0  0
  191.8440  176.8900  146.3690 O   0  0  0  0  0  1  0  0  0  0  0  0
  188.4820  177.4100  137.8070 C   0  0  1  0  0  3  0  0  0  0  0  0
  188.8650  179.7860  137.5310 O   0  0  0  0  0  1  0  0  0  0  0  0
  189.2120  178.5220  137.0480 C   0  0  0  0  0  2  0  0  0  0  0  0
  188.8390  175.2490  136.8090 O   0  0  0  0  0  1  0  0  0  0  0  0
  189.2300  176.0730  137.8650 C   0  0  1  0  0  3  0  0  0  0  0  0
  190.7450  176.2290  137.8790 C   0  0  0  0  0  2  0  0  0  0  0  0
  191.3540  174.9710  137.8600 O   0  0  0  0  0  0  0  0  0  0  0  0
  192.4720  175.1230  137.0320 C   0  0  2  0  0  3  0  0  0  0  0  0
  191.5880  173.0060  136.3770 O   0  0  0  0  0  1  0  0  0  0  0  0
  192.5430  173.9670  136.0480 C   0  0  0  0  0  2  0  0  0  0  0  0
  193.7330  175.1540  137.8880 C   0  0  0  0  0  2  0  0  0  0  0  0
  194.8260  174.2580  137.3160 C   0  0  0  0  0  2  0  0  0  0  0  0
  195.7930  173.8130  138.4010 C   0  0  2  0  0  3  0  0  0  0  0  0
  195.3680  172.5990  138.9430 O   0  0  0  0  0  1  0  0  0  0  0  0
  195.8360  174.8150  139.4500 N   0  0  0  0  0  1  0  0  0  0  0  0
  1  2  1  0  0  0  0
  3  4  2  0  0  0  0
  3  5  1  0  0  0  0
  4  1  1  0  0  0  0
  5  2  2  0  0  0  0
  6 12  1  1  0  0  0
  7 11  1  0  0  0  0
  8  9  1  0  0  0  0
  8  7  1  0  0  0  0
  9  1  1  6  0  0  0
  9 10  1  0  0  0  0
 10  6  1  0  0  0  0
 11  6  1  0  0  0  0
 12 13  1  0  0  0  0
 13 14  1  0  0  0  0
 15 20  2  0  0  0  0
 15 19  1  0  0  0  0
 17 16  1  0  0  0  0
 18 14  1  6  0  0  0
 18 17  1  0  0  0  0
 19 22  1  0  0  0  0
 19 17  2  0  0  0  0
 20 18  1  0  0  0  0
 21 22  2  0  0  0  0
 22 23  1  0  0  0  0
 24 26  1  1  0  0  0
 24 28  1  0  0  0  0
 24  3  1  0  0  0  0
 26 25  1  0  0  0  0
 28 27  1  6  0  0  0
 28 29  1  0  0  0  0
 30 29  1  0  0  0  0
 31 33  1  6  0  0  0
 31 30  1  0  0  0  0
 31 34  1  0  0  0  0
 33 32  1  0  0  0  0
 35 34  1  0  0  0  0
 35 36  1  0  0  0  0
 36 37  1  1  0  0  0
 36 38  1  0  0  0  0
M  END
>  <MODEL>
3

>  <REMARK>
 VINA RESULT:      -7.3      2.717      7.400
  Name = 
  16 active torsions:
  status: ('A' for Active; 'I' for Inactive)
    1  A    between atoms: C_1  and  C_35
    2  A    between atoms: N_3  and  C_22
    3  A    between atoms: C_8  and  C_29
    4  A    between atoms: C_8  and  C_31
    5  A    between atoms: C_8  and  O_37
    6  A    between atoms: C_10  and  C_21
    7  A    between atoms: C_10  and  C_35
    8  A    between atoms: C_12  and  C_21
    9  A    between atoms: C_13  and  C_32
   10  A    between atoms: C_14  and  C_16
   11  A    between atoms: C_15  and  C_20
   12  A    between atoms: C_17  and  C_30
   13  A    between atoms: C_17  and  O_37
   14  A    between atoms: C_20  and  C_30
   15  A    between atoms: C_20  and  C_38
   16  A    between atoms: C_31  and  C_32
                            x       y       z     vdW  Elec       q    Type
                         _______ _______ _______ _____ _____    ______ ____

>  <TORSDO>
F 16

$$$$
=
 OpenBabel11042410353D

 38 40  0  0  1  0  0  0  0  0999 V2000
  189.1470  177.4430  138.8940 N   0  0  0  0  0  0  0  0  0  0  0  0
  190.4590  177.1960  138.7110 C   0  0  0  0  0  3  0  0  0  0  0  0
  189.9480  176.9330  140.8120 C   0  0  0  0  0  0  0  0  0  0  0  0
  188.8190  177.2670  140.1620 N   0  0  0  0  0  0  0  0  0  0  0  0
  191.0160  176.8640  139.9360 C   0  0  0  0  0  3  0  0  0  0  0  0
  185.7130  177.5750  137.4000 C   0  0  1  0  0  3  0  0  0  0  0  0
  187.3100  175.6160  137.1040 C   0  0  0  0  0  2  0  0  0  0  0  0
  188.2180  176.7150  136.7740 N   0  0  0  0  0  2  0  0  0  0  0  0
  188.1920  177.7480  137.8270 C   0  0  1  0  0  3  0  0  0  0  0  0
  186.7830  178.0020  138.4010 C   0  0  0  0  0  2  0  0  0  0  0  0
  185.8500  176.0860  137.0720 C   0  0  0  0  0  2  0  0  0  0  0  0
  184.3250  177.8550  137.9450 C   0  0  0  0  0  2  0  0  0  0  0  0
  183.5350  176.5620  138.0610 C   0  0  0  0  0  2  0  0  0  0  0  0
  182.4690  176.6700  139.1430 C   0  0  0  0  0  2  0  0  0  0  0  0
  179.8460  178.6340  140.1020 C   0  0  0  0  0  3  0  0  0  0  0  0
  183.3190  178.5920  141.5220 C   0  0  0  0  0  1  0  0  0  0  0  0
  182.0480  178.5020  140.7400 C   0  0  0  0  0  0  0  0  0  0  0  0
  181.9990  178.1120  139.3110 C   0  0  2  0  0  3  0  0  0  0  0  0
  180.8410  178.7880  141.1890 C   0  0  0  0  0  0  0  0  0  0  0  0
  180.5940  178.2290  138.9070 N   0  0  0  0  0  0  0  0  0  0  0  0
  180.3930  178.3390  143.4710 O   0  0  0  0  0  1  0  0  0  0  0  0
  180.4840  179.2040  142.5590 C   0  0  0  0  0  0  0  0  0  0  0  0
  180.2500  180.5370  142.8640 O   0  0  0  0  0  0  0  0  0  0  0  0
  190.0140  176.5800  142.2670 C   0  0  1  0  0  3  0  0  0  0  0  0
  191.8550  175.9340  143.7030 O   0  0  0  0  0  1  0  0  0  0  0  0
  191.3360  176.9770  142.9310 C   0  0  0  0  0  2  0  0  0  0  0  0
  187.9190  175.9080  143.2420 O   0  0  0  0  0  1  0  0  0  0  0  0
  188.7560  177.0050  143.0330 C   0  0  1  0  0  3  0  0  0  0  0  0
  189.0600  177.6960  144.3560 C   0  0  0  0  0  2  0  0  0  0  0  0
  188.6590  176.8840  145.4210 O   0  0  0  0  0  0  0  0  0  0  0  0
  188.2520  177.7740  146.4220 C   0  0  2  0  0  3  0  0  0  0  0  0
  188.1290  177.8080  148.8040 O   0  0  0  0  0  1  0  0  0  0  0  0
  188.9320  177.4170  147.7330 C   0  0  0  0  0  2  0  0  0  0  0  0
  186.7390  177.6940  146.5830 C   0  0  0  0  0  2  0  0  0  0  0  0
  186.0860  179.0680  146.4790 C   0  0  0  0  0  2  0  0  0  0  0  0
  185.0810  179.1110  145.3390 C   0  0  2  0  0  3  0  0  0  0  0  0
  183.7880  178.9690  145.8450 O   0  0  0  0  0  1  0  0  0  0  0  0
  185.3540  178.0280  144.4120 N   0  0  0  0  0  1  0  0  0  0  0  0
  1  4  1  0  0  0  0
  2  1  1  0  0  0  0
  2  5  2  0  0  0  0
  3 24  1  0  0  0  0
  4  3  2  0  0  0  0
  5  3  1  0  0  0  0
  6 12  1  1  0  0  0
  6 10  1  0  0  0  0
  8  7  1  0  0  0  0
  8  9  1  0  0  0  0
  9 10  1  1  0  0  0
  9  1  1  0  0  0  0
 11  7  1  0  0  0  0
 11  6  1  0  0  0  0
 12 13  1  0  0  0  0
 13 14  1  0  0  0  0
 15 19  1  0  0  0  0
 17 19  2  0  0  0  0
 17 16  1  0  0  0  0
 18 14  1  1  0  0  0
 18 17  1  0  0  0  0
 19 22  1  0  0  0  0
 20 18  1  0  0  0  0
 20 15  2  0  0  0  0
 22 23  2  0  0  0  0
 22 21  1  0  0  0  0
 24 26  1  1  0  0  0
 24 28  1  0  0  0  0
 26 25  1  0  0  0  0
 28 27  1  1  0  0  0
 28 29  1  0  0  0  0
 29 30  1  0  0  0  0
 30 31  1  0  0  0  0
 31 34  1  1  0  0  0
 31 33  1  0  0  0  0
 33 32  1  0  0  0  0
 35 34  1  0  0  0  0
 36 38  1  6  0  0  0
 36 37  1  0  0  0  0
 36 35  1  0  0  0  0
M  END
>  <MODEL>
4

>  <REMARK>
 VINA RESULT:      -7.2      3.026      6.656
  Name = 
  16 active torsions:
  status: ('A' for Active; 'I' for Inactive)
    1  A    between atoms: C_1  and  C_35
    2  A    between atoms: N_3  and  C_22
    3  A    between atoms: C_8  and  C_29
    4  A    between atoms: C_8  and  C_31
    5  A    between atoms: C_8  and  O_37
    6  A    between atoms: C_10  and  C_21
    7  A    between atoms: C_10  and  C_35
    8  A    between atoms: C_12  and  C_21
    9  A    between atoms: C_13  and  C_32
   10  A    between atoms: C_14  and  C_16
   11  A    between atoms: C_15  and  C_20
   12  A    between atoms: C_17  and  C_30
   13  A    between atoms: C_17  and  O_37
   14  A    between atoms: C_20  and  C_30
   15  A    between atoms: C_20  and  C_38
   16  A    between atoms: C_31  and  C_32
                            x       y       z     vdW  Elec       q    Type
                         _______ _______ _______ _____ _____    ______ ____

>  <TORSDO>
F 16

$$$$
=
 OpenBabel11042410353D

 38 40  0  0  1  0  0  0  0  0999 V2000
  189.0990  176.9690  141.8630 N   0  0  0  0  0  0  0  0  0  0  0  0
  188.5070  178.0970  141.4200 C   0  0  0  0  0  3  0  0  0  0  0  0
  189.4580  177.0620  139.7550 C   0  0  0  0  0  0  0  0  0  0  0  0
  189.6630  176.3220  140.8580 N   0  0  0  0  0  0  0  0  0  0  0  0
  188.7220  178.1950  140.0540 C   0  0  0  0  0  3  0  0  0  0  0  0
  187.8730  177.0370  145.4020 C   0  0  1  0  0  3  0  0  0  0  0  0
  189.9970  178.1990  144.6200 C   0  0  0  0  0  2  0  0  0  0  0  0
  190.2110  176.8830  144.0170 N   0  0  0  0  0  2  0  0  0  0  0  0
  189.0310  176.4680  143.2360 C   0  0  1  0  0  3  0  0  0  0  0  0
  187.6910  176.8500  143.8990 C   0  0  0  0  0  2  0  0  0  0  0  0
  188.8960  178.1390  145.6860 C   0  0  0  0  0  2  0  0  0  0  0  0
  186.5520  177.3790  146.0650 C   0  0  0  0  0  2  0  0  0  0  0  0
  186.0210  178.6990  145.5300 C   0  0  0  0  0  2  0  0  0  0  0  0
  184.5740  178.5620  145.0790 C   0  0  0  0  0  2  0  0  0  0  0  0
  184.9690  179.0430  141.7220 C   0  0  0  0  0  3  0  0  0  0  0  0
  181.7540  178.8140  143.6440 C   0  0  0  0  0  1  0  0  0  0  0  0
  183.1430  178.9710  143.1130 C   0  0  0  0  0  0  0  0  0  0  0  0
  184.2670  179.5040  143.9180 C   0  0  2  0  0  3  0  0  0  0  0  0
  183.5350  178.7040  141.8820 C   0  0  0  0  0  0  0  0  0  0  0  0
  185.4180  179.5730  143.0130 N   0  0  0  0  0  0  0  0  0  0  0  0
  181.8480  178.8790  140.2280 O   0  0  0  0  0  0  0  0  0  0  0  0
  182.7090  178.1510  140.7920 C   0  0  0  0  0  0  0  0  0  0  0  0
  182.8640  176.8370  140.3700 O   0  0  0  0  0  1  0  0  0  0  0  0
  189.8800  176.6600  138.3740 C   0  0  1  0  0  3  0  0  0  0  0  0
  188.6770  177.6140  136.5010 O   0  0  0  0  0  1  0  0  0  0  0  0
  189.7730  177.7930  137.3490 C   0  0  0  0  0  2  0  0  0  0  0  0
  191.0230  174.5790  137.9760 O   0  0  0  0  0  1  0  0  0  0  0  0
  191.2160  175.9060  138.3630 C   0  0  1  0  0  3  0  0  0  0  0  0
  192.2730  176.5640  137.4860 C   0  0  0  0  0  2  0  0  0  0  0  0
  192.7860  175.6330  136.5790 O   0  0  0  0  0  0  0  0  0  0  0  0
  194.1650  175.8710  136.5560 C   0  0  2  0  0  3  0  0  0  0  0  0
  195.1280  177.8210  135.5750 O   0  0  0  0  0  1  0  0  0  0  0  0
  194.5400  176.5940  135.2730 C   0  0  0  0  0  2  0  0  0  0  0  0
  194.9080  174.5430  136.6400 C   0  0  0  0  0  2  0  0  0  0  0  0
  194.4050  173.6860  137.7960 C   0  0  0  0  0  2  0  0  0  0  0  0
  195.5610  173.1640  138.6330 C   0  0  2  0  0  3  0  0  0  0  0  0
  196.3750  174.2270  139.0290 O   0  0  0  0  0  1  0  0  0  0  0  0
  196.3440  172.2290  137.8470 N   0  0  0  0  0  1  0  0  0  0  0  0
  2  1  1  0  0  0  0
  3  5  1  0  0  0  0
  3  4  2  0  0  0  0
  4  1  1  0  0  0  0
  5  2  2  0  0  0  0
  6 11  1  0  0  0  0
  6 12  1  1  0  0  0
  7 11  1  0  0  0  0
  8  7  1  0  0  0  0
  9  1  1  6  0  0  0
  9 10  1  0  0  0  0
  9  8  1  0  0  0  0
 10  6  1  0  0  0  0
 13 12  1  0  0  0  0
 14 13  1  0  0  0  0
 15 19  1  0  0  0  0
 15 20  2  0  0  0  0
 17 16  1  0  0  0  0
 17 18  1  0  0  0  0
 18 14  1  1  0  0  0
 19 17  2  0  0  0  0
 20 18  1  0  0  0  0
 21 22  2  0  0  0  0
 22 19  1  0  0  0  0
 23 22  1  0  0  0  0
 24 26  1  6  0  0  0
 24  3  1  0  0  0  0
 25 26  1  0  0  0  0
 28 27  1  6  0  0  0
 28 24  1  0  0  0  0
 29 28  1  0  0  0  0
 30 29  1  0  0  0  0
 31 33  1  6  0  0  0
 31 30  1  0  0  0  0
 31 34  1  0  0  0  0
 33 32  1  0  0  0  0
 34 35  1  0  0  0  0
 35 36  1  0  0  0  0
 36 38  1  6  0  0  0
 36 37  1  0  0  0  0
M  END
>  <MODEL>
5

>  <REMARK>
 VINA RESULT:      -7.2      3.475      6.194
  Name = 
  16 active torsions:
  status: ('A' for Active; 'I' for Inactive)
    1  A    between atoms: C_1  and  C_35
    2  A    between atoms: N_3  and  C_22
    3  A    between atoms: C_8  and  C_29
    4  A    between atoms: C_8  and  C_31
    5  A    between atoms: C_8  and  O_37
    6  A    between atoms: C_10  and  C_21
    7  A    between atoms: C_10  and  C_35
    8  A    between atoms: C_12  and  C_21
    9  A    between atoms: C_13  and  C_32
   10  A    between atoms: C_14  and  C_16
   11  A    between atoms: C_15  and  C_20
   12  A    between atoms: C_17  and  C_30
   13  A    between atoms: C_17  and  O_37
   14  A    between atoms: C_20  and  C_30
   15  A    between atoms: C_20  and  C_38
   16  A    between atoms: C_31  and  C_32
                            x       y       z     vdW  Elec       q    Type
                         _______ _______ _______ _____ _____    ______ ____

>  <TORSDO>
F 16

$$$$
=
 OpenBabel11042410353D

 38 40  0  0  1  0  0  0  0  0999 V2000
  183.6880  179.0680  143.6490 N   0  0  0  0  0  0  0  0  0  0  0  0
  182.8360  178.7300  144.6370 C   0  0  0  0  0  3  0  0  0  0  0  0
  181.7490  178.9070  142.7580 C   0  0  0  0  0  0  0  0  0  0  0  0
  183.0440  179.1590  142.4990 N   0  0  0  0  0  0  0  0  0  0  0  0
  181.5640  178.6190  144.0990 C   0  0  0  0  0  3  0  0  0  0  0  0
  187.1920  177.7430  143.7000 C   0  0  1  0  0  3  0  0  0  0  0  0
  185.7190  177.9250  145.7670 C   0  0  0  0  0  2  0  0  0  0  0  0
  185.5270  179.2690  145.2190 N   0  0  0  0  0  2  0  0  0  0  0  0
  185.1380  179.2020  143.7980 C   0  0  1  0  0  3  0  0  0  0  0  0
  185.8790  178.1010  143.0110 C   0  0  0  0  0  2  0  0  0  0  0  0
  186.9310  177.2410  145.1220 C   0  0  0  0  0  2  0  0  0  0  0  0
  187.9420  176.6850  142.9120 C   0  0  0  0  0  2  0  0  0  0  0  0
  188.9820  177.3370  142.0150 C   0  0  0  0  0  2  0  0  0  0  0  0
  190.3040  176.5850  142.0780 C   0  0  0  0  0  2  0  0  0  0  0  0
  190.5820  178.5420  144.8620 C   0  0  0  0  0  3  0  0  0  0  0  0
  192.0500  175.1360  144.2980 C   0  0  0  0  0  1  0  0  0  0  0  0
  191.4580  176.5080  144.2570 C   0  0  0  0  0  0  0  0  0  0  0  0
  191.2930  177.2860  143.0060 C   0  0  2  0  0  3  0  0  0  0  0  0
  191.0520  177.2070  145.2990 C   0  0  0  0  0  0  0  0  0  0  0  0
  190.7620  178.5920  143.4080 N   0  0  0  0  0  0  0  0  0  0  0  0
  192.1310  176.7310  147.3540 O   0  0  0  0  0  1  0  0  0  0  0  0
  191.0490  176.7700  146.7080 C   0  0  0  0  0  0  0  0  0  0  0  0
  189.8700  176.4020  147.3420 O   0  0  0  0  0  0  0  0  0  0  0  0
  180.6730  178.8440  141.7160 C   0  0  1  0  0  3  0  0  0  0  0  0
  180.1020  176.8620  140.4450 O   0  0  0  0  0  1  0  0  0  0  0  0
  179.9400  177.5000  141.6780 C   0  0  0  0  0  2  0  0  0  0  0  0
  180.0470  180.8750  142.8440 O   0  0  0  0  0  1  0  0  0  0  0  0
  179.7600  180.0750  141.7370 C   0  0  1  0  0  3  0  0  0  0  0  0
  179.8300  180.8990  140.4580 C   0  0  0  0  0  2  0  0  0  0  0  0
  179.7370  180.0600  139.3450 O   0  0  0  0  0  0  0  0  0  0  0  0
  180.2250  180.8200  138.2750 C   0  0  2  0  0  3  0  0  0  0  0  0
  180.0140  181.1060  135.9160 O   0  0  0  0  0  1  0  0  0  0  0  0
  179.7470  180.2240  136.9620 C   0  0  0  0  0  2  0  0  0  0  0  0
  181.7490  180.8290  138.3170 C   0  0  0  0  0  2  0  0  0  0  0  0
  182.3290  179.4410  138.0730 C   0  0  0  0  0  2  0  0  0  0  0  0
  183.4200  179.1190  139.0810 C   0  0  2  0  0  3  0  0  0  0  0  0
  184.3540  180.1560  139.1130 O   0  0  0  0  0  1  0  0  0  0  0  0
  184.0860  177.8880  138.6960 N   0  0  0  0  0  1  0  0  0  0  0  0
  1  9  1  0  0  0  0
  1  2  1  0  0  0  0
  3  5  1  0  0  0  0
  4  3  2  0  0  0  0
  4  1  1  0  0  0  0
  5  2  2  0  0  0  0
  6 12  1  6  0  0  0
  6 11  1  0  0  0  0
  8  7  1  0  0  0  0
  9 10  1  1  0  0  0
  9  8  1  0  0  0  0
 10  6  1  0  0  0  0
 11  7  1  0  0  0  0
 13 14  1  0  0  0  0
 13 12  1  0  0  0  0
 15 19  1  0  0  0  0
 17 16  1  0  0  0  0
 17 19  2  0  0  0  0
 18 14  1  6  0  0  0
 18 20  1  0  0  0  0
 18 17  1  0  0  0  0
 19 22  1  0  0  0  0
 20 15  2  0  0  0  0
 22 23  2  0  0  0  0
 22 21  1  0  0  0  0
 24 26  1  1  0  0  0
 24 28  1  0  0  0  0
 24  3  1  0  0  0  0
 25 26  1  0  0  0  0
 28 27  1  1  0  0  0
 29 28  1  0  0  0  0
 30 29  1  0  0  0  0
 31 33  1  6  0  0  0
 31 34  1  0  0  0  0
 31 30  1  0  0  0  0
 32 33  1  0  0  0  0
 35 34  1  0  0  0  0
 35 36  1  0  0  0  0
 36 38  1  6  0  0  0
 36 37  1  0  0  0  0
M  END
>  <MODEL>
6

>  <REMARK>
 VINA RESULT:      -7.0      3.367      9.127
  Name = 
  16 active torsions:
  status: ('A' for Active; 'I' for Inactive)
    1  A    between atoms: C_1  and  C_35
    2  A    between atoms: N_3  and  C_22
    3  A    between atoms: C_8  and  C_29
    4  A    between atoms: C_8  and  C_31
    5  A    between atoms: C_8  and  O_37
    6  A    between atoms: C_10  and  C_21
    7  A    between atoms: C_10  and  C_35
    8  A    between atoms: C_12  and  C_21
    9  A    between atoms: C_13  and  C_32
   10  A    between atoms: C_14  and  C_16
   11  A    between atoms: C_15  and  C_20
   12  A    between atoms: C_17  and  C_30
   13  A    between atoms: C_17  and  O_37
   14  A    between atoms: C_20  and  C_30
   15  A    between atoms: C_20  and  C_38
   16  A    between atoms: C_31  and  C_32
                            x       y       z     vdW  Elec       q    Type
                         _______ _______ _______ _____ _____    ______ ____

>  <TORSDO>
F 16

$$$$
=
 OpenBabel11042410353D

 38 40  0  0  1  0  0  0  0  0999 V2000
  189.4240  176.7740  141.9340 N   0  0  0  0  0  0  0  0  0  0  0  0
  188.9750  177.8710  141.2910 C   0  0  0  0  0  3  0  0  0  0  0  0
  190.2570  176.7130  139.9630 C   0  0  0  0  0  0  0  0  0  0  0  0
  190.1870  176.0520  141.1310 N   0  0  0  0  0  0  0  0  0  0  0  0
  189.4980  177.8690  140.0070 C   0  0  0  0  0  3  0  0  0  0  0  0
  187.4530  177.1270  145.1010 C   0  0  1  0  0  3  0  0  0  0  0  0
  189.7470  178.1670  144.7400 C   0  0  0  0  0  2  0  0  0  0  0  0
  190.0290  176.8060  144.2830 N   0  0  0  0  0  2  0  0  0  0  0  0
  189.0330  176.3730  143.2850 C   0  0  1  0  0  3  0  0  0  0  0  0
  187.5990  176.8410  143.6090 C   0  0  0  0  0  2  0  0  0  0  0  0
  188.4370  178.2160  145.5360 C   0  0  0  0  0  2  0  0  0  0  0  0
  186.0360  177.5540  145.4300 C   0  0  0  0  0  2  0  0  0  0  0  0
  185.9570  179.0670  145.5510 C   0  0  0  0  0  2  0  0  0  0  0  0
  184.9030  179.6350  144.6110 C   0  0  0  0  0  2  0  0  0  0  0  0
  181.9640  178.8970  143.0380 C   0  0  0  0  0  3  0  0  0  0  0  0
  185.4450  178.5020  141.6960 C   0  0  0  0  0  1  0  0  0  0  0  0
  184.1750  178.6510  142.4700 C   0  0  0  0  0  0  0  0  0  0  0  0
  184.1010  178.5210  143.9450 C   0  0  2  0  0  3  0  0  0  0  0  0
  182.9790  178.8700  141.9590 C   0  0  0  0  0  0  0  0  0  0  0  0
  182.6830  178.6500  144.2920 N   0  0  0  0  0  0  0  0  0  0  0  0
  181.5580  178.6270  140.0790 O   0  0  0  0  0  1  0  0  0  0  0  0
  182.6500  179.0640  140.5340 C   0  0  0  0  0  0  0  0  0  0  0  0
  183.5210  179.7270  139.6810 O   0  0  0  0  0  0  0  0  0  0  0  0
  190.9730  176.2100  138.7470 C   0  0  1  0  0  3  0  0  0  0  0  0
  189.8370  174.7090  137.2210 O   0  0  0  0  0  1  0  0  0  0  0  0
  190.0640  176.0540  137.5240 C   0  0  0  0  0  2  0  0  0  0  0  0
  193.0620  177.0030  139.6400 O   0  0  0  0  0  1  0  0  0  0  0  0
  192.2840  176.9600  138.4830 C   0  0  1  0  0  3  0  0  0  0  0  0
  193.0880  176.3810  137.3270 C   0  0  0  0  0  2  0  0  0  0  0  0
  194.3150  175.9000  137.7930 O   0  0  0  0  0  0  0  0  0  0  0  0
  194.6730  174.8870  136.8960 C   0  0  2  0  0  3  0  0  0  0  0  0
  194.0090  172.7290  136.1230 O   0  0  0  0  0  1  0  0  0  0  0  0
  193.5660  173.8470  136.8280 C   0  0  0  0  0  2  0  0  0  0  0  0
  195.9690  174.2350  137.3610 C   0  0  0  0  0  2  0  0  0  0  0  0
  195.9380  173.9160  138.8510 C   0  0  0  0  0  2  0  0  0  0  0  0
  197.0390  174.6550  139.5930 C   0  0  2  0  0  3  0  0  0  0  0  0
  196.4830  175.6690  140.3740 O   0  0  0  0  0  1  0  0  0  0  0  0
  197.9590  175.2410  138.6350 N   0  0  0  0  0  1  0  0  0  0  0  0
  2  1  1  0  0  0  0
  3  5  1  0  0  0  0
  3  4  2  0  0  0  0
  4  1  1  0  0  0  0
  5  2  2  0  0  0  0
  6 12  1  6  0  0  0
  6 11  1  0  0  0  0
  7 11  1  0  0  0  0
  8  7  1  0  0  0  0
  9  1  1  6  0  0  0
  9 10  1  0  0  0  0
  9  8  1  0  0  0  0
 10  6  1  0  0  0  0
 12 13  1  0  0  0  0
 14 13  1  0  0  0  0
 15 20  2  0  0  0  0
 16 17  1  0  0  0  0
 17 18  1  0  0  0  0
 18 20  1  0  0  0  0
 18 14  1  1  0  0  0
 19 17  2  0  0  0  0
 19 15  1  0  0  0  0
 21 22  1  0  0  0  0
 22 19  1  0  0  0  0
 23 22  2  0  0  0  0
 24 26  1  6  0  0  0
 24  3  1  0  0  0  0
 25 26  1  0  0  0  0
 28 24  1  0  0  0  0
 28 27  1  1  0  0  0
 29 30  1  0  0  0  0
 29 28  1  0  0  0  0
 31 33  1  1  0  0  0
 31 34  1  0  0  0  0
 31 30  1  0  0  0  0
 32 33  1  0  0  0  0
 34 35  1  0  0  0  0
 35 36  1  0  0  0  0
 36 38  1  6  0  0  0
 36 37  1  0  0  0  0
M  END
>  <MODEL>
7

>  <REMARK>
 VINA RESULT:      -7.0      3.614      6.178
  Name = 
  16 active torsions:
  status: ('A' for Active; 'I' for Inactive)
    1  A    between atoms: C_1  and  C_35
    2  A    between atoms: N_3  and  C_22
    3  A    between atoms: C_8  and  C_29
    4  A    between atoms: C_8  and  C_31
    5  A    between atoms: C_8  and  O_37
    6  A    between atoms: C_10  and  C_21
    7  A    between atoms: C_10  and  C_35
    8  A    between atoms: C_12  and  C_21
    9  A    between atoms: C_13  and  C_32
   10  A    between atoms: C_14  and  C_16
   11  A    between atoms: C_15  and  C_20
   12  A    between atoms: C_17  and  C_30
   13  A    between atoms: C_17  and  O_37
   14  A    between atoms: C_20  and  C_30
   15  A    between atoms: C_20  and  C_38
   16  A    between atoms: C_31  and  C_32
                            x       y       z     vdW  Elec       q    Type
                         _______ _______ _______ _____ _____    ______ ____

>  <TORSDO>
F 16

$$$$
=
 OpenBabel11042410353D

 38 40  0  0  1  0  0  0  0  0999 V2000
  186.4710  178.7020  140.4060 N   0  0  0  0  0  0  0  0  0  0  0  0
  187.6420  178.2560  140.9040 C   0  0  0  0  0  3  0  0  0  0  0  0
  187.5450  177.8390  138.7680 C   0  0  0  0  0  0  0  0  0  0  0  0
  186.4100  178.4740  139.1050 N   0  0  0  0  0  0  0  0  0  0  0  0
  188.3670  177.6850  139.8700 C   0  0  0  0  0  3  0  0  0  0  0  0
  184.4210  179.4060  143.4620 C   0  0  1  0  0  3  0  0  0  0  0  0
  183.6680  177.8730  141.5760 C   0  0  0  0  0  2  0  0  0  0  0  0
  184.0980  179.0280  140.7860 N   0  0  0  0  0  2  0  0  0  0  0  0
  185.4620  179.4410  141.1650 C   0  0  1  0  0  3  0  0  0  0  0  0
  185.7310  179.3480  142.6810 C   0  0  0  0  0  2  0  0  0  0  0  0
  183.5020  178.2530  143.0520 C   0  0  0  0  0  2  0  0  0  0  0  0
  184.6820  179.3500  144.9550 C   0  0  0  0  0  2  0  0  0  0  0  0
  185.3360  178.0280  145.3250 C   0  0  0  0  0  2  0  0  0  0  0  0
  186.7150  178.2540  145.9300 C   0  0  0  0  0  2  0  0  0  0  0  0
  189.1560  176.9140  143.9550 C   0  0  0  0  0  3  0  0  0  0  0  0
  189.3080  177.6020  147.6400 C   0  0  0  0  0  1  0  0  0  0  0  0
  188.9840  177.3280  146.2070 C   0  0  0  0  0  0  0  0  0  0  0  0
  187.6130  177.0370  145.7250 C   0  0  2  0  0  3  0  0  0  0  0  0
  189.8510  177.2670  145.2150 C   0  0  0  0  0  0  0  0  0  0  0  0
  187.7390  176.7460  144.2940 N   0  0  0  0  0  0  0  0  0  0  0  0
  191.9770  176.9670  146.2180 O   0  0  0  0  0  1  0  0  0  0  0  0
  191.3050  177.5060  145.2970 C   0  0  0  0  0  0  0  0  0  0  0  0
  191.9520  178.3140  144.3720 O   0  0  0  0  0  0  0  0  0  0  0  0
  187.9140  177.4500  137.3680 C   0  0  1  0  0  3  0  0  0  0  0  0
  189.0300  179.5950  137.2250 O   0  0  0  0  0  1  0  0  0  0  0  0
  189.0750  178.2670  136.7930 C   0  0  0  0  0  2  0  0  0  0  0  0
  186.8490  175.3880  136.7290 O   0  0  0  0  0  1  0  0  0  0  0  0
  188.0470  175.9320  137.1950 C   0  0  1  0  0  3  0  0  0  0  0  0
  189.1990  175.5280  136.2850 C   0  0  0  0  0  2  0  0  0  0  0  0
  190.0150  174.5970  136.9350 O   0  0  0  0  0  0  0  0  0  0  0  0
  191.2770  175.2000  136.9930 C   0  0  2  0  0  3  0  0  0  0  0  0
  192.8260  174.0630  135.5770 O   0  0  0  0  0  1  0  0  0  0  0  0
  192.3590  174.1370  136.8890 C   0  0  0  0  0  2  0  0  0  0  0  0
  191.4170  175.9550  138.3090 C   0  0  0  0  0  2  0  0  0  0  0  0
  192.8590  176.3710  138.5710 C   0  0  0  0  0  2  0  0  0  0  0  0
  192.9300  177.4700  139.6190 C   0  0  2  0  0  3  0  0  0  0  0  0
  194.1920  177.4720  140.2160 O   0  0  0  0  0  1  0  0  0  0  0  0
  191.9210  177.2340  140.6360 N   0  0  0  0  0  1  0  0  0  0  0  0
  1  2  1  0  0  0  0
  3  4  2  0  0  0  0
  3  5  1  0  0  0  0
  4  1  1  0  0  0  0
  5  2  2  0  0  0  0
  6 12  1  1  0  0  0
  7 11  1  0  0  0  0
  8  9  1  0  0  0  0
  8  7  1  0  0  0  0
  9  1  1  6  0  0  0
  9 10  1  0  0  0  0
 10  6  1  0  0  0  0
 11  6  1  0  0  0  0
 12 13  1  0  0  0  0
 13 14  1  0  0  0  0
 15 20  2  0  0  0  0
 15 19  1  0  0  0  0
 17 16  1  0  0  0  0
 18 14  1  6  0  0  0
 18 17  1  0  0  0  0
 19 22  1  0  0  0  0
 19 17  2  0  0  0  0
 20 18  1  0  0  0  0
 22 21  1  0  0  0  0
 23 22  2  0  0  0  0
 24 26  1  1  0  0  0
 24  3  1  0  0  0  0
 26 25  1  0  0  0  0
 28 27  1  6  0  0  0
 28 24  1  0  0  0  0
 29 30  1  0  0  0  0
 29 28  1  0  0  0  0
 30 31  1  0  0  0  0
 31 33  1  1  0  0  0
 31 34  1  0  0  0  0
 32 33  1  0  0  0  0
 34 35  1  0  0  0  0
 35 36  1  0  0  0  0
 36 37  1  1  0  0  0
 36 38  1  0  0  0  0
M  END
>  <MODEL>
8

>  <REMARK>
 VINA RESULT:      -6.9      2.195      7.404
  Name = 
  16 active torsions:
  status: ('A' for Active; 'I' for Inactive)
    1  A    between atoms: C_1  and  C_35
    2  A    between atoms: N_3  and  C_22
    3  A    between atoms: C_8  and  C_29
    4  A    between atoms: C_8  and  C_31
    5  A    between atoms: C_8  and  O_37
    6  A    between atoms: C_10  and  C_21
    7  A    between atoms: C_10  and  C_35
    8  A    between atoms: C_12  and  C_21
    9  A    between atoms: C_13  and  C_32
   10  A    between atoms: C_14  and  C_16
   11  A    between atoms: C_15  and  C_20
   12  A    between atoms: C_17  and  C_30
   13  A    between atoms: C_17  and  O_37
   14  A    between atoms: C_20  and  C_30
   15  A    between atoms: C_20  and  C_38
   16  A    between atoms: C_31  and  C_32
                            x       y       z     vdW  Elec       q    Type
                         _______ _______ _______ _____ _____    ______ ____

>  <TORSDO>
F 16

$$$$
=
 OpenBabel11042410353D

 38 40  0  0  1  0  0  0  0  0999 V2000
  187.0120  177.8050  142.5470 N   0  0  0  0  0  0  0  0  0  0  0  0
  187.1920  178.6660  141.5250 C   0  0  0  0  0  3  0  0  0  0  0  0
  189.0530  177.6100  141.9330 C   0  0  0  0  0  0  0  0  0  0  0  0
  188.1300  177.1420  142.7900 N   0  0  0  0  0  0  0  0  0  0  0  0
  188.5080  178.5710  141.1010 C   0  0  0  0  0  3  0  0  0  0  0  0
  183.4720  178.6340  143.4530 C   0  0  1  0  0  3  0  0  0  0  0  0
  185.4860  179.3090  144.8550 C   0  0  0  0  0  2  0  0  0  0  0  0
  185.8030  177.8950  144.6480 N   0  0  0  0  0  2  0  0  0  0  0  0
  185.7360  177.5490  143.2160 C   0  0  1  0  0  3  0  0  0  0  0  0
  184.5730  178.2370  142.4730 C   0  0  0  0  0  2  0  0  0  0  0  0
  184.0180  179.5950  144.5120 C   0  0  0  0  0  2  0  0  0  0  0  0
  182.3100  179.2810  142.7230 C   0  0  0  0  0  2  0  0  0  0  0  0
  181.9960  178.5120  141.4500 C   0  0  0  0  0  2  0  0  0  0  0  0
  181.1940  179.3680  140.4800 C   0  0  0  0  0  2  0  0  0  0  0  0
  184.1280  178.7880  138.8330 C   0  0  0  0  0  3  0  0  0  0  0  0
  180.7260  177.4390  138.0030 C   0  0  0  0  0  1  0  0  0  0  0  0
  181.9480  178.1680  138.4620 C   0  0  0  0  0  0  0  0  0  0  0  0
  181.9030  179.4880  139.1340 C   0  0  2  0  0  3  0  0  0  0  0  0
  183.1940  177.7690  138.2980 C   0  0  0  0  0  0  0  0  0  0  0  0
  183.2990  179.8870  139.3390 N   0  0  0  0  0  0  0  0  0  0  0  0
  183.4730  175.4160  138.2910 O   0  0  0  0  0  1  0  0  0  0  0  0
  183.6430  176.5060  137.6810 C   0  0  0  0  0  0  0  0  0  0  0  0
  184.2480  176.4950  136.4320 O   0  0  0  0  0  0  0  0  0  0  0  0
  190.4520  177.0830  141.8250 C   0  0  1  0  0  3  0  0  0  0  0  0
  190.5740  176.0320  139.6460 O   0  0  0  0  0  1  0  0  0  0  0  0
  191.0110  177.1240  140.4000 C   0  0  0  0  0  2  0  0  0  0  0  0
  190.9910  178.9560  143.2370 O   0  0  0  0  0  1  0  0  0  0  0  0
  191.3830  177.6590  142.8980 C   0  0  1  0  0  3  0  0  0  0  0  0
  191.4730  176.7920  144.1470 C   0  0  0  0  0  2  0  0  0  0  0  0
  191.9750  177.5430  145.2140 O   0  0  0  0  0  0  0  0  0  0  0  0
  191.3450  177.0250  146.3510 C   0  0  2  0  0  3  0  0  0  0  0  0
  192.8100  175.9630  147.9060 O   0  0  0  0  0  1  0  0  0  0  0  0
  192.0290  175.7360  146.7740 C   0  0  0  0  0  2  0  0  0  0  0  0
  189.8780  176.7560  146.0370 C   0  0  0  0  0  2  0  0  0  0  0  0
  188.9930  177.9350  146.4200 C   0  0  0  0  0  2  0  0  0  0  0  0
  188.3810  177.7350  147.7970 C   0  0  2  0  0  3  0  0  0  0  0  0
  188.3350  176.3730  148.1000 O   0  0  0  0  0  1  0  0  0  0  0  0
  187.0330  178.2730  147.8100 N   0  0  0  0  0  1  0  0  0  0  0  0
  1  4  1  0  0  0  0
  1  9  1  0  0  0  0
  2  1  1  0  0  0  0
  3  4  2  0  0  0  0
  5  2  2  0  0  0  0
  5  3  1  0  0  0  0
  6 12  1  6  0  0  0
  6 11  1  0  0  0  0
  8  7  1  0  0  0  0
  9 10  1  6  0  0  0
  9  8  1  0  0  0  0
 10  6  1  0  0  0  0
 11  7  1  0  0  0  0
 13 12  1  0  0  0  0
 14 13  1  0  0  0  0
 15 20  2  0  0  0  0
 16 17  1  0  0  0  0
 17 18  1  0  0  0  0
 18 20  1  0  0  0  0
 18 14  1  1  0  0  0
 19 17  2  0  0  0  0
 19 15  1  0  0  0  0
 22 21  1  0  0  0  0
 22 19  1  0  0  0  0
 23 22  2  0  0  0  0
 24 26  1  6  0  0  0
 24  3  1  0  0  0  0
 24 28  1  0  0  0  0
 25 26  1  0  0  0  0
 28 27  1  1  0  0  0
 28 29  1  0  0  0  0
 29 30  1  0  0  0  0
 30 31  1  0  0  0  0
 31 34  1  6  0  0  0
 31 33  1  0  0  0  0
 33 32  1  0  0  0  0
 34 35  1  0  0  0  0
 35 36  1  0  0  0  0
 36 38  1  6  0  0  0
 36 37  1  0  0  0  0
M  END
>  <MODEL>
9

>  <REMARK>
 VINA RESULT:      -6.9      1.806      4.757
  Name = 
  16 active torsions:
  status: ('A' for Active; 'I' for Inactive)
    1  A    between atoms: C_1  and  C_35
    2  A    between atoms: N_3  and  C_22
    3  A    between atoms: C_8  and  C_29
    4  A    between atoms: C_8  and  C_31
    5  A    between atoms: C_8  and  O_37
    6  A    between atoms: C_10  and  C_21
    7  A    between atoms: C_10  and  C_35
    8  A    between atoms: C_12  and  C_21
    9  A    between atoms: C_13  and  C_32
   10  A    between atoms: C_14  and  C_16
   11  A    between atoms: C_15  and  C_20
   12  A    between atoms: C_17  and  C_30
   13  A    between atoms: C_17  and  O_37
   14  A    between atoms: C_20  and  C_30
   15  A    between atoms: C_20  and  C_38
   16  A    between atoms: C_31  and  C_32
                            x       y       z     vdW  Elec       q    Type
                         _______ _______ _______ _____ _____    ______ ____

>  <TORSDO>
F 16

$$$$
