=
 OpenBabel11042411373D

 35 37  0  0  1  0  0  0  0  0999 V2000
  191.2960  176.6470  145.2080 C   0  0  0  0  0  0  0  0  0  0  0  0
  189.5210  177.1320  146.5590 C   0  0  0  0  0  0  0  0  0  0  0  0
  190.4830  176.8160  147.3620 N   0  0  0  0  0  0  0  0  0  0  0  0
  189.8680  177.0520  145.1090 C   0  0  1  0  0  3  0  0  0  0  0  0
  191.9090  176.0640  144.2460 N   0  0  0  0  0  2  0  0  0  0  0  0
  191.6840  176.4500  146.6320 C   0  0  0  0  0  2  0  0  0  0  0  0
  188.2280  177.4860  147.0550 N   0  0  0  0  0  2  0  0  0  0  0  0
  186.2260  178.0190  145.4720 C   0  0  0  0  0  0  0  0  0  0  0  0
  187.1530  177.7700  146.2000 C   0  0  0  0  0  0  0  0  0  0  0  0
  182.9560  178.9100  142.9440 C   0  0  0  0  0  3  0  0  0  0  0  0
  183.9980  178.9830  145.1270 C   0  0  0  0  0  3  0  0  0  0  0  0
  185.1160  178.3200  144.6140 C   0  0  0  0  0  0  0  0  0  0  0  0
  184.0760  178.2450  142.4210 C   0  0  0  0  0  0  0  0  0  0  0  0
  182.9170  179.2780  144.2920 C   0  0  0  0  0  3  0  0  0  0  0  0
  185.1540  177.9540  143.2650 C   0  0  0  0  0  3  0  0  0  0  0  0
  184.5960  178.0880  138.5750 C   0  0  0  0  0  1  0  0  0  0  0  0
  184.1520  177.8530  141.0440 N   0  0  0  0  0  2  0  0  0  0  0  0
  184.5640  178.6720  139.9420 C   0  0  0  0  0  0  0  0  0  0  0  0
  184.9000  179.8730  140.1080 O   0  0  0  0  0  0  0  0  0  0  0  0
  189.7820  178.3700  144.5040 N   0  0  0  0  0  2  0  0  0  0  0  0
  190.1460  178.2220  143.1590 N   0  0  0  0  0  2  0  0  0  0  0  0
  189.2820  177.1970  142.5940 C   0  0  2  0  0  3  0  0  0  0  0  0
  188.1460  178.7400  140.9470 C   0  0  0  0  0  2  0  0  0  0  0  0
  188.8100  177.9900  139.7940 C   0  0  2  0  0  3  0  0  0  0  0  0
  189.9810  176.4950  141.4280 C   0  0  0  0  0  2  0  0  0  0  0  0
  187.9500  177.8050  142.1400 C   0  0  0  0  0  2  0  0  0  0  0  0
  190.1610  177.4400  140.2400 C   0  0  0  0  0  2  0  0  0  0  0  0
  189.0030  178.8910  138.6700 N   0  0  0  0  0  2  0  0  0  0  0  0
  189.4190  178.0880  137.5270 C   0  0  0  0  0  2  0  0  0  0  0  0
  187.3580  177.5080  136.5100 O   0  0  0  0  0  1  0  0  0  0  0  0
  188.4110  176.9780  137.2570 C   0  0  1  0  0  3  0  0  0  0  0  0
  189.0580  175.8180  136.4970 C   0  0  1  0  0  3  0  0  0  0  0  0
  189.1920  176.1390  135.1440 O   0  0  0  0  0  1  0  0  0  0  0  0
  190.4090  175.5130  137.0610 C   0  0  0  0  0  3  0  0  0  0  0  0
  190.5270  174.7240  137.9850 O   0  0  0  0  0  0  0  0  0  0  0  0
  1  6  1  0  0  0  0
  2  7  1  0  0  0  0
  2  3  2  0  0  0  0
  4 20  1  1  0  0  0
  4  1  1  0  0  0  0
  4  2  1  0  0  0  0
  5  1  2  0  0  0  0
  6  3  1  0  0  0  0
  8  9  3  0  0  0  0
  9  7  1  0  0  0  0
 10 14  1  0  0  0  0
 12 11  1  0  0  0  0
 12  8  1  0  0  0  0
 13 10  2  0  0  0  0
 13 15  1  0  0  0  0
 14 11  2  0  0  0  0
 15 12  2  0  0  0  0
 16 18  1  0  0  0  0
 17 13  1  0  0  0  0
 18 19  2  0  0  0  0
 18 17  1  0  0  0  0
 21 20  1  0  0  0  0
 22 21  1  6  0  0  0
 23 26  1  0  0  0  0
 24 28  1  6  0  0  0
 24 27  1  0  0  0  0
 24 23  1  0  0  0  0
 25 22  1  0  0  0  0
 26 22  1  0  0  0  0
 27 25  1  0  0  0  0
 29 28  1  0  0  0  0
 31 30  1  6  0  0  0
 31 29  1  0  0  0  0
 32 33  1  6  0  0  0
 32 34  1  0  0  0  0
 32 31  1  0  0  0  0
 34 35  2  0  0  0  0
M  END
>  <MODEL>
1

>  <REMARK>
 VINA RESULT:      -8.7      0.000      0.000
  Name = 
  11 active torsions:
  status: ('A' for Active; 'I' for Inactive)
    1  A    between atoms: C_3  and  C_9
    2  A    between atoms: C_3  and  C_35
    3  A    between atoms: C_7  and  N_16
    4  A    between atoms: C_8  and  C_20
    5  A    between atoms: C_12  and  N_21
    6  A    between atoms: C_13  and  N_17
    7  A    between atoms: N_16  and  N_22
    8  A    between atoms: N_17  and  C_34
    9  A    between atoms: C_18  and  N_22
   10  A    between atoms: N_31  and  C_32
   11  A    between atoms: C_34  and  C_35
                            x       y       z     vdW  Elec       q    Type
                         _______ _______ _______ _____ _____    ______ ____

>  <TORSDO>
F 11

$$$$
=
 OpenBabel11042411373D

 35 37  0  0  1  0  0  0  0  0999 V2000
  190.9910  176.9120  145.7860 C   0  0  0  0  0  0  0  0  0  0  0  0
  189.0810  177.4130  146.9310 C   0  0  0  0  0  0  0  0  0  0  0  0
  189.9650  177.1630  147.8400 N   0  0  0  0  0  0  0  0  0  0  0  0
  189.5720  177.2720  145.5280 C   0  0  1  0  0  3  0  0  0  0  0  0
  191.7110  176.3000  144.9210 N   0  0  0  0  0  2  0  0  0  0  0  0
  191.2410  176.7950  147.2500 C   0  0  0  0  0  2  0  0  0  0  0  0
  187.7370  177.7540  147.2790 N   0  0  0  0  0  2  0  0  0  0  0  0
  185.8980  178.1590  145.4760 C   0  0  0  0  0  0  0  0  0  0  0  0
  186.7470  177.9670  146.3090 C   0  0  0  0  0  0  0  0  0  0  0  0
  182.9220  178.8670  142.5570 C   0  0  0  0  0  3  0  0  0  0  0  0
  183.6880  179.0150  144.8470 C   0  0  0  0  0  3  0  0  0  0  0  0
  184.8880  178.3980  144.4850 C   0  0  0  0  0  0  0  0  0  0  0  0
  184.1260  178.2480  142.1850 C   0  0  0  0  0  0  0  0  0  0  0  0
  182.7040  179.2490  143.8830 C   0  0  0  0  0  3  0  0  0  0  0  0
  185.1050  178.0180  143.1570 C   0  0  0  0  0  3  0  0  0  0  0  0
  184.9220  178.1040  138.3850 C   0  0  0  0  0  1  0  0  0  0  0  0
  184.3860  177.8450  140.8340 N   0  0  0  0  0  2  0  0  0  0  0  0
  184.6590  178.7040  139.7200 C   0  0  0  0  0  0  0  0  0  0  0  0
  184.6810  179.9560  139.8480 O   0  0  0  0  0  0  0  0  0  0  0  0
  189.5160  178.5570  144.8510 N   0  0  0  0  0  2  0  0  0  0  0  0
  189.8530  178.3220  143.5110 N   0  0  0  0  0  2  0  0  0  0  0  0
  188.8320  177.4420  142.9620 C   0  0  2  0  0  3  0  0  0  0  0  0
  188.8030  178.5240  140.6790 C   0  0  0  0  0  2  0  0  0  0  0  0
  189.3950  177.2520  140.0750 C   0  0  2  0  0  3  0  0  0  0  0  0
  189.4770  176.1990  142.3460 C   0  0  0  0  0  2  0  0  0  0  0  0
  187.9840  178.1830  141.9240 C   0  0  0  0  0  2  0  0  0  0  0  0
  190.2850  176.5540  141.0980 C   0  0  0  0  0  2  0  0  0  0  0  0
  190.1830  177.5880  138.9010 N   0  0  0  0  0  2  0  0  0  0  0  0
  190.2560  176.3980  138.0630 C   0  0  0  0  0  2  0  0  0  0  0  0
  191.4670  174.3950  137.6900 O   0  0  0  0  0  1  0  0  0  0  0  0
  191.5480  175.6350  138.3260 C   0  0  1  0  0  3  0  0  0  0  0  0
  192.7620  176.4090  137.8070 C   0  0  1  0  0  3  0  0  0  0  0  0
  193.4420  177.0120  138.8680 O   0  0  0  0  0  1  0  0  0  0  0  0
  193.6980  175.4900  137.0880 C   0  0  0  0  0  3  0  0  0  0  0  0
  194.7300  175.9220  136.6000 O   0  0  0  0  0  0  0  0  0  0  0  0
  1  6  1  0  0  0  0
  2  7  1  0  0  0  0
  2  3  2  0  0  0  0
  4 20  1  6  0  0  0
  4  1  1  0  0  0  0
  4  2  1  0  0  0  0
  5  1  2  0  0  0  0
  6  3  1  0  0  0  0
  8  9  3  0  0  0  0
  9  7  1  0  0  0  0
 10 14  1  0  0  0  0
 12 11  1  0  0  0  0
 12  8  1  0  0  0  0
 13 10  2  0  0  0  0
 13 15  1  0  0  0  0
 14 11  2  0  0  0  0
 15 12  2  0  0  0  0
 16 18  1  0  0  0  0
 17 13  1  0  0  0  0
 18 19  2  0  0  0  0
 18 17  1  0  0  0  0
 21 20  1  0  0  0  0
 22 21  1  6  0  0  0
 23 26  1  0  0  0  0
 24 28  1  6  0  0  0
 24 23  1  0  0  0  0
 24 27  1  0  0  0  0
 25 22  1  0  0  0  0
 26 22  1  0  0  0  0
 27 25  1  0  0  0  0
 29 31  1  0  0  0  0
 29 28  1  0  0  0  0
 31 30  1  6  0  0  0
 32 31  1  0  0  0  0
 32 33  1  1  0  0  0
 34 32  1  0  0  0  0
 35 34  2  0  0  0  0
M  END
>  <MODEL>
2

>  <REMARK>
 VINA RESULT:      -8.5      1.420      1.987
  Name = 
  11 active torsions:
  status: ('A' for Active; 'I' for Inactive)
    1  A    between atoms: C_3  and  C_9
    2  A    between atoms: C_3  and  C_35
    3  A    between atoms: C_7  and  N_16
    4  A    between atoms: C_8  and  C_20
    5  A    between atoms: C_12  and  N_21
    6  A    between atoms: C_13  and  N_17
    7  A    between atoms: N_16  and  N_22
    8  A    between atoms: N_17  and  C_34
    9  A    between atoms: C_18  and  N_22
   10  A    between atoms: N_31  and  C_32
   11  A    between atoms: C_34  and  C_35
                            x       y       z     vdW  Elec       q    Type
                         _______ _______ _______ _____ _____    ______ ____

>  <TORSDO>
F 11

$$$$
=
 OpenBabel11042411373D

 35 37  0  0  1  0  0  0  0  0999 V2000
  191.2870  176.7350  145.3210 C   0  0  0  0  0  0  0  0  0  0  0  0
  189.5030  177.1370  146.6870 C   0  0  0  0  0  0  0  0  0  0  0  0
  190.4690  176.8030  147.4790 N   0  0  0  0  0  0  0  0  0  0  0  0
  189.8540  177.1220  145.2360 C   0  0  1  0  0  3  0  0  0  0  0  0
  191.9100  176.2000  144.3370 N   0  0  0  0  0  2  0  0  0  0  0  0
  191.6760  176.4850  146.7360 C   0  0  0  0  0  2  0  0  0  0  0  0
  188.2050  177.4520  147.1950 N   0  0  0  0  0  2  0  0  0  0  0  0
  186.2060  178.0120  145.6160 C   0  0  0  0  0  0  0  0  0  0  0  0
  187.1270  177.7550  146.3500 C   0  0  0  0  0  0  0  0  0  0  0  0
  182.9950  178.9160  143.0190 C   0  0  0  0  0  3  0  0  0  0  0  0
  183.9920  178.9900  145.2220 C   0  0  0  0  0  3  0  0  0  0  0  0
  185.1170  178.3180  144.7340 C   0  0  0  0  0  0  0  0  0  0  0  0
  184.1210  178.2430  142.5210 C   0  0  0  0  0  0  0  0  0  0  0  0
  182.9310  179.2890  144.3640 C   0  0  0  0  0  3  0  0  0  0  0  0
  185.1800  177.9470  143.3880 C   0  0  0  0  0  3  0  0  0  0  0  0
  184.7290  178.0690  138.6890 C   0  0  0  0  0  1  0  0  0  0  0  0
  184.2230  177.8470  141.1470 N   0  0  0  0  0  2  0  0  0  0  0  0
  184.6750  178.6560  140.0530 C   0  0  0  0  0  0  0  0  0  0  0  0
  185.0270  179.8520  140.2250 O   0  0  0  0  0  0  0  0  0  0  0  0
  189.7490  178.4630  144.6850 N   0  0  0  0  0  2  0  0  0  0  0  0
  189.9230  178.3450  143.3000 N   0  0  0  0  0  2  0  0  0  0  0  0
  188.8730  177.4650  142.8110 C   0  0  2  0  0  3  0  0  0  0  0  0
  188.5580  178.6820  140.6190 C   0  0  0  0  0  2  0  0  0  0  0  0
  189.1150  177.4710  139.8730 C   0  0  2  0  0  3  0  0  0  0  0  0
  189.4800  176.2850  142.0490 C   0  0  0  0  0  2  0  0  0  0  0  0
  187.8930  178.2370  141.9210 C   0  0  0  0  0  2  0  0  0  0  0  0
  190.1330  176.7440  140.7450 C   0  0  0  0  0  2  0  0  0  0  0  0
  189.7570  177.9050  138.6430 N   0  0  0  0  0  2  0  0  0  0  0  0
  189.7530  176.7770  137.7210 C   0  0  0  0  0  2  0  0  0  0  0  0
  190.1580  176.7590  135.3850 O   0  0  0  0  0  1  0  0  0  0  0  0
  189.2520  177.2080  136.3480 C   0  0  1  0  0  3  0  0  0  0  0  0
  187.8620  176.6380  136.0620 C   0  0  1  0  0  3  0  0  0  0  0  0
  187.3790  175.9560  137.1820 O   0  0  0  0  0  1  0  0  0  0  0  0
  186.9080  177.7360  135.7130 C   0  0  0  0  0  3  0  0  0  0  0  0
  185.8490  177.4800  135.1640 O   0  0  0  0  0  0  0  0  0  0  0  0
  1  6  1  0  0  0  0
  2  7  1  0  0  0  0
  2  3  2  0  0  0  0
  4 20  1  1  0  0  0
  4  1  1  0  0  0  0
  4  2  1  0  0  0  0
  5  1  2  0  0  0  0
  6  3  1  0  0  0  0
  8  9  3  0  0  0  0
  9  7  1  0  0  0  0
 10 14  1  0  0  0  0
 12 11  1  0  0  0  0
 12  8  1  0  0  0  0
 13 10  2  0  0  0  0
 13 15  1  0  0  0  0
 14 11  2  0  0  0  0
 15 12  2  0  0  0  0
 16 18  1  0  0  0  0
 17 13  1  0  0  0  0
 18 19  2  0  0  0  0
 18 17  1  0  0  0  0
 21 20  1  0  0  0  0
 22 21  1  6  0  0  0
 23 26  1  0  0  0  0
 24 28  1  6  0  0  0
 24 23  1  0  0  0  0
 24 27  1  0  0  0  0
 25 22  1  0  0  0  0
 26 22  1  0  0  0  0
 27 25  1  0  0  0  0
 29 28  1  0  0  0  0
 31 30  1  6  0  0  0
 31 29  1  0  0  0  0
 32 31  1  0  0  0  0
 32 33  1  1  0  0  0
 34 32  1  0  0  0  0
 35 34  2  0  0  0  0
M  END
>  <MODEL>
3

>  <REMARK>
 VINA RESULT:      -8.3      0.889      1.549
  Name = 
  11 active torsions:
  status: ('A' for Active; 'I' for Inactive)
    1  A    between atoms: C_3  and  C_9
    2  A    between atoms: C_3  and  C_35
    3  A    between atoms: C_7  and  N_16
    4  A    between atoms: C_8  and  C_20
    5  A    between atoms: C_12  and  N_21
    6  A    between atoms: C_13  and  N_17
    7  A    between atoms: N_16  and  N_22
    8  A    between atoms: N_17  and  C_34
    9  A    between atoms: C_18  and  N_22
   10  A    between atoms: N_31  and  C_32
   11  A    between atoms: C_34  and  C_35
                            x       y       z     vdW  Elec       q    Type
                         _______ _______ _______ _____ _____    ______ ____

>  <TORSDO>
F 11

$$$$
=
 OpenBabel11042411373D

 35 37  0  0  1  0  0  0  0  0999 V2000
  188.7520  177.1560  147.4050 C   0  0  0  0  0  0  0  0  0  0  0  0
  186.9450  178.5360  147.5940 C   0  0  0  0  0  0  0  0  0  0  0  0
  187.5790  178.6530  148.7140 N   0  0  0  0  0  0  0  0  0  0  0  0
  187.5580  177.5780  146.6270 C   0  0  1  0  0  3  0  0  0  0  0  0
  189.3640  176.0540  147.1750 N   0  0  0  0  0  2  0  0  0  0  0  0
  188.7520  177.7970  148.7500 C   0  0  0  0  0  2  0  0  0  0  0  0
  185.7330  179.2550  147.3510 N   0  0  0  0  0  2  0  0  0  0  0  0
  184.3690  178.9610  145.1470 C   0  0  0  0  0  0  0  0  0  0  0  0
  184.9960  179.0950  146.1680 C   0  0  0  0  0  0  0  0  0  0  0  0
  182.1920  178.5140  141.5510 C   0  0  0  0  0  3  0  0  0  0  0  0
  182.2480  179.0090  143.9190 C   0  0  0  0  0  3  0  0  0  0  0  0
  183.6310  178.8080  143.9270 C   0  0  0  0  0  0  0  0  0  0  0  0
  183.5800  178.3120  141.5500 C   0  0  0  0  0  0  0  0  0  0  0  0
  181.5270  178.8610  142.7310 C   0  0  0  0  0  3  0  0  0  0  0  0
  184.2930  178.4620  142.7450 C   0  0  0  0  0  3  0  0  0  0  0  0
  185.4860  178.3010  138.1660 C   0  0  0  0  0  1  0  0  0  0  0  0
  184.2950  177.9570  140.3590 N   0  0  0  0  0  2  0  0  0  0  0  0
  184.7400  178.8480  139.3290 C   0  0  0  0  0  0  0  0  0  0  0  0
  184.5130  180.0850  139.3890 O   0  0  0  0  0  0  0  0  0  0  0  0
  187.9870  178.2840  145.4310 N   0  0  0  0  0  2  0  0  0  0  0  0
  188.6640  177.3520  144.6330 N   0  0  0  0  0  2  0  0  0  0  0  0
  190.0130  177.8590  144.4360 C   0  0  2  0  0  3  0  0  0  0  0  0
  190.7410  175.9820  142.9090 C   0  0  0  0  0  2  0  0  0  0  0  0
  190.8270  176.9690  141.7460 C   0  0  2  0  0  3  0  0  0  0  0  0
  190.0520  178.8200  143.2460 C   0  0  0  0  0  2  0  0  0  0  0  0
  190.9980  176.7030  144.2320 C   0  0  0  0  0  2  0  0  0  0  0  0
  189.8020  178.0830  141.9300 C   0  0  0  0  0  2  0  0  0  0  0  0
  190.5670  176.2760  140.4950 N   0  0  0  0  0  2  0  0  0  0  0  0
  190.7400  177.2380  139.4140 C   0  0  0  0  0  2  0  0  0  0  0  0
  190.7050  175.1610  138.2710 O   0  0  0  0  0  1  0  0  0  0  0  0
  190.6730  176.5410  138.0610 C   0  0  1  0  0  3  0  0  0  0  0  0
  189.3990  176.9240  137.3050 C   0  0  1  0  0  3  0  0  0  0  0  0
  188.2770  176.3960  137.9470 O   0  0  0  0  0  1  0  0  0  0  0  0
  189.2630  178.4120  137.2310 C   0  0  0  0  0  3  0  0  0  0  0  0
  188.7710  179.0310  138.1590 O   0  0  0  0  0  0  0  0  0  0  0  0
  1  6  1  0  0  0  0
  2  3  2  0  0  0  0
  3  6  1  0  0  0  0
  4 20  1  6  0  0  0
  4  1  1  0  0  0  0
  4  2  1  0  0  0  0
  5  1  2  0  0  0  0
  7  2  1  0  0  0  0
  8  9  3  0  0  0  0
  9  7  1  0  0  0  0
 10 14  1  0  0  0  0
 11 12  1  0  0  0  0
 12  8  1  0  0  0  0
 13 10  2  0  0  0  0
 13 15  1  0  0  0  0
 14 11  2  0  0  0  0
 15 12  2  0  0  0  0
 16 18  1  0  0  0  0
 17 13  1  0  0  0  0
 18 19  2  0  0  0  0
 18 17  1  0  0  0  0
 21 20  1  0  0  0  0
 22 21  1  6  0  0  0
 23 26  1  0  0  0  0
 24 28  1  6  0  0  0
 24 27  1  0  0  0  0
 24 23  1  0  0  0  0
 25 22  1  0  0  0  0
 26 22  1  0  0  0  0
 27 25  1  0  0  0  0
 29 28  1  0  0  0  0
 31 30  1  1  0  0  0
 31 29  1  0  0  0  0
 32 33  1  1  0  0  0
 32 31  1  0  0  0  0
 34 32  1  0  0  0  0
 34 35  2  0  0  0  0
M  END
>  <MODEL>
4

>  <REMARK>
 VINA RESULT:      -7.7      1.628      2.761
  Name = 
  11 active torsions:
  status: ('A' for Active; 'I' for Inactive)
    1  A    between atoms: C_3  and  C_9
    2  A    between atoms: C_3  and  C_35
    3  A    between atoms: C_7  and  N_16
    4  A    between atoms: C_8  and  C_20
    5  A    between atoms: C_12  and  N_21
    6  A    between atoms: C_13  and  N_17
    7  A    between atoms: N_16  and  N_22
    8  A    between atoms: N_17  and  C_34
    9  A    between atoms: C_18  and  N_22
   10  A    between atoms: N_31  and  C_32
   11  A    between atoms: C_34  and  C_35
                            x       y       z     vdW  Elec       q    Type
                         _______ _______ _______ _____ _____    ______ ____

>  <TORSDO>
F 11

$$$$
=
 OpenBabel11042411373D

 35 37  0  0  1  0  0  0  0  0999 V2000
  190.9770  176.7880  145.7970 C   0  0  0  0  0  0  0  0  0  0  0  0
  189.0520  177.4000  146.8590 C   0  0  0  0  0  0  0  0  0  0  0  0
  189.9080  177.1900  147.8040 N   0  0  0  0  0  0  0  0  0  0  0  0
  189.5730  177.1610  145.4810 C   0  0  1  0  0  3  0  0  0  0  0  0
  191.7030  176.1070  144.9900 N   0  0  0  0  0  2  0  0  0  0  0  0
  191.1890  176.7590  147.2710 C   0  0  0  0  0  2  0  0  0  0  0  0
  187.7090  177.7920  147.1510 N   0  0  0  0  0  2  0  0  0  0  0  0
  185.9230  178.1200  145.2790 C   0  0  0  0  0  0  0  0  0  0  0  0
  186.7460  177.9640  146.1450 C   0  0  0  0  0  0  0  0  0  0  0  0
  183.0450  178.6940  142.2360 C   0  0  0  0  0  3  0  0  0  0  0  0
  185.2670  178.0220  142.9180 C   0  0  0  0  0  3  0  0  0  0  0  0
  184.9470  178.3160  144.2470 C   0  0  0  0  0  0  0  0  0  0  0  0
  182.7150  178.9900  143.5670 C   0  0  0  0  0  0  0  0  0  0  0  0
  184.3160  178.2110  141.9120 C   0  0  0  0  0  3  0  0  0  0  0  0
  183.6740  178.7970  144.5680 C   0  0  0  0  0  3  0  0  0  0  0  0
  178.9310  179.4440  144.3150 C   0  0  0  0  0  1  0  0  0  0  0  0
  181.4210  179.4850  143.9370 N   0  0  0  0  0  2  0  0  0  0  0  0
  180.1800  178.7710  143.8730 C   0  0  0  0  0  0  0  0  0  0  0  0
  180.1270  177.5870  143.4490 O   0  0  0  0  0  0  0  0  0  0  0  0
  189.5630  178.4010  144.7230 N   0  0  0  0  0  2  0  0  0  0  0  0
  190.0500  178.0980  143.4450 N   0  0  0  0  0  2  0  0  0  0  0  0
  189.1090  177.1670  142.8390 C   0  0  2  0  0  3  0  0  0  0  0  0
  188.9620  178.3950  140.6360 C   0  0  0  0  0  2  0  0  0  0  0  0
  189.6620  177.2260  139.9450 C   0  0  2  0  0  3  0  0  0  0  0  0
  189.8590  176.0330  142.1380 C   0  0  0  0  0  2  0  0  0  0  0  0
  188.1870  177.8970  141.8560 C   0  0  0  0  0  2  0  0  0  0  0  0
  190.6200  176.5450  140.9150 C   0  0  0  0  0  2  0  0  0  0  0  0
  190.4060  177.7120  138.7940 N   0  0  0  0  0  2  0  0  0  0  0  0
  190.3170  176.6990  137.7510 C   0  0  0  0  0  2  0  0  0  0  0  0
  191.2810  174.6930  136.9340 O   0  0  0  0  0  1  0  0  0  0  0  0
  191.4950  175.7360  137.8360 C   0  0  1  0  0  3  0  0  0  0  0  0
  192.8120  176.4450  137.5110 C   0  0  1  0  0  3  0  0  0  0  0  0
  193.4180  176.9030  138.6830 O   0  0  0  0  0  1  0  0  0  0  0  0
  193.7480  175.5110  136.8110 C   0  0  0  0  0  3  0  0  0  0  0  0
  194.8310  175.9090  136.4150 O   0  0  0  0  0  0  0  0  0  0  0  0
  1  6  1  0  0  0  0
  2  7  1  0  0  0  0
  2  3  2  0  0  0  0
  4 20  1  6  0  0  0
  4  1  1  0  0  0  0
  4  2  1  0  0  0  0
  5  1  2  0  0  0  0
  6  3  1  0  0  0  0
  8  9  3  0  0  0  0
  9  7  1  0  0  0  0
 10 13  1  0  0  0  0
 11 12  2  0  0  0  0
 12 15  1  0  0  0  0
 12  8  1  0  0  0  0
 13 17  1  0  0  0  0
 13 15  2  0  0  0  0
 14 10  2  0  0  0  0
 14 11  1  0  0  0  0
 18 17  1  0  0  0  0
 18 16  1  0  0  0  0
 19 18  2  0  0  0  0
 21 20  1  0  0  0  0
 22 21  1  6  0  0  0
 23 26  1  0  0  0  0
 24 28  1  6  0  0  0
 24 23  1  0  0  0  0
 24 27  1  0  0  0  0
 25 22  1  0  0  0  0
 26 22  1  0  0  0  0
 27 25  1  0  0  0  0
 29 31  1  0  0  0  0
 29 28  1  0  0  0  0
 31 30  1  6  0  0  0
 32 31  1  0  0  0  0
 32 33  1  1  0  0  0
 34 32  1  0  0  0  0
 35 34  2  0  0  0  0
M  END
>  <MODEL>
5

>  <REMARK>
 VINA RESULT:      -7.6      2.093      2.996
  Name = 
  11 active torsions:
  status: ('A' for Active; 'I' for Inactive)
    1  A    between atoms: C_3  and  C_9
    2  A    between atoms: C_3  and  C_35
    3  A    between atoms: C_7  and  N_16
    4  A    between atoms: C_8  and  C_20
    5  A    between atoms: C_12  and  N_21
    6  A    between atoms: C_13  and  N_17
    7  A    between atoms: N_16  and  N_22
    8  A    between atoms: N_17  and  C_34
    9  A    between atoms: C_18  and  N_22
   10  A    between atoms: N_31  and  C_32
   11  A    between atoms: C_34  and  C_35
                            x       y       z     vdW  Elec       q    Type
                         _______ _______ _______ _____ _____    ______ ____

>  <TORSDO>
F 11

$$$$
=
 OpenBabel11042411373D

 35 37  0  0  1  0  0  0  0  0999 V2000
  190.8980  176.2840  144.0740 C   0  0  0  0  0  0  0  0  0  0  0  0
  189.4270  177.3160  145.4810 C   0  0  0  0  0  0  0  0  0  0  0  0
  190.4890  177.1140  146.1890 N   0  0  0  0  0  0  0  0  0  0  0  0
  189.5090  176.8130  144.0780 C   0  0  1  0  0  3  0  0  0  0  0  0
  191.2910  175.3970  143.2360 N   0  0  0  0  0  2  0  0  0  0  0  0
  191.5150  176.4280  145.4220 C   0  0  0  0  0  2  0  0  0  0  0  0
  188.2700  177.9380  146.0430 N   0  0  0  0  0  2  0  0  0  0  0  0
  186.0640  178.2480  144.6870 C   0  0  0  0  0  0  0  0  0  0  0  0
  187.0850  178.1090  145.3110 C   0  0  0  0  0  0  0  0  0  0  0  0
  182.4710  178.7090  142.5060 C   0  0  0  0  0  3  0  0  0  0  0  0
  183.6920  178.8620  144.5890 C   0  0  0  0  0  3  0  0  0  0  0  0
  184.8450  178.4030  143.9460 C   0  0  0  0  0  0  0  0  0  0  0  0
  183.6250  178.2490  141.8520 C   0  0  0  0  0  0  0  0  0  0  0  0
  182.5040  179.0150  143.8690 C   0  0  0  0  0  3  0  0  0  0  0  0
  184.8100  178.0990  142.5820 C   0  0  0  0  0  3  0  0  0  0  0  0
  184.1770  178.1750  138.0080 C   0  0  0  0  0  1  0  0  0  0  0  0
  183.6290  177.9280  140.4550 N   0  0  0  0  0  2  0  0  0  0  0  0
  184.2660  178.6700  139.4070 C   0  0  0  0  0  0  0  0  0  0  0  0
  184.8990  179.7310  139.6470 O   0  0  0  0  0  0  0  0  0  0  0  0
  189.4130  177.9230  143.1450 N   0  0  0  0  0  2  0  0  0  0  0  0
  189.0260  177.3830  141.9110 N   0  0  0  0  0  2  0  0  0  0  0  0
  189.6160  178.2170  140.8760 C   0  0  2  0  0  3  0  0  0  0  0  0
  190.3730  176.2880  139.4320 C   0  0  0  0  0  2  0  0  0  0  0  0
  189.3580  176.6940  138.3650 C   0  0  2  0  0  3  0  0  0  0  0  0
  188.5680  178.5750  139.8190 C   0  0  0  0  0  2  0  0  0  0  0  0
  190.8150  177.5120  140.2330 C   0  0  0  0  0  2  0  0  0  0  0  0
  188.1440  177.3420  139.0210 C   0  0  0  0  0  2  0  0  0  0  0  0
  188.9350  175.5210  137.6190 N   0  0  0  0  0  2  0  0  0  0  0  0
  187.5250  175.6890  137.2950 C   0  0  0  0  0  2  0  0  0  0  0  0
  188.2470  174.0510  135.7410 O   0  0  0  0  0  1  0  0  0  0  0  0
  187.1120  174.7330  136.1820 C   0  0  1  0  0  3  0  0  0  0  0  0
  186.0620  173.7350  136.6720 C   0  0  1  0  0  3  0  0  0  0  0  0
  186.5100  173.0880  137.8260 O   0  0  0  0  0  1  0  0  0  0  0  0
  184.7760  174.4370  136.9750 C   0  0  0  0  0  3  0  0  0  0  0  0
  184.2450  175.1400  136.1310 O   0  0  0  0  0  0  0  0  0  0  0  0
  1  4  1  0  0  0  0
  1  6  1  0  0  0  0
  2  7  1  0  0  0  0
  2  3  2  0  0  0  0
  4 20  1  6  0  0  0
  4  2  1  0  0  0  0
  5  1  2  0  0  0  0
  6  3  1  0  0  0  0
  8  9  3  0  0  0  0
  9  7  1  0  0  0  0
 10 14  1  0  0  0  0
 12 11  1  0  0  0  0
 12  8  1  0  0  0  0
 13 10  2  0  0  0  0
 13 15  1  0  0  0  0
 14 11  2  0  0  0  0
 15 12  2  0  0  0  0
 16 18  1  0  0  0  0
 17 13  1  0  0  0  0
 18 19  2  0  0  0  0
 18 17  1  0  0  0  0
 21 20  1  0  0  0  0
 22 21  1  1  0  0  0
 23 26  1  0  0  0  0
 24 28  1  1  0  0  0
 24 27  1  0  0  0  0
 24 23  1  0  0  0  0
 25 22  1  0  0  0  0
 26 22  1  0  0  0  0
 27 25  1  0  0  0  0
 29 28  1  0  0  0  0
 31 30  1  1  0  0  0
 31 32  1  0  0  0  0
 31 29  1  0  0  0  0
 32 34  1  0  0  0  0
 32 33  1  1  0  0  0
 35 34  2  0  0  0  0
M  END
>  <MODEL>
6

>  <REMARK>
 VINA RESULT:      -7.6      1.814      2.541
  Name = 
  11 active torsions:
  status: ('A' for Active; 'I' for Inactive)
    1  A    between atoms: C_3  and  C_9
    2  A    between atoms: C_3  and  C_35
    3  A    between atoms: C_7  and  N_16
    4  A    between atoms: C_8  and  C_20
    5  A    between atoms: C_12  and  N_21
    6  A    between atoms: C_13  and  N_17
    7  A    between atoms: N_16  and  N_22
    8  A    between atoms: N_17  and  C_34
    9  A    between atoms: C_18  and  N_22
   10  A    between atoms: N_31  and  C_32
   11  A    between atoms: C_34  and  C_35
                            x       y       z     vdW  Elec       q    Type
                         _______ _______ _______ _____ _____    ______ ____

>  <TORSDO>
F 11

$$$$
=
 OpenBabel11042411373D

 35 37  0  0  1  0  0  0  0  0999 V2000
  186.9630  178.2520  147.3460 C   0  0  0  0  0  0  0  0  0  0  0  0
  188.9490  177.5080  146.5020 C   0  0  0  0  0  0  0  0  0  0  0  0
  189.0820  177.4480  147.7860 N   0  0  0  0  0  0  0  0  0  0  0  0
  187.6330  178.0360  146.0360 C   0  0  1  0  0  3  0  0  0  0  0  0
  185.9820  179.0640  147.4880 N   0  0  0  0  0  2  0  0  0  0  0  0
  187.8900  177.9250  148.4660 C   0  0  0  0  0  2  0  0  0  0  0  0
  190.0150  177.1290  145.6290 N   0  0  0  0  0  2  0  0  0  0  0  0
  189.8230  177.3560  143.0380 C   0  0  0  0  0  0  0  0  0  0  0  0
  189.9150  177.2470  144.2350 C   0  0  0  0  0  0  0  0  0  0  0  0
  189.4740  177.7620  138.8440 C   0  0  0  0  0  3  0  0  0  0  0  0
  188.6070  178.1630  141.0670 C   0  0  0  0  0  3  0  0  0  0  0  0
  189.7050  177.4930  141.6150 C   0  0  0  0  0  0  0  0  0  0  0  0
  190.5800  177.0900  139.3860 C   0  0  0  0  0  0  0  0  0  0  0  0
  188.4910  178.2980  139.6810 C   0  0  0  0  0  3  0  0  0  0  0  0
  190.6870  176.9600  140.7760 C   0  0  0  0  0  3  0  0  0  0  0  0
  192.7310  174.8560  137.0470 C   0  0  0  0  0  1  0  0  0  0  0  0
  191.6090  176.5300  138.5590 N   0  0  0  0  0  2  0  0  0  0  0  0
  191.5700  175.2700  137.8780 C   0  0  0  0  0  0  0  0  0  0  0  0
  190.5740  174.5050  137.9700 O   0  0  0  0  0  0  0  0  0  0  0  0
  186.9200  177.0090  145.2940 N   0  0  0  0  0  2  0  0  0  0  0  0
  185.6690  177.5460  144.9620 N   0  0  0  0  0  2  0  0  0  0  0  0
  185.9130  178.7030  144.1130 C   0  0  2  0  0  3  0  0  0  0  0  0
  184.5080  177.8700  142.1850 C   0  0  0  0  0  2  0  0  0  0  0  0
  183.5070  178.9970  142.4360 C   0  0  2  0  0  3  0  0  0  0  0  0
  184.8700  179.7890  144.3820 C   0  0  0  0  0  2  0  0  0  0  0  0
  185.9040  178.2980  142.6350 C   0  0  0  0  0  2  0  0  0  0  0  0
  183.4810  179.3510  143.9190 C   0  0  0  0  0  2  0  0  0  0  0  0
  182.1800  178.5750  142.0170 N   0  0  0  0  0  2  0  0  0  0  0  0
  182.3000  177.9980  140.6850 C   0  0  0  0  0  2  0  0  0  0  0  0
  180.8900  179.8710  140.3340 O   0  0  0  0  0  1  0  0  0  0  0  0
  181.5810  178.8640  139.6580 C   0  0  1  0  0  3  0  0  0  0  0  0
  182.5700  179.4850  138.6690 C   0  0  1  0  0  3  0  0  0  0  0  0
  182.5810  180.8750  138.8020 O   0  0  0  0  0  1  0  0  0  0  0  0
  183.9500  178.9610  138.9130 C   0  0  0  0  0  3  0  0  0  0  0  0
  184.8970  179.7290  138.9780 O   0  0  0  0  0  0  0  0  0  0  0  0
  1  5  2  0  0  0  0
  1  6  1  0  0  0  0
  2  3  2  0  0  0  0
  3  6  1  0  0  0  0
  4 20  1  6  0  0  0
  4  2  1  0  0  0  0
  4  1  1  0  0  0  0
  7  2  1  0  0  0  0
  8  9  3  0  0  0  0
  9  7  1  0  0  0  0
 10 13  2  0  0  0  0
 10 14  1  0  0  0  0
 11 12  1  0  0  0  0
 12  8  1  0  0  0  0
 13 15  1  0  0  0  0
 14 11  2  0  0  0  0
 15 12  2  0  0  0  0
 16 18  1  0  0  0  0
 17 13  1  0  0  0  0
 18 19  2  0  0  0  0
 18 17  1  0  0  0  0
 21 20  1  0  0  0  0
 22 25  1  0  0  0  0
 22 21  1  1  0  0  0
 23 24  1  0  0  0  0
 23 26  1  0  0  0  0
 24 28  1  1  0  0  0
 24 27  1  0  0  0  0
 26 22  1  0  0  0  0
 27 25  1  0  0  0  0
 29 28  1  0  0  0  0
 31 30  1  1  0  0  0
 31 29  1  0  0  0  0
 32 33  1  1  0  0  0
 32 34  1  0  0  0  0
 32 31  1  0  0  0  0
 34 35  2  0  0  0  0
M  END
>  <MODEL>
7

>  <REMARK>
 VINA RESULT:      -7.4      1.863      6.322
  Name = 
  11 active torsions:
  status: ('A' for Active; 'I' for Inactive)
    1  A    between atoms: C_3  and  C_9
    2  A    between atoms: C_3  and  C_35
    3  A    between atoms: C_7  and  N_16
    4  A    between atoms: C_8  and  C_20
    5  A    between atoms: C_12  and  N_21
    6  A    between atoms: C_13  and  N_17
    7  A    between atoms: N_16  and  N_22
    8  A    between atoms: N_17  and  C_34
    9  A    between atoms: C_18  and  N_22
   10  A    between atoms: N_31  and  C_32
   11  A    between atoms: C_34  and  C_35
                            x       y       z     vdW  Elec       q    Type
                         _______ _______ _______ _____ _____    ______ ____

>  <TORSDO>
F 11

$$$$
=
 OpenBabel11042411373D

 35 37  0  0  1  0  0  0  0  0999 V2000
  188.7010  177.2630  147.5830 C   0  0  0  0  0  0  0  0  0  0  0  0
  186.8230  178.5350  147.3340 C   0  0  0  0  0  0  0  0  0  0  0  0
  187.1320  178.6280  148.5860 N   0  0  0  0  0  0  0  0  0  0  0  0
  187.7280  177.6610  146.5320 C   0  0  1  0  0  3  0  0  0  0  0  0
  189.4210  176.2070  147.4840 N   0  0  0  0  0  2  0  0  0  0  0  0
  188.3070  177.8330  148.9010 C   0  0  0  0  0  2  0  0  0  0  0  0
  185.6740  179.2010  146.8050 N   0  0  0  0  0  2  0  0  0  0  0  0
  184.9550  178.9520  144.3100 C   0  0  0  0  0  0  0  0  0  0  0  0
  185.2850  179.0630  145.4640 C   0  0  0  0  0  0  0  0  0  0  0  0
  183.8100  178.5920  140.2560 C   0  0  0  0  0  3  0  0  0  0  0  0
  185.5290  178.9220  141.9270 C   0  0  0  0  0  3  0  0  0  0  0  0
  184.5650  178.8310  142.9350 C   0  0  0  0  0  0  0  0  0  0  0  0
  182.8370  178.4980  141.2630 C   0  0  0  0  0  0  0  0  0  0  0  0
  185.1520  178.8030  140.5870 C   0  0  0  0  0  3  0  0  0  0  0  0
  183.2240  178.6190  142.6020 C   0  0  0  0  0  3  0  0  0  0  0  0
  179.4280  177.1190  140.0120 C   0  0  0  0  0  1  0  0  0  0  0  0
  181.4520  178.2800  140.9620 N   0  0  0  0  0  2  0  0  0  0  0  0
  180.8990  177.1910  140.2130 C   0  0  0  0  0  0  0  0  0  0  0  0
  181.6320  176.2940  139.7220 O   0  0  0  0  0  0  0  0  0  0  0  0
  188.4100  178.4480  145.5180 N   0  0  0  0  0  2  0  0  0  0  0  0
  188.8360  177.5520  144.5290 N   0  0  0  0  0  2  0  0  0  0  0  0
  190.2740  177.7230  144.3880 C   0  0  2  0  0  3  0  0  0  0  0  0
  190.5620  175.8560  142.7110 C   0  0  0  0  0  2  0  0  0  0  0  0
  190.9240  176.8820  141.6390 C   0  0  2  0  0  3  0  0  0  0  0  0
  190.5840  178.7380  143.2860 C   0  0  0  0  0  2  0  0  0  0  0  0
  190.9500  176.3790  144.0930 C   0  0  0  0  0  2  0  0  0  0  0  0
  190.2000  178.1960  141.9100 C   0  0  0  0  0  2  0  0  0  0  0  0
  190.5390  176.3800  140.3300 N   0  0  0  0  0  2  0  0  0  0  0  0
  189.8000  177.4370  139.6520 C   0  0  0  0  0  2  0  0  0  0  0  0
  191.0670  176.4540  137.9060 O   0  0  0  0  0  1  0  0  0  0  0  0
  190.1870  177.5020  138.1790 C   0  0  1  0  0  3  0  0  0  0  0  0
  188.9540  177.3960  137.2790 C   0  0  1  0  0  3  0  0  0  0  0  0
  187.9120  176.7600  137.9570 O   0  0  0  0  0  1  0  0  0  0  0  0
  188.5010  178.7560  136.8530 C   0  0  0  0  0  3  0  0  0  0  0  0
  188.9260  179.7510  137.4160 O   0  0  0  0  0  0  0  0  0  0  0  0
  1  6  1  0  0  0  0
  2  3  2  0  0  0  0
  3  6  1  0  0  0  0
  4 20  1  6  0  0  0
  4  2  1  0  0  0  0
  4  1  1  0  0  0  0
  5  1  2  0  0  0  0
  7  2  1  0  0  0  0
  8  9  3  0  0  0  0
  9  7  1  0  0  0  0
 10 14  2  0  0  0  0
 10 13  1  0  0  0  0
 11 12  2  0  0  0  0
 12  8  1  0  0  0  0
 13 15  2  0  0  0  0
 14 11  1  0  0  0  0
 15 12  1  0  0  0  0
 16 18  1  0  0  0  0
 17 13  1  0  0  0  0
 18 17  1  0  0  0  0
 19 18  2  0  0  0  0
 21 20  1  0  0  0  0
 22 21  1  6  0  0  0
 23 26  1  0  0  0  0
 24 28  1  6  0  0  0
 24 27  1  0  0  0  0
 24 23  1  0  0  0  0
 25 22  1  0  0  0  0
 26 22  1  0  0  0  0
 27 25  1  0  0  0  0
 29 28  1  0  0  0  0
 31 30  1  6  0  0  0
 31 29  1  0  0  0  0
 32 33  1  1  0  0  0
 32 31  1  0  0  0  0
 34 32  1  0  0  0  0
 34 35  2  0  0  0  0
M  END
>  <MODEL>
8

>  <REMARK>
 VINA RESULT:      -7.4      2.105      3.316
  Name = 
  11 active torsions:
  status: ('A' for Active; 'I' for Inactive)
    1  A    between atoms: C_3  and  C_9
    2  A    between atoms: C_3  and  C_35
    3  A    between atoms: C_7  and  N_16
    4  A    between atoms: C_8  and  C_20
    5  A    between atoms: C_12  and  N_21
    6  A    between atoms: C_13  and  N_17
    7  A    between atoms: N_16  and  N_22
    8  A    between atoms: N_17  and  C_34
    9  A    between atoms: C_18  and  N_22
   10  A    between atoms: N_31  and  C_32
   11  A    between atoms: C_34  and  C_35
                            x       y       z     vdW  Elec       q    Type
                         _______ _______ _______ _____ _____    ______ ____

>  <TORSDO>
F 11

$$$$
=
 OpenBabel11042411373D

 35 37  0  0  1  0  0  0  0  0999 V2000
  186.9700  176.9190  136.5510 C   0  0  0  0  0  0  0  0  0  0  0  0
  188.8220  177.3100  137.8270 C   0  0  0  0  0  0  0  0  0  0  0  0
  189.2590  177.2080  136.6150 N   0  0  0  0  0  0  0  0  0  0  0  0
  187.3480  177.1230  137.9750 C   0  0  1  0  0  3  0  0  0  0  0  0
  185.8890  176.3210  136.2090 N   0  0  0  0  0  2  0  0  0  0  0  0
  188.1810  176.9250  135.6840 C   0  0  0  0  0  2  0  0  0  0  0  0
  189.7140  177.5440  138.9190 N   0  0  0  0  0  2  0  0  0  0  0  0
  188.8870  177.6480  141.3900 C   0  0  0  0  0  0  0  0  0  0  0  0
  189.2680  177.5950  140.2480 C   0  0  0  0  0  0  0  0  0  0  0  0
  187.5700  177.8630  145.4020 C   0  0  0  0  0  3  0  0  0  0  0  0
  189.3720  177.7370  143.7920 C   0  0  0  0  0  3  0  0  0  0  0  0
  188.4400  177.7200  142.7510 C   0  0  0  0  0  0  0  0  0  0  0  0
  186.6280  177.8480  144.3630 C   0  0  0  0  0  0  0  0  0  0  0  0
  188.9380  177.8080  145.1180 C   0  0  0  0  0  3  0  0  0  0  0  0
  187.0720  177.7770  143.0370 C   0  0  0  0  0  3  0  0  0  0  0  0
  182.8980  178.8870  144.6740 C   0  0  0  0  0  1  0  0  0  0  0  0
  185.2180  177.9060  144.6150 N   0  0  0  0  0  2  0  0  0  0  0  0
  184.3460  179.0140  144.3600 C   0  0  0  0  0  0  0  0  0  0  0  0
  184.7800  180.0910  143.8760 O   0  0  0  0  0  0  0  0  0  0  0  0
  186.7380  178.3480  138.4650 N   0  0  0  0  0  2  0  0  0  0  0  0
  185.3970  178.0490  138.7400 N   0  0  0  0  0  2  0  0  0  0  0  0
  184.9170  179.0590  139.6700 C   0  0  2  0  0  3  0  0  0  0  0  0
  182.6000  179.2040  138.6720 C   0  0  0  0  0  2  0  0  0  0  0  0
  182.0190  178.5930  139.9460 C   0  0  2  0  0  3  0  0  0  0  0  0
  184.3210  178.3980  140.9140 C   0  0  0  0  0  2  0  0  0  0  0  0
  183.8840  179.9680  138.9930 C   0  0  0  0  0  2  0  0  0  0  0  0
  183.0330  177.6460  140.5790 C   0  0  0  0  0  2  0  0  0  0  0  0
  180.8060  177.8590  139.6280 N   0  0  0  0  0  2  0  0  0  0  0  0
  179.6740  178.7270  139.9240 C   0  0  0  0  0  2  0  0  0  0  0  0
  179.2770  177.0800  141.5810 O   0  0  0  0  0  1  0  0  0  0  0  0
  179.1290  178.4420  141.3180 C   0  0  1  0  0  3  0  0  0  0  0  0
  179.8690  179.2610  142.3780 C   0  0  1  0  0  3  0  0  0  0  0  0
  179.9380  180.6020  141.9940 O   0  0  0  0  0  1  0  0  0  0  0  0
  179.1650  179.1680  143.6950 C   0  0  0  0  0  3  0  0  0  0  0  0
  179.4190  178.2570  144.4650 O   0  0  0  0  0  0  0  0  0  0  0  0
  1  4  1  0  0  0  0
  2  4  1  0  0  0  0
  2  7  1  0  0  0  0
  3  2  2  0  0  0  0
  4 20  1  6  0  0  0
  5  1  2  0  0  0  0
  6  1  1  0  0  0  0
  6  3  1  0  0  0  0
  7  9  1  0  0  0  0
  8 12  1  0  0  0  0
  9  8  3  0  0  0  0
 11 14  2  0  0  0  0
 12 15  2  0  0  0  0
 12 11  1  0  0  0  0
 13 17  1  0  0  0  0
 13 10  2  0  0  0  0
 14 10  1  0  0  0  0
 15 13  1  0  0  0  0
 18 17  1  0  0  0  0
 18 16  1  0  0  0  0
 19 18  2  0  0  0  0
 20 21  1  0  0  0  0
 22 21  1  6  0  0  0
 22 25  1  0  0  0  0
 23 26  1  0  0  0  0
 23 24  1  0  0  0  0
 24 28  1  6  0  0  0
 24 27  1  0  0  0  0
 26 22  1  0  0  0  0
 27 25  1  0  0  0  0
 28 29  1  0  0  0  0
 29 31  1  0  0  0  0
 31 30  1  1  0  0  0
 31 32  1  0  0  0  0
 32 33  1  6  0  0  0
 32 34  1  0  0  0  0
 34 35  2  0  0  0  0
M  END
>  <MODEL>
9

>  <REMARK>
 VINA RESULT:      -7.3      3.711      8.033
  Name = 
  11 active torsions:
  status: ('A' for Active; 'I' for Inactive)
    1  A    between atoms: C_3  and  C_9
    2  A    between atoms: C_3  and  C_35
    3  A    between atoms: C_7  and  N_16
    4  A    between atoms: C_8  and  C_20
    5  A    between atoms: C_12  and  N_21
    6  A    between atoms: C_13  and  N_17
    7  A    between atoms: N_16  and  N_22
    8  A    between atoms: N_17  and  C_34
    9  A    between atoms: C_18  and  N_22
   10  A    between atoms: N_31  and  C_32
   11  A    between atoms: C_34  and  C_35
                            x       y       z     vdW  Elec       q    Type
                         _______ _______ _______ _____ _____    ______ ____

>  <TORSDO>
F 11

$$$$
