=
 OpenBabel11042411023D

 29 32  0  0  1  0  0  0  0  0999 V2000
  189.1370  176.9970  143.5610 C   0  0  0  0  0  3  0  0  0  0  0  0
  185.7600  178.4920  143.2130 C   0  0  0  0  0  0  0  0  0  0  0  0
  183.4480  178.8910  142.5100 N   0  0  0  0  0  0  0  0  0  0  0  0
  187.8660  177.4740  143.9060 C   0  0  0  0  0  0  0  0  0  0  0  0
  185.3100  178.4430  144.5430 C   0  0  0  0  0  0  0  0  0  0  0  0
  187.4040  177.4330  145.2370 C   0  0  0  0  0  0  0  0  0  0  0  0
  186.1300  177.9190  145.5440 C   0  0  0  0  0  3  0  0  0  0  0  0
  183.0030  178.8470  143.7340 C   0  0  0  0  0  0  0  0  0  0  0  0
  187.5180  178.0530  141.5740 C   0  0  0  0  0  3  0  0  0  0  0  0
  187.0420  178.0120  142.8900 C   0  0  0  0  0  0  0  0  0  0  0  0
  184.8580  179.1150  142.1800 C   0  0  0  0  0  2  0  0  0  0  0  0
  183.9580  178.9850  144.8970 C   0  0  0  0  0  2  0  0  0  0  0  0
  189.5680  177.0510  142.2730 N   0  0  0  0  0  0  0  0  0  0  0  0
  188.7950  177.5620  141.2750 C   0  0  0  0  0  0  0  0  0  0  0  0
  189.0580  176.5410  138.0800 N   0  0  0  0  0  2  0  0  0  0  0  0
  189.6750  176.4670  139.2970 O   0  0  0  0  0  0  0  0  0  0  0  0
  188.9920  177.9590  137.7250 C   0  0  2  0  0  3  0  0  0  0  0  0
  189.3010  177.6030  139.9350 N   0  0  0  0  0  0  0  0  0  0  0  0
  189.0070  178.6810  139.0300 C   0  0  0  0  0  2  0  0  0  0  0  0
  186.6470  178.5640  137.9450 N   0  0  0  0  0  1  0  0  0  0  0  0
  187.6970  178.2520  136.9910 C   0  0  0  0  0  2  0  0  0  0  0  0
  181.6350  178.6710  143.9460 O   0  0  0  0  0  0  0  0  0  0  0  0
  180.6530  179.2950  143.1320 C   0  0  0  0  0  1  0  0  0  0  0  0
  188.2330  176.8600  146.3420 C   0  0  0  0  0  2  0  0  0  0  0  0
  189.2530  177.8840  146.8140 C   0  0  0  0  0  2  0  0  0  0  0  0
  190.2640  177.2370  147.7460 C   0  0  0  0  0  2  0  0  0  0  0  0
  191.9460  175.5850  147.3840 O   0  0  0  0  0  1  0  0  0  0  0  0
  191.3880  176.6360  146.9710 C   0  0  0  0  0  0  0  0  0  0  0  0
  191.8400  177.2500  145.8120 O   0  0  0  0  0  0  0  0  0  0  0  0
  1  4  1  0  0  0  0
  2  5  1  0  0  0  0
  3  8  2  0  0  0  0
  4  6  2  0  0  0  0
  5 12  1  0  0  0  0
  5  7  2  0  0  0  0
  6  7  1  0  0  0  0
  6 24  1  0  0  0  0
  8 22  1  0  0  0  0
  8 12  1  0  0  0  0
  9 10  1  0  0  0  0
 10  2  2  0  0  0  0
 10  4  1  0  0  0  0
 11  3  1  0  0  0  0
 11  2  1  0  0  0  0
 13  1  2  0  0  0  0
 14  9  2  0  0  0  0
 14 13  1  0  0  0  0
 15 16  1  0  0  0  0
 16 18  1  0  0  0  0
 17 21  1  1  0  0  0
 17 15  1  0  0  0  0
 17 19  1  0  0  0  0
 18 14  1  0  0  0  0
 19 18  1  0  0  0  0
 21 20  1  0  0  0  0
 23 22  1  0  0  0  0
 24 25  1  0  0  0  0
 25 26  1  0  0  0  0
 28 27  1  0  0  0  0
 28 26  1  0  0  0  0
 29 28  2  0  0  0  0
M  END
>  <MODEL>
1

>  <REMARK>
 VINA RESULT:      -9.0      0.000      0.000
  Name = 
  7 active torsions:
  status: ('A' for Active; 'I' for Inactive)
    1  A    between atoms: C_2  and  C_16
    2  A    between atoms: C_2  and  C_17
    3  A    between atoms: O_6  and  C_13
    4  A    between atoms: C_11  and  C_24
    5  A    between atoms: C_15  and  C_18
    6  A    between atoms: C_17  and  C_24
    7  A    between atoms: N_23  and  C_27
                            x       y       z     vdW  Elec       q    Type
                         _______ _______ _______ _____ _____    ______ ____

>  <TORSDO>
F 7

$$$$
=
 OpenBabel11042411023D

 29 32  0  0  1  0  0  0  0  0999 V2000
  186.2140  178.6400  140.7900 C   0  0  0  0  0  3  0  0  0  0  0  0
  187.9540  177.5990  143.8980 C   0  0  0  0  0  0  0  0  0  0  0  0
  189.5520  177.4890  145.7500 N   0  0  0  0  0  0  0  0  0  0  0  0
  186.4330  178.3480  142.1430 C   0  0  0  0  0  0  0  0  0  0  0  0
  186.9240  177.7500  144.8400 C   0  0  0  0  0  0  0  0  0  0  0  0
  185.4070  178.4920  143.0990 C   0  0  0  0  0  0  0  0  0  0  0  0
  185.6620  178.1900  144.4400 C   0  0  0  0  0  3  0  0  0  0  0  0
  188.6180  177.6320  146.6460 C   0  0  0  0  0  0  0  0  0  0  0  0
  188.7170  177.7460  141.5810 C   0  0  0  0  0  3  0  0  0  0  0  0
  187.7110  177.8930  142.5440 C   0  0  0  0  0  0  0  0  0  0  0  0
  189.2810  177.0690  144.3730 C   0  0  0  0  0  2  0  0  0  0  0  0
  187.1690  177.4040  146.2790 C   0  0  0  0  0  2  0  0  0  0  0  0
  187.2140  178.4870  139.8820 N   0  0  0  0  0  0  0  0  0  0  0  0
  188.4540  178.0530  140.2400 C   0  0  0  0  0  0  0  0  0  0  0  0
  191.1260  176.6040  138.7990 N   0  0  0  0  0  2  0  0  0  0  0  0
  190.7570  177.6570  139.5870 O   0  0  0  0  0  0  0  0  0  0  0  0
  190.3990  176.7430  137.5380 C   0  0  2  0  0  3  0  0  0  0  0  0
  189.4700  177.9030  139.2400 N   0  0  0  0  0  0  0  0  0  0  0  0
  189.1720  177.5170  137.8880 C   0  0  0  0  0  2  0  0  0  0  0  0
  190.7160  174.3410  137.7400 N   0  0  0  0  0  1  0  0  0  0  0  0
  190.0090  175.3760  137.0070 C   0  0  0  0  0  2  0  0  0  0  0  0
  188.9790  177.9950  147.9440 O   0  0  0  0  0  0  0  0  0  0  0  0
  188.0670  177.9400  149.0310 C   0  0  0  0  0  1  0  0  0  0  0  0
  184.0450  178.9840  142.7260 C   0  0  0  0  0  2  0  0  0  0  0  0
  183.2630  179.3550  143.9760 C   0  0  0  0  0  2  0  0  0  0  0  0
  181.9120  178.6600  143.9840 C   0  0  0  0  0  2  0  0  0  0  0  0
  180.8400  178.4580  141.8640 O   0  0  0  0  0  0  0  0  0  0  0  0
  181.0480  179.1700  142.8820 C   0  0  0  0  0  0  0  0  0  0  0  0
  180.4960  180.4410  142.9620 O   0  0  0  0  0  1  0  0  0  0  0  0
  1  4  1  0  0  0  0
  2 11  1  0  0  0  0
  2  5  1  0  0  0  0
  3  8  2  0  0  0  0
  4 10  1  0  0  0  0
  4  6  2  0  0  0  0
  5 12  1  0  0  0  0
  6  7  1  0  0  0  0
  7  5  2  0  0  0  0
  8 22  1  0  0  0  0
  9 10  1  0  0  0  0
 10  2  2  0  0  0  0
 11  3  1  0  0  0  0
 12  8  1  0  0  0  0
 13 14  1  0  0  0  0
 13  1  2  0  0  0  0
 14  9  2  0  0  0  0
 15 16  1  0  0  0  0
 17 21  1  1  0  0  0
 17 19  1  0  0  0  0
 17 15  1  0  0  0  0
 18 16  1  0  0  0  0
 18 14  1  0  0  0  0
 19 18  1  0  0  0  0
 21 20  1  0  0  0  0
 22 23  1  0  0  0  0
 24  6  1  0  0  0  0
 24 25  1  0  0  0  0
 25 26  1  0  0  0  0
 27 28  2  0  0  0  0
 28 29  1  0  0  0  0
 28 26  1  0  0  0  0
M  END
>  <MODEL>
2

>  <REMARK>
 VINA RESULT:      -8.9      1.882      5.951
  Name = 
  7 active torsions:
  status: ('A' for Active; 'I' for Inactive)
    1  A    between atoms: C_2  and  C_16
    2  A    between atoms: C_2  and  C_17
    3  A    between atoms: O_6  and  C_13
    4  A    between atoms: C_11  and  C_24
    5  A    between atoms: C_15  and  C_18
    6  A    between atoms: C_17  and  C_24
    7  A    between atoms: N_23  and  C_27
                            x       y       z     vdW  Elec       q    Type
                         _______ _______ _______ _____ _____    ______ ____

>  <TORSDO>
F 7

$$$$
=
 OpenBabel11042411023D

 29 32  0  0  1  0  0  0  0  0999 V2000
  184.6810  178.4720  145.7770 C   0  0  0  0  0  3  0  0  0  0  0  0
  186.1010  178.1890  142.3610 C   0  0  0  0  0  0  0  0  0  0  0  0
  186.8070  178.7230  140.0780 N   0  0  0  0  0  0  0  0  0  0  0  0
  185.6100  178.2610  144.7500 C   0  0  0  0  0  0  0  0  0  0  0  0
  187.4320  177.8480  142.6550 C   0  0  0  0  0  0  0  0  0  0  0  0
  186.9480  177.9150  145.0310 C   0  0  0  0  0  0  0  0  0  0  0  0
  187.8460  177.7110  143.9810 C   0  0  0  0  0  3  0  0  0  0  0  0
  188.0490  178.4180  140.3240 C   0  0  0  0  0  0  0  0  0  0  0  0
  183.8500  178.7270  143.1440 C   0  0  0  0  0  3  0  0  0  0  0  0
  185.1840  178.3920  143.4070 C   0  0  0  0  0  0  0  0  0  0  0  0
  185.6920  178.2720  140.9140 C   0  0  0  0  0  2  0  0  0  0  0  0
  188.4040  177.5970  141.5420 C   0  0  0  0  0  2  0  0  0  0  0  0
  183.3940  178.7980  145.4840 N   0  0  0  0  0  0  0  0  0  0  0  0
  182.9560  178.9330  144.2030 C   0  0  0  0  0  0  0  0  0  0  0  0
  180.3860  180.0850  142.3630 N   0  0  0  0  0  2  0  0  0  0  0  0
  181.2560  180.4410  143.3540 O   0  0  0  0  0  0  0  0  0  0  0  0
  179.6440  178.9210  142.8490 C   0  0  2  0  0  3  0  0  0  0  0  0
  181.5860  179.2700  143.9510 N   0  0  0  0  0  0  0  0  0  0  0  0
  180.5540  178.2760  143.8410 C   0  0  0  0  0  2  0  0  0  0  0  0
  180.5890  177.7330  140.9500 N   0  0  0  0  0  1  0  0  0  0  0  0
  179.3710  177.9630  141.7050 C   0  0  0  0  0  2  0  0  0  0  0  0
  189.0380  178.8600  139.4440 O   0  0  0  0  0  0  0  0  0  0  0  0
  188.9490  178.6660  138.0400 C   0  0  0  0  0  1  0  0  0  0  0  0
  187.4480  177.7790  146.4340 C   0  0  0  0  0  2  0  0  0  0  0  0
  188.9560  177.9650  146.4710 C   0  0  0  0  0  2  0  0  0  0  0  0
  189.6160  176.8180  147.2190 C   0  0  0  0  0  2  0  0  0  0  0  0
  191.9250  176.7630  147.8100 O   0  0  0  0  0  1  0  0  0  0  0  0
  191.0670  176.7360  146.8890 C   0  0  0  0  0  0  0  0  0  0  0  0
  191.4760  176.6620  145.5640 O   0  0  0  0  0  0  0  0  0  0  0  0
  2  5  2  0  0  0  0
  2 10  1  0  0  0  0
  3  8  2  0  0  0  0
  3 11  1  0  0  0  0
  4  6  1  0  0  0  0
  4  1  2  0  0  0  0
  5  7  1  0  0  0  0
  6 24  1  0  0  0  0
  7  6  2  0  0  0  0
  8 12  1  0  0  0  0
  9 10  2  0  0  0  0
  9 14  1  0  0  0  0
 10  4  1  0  0  0  0
 11  2  1  0  0  0  0
 12  5  1  0  0  0  0
 13  1  1  0  0  0  0
 14 13  2  0  0  0  0
 15 17  1  0  0  0  0
 15 16  1  0  0  0  0
 16 18  1  0  0  0  0
 17 21  1  6  0  0  0
 17 19  1  0  0  0  0
 18 14  1  0  0  0  0
 19 18  1  0  0  0  0
 20 21  1  0  0  0  0
 22  8  1  0  0  0  0
 23 22  1  0  0  0  0
 24 25  1  0  0  0  0
 25 26  1  0  0  0  0
 28 26  1  0  0  0  0
 28 27  1  0  0  0  0
 29 28  2  0  0  0  0
M  END
>  <MODEL>
3

>  <REMARK>
 VINA RESULT:      -8.6      1.626      6.061
  Name = 
  7 active torsions:
  status: ('A' for Active; 'I' for Inactive)
    1  A    between atoms: C_2  and  C_16
    2  A    between atoms: C_2  and  C_17
    3  A    between atoms: O_6  and  C_13
    4  A    between atoms: C_11  and  C_24
    5  A    between atoms: C_15  and  C_18
    6  A    between atoms: C_17  and  C_24
    7  A    between atoms: N_23  and  C_27
                            x       y       z     vdW  Elec       q    Type
                         _______ _______ _______ _____ _____    ______ ____

>  <TORSDO>
F 7

$$$$
=
 OpenBabel11042411023D

 29 32  0  0  1  0  0  0  0  0999 V2000
  186.8520  178.5940  140.5780 C   0  0  0  0  0  3  0  0  0  0  0  0
  188.3610  177.4200  143.7570 C   0  0  0  0  0  0  0  0  0  0  0  0
  189.8500  177.1960  145.6880 N   0  0  0  0  0  0  0  0  0  0  0  0
  186.9820  178.2770  141.9360 C   0  0  0  0  0  0  0  0  0  0  0  0
  187.2940  177.6230  144.6470 C   0  0  0  0  0  0  0  0  0  0  0  0
  185.9180  178.4730  142.8400 C   0  0  0  0  0  0  0  0  0  0  0  0
  186.0840  178.1430  144.1880 C   0  0  0  0  0  3  0  0  0  0  0  0
  188.8810  177.3850  146.5370 C   0  0  0  0  0  0  0  0  0  0  0  0
  189.2520  177.5440  141.4850 C   0  0  0  0  0  3  0  0  0  0  0  0
  188.2080  177.7420  142.3960 C   0  0  0  0  0  0  0  0  0  0  0  0
  189.6280  176.8060  144.2930 C   0  0  0  0  0  2  0  0  0  0  0  0
  187.4430  177.2490  146.0920 C   0  0  0  0  0  2  0  0  0  0  0  0
  187.8880  178.3910  139.7210 N   0  0  0  0  0  0  0  0  0  0  0  0
  189.0790  177.8800  140.1360 C   0  0  0  0  0  0  0  0  0  0  0  0
  191.6220  176.1990  138.7130 N   0  0  0  0  0  2  0  0  0  0  0  0
  191.3460  177.2150  139.5840 O   0  0  0  0  0  0  0  0  0  0  0  0
  191.0170  176.5640  137.4320 C   0  0  2  0  0  3  0  0  0  0  0  0
  190.1350  177.6790  139.1890 N   0  0  0  0  0  0  0  0  0  0  0  0
  189.8870  177.4720  137.7880 C   0  0  0  0  0  2  0  0  0  0  0  0
  190.6320  174.1690  137.6030 N   0  0  0  0  0  1  0  0  0  0  0  0
  190.4800  175.3260  136.7380 C   0  0  0  0  0  2  0  0  0  0  0  0
  189.1950  177.7130  147.8560 O   0  0  0  0  0  0  0  0  0  0  0  0
  188.2010  178.0580  148.8110 C   0  0  0  0  0  1  0  0  0  0  0  0
  184.6090  179.0490  142.4030 C   0  0  0  0  0  2  0  0  0  0  0  0
  183.8670  178.0540  141.5240 C   0  0  0  0  0  2  0  0  0  0  0  0
  182.9390  178.7800  140.5650 C   0  0  0  0  0  2  0  0  0  0  0  0
  184.1750  180.2410  139.1440 O   0  0  0  0  0  1  0  0  0  0  0  0
  183.6440  179.1100  139.2940 C   0  0  0  0  0  0  0  0  0  0  0  0
  183.6890  178.1820  138.2620 O   0  0  0  0  0  0  0  0  0  0  0  0
  1  4  1  0  0  0  0
  2 11  1  0  0  0  0
  2  5  1  0  0  0  0
  3  8  2  0  0  0  0
  4 10  1  0  0  0  0
  4  6  2  0  0  0  0
  5 12  1  0  0  0  0
  6  7  1  0  0  0  0
  7  5  2  0  0  0  0
  8 22  1  0  0  0  0
  9 10  1  0  0  0  0
 10  2  2  0  0  0  0
 11  3  1  0  0  0  0
 12  8  1  0  0  0  0
 13 14  1  0  0  0  0
 13  1  2  0  0  0  0
 14  9  2  0  0  0  0
 15 16  1  0  0  0  0
 17 21  1  1  0  0  0
 17 19  1  0  0  0  0
 17 15  1  0  0  0  0
 18 16  1  0  0  0  0
 18 14  1  0  0  0  0
 19 18  1  0  0  0  0
 21 20  1  0  0  0  0
 22 23  1  0  0  0  0
 24  6  1  0  0  0  0
 25 24  1  0  0  0  0
 26 25  1  0  0  0  0
 27 28  1  0  0  0  0
 28 26  1  0  0  0  0
 29 28  2  0  0  0  0
M  END
>  <MODEL>
4

>  <REMARK>
 VINA RESULT:      -8.4      2.384      6.005
  Name = 
  7 active torsions:
  status: ('A' for Active; 'I' for Inactive)
    1  A    between atoms: C_2  and  C_16
    2  A    between atoms: C_2  and  C_17
    3  A    between atoms: O_6  and  C_13
    4  A    between atoms: C_11  and  C_24
    5  A    between atoms: C_15  and  C_18
    6  A    between atoms: C_17  and  C_24
    7  A    between atoms: N_23  and  C_27
                            x       y       z     vdW  Elec       q    Type
                         _______ _______ _______ _____ _____    ______ ____

>  <TORSDO>
F 7

$$$$
=
 OpenBabel11042411023D

 29 32  0  0  1  0  0  0  0  0999 V2000
  185.5530  178.2610  145.2940 C   0  0  0  0  0  3  0  0  0  0  0  0
  187.9060  177.5420  142.5170 C   0  0  0  0  0  0  0  0  0  0  0  0
  189.3130  177.7960  140.5290 N   0  0  0  0  0  0  0  0  0  0  0  0
  186.7250  177.8880  144.6240 C   0  0  0  0  0  0  0  0  0  0  0  0
  189.0480  177.1490  143.2330 C   0  0  0  0  0  0  0  0  0  0  0  0
  187.8780  177.4880  145.3310 C   0  0  0  0  0  0  0  0  0  0  0  0
  189.0290  177.1220  144.6280 C   0  0  0  0  0  3  0  0  0  0  0  0
  190.3900  177.4390  141.1690 C   0  0  0  0  0  0  0  0  0  0  0  0
  185.5820  178.2990  142.5220 C   0  0  0  0  0  3  0  0  0  0  0  0
  186.7380  177.9090  143.2090 C   0  0  0  0  0  0  0  0  0  0  0  0
  187.9610  177.5030  141.0120 C   0  0  0  0  0  2  0  0  0  0  0  0
  190.2840  176.7260  142.4980 C   0  0  0  0  0  2  0  0  0  0  0  0
  184.4490  178.6360  144.5940 N   0  0  0  0  0  0  0  0  0  0  0  0
  184.4330  178.6670  143.2330 C   0  0  0  0  0  0  0  0  0  0  0  0
  181.8300  178.2380  141.1460 N   0  0  0  0  0  2  0  0  0  0  0  0
  183.0750  178.7950  141.2270 O   0  0  0  0  0  0  0  0  0  0  0  0
  181.0170  178.8670  142.1880 C   0  0  2  0  0  3  0  0  0  0  0  0
  183.2400  179.0630  142.5450 N   0  0  0  0  0  0  0  0  0  0  0  0
  181.9970  179.2990  143.2280 C   0  0  0  0  0  2  0  0  0  0  0  0
  179.6810  178.2520  144.1250 N   0  0  0  0  0  1  0  0  0  0  0  0
  180.0550  177.8530  142.7800 C   0  0  0  0  0  2  0  0  0  0  0  0
  191.6340  177.7250  140.6070 O   0  0  0  0  0  0  0  0  0  0  0  0
  192.1230  177.0500  139.4570 C   0  0  0  0  0  1  0  0  0  0  0  0
  187.9170  177.4650  146.8250 C   0  0  0  0  0  2  0  0  0  0  0  0
  189.3370  177.7010  147.3140 C   0  0  0  0  0  2  0  0  0  0  0  0
  190.0420  176.3780  147.5610 C   0  0  0  0  0  2  0  0  0  0  0  0
  192.0110  176.2200  146.2260 O   0  0  0  0  0  0  0  0  0  0  0  0
  191.5110  176.5120  147.3430 C   0  0  0  0  0  0  0  0  0  0  0  0
  192.3320  176.9290  148.3820 O   0  0  0  0  0  1  0  0  0  0  0  0
  2 10  2  0  0  0  0
  2  5  1  0  0  0  0
  3 11  1  0  0  0  0
  3  8  2  0  0  0  0
  4  1  1  0  0  0  0
  4  6  2  0  0  0  0
  5  7  2  0  0  0  0
  6 24  1  0  0  0  0
  7  6  1  0  0  0  0
  8 12  1  0  0  0  0
  9 10  1  0  0  0  0
  9 14  2  0  0  0  0
 10  4  1  0  0  0  0
 11  2  1  0  0  0  0
 12  5  1  0  0  0  0
 13  1  2  0  0  0  0
 14 13  1  0  0  0  0
 15 16  1  0  0  0  0
 15 17  1  0  0  0  0
 16 18  1  0  0  0  0
 17 21  1  1  0  0  0
 17 19  1  0  0  0  0
 18 19  1  0  0  0  0
 18 14  1  0  0  0  0
 21 20  1  0  0  0  0
 22  8  1  0  0  0  0
 23 22  1  0  0  0  0
 24 25  1  0  0  0  0
 25 26  1  0  0  0  0
 27 28  2  0  0  0  0
 28 26  1  0  0  0  0
 28 29  1  0  0  0  0
M  END
>  <MODEL>
5

>  <REMARK>
 VINA RESULT:      -8.2      1.819      6.015
  Name = 
  7 active torsions:
  status: ('A' for Active; 'I' for Inactive)
    1  A    between atoms: C_2  and  C_16
    2  A    between atoms: C_2  and  C_17
    3  A    between atoms: O_6  and  C_13
    4  A    between atoms: C_11  and  C_24
    5  A    between atoms: C_15  and  C_18
    6  A    between atoms: C_17  and  C_24
    7  A    between atoms: N_23  and  C_27
                            x       y       z     vdW  Elec       q    Type
                         _______ _______ _______ _____ _____    ______ ____

>  <TORSDO>
F 7

$$$$
=
 OpenBabel11042411023D

 29 32  0  0  1  0  0  0  0  0999 V2000
  186.6370  178.4890  140.5940 C   0  0  0  0  0  3  0  0  0  0  0  0
  189.3770  177.2880  142.7890 C   0  0  0  0  0  0  0  0  0  0  0  0
  191.5080  177.1330  143.9850 N   0  0  0  0  0  0  0  0  0  0  0  0
  187.3140  178.0720  141.7470 C   0  0  0  0  0  0  0  0  0  0  0  0
  188.7170  177.2290  144.0270 C   0  0  0  0  0  0  0  0  0  0  0  0
  186.6630  178.0050  142.9960 C   0  0  0  0  0  0  0  0  0  0  0  0
  187.3710  177.5830  144.1250 C   0  0  0  0  0  3  0  0  0  0  0  0
  190.9220  177.0810  145.1470 C   0  0  0  0  0  0  0  0  0  0  0  0
  189.3070  177.7680  140.3940 C   0  0  0  0  0  3  0  0  0  0  0  0
  188.6770  177.7050  141.6420 C   0  0  0  0  0  0  0  0  0  0  0  0
  190.8140  176.8440  142.7270 C   0  0  0  0  0  2  0  0  0  0  0  0
  189.4500  176.7520  145.2450 C   0  0  0  0  0  2  0  0  0  0  0  0
  187.2810  178.5390  139.3970 N   0  0  0  0  0  0  0  0  0  0  0  0
  188.5910  178.1940  139.2670 C   0  0  0  0  0  0  0  0  0  0  0  0
  189.9960  176.9160  136.4910 N   0  0  0  0  0  2  0  0  0  0  0  0
  190.2980  177.4890  137.6930 O   0  0  0  0  0  0  0  0  0  0  0  0
  189.1830  177.8820  135.7530 C   0  0  2  0  0  3  0  0  0  0  0  0
  189.2190  178.2580  137.9810 N   0  0  0  0  0  0  0  0  0  0  0  0
  188.5270  178.7120  136.8050 C   0  0  0  0  0  2  0  0  0  0  0  0
  186.8310  177.2890  135.5790 N   0  0  0  0  0  1  0  0  0  0  0  0
  188.1270  177.1590  134.9380 C   0  0  0  0  0  2  0  0  0  0  0  0
  191.6780  177.3320  146.2940 O   0  0  0  0  0  0  0  0  0  0  0  0
  191.8130  176.3800  147.3380 C   0  0  0  0  0  1  0  0  0  0  0  0
  185.2290  178.3970  143.1580 C   0  0  0  0  0  2  0  0  0  0  0  0
  185.0900  179.4200  144.2740 C   0  0  0  0  0  2  0  0  0  0  0  0
  184.3770  178.8090  145.4700 C   0  0  0  0  0  2  0  0  0  0  0  0
  185.7510  177.5010  146.9150 O   0  0  0  0  0  0  0  0  0  0  0  0
  185.3140  178.6440  146.6170 C   0  0  0  0  0  0  0  0  0  0  0  0
  185.6820  179.7450  147.3780 O   0  0  0  0  0  1  0  0  0  0  0  0
  1  4  1  0  0  0  0
  2  5  1  0  0  0  0
  3  8  2  0  0  0  0
  4  6  2  0  0  0  0
  5  7  2  0  0  0  0
  5 12  1  0  0  0  0
  6 24  1  0  0  0  0
  6  7  1  0  0  0  0
  8 12  1  0  0  0  0
  8 22  1  0  0  0  0
  9 10  1  0  0  0  0
 10  4  1  0  0  0  0
 10  2  2  0  0  0  0
 11  2  1  0  0  0  0
 11  3  1  0  0  0  0
 13  1  2  0  0  0  0
 14 13  1  0  0  0  0
 14  9  2  0  0  0  0
 15 16  1  0  0  0  0
 16 18  1  0  0  0  0
 17 21  1  1  0  0  0
 17 15  1  0  0  0  0
 17 19  1  0  0  0  0
 18 14  1  0  0  0  0
 19 18  1  0  0  0  0
 21 20  1  0  0  0  0
 22 23  1  0  0  0  0
 24 25  1  0  0  0  0
 25 26  1  0  0  0  0
 26 28  1  0  0  0  0
 28 27  2  0  0  0  0
 28 29  1  0  0  0  0
M  END
>  <MODEL>
6

>  <REMARK>
 VINA RESULT:      -8.2      2.056      5.305
  Name = 
  7 active torsions:
  status: ('A' for Active; 'I' for Inactive)
    1  A    between atoms: C_2  and  C_16
    2  A    between atoms: C_2  and  C_17
    3  A    between atoms: O_6  and  C_13
    4  A    between atoms: C_11  and  C_24
    5  A    between atoms: C_15  and  C_18
    6  A    between atoms: C_17  and  C_24
    7  A    between atoms: N_23  and  C_27
                            x       y       z     vdW  Elec       q    Type
                         _______ _______ _______ _____ _____    ______ ____

>  <TORSDO>
F 7

$$$$
=
 OpenBabel11042411023D

 29 32  0  0  1  0  0  0  0  0999 V2000
  189.7760  177.2260  141.7670 C   0  0  0  0  0  3  0  0  0  0  0  0
  186.2900  178.4970  141.7290 C   0  0  0  0  0  0  0  0  0  0  0  0
  183.9110  178.7630  141.2120 N   0  0  0  0  0  0  0  0  0  0  0  0
  188.5050  177.5990  142.2230 C   0  0  0  0  0  0  0  0  0  0  0  0
  185.9450  178.3630  143.0840 C   0  0  0  0  0  0  0  0  0  0  0  0
  188.1470  177.4730  143.5810 C   0  0  0  0  0  0  0  0  0  0  0  0
  186.8690  177.8570  143.9990 C   0  0  0  0  0  3  0  0  0  0  0  0
  183.5620  178.6390  142.4610 C   0  0  0  0  0  0  0  0  0  0  0  0
  187.9470  178.2470  139.9500 C   0  0  0  0  0  3  0  0  0  0  0  0
  187.5730  178.1200  141.2940 C   0  0  0  0  0  0  0  0  0  0  0  0
  185.2750  179.0970  140.7930 C   0  0  0  0  0  2  0  0  0  0  0  0
  184.5900  178.7950  143.5580 C   0  0  0  0  0  2  0  0  0  0  0  0
  190.1040  177.3620  140.4550 N   0  0  0  0  0  0  0  0  0  0  0  0
  189.2280  177.8580  139.5390 C   0  0  0  0  0  0  0  0  0  0  0  0
  189.9190  176.7380  136.4430 N   0  0  0  0  0  2  0  0  0  0  0  0
  190.5090  177.1170  137.6160 O   0  0  0  0  0  0  0  0  0  0  0  0
  189.1540  177.8880  135.9620 C   0  0  2  0  0  3  0  0  0  0  0  0
  189.6290  177.9870  138.1690 N   0  0  0  0  0  0  0  0  0  0  0  0
  188.8260  178.6690  137.1910 C   0  0  0  0  0  2  0  0  0  0  0  0
  188.0030  176.0290  134.8990 N   0  0  0  0  0  1  0  0  0  0  0  0
  187.8740  177.4200  135.2950 C   0  0  0  0  0  2  0  0  0  0  0  0
  182.2280  178.3610  142.7630 O   0  0  0  0  0  0  0  0  0  0  0  0
  181.6640  178.6360  144.0360 C   0  0  0  0  0  1  0  0  0  0  0  0
  189.0920  176.9150  144.5960 C   0  0  0  0  0  2  0  0  0  0  0  0
  189.1520  177.8290  145.8100 C   0  0  0  0  0  2  0  0  0  0  0  0
  188.7790  177.0640  147.0700 C   0  0  0  0  0  2  0  0  0  0  0  0
  186.7740  178.2710  147.5260 O   0  0  0  0  0  0  0  0  0  0  0  0
  187.8970  177.8870  147.9460 C   0  0  0  0  0  0  0  0  0  0  0  0
  188.3260  178.2580  149.2130 O   0  0  0  0  0  1  0  0  0  0  0  0
  1  4  1  0  0  0  0
  2  5  1  0  0  0  0
  3  8  2  0  0  0  0
  4  6  2  0  0  0  0
  5 12  1  0  0  0  0
  5  7  2  0  0  0  0
  6  7  1  0  0  0  0
  6 24  1  0  0  0  0
  8 22  1  0  0  0  0
  8 12  1  0  0  0  0
  9 10  1  0  0  0  0
 10  2  2  0  0  0  0
 10  4  1  0  0  0  0
 11  3  1  0  0  0  0
 11  2  1  0  0  0  0
 13  1  2  0  0  0  0
 14  9  2  0  0  0  0
 14 13  1  0  0  0  0
 15 16  1  0  0  0  0
 16 18  1  0  0  0  0
 17 21  1  1  0  0  0
 17 15  1  0  0  0  0
 17 19  1  0  0  0  0
 18 14  1  0  0  0  0
 19 18  1  0  0  0  0
 20 21  1  0  0  0  0
 22 23  1  0  0  0  0
 24 25  1  0  0  0  0
 25 26  1  0  0  0  0
 26 28  1  0  0  0  0
 27 28  2  0  0  0  0
 28 29  1  0  0  0  0
M  END
>  <MODEL>
7

>  <REMARK>
 VINA RESULT:      -8.0      1.940      2.369
  Name = 
  7 active torsions:
  status: ('A' for Active; 'I' for Inactive)
    1  A    between atoms: C_2  and  C_16
    2  A    between atoms: C_2  and  C_17
    3  A    between atoms: O_6  and  C_13
    4  A    between atoms: C_11  and  C_24
    5  A    between atoms: C_15  and  C_18
    6  A    between atoms: C_17  and  C_24
    7  A    between atoms: N_23  and  C_27
                            x       y       z     vdW  Elec       q    Type
                         _______ _______ _______ _____ _____    ______ ____

>  <TORSDO>
F 7

$$$$
=
 OpenBabel11042411023D

 29 32  0  0  1  0  0  0  0  0999 V2000
  188.4950  177.5250  142.8560 C   0  0  0  0  0  3  0  0  0  0  0  0
  185.0050  178.6110  142.2150 C   0  0  0  0  0  0  0  0  0  0  0  0
  182.7120  178.7020  141.3620 N   0  0  0  0  0  0  0  0  0  0  0  0
  187.1620  177.8830  143.0950 C   0  0  0  0  0  0  0  0  0  0  0  0
  184.4840  178.6080  143.5190 C   0  0  0  0  0  0  0  0  0  0  0  0
  186.6260  177.8880  144.3990 C   0  0  0  0  0  0  0  0  0  0  0  0
  185.2920  178.2520  144.5990 C   0  0  0  0  0  3  0  0  0  0  0  0
  182.2000  178.6970  142.5600 C   0  0  0  0  0  0  0  0  0  0  0  0
  186.8970  178.2510  140.7100 C   0  0  0  0  0  3  0  0  0  0  0  0
  186.3480  178.2530  141.9980 C   0  0  0  0  0  0  0  0  0  0  0  0
  184.1070  179.0550  141.0900 C   0  0  0  0  0  2  0  0  0  0  0  0
  183.0630  179.0220  143.7580 C   0  0  0  0  0  2  0  0  0  0  0  0
  188.9940  177.5340  141.5910 N   0  0  0  0  0  0  0  0  0  0  0  0
  188.2340  177.8830  140.5180 C   0  0  0  0  0  0  0  0  0  0  0  0
  190.6070  177.2070  138.2310 N   0  0  0  0  0  2  0  0  0  0  0  0
  190.1170  178.2080  139.0210 O   0  0  0  0  0  0  0  0  0  0  0  0
  189.5110  176.7760  137.3640 C   0  0  2  0  0  3  0  0  0  0  0  0
  188.8140  177.8820  139.2070 N   0  0  0  0  0  0  0  0  0  0  0  0
  188.2700  177.1110  138.1220 C   0  0  0  0  0  2  0  0  0  0  0  0
  190.6430  174.7060  137.9520 N   0  0  0  0  0  1  0  0  0  0  0  0
  189.5850  175.2770  137.1380 C   0  0  0  0  0  2  0  0  0  0  0  0
  180.8480  178.3880  142.7140 O   0  0  0  0  0  0  0  0  0  0  0  0
  180.1880  178.4650  143.9690 C   0  0  0  0  0  1  0  0  0  0  0  0
  187.4430  177.4910  145.5870 C   0  0  0  0  0  2  0  0  0  0  0  0
  186.9280  178.1950  146.8330 C   0  0  0  0  0  2  0  0  0  0  0  0
  187.4960  177.5440  148.0840 C   0  0  0  0  0  2  0  0  0  0  0  0
  189.5580  178.6290  148.5890 O   0  0  0  0  0  1  0  0  0  0  0  0
  188.9840  177.6240  148.0930 C   0  0  0  0  0  0  0  0  0  0  0  0
  189.7390  176.6060  147.5260 O   0  0  0  0  0  0  0  0  0  0  0  0
  1  4  1  0  0  0  0
  2  5  1  0  0  0  0
  3  8  2  0  0  0  0
  4  6  2  0  0  0  0
  5 12  1  0  0  0  0
  5  7  2  0  0  0  0
  6  7  1  0  0  0  0
  6 24  1  0  0  0  0
  8 22  1  0  0  0  0
  8 12  1  0  0  0  0
  9 10  1  0  0  0  0
 10  2  2  0  0  0  0
 10  4  1  0  0  0  0
 11  3  1  0  0  0  0
 11  2  1  0  0  0  0
 13  1  2  0  0  0  0
 14  9  2  0  0  0  0
 14 13  1  0  0  0  0
 15 16  1  0  0  0  0
 16 18  1  0  0  0  0
 17 21  1  1  0  0  0
 17 19  1  0  0  0  0
 17 15  1  0  0  0  0
 18 14  1  0  0  0  0
 19 18  1  0  0  0  0
 21 20  1  0  0  0  0
 22 23  1  0  0  0  0
 24 25  1  0  0  0  0
 25 26  1  0  0  0  0
 26 28  1  0  0  0  0
 28 27  1  0  0  0  0
 29 28  2  0  0  0  0
M  END
>  <MODEL>
8

>  <REMARK>
 VINA RESULT:      -7.9      1.576      2.104
  Name = 
  7 active torsions:
  status: ('A' for Active; 'I' for Inactive)
    1  A    between atoms: C_2  and  C_16
    2  A    between atoms: C_2  and  C_17
    3  A    between atoms: O_6  and  C_13
    4  A    between atoms: C_11  and  C_24
    5  A    between atoms: C_15  and  C_18
    6  A    between atoms: C_17  and  C_24
    7  A    between atoms: N_23  and  C_27
                            x       y       z     vdW  Elec       q    Type
                         _______ _______ _______ _____ _____    ______ ____

>  <TORSDO>
F 7

$$$$
=
 OpenBabel11042411023D

 29 32  0  0  1  0  0  0  0  0999 V2000
  187.5650  178.2350  139.9120 C   0  0  0  0  0  3  0  0  0  0  0  0
  189.4370  177.7570  143.0800 C   0  0  0  0  0  0  0  0  0  0  0  0
  190.1020  176.9590  145.2970 N   0  0  0  0  0  0  0  0  0  0  0  0
  188.6130  177.9270  140.7890 C   0  0  0  0  0  0  0  0  0  0  0  0
  190.6800  177.3250  142.5890 C   0  0  0  0  0  0  0  0  0  0  0  0
  189.8670  177.4960  140.3100 C   0  0  0  0  0  0  0  0  0  0  0  0
  190.8890  177.1990  141.2160 C   0  0  0  0  0  3  0  0  0  0  0  0
  191.2600  176.5450  144.8690 C   0  0  0  0  0  0  0  0  0  0  0  0
  187.1520  178.5030  142.6410 C   0  0  0  0  0  3  0  0  0  0  0  0
  188.3990  178.0650  142.1810 C   0  0  0  0  0  0  0  0  0  0  0  0
  189.2790  177.9280  144.5680 C   0  0  0  0  0  2  0  0  0  0  0  0
  191.7990  177.0290  143.5430 C   0  0  0  0  0  2  0  0  0  0  0  0
  186.3650  178.6570  140.3940 N   0  0  0  0  0  0  0  0  0  0  0  0
  186.1310  178.7960  141.7270 C   0  0  0  0  0  0  0  0  0  0  0  0
  182.9260  178.4330  142.6830 N   0  0  0  0  0  2  0  0  0  0  0  0
  183.7070  178.7860  141.6200 O   0  0  0  0  0  0  0  0  0  0  0  0
  183.2480  179.3570  143.7710 C   0  0  2  0  0  3  0  0  0  0  0  0
  184.8500  179.2520  142.1800 N   0  0  0  0  0  0  0  0  0  0  0  0
  184.6460  179.8010  143.4930 C   0  0  0  0  0  2  0  0  0  0  0  0
  184.3590  178.9760  145.9000 N   0  0  0  0  0  1  0  0  0  0  0  0
  183.1960  178.6310  145.1030 C   0  0  0  0  0  2  0  0  0  0  0  0
  191.9900  175.6530  145.6560 O   0  0  0  0  0  0  0  0  0  0  0  0
  192.0620  175.7690  147.0700 C   0  0  0  0  0  1  0  0  0  0  0  0
  190.1350  177.3210  138.8500 C   0  0  0  0  0  2  0  0  0  0  0  0
  190.9410  176.0550  138.6140 C   0  0  0  0  0  2  0  0  0  0  0  0
  191.8330  176.2110  137.3930 C   0  0  0  0  0  2  0  0  0  0  0  0
  193.5010  176.7470  139.0110 O   0  0  0  0  0  1  0  0  0  0  0  0
  193.2260  176.5580  137.7970 C   0  0  0  0  0  0  0  0  0  0  0  0
  194.2140  176.7030  136.8320 O   0  0  0  0  0  0  0  0  0  0  0  0
  1 13  2  0  0  0  0
  1  4  1  0  0  0  0
  2 11  1  0  0  0  0
  4 10  1  0  0  0  0
  5  2  1  0  0  0  0
  5 12  1  0  0  0  0
  6  4  2  0  0  0  0
  6  7  1  0  0  0  0
  7  5  2  0  0  0  0
  8  3  2  0  0  0  0
  8 22  1  0  0  0  0
 10  9  1  0  0  0  0
 10  2  2  0  0  0  0
 11  3  1  0  0  0  0
 12  8  1  0  0  0  0
 13 14  1  0  0  0  0
 14 18  1  0  0  0  0
 14  9  2  0  0  0  0
 15 17  1  0  0  0  0
 16 18  1  0  0  0  0
 16 15  1  0  0  0  0
 17 21  1  1  0  0  0
 18 19  1  0  0  0  0
 19 17  1  0  0  0  0
 21 20  1  0  0  0  0
 22 23  1  0  0  0  0
 24  6  1  0  0  0  0
 25 24  1  0  0  0  0
 26 28  1  0  0  0  0
 26 25  1  0  0  0  0
 28 27  1  0  0  0  0
 29 28  2  0  0  0  0
M  END
>  <MODEL>
9

>  <REMARK>
 VINA RESULT:      -7.9      2.365      7.367
  Name = 
  7 active torsions:
  status: ('A' for Active; 'I' for Inactive)
    1  A    between atoms: C_2  and  C_16
    2  A    between atoms: C_2  and  C_17
    3  A    between atoms: O_6  and  C_13
    4  A    between atoms: C_11  and  C_24
    5  A    between atoms: C_15  and  C_18
    6  A    between atoms: C_17  and  C_24
    7  A    between atoms: N_23  and  C_27
                            x       y       z     vdW  Elec       q    Type
                         _______ _______ _______ _____ _____    ______ ____

>  <TORSDO>
F 7

$$$$
