=
 OpenBabel11032419163D

 30 33  0  0  1  0  0  0  0  0999 V2000
  188.3940  177.8640  148.4920 N   0  0  0  0  0  2  0  0  0  0  0  0
  188.8560  177.2850  144.4240 N   0  0  0  0  0  2  0  0  0  0  0  0
  188.5030  177.5260  147.2480 C   0  0  0  0  0  0  0  0  0  0  0  0
  184.4770  179.0100  145.1000 C   0  0  0  0  0  3  0  0  0  0  0  0
  185.2050  178.9390  142.6450 C   0  0  0  0  0  0  0  0  0  0  0  0
  189.8770  177.4450  146.5870 C   0  0  1  0  0  3  0  0  0  0  0  0
  185.0210  179.3370  141.2920 N   0  0  0  0  0  1  0  0  0  0  0  0
  186.2970  178.3090  142.9830 N   0  0  0  0  0  0  0  0  0  0  0  0
  187.5540  177.4920  144.9480 C   0  0  0  0  0  0  0  0  0  0  0  0
  186.4680  177.9030  144.3370 C   0  0  0  0  0  0  0  0  0  0  0  0
  185.5700  178.3130  145.3800 C   0  0  0  0  0  0  0  0  0  0  0  0
  186.1920  178.1610  146.6580 N   0  0  0  0  0  0  0  0  0  0  0  0
  190.8550  176.7440  147.5250 C   0  0  0  0  0  1  0  0  0  0  0  0
  189.8530  176.7480  145.2710 N   0  0  0  0  0  0  0  0  0  0  0  0
  184.0750  179.1920  143.6470 C   0  0  0  0  0  3  0  0  0  0  0  0
  187.3510  177.6490  146.3620 C   0  0  2  0  0  3  0  0  0  0  0  0
  191.1250  176.9930  144.6020 C   0  0  0  0  0  2  0  0  0  0  0  0
  191.5770  179.2600  144.0040 O   0  0  0  0  0  1  0  0  0  0  0  0
  190.9660  178.0850  143.5600 C   0  0  1  0  0  3  0  0  0  0  0  0
  191.5870  177.6580  142.3170 N   0  0  0  0  0  2  0  0  0  0  0  0
  190.7540  176.6090  141.7460 C   0  0  0  0  0  2  0  0  0  0  0  0
  189.0410  177.9790  138.0500 C   0  0  0  0  0  0  0  0  0  0  0  0
  190.1470  177.0700  140.4640 C   0  0  0  0  0  0  0  0  0  0  0  0
  190.7640  176.7560  139.2480 C   0  0  0  0  0  3  0  0  0  0  0  0
  190.2120  177.2080  138.0470 C   0  0  0  0  0  3  0  0  0  0  0  0
  188.9800  177.8410  140.4750 C   0  0  0  0  0  3  0  0  0  0  0  0
  188.4290  178.2930  139.2730 C   0  0  0  0  0  3  0  0  0  0  0  0
  187.4970  179.4500  136.7810 O   0  0  0  0  0  1  0  0  0  0  0  0
  188.8490  177.9660  135.6840 O   0  0  0  0  0  0  0  0  0  0  0  0
  188.4670  178.4540  136.7810 C   0  0  0  0  0  0  0  0  0  0  0  0
  2  9  1  0  0  0  0
  2 14  1  0  0  0  0
  3  1  2  0  0  0  0
  4 11  1  0  0  0  0
  5  8  2  0  0  0  0
  5 15  1  0  0  0  0
  6  3  1  0  0  0  0
  6 13  1  1  0  0  0
  7  5  1  0  0  0  0
  8 10  1  0  0  0  0
 10  9  2  0  0  0  0
 10 11  1  0  0  0  0
 11 12  2  0  0  0  0
 14  6  1  0  0  0  0
 15  4  2  0  0  0  0
 16  9  1  6  0  0  0
 16 12  1  0  0  0  0
 16  3  1  0  0  0  0
 17 14  1  0  0  0  0
 19 18  1  1  0  0  0
 19 17  1  0  0  0  0
 20 19  1  0  0  0  0
 21 20  1  0  0  0  0
 22 27  1  0  0  0  0
 23 26  1  0  0  0  0
 23 21  1  0  0  0  0
 24 23  2  0  0  0  0
 25 22  2  0  0  0  0
 25 24  1  0  0  0  0
 27 26  2  0  0  0  0
 29 30  2  0  0  0  0
 30 28  1  0  0  0  0
 30 22  1  0  0  0  0
M  END
>  <MODEL>
1

>  <REMARK>
 VINA RESULT:      -9.4      0.000      0.000
  Name = 
  6 active torsions:
  status: ('A' for Active; 'I' for Inactive)
    1  A    between atoms: C_1  and  C_28
    2  A    between atoms: C_2  and  C_4
    3  A    between atoms: C_2  and  N_11
    4  A    between atoms: N_11  and  C_21
    5  A    between atoms: C_17  and  C_21
    6  A    between atoms: C_17  and  N_24
                            x       y       z     vdW  Elec       q    Type
                         _______ _______ _______ _____ _____    ______ ____

>  <TORSDO>
F 6

$$$$
=
 OpenBabel11032419163D

 30 33  0  0  1  0  0  0  0  0999 V2000
  190.8940  176.8330  147.3160 N   0  0  0  0  0  2  0  0  0  0  0  0
  187.8670  177.8500  144.6880 N   0  0  0  0  0  2  0  0  0  0  0  0
  189.9760  177.3060  146.5380 C   0  0  0  0  0  0  0  0  0  0  0  0
  191.8090  177.2270  142.1030 C   0  0  0  0  0  3  0  0  0  0  0  0
  189.6720  177.4590  140.7110 C   0  0  0  0  0  0  0  0  0  0  0  0
  188.5000  177.1260  146.8840 C   0  0  1  0  0  3  0  0  0  0  0  0
  188.9840  177.3190  139.4740 N   0  0  0  0  0  1  0  0  0  0  0  0
  188.9920  177.7330  141.7920 N   0  0  0  0  0  0  0  0  0  0  0  0
  189.2140  177.9110  144.2470 C   0  0  0  0  0  0  0  0  0  0  0  0
  189.6890  177.8830  143.0240 C   0  0  0  0  0  0  0  0  0  0  0  0
  191.0840  177.5730  143.1590 C   0  0  0  0  0  0  0  0  0  0  0  0
  191.4180  177.3760  144.5350 N   0  0  0  0  0  0  0  0  0  0  0  0
  188.2850  177.4100  148.3680 C   0  0  0  0  0  1  0  0  0  0  0  0
  187.5970  177.9860  146.0700 N   0  0  0  0  0  0  0  0  0  0  0  0
  191.1990  177.3640  140.7190 C   0  0  0  0  0  3  0  0  0  0  0  0
  190.2930  177.6100  145.1460 C   0  0  2  0  0  3  0  0  0  0  0  0
  186.2290  177.5210  146.2620 C   0  0  0  0  0  2  0  0  0  0  0  0
  185.8160  179.5910  147.3770 O   0  0  0  0  0  1  0  0  0  0  0  0
  185.2930  178.7040  146.4340 C   0  0  1  0  0  3  0  0  0  0  0  0
  185.1430  179.3870  145.1600 N   0  0  0  0  0  2  0  0  0  0  0  0
  183.9330  178.8780  144.5270 C   0  0  0  0  0  2  0  0  0  0  0  0
  184.4680  178.6830  140.2670 C   0  0  0  0  0  0  0  0  0  0  0  0
  184.1200  178.7910  143.0490 C   0  0  0  0  0  0  0  0  0  0  0  0
  185.3880  178.9880  142.4940 C   0  0  0  0  0  3  0  0  0  0  0  0
  185.5620  178.9330  141.1090 C   0  0  0  0  0  3  0  0  0  0  0  0
  183.0240  178.5440  142.2160 C   0  0  0  0  0  3  0  0  0  0  0  0
  183.1980  178.4890  140.8300 C   0  0  0  0  0  3  0  0  0  0  0  0
  183.5900  178.3150  137.9750 O   0  0  0  0  0  0  0  0  0  0  0  0
  185.7860  178.8690  138.3010 O   0  0  0  0  0  1  0  0  0  0  0  0
  184.6570  178.6290  138.8080 C   0  0  0  0  0  0  0  0  0  0  0  0
  2 14  1  0  0  0  0
  3  6  1  0  0  0  0
  3  1  2  0  0  0  0
  4 11  1  0  0  0  0
  5 15  1  0  0  0  0
  5  8  2  0  0  0  0
  6 13  1  1  0  0  0
  7  5  1  0  0  0  0
  8 10  1  0  0  0  0
  9  2  1  0  0  0  0
 10 11  1  0  0  0  0
 10  9  2  0  0  0  0
 11 12  2  0  0  0  0
 12 16  1  0  0  0  0
 14 17  1  0  0  0  0
 14  6  1  0  0  0  0
 15  4  2  0  0  0  0
 16  9  1  6  0  0  0
 16  3  1  0  0  0  0
 17 19  1  0  0  0  0
 19 18  1  1  0  0  0
 20 19  1  0  0  0  0
 21 20  1  0  0  0  0
 22 27  2  0  0  0  0
 22 25  1  0  0  0  0
 23 21  1  0  0  0  0
 24 23  1  0  0  0  0
 25 24  2  0  0  0  0
 26 23  2  0  0  0  0
 27 26  1  0  0  0  0
 28 30  2  0  0  0  0
 29 30  1  0  0  0  0
 30 22  1  0  0  0  0
M  END
>  <MODEL>
2

>  <REMARK>
 VINA RESULT:      -9.4      2.343      5.190
  Name = 
  6 active torsions:
  status: ('A' for Active; 'I' for Inactive)
    1  A    between atoms: C_1  and  C_28
    2  A    between atoms: C_2  and  C_4
    3  A    between atoms: C_2  and  N_11
    4  A    between atoms: N_11  and  C_21
    5  A    between atoms: C_17  and  C_21
    6  A    between atoms: C_17  and  N_24
                            x       y       z     vdW  Elec       q    Type
                         _______ _______ _______ _____ _____    ______ ____

>  <TORSDO>
F 6

$$$$
=
 OpenBabel11032419163D

 30 33  0  0  1  0  0  0  0  0999 V2000
  185.2840  176.9810  136.9780 N   0  0  0  0  0  2  0  0  0  0  0  0
  187.2640  178.8040  140.1180 N   0  0  0  0  0  2  0  0  0  0  0  0
  185.8870  177.6910  137.8760 C   0  0  0  0  0  0  0  0  0  0  0  0
  182.7090  178.3620  141.4090 C   0  0  0  0  0  3  0  0  0  0  0  0
  184.2690  179.0800  143.3090 C   0  0  0  0  0  0  0  0  0  0  0  0
  187.3990  177.5830  138.0590 C   0  0  1  0  0  3  0  0  0  0  0  0
  184.5180  179.2650  144.6970 N   0  0  0  0  0  1  0  0  0  0  0  0
  185.2570  179.1860  142.4630 N   0  0  0  0  0  0  0  0  0  0  0  0
  185.8460  178.8280  140.0890 C   0  0  0  0  0  0  0  0  0  0  0  0
  184.9980  179.0100  141.0740 C   0  0  0  0  0  0  0  0  0  0  0  0
  183.7300  178.5480  140.5830 C   0  0  0  0  0  0  0  0  0  0  0  0
  183.8690  178.0380  139.2550 N   0  0  0  0  0  0  0  0  0  0  0  0
  188.0790  177.5730  136.6930 C   0  0  0  0  0  1  0  0  0  0  0  0
  187.9670  178.6760  138.8970 N   0  0  0  0  0  0  0  0  0  0  0  0
  182.8300  178.8410  142.8440 C   0  0  0  0  0  2  0  0  0  0  0  0
  185.1260  178.2460  138.9900 C   0  0  0  0  0  0  0  0  0  0  0  0
  189.3330  178.3120  139.2550 C   0  0  0  0  0  2  0  0  0  0  0  0
  190.0420  176.0680  139.6510 O   0  0  0  0  0  1  0  0  0  0  0  0
  189.3270  177.1300  140.2070 C   0  0  1  0  0  3  0  0  0  0  0  0
  189.9440  177.5220  141.4640 N   0  0  0  0  0  2  0  0  0  0  0  0
  189.8630  176.3840  142.3690 C   0  0  0  0  0  2  0  0  0  0  0  0
  188.1110  177.5230  146.1250 C   0  0  0  0  0  0  0  0  0  0  0  0
  189.2530  176.7980  143.6660 C   0  0  0  0  0  0  0  0  0  0  0  0
  190.0720  177.0590  144.7690 C   0  0  0  0  0  3  0  0  0  0  0  0
  189.5030  177.4210  145.9930 C   0  0  0  0  0  3  0  0  0  0  0  0
  187.8630  176.8940  143.7910 C   0  0  0  0  0  3  0  0  0  0  0  0
  187.2950  177.2560  145.0150 C   0  0  0  0  0  3  0  0  0  0  0  0
  188.1780  177.6080  148.6040 O   0  0  0  0  0  1  0  0  0  0  0  0
  186.4080  178.4980  147.4600 O   0  0  0  0  0  0  0  0  0  0  0  0
  187.5180  177.9020  147.4170 C   0  0  0  0  0  0  0  0  0  0  0  0
  1  3  2  0  0  0  0
  3  6  1  0  0  0  0
  3 16  1  0  0  0  0
  4 15  1  0  0  0  0
  5  7  1  0  0  0  0
  6 13  1  6  0  0  0
  6 14  1  0  0  0  0
  8  5  2  0  0  0  0
  9  2  1  0  0  0  0
  9 10  2  0  0  0  0
 10  8  1  0  0  0  0
 11 10  1  0  0  0  0
 11  4  2  0  0  0  0
 12 11  1  0  0  0  0
 14 17  1  0  0  0  0
 14  2  1  0  0  0  0
 15  5  1  0  0  0  0
 16 12  2  0  0  0  0
 16  9  1  0  0  0  0
 17 19  1  0  0  0  0
 19 18  1  6  0  0  0
 19 20  1  0  0  0  0
 20 21  1  0  0  0  0
 21 23  1  0  0  0  0
 22 30  1  0  0  0  0
 23 26  2  0  0  0  0
 23 24  1  0  0  0  0
 24 25  2  0  0  0  0
 25 22  1  0  0  0  0
 26 27  1  0  0  0  0
 27 22  2  0  0  0  0
 30 29  2  0  0  0  0
 30 28  1  0  0  0  0
M  END
>  <MODEL>
3

>  <REMARK>
 VINA RESULT:      -8.8      2.721      6.941
  Name = 
  6 active torsions:
  status: ('A' for Active; 'I' for Inactive)
    1  A    between atoms: C_1  and  C_28
    2  A    between atoms: C_2  and  C_4
    3  A    between atoms: C_2  and  N_11
    4  A    between atoms: N_11  and  C_21
    5  A    between atoms: C_17  and  C_21
    6  A    between atoms: C_17  and  N_24
                            x       y       z     vdW  Elec       q    Type
                         _______ _______ _______ _____ _____    ______ ____

>  <TORSDO>
F 6

$$$$
=
 OpenBabel11032419163D

 30 33  0  0  1  0  0  0  0  0999 V2000
  189.9930  175.8070  136.6370 N   0  0  0  0  0  2  0  0  0  0  0  0
  189.3840  177.9170  140.1420 N   0  0  0  0  0  2  0  0  0  0  0  0
  189.8680  176.5950  137.6560 C   0  0  0  0  0  0  0  0  0  0  0  0
  185.2430  177.8690  137.8040 C   0  0  0  0  0  3  0  0  0  0  0  0
  185.0780  178.7470  140.2050 C   0  0  0  0  0  0  0  0  0  0  0  0
  190.7780  176.4370  138.8720 C   0  0  1  0  0  3  0  0  0  0  0  0
  184.2950  179.0960  141.3390 N   0  0  0  0  0  1  0  0  0  0  0  0
  186.3780  178.6950  140.3180 N   0  0  0  0  0  0  0  0  0  0  0  0
  188.4190  178.0070  139.1060 C   0  0  0  0  0  0  0  0  0  0  0  0
  187.1560  178.3560  139.1750 C   0  0  0  0  0  0  0  0  0  0  0  0
  186.5620  177.8980  137.9510 C   0  0  0  0  0  0  0  0  0  0  0  0
  187.5320  177.2160  137.1520 N   0  0  0  0  0  0  0  0  0  0  0  0
  192.2150  176.2180  138.4090 C   0  0  0  0  0  1  0  0  0  0  0  0
  190.7200  177.5980  139.8020 N   0  0  0  0  0  0  0  0  0  0  0  0
  184.3740  178.5220  138.8650 C   0  0  0  0  0  2  0  0  0  0  0  0
  188.6210  177.3260  137.8570 C   0  0  0  0  0  0  0  0  0  0  0  0
  191.3730  177.2170  141.0490 C   0  0  0  0  0  2  0  0  0  0  0  0
  190.4410  175.5210  142.4470 O   0  0  0  0  0  1  0  0  0  0  0  0
  190.3330  176.8680  142.0990 C   0  0  1  0  0  3  0  0  0  0  0  0
  190.5460  177.6910  143.2780 N   0  0  0  0  0  2  0  0  0  0  0  0
  190.1470  176.9080  144.4390 C   0  0  0  0  0  2  0  0  0  0  0  0
  186.2340  178.1240  145.7340 C   0  0  0  0  0  0  0  0  0  0  0  0
  188.7850  177.3120  144.8940 C   0  0  0  0  0  0  0  0  0  0  0  0
  187.7530  177.4540  143.9610 C   0  0  0  0  0  3  0  0  0  0  0  0
  186.4820  177.8580  144.3810 C   0  0  0  0  0  3  0  0  0  0  0  0
  188.5460  177.5790  146.2460 C   0  0  0  0  0  3  0  0  0  0  0  0
  187.2750  177.9830  146.6640 C   0  0  0  0  0  3  0  0  0  0  0  0
  184.0470  179.2080  145.2840 O   0  0  0  0  0  0  0  0  0  0  0  0
  184.5030  178.3270  147.3450 O   0  0  0  0  0  1  0  0  0  0  0  0
  184.8950  178.5520  146.1690 C   0  0  0  0  0  0  0  0  0  0  0  0
  1  3  2  0  0  0  0
  3 16  1  0  0  0  0
  3  6  1  0  0  0  0
  4 11  2  0  0  0  0
  4 15  1  0  0  0  0
  5  8  2  0  0  0  0
  5  7  1  0  0  0  0
  6 13  1  6  0  0  0
  6 14  1  0  0  0  0
  9 10  2  0  0  0  0
  9  2  1  0  0  0  0
 10  8  1  0  0  0  0
 11 10  1  0  0  0  0
 12 16  2  0  0  0  0
 12 11  1  0  0  0  0
 14  2  1  0  0  0  0
 14 17  1  0  0  0  0
 15  5  1  0  0  0  0
 16  9  1  0  0  0  0
 17 19  1  0  0  0  0
 19 18  1  1  0  0  0
 19 20  1  0  0  0  0
 20 21  1  0  0  0  0
 21 23  1  0  0  0  0
 22 30  1  0  0  0  0
 22 27  1  0  0  0  0
 23 26  1  0  0  0  0
 24 25  1  0  0  0  0
 24 23  2  0  0  0  0
 25 22  2  0  0  0  0
 26 27  2  0  0  0  0
 28 30  2  0  0  0  0
 30 29  1  0  0  0  0
M  END
>  <MODEL>
4

>  <REMARK>
 VINA RESULT:      -8.7      3.053      6.990
  Name = 
  6 active torsions:
  status: ('A' for Active; 'I' for Inactive)
    1  A    between atoms: C_1  and  C_28
    2  A    between atoms: C_2  and  C_4
    3  A    between atoms: C_2  and  N_11
    4  A    between atoms: N_11  and  C_21
    5  A    between atoms: C_17  and  C_21
    6  A    between atoms: C_17  and  N_24
                            x       y       z     vdW  Elec       q    Type
                         _______ _______ _______ _____ _____    ______ ____

>  <TORSDO>
F 6

$$$$
=
 OpenBabel11032419163D

 30 33  0  0  1  0  0  0  0  0999 V2000
  187.7680  177.8450  137.0570 N   0  0  0  0  0  2  0  0  0  0  0  0
  187.1010  178.3490  141.1070 N   0  0  0  0  0  2  0  0  0  0  0  0
  187.5050  177.8490  138.3240 C   0  0  0  0  0  0  0  0  0  0  0  0
  191.7210  177.3640  140.5650 C   0  0  0  0  0  3  0  0  0  0  0  0
  191.0860  178.1340  142.9240 C   0  0  0  0  0  0  0  0  0  0  0  0
  186.3040  178.6220  138.8630 C   0  0  1  0  0  3  0  0  0  0  0  0
  191.4640  178.6160  144.2070 N   0  0  0  0  0  1  0  0  0  0  0  0
  189.8230  178.1210  142.5930 N   0  0  0  0  0  0  0  0  0  0  0  0
  188.3090  177.7420  140.6770 C   0  0  0  0  0  0  0  0  0  0  0  0
  189.4520  177.6270  141.3100 C   0  0  0  0  0  0  0  0  0  0  0  0
  190.4220  177.3060  140.3020 C   0  0  0  0  0  0  0  0  0  0  0  0
  189.8050  177.2720  139.0130 N   0  0  0  0  0  0  0  0  0  0  0  0
  185.0960  178.3810  137.9630 C   0  0  0  0  0  1  0  0  0  0  0  0
  185.9640  178.2700  140.2690 N   0  0  0  0  0  0  0  0  0  0  0  0
  192.1690  177.5690  142.0010 C   0  0  0  0  0  2  0  0  0  0  0  0
  188.5540  177.5080  139.2800 C   0  0  0  0  0  0  0  0  0  0  0  0
  185.0230  179.2640  140.7720 C   0  0  0  0  0  2  0  0  0  0  0  0
  183.3170  177.5970  140.6610 O   0  0  0  0  0  1  0  0  0  0  0  0
  183.8710  178.5780  141.4860 C   0  0  1  0  0  3  0  0  0  0  0  0
  184.3600  177.9620  142.7070 N   0  0  0  0  0  2  0  0  0  0  0  0
  184.5290  179.0170  143.6970 C   0  0  0  0  0  2  0  0  0  0  0  0
  187.3240  177.8300  146.7380 C   0  0  0  0  0  0  0  0  0  0  0  0
  185.4910  178.5880  144.7530 C   0  0  0  0  0  0  0  0  0  0  0  0
  185.2580  178.9300  146.0890 C   0  0  0  0  0  3  0  0  0  0  0  0
  186.1700  178.5510  147.0770 C   0  0  0  0  0  3  0  0  0  0  0  0
  186.6420  177.8710  144.4070 C   0  0  0  0  0  3  0  0  0  0  0  0
  187.5540  177.4930  145.3960 C   0  0  0  0  0  3  0  0  0  0  0  0
  189.3360  176.5830  147.4830 O   0  0  0  0  0  0  0  0  0  0  0  0
  188.1590  177.8740  148.9600 O   0  0  0  0  0  1  0  0  0  0  0  0
  188.2830  177.4370  147.7840 C   0  0  0  0  0  0  0  0  0  0  0  0
  1  3  2  0  0  0  0
  3  6  1  0  0  0  0
  3 16  1  0  0  0  0
  4 15  1  0  0  0  0
  5  7  1  0  0  0  0
  6 13  1  6  0  0  0
  6 14  1  0  0  0  0
  8  5  2  0  0  0  0
  9  2  1  0  0  0  0
  9 10  2  0  0  0  0
 10  8  1  0  0  0  0
 11  4  2  0  0  0  0
 11 10  1  0  0  0  0
 12 16  2  0  0  0  0
 12 11  1  0  0  0  0
 14 17  1  0  0  0  0
 14  2  1  0  0  0  0
 15  5  1  0  0  0  0
 16  9  1  0  0  0  0
 17 19  1  0  0  0  0
 19 18  1  6  0  0  0
 19 20  1  0  0  0  0
 20 21  1  0  0  0  0
 21 23  1  0  0  0  0
 22 25  1  0  0  0  0
 22 30  1  0  0  0  0
 23 24  1  0  0  0  0
 24 25  2  0  0  0  0
 26 23  2  0  0  0  0
 26 27  1  0  0  0  0
 27 22  2  0  0  0  0
 28 30  2  0  0  0  0
 30 29  1  0  0  0  0
M  END
>  <MODEL>
5

>  <REMARK>
 VINA RESULT:      -8.5      2.716      8.184
  Name = 
  6 active torsions:
  status: ('A' for Active; 'I' for Inactive)
    1  A    between atoms: C_1  and  C_28
    2  A    between atoms: C_2  and  C_4
    3  A    between atoms: C_2  and  N_11
    4  A    between atoms: N_11  and  C_21
    5  A    between atoms: C_17  and  C_21
    6  A    between atoms: C_17  and  N_24
                            x       y       z     vdW  Elec       q    Type
                         _______ _______ _______ _____ _____    ______ ____

>  <TORSDO>
F 6

$$$$
=
 OpenBabel11032419163D

 30 33  0  0  1  0  0  0  0  0999 V2000
  183.3670  178.2130  138.1530 N   0  0  0  0  0  2  0  0  0  0  0  0
  186.8720  178.2080  140.3500 N   0  0  0  0  0  2  0  0  0  0  0  0
  184.4810  178.3670  138.7930 C   0  0  0  0  0  0  0  0  0  0  0  0
  183.3060  178.9250  143.4130 C   0  0  0  0  0  3  0  0  0  0  0  0
  185.5640  178.4590  144.5280 C   0  0  0  0  0  0  0  0  0  0  0  0
  185.7630  177.7120  138.2830 C   0  0  1  0  0  3  0  0  0  0  0  0
  186.3230  178.1130  145.6790 N   0  0  0  0  0  1  0  0  0  0  0  0
  186.1510  178.4880  143.3610 N   0  0  0  0  0  0  0  0  0  0  0  0
  185.6850  178.7090  140.9440 C   0  0  0  0  0  0  0  0  0  0  0  0
  185.3870  178.8470  142.2140 C   0  0  0  0  0  0  0  0  0  0  0  0
  183.9610  179.0080  142.2620 C   0  0  0  0  0  0  0  0  0  0  0  0
  183.4080  178.9190  140.9470 N   0  0  0  0  0  0  0  0  0  0  0  0
  185.8650  177.9000  136.7720 C   0  0  0  0  0  1  0  0  0  0  0  0
  186.9910  178.2380  138.9400 N   0  0  0  0  0  0  0  0  0  0  0  0
  184.1000  178.8670  144.7050 C   0  0  0  0  0  2  0  0  0  0  0  0
  184.4600  178.7690  140.1950 C   0  0  0  0  0  0  0  0  0  0  0  0
  188.1000  177.3510  138.6100 C   0  0  0  0  0  2  0  0  0  0  0  0
  189.0270  179.4430  137.9290 O   0  0  0  0  0  1  0  0  0  0  0  0
  189.3610  178.1590  138.3650 C   0  0  1  0  0  3  0  0  0  0  0  0
  190.1220  178.2510  139.6000 N   0  0  0  0  0  2  0  0  0  0  0  0
  190.2790  176.9010  140.1230 C   0  0  0  0  0  2  0  0  0  0  0  0
  190.5210  177.0320  144.4110 C   0  0  0  0  0  0  0  0  0  0  0  0
  190.3710  176.9290  141.6110 C   0  0  0  0  0  0  0  0  0  0  0  0
  189.2530  176.6030  142.3850 C   0  0  0  0  0  3  0  0  0  0  0  0
  189.3280  176.6530  143.7790 C   0  0  0  0  0  3  0  0  0  0  0  0
  191.5640  177.3110  142.2350 C   0  0  0  0  0  3  0  0  0  0  0  0
  191.6380  177.3610  143.6300 C   0  0  0  0  0  3  0  0  0  0  0  0
  191.8170  176.9700  146.5270 O   0  0  0  0  0  0  0  0  0  0  0  0
  189.5460  177.2400  146.5660 O   0  0  0  0  0  1  0  0  0  0  0  0
  190.5920  177.0860  145.8810 C   0  0  0  0  0  0  0  0  0  0  0  0
  1  3  2  0  0  0  0
  2  9  1  0  0  0  0
  3 16  1  0  0  0  0
  4 15  1  0  0  0  0
  5 15  1  0  0  0  0
  5  7  1  0  0  0  0
  6 13  1  6  0  0  0
  6  3  1  0  0  0  0
  6 14  1  0  0  0  0
  8  5  2  0  0  0  0
  9 10  2  0  0  0  0
 10 11  1  0  0  0  0
 10  8  1  0  0  0  0
 11  4  2  0  0  0  0
 12 11  1  0  0  0  0
 14  2  1  0  0  0  0
 16  9  1  0  0  0  0
 16 12  2  0  0  0  0
 17 14  1  0  0  0  0
 19 18  1  1  0  0  0
 19 17  1  0  0  0  0
 19 20  1  0  0  0  0
 20 21  1  0  0  0  0
 21 23  1  0  0  0  0
 22 30  1  0  0  0  0
 23 26  2  0  0  0  0
 23 24  1  0  0  0  0
 24 25  2  0  0  0  0
 25 22  1  0  0  0  0
 26 27  1  0  0  0  0
 27 22  2  0  0  0  0
 30 28  2  0  0  0  0
 30 29  1  0  0  0  0
M  END
>  <MODEL>
6

>  <REMARK>
 VINA RESULT:      -8.4      2.093      6.511
  Name = 
  6 active torsions:
  status: ('A' for Active; 'I' for Inactive)
    1  A    between atoms: C_1  and  C_28
    2  A    between atoms: C_2  and  C_4
    3  A    between atoms: C_2  and  N_11
    4  A    between atoms: N_11  and  C_21
    5  A    between atoms: C_17  and  C_21
    6  A    between atoms: C_17  and  N_24
                            x       y       z     vdW  Elec       q    Type
                         _______ _______ _______ _____ _____    ______ ____

>  <TORSDO>
F 6

$$$$
=
 OpenBabel11032419163D

 30 33  0  0  1  0  0  0  0  0999 V2000
  180.9480  179.1100  143.6670 N   0  0  0  0  0  2  0  0  0  0  0  0
  184.5770  178.2810  141.8650 N   0  0  0  0  0  2  0  0  0  0  0  0
  182.0930  179.0110  143.0740 C   0  0  0  0  0  0  0  0  0  0  0  0
  185.3610  178.4870  146.5510 C   0  0  0  0  0  3  0  0  0  0  0  0
  187.3380  177.5810  145.1990 C   0  0  0  0  0  0  0  0  0  0  0  0
  182.1900  178.4060  141.6750 C   0  0  1  0  0  3  0  0  0  0  0  0
  188.5850  176.8990  145.1440 N   0  0  0  0  0  1  0  0  0  0  0  0
  186.7090  177.8540  144.0880 N   0  0  0  0  0  0  0  0  0  0  0  0
  184.5600  178.7080  143.2180 C   0  0  0  0  0  0  0  0  0  0  0  0
  185.4680  178.5480  144.1510 C   0  0  0  0  0  0  0  0  0  0  0  0
  184.7940  178.8030  145.3930 C   0  0  0  0  0  0  0  0  0  0  0  0
  183.4130  179.0900  145.1590 N   0  0  0  0  0  0  0  0  0  0  0  0
  181.0670  178.9570  140.8020 C   0  0  0  0  0  1  0  0  0  0  0  0
  183.5050  178.6530  141.0200 N   0  0  0  0  0  0  0  0  0  0  0  0
  186.8130  178.0460  146.5600 C   0  0  0  0  0  2  0  0  0  0  0  0
  183.3210  179.0500  143.8610 C   0  0  0  0  0  0  0  0  0  0  0  0
  183.5980  177.7910  139.8480 C   0  0  0  0  0  2  0  0  0  0  0  0
  184.6830  179.7940  139.1310 O   0  0  0  0  0  1  0  0  0  0  0  0
  184.2350  178.5450  138.6940 C   0  0  1  0  0  3  0  0  0  0  0  0
  185.3610  177.7810  138.1830 N   0  0  0  0  0  2  0  0  0  0  0  0
  186.5220  178.6600  138.1710 C   0  0  0  0  0  2  0  0  0  0  0  0
  189.5940  177.1930  140.7940 C   0  0  0  0  0  0  0  0  0  0  0  0
  187.5790  178.1340  139.0820 C   0  0  0  0  0  0  0  0  0  0  0  0
  187.5400  178.4430  140.4460 C   0  0  0  0  0  3  0  0  0  0  0  0
  188.5430  177.9730  141.2980 C   0  0  0  0  0  3  0  0  0  0  0  0
  188.6260  177.3590  138.5720 C   0  0  0  0  0  3  0  0  0  0  0  0
  189.6280  176.8900  139.4250 C   0  0  0  0  0  3  0  0  0  0  0  0
  191.8440  177.4030  141.8210 O   0  0  0  0  0  0  0  0  0  0  0  0
  190.4780  175.6510  142.3670 O   0  0  0  0  0  1  0  0  0  0  0  0
  190.6490  176.7040  141.6970 C   0  0  0  0  0  0  0  0  0  0  0  0
  2  9  1  0  0  0  0
  3  1  2  0  0  0  0
  3 16  1  0  0  0  0
  4 15  1  0  0  0  0
  5 15  1  0  0  0  0
  6 13  1  6  0  0  0
  6  3  1  0  0  0  0
  7  5  1  0  0  0  0
  8 10  1  0  0  0  0
  8  5  2  0  0  0  0
  9 16  1  0  0  0  0
  9 10  2  0  0  0  0
 10 11  1  0  0  0  0
 11  4  2  0  0  0  0
 12 11  1  0  0  0  0
 14  6  1  0  0  0  0
 14  2  1  0  0  0  0
 16 12  2  0  0  0  0
 17 14  1  0  0  0  0
 19 18  1  1  0  0  0
 19 17  1  0  0  0  0
 20 19  1  0  0  0  0
 21 20  1  0  0  0  0
 21 23  1  0  0  0  0
 22 25  1  0  0  0  0
 22 30  1  0  0  0  0
 23 24  1  0  0  0  0
 24 25  2  0  0  0  0
 26 23  2  0  0  0  0
 26 27  1  0  0  0  0
 27 22  2  0  0  0  0
 30 28  2  0  0  0  0
 30 29  1  0  0  0  0
M  END
>  <MODEL>
7

>  <REMARK>
 VINA RESULT:      -8.3      2.348      5.992
  Name = 
  6 active torsions:
  status: ('A' for Active; 'I' for Inactive)
    1  A    between atoms: C_1  and  C_28
    2  A    between atoms: C_2  and  C_4
    3  A    between atoms: C_2  and  N_11
    4  A    between atoms: N_11  and  C_21
    5  A    between atoms: C_17  and  C_21
    6  A    between atoms: C_17  and  N_24
                            x       y       z     vdW  Elec       q    Type
                         _______ _______ _______ _____ _____    ______ ____

>  <TORSDO>
F 6

$$$$
=
 OpenBabel11032419163D

 30 33  0  0  1  0  0  0  0  0999 V2000
  184.5860  179.7110  139.5440 N   0  0  0  0  0  2  0  0  0  0  0  0
  186.3220  177.7710  142.7570 N   0  0  0  0  0  2  0  0  0  0  0  0
  185.0610  178.9680  140.4900 C   0  0  0  0  0  0  0  0  0  0  0  0
  189.6880  178.2520  139.4330 C   0  0  0  0  0  3  0  0  0  0  0  0
  190.5670  177.4570  141.7030 C   0  0  0  0  0  0  0  0  0  0  0  0
  184.4820  179.0460  141.9000 C   0  0  1  0  0  3  0  0  0  0  0  0
  191.6520  177.2300  142.5950 N   0  0  0  0  0  1  0  0  0  0  0  0
  189.3430  177.3580  142.1470 N   0  0  0  0  0  0  0  0  0  0  0  0
  186.9920  177.7710  141.5070 C   0  0  0  0  0  0  0  0  0  0  0  0
  188.2630  177.5760  141.2460 C   0  0  0  0  0  0  0  0  0  0  0  0
  188.4650  178.0720  139.9140 C   0  0  0  0  0  0  0  0  0  0  0  0
  187.2470  178.6160  139.3970 N   0  0  0  0  0  0  0  0  0  0  0  0
  182.9580  179.0830  141.8250 C   0  0  0  0  0  1  0  0  0  0  0  0
  184.9160  177.9220  142.7750 N   0  0  0  0  0  0  0  0  0  0  0  0
  190.8720  177.7320  140.2280 C   0  0  0  0  0  2  0  0  0  0  0  0
  186.3970  178.3950  140.3570 C   0  0  0  0  0  0  0  0  0  0  0  0
  184.5630  178.2530  144.1510 C   0  0  0  0  0  2  0  0  0  0  0  0
  184.5690  180.6310  144.3560 O   0  0  0  0  0  1  0  0  0  0  0  0
  185.3260  179.4850  144.6040 C   0  0  1  0  0  3  0  0  0  0  0  0
  185.5990  179.3850  146.0280 N   0  0  0  0  0  2  0  0  0  0  0  0
  185.8010  177.9770  146.3410 C   0  0  0  0  0  2  0  0  0  0  0  0
  189.9710  177.1090  146.9110 C   0  0  0  0  0  0  0  0  0  0  0  0
  187.2520  177.6940  146.5400 C   0  0  0  0  0  0  0  0  0  0  0  0
  188.0620  177.3990  145.4390 C   0  0  0  0  0  3  0  0  0  0  0  0
  189.4170  177.1090  145.6240 C   0  0  0  0  0  3  0  0  0  0  0  0
  187.7990  177.6940  147.8280 C   0  0  0  0  0  3  0  0  0  0  0  0
  189.1530  177.4030  148.0120 C   0  0  0  0  0  3  0  0  0  0  0  0
  192.0340  177.1260  148.2920 O   0  0  0  0  0  1  0  0  0  0  0  0
  192.0550  176.2330  146.1860 O   0  0  0  0  0  0  0  0  0  0  0  0
  191.3980  176.7990  147.1000 C   0  0  0  0  0  0  0  0  0  0  0  0
  1  3  2  0  0  0  0
  2 14  1  0  0  0  0
  3  6  1  0  0  0  0
  4 11  2  0  0  0  0
  4 15  1  0  0  0  0
  5  8  2  0  0  0  0
  5  7  1  0  0  0  0
  6 13  1  6  0  0  0
  6 14  1  0  0  0  0
  9  2  1  0  0  0  0
 10  9  2  0  0  0  0
 10  8  1  0  0  0  0
 11 10  1  0  0  0  0
 12 11  1  0  0  0  0
 12 16  2  0  0  0  0
 14 17  1  0  0  0  0
 15  5  1  0  0  0  0
 16  3  1  0  0  0  0
 16  9  1  0  0  0  0
 17 19  1  0  0  0  0
 19 18  1  1  0  0  0
 19 20  1  0  0  0  0
 20 21  1  0  0  0  0
 21 23  1  0  0  0  0
 22 30  1  0  0  0  0
 22 27  1  0  0  0  0
 23 26  1  0  0  0  0
 24 25  1  0  0  0  0
 24 23  2  0  0  0  0
 25 22  2  0  0  0  0
 26 27  2  0  0  0  0
 29 30  2  0  0  0  0
 30 28  1  0  0  0  0
M  END
>  <MODEL>
8

>  <REMARK>
 VINA RESULT:      -8.3      2.933      7.560
  Name = 
  6 active torsions:
  status: ('A' for Active; 'I' for Inactive)
    1  A    between atoms: C_1  and  C_28
    2  A    between atoms: C_2  and  C_4
    3  A    between atoms: C_2  and  N_11
    4  A    between atoms: N_11  and  C_21
    5  A    between atoms: C_17  and  C_21
    6  A    between atoms: C_17  and  N_24
                            x       y       z     vdW  Elec       q    Type
                         _______ _______ _______ _____ _____    ______ ____

>  <TORSDO>
F 6

$$$$
=
 OpenBabel11032419163D

 30 33  0  0  1  0  0  0  0  0999 V2000
  189.7690  177.5200  136.3380 N   0  0  0  0  0  2  0  0  0  0  0  0
  187.4390  178.3380  139.6550 N   0  0  0  0  0  2  0  0  0  0  0  0
  188.9820  177.6240  137.3580 C   0  0  0  0  0  0  0  0  0  0  0  0
  191.7540  177.1290  141.2450 C   0  0  0  0  0  3  0  0  0  0  0  0
  190.2080  178.0910  143.0460 C   0  0  0  0  0  0  0  0  0  0  0  0
  187.7220  178.4830  137.2790 C   0  0  1  0  0  3  0  0  0  0  0  0
  190.0200  178.6480  144.3410 N   0  0  0  0  0  1  0  0  0  0  0  0
  189.2180  178.1060  142.1940 N   0  0  0  0  0  0  0  0  0  0  0  0
  188.6690  177.6540  139.8270 C   0  0  0  0  0  0  0  0  0  0  0  0
  189.4110  177.5370  140.9040 C   0  0  0  0  0  0  0  0  0  0  0  0
  190.6990  177.1060  140.4400 C   0  0  0  0  0  0  0  0  0  0  0  0
  190.7060  177.0060  139.0140 N   0  0  0  0  0  0  0  0  0  0  0  0
  187.0130  178.2270  135.9510 C   0  0  0  0  0  1  0  0  0  0  0  0
  186.7790  178.2460  138.4070 N   0  0  0  0  0  0  0  0  0  0  0  0
  191.5440  177.4180  142.7200 C   0  0  0  0  0  2  0  0  0  0  0  0
  189.4820  177.3110  138.6930 C   0  0  0  0  0  0  0  0  0  0  0  0
  185.7820  179.3100  138.3980 C   0  0  0  0  0  2  0  0  0  0  0  0
  184.4760  177.4370  139.0930 O   0  0  0  0  0  1  0  0  0  0  0  0
  184.5010  178.8320  139.0580 C   0  0  1  0  0  3  0  0  0  0  0  0
  184.4370  179.3500  140.4150 N   0  0  0  0  0  2  0  0  0  0  0  0
  183.8380  178.3210  141.2520 C   0  0  0  0  0  2  0  0  0  0  0  0
  185.4820  178.5450  145.2160 C   0  0  0  0  0  0  0  0  0  0  0  0
  184.4050  178.3800  142.6310 C   0  0  0  0  0  0  0  0  0  0  0  0
  183.6370  178.9000  143.6780 C   0  0  0  0  0  3  0  0  0  0  0  0
  184.1740  178.9800  144.9660 C   0  0  0  0  0  3  0  0  0  0  0  0
  185.7120  177.9470  142.8730 C   0  0  0  0  0  3  0  0  0  0  0  0
  186.2480  178.0280  144.1610 C   0  0  0  0  0  3  0  0  0  0  0  0
  186.9820  177.7080  147.0080 O   0  0  0  0  0  0  0  0  0  0  0  0
  185.6800  179.5570  147.3550 O   0  0  0  0  0  1  0  0  0  0  0  0
  186.0430  178.6360  146.5740 C   0  0  0  0  0  0  0  0  0  0  0  0
  1  3  2  0  0  0  0
  2  9  1  0  0  0  0
  3 16  1  0  0  0  0
  4 15  1  0  0  0  0
  5  7  1  0  0  0  0
  6 13  1  6  0  0  0
  6  3  1  0  0  0  0
  6 14  1  0  0  0  0
  8  5  2  0  0  0  0
  9 10  2  0  0  0  0
 10  8  1  0  0  0  0
 11 10  1  0  0  0  0
 11  4  2  0  0  0  0
 12 11  1  0  0  0  0
 14  2  1  0  0  0  0
 15  5  1  0  0  0  0
 16 12  2  0  0  0  0
 16  9  1  0  0  0  0
 17 14  1  0  0  0  0
 17 19  1  0  0  0  0
 19 18  1  1  0  0  0
 19 20  1  0  0  0  0
 20 21  1  0  0  0  0
 21 23  1  0  0  0  0
 22 30  1  0  0  0  0
 23 26  2  0  0  0  0
 23 24  1  0  0  0  0
 24 25  2  0  0  0  0
 25 22  1  0  0  0  0
 26 27  1  0  0  0  0
 27 22  2  0  0  0  0
 30 28  2  0  0  0  0
 30 29  1  0  0  0  0
M  END
>  <MODEL>
9

>  <REMARK>
 VINA RESULT:      -8.2      2.720      8.189
  Name = 
  6 active torsions:
  status: ('A' for Active; 'I' for Inactive)
    1  A    between atoms: C_1  and  C_28
    2  A    between atoms: C_2  and  C_4
    3  A    between atoms: C_2  and  N_11
    4  A    between atoms: N_11  and  C_21
    5  A    between atoms: C_17  and  C_21
    6  A    between atoms: C_17  and  N_24
                            x       y       z     vdW  Elec       q    Type
                         _______ _______ _______ _____ _____    ______ ____

>  <TORSDO>
F 6

$$$$
