=
 OpenBabel11042412023D

 28 31  0  0  1  0  0  0  0  0999 V2000
  189.7080  177.2550  146.2490 N   0  0  0  0  0  0  0  0  0  0  0  0
  184.0630  178.8130  144.5920 N   0  0  0  0  0  0  0  0  0  0  0  0
  184.1340  178.5140  143.2680 C   0  0  0  0  0  3  0  0  0  0  0  0
  185.1200  178.6230  145.4260 C   0  0  0  0  0  0  0  0  0  0  0  0
  186.3340  178.1010  144.9240 C   0  0  0  0  0  0  0  0  0  0  0  0
  190.9600  176.7810  145.7290 C   0  0  0  0  0  0  0  0  0  0  0  0
  187.2570  178.2470  147.1700 C   0  0  0  0  0  0  0  0  0  0  0  0
  187.4170  177.9130  145.8070 C   0  0  0  0  0  0  0  0  0  0  0  0
  191.9470  176.6260  146.5020 O   0  0  0  0  0  0  0  0  0  0  0  0
  185.3110  177.9970  142.7260 C   0  0  0  0  0  3  0  0  0  0  0  0
  186.4130  177.7910  143.5570 C   0  0  0  0  0  3  0  0  0  0  0  0
  189.5810  177.5110  147.6900 C   0  0  0  0  0  2  0  0  0  0  0  0
  188.2410  178.0840  148.0580 C   0  0  0  0  0  3  0  0  0  0  0  0
  186.0360  178.7630  147.6100 C   0  0  0  0  0  3  0  0  0  0  0  0
  188.5910  177.4400  145.3660 C   0  0  0  0  0  3  0  0  0  0  0  0
  185.0070  178.9380  146.7420 N   0  0  0  0  0  0  0  0  0  0  0  0
  191.9940  175.3460  144.0750 N   0  0  0  0  0  1  0  0  0  0  0  0
  191.1230  176.4940  144.2680 C   0  0  2  0  0  3  0  0  0  0  0  0
  191.6910  177.7090  143.5540 C   0  0  0  0  0  2  0  0  0  0  0  0
  191.4190  177.6180  142.1310 N   0  0  0  0  0  2  0  0  0  0  0  0
  190.0140  177.2740  141.9960 C   0  0  0  0  0  2  0  0  0  0  0  0
  189.8850  177.5380  138.2240 C   0  0  0  0  0  3  0  0  0  0  0  0
  187.9520  178.5930  139.1530 N   0  0  0  0  0  0  0  0  0  0  0  0
  188.6840  178.2330  138.0630 C   0  0  0  0  0  0  0  0  0  0  0  0
  189.5510  177.5880  140.6160 C   0  0  0  0  0  0  0  0  0  0  0  0
  188.2060  178.5820  136.7000 C   0  0  0  0  0  1  0  0  0  0  0  0
  190.3200  177.2170  139.5110 C   0  0  0  0  0  3  0  0  0  0  0  0
  188.3590  178.2900  140.4160 C   0  0  0  0  0  3  0  0  0  0  0  0
  1 12  1  0  0  0  0
  2  4  2  0  0  0  0
  3  2  1  0  0  0  0
  4 16  1  0  0  0  0
  5  4  1  0  0  0  0
  5  8  1  0  0  0  0
  6  1  1  0  0  0  0
  6  9  2  0  0  0  0
  7 14  1  0  0  0  0
  7 13  2  0  0  0  0
  8  7  1  0  0  0  0
 10  3  2  0  0  0  0
 10 11  1  0  0  0  0
 11  5  2  0  0  0  0
 12 13  1  0  0  0  0
 15  8  2  0  0  0  0
 15  1  1  0  0  0  0
 16 14  2  0  0  0  0
 18 17  1  1  0  0  0
 18  6  1  0  0  0  0
 19 18  1  0  0  0  0
 20 19  1  0  0  0  0
 21 20  1  0  0  0  0
 22 27  1  0  0  0  0
 23 28  2  0  0  0  0
 24 22  2  0  0  0  0
 24 23  1  0  0  0  0
 25 21  1  0  0  0  0
 26 24  1  0  0  0  0
 27 25  2  0  0  0  0
 28 25  1  0  0  0  0
M  END
>  <MODEL>
1

>  <REMARK>
 VINA RESULT:     -10.2      0.000      0.000
  Name = 
  5 active torsions:
  status: ('A' for Active; 'I' for Inactive)
    1  A    between atoms: C_8  and  C_11
    2  A    between atoms: C_8  and  C_25
    3  A    between atoms: C_12  and  C_13
    4  A    between atoms: C_13  and  N_18
    5  A    between atoms: N_18  and  C_25
                            x       y       z     vdW  Elec       q    Type
                         _______ _______ _______ _____ _____    ______ ____

>  <TORSDO>
F 5

$$$$
=
 OpenBabel11042412023D

 28 31  0  0  1  0  0  0  0  0999 V2000
  189.4890  177.2200  146.1500 N   0  0  0  0  0  0  0  0  0  0  0  0
  183.9160  178.8800  144.3560 N   0  0  0  0  0  0  0  0  0  0  0  0
  184.0270  178.6170  143.0260 C   0  0  0  0  0  3  0  0  0  0  0  0
  184.9440  178.6560  145.2180 C   0  0  0  0  0  0  0  0  0  0  0  0
  186.1680  178.1360  144.7410 C   0  0  0  0  0  0  0  0  0  0  0  0
  190.7530  176.7470  145.6580 C   0  0  0  0  0  0  0  0  0  0  0  0
  187.0190  178.2110  147.0190 C   0  0  0  0  0  0  0  0  0  0  0  0
  187.2200  177.9130  145.6530 C   0  0  0  0  0  0  0  0  0  0  0  0
  191.7120  176.5610  146.4570 O   0  0  0  0  0  0  0  0  0  0  0  0
  185.2160  178.1040  142.5090 C   0  0  0  0  0  3  0  0  0  0  0  0
  186.2890  177.8630  143.3690 C   0  0  0  0  0  3  0  0  0  0  0  0
  189.3180  177.4370  147.5920 C   0  0  0  0  0  2  0  0  0  0  0  0
  187.9720  178.0130  147.9330 C   0  0  0  0  0  3  0  0  0  0  0  0
  185.7890  178.7270  147.4340 C   0  0  0  0  0  3  0  0  0  0  0  0
  188.4030  177.4400  145.2370 C   0  0  0  0  0  3  0  0  0  0  0  0
  184.7900  178.9360  146.5370 N   0  0  0  0  0  0  0  0  0  0  0  0
  191.8950  175.4020  143.9990 N   0  0  0  0  0  1  0  0  0  0  0  0
  190.9600  176.4990  144.1950 C   0  0  2  0  0  3  0  0  0  0  0  0
  191.4780  177.7560  143.5170 C   0  0  0  0  0  2  0  0  0  0  0  0
  192.1020  177.4140  142.2520 N   0  0  0  0  0  2  0  0  0  0  0  0
  191.0590  177.4710  141.2430 C   0  0  0  0  0  2  0  0  0  0  0  0
  191.3270  176.2810  137.6630 C   0  0  0  0  0  3  0  0  0  0  0  0
  193.5100  176.8020  138.4830 N   0  0  0  0  0  0  0  0  0  0  0  0
  192.7080  176.3670  137.4730 C   0  0  0  0  0  0  0  0  0  0  0  0
  191.6220  177.1000  139.9160 C   0  0  0  0  0  0  0  0  0  0  0  0
  193.3030  175.9810  136.1670 C   0  0  0  0  0  1  0  0  0  0  0  0
  190.7830  176.6480  138.8950 C   0  0  0  0  0  3  0  0  0  0  0  0
  193.0000  177.1640  139.6920 C   0  0  0  0  0  3  0  0  0  0  0  0
  1 12  1  0  0  0  0
  2  4  2  0  0  0  0
  3  2  1  0  0  0  0
  4 16  1  0  0  0  0
  5  4  1  0  0  0  0
  5  8  1  0  0  0  0
  6  1  1  0  0  0  0
  6  9  2  0  0  0  0
  7 14  1  0  0  0  0
  7 13  2  0  0  0  0
  8  7  1  0  0  0  0
 10  3  2  0  0  0  0
 10 11  1  0  0  0  0
 11  5  2  0  0  0  0
 12 13  1  0  0  0  0
 15  8  2  0  0  0  0
 15  1  1  0  0  0  0
 16 14  2  0  0  0  0
 18 17  1  1  0  0  0
 18  6  1  0  0  0  0
 19 18  1  0  0  0  0
 20 19  1  0  0  0  0
 21 20  1  0  0  0  0
 22 27  1  0  0  0  0
 23 28  2  0  0  0  0
 24 22  2  0  0  0  0
 24 23  1  0  0  0  0
 25 21  1  0  0  0  0
 26 24  1  0  0  0  0
 27 25  2  0  0  0  0
 28 25  1  0  0  0  0
M  END
>  <MODEL>
2

>  <REMARK>
 VINA RESULT:      -9.4      1.567      2.107
  Name = 
  5 active torsions:
  status: ('A' for Active; 'I' for Inactive)
    1  A    between atoms: C_8  and  C_11
    2  A    between atoms: C_8  and  C_25
    3  A    between atoms: C_12  and  C_13
    4  A    between atoms: C_13  and  N_18
    5  A    between atoms: N_18  and  C_25
                            x       y       z     vdW  Elec       q    Type
                         _______ _______ _______ _____ _____    ______ ____

>  <TORSDO>
F 5

$$$$
=
 OpenBabel11042412023D

 28 31  0  0  1  0  0  0  0  0999 V2000
  186.4640  178.5290  141.6160 N   0  0  0  0  0  0  0  0  0  0  0  0
  186.3310  178.0710  147.6830 N   0  0  0  0  0  0  0  0  0  0  0  0
  187.6470  177.8150  147.9120 C   0  0  0  0  0  3  0  0  0  0  0  0
  185.8480  178.2650  146.4270 C   0  0  0  0  0  0  0  0  0  0  0  0
  186.7180  178.2040  145.3160 C   0  0  0  0  0  0  0  0  0  0  0  0
  187.3360  178.4080  140.4810 C   0  0  0  0  0  0  0  0  0  0  0  0
  184.8150  178.6710  143.8750 C   0  0  0  0  0  0  0  0  0  0  0  0
  186.1940  178.4070  144.0220 C   0  0  0  0  0  0  0  0  0  0  0  0
  186.8800  178.5680  139.3140 O   0  0  0  0  0  0  0  0  0  0  0  0
  188.5450  177.7450  146.8460 C   0  0  0  0  0  3  0  0  0  0  0  0
  188.0780  177.9400  145.5450 C   0  0  0  0  0  3  0  0  0  0  0  0
  185.0550  178.8820  141.4020 C   0  0  0  0  0  2  0  0  0  0  0  0
  184.2590  178.8810  142.6780 C   0  0  0  0  0  3  0  0  0  0  0  0
  184.0000  178.7150  145.0090 C   0  0  0  0  0  3  0  0  0  0  0  0
  186.9840  178.3380  142.9410 C   0  0  0  0  0  3  0  0  0  0  0  0
  184.5260  178.5140  146.2440 N   0  0  0  0  0  0  0  0  0  0  0  0
  189.4530  178.0170  139.3710 N   0  0  0  0  0  1  0  0  0  0  0  0
  188.7840  178.0660  140.6610 C   0  0  2  0  0  3  0  0  0  0  0  0
  188.9220  176.7320  141.3740 C   0  0  0  0  0  2  0  0  0  0  0  0
  190.3220  176.3540  141.4490 N   0  0  0  0  0  2  0  0  0  0  0  0
  191.0070  177.4290  142.1460 C   0  0  0  0  0  2  0  0  0  0  0  0
  191.8490  175.2350  145.1110 C   0  0  0  0  0  3  0  0  0  0  0  0
  191.7610  177.5160  145.8200 N   0  0  0  0  0  0  0  0  0  0  0  0
  191.9560  176.2010  146.1150 C   0  0  0  0  0  0  0  0  0  0  0  0
  191.3560  176.9900  143.5250 C   0  0  0  0  0  0  0  0  0  0  0  0
  192.2810  175.7930  147.5060 C   0  0  0  0  0  1  0  0  0  0  0  0
  191.5450  175.6350  143.8090 C   0  0  0  0  0  3  0  0  0  0  0  0
  191.4630  177.9260  144.5570 C   0  0  0  0  0  3  0  0  0  0  0  0
  1 15  1  0  0  0  0
  2  3  1  0  0  0  0
  4  2  2  0  0  0  0
  5 11  2  0  0  0  0
  5  4  1  0  0  0  0
  6 18  1  0  0  0  0
  6  1  1  0  0  0  0
  7  8  1  0  0  0  0
  7 14  1  0  0  0  0
  8  5  1  0  0  0  0
  9  6  2  0  0  0  0
 10  3  2  0  0  0  0
 11 10  1  0  0  0  0
 12  1  1  0  0  0  0
 12 13  1  0  0  0  0
 13  7  2  0  0  0  0
 14 16  2  0  0  0  0
 15  8  2  0  0  0  0
 16  4  1  0  0  0  0
 18 17  1  6  0  0  0
 18 19  1  0  0  0  0
 19 20  1  0  0  0  0
 20 21  1  0  0  0  0
 21 25  1  0  0  0  0
 22 24  1  0  0  0  0
 23 24  2  0  0  0  0
 24 26  1  0  0  0  0
 25 27  1  0  0  0  0
 25 28  2  0  0  0  0
 27 22  2  0  0  0  0
 28 23  1  0  0  0  0
M  END
>  <MODEL>
3

>  <REMARK>
 VINA RESULT:      -8.9      2.333      5.566
  Name = 
  5 active torsions:
  status: ('A' for Active; 'I' for Inactive)
    1  A    between atoms: C_8  and  C_11
    2  A    between atoms: C_8  and  C_25
    3  A    between atoms: C_12  and  C_13
    4  A    between atoms: C_13  and  N_18
    5  A    between atoms: N_18  and  C_25
                            x       y       z     vdW  Elec       q    Type
                         _______ _______ _______ _____ _____    ______ ____

>  <TORSDO>
F 5

$$$$
=
 OpenBabel11042412023D

 28 31  0  0  1  0  0  0  0  0999 V2000
  190.2110  176.9310  142.6350 N   0  0  0  0  0  0  0  0  0  0  0  0
  188.0580  177.8670  148.2510 N   0  0  0  0  0  0  0  0  0  0  0  0
  186.7820  178.2180  147.9400 C   0  0  0  0  0  3  0  0  0  0  0  0
  188.9660  177.5430  147.2910 C   0  0  0  0  0  0  0  0  0  0  0  0
  188.5940  177.5670  145.9280 C   0  0  0  0  0  0  0  0  0  0  0  0
  189.8510  177.0120  141.2470 C   0  0  0  0  0  0  0  0  0  0  0  0
  190.8550  176.8720  145.3600 C   0  0  0  0  0  0  0  0  0  0  0  0
  189.5520  177.2290  144.9490 C   0  0  0  0  0  0  0  0  0  0  0  0
  190.7020  176.7320  140.3570 O   0  0  0  0  0  0  0  0  0  0  0  0
  186.3690  178.2560  146.6080 C   0  0  0  0  0  3  0  0  0  0  0  0
  187.2780  177.9300  145.6000 C   0  0  0  0  0  3  0  0  0  0  0  0
  191.5590  176.4780  143.0010 C   0  0  0  0  0  2  0  0  0  0  0  0
  191.8040  176.5330  144.4830 C   0  0  0  0  0  3  0  0  0  0  0  0
  191.1680  176.8700  146.7210 C   0  0  0  0  0  3  0  0  0  0  0  0
  189.2440  177.2590  143.6450 C   0  0  0  0  0  3  0  0  0  0  0  0
  190.2300  177.2010  147.6460 N   0  0  0  0  0  0  0  0  0  0  0  0
  188.3390  177.3760  139.3910 N   0  0  0  0  0  1  0  0  0  0  0  0
  188.4800  177.4550  140.8360 C   0  0  2  0  0  3  0  0  0  0  0  0
  188.2220  178.8740  141.3120 C   0  0  0  0  0  2  0  0  0  0  0  0
  186.7950  179.1390  141.3260 N   0  0  0  0  0  2  0  0  0  0  0  0
  186.1860  178.1010  142.1400 C   0  0  0  0  0  2  0  0  0  0  0  0
  183.0010  179.1340  143.8990 C   0  0  0  0  0  3  0  0  0  0  0  0
  182.5030  178.5950  141.6250 N   0  0  0  0  0  0  0  0  0  0  0  0
  182.0840  179.0030  142.8540 C   0  0  0  0  0  0  0  0  0  0  0  0
  184.7590  178.4360  142.3960 C   0  0  0  0  0  0  0  0  0  0  0  0
  180.6480  179.3080  143.0840 C   0  0  0  0  0  1  0  0  0  0  0  0
  184.3470  178.8460  143.6670 C   0  0  0  0  0  3  0  0  0  0  0  0
  183.8100  178.3080  141.3780 C   0  0  0  0  0  3  0  0  0  0  0  0
  1 12  1  0  0  0  0
  1 15  1  0  0  0  0
  3  2  1  0  0  0  0
  4 16  1  0  0  0  0
  4  2  2  0  0  0  0
  5  4  1  0  0  0  0
  6  1  1  0  0  0  0
  7 14  1  0  0  0  0
  8  7  1  0  0  0  0
  8  5  1  0  0  0  0
  9  6  2  0  0  0  0
 10  3  2  0  0  0  0
 11  5  2  0  0  0  0
 11 10  1  0  0  0  0
 12 13  1  0  0  0  0
 13  7  2  0  0  0  0
 14 16  2  0  0  0  0
 15  8  2  0  0  0  0
 18 17  1  6  0  0  0
 18  6  1  0  0  0  0
 18 19  1  0  0  0  0
 19 20  1  0  0  0  0
 20 21  1  0  0  0  0
 21 25  1  0  0  0  0
 23 24  1  0  0  0  0
 24 26  1  0  0  0  0
 24 22  2  0  0  0  0
 25 27  2  0  0  0  0
 27 22  1  0  0  0  0
 28 23  2  0  0  0  0
 28 25  1  0  0  0  0
M  END
>  <MODEL>
4

>  <REMARK>
 VINA RESULT:      -8.7      2.176      5.441
  Name = 
  5 active torsions:
  status: ('A' for Active; 'I' for Inactive)
    1  A    between atoms: C_8  and  C_11
    2  A    between atoms: C_8  and  C_25
    3  A    between atoms: C_12  and  C_13
    4  A    between atoms: C_13  and  N_18
    5  A    between atoms: N_18  and  C_25
                            x       y       z     vdW  Elec       q    Type
                         _______ _______ _______ _____ _____    ______ ____

>  <TORSDO>
F 5

$$$$
=
 OpenBabel11042412023D

 28 31  0  0  1  0  0  0  0  0999 V2000
  190.4420  177.5080  141.2270 N   0  0  0  0  0  0  0  0  0  0  0  0
  185.0630  178.4890  138.5540 N   0  0  0  0  0  0  0  0  0  0  0  0
  184.4010  179.0570  139.5970 C   0  0  0  0  0  3  0  0  0  0  0  0
  186.3580  178.0860  138.6620 C   0  0  0  0  0  0  0  0  0  0  0  0
  187.0520  178.2530  139.8820 C   0  0  0  0  0  0  0  0  0  0  0  0
  191.1310  177.6230  142.4830 C   0  0  0  0  0  0  0  0  0  0  0  0
  189.0070  177.2490  138.8370 C   0  0  0  0  0  0  0  0  0  0  0  0
  188.3940  177.8260  139.9710 C   0  0  0  0  0  0  0  0  0  0  0  0
  192.3250  177.2280  142.5860 O   0  0  0  0  0  0  0  0  0  0  0  0
  185.0460  179.2430  140.8210 C   0  0  0  0  0  3  0  0  0  0  0  0
  186.3740  178.8390  140.9620 C   0  0  0  0  0  3  0  0  0  0  0  0
  191.1590  176.9700  140.0640 C   0  0  0  0  0  2  0  0  0  0  0  0
  190.2760  176.8330  138.8550 C   0  0  0  0  0  3  0  0  0  0  0  0
  188.2700  177.1040  137.6590 C   0  0  0  0  0  3  0  0  0  0  0  0
  189.0810  177.9490  141.1160 C   0  0  0  0  0  3  0  0  0  0  0  0
  186.9790  177.5200  137.5960 N   0  0  0  0  0  0  0  0  0  0  0  0
  190.9300  179.5190  143.9760 N   0  0  0  0  0  1  0  0  0  0  0  0
  190.4370  178.1820  143.6880 C   0  0  2  0  0  3  0  0  0  0  0  0
  190.6530  177.2740  144.8860 C   0  0  0  0  0  2  0  0  0  0  0  0
  189.3930  176.6740  145.2850 N   0  0  0  0  0  2  0  0  0  0  0  0
  188.8420  177.5180  146.3310 C   0  0  0  0  0  2  0  0  0  0  0  0
  185.6660  178.1520  144.3770 C   0  0  0  0  0  3  0  0  0  0  0  0
  185.2990  178.7030  146.6740 N   0  0  0  0  0  0  0  0  0  0  0  0
  184.8310  178.6110  145.3990 C   0  0  0  0  0  0  0  0  0  0  0  0
  187.4380  177.8800  145.9970 C   0  0  0  0  0  0  0  0  0  0  0  0
  183.4300  179.0020  145.0940 C   0  0  0  0  0  1  0  0  0  0  0  0
  186.9790  177.7870  144.6810 C   0  0  0  0  0  3  0  0  0  0  0  0
  186.5760  178.3520  146.9910 C   0  0  0  0  0  3  0  0  0  0  0  0
  1  6  1  0  0  0  0
  2  4  2  0  0  0  0
  2  3  1  0  0  0  0
  3 10  2  0  0  0  0
  4  5  1  0  0  0  0
  5  8  1  0  0  0  0
  5 11  2  0  0  0  0
  6  9  2  0  0  0  0
  6 18  1  0  0  0  0
  7 13  2  0  0  0  0
  7  8  1  0  0  0  0
  8 15  2  0  0  0  0
 10 11  1  0  0  0  0
 12  1  1  0  0  0  0
 13 12  1  0  0  0  0
 14  7  1  0  0  0  0
 15  1  1  0  0  0  0
 16 14  2  0  0  0  0
 16  4  1  0  0  0  0
 18 17  1  1  0  0  0
 18 19  1  0  0  0  0
 19 20  1  0  0  0  0
 20 21  1  0  0  0  0
 22 27  2  0  0  0  0
 22 24  1  0  0  0  0
 23 28  1  0  0  0  0
 24 23  2  0  0  0  0
 25 21  1  0  0  0  0
 25 28  2  0  0  0  0
 26 24  1  0  0  0  0
 27 25  1  0  0  0  0
M  END
>  <MODEL>
5

>  <REMARK>
 VINA RESULT:      -8.7      1.741      6.342
  Name = 
  5 active torsions:
  status: ('A' for Active; 'I' for Inactive)
    1  A    between atoms: C_8  and  C_11
    2  A    between atoms: C_8  and  C_25
    3  A    between atoms: C_12  and  C_13
    4  A    between atoms: C_13  and  N_18
    5  A    between atoms: N_18  and  C_25
                            x       y       z     vdW  Elec       q    Type
                         _______ _______ _______ _____ _____    ______ ____

>  <TORSDO>
F 5

$$$$
=
 OpenBabel11042412023D

 28 31  0  0  1  0  0  0  0  0999 V2000
  188.5690  177.8080  146.6120 N   0  0  0  0  0  0  0  0  0  0  0  0
  189.8590  177.1820  140.6970 N   0  0  0  0  0  0  0  0  0  0  0  0
  188.8020  177.8570  140.1700 C   0  0  0  0  0  3  0  0  0  0  0  0
  190.0240  177.0470  142.0400 C   0  0  0  0  0  0  0  0  0  0  0  0
  189.0840  177.6150  142.9300 C   0  0  0  0  0  0  0  0  0  0  0  0
  187.5840  178.3340  147.5160 C   0  0  0  0  0  0  0  0  0  0  0  0
  190.4040  176.7480  144.7810 C   0  0  0  0  0  0  0  0  0  0  0  0
  189.2760  177.4610  144.3190 C   0  0  0  0  0  0  0  0  0  0  0  0
  187.7290  178.1880  148.7620 O   0  0  0  0  0  0  0  0  0  0  0  0
  187.8480  178.4340  141.0090 C   0  0  0  0  0  3  0  0  0  0  0  0
  187.9910  178.3120  142.3920 C   0  0  0  0  0  3  0  0  0  0  0  0
  189.7600  177.1450  147.1560 C   0  0  0  0  0  2  0  0  0  0  0  0
  190.6460  176.5750  146.0830 C   0  0  0  0  0  3  0  0  0  0  0  0
  191.2970  176.2040  143.8550 C   0  0  0  0  0  3  0  0  0  0  0  0
  188.3970  177.9680  145.1950 C   0  0  0  0  0  3  0  0  0  0  0  0
  191.0920  176.3630  142.5220 N   0  0  0  0  0  0  0  0  0  0  0  0
  186.0050  180.1340  147.8740 N   0  0  0  0  0  1  0  0  0  0  0  0
  186.3640  179.0310  146.9970 C   0  0  2  0  0  3  0  0  0  0  0  0
  185.2080  178.0530  146.8850 C   0  0  0  0  0  2  0  0  0  0  0  0
  184.1860  178.5940  146.0070 N   0  0  0  0  0  2  0  0  0  0  0  0
  184.8160  178.8040  144.7150 C   0  0  0  0  0  2  0  0  0  0  0  0
  181.4780  178.9510  142.9410 C   0  0  0  0  0  3  0  0  0  0  0  0
  183.1920  178.4550  141.3510 N   0  0  0  0  0  0  0  0  0  0  0  0
  181.8780  178.6760  141.6310 C   0  0  0  0  0  0  0  0  0  0  0  0
  183.7830  178.7790  143.6430 C   0  0  0  0  0  0  0  0  0  0  0  0
  180.8690  178.6210  140.5420 C   0  0  0  0  0  1  0  0  0  0  0  0
  182.4390  179.0000  143.9520 C   0  0  0  0  0  3  0  0  0  0  0  0
  184.1440  178.4980  142.3220 C   0  0  0  0  0  3  0  0  0  0  0  0
  1 12  1  0  0  0  0
  1  6  1  0  0  0  0
  2  4  2  0  0  0  0
  3  2  1  0  0  0  0
  3 10  2  0  0  0  0
  4 16  1  0  0  0  0
  4  5  1  0  0  0  0
  5  8  1  0  0  0  0
  6  9  2  0  0  0  0
  7 13  2  0  0  0  0
  8  7  1  0  0  0  0
  8 15  2  0  0  0  0
 10 11  1  0  0  0  0
 11  5  2  0  0  0  0
 13 12  1  0  0  0  0
 14  7  1  0  0  0  0
 15  1  1  0  0  0  0
 16 14  2  0  0  0  0
 18  6  1  0  0  0  0
 18 17  1  1  0  0  0
 19 18  1  0  0  0  0
 20 19  1  0  0  0  0
 21 20  1  0  0  0  0
 22 27  1  0  0  0  0
 23 24  1  0  0  0  0
 23 28  2  0  0  0  0
 24 22  2  0  0  0  0
 25 27  2  0  0  0  0
 25 21  1  0  0  0  0
 26 24  1  0  0  0  0
 28 25  1  0  0  0  0
M  END
>  <MODEL>
6

>  <REMARK>
 VINA RESULT:      -8.7      1.908      5.993
  Name = 
  5 active torsions:
  status: ('A' for Active; 'I' for Inactive)
    1  A    between atoms: C_8  and  C_11
    2  A    between atoms: C_8  and  C_25
    3  A    between atoms: C_12  and  C_13
    4  A    between atoms: C_13  and  N_18
    5  A    between atoms: N_18  and  C_25
                            x       y       z     vdW  Elec       q    Type
                         _______ _______ _______ _____ _____    ______ ____

>  <TORSDO>
F 5

$$$$
=
 OpenBabel11042412023D

 28 31  0  0  1  0  0  0  0  0999 V2000
  189.1870  177.1070  144.3830 N   0  0  0  0  0  0  0  0  0  0  0  0
  183.5290  179.0760  145.4550 N   0  0  0  0  0  0  0  0  0  0  0  0
  183.0440  179.0500  144.1850 C   0  0  0  0  0  3  0  0  0  0  0  0
  184.8040  178.7000  145.7420 C   0  0  0  0  0  0  0  0  0  0  0  0
  185.6650  178.2680  144.7080 C   0  0  0  0  0  0  0  0  0  0  0  0
  190.0810  176.7250  143.3260 C   0  0  0  0  0  0  0  0  0  0  0  0
  187.4050  177.9390  146.3760 C   0  0  0  0  0  0  0  0  0  0  0  0
  186.9840  177.8850  145.0290 C   0  0  0  0  0  0  0  0  0  0  0  0
  191.2710  176.3980  143.5930 O   0  0  0  0  0  0  0  0  0  0  0  0
  183.8570  178.6310  143.1310 C   0  0  0  0  0  3  0  0  0  0  0  0
  185.1710  178.2400  143.3950 C   0  0  0  0  0  3  0  0  0  0  0  0
  189.6610  177.0690  145.7720 C   0  0  0  0  0  2  0  0  0  0  0  0
  188.6370  177.5810  146.7460 C   0  0  0  0  0  3  0  0  0  0  0  0
  186.5120  178.3780  147.3570 C   0  0  0  0  0  3  0  0  0  0  0  0
  187.8380  177.4880  144.0750 C   0  0  0  0  0  3  0  0  0  0  0  0
  185.2480  178.7450  147.0240 N   0  0  0  0  0  0  0  0  0  0  0  0
  190.6280  176.1120  141.0480 N   0  0  0  0  0  1  0  0  0  0  0  0
  189.6280  176.7370  141.8980 C   0  0  2  0  0  3  0  0  0  0  0  0
  189.3690  178.1620  141.4410 C   0  0  0  0  0  2  0  0  0  0  0  0
  188.2880  178.1820  140.4730 N   0  0  0  0  0  2  0  0  0  0  0  0
  188.8770  178.5510  139.1970 C   0  0  0  0  0  2  0  0  0  0  0  0
  189.4080  175.7620  136.6970 C   0  0  0  0  0  3  0  0  0  0  0  0
  187.0760  176.2710  136.8240 N   0  0  0  0  0  0  0  0  0  0  0  0
  188.0900  175.5360  136.2910 C   0  0  0  0  0  0  0  0  0  0  0  0
  188.6120  177.4830  138.1950 C   0  0  0  0  0  0  0  0  0  0  0  0
  187.7960  174.4930  135.2750 C   0  0  0  0  0  1  0  0  0  0  0  0
  189.6670  176.7450  137.6540 C   0  0  0  0  0  3  0  0  0  0  0  0
  187.3080  177.2340  137.7570 C   0  0  0  0  0  3  0  0  0  0  0  0
  1 12  1  0  0  0  0
  2  4  2  0  0  0  0
  3  2  1  0  0  0  0
  4 16  1  0  0  0  0
  5  8  1  0  0  0  0
  5  4  1  0  0  0  0
  6  9  2  0  0  0  0
  6  1  1  0  0  0  0
  7 13  2  0  0  0  0
  7 14  1  0  0  0  0
  8  7  1  0  0  0  0
 10 11  1  0  0  0  0
 10  3  2  0  0  0  0
 11  5  2  0  0  0  0
 12 13  1  0  0  0  0
 15  1  1  0  0  0  0
 15  8  2  0  0  0  0
 16 14  2  0  0  0  0
 18 17  1  6  0  0  0
 18  6  1  0  0  0  0
 19 18  1  0  0  0  0
 20 19  1  0  0  0  0
 21 20  1  0  0  0  0
 22 27  1  0  0  0  0
 23 28  2  0  0  0  0
 24 22  2  0  0  0  0
 24 23  1  0  0  0  0
 25 21  1  0  0  0  0
 26 24  1  0  0  0  0
 27 25  2  0  0  0  0
 28 25  1  0  0  0  0
M  END
>  <MODEL>
7

>  <REMARK>
 VINA RESULT:      -8.6      1.749      2.380
  Name = 
  5 active torsions:
  status: ('A' for Active; 'I' for Inactive)
    1  A    between atoms: C_8  and  C_11
    2  A    between atoms: C_8  and  C_25
    3  A    between atoms: C_12  and  C_13
    4  A    between atoms: C_13  and  N_18
    5  A    between atoms: N_18  and  C_25
                            x       y       z     vdW  Elec       q    Type
                         _______ _______ _______ _____ _____    ______ ____

>  <TORSDO>
F 5

$$$$
=
 OpenBabel11042412023D

 28 31  0  0  1  0  0  0  0  0999 V2000
  187.9450  177.3890  144.9600 N   0  0  0  0  0  0  0  0  0  0  0  0
  182.4560  179.0220  142.9010 N   0  0  0  0  0  0  0  0  0  0  0  0
  182.6030  178.6830  141.5920 C   0  0  0  0  0  3  0  0  0  0  0  0
  183.4530  178.8330  143.8060 C   0  0  0  0  0  0  0  0  0  0  0  0
  184.6830  178.2700  143.3970 C   0  0  0  0  0  0  0  0  0  0  0  0
  189.2160  176.8720  144.5350 C   0  0  0  0  0  0  0  0  0  0  0  0
  185.4640  178.4620  145.6930 C   0  0  0  0  0  0  0  0  0  0  0  0
  185.7040  178.0840  144.3540 C   0  0  0  0  0  0  0  0  0  0  0  0
  190.1470  176.7180  145.3740 O   0  0  0  0  0  0  0  0  0  0  0  0
  183.8000  178.1240  141.1420 C   0  0  0  0  0  3  0  0  0  0  0  0
  184.8420  177.9180  142.0480 C   0  0  0  0  0  3  0  0  0  0  0  0
  187.7330  177.6900  146.3820 C   0  0  0  0  0  2  0  0  0  0  0  0
  186.3860  178.3030  146.6470 C   0  0  0  0  0  3  0  0  0  0  0  0
  184.2310  179.0180  146.0390 C   0  0  0  0  0  3  0  0  0  0  0  0
  186.8910  177.5720  144.0020 C   0  0  0  0  0  3  0  0  0  0  0  0
  183.2630  179.1890  145.1020 N   0  0  0  0  0  0  0  0  0  0  0  0
  190.4560  175.4820  142.9890 N   0  0  0  0  0  1  0  0  0  0  0  0
  189.4640  176.5390  143.0950 C   0  0  2  0  0  3  0  0  0  0  0  0
  189.9310  177.7730  142.3440 C   0  0  0  0  0  2  0  0  0  0  0  0
  189.7020  177.6010  140.9200 N   0  0  0  0  0  2  0  0  0  0  0  0
  188.6030  178.4810  140.5650 C   0  0  0  0  0  2  0  0  0  0  0  0
  188.9510  178.1590  136.8120 C   0  0  0  0  0  3  0  0  0  0  0  0
  186.6350  178.0670  137.3970 N   0  0  0  0  0  0  0  0  0  0  0  0
  187.6080  178.0430  136.4450 C   0  0  0  0  0  0  0  0  0  0  0  0
  188.2680  178.3110  139.1250 C   0  0  0  0  0  0  0  0  0  0  0  0
  187.2400  177.8950  135.0130 C   0  0  0  0  0  1  0  0  0  0  0  0
  189.2800  178.2960  138.1620 C   0  0  0  0  0  3  0  0  0  0  0  0
  186.9350  178.2010  138.7180 C   0  0  0  0  0  3  0  0  0  0  0  0
  1 12  1  0  0  0  0
  2  4  2  0  0  0  0
  3  2  1  0  0  0  0
  4 16  1  0  0  0  0
  5  4  1  0  0  0  0
  5  8  1  0  0  0  0
  6  1  1  0  0  0  0
  6  9  2  0  0  0  0
  7 14  1  0  0  0  0
  7 13  2  0  0  0  0
  8  7  1  0  0  0  0
 10  3  2  0  0  0  0
 10 11  1  0  0  0  0
 11  5  2  0  0  0  0
 12 13  1  0  0  0  0
 15  8  2  0  0  0  0
 15  1  1  0  0  0  0
 16 14  2  0  0  0  0
 18 17  1  1  0  0  0
 18  6  1  0  0  0  0
 19 18  1  0  0  0  0
 20 19  1  0  0  0  0
 21 20  1  0  0  0  0
 22 27  1  0  0  0  0
 23 28  2  0  0  0  0
 24 22  2  0  0  0  0
 24 23  1  0  0  0  0
 25 21  1  0  0  0  0
 26 24  1  0  0  0  0
 27 25  2  0  0  0  0
 28 25  1  0  0  0  0
M  END
>  <MODEL>
8

>  <REMARK>
 VINA RESULT:      -8.5      1.529      2.188
  Name = 
  5 active torsions:
  status: ('A' for Active; 'I' for Inactive)
    1  A    between atoms: C_8  and  C_11
    2  A    between atoms: C_8  and  C_25
    3  A    between atoms: C_12  and  C_13
    4  A    between atoms: C_13  and  N_18
    5  A    between atoms: N_18  and  C_25
                            x       y       z     vdW  Elec       q    Type
                         _______ _______ _______ _____ _____    ______ ____

>  <TORSDO>
F 5

$$$$
=
 OpenBabel11042412023D

 28 31  0  0  1  0  0  0  0  0999 V2000
  185.0930  178.4390  144.5440 N   0  0  0  0  0  0  0  0  0  0  0  0
  190.7520  176.8380  146.1130 N   0  0  0  0  0  0  0  0  0  0  0  0
  191.2720  176.6310  144.8740 C   0  0  0  0  0  3  0  0  0  0  0  0
  189.4620  177.2330  146.2910 C   0  0  0  0  0  0  0  0  0  0  0  0
  188.6240  177.4400  145.1730 C   0  0  0  0  0  0  0  0  0  0  0  0
  184.2230  178.5920  143.4120 C   0  0  0  0  0  0  0  0  0  0  0  0
  186.8320  178.0430  146.7040 C   0  0  0  0  0  0  0  0  0  0  0  0
  187.2900  177.8480  145.3820 C   0  0  0  0  0  0  0  0  0  0  0  0
  183.0210  178.9380  143.5820 O   0  0  0  0  0  0  0  0  0  0  0  0
  190.4820  176.8230  143.7400 C   0  0  0  0  0  3  0  0  0  0  0  0
  189.1550  177.2280  143.8910 C   0  0  0  0  0  3  0  0  0  0  0  0
  184.5790  178.7310  145.8880 C   0  0  0  0  0  2  0  0  0  0  0  0
  185.5830  178.4380  146.9680 C   0  0  0  0  0  3  0  0  0  0  0  0
  187.7040  177.8190  147.7720 C   0  0  0  0  0  3  0  0  0  0  0  0
  186.4570  178.0360  144.3480 C   0  0  0  0  0  3  0  0  0  0  0  0
  188.9830  177.4240  147.5470 N   0  0  0  0  0  0  0  0  0  0  0  0
  185.4150  179.4810  141.5010 N   0  0  0  0  0  1  0  0  0  0  0  0
  184.7170  178.3180  142.0240 C   0  0  2  0  0  3  0  0  0  0  0  0
  183.5560  177.9510  141.1160 C   0  0  0  0  0  2  0  0  0  0  0  0
  183.6760  178.6540  139.8520 N   0  0  0  0  0  2  0  0  0  0  0  0
  183.4960  177.6630  138.8050 C   0  0  0  0  0  2  0  0  0  0  0  0
  185.6490  177.1630  135.7350 C   0  0  0  0  0  3  0  0  0  0  0  0
  186.9170  178.3110  137.4060 N   0  0  0  0  0  0  0  0  0  0  0  0
  186.8370  177.7640  136.1620 C   0  0  0  0  0  0  0  0  0  0  0  0
  184.6510  177.7080  137.8670 C   0  0  0  0  0  0  0  0  0  0  0  0
  188.0140  177.8050  135.2570 C   0  0  0  0  0  1  0  0  0  0  0  0
  184.5510  177.1350  136.5970 C   0  0  0  0  0  3  0  0  0  0  0  0
  185.8580  178.2920  138.2610 C   0  0  0  0  0  3  0  0  0  0  0  0
  1 12  1  0  0  0  0
  2  4  2  0  0  0  0
  3  2  1  0  0  0  0
  4 16  1  0  0  0  0
  5  8  1  0  0  0  0
  5  4  1  0  0  0  0
  6  9  2  0  0  0  0
  6  1  1  0  0  0  0
  7 13  2  0  0  0  0
  7 14  1  0  0  0  0
  8  7  1  0  0  0  0
 10 11  1  0  0  0  0
 10  3  2  0  0  0  0
 11  5  2  0  0  0  0
 12 13  1  0  0  0  0
 15  1  1  0  0  0  0
 15  8  2  0  0  0  0
 16 14  2  0  0  0  0
 18 17  1  6  0  0  0
 18  6  1  0  0  0  0
 19 18  1  0  0  0  0
 20 19  1  0  0  0  0
 21 20  1  0  0  0  0
 22 24  2  0  0  0  0
 22 27  1  0  0  0  0
 23 28  2  0  0  0  0
 24 23  1  0  0  0  0
 25 28  1  0  0  0  0
 25 21  1  0  0  0  0
 26 24  1  0  0  0  0
 27 25  2  0  0  0  0
M  END
>  <MODEL>
9

>  <REMARK>
 VINA RESULT:      -8.5      2.800      5.487
  Name = 
  5 active torsions:
  status: ('A' for Active; 'I' for Inactive)
    1  A    between atoms: C_8  and  C_11
    2  A    between atoms: C_8  and  C_25
    3  A    between atoms: C_12  and  C_13
    4  A    between atoms: C_13  and  N_18
    5  A    between atoms: N_18  and  C_25
                            x       y       z     vdW  Elec       q    Type
                         _______ _______ _______ _____ _____    ______ ____

>  <TORSDO>
F 5

$$$$
