=
 OpenBabel11042410253D

 29 31  0  0  1  0  0  0  0  0999 V2000
  187.0810  178.6660  138.4810 N   0  0  0  0  0  0  0  0  0  0  0  0
  183.1600  179.2920  138.5700 N   0  0  0  0  0  1  0  0  0  0  0  0
  183.0920  178.5530  142.1490 C   0  0  0  0  0  3  0  0  0  0  0  0
  185.1310  178.7960  139.8140 C   0  0  0  0  0  0  0  0  0  0  0  0
  182.8690  178.3620  140.8530 C   0  0  0  0  0  0  0  0  0  0  0  0
  187.8400  178.3690  139.5580 C   0  0  0  0  0  3  0  0  0  0  0  0
  185.5650  178.7550  142.2330 C   0  0  0  0  0  3  0  0  0  0  0  0
  184.2720  179.1390  142.6930 N   0  0  0  0  0  0  0  0  0  0  0  0
  185.7730  178.8740  138.6120 N   0  0  0  0  0  0  0  0  0  0  0  0
  185.9430  178.5780  140.9640 C   0  0  0  0  0  0  0  0  0  0  0  0
  183.7790  178.8720  139.7900 C   0  0  0  0  0  0  0  0  0  0  0  0
  187.2680  178.3370  140.7830 N   0  0  0  0  0  0  0  0  0  0  0  0
  184.1030  178.7730  146.2070 O   0  0  0  0  0  0  0  0  0  0  0  0
  185.4650  178.9950  145.9280 C   0  0  2  0  0  3  0  0  0  0  0  0
  183.4230  178.8510  144.9800 C   0  0  0  0  0  2  0  0  0  0  0  0
  184.2220  179.7210  144.0330 C   0  0  1  0  0  3  0  0  0  0  0  0
  185.5890  179.7940  144.6510 C   0  0  0  0  0  2  0  0  0  0  0  0
  186.2010  177.6680  145.7810 C   0  0  0  0  0  2  0  0  0  0  0  0
  187.6960  177.8300  146.0620 C   0  0  1  0  0  3  0  0  0  0  0  0
  188.0500  177.2600  147.4370 C   0  0  2  0  0  3  0  0  0  0  0  0
  187.9910  178.2670  148.4040 O   0  0  0  0  0  1  0  0  0  0  0  0
  189.3910  176.7010  147.4190 N   0  0  0  0  0  1  0  0  0  0  0  0
  188.5660  177.2090  144.9560 C   0  0  2  0  0  3  0  0  0  0  0  0
  189.4090  178.1720  144.3990 O   0  0  0  0  0  1  0  0  0  0  0  0
  188.2890  175.8330  143.0560 O   0  0  0  0  0  0  0  0  0  0  0  0
  187.7510  176.5520  143.8820 C   0  0  0  0  0  3  0  0  0  0  0  0
  180.4630  178.2810  140.6530 N   0  0  0  0  0  2  0  0  0  0  0  0
  181.5980  177.6880  140.4750 C   0  0  0  0  0  0  0  0  0  0  0  0
  181.5980  176.3640  139.7790 C   0  0  0  0  0  1  0  0  0  0  0  0
  1  9  2  0  0  0  0
  1  6  1  0  0  0  0
  2 11  1  0  0  0  0
  3  8  1  0  0  0  0
  4 10  1  0  0  0  0
  5  3  2  0  0  0  0
  6 12  2  0  0  0  0
  7  8  1  0  0  0  0
  9  4  1  0  0  0  0
 10  7  2  0  0  0  0
 11  4  2  0  0  0  0
 11  5  1  0  0  0  0
 12 10  1  0  0  0  0
 14 18  1  6  0  0  0
 14 13  1  0  0  0  0
 15 13  1  0  0  0  0
 16  8  1  6  0  0  0
 16 17  1  0  0  0  0
 16 15  1  0  0  0  0
 17 14  1  0  0  0  0
 19 18  1  6  0  0  0
 19 20  1  0  0  0  0
 20 22  1  6  0  0  0
 20 21  1  0  0  0  0
 23 24  1  6  0  0  0
 23 19  1  0  0  0  0
 25 26  2  0  0  0  0
 26 23  1  0  0  0  0
 28 27  2  0  0  0  0
 28  5  1  0  0  0  0
 29 28  1  0  0  0  0
M  END
>  <MODEL>
1

>  <REMARK>
 VINA RESULT:      -7.9      0.000      0.000
  Name = 
  7 active torsions:
  status: ('A' for Active; 'I' for Inactive)
    1  A    between atoms: C_2  and  C_14
    2  A    between atoms: C_5  and  C_17
    3  A    between atoms: C_7  and  C_14
    4  A    between atoms: C_7  and  C_24
    5  A    between atoms: C_8  and  C_13
    6  A    between atoms: C_13  and  C_14
    7  A    between atoms: C_19  and  N_23
                            x       y       z     vdW  Elec       q    Type
                         _______ _______ _______ _____ _____    ______ ____

>  <TORSDO>
F 7

$$$$
=
 OpenBabel11042410253D

 29 31  0  0  1  0  0  0  0  0999 V2000
  183.9850  179.0060  140.7480 N   0  0  0  0  0  0  0  0  0  0  0  0
  186.2580  177.5950  137.8120 N   0  0  0  0  0  1  0  0  0  0  0  0
  189.2240  177.8810  139.9290 C   0  0  0  0  0  3  0  0  0  0  0  0
  186.1500  178.3290  140.0770 C   0  0  0  0  0  0  0  0  0  0  0  0
  188.3970  178.1730  138.9310 C   0  0  0  0  0  0  0  0  0  0  0  0
  184.4290  179.3210  141.9840 C   0  0  0  0  0  3  0  0  0  0  0  0
  187.7690  178.1740  141.9200 C   0  0  0  0  0  3  0  0  0  0  0  0
  188.8130  177.4850  141.2350 N   0  0  0  0  0  0  0  0  0  0  0  0
  184.8220  178.5240  139.8320 N   0  0  0  0  0  0  0  0  0  0  0  0
  186.6020  178.5700  141.4060 C   0  0  0  0  0  0  0  0  0  0  0  0
  186.9220  177.9850  139.0180 C   0  0  0  0  0  0  0  0  0  0  0  0
  185.7230  179.0930  142.3010 N   0  0  0  0  0  0  0  0  0  0  0  0
  191.0590  177.3740  143.9660 O   0  0  0  0  0  0  0  0  0  0  0  0
  189.8560  176.8300  144.4590 C   0  0  2  0  0  3  0  0  0  0  0  0
  190.8420  177.6620  142.6070 C   0  0  0  0  0  2  0  0  0  0  0  0
  189.7520  176.7520  142.0830 C   0  0  1  0  0  3  0  0  0  0  0  0
  189.0780  176.2210  143.3150 C   0  0  0  0  0  2  0  0  0  0  0  0
  189.0220  177.9120  145.1330 C   0  0  0  0  0  2  0  0  0  0  0  0
  188.2510  177.3520  146.3300 C   0  0  1  0  0  3  0  0  0  0  0  0
  188.7800  177.9460  147.6370 C   0  0  2  0  0  3  0  0  0  0  0  0
  190.1040  177.5510  147.8430 O   0  0  0  0  0  1  0  0  0  0  0  0
  187.9730  177.4930  148.7570 N   0  0  0  0  0  1  0  0  0  0  0  0
  186.7330  177.5590  146.1920 C   0  0  2  0  0  3  0  0  0  0  0  0
  186.2790  177.0490  144.9750 O   0  0  0  0  0  1  0  0  0  0  0  0
  185.4920  179.3230  147.1550 O   0  0  0  0  0  0  0  0  0  0  0  0
  186.3330  178.9970  146.3330 C   0  0  0  0  0  3  0  0  0  0  0  0
  189.0230  179.8690  137.3270 N   0  0  0  0  0  2  0  0  0  0  0  0
  189.0100  178.6170  137.6500 C   0  0  0  0  0  0  0  0  0  0  0  0
  189.7260  177.6540  136.7570 C   0  0  0  0  0  1  0  0  0  0  0  0
  1  6  1  0  0  0  0
  2 11  1  0  0  0  0
  3  8  1  0  0  0  0
  4 10  1  0  0  0  0
  5 11  1  0  0  0  0
  5  3  2  0  0  0  0
  6 12  2  0  0  0  0
  8  7  1  0  0  0  0
  9  4  1  0  0  0  0
  9  1  2  0  0  0  0
 10  7  2  0  0  0  0
 10 12  1  0  0  0  0
 11  4  2  0  0  0  0
 13 14  1  0  0  0  0
 14 18  1  6  0  0  0
 15 13  1  0  0  0  0
 16  8  1  6  0  0  0
 16 15  1  0  0  0  0
 16 17  1  0  0  0  0
 17 14  1  0  0  0  0
 19 18  1  6  0  0  0
 19 20  1  0  0  0  0
 20 21  1  1  0  0  0
 20 22  1  0  0  0  0
 23 24  1  6  0  0  0
 23 19  1  0  0  0  0
 23 26  1  0  0  0  0
 26 25  2  0  0  0  0
 27 28  2  0  0  0  0
 28  5  1  0  0  0  0
 29 28  1  0  0  0  0
M  END
>  <MODEL>
2

>  <REMARK>
 VINA RESULT:      -7.3      2.116      4.925
  Name = 
  7 active torsions:
  status: ('A' for Active; 'I' for Inactive)
    1  A    between atoms: C_2  and  C_14
    2  A    between atoms: C_5  and  C_17
    3  A    between atoms: C_7  and  C_14
    4  A    between atoms: C_7  and  C_24
    5  A    between atoms: C_8  and  C_13
    6  A    between atoms: C_13  and  C_14
    7  A    between atoms: C_19  and  N_23
                            x       y       z     vdW  Elec       q    Type
                         _______ _______ _______ _____ _____    ______ ____

>  <TORSDO>
F 7

$$$$
=
 OpenBabel11042410253D

 29 31  0  0  1  0  0  0  0  0999 V2000
  190.8610  176.4890  136.3580 N   0  0  0  0  0  0  0  0  0  0  0  0
  188.5940  179.3370  137.9470 N   0  0  0  0  0  1  0  0  0  0  0  0
  188.8900  177.7780  141.2400 C   0  0  0  0  0  3  0  0  0  0  0  0
  189.9150  177.3910  138.3300 C   0  0  0  0  0  0  0  0  0  0  0  0
  188.2990  178.1610  140.1130 C   0  0  0  0  0  0  0  0  0  0  0  0
  191.4390  175.4850  137.0520 C   0  0  0  0  0  3  0  0  0  0  0  0
  190.7600  176.3760  140.4030 C   0  0  0  0  0  3  0  0  0  0  0  0
  190.2350  177.3170  141.3360 N   0  0  0  0  0  0  0  0  0  0  0  0
  190.1290  177.4080  136.9820 N   0  0  0  0  0  0  0  0  0  0  0  0
  190.6010  176.3910  139.0770 C   0  0  0  0  0  0  0  0  0  0  0  0
  189.0250  178.2880  138.8180 C   0  0  0  0  0  0  0  0  0  0  0  0
  191.3100  175.4510  138.3980 N   0  0  0  0  0  0  0  0  0  0  0  0
  190.5090  178.6080  144.6170 O   0  0  0  0  0  0  0  0  0  0  0  0
  189.8690  177.3630  144.7670 C   0  0  2  0  0  3  0  0  0  0  0  0
  190.7970  178.7510  143.2490 C   0  0  0  0  0  2  0  0  0  0  0  0
  190.9140  177.3750  142.6290 C   0  0  1  0  0  3  0  0  0  0  0  0
  190.2720  176.4550  143.6270 C   0  0  0  0  0  2  0  0  0  0  0  0
  188.3560  177.5400  144.7760 C   0  0  0  0  0  2  0  0  0  0  0  0
  187.8680  178.0650  146.1280 C   0  0  1  0  0  3  0  0  0  0  0  0
  186.3640  177.8290  146.2850 C   0  0  2  0  0  3  0  0  0  0  0  0
  185.7850  177.5730  145.0410 O   0  0  0  0  0  1  0  0  0  0  0  0
  185.7310  179.0000  146.8680 N   0  0  0  0  0  1  0  0  0  0  0  0
  188.6570  177.4640  147.3030 C   0  0  2  0  0  3  0  0  0  0  0  0
  188.0050  176.3360  147.8030 O   0  0  0  0  0  1  0  0  0  0  0  0
  189.8910  178.3680  149.1030 O   0  0  0  0  0  0  0  0  0  0  0  0
  188.8950  178.4540  148.4040 C   0  0  0  0  0  3  0  0  0  0  0  0
  186.1100  178.5200  139.1540 N   0  0  0  0  0  2  0  0  0  0  0  0
  186.8690  178.5660  140.1990 C   0  0  0  0  0  0  0  0  0  0  0  0
  186.2420  178.9230  141.5090 C   0  0  0  0  0  1  0  0  0  0  0  0
  1  9  2  0  0  0  0
  1  6  1  0  0  0  0
  2 11  1  0  0  0  0
  3  8  1  0  0  0  0
  4 11  2  0  0  0  0
  4 10  1  0  0  0  0
  5 28  1  0  0  0  0
  5  3  2  0  0  0  0
  6 12  2  0  0  0  0
  7  8  1  0  0  0  0
  9  4  1  0  0  0  0
 10  7  2  0  0  0  0
 11  5  1  0  0  0  0
 12 10  1  0  0  0  0
 13 14  1  0  0  0  0
 14 18  1  6  0  0  0
 15 13  1  0  0  0  0
 16  8  1  6  0  0  0
 16 15  1  0  0  0  0
 16 17  1  0  0  0  0
 17 14  1  0  0  0  0
 19 18  1  6  0  0  0
 19 20  1  0  0  0  0
 19 23  1  0  0  0  0
 20 21  1  6  0  0  0
 20 22  1  0  0  0  0
 23 24  1  1  0  0  0
 23 26  1  0  0  0  0
 26 25  2  0  0  0  0
 27 28  2  0  0  0  0
 28 29  1  0  0  0  0
M  END
>  <MODEL>
3

>  <REMARK>
 VINA RESULT:      -7.1      2.857      5.275
  Name = 
  7 active torsions:
  status: ('A' for Active; 'I' for Inactive)
    1  A    between atoms: C_2  and  C_14
    2  A    between atoms: C_5  and  C_17
    3  A    between atoms: C_7  and  C_14
    4  A    between atoms: C_7  and  C_24
    5  A    between atoms: C_8  and  C_13
    6  A    between atoms: C_13  and  C_14
    7  A    between atoms: C_19  and  N_23
                            x       y       z     vdW  Elec       q    Type
                         _______ _______ _______ _____ _____    ______ ____

>  <TORSDO>
F 7

$$$$
=
 OpenBabel11042410253D

 29 31  0  0  1  0  0  0  0  0999 V2000
  184.0930  179.0390  140.7890 N   0  0  0  0  0  0  0  0  0  0  0  0
  186.2710  177.6220  137.7830 N   0  0  0  0  0  1  0  0  0  0  0  0
  189.2840  177.7990  139.8440 C   0  0  0  0  0  3  0  0  0  0  0  0
  186.2270  178.3200  140.0620 C   0  0  0  0  0  0  0  0  0  0  0  0
  188.4450  178.1280  138.8680 C   0  0  0  0  0  0  0  0  0  0  0  0
  184.5690  179.3220  142.0200 C   0  0  0  0  0  3  0  0  0  0  0  0
  187.8780  178.0930  141.8680 C   0  0  0  0  0  3  0  0  0  0  0  0
  188.8900  177.3910  141.1510 N   0  0  0  0  0  0  0  0  0  0  0  0
  184.8990  178.5520  139.8480 N   0  0  0  0  0  0  0  0  0  0  0  0
  186.7110  178.5270  141.3860 C   0  0  0  0  0  0  0  0  0  0  0  0
  186.9680  177.9760  138.9810 C   0  0  0  0  0  0  0  0  0  0  0  0
  185.8640  179.0570  142.3070 N   0  0  0  0  0  0  0  0  0  0  0  0
  191.3870  177.2290  143.6510 O   0  0  0  0  0  0  0  0  0  0  0  0
  190.1920  176.8730  144.3050 C   0  0  2  0  0  3  0  0  0  0  0  0
  191.0610  177.4330  142.2990 C   0  0  0  0  0  2  0  0  0  0  0  0
  189.8270  176.6210  141.9670 C   0  0  1  0  0  3  0  0  0  0  0  0
  189.2340  176.2720  143.3020 C   0  0  0  0  0  2  0  0  0  0  0  0
  189.5570  178.0960  144.9560 C   0  0  0  0  0  2  0  0  0  0  0  0
  189.1860  177.8180  146.4140 C   0  0  1  0  0  3  0  0  0  0  0  0
  187.6730  177.6380  146.5590 C   0  0  2  0  0  3  0  0  0  0  0  0
  187.0290  178.0210  145.3800 O   0  0  0  0  0  1  0  0  0  0  0  0
  187.1740  178.4510  147.6550 N   0  0  0  0  0  1  0  0  0  0  0  0
  189.9520  176.6150  146.9890 C   0  0  2  0  0  3  0  0  0  0  0  0
  189.1660  175.9350  147.9200 O   0  0  0  0  0  1  0  0  0  0  0  0
  192.2800  176.3970  147.3250 O   0  0  0  0  0  0  0  0  0  0  0  0
  191.2620  177.0070  147.6060 C   0  0  0  0  0  3  0  0  0  0  0  0
  189.0360  179.8300  137.2570 N   0  0  0  0  0  2  0  0  0  0  0  0
  189.0430  178.5790  137.5810 C   0  0  0  0  0  0  0  0  0  0  0  0
  189.7670  177.6240  136.6860 C   0  0  0  0  0  1  0  0  0  0  0  0
  1  6  1  0  0  0  0
  2 11  1  0  0  0  0
  3  8  1  0  0  0  0
  4 10  1  0  0  0  0
  5 11  1  0  0  0  0
  5  3  2  0  0  0  0
  6 12  2  0  0  0  0
  8  7  1  0  0  0  0
  9  4  1  0  0  0  0
  9  1  2  0  0  0  0
 10  7  2  0  0  0  0
 10 12  1  0  0  0  0
 11  4  2  0  0  0  0
 13 14  1  0  0  0  0
 14 18  1  6  0  0  0
 15 13  1  0  0  0  0
 16  8  1  6  0  0  0
 16 15  1  0  0  0  0
 16 17  1  0  0  0  0
 17 14  1  0  0  0  0
 19 18  1  6  0  0  0
 19 20  1  0  0  0  0
 19 23  1  0  0  0  0
 20 21  1  6  0  0  0
 20 22  1  0  0  0  0
 23 26  1  0  0  0  0
 23 24  1  1  0  0  0
 25 26  2  0  0  0  0
 27 28  2  0  0  0  0
 28  5  1  0  0  0  0
 29 28  1  0  0  0  0
M  END
>  <MODEL>
4

>  <REMARK>
 VINA RESULT:      -7.0      2.386      5.114
  Name = 
  7 active torsions:
  status: ('A' for Active; 'I' for Inactive)
    1  A    between atoms: C_2  and  C_14
    2  A    between atoms: C_5  and  C_17
    3  A    between atoms: C_7  and  C_14
    4  A    between atoms: C_7  and  C_24
    5  A    between atoms: C_8  and  C_13
    6  A    between atoms: C_13  and  C_14
    7  A    between atoms: C_19  and  N_23
                            x       y       z     vdW  Elec       q    Type
                         _______ _______ _______ _____ _____    ______ ____

>  <TORSDO>
F 7

$$$$
=
 OpenBabel11042410253D

 29 31  0  0  1  0  0  0  0  0999 V2000
  187.0660  178.1070  137.5710 N   0  0  0  0  0  0  0  0  0  0  0  0
  185.9230  179.6810  141.0350 N   0  0  0  0  0  1  0  0  0  0  0  0
  188.4610  177.7260  142.7950 C   0  0  0  0  0  3  0  0  0  0  0  0
  187.4590  178.2550  139.9000 C   0  0  0  0  0  0  0  0  0  0  0  0
  187.2430  178.0920  142.4120 C   0  0  0  0  0  0  0  0  0  0  0  0
  188.0930  177.2440  137.4170 C   0  0  0  0  0  3  0  0  0  0  0  0
  189.5620  177.2140  140.6300 C   0  0  0  0  0  3  0  0  0  0  0  0
  189.6130  177.7330  141.9560 N   0  0  0  0  0  0  0  0  0  0  0  0
  186.7670  178.5940  138.7730 N   0  0  0  0  0  0  0  0  0  0  0  0
  188.6010  177.4210  139.7260 C   0  0  0  0  0  0  0  0  0  0  0  0
  186.9580  178.6930  141.0790 C   0  0  0  0  0  0  0  0  0  0  0  0
  188.8510  176.9190  138.4890 N   0  0  0  0  0  0  0  0  0  0  0  0
  191.7100  178.4490  144.7130 O   0  0  0  0  0  0  0  0  0  0  0  0
  191.4870  177.0600  144.7750 C   0  0  2  0  0  3  0  0  0  0  0  0
  191.0500  178.9120  143.5620 C   0  0  0  0  0  2  0  0  0  0  0  0
  190.9390  177.7720  142.5720 C   0  0  1  0  0  3  0  0  0  0  0  0
  191.2020  176.5380  143.3860 C   0  0  0  0  0  2  0  0  0  0  0  0
  190.3100  176.7520  145.6940 C   0  0  0  0  0  2  0  0  0  0  0  0
  190.4240  177.5150  147.0150 C   0  0  1  0  0  3  0  0  0  0  0  0
  189.0360  177.8760  147.5490 C   0  0  2  0  0  3  0  0  0  0  0  0
  189.1470  178.4950  148.7960 O   0  0  0  0  0  1  0  0  0  0  0  0
  188.2250  176.6780  147.6870 N   0  0  0  0  0  1  0  0  0  0  0  0
  191.2470  176.7460  148.0620 C   0  0  2  0  0  3  0  0  0  0  0  0
  192.0920  177.6150  148.7530 O   0  0  0  0  0  1  0  0  0  0  0  0
  193.2230  175.4960  147.7260 O   0  0  0  0  0  0  0  0  0  0  0  0
  192.0380  175.6230  147.4620 C   0  0  0  0  0  3  0  0  0  0  0  0
  184.9180  177.8780  143.0340 N   0  0  0  0  0  2  0  0  0  0  0  0
  186.1500  177.9700  143.4150 C   0  0  0  0  0  0  0  0  0  0  0  0
  186.4470  177.8340  144.8740 C   0  0  0  0  0  1  0  0  0  0  0  0
  1  9  2  0  0  0  0
  2 11  1  0  0  0  0
  4 11  2  0  0  0  0
  5  3  2  0  0  0  0
  5 28  1  0  0  0  0
  6  1  1  0  0  0  0
  6 12  2  0  0  0  0
  7  8  1  0  0  0  0
  8  3  1  0  0  0  0
  9  4  1  0  0  0  0
 10  4  1  0  0  0  0
 10  7  2  0  0  0  0
 11  5  1  0  0  0  0
 12 10  1  0  0  0  0
 13 14  1  0  0  0  0
 14 18  1  1  0  0  0
 15 13  1  0  0  0  0
 16  8  1  1  0  0  0
 16 17  1  0  0  0  0
 16 15  1  0  0  0  0
 17 14  1  0  0  0  0
 19 18  1  6  0  0  0
 19 20  1  0  0  0  0
 19 23  1  0  0  0  0
 20 22  1  1  0  0  0
 20 21  1  0  0  0  0
 23 24  1  6  0  0  0
 26 25  2  0  0  0  0
 26 23  1  0  0  0  0
 27 28  2  0  0  0  0
 28 29  1  0  0  0  0
M  END
>  <MODEL>
5

>  <REMARK>
 VINA RESULT:      -7.0      2.992      4.836
  Name = 
  7 active torsions:
  status: ('A' for Active; 'I' for Inactive)
    1  A    between atoms: C_2  and  C_14
    2  A    between atoms: C_5  and  C_17
    3  A    between atoms: C_7  and  C_14
    4  A    between atoms: C_7  and  C_24
    5  A    between atoms: C_8  and  C_13
    6  A    between atoms: C_13  and  C_14
    7  A    between atoms: C_19  and  N_23
                            x       y       z     vdW  Elec       q    Type
                         _______ _______ _______ _____ _____    ______ ____

>  <TORSDO>
F 7

$$$$
=
 OpenBabel11042410253D

 29 31  0  0  1  0  0  0  0  0999 V2000
  186.7020  177.2140  137.1300 N   0  0  0  0  0  0  0  0  0  0  0  0
  190.1200  175.2000  137.3350 N   0  0  0  0  0  1  0  0  0  0  0  0
  191.0870  177.0860  140.3140 C   0  0  0  0  0  3  0  0  0  0  0  0
  188.6980  176.8280  138.3400 C   0  0  0  0  0  0  0  0  0  0  0  0
  191.1210  176.6970  139.0440 C   0  0  0  0  0  0  0  0  0  0  0  0
  186.3000  178.1440  138.0220 C   0  0  0  0  0  3  0  0  0  0  0  0
  188.7530  177.8980  140.5520 C   0  0  0  0  0  3  0  0  0  0  0  0
  189.8980  177.2370  141.0850 N   0  0  0  0  0  0  0  0  0  0  0  0
  187.8610  176.5790  137.2920 N   0  0  0  0  0  0  0  0  0  0  0  0
  188.2340  177.7390  139.3320 C   0  0  0  0  0  0  0  0  0  0  0  0
  189.9150  176.2330  138.3040 C   0  0  0  0  0  0  0  0  0  0  0  0
  187.0620  178.3900  139.1120 N   0  0  0  0  0  0  0  0  0  0  0  0
  188.7430  178.2550  144.2690 O   0  0  0  0  0  0  0  0  0  0  0  0
  188.1700  176.9850  144.0620 C   0  0  2  0  0  3  0  0  0  0  0  0
  189.5520  178.5190  143.1510 C   0  0  0  0  0  2  0  0  0  0  0  0
  189.9900  177.2040  142.5440 C   0  0  1  0  0  3  0  0  0  0  0  0
  189.0520  176.1870  143.1290 C   0  0  0  0  0  2  0  0  0  0  0  0
  186.7760  177.1230  143.4630 C   0  0  0  0  0  2  0  0  0  0  0  0
  186.0990  178.4150  143.9260 C   0  0  1  0  0  3  0  0  0  0  0  0
  185.1520  178.9430  142.8460 C   0  0  2  0  0  3  0  0  0  0  0  0
  184.5510  177.8780  142.1710 O   0  0  0  0  0  1  0  0  0  0  0  0
  185.8870  179.7530  141.8880 N   0  0  0  0  0  1  0  0  0  0  0  0
  185.3750  178.2410  145.2710 C   0  0  2  0  0  3  0  0  0  0  0  0
  184.0920  178.7870  145.2090 O   0  0  0  0  0  1  0  0  0  0  0  0
  185.5410  179.3650  147.3430 O   0  0  0  0  0  0  0  0  0  0  0  0
  186.1360  178.8380  146.4170 C   0  0  0  0  0  3  0  0  0  0  0  0
  193.5360  176.7560  139.0860 N   0  0  0  0  0  2  0  0  0  0  0  0
  192.4550  176.6450  138.3860 C   0  0  0  0  0  0  0  0  0  0  0  0
  192.5900  176.3480  136.9260 C   0  0  0  0  0  1  0  0  0  0  0  0
  1  9  2  0  0  0  0
  1  6  1  0  0  0  0
  2 11  1  0  0  0  0
  3  8  1  0  0  0  0
  4 10  1  0  0  0  0
  5  3  2  0  0  0  0
  6 12  2  0  0  0  0
  7  8  1  0  0  0  0
  9  4  1  0  0  0  0
 10  7  2  0  0  0  0
 11  4  2  0  0  0  0
 11  5  1  0  0  0  0
 12 10  1  0  0  0  0
 14 18  1  6  0  0  0
 14 13  1  0  0  0  0
 15 13  1  0  0  0  0
 16  8  1  6  0  0  0
 16 17  1  0  0  0  0
 16 15  1  0  0  0  0
 17 14  1  0  0  0  0
 19 18  1  6  0  0  0
 19 23  1  0  0  0  0
 20 22  1  6  0  0  0
 20 19  1  0  0  0  0
 21 20  1  0  0  0  0
 23 24  1  6  0  0  0
 23 26  1  0  0  0  0
 26 25  2  0  0  0  0
 28  5  1  0  0  0  0
 28 27  2  0  0  0  0
 29 28  1  0  0  0  0
M  END
>  <MODEL>
6

>  <REMARK>
 VINA RESULT:      -6.8      2.896      6.378
  Name = 
  7 active torsions:
  status: ('A' for Active; 'I' for Inactive)
    1  A    between atoms: C_2  and  C_14
    2  A    between atoms: C_5  and  C_17
    3  A    between atoms: C_7  and  C_14
    4  A    between atoms: C_7  and  C_24
    5  A    between atoms: C_8  and  C_13
    6  A    between atoms: C_13  and  C_14
    7  A    between atoms: C_19  and  N_23
                            x       y       z     vdW  Elec       q    Type
                         _______ _______ _______ _____ _____    ______ ____

>  <TORSDO>
F 7

$$$$
=
 OpenBabel11042410253D

 29 31  0  0  1  0  0  0  0  0999 V2000
  183.3880  179.2600  144.5800 N   0  0  0  0  0  0  0  0  0  0  0  0
  186.1390  179.8280  147.3890 N   0  0  0  0  0  1  0  0  0  0  0  0
  188.3750  177.4680  145.7180 C   0  0  0  0  0  3  0  0  0  0  0  0
  185.5770  178.7670  145.3300 C   0  0  0  0  0  0  0  0  0  0  0  0
  187.5540  177.9240  146.6580 C   0  0  0  0  0  0  0  0  0  0  0  0
  183.5450  178.4730  143.4940 C   0  0  0  0  0  3  0  0  0  0  0  0
  186.9540  177.5670  143.6850 C   0  0  0  0  0  3  0  0  0  0  0  0
  188.2230  177.7040  144.3210 N   0  0  0  0  0  0  0  0  0  0  0  0
  184.3760  179.4010  145.4610 N   0  0  0  0  0  0  0  0  0  0  0  0
  185.7800  178.0130  144.1380 C   0  0  0  0  0  0  0  0  0  0  0  0
  186.4370  178.8660  146.3720 C   0  0  0  0  0  0  0  0  0  0  0  0
  184.7360  177.8680  143.2810 N   0  0  0  0  0  0  0  0  0  0  0  0
  189.6960  176.6420  141.2860 O   0  0  0  0  0  0  0  0  0  0  0  0
  189.4490  178.0180  141.1110 C   0  0  2  0  0  3  0  0  0  0  0  0
  189.3000  176.3260  142.5970 C   0  0  0  0  0  2  0  0  0  0  0  0
  189.3880  177.5750  143.4480 C   0  0  1  0  0  3  0  0  0  0  0  0
  189.4600  178.7020  142.4580 C   0  0  0  0  0  2  0  0  0  0  0  0
  188.1020  178.2330  140.4320 C   0  0  0  0  0  2  0  0  0  0  0  0
  188.1500  177.8170  138.9610 C   0  0  1  0  0  3  0  0  0  0  0  0
  186.8600  178.2240  138.2450 C   0  0  2  0  0  3  0  0  0  0  0  0
  185.9030  178.6350  139.1750 O   0  0  0  0  0  1  0  0  0  0  0  0
  186.3310  177.1010  137.4890 N   0  0  0  0  0  1  0  0  0  0  0  0
  189.3910  178.3700  138.2410 C   0  0  2  0  0  3  0  0  0  0  0  0
  189.0410  179.4400  137.4170 O   0  0  0  0  0  1  0  0  0  0  0  0
  189.6180  176.8730  136.4270 O   0  0  0  0  0  0  0  0  0  0  0  0
  190.1130  177.3210  137.4490 C   0  0  0  0  0  3  0  0  0  0  0  0
  187.2650  176.5060  148.5930 N   0  0  0  0  0  2  0  0  0  0  0  0
  187.8470  177.5320  148.0640 C   0  0  0  0  0  0  0  0  0  0  0  0
  188.8980  178.2340  148.8620 C   0  0  0  0  0  1  0  0  0  0  0  0
  1  9  2  0  0  0  0
  3  5  2  0  0  0  0
  4  9  1  0  0  0  0
  4 11  2  0  0  0  0
  5 28  1  0  0  0  0
  6  1  1  0  0  0  0
  7 10  2  0  0  0  0
  7  8  1  0  0  0  0
  8  3  1  0  0  0  0
 10  4  1  0  0  0  0
 11  5  1  0  0  0  0
 11  2  1  0  0  0  0
 12  6  2  0  0  0  0
 12 10  1  0  0  0  0
 13 15  1  0  0  0  0
 14 18  1  1  0  0  0
 14 13  1  0  0  0  0
 14 17  1  0  0  0  0
 15 16  1  0  0  0  0
 16 17  1  6  0  0  0
 16  8  1  0  0  0  0
 19 18  1  1  0  0  0
 20 22  1  1  0  0  0
 20 19  1  0  0  0  0
 20 21  1  0  0  0  0
 23 24  1  6  0  0  0
 23 19  1  0  0  0  0
 25 26  2  0  0  0  0
 26 23  1  0  0  0  0
 28 27  2  0  0  0  0
 28 29  1  0  0  0  0
M  END
>  <MODEL>
7

>  <REMARK>
 VINA RESULT:      -6.7      3.120      7.326
  Name = 
  7 active torsions:
  status: ('A' for Active; 'I' for Inactive)
    1  A    between atoms: C_2  and  C_14
    2  A    between atoms: C_5  and  C_17
    3  A    between atoms: C_7  and  C_14
    4  A    between atoms: C_7  and  C_24
    5  A    between atoms: C_8  and  C_13
    6  A    between atoms: C_13  and  C_14
    7  A    between atoms: C_19  and  N_23
                            x       y       z     vdW  Elec       q    Type
                         _______ _______ _______ _____ _____    ______ ____

>  <TORSDO>
F 7

$$$$
=
 OpenBabel11042410253D

 29 31  0  0  1  0  0  0  0  0999 V2000
  191.8600  177.1090  146.8470 N   0  0  0  0  0  0  0  0  0  0  0  0
  191.2690  178.6940  143.2520 N   0  0  0  0  0  1  0  0  0  0  0  0
  187.7770  177.6160  143.3180 C   0  0  0  0  0  3  0  0  0  0  0  0
  190.3040  177.5850  145.1290 C   0  0  0  0  0  0  0  0  0  0  0  0
  189.0490  177.6280  142.9360 C   0  0  0  0  0  0  0  0  0  0  0  0
  190.9050  176.5170  147.5950 C   0  0  0  0  0  3  0  0  0  0  0  0
  187.9630  177.1770  145.7550 C   0  0  0  0  0  3  0  0  0  0  0  0
  187.3270  177.8230  144.6550 N   0  0  0  0  0  0  0  0  0  0  0  0
  191.5620  177.6270  145.6570 N   0  0  0  0  0  0  0  0  0  0  0  0
  189.2770  177.0470  145.9560 C   0  0  0  0  0  0  0  0  0  0  0  0
  190.1660  178.0030  143.8470 C   0  0  0  0  0  0  0  0  0  0  0  0
  189.6280  176.4990  147.1480 N   0  0  0  0  0  0  0  0  0  0  0  0
  184.6140  179.9790  143.9450 O   0  0  0  0  0  0  0  0  0  0  0  0
  184.3560  178.8100  143.2030 C   0  0  2  0  0  3  0  0  0  0  0  0
  185.7950  179.7430  144.6690 C   0  0  0  0  0  2  0  0  0  0  0  0
  185.9480  178.2520  144.8810 C   0  0  1  0  0  3  0  0  0  0  0  0
  185.0100  177.6310  143.8860 C   0  0  0  0  0  2  0  0  0  0  0  0
  184.8960  178.9500  141.7850 C   0  0  0  0  0  2  0  0  0  0  0  0
  183.7590  179.0530  140.7670 C   0  0  1  0  0  3  0  0  0  0  0  0
  184.3170  179.2120  139.3510 C   0  0  2  0  0  3  0  0  0  0  0  0
  185.6920  178.9690  139.3460 O   0  0  0  0  0  1  0  0  0  0  0  0
  184.0740  180.5600  138.8640 N   0  0  0  0  0  1  0  0  0  0  0  0
  182.7880  177.8650  140.8580 C   0  0  2  0  0  3  0  0  0  0  0  0
  183.0920  176.9100  139.8860 O   0  0  0  0  0  1  0  0  0  0  0  0
  180.9270  179.2140  141.4040 O   0  0  0  0  0  0  0  0  0  0  0  0
  181.3520  178.2820  140.7410 C   0  0  0  0  0  3  0  0  0  0  0  0
  190.0650  176.3320  141.1680 N   0  0  0  0  0  2  0  0  0  0  0  0
  189.3310  177.3420  141.5030 C   0  0  0  0  0  0  0  0  0  0  0  0
  188.6850  178.1350  140.4120 C   0  0  0  0  0  1  0  0  0  0  0  0
  1  6  1  0  0  0  0
  2 11  1  0  0  0  0
  3  8  1  0  0  0  0
  4  9  1  0  0  0  0
  4 10  1  0  0  0  0
  5  3  2  0  0  0  0
  5 11  1  0  0  0  0
  7 10  2  0  0  0  0
  8 16  1  0  0  0  0
  8  7  1  0  0  0  0
  9  1  2  0  0  0  0
 10 12  1  0  0  0  0
 11  4  2  0  0  0  0
 12  6  2  0  0  0  0
 13 15  1  0  0  0  0
 14 18  1  6  0  0  0
 14 17  1  0  0  0  0
 14 13  1  0  0  0  0
 15 16  1  0  0  0  0
 16 17  1  6  0  0  0
 19 23  1  0  0  0  0
 19 18  1  1  0  0  0
 20 22  1  1  0  0  0
 20 19  1  0  0  0  0
 21 20  1  0  0  0  0
 23 24  1  6  0  0  0
 26 23  1  0  0  0  0
 26 25  2  0  0  0  0
 27 28  2  0  0  0  0
 28  5  1  0  0  0  0
 29 28  1  0  0  0  0
M  END
>  <MODEL>
8

>  <REMARK>
 VINA RESULT:      -6.5      2.732      7.147
  Name = 
  7 active torsions:
  status: ('A' for Active; 'I' for Inactive)
    1  A    between atoms: C_2  and  C_14
    2  A    between atoms: C_5  and  C_17
    3  A    between atoms: C_7  and  C_14
    4  A    between atoms: C_7  and  C_24
    5  A    between atoms: C_8  and  C_13
    6  A    between atoms: C_13  and  C_14
    7  A    between atoms: C_19  and  N_23
                            x       y       z     vdW  Elec       q    Type
                         _______ _______ _______ _____ _____    ______ ____

>  <TORSDO>
F 7

$$$$
=
 OpenBabel11042410253D

 29 31  0  0  1  0  0  0  0  0999 V2000
  191.3870  177.4820  140.5500 N   0  0  0  0  0  0  0  0  0  0  0  0
  189.2970  178.4080  137.3010 N   0  0  0  0  0  1  0  0  0  0  0  0
  186.1760  178.0330  139.1660 C   0  0  0  0  0  3  0  0  0  0  0  0
  189.2470  177.8910  139.6270 C   0  0  0  0  0  0  0  0  0  0  0  0
  187.1170  177.7330  138.2770 C   0  0  0  0  0  0  0  0  0  0  0  0
  190.8540  177.2370  141.7660 C   0  0  0  0  0  3  0  0  0  0  0  0
  187.4500  178.0560  141.2960 C   0  0  0  0  0  3  0  0  0  0  0  0
  186.4230  178.5800  140.4580 N   0  0  0  0  0  0  0  0  0  0  0  0
  190.6050  177.8010  139.5210 N   0  0  0  0  0  0  0  0  0  0  0  0
  188.6910  177.7270  140.9290 C   0  0  0  0  0  0  0  0  0  0  0  0
  188.5550  178.0650  138.4760 C   0  0  0  0  0  0  0  0  0  0  0  0
  189.5200  177.3690  141.9440 N   0  0  0  0  0  0  0  0  0  0  0  0
  183.7100  178.6210  142.7280 O   0  0  0  0  0  0  0  0  0  0  0  0
  184.8030  179.1300  143.4550 C   0  0  2  0  0  3  0  0  0  0  0  0
  184.1730  178.3790  141.4230 C   0  0  0  0  0  2  0  0  0  0  0  0
  185.3470  179.2930  141.1450 C   0  0  1  0  0  3  0  0  0  0  0  0
  185.7830  179.7710  142.5000 C   0  0  0  0  0  2  0  0  0  0  0  0
  185.4920  178.0140  144.2310 C   0  0  0  0  0  2  0  0  0  0  0  0
  186.3900  178.5780  145.3330 C   0  0  1  0  0  3  0  0  0  0  0  0
  185.6580  178.5760  146.6770 C   0  0  2  0  0  3  0  0  0  0  0  0
  184.2770  178.5660  146.4720 O   0  0  0  0  0  1  0  0  0  0  0  0
  186.0130  179.7580  147.4440 N   0  0  0  0  0  1  0  0  0  0  0  0
  187.7340  177.8370  145.4240 C   0  0  2  0  0  3  0  0  0  0  0  0
  187.7540  176.7520  144.5460 O   0  0  0  0  0  1  0  0  0  0  0  0
  189.2060  177.3270  147.2000 O   0  0  0  0  0  0  0  0  0  0  0  0
  188.0490  177.3820  146.8170 C   0  0  0  0  0  3  0  0  0  0  0  0
  186.2440  177.8660  136.0290 N   0  0  0  0  0  2  0  0  0  0  0  0
  186.6710  177.1220  136.9960 C   0  0  0  0  0  0  0  0  0  0  0  0
  186.8110  175.6550  136.7450 C   0  0  0  0  0  1  0  0  0  0  0  0
  1  6  1  0  0  0  0
  2 11  1  0  0  0  0
  3  8  1  0  0  0  0
  4 10  1  0  0  0  0
  5 11  1  0  0  0  0
  5  3  2  0  0  0  0
  6 12  2  0  0  0  0
  8  7  1  0  0  0  0
  9  4  1  0  0  0  0
  9  1  2  0  0  0  0
 10  7  2  0  0  0  0
 10 12  1  0  0  0  0
 11  4  2  0  0  0  0
 13 14  1  0  0  0  0
 14 18  1  6  0  0  0
 15 13  1  0  0  0  0
 16  8  1  1  0  0  0
 16 15  1  0  0  0  0
 16 17  1  0  0  0  0
 17 14  1  0  0  0  0
 19 18  1  6  0  0  0
 19 23  1  0  0  0  0
 19 20  1  0  0  0  0
 20 21  1  6  0  0  0
 20 22  1  0  0  0  0
 23 24  1  6  0  0  0
 23 26  1  0  0  0  0
 26 25  2  0  0  0  0
 27 28  2  0  0  0  0
 28  5  1  0  0  0  0
 29 28  1  0  0  0  0
M  END
>  <MODEL>
9

>  <REMARK>
 VINA RESULT:      -6.5      2.336      4.097
  Name = 
  7 active torsions:
  status: ('A' for Active; 'I' for Inactive)
    1  A    between atoms: C_2  and  C_14
    2  A    between atoms: C_5  and  C_17
    3  A    between atoms: C_7  and  C_14
    4  A    between atoms: C_7  and  C_24
    5  A    between atoms: C_8  and  C_13
    6  A    between atoms: C_13  and  C_14
    7  A    between atoms: C_19  and  N_23
                            x       y       z     vdW  Elec       q    Type
                         _______ _______ _______ _____ _____    ______ ____

>  <TORSDO>
F 7

$$$$
