=
 OpenBabel11032420063D

 60 62  0  0  1  0  0  0  0  0999 V2000
  186.5290  177.8950  138.8700 C   0  0  0  0  0  3  0  0  0  0  0  0
  185.2020  178.3140  138.9370 C   0  0  0  0  0  0  0  0  0  0  0  0
  186.0980  176.8010  136.7360 C   0  0  0  0  0  0  0  0  0  0  0  0
  184.3240  177.9900  137.8970 C   0  0  0  0  0  3  0  0  0  0  0  0
  184.7530  177.2270  136.8040 C   0  0  0  0  0  0  0  0  0  0  0  0
  186.9900  177.1360  137.7820 C   0  0  0  0  0  0  0  0  0  0  0  0
  188.4040  176.7230  137.7110 C   0  0  0  0  0  2  0  0  0  0  0  0
  189.3350  176.5090  139.0120 S   0  0  0  0  0  0  0  0  0  0  0  0
  192.9710  176.4620  137.7750 C   0  0  0  0  0  2  0  0  0  0  0  0
  191.9620  177.0640  138.4330 N   0  0  0  0  0  0  0  0  0  0  0  0
  190.9320  176.2100  138.3090 C   0  0  0  0  0  0  0  0  0  0  0  0
  191.2310  175.1000  137.6130 N   0  0  0  0  0  0  0  0  0  0  0  0
  192.5240  175.2580  137.2730 C   0  0  0  0  0  3  0  0  0  0  0  0
  183.8090  177.8820  134.5940 C   0  0  0  0  0  1  0  0  0  0  0  0
  183.7670  176.8630  135.7230 C   0  0  2  0  0  3  0  0  0  0  0  0
  182.4760  176.7820  136.2480 O   0  0  0  0  0  0  0  0  0  0  0  0
  181.7220  176.1340  135.2700 C   0  0  0  0  0  2  0  0  0  0  0  0
  180.6390  175.2840  135.9190 C   0  0  0  0  0  2  0  0  0  0  0  0
  181.1550  174.5380  137.1420 C   0  0  0  0  0  2  0  0  0  0  0  0
  180.0180  174.1520  138.0760 C   0  0  1  0  0  3  0  0  0  0  0  0
  180.0790  172.7980  138.3530 F   0  0  0  0  0  0  0  0  0  0  0  0
  179.0390  176.3570  139.6280 O   0  0  0  0  0  0  0  0  0  0  0  0
  179.8270  174.0500  140.9240 O   0  0  0  0  0  1  0  0  0  0  0  0
  180.1550  175.0830  139.6260 P   0  0  0  0  0  0  0  0  0  0  0  0
  181.5530  175.6370  139.7660 O   0  0  0  0  0  1  0  0  0  0  0  0
  186.5850  176.0280  135.5390 C   0  0  0  0  0  2  0  0  0  0  0  0
  187.0820  173.7010  136.6090 C   0  0  0  0  0  2  0  0  0  0  0  0
  186.9160  172.1960  136.2750 C   0  0  0  0  0  2  0  0  0  0  0  0
  184.1170  173.2770  135.4040 C   0  0  0  0  0  3  0  0  0  0  0  0
  184.3380  172.0170  136.1490 C   0  0  0  0  0  0  0  0  0  0  0  0
  185.5480  171.5880  136.5790 C   0  0  0  0  0  3  0  0  0  0  0  0
  183.1460  171.1930  136.4860 C   0  0  0  0  0  1  0  0  0  0  0  0
  185.1070  174.1060  135.4250 C   0  0  0  0  0  0  0  0  0  0  0  0
  186.2780  174.5770  135.6910 C   0  0  0  0  0  0  0  0  0  0  0  0
  184.7790  179.2070  140.0610 C   0  0  0  0  0  2  0  0  0  0  0  0
  185.2320  178.7050  141.4310 C   0  0  0  0  0  2  0  0  0  0  0  0
  182.7670  178.7760  141.8560 C   0  0  0  0  0  0  0  0  0  0  0  0
  184.0980  178.5580  142.3410 N   0  0  0  0  0  0  0  0  0  0  0  0
  182.5540  179.1090  140.5220 O   0  0  0  0  0  0  0  0  0  0  0  0
  181.7790  178.6790  142.6330 O   0  0  0  0  0  1  0  0  0  0  0  0
  184.3270  178.1860  143.7360 C   0  0  0  0  0  2  0  0  0  0  0  0
  184.5210  179.3990  144.6460 C   0  0  2  0  0  3  0  0  0  0  0  0
  184.4690  180.5980  143.9250 O   0  0  0  0  0  1  0  0  0  0  0  0
  185.5080  179.4900  146.8500 O   0  0  0  0  0  1  0  0  0  0  0  0
  185.7910  179.3000  145.4960 C   0  0  1  0  0  3  0  0  0  0  0  0
  186.5090  177.9690  145.2880 C   0  0  2  0  0  3  0  0  0  0  0  0
  185.9530  176.9930  146.1180 O   0  0  0  0  0  1  0  0  0  0  0  0
  187.8780  178.0990  145.5510 O   0  0  0  0  0  0  0  0  0  0  0  0
  188.6370  178.4820  142.8200 C   0  0  0  0  0  1  0  0  0  0  0  0
  188.6940  177.3730  144.2510 P   0  0  2  0  0  0  0  0  0  0  0  0
  187.9870  176.0890  143.8940 O   0  0  0  0  0  0  0  0  0  0  0  0
  190.4450  177.0230  144.6690 C   0  0  1  0  0  3  0  0  0  0  0  0
  191.4760  177.7360  143.8350 C   0  0  0  0  0  0  0  0  0  0  0  0
  192.0430  177.1520  142.8750 O   0  0  0  0  0  0  0  0  0  0  0  0
  191.7700  179.0670  144.1010 O   0  0  0  0  0  1  0  0  0  0  0  0
  190.7190  176.9390  146.0560 O   0  0  0  0  0  0  0  0  0  0  0  0
  192.2190  174.7310  145.4360 O   0  0  0  0  0  0  0  0  0  0  0  0
  192.0710  175.9370  146.3340 P   0  0  2  0  0  4  0  0  0  0  0  0
  191.8970  175.3510  147.9390 O   0  0  0  0  0  1  0  0  0  0  0  0
  192.9850  175.9950  147.7830 O   0  0  0  0  0  0  0  0  0  0  0  0
  1  2  1  0  0  0  0
  2 35  1  0  0  0  0
  3  5  2  0  0  0  0
  3  6  1  0  0  0  0
  4  2  2  0  0  0  0
  5  4  1  0  0  0  0
  6  1  2  0  0  0  0
  7  6  1  0  0  0  0
  7  8  1  0  0  0  0
  9 10  1  0  0  0  0
 11 10  2  0  0  0  0
 11  8  1  0  0  0  0
 12 11  1  0  0  0  0
 13 12  2  0  0  0  0
 13  9  1  0  0  0  0
 15 14  1  6  0  0  0
 15 16  1  0  0  0  0
 15  5  1  0  0  0  0
 17 18  1  0  0  0  0
 17 16  1  0  0  0  0
 18 19  1  0  0  0  0
 19 20  1  0  0  0  0
 20 21  1  1  0  0  0
 20 24  1  0  0  0  0
 24 22  2  0  0  0  0
 24 25  1  0  0  0  0
 24 23  1  0  0  0  0
 26 34  1  0  0  0  0
 26  3  1  0  0  0  0
 28 31  1  0  0  0  0
 28 27  1  0  0  0  0
 29 33  2  0  0  0  0
 29 30  1  0  0  0  0
 30 32  1  0  0  0  0
 30 31  2  0  0  0  0
 33 34  2  0  0  0  0
 34 27  1  0  0  0  0
 35 36  1  0  0  0  0
 36 38  1  0  0  0  0
 37 38  1  0  0  0  0
 37 40  1  0  0  0  0
 38 41  1  0  0  0  0
 39 37  2  0  0  0  0
 41 42  1  0  0  0  0
 42 43  1  6  0  0  0
 42 45  1  0  0  0  0
 45 44  1  1  0  0  0
 46 45  1  0  0  0  0
 46 48  1  0  0  0  0
 46 47  1  1  0  0  0
 50 49  1  6  0  0  0
 50 52  1  0  0  0  0
 50 48  1  0  0  0  0
 51 50  2  0  0  0  0
 52 53  1  1  0  0  0
 52 56  1  0  0  0  0
 53 55  1  0  0  0  0
 54 53  2  0  0  0  0
 56 58  1  0  0  0  0
 58 57  2  1  0  0  0
 58 60  1  0  0  0  0
 60 59  1  0  0  0  0
M  END
>  <MODEL>
1

>  <REMARK>
 VINA RESULT:      -5.6      0.000      0.000
  Name = 
  24 active torsions:
  status: ('A' for Active; 'I' for Inactive)
    1  A    between atoms: C_4  and  C_10
    2  A    between atoms: C_4  and  C_29
    3  A    between atoms: C_6  and  C_56
    4  A    between atoms: O_8  and  C_33
    5  A    between atoms: O_8  and  P_51
    6  A    between atoms: C_10  and  C_48
    7  A    between atoms: C_12  and  N_35
    8  A    between atoms: C_12  and  C_60
    9  A    between atoms: C_13  and  S_22
   10  A    between atoms: C_14  and  C_45
   11  A    between atoms: C_19  and  C_30
   12  A    between atoms: C_19  and  C_53
   13  A    between atoms: C_20  and  C_60
   14  A    between atoms: P_24  and  O_25
   15  A    between atoms: O_25  and  C_56
   16  A    between atoms: C_26  and  C_32
   17  A    between atoms: C_26  and  O_47
   18  A    between atoms: C_27  and  C_40
   19  A    between atoms: C_29  and  P_38
   20  A    between atoms: C_30  and  C_33
   21  A    between atoms: N_35  and  C_53
   22  A    between atoms: C_40  and  C_55
   23  A    between atoms: O_47  and  C_48
   24  A    between atoms: P_51  and  C_56
                            x       y       z     vdW  Elec       q    Type
                         _______ _______ _______ _____ _____    ______ ____

>  <TORSDO>
F 24

$$$$
=
 OpenBabel11032420063D

 60 62  0  0  1  0  0  0  0  0999 V2000
  185.2950  178.1560  139.7440 C   0  0  0  0  0  3  0  0  0  0  0  0
  185.9790  178.6270  140.8630 C   0  0  0  0  0  0  0  0  0  0  0  0
  183.2180  178.0860  141.0160 C   0  0  0  0  0  0  0  0  0  0  0  0
  185.2810  178.8420  142.0560 C   0  0  0  0  0  3  0  0  0  0  0  0
  183.9110  178.5640  142.1490 C   0  0  0  0  0  0  0  0  0  0  0  0
  183.9200  177.8760  139.8050 C   0  0  0  0  0  0  0  0  0  0  0  0
  183.2040  177.4050  138.6050 C   0  0  0  0  0  2  0  0  0  0  0  0
  183.9320  177.0980  137.1970 S   0  0  0  0  0  0  0  0  0  0  0  0
  181.1050  175.6980  135.0060 C   0  0  0  0  0  2  0  0  0  0  0  0
  182.1430  175.5140  135.8440 N   0  0  0  0  0  0  0  0  0  0  0  0
  182.5720  176.7570  136.1160 C   0  0  0  0  0  0  0  0  0  0  0  0
  181.8660  177.7190  135.5010 N   0  0  0  0  0  0  0  0  0  0  0  0
  180.9350  177.0500  134.7950 C   0  0  0  0  0  3  0  0  0  0  0  0
  181.8490  179.4300  143.2460 C   0  0  0  0  0  1  0  0  0  0  0  0
  183.2020  178.7690  143.4640 C   0  0  2  0  0  3  0  0  0  0  0  0
  183.9830  179.5480  144.3210 O   0  0  0  0  0  0  0  0  0  0  0  0
  184.1940  178.7530  145.4480 C   0  0  0  0  0  2  0  0  0  0  0  0
  185.6780  178.6950  145.7800 C   0  0  0  0  0  2  0  0  0  0  0  0
  186.2970  177.3570  145.4000 C   0  0  0  0  0  2  0  0  0  0  0  0
  187.8160  177.4180  145.4420 C   0  0  1  0  0  3  0  0  0  0  0  0
  188.2570  178.5460  144.7750 F   0  0  0  0  0  0  0  0  0  0  0  0
  189.9920  178.0040  147.2170 O   0  0  0  0  0  0  0  0  0  0  0  0
  187.4140  178.5770  148.0220 O   0  0  0  0  0  1  0  0  0  0  0  0
  188.3800  177.4870  147.1640 P   0  0  0  0  0  0  0  0  0  0  0  0
  188.2700  176.1170  147.7910 O   0  0  0  0  0  1  0  0  0  0  0  0
  181.7350  177.8360  141.0880 C   0  0  0  0  0  2  0  0  0  0  0  0
  181.4960  180.2020  140.0150 C   0  0  0  0  0  2  0  0  0  0  0  0
  180.3820  181.1470  139.4920 C   0  0  0  0  0  2  0  0  0  0  0  0
  179.4550  178.4400  138.2400 C   0  0  0  0  0  3  0  0  0  0  0  0
  179.4430  179.7410  137.5350 C   0  0  0  0  0  0  0  0  0  0  0  0
  179.9080  180.8980  138.0620 C   0  0  0  0  0  3  0  0  0  0  0  0
  178.9310  179.7680  136.1380 C   0  0  0  0  0  1  0  0  0  0  0  0
  180.1970  178.3950  139.2960 C   0  0  0  0  0  0  0  0  0  0  0  0
  180.9970  178.8000  140.2230 C   0  0  0  0  0  0  0  0  0  0  0  0
  187.4190  179.0090  140.7250 C   0  0  0  0  0  2  0  0  0  0  0  0
  188.3630  178.0800  141.4880 C   0  0  0  0  0  2  0  0  0  0  0  0
  190.6880  177.3080  140.9820 C   0  0  0  0  0  0  0  0  0  0  0  0
  189.3180  177.4410  140.5840 N   0  0  0  0  0  0  0  0  0  0  0  0
  191.1040  177.7680  142.2260 O   0  0  0  0  0  1  0  0  0  0  0  0
  191.5310  176.7820  140.2050 O   0  0  0  0  0  0  0  0  0  0  0  0
  188.8690  176.9400  139.2870 C   0  0  0  0  0  2  0  0  0  0  0  0
  189.7320  177.4410  138.1300 C   0  0  2  0  0  3  0  0  0  0  0  0
  189.4450  178.7730  137.8110 O   0  0  0  0  0  1  0  0  0  0  0  0
  189.5770  177.2780  135.7240 O   0  0  0  0  0  1  0  0  0  0  0  0
  189.6560  176.5310  136.9000 C   0  0  1  0  0  3  0  0  0  0  0  0
  190.8360  175.5650  136.8360 C   0  0  2  0  0  3  0  0  0  0  0  0
  190.7630  174.6530  137.8910 O   0  0  0  0  0  1  0  0  0  0  0  0
  192.0490  176.2630  136.8880 O   0  0  0  0  0  0  0  0  0  0  0  0
  194.1540  176.7290  135.0100 C   0  0  0  0  0  1  0  0  0  0  0  0
  193.1020  175.4880  135.8050 P   0  0  2  0  0  0  0  0  0  0  0  0
  192.2820  174.8000  134.7420 O   0  0  0  0  0  0  0  0  0  0  0  0
  194.1630  174.2610  136.6620 C   0  0  1  0  0  3  0  0  0  0  0  0
  195.1430  174.8220  137.6590 C   0  0  0  0  0  0  0  0  0  0  0  0
  194.7500  175.2660  138.7680 O   0  0  0  0  0  1  0  0  0  0  0  0
  196.5010  174.8060  137.3650 O   0  0  0  0  0  0  0  0  0  0  0  0
  193.5020  173.0700  137.0450 O   0  0  0  0  0  0  0  0  0  0  0  0
  195.6340  171.9220  135.7600 O   0  0  0  0  0  0  0  0  0  0  0  0
  194.2410  171.7190  136.3100 P   0  0  2  0  0  4  0  0  0  0  0  0
  193.2340  171.2970  134.9840 O   0  0  0  0  0  1  0  0  0  0  0  0
  193.3590  170.3360  135.8120 O   0  0  0  0  0  0  0  0  0  0  0  0
  1  6  2  0  0  0  0
  1  2  1  0  0  0  0
  2  4  2  0  0  0  0
  3 26  1  0  0  0  0
  3  5  2  0  0  0  0
  4  5  1  0  0  0  0
  5 15  1  0  0  0  0
  6  3  1  0  0  0  0
  7  6  1  0  0  0  0
  8  7  1  0  0  0  0
  9 10  1  0  0  0  0
 10 11  2  0  0  0  0
 11  8  1  0  0  0  0
 12 11  1  0  0  0  0
 13  9  1  0  0  0  0
 13 12  2  0  0  0  0
 15 14  1  6  0  0  0
 15 16  1  0  0  0  0
 16 17  1  0  0  0  0
 17 18  1  0  0  0  0
 19 20  1  0  0  0  0
 19 18  1  0  0  0  0
 20 21  1  6  0  0  0
 20 24  1  0  0  0  0
 24 22  2  0  0  0  0
 24 25  1  0  0  0  0
 24 23  1  0  0  0  0
 27 34  1  0  0  0  0
 28 27  1  0  0  0  0
 29 33  2  0  0  0  0
 30 31  2  0  0  0  0
 30 29  1  0  0  0  0
 31 28  1  0  0  0  0
 32 30  1  0  0  0  0
 33 34  2  0  0  0  0
 34 26  1  0  0  0  0
 35  2  1  0  0  0  0
 35 36  1  0  0  0  0
 37 39  1  0  0  0  0
 38 37  1  0  0  0  0
 38 36  1  0  0  0  0
 40 37  2  0  0  0  0
 41 38  1  0  0  0  0
 42 43  1  6  0  0  0
 42 41  1  0  0  0  0
 45 44  1  6  0  0  0
 45 42  1  0  0  0  0
 46 48  1  0  0  0  0
 46 45  1  0  0  0  0
 46 47  1  1  0  0  0
 50 49  1  6  0  0  0
 50 52  1  0  0  0  0
 50 48  1  0  0  0  0
 51 50  2  0  0  0  0
 52 56  1  1  0  0  0
 52 53  1  0  0  0  0
 53 54  1  0  0  0  0
 55 53  2  0  0  0  0
 58 57  2  6  0  0  0
 58 56  1  0  0  0  0
 59 60  1  0  0  0  0
 60 58  1  0  0  0  0
M  END
>  <MODEL>
2

>  <REMARK>
 VINA RESULT:      -5.4      4.833      9.253
  Name = 
  24 active torsions:
  status: ('A' for Active; 'I' for Inactive)
    1  A    between atoms: C_4  and  C_10
    2  A    between atoms: C_4  and  C_29
    3  A    between atoms: C_6  and  C_56
    4  A    between atoms: O_8  and  C_33
    5  A    between atoms: O_8  and  P_51
    6  A    between atoms: C_10  and  C_48
    7  A    between atoms: C_12  and  N_35
    8  A    between atoms: C_12  and  C_60
    9  A    between atoms: C_13  and  S_22
   10  A    between atoms: C_14  and  C_45
   11  A    between atoms: C_19  and  C_30
   12  A    between atoms: C_19  and  C_53
   13  A    between atoms: C_20  and  C_60
   14  A    between atoms: P_24  and  O_25
   15  A    between atoms: O_25  and  C_56
   16  A    between atoms: C_26  and  C_32
   17  A    between atoms: C_26  and  O_47
   18  A    between atoms: C_27  and  C_40
   19  A    between atoms: C_29  and  P_38
   20  A    between atoms: C_30  and  C_33
   21  A    between atoms: N_35  and  C_53
   22  A    between atoms: C_40  and  C_55
   23  A    between atoms: O_47  and  C_48
   24  A    between atoms: P_51  and  C_56
                            x       y       z     vdW  Elec       q    Type
                         _______ _______ _______ _____ _____    ______ ____

>  <TORSDO>
F 24

$$$$
=
 OpenBabel11032420063D

 60 62  0  0  1  0  0  0  0  0999 V2000
  188.9770  176.9630  139.9280 C   0  0  0  0  0  3  0  0  0  0  0  0
  189.8490  176.6230  138.8960 C   0  0  0  0  0  0  0  0  0  0  0  0
  190.8600  177.5690  141.3510 C   0  0  0  0  0  0  0  0  0  0  0  0
  191.2280  176.7690  139.0850 C   0  0  0  0  0  3  0  0  0  0  0  0
  191.7440  177.2250  140.3050 C   0  0  0  0  0  0  0  0  0  0  0  0
  189.4640  177.4310  141.1600 C   0  0  0  0  0  0  0  0  0  0  0  0
  188.5280  177.8140  142.2320 C   0  0  0  0  0  2  0  0  0  0  0  0
  187.8450  176.7520  143.2380 S   0  0  0  0  0  0  0  0  0  0  0  0
  185.7990  178.7970  145.7650 C   0  0  0  0  0  2  0  0  0  0  0  0
  186.8470  178.0050  145.4690 N   0  0  0  0  0  0  0  0  0  0  0  0
  186.7100  177.7520  144.1570 C   0  0  0  0  0  0  0  0  0  0  0  0
  185.6360  178.3400  143.6030 N   0  0  0  0  0  0  0  0  0  0  0  0
  185.0560  179.0030  144.6210 C   0  0  0  0  0  3  0  0  0  0  0  0
  193.8170  178.3800  139.5480 C   0  0  0  0  0  1  0  0  0  0  0  0
  193.2370  177.3300  140.4840 C   0  0  2  0  0  3  0  0  0  0  0  0
  193.8440  176.0940  140.2510 O   0  0  0  0  0  0  0  0  0  0  0  0
  195.2020  176.3740  140.0990 C   0  0  0  0  0  2  0  0  0  0  0  0
  196.0290  175.1230  140.3570 C   0  0  0  0  0  2  0  0  0  0  0  0
  196.8590  174.7270  139.1430 C   0  0  0  0  0  2  0  0  0  0  0  0
  196.1310  173.7020  138.2860 C   0  0  1  0  0  3  0  0  0  0  0  0
  195.0150  173.2380  138.9590 F   0  0  0  0  0  0  0  0  0  0  0  0
  194.0350  175.0690  136.8830 O   0  0  0  0  0  1  0  0  0  0  0  0
  196.6600  175.7370  136.3510 O   0  0  0  0  0  1  0  0  0  0  0  0
  195.6090  174.4660  136.7260 P   0  0  0  0  0  0  0  0  0  0  0  0
  195.6470  173.4400  135.6180 O   0  0  0  0  0  0  0  0  0  0  0  0
  191.3990  178.1130  142.6470 C   0  0  0  0  0  2  0  0  0  0  0  0
  192.1220  175.7170  143.3840 C   0  0  0  0  0  2  0  0  0  0  0  0
  191.6880  174.6150  144.3850 C   0  0  0  0  0  2  0  0  0  0  0  0
  191.5040  177.1410  146.2130 C   0  0  0  0  0  3  0  0  0  0  0  0
  192.0670  175.8380  146.6330 C   0  0  0  0  0  0  0  0  0  0  0  0
  192.2030  174.7680  145.8150 C   0  0  0  0  0  3  0  0  0  0  0  0
  192.5580  175.7130  148.0310 C   0  0  0  0  0  1  0  0  0  0  0  0
  191.4040  177.3090  144.9370 C   0  0  0  0  0  0  0  0  0  0  0  0
  191.4720  177.0390  143.6780 C   0  0  0  0  0  0  0  0  0  0  0  0
  189.2840  176.2280  137.5690 C   0  0  0  0  0  2  0  0  0  0  0  0
  187.8560  175.6940  137.6580 C   0  0  0  0  0  2  0  0  0  0  0  0
  186.4600  174.7930  135.7870 C   0  0  0  0  0  0  0  0  0  0  0  0
  187.1370  175.8960  136.4010 N   0  0  0  0  0  0  0  0  0  0  0  0
  186.4710  173.5400  136.3920 O   0  0  0  0  0  1  0  0  0  0  0  0
  185.8560  174.9430  134.6910 O   0  0  0  0  0  0  0  0  0  0  0  0
  187.1110  177.2210  135.7830 C   0  0  0  0  0  2  0  0  0  0  0  0
  186.4230  178.2660  136.6600 C   0  0  2  0  0  3  0  0  0  0  0  0
  187.3040  179.2920  137.0260 O   0  0  0  0  0  1  0  0  0  0  0  0
  185.9380  178.4210  139.0220 O   0  0  0  0  0  1  0  0  0  0  0  0
  185.7280  177.6490  137.8770 C   0  0  1  0  0  3  0  0  0  0  0  0
  184.2340  177.4540  137.6370 C   0  0  2  0  0  3  0  0  0  0  0  0
  183.5470  178.6340  137.9300 O   0  0  0  0  0  1  0  0  0  0  0  0
  183.7400  176.4040  138.4190 O   0  0  0  0  0  0  0  0  0  0  0  0
  183.1160  173.9140  137.1600 C   0  0  0  0  0  1  0  0  0  0  0  0
  182.5680  175.6090  137.4840 P   0  0  2  0  0  0  0  0  0  0  0  0
  182.4310  176.3310  136.1660 O   0  0  0  0  0  0  0  0  0  0  0  0
  180.9450  175.5630  138.3380 C   0  0  1  0  0  3  0  0  0  0  0  0
  179.9950  174.4850  137.8870 C   0  0  0  0  0  0  0  0  0  0  0  0
  179.5920  173.6050  138.6900 O   0  0  0  0  0  1  0  0  0  0  0  0
  179.5240  174.4920  136.5800 O   0  0  0  0  0  0  0  0  0  0  0  0
  181.0020  175.7950  139.7330 O   0  0  0  0  0  0  0  0  0  0  0  0
  179.2920  177.8610  139.1660 O   0  0  0  0  0  0  0  0  0  0  0  0
  179.7670  176.8730  140.2060 P   0  0  2  0  0  4  0  0  0  0  0  0
  180.4140  177.7860  141.5080 O   0  0  0  0  0  1  0  0  0  0  0  0
  179.3610  177.1550  141.8470 O   0  0  0  0  0  0  0  0  0  0  0  0
  1  6  1  0  0  0  0
  2  4  1  0  0  0  0
  2  1  2  0  0  0  0
  3 26  1  0  0  0  0
  4  5  2  0  0  0  0
  5 15  1  0  0  0  0
  5  3  1  0  0  0  0
  6  3  2  0  0  0  0
  6  7  1  0  0  0  0
  7  8  1  0  0  0  0
  8 11  1  0  0  0  0
 10  9  1  0  0  0  0
 11 10  2  0  0  0  0
 12 11  1  0  0  0  0
 12 13  2  0  0  0  0
 13  9  1  0  0  0  0
 15 14  1  6  0  0  0
 16 15  1  0  0  0  0
 17 16  1  0  0  0  0
 17 18  1  0  0  0  0
 19 18  1  0  0  0  0
 20 21  1  1  0  0  0
 20 19  1  0  0  0  0
 23 24  1  0  0  0  0
 24 22  1  0  0  0  0
 24 20  1  0  0  0  0
 25 24  2  0  0  0  0
 26 34  1  0  0  0  0
 27 34  1  0  0  0  0
 27 28  1  0  0  0  0
 28 31  1  0  0  0  0
 29 30  1  0  0  0  0
 30 32  1  0  0  0  0
 31 30  2  0  0  0  0
 33 29  2  0  0  0  0
 34 33  2  0  0  0  0
 35 36  1  0  0  0  0
 35  2  1  0  0  0  0
 37 39  1  0  0  0  0
 37 38  1  0  0  0  0
 38 36  1  0  0  0  0
 40 37  2  0  0  0  0
 41 38  1  0  0  0  0
 41 42  1  0  0  0  0
 42 43  1  1  0  0  0
 42 45  1  0  0  0  0
 45 44  1  1  0  0  0
 46 45  1  0  0  0  0
 46 47  1  1  0  0  0
 46 48  1  0  0  0  0
 50 49  1  6  0  0  0
 50 52  1  0  0  0  0
 50 48  1  0  0  0  0
 51 50  2  0  0  0  0
 52 53  1  1  0  0  0
 52 56  1  0  0  0  0
 53 54  1  0  0  0  0
 55 53  2  0  0  0  0
 56 58  1  0  0  0  0
 58 57  2  1  0  0  0
 58 60  1  0  0  0  0
 59 60  1  0  0  0  0
M  END
>  <MODEL>
3

>  <REMARK>
 VINA RESULT:      -5.2      4.288     11.050
  Name = 
  24 active torsions:
  status: ('A' for Active; 'I' for Inactive)
    1  A    between atoms: C_4  and  C_10
    2  A    between atoms: C_4  and  C_29
    3  A    between atoms: C_6  and  C_56
    4  A    between atoms: O_8  and  C_33
    5  A    between atoms: O_8  and  P_51
    6  A    between atoms: C_10  and  C_48
    7  A    between atoms: C_12  and  N_35
    8  A    between atoms: C_12  and  C_60
    9  A    between atoms: C_13  and  S_22
   10  A    between atoms: C_14  and  C_45
   11  A    between atoms: C_19  and  C_30
   12  A    between atoms: C_19  and  C_53
   13  A    between atoms: C_20  and  C_60
   14  A    between atoms: P_24  and  O_25
   15  A    between atoms: O_25  and  C_56
   16  A    between atoms: C_26  and  C_32
   17  A    between atoms: C_26  and  O_47
   18  A    between atoms: C_27  and  C_40
   19  A    between atoms: C_29  and  P_38
   20  A    between atoms: C_30  and  C_33
   21  A    between atoms: N_35  and  C_53
   22  A    between atoms: C_40  and  C_55
   23  A    between atoms: O_47  and  C_48
   24  A    between atoms: P_51  and  C_56
                            x       y       z     vdW  Elec       q    Type
                         _______ _______ _______ _____ _____    ______ ____

>  <TORSDO>
F 24

$$$$
=
 OpenBabel11032420063D

 60 62  0  0  1  0  0  0  0  0999 V2000
  185.8650  177.7630  138.3300 C   0  0  0  0  0  3  0  0  0  0  0  0
  184.6090  178.1990  138.7470 C   0  0  0  0  0  0  0  0  0  0  0  0
  184.9230  177.0040  136.2150 C   0  0  0  0  0  0  0  0  0  0  0  0
  183.5110  178.0510  137.8930 C   0  0  0  0  0  3  0  0  0  0  0  0
  183.6510  177.4460  136.6370 C   0  0  0  0  0  0  0  0  0  0  0  0
  186.0380  177.1600  137.0720 C   0  0  0  0  0  0  0  0  0  0  0  0
  187.3780  176.7300  136.6330 C   0  0  0  0  0  2  0  0  0  0  0  0
  188.1970  175.5240  137.3260 S   0  0  0  0  0  0  0  0  0  0  0  0
  191.7350  176.2020  135.9920 C   0  0  0  0  0  2  0  0  0  0  0  0
  190.7150  176.4980  136.8210 N   0  0  0  0  0  0  0  0  0  0  0  0
  189.7680  175.5960  136.5130 C   0  0  0  0  0  0  0  0  0  0  0  0
  190.1290  174.7440  135.5400 N   0  0  0  0  0  0  0  0  0  0  0  0
  191.3760  175.1270  135.2060 C   0  0  0  0  0  3  0  0  0  0  0  0
  182.4150  178.3100  134.6550 C   0  0  0  0  0  1  0  0  0  0  0  0
  182.4360  177.2680  135.7630 C   0  0  2  0  0  3  0  0  0  0  0  0
  181.2690  177.3550  136.5260 O   0  0  0  0  0  0  0  0  0  0  0  0
  180.6190  178.5030  136.0710 C   0  0  0  0  0  2  0  0  0  0  0  0
  180.0650  179.2940  137.2480 C   0  0  0  0  0  2  0  0  0  0  0  0
  179.2530  180.4990  136.7950 C   0  0  0  0  0  2  0  0  0  0  0  0
  179.9640  181.8020  137.1260 C   0  0  1  0  0  3  0  0  0  0  0  0
  181.1390  181.5340  137.8050 F   0  0  0  0  0  0  0  0  0  0  0  0
  178.9340  183.3650  134.9530 O   0  0  0  0  0  1  0  0  0  0  0  0
  181.4480  183.9370  135.9420 O   0  0  0  0  0  1  0  0  0  0  0  0
  180.3510  182.6970  135.5970 P   0  0  0  0  0  0  0  0  0  0  0  0
  180.9630  181.7490  134.5940 O   0  0  0  0  0  0  0  0  0  0  0  0
  185.0960  176.4030  134.8450 C   0  0  0  0  0  2  0  0  0  0  0  0
  186.1680  174.0370  135.0950 C   0  0  0  0  0  2  0  0  0  0  0  0
  185.8940  172.5730  134.6660 C   0  0  0  0  0  2  0  0  0  0  0  0
  183.0400  173.4250  135.6080 C   0  0  0  0  0  3  0  0  0  0  0  0
  183.6700  172.1190  135.9070 C   0  0  0  0  0  0  0  0  0  0  0  0
  184.9330  171.7820  135.5510 C   0  0  0  0  0  3  0  0  0  0  0  0
  182.8810  171.1320  136.6910 C   0  0  0  0  0  1  0  0  0  0  0  0
  183.8550  174.3520  135.2300 C   0  0  0  0  0  0  0  0  0  0  0  0
  184.9670  174.9190  134.9020 C   0  0  0  0  0  0  0  0  0  0  0  0
  184.4900  178.9270  140.0490 C   0  0  0  0  0  2  0  0  0  0  0  0
  184.0540  178.0260  141.2040 C   0  0  0  0  0  2  0  0  0  0  0  0
  182.3770  179.1210  142.7020 C   0  0  0  0  0  0  0  0  0  0  0  0
  183.7420  178.8110  142.3960 N   0  0  0  0  0  0  0  0  0  0  0  0
  181.3530  178.6630  141.8790 O   0  0  0  0  0  0  0  0  0  0  0  0
  182.0900  179.8180  143.7130 O   0  0  0  0  0  1  0  0  0  0  0  0
  184.8210  179.2700  143.2690 C   0  0  0  0  0  2  0  0  0  0  0  0
  185.1560  178.2660  144.3700 C   0  0  2  0  0  3  0  0  0  0  0  0
  185.2930  178.8910  145.6150 O   0  0  0  0  0  1  0  0  0  0  0  0
  186.6830  177.4810  142.6700 O   0  0  0  0  0  1  0  0  0  0  0  0
  186.3740  177.4020  144.0290 C   0  0  1  0  0  3  0  0  0  0  0  0
  187.5890  177.7790  144.8710 C   0  0  2  0  0  3  0  0  0  0  0  0
  188.3170  178.7850  144.2330 O   0  0  0  0  0  1  0  0  0  0  0  0
  188.4040  176.6620  145.0910 O   0  0  0  0  0  0  0  0  0  0  0  0
  189.5170  176.6300  147.7250 C   0  0  0  0  0  1  0  0  0  0  0  0
  189.7220  177.1970  146.0170 P   0  0  2  0  0  0  0  0  0  0  0  0
  189.7390  178.7050  146.0090 O   0  0  0  0  0  0  0  0  0  0  0  0
  191.3100  176.5550  145.3580 C   0  0  1  0  0  3  0  0  0  0  0  0
  192.1540  175.7700  146.3260 C   0  0  0  0  0  0  0  0  0  0  0  0
  192.5960  174.6330  146.0200 O   0  0  0  0  0  0  0  0  0  0  0  0
  192.4850  176.3290  147.5550 O   0  0  0  0  0  1  0  0  0  0  0  0
  191.2420  176.0460  144.0390 O   0  0  0  0  0  0  0  0  0  0  0  0
  191.8480  178.6570  143.4680 O   0  0  0  0  0  0  0  0  0  0  0  0
  191.5620  177.2830  142.9080 P   0  0  2  0  0  4  0  0  0  0  0  0
  190.1450  177.4170  141.9480 O   0  0  0  0  0  1  0  0  0  0  0  0
  191.1710  177.1420  141.2460 O   0  0  0  0  0  0  0  0  0  0  0  0
  1  2  1  0  0  0  0
  2 35  1  0  0  0  0
  3  5  2  0  0  0  0
  3  6  1  0  0  0  0
  4  2  2  0  0  0  0
  5  4  1  0  0  0  0
  6  1  2  0  0  0  0
  7  6  1  0  0  0  0
  7  8  1  0  0  0  0
  9 10  1  0  0  0  0
 11 10  2  0  0  0  0
 11  8  1  0  0  0  0
 12 11  1  0  0  0  0
 13 12  2  0  0  0  0
 13  9  1  0  0  0  0
 15 14  1  6  0  0  0
 15 16  1  0  0  0  0
 15  5  1  0  0  0  0
 17 16  1  0  0  0  0
 17 18  1  0  0  0  0
 19 20  1  0  0  0  0
 19 18  1  0  0  0  0
 20 21  1  6  0  0  0
 22 24  1  0  0  0  0
 24 23  1  0  0  0  0
 24 20  1  0  0  0  0
 25 24  2  0  0  0  0
 26 34  1  0  0  0  0
 26  3  1  0  0  0  0
 28 27  1  0  0  0  0
 28 31  1  0  0  0  0
 29 30  1  0  0  0  0
 30 32  1  0  0  0  0
 31 30  2  0  0  0  0
 33 29  2  0  0  0  0
 34 27  1  0  0  0  0
 34 33  2  0  0  0  0
 35 36  1  0  0  0  0
 36 38  1  0  0  0  0
 37 40  1  0  0  0  0
 38 37  1  0  0  0  0
 38 41  1  0  0  0  0
 39 37  2  0  0  0  0
 41 42  1  0  0  0  0
 42 43  1  1  0  0  0
 45 44  1  6  0  0  0
 45 42  1  0  0  0  0
 45 46  1  0  0  0  0
 46 47  1  6  0  0  0
 46 48  1  0  0  0  0
 48 50  1  0  0  0  0
 50 49  1  1  0  0  0
 51 50  2  0  0  0  0
 52 56  1  6  0  0  0
 52 50  1  0  0  0  0
 52 53  1  0  0  0  0
 53 55  1  0  0  0  0
 54 53  2  0  0  0  0
 58 57  2  1  0  0  0
 58 56  1  0  0  0  0
 60 59  1  0  0  0  0
 60 58  1  0  0  0  0
M  END
>  <MODEL>
4

>  <REMARK>
 VINA RESULT:      -5.1      2.870      3.847
  Name = 
  24 active torsions:
  status: ('A' for Active; 'I' for Inactive)
    1  A    between atoms: C_4  and  C_10
    2  A    between atoms: C_4  and  C_29
    3  A    between atoms: C_6  and  C_56
    4  A    between atoms: O_8  and  C_33
    5  A    between atoms: O_8  and  P_51
    6  A    between atoms: C_10  and  C_48
    7  A    between atoms: C_12  and  N_35
    8  A    between atoms: C_12  and  C_60
    9  A    between atoms: C_13  and  S_22
   10  A    between atoms: C_14  and  C_45
   11  A    between atoms: C_19  and  C_30
   12  A    between atoms: C_19  and  C_53
   13  A    between atoms: C_20  and  C_60
   14  A    between atoms: P_24  and  O_25
   15  A    between atoms: O_25  and  C_56
   16  A    between atoms: C_26  and  C_32
   17  A    between atoms: C_26  and  O_47
   18  A    between atoms: C_27  and  C_40
   19  A    between atoms: C_29  and  P_38
   20  A    between atoms: C_30  and  C_33
   21  A    between atoms: N_35  and  C_53
   22  A    between atoms: C_40  and  C_55
   23  A    between atoms: O_47  and  C_48
   24  A    between atoms: P_51  and  C_56
                            x       y       z     vdW  Elec       q    Type
                         _______ _______ _______ _____ _____    ______ ____

>  <TORSDO>
F 24

$$$$
=
 OpenBabel11032420063D

 60 62  0  0  1  0  0  0  0  0999 V2000
  186.1860  177.4960  137.5810 C   0  0  0  0  0  3  0  0  0  0  0  0
  187.4880  177.3520  138.0550 C   0  0  0  0  0  0  0  0  0  0  0  0
  186.5350  175.6730  136.0020 C   0  0  0  0  0  0  0  0  0  0  0  0
  188.3110  176.3580  137.5140 C   0  0  0  0  0  3  0  0  0  0  0  0
  187.8550  175.5260  136.4830 C   0  0  0  0  0  0  0  0  0  0  0  0
  185.6970  176.6710  136.5540 C   0  0  0  0  0  0  0  0  0  0  0  0
  184.3080  176.8160  136.0820 C   0  0  0  0  0  2  0  0  0  0  0  0
  183.9040  177.6140  134.7380 S   0  0  0  0  0  0  0  0  0  0  0  0
  180.1200  178.2720  134.7070 C   0  0  0  0  0  3  0  0  0  0  0  0
  181.3890  178.7080  134.5940 N   0  0  0  0  0  0  0  0  0  0  0  0
  182.1350  177.6080  134.7920 C   0  0  0  0  0  0  0  0  0  0  0  0
  181.4120  176.5000  135.0230 N   0  0  0  0  0  2  0  0  0  0  0  0
  180.1330  176.9180  134.9710 C   0  0  0  0  0  3  0  0  0  0  0  0
  188.5140  173.1240  136.5020 C   0  0  0  0  0  1  0  0  0  0  0  0
  188.7850  174.4940  135.8980 C   0  0  2  0  0  3  0  0  0  0  0  0
  190.1150  174.8590  136.1160 O   0  0  0  0  0  0  0  0  0  0  0  0
  190.5920  175.2680  134.8700 C   0  0  0  0  0  2  0  0  0  0  0  0
  191.6380  176.3600  135.0400 C   0  0  0  0  0  2  0  0  0  0  0  0
  193.0310  175.8810  134.6540 C   0  0  0  0  0  2  0  0  0  0  0  0
  193.9740  175.9020  135.8480 C   0  0  1  0  0  3  0  0  0  0  0  0
  193.5540  176.8560  136.7580 F   0  0  0  0  0  0  0  0  0  0  0  0
  193.7820  173.0630  135.4880 O   0  0  0  0  0  0  0  0  0  0  0  0
  195.4610  174.0560  137.4420 O   0  0  0  0  0  1  0  0  0  0  0  0
  193.9820  174.2760  136.6520 P   0  0  0  0  0  0  0  0  0  0  0  0
  192.8590  174.2000  137.6580 O   0  0  0  0  0  1  0  0  0  0  0  0
  186.0150  174.7480  134.9340 C   0  0  0  0  0  2  0  0  0  0  0  0
  185.0810  173.3960  136.9610 C   0  0  0  0  0  2  0  0  0  0  0  0
  184.3210  172.0730  137.2400 C   0  0  0  0  0  2  0  0  0  0  0  0
  182.6730  173.1690  134.8230 C   0  0  0  0  0  3  0  0  0  0  0  0
  182.0850  172.5430  136.0280 C   0  0  0  0  0  0  0  0  0  0  0  0
  182.8020  172.1300  137.1000 C   0  0  0  0  0  3  0  0  0  0  0  0
  180.6050  172.4030  136.0840 C   0  0  0  0  0  1  0  0  0  0  0  0
  183.8940  173.5680  134.9540 C   0  0  0  0  0  0  0  0  0  0  0  0
  185.0400  173.7780  135.5080 C   0  0  0  0  0  0  0  0  0  0  0  0
  187.9330  178.1810  139.2180 C   0  0  0  0  0  2  0  0  0  0  0  0
  188.3660  177.3460  140.4210 C   0  0  0  0  0  2  0  0  0  0  0  0
  188.3180  177.3990  142.9220 C   0  0  0  0  0  0  0  0  0  0  0  0
  187.8510  177.9100  141.6680 N   0  0  0  0  0  0  0  0  0  0  0  0
  189.2680  176.3840  142.9550 O   0  0  0  0  0  0  0  0  0  0  0  0
  187.8660  177.8560  144.0070 O   0  0  0  0  0  1  0  0  0  0  0  0
  186.8690  178.9920  141.6260 C   0  0  0  0  0  2  0  0  0  0  0  0
  185.4620  178.4980  141.2920 C   0  0  2  0  0  3  0  0  0  0  0  0
  184.8580  179.2880  140.3060 O   0  0  0  0  0  1  0  0  0  0  0  0
  185.1860  178.9290  143.6540 O   0  0  0  0  0  1  0  0  0  0  0  0
  184.5760  178.3610  142.5340 C   0  0  1  0  0  3  0  0  0  0  0  0
  183.1950  178.9740  142.3150 C   0  0  2  0  0  3  0  0  0  0  0  0
  182.9750  179.9940  143.2430 O   0  0  0  0  0  1  0  0  0  0  0  0
  182.1980  177.9980  142.4270 O   0  0  0  0  0  0  0  0  0  0  0  0
  180.2180  180.0480  142.6640 C   0  0  0  0  0  1  0  0  0  0  0  0
  180.8080  178.6370  141.6930 P   0  0  2  0  0  0  0  0  0  0  0  0
  179.7350  177.5770  141.6830 O   0  0  0  0  0  0  0  0  0  0  0  0
  181.1490  179.1910  139.9770 C   0  0  1  0  0  3  0  0  0  0  0  0
  181.0700  178.1260  138.9150 C   0  0  0  0  0  0  0  0  0  0  0  0
  182.0540  177.3790  138.6780 O   0  0  0  0  0  1  0  0  0  0  0  0
  179.8810  177.9400  138.2210 O   0  0  0  0  0  0  0  0  0  0  0  0
  180.5960  180.4480  139.6380 O   0  0  0  0  0  0  0  0  0  0  0  0
  182.9250  181.6050  138.7720 O   0  0  0  0  0  0  0  0  0  0  0  0
  181.5180  181.1910  138.4090 P   0  0  2  0  0  4  0  0  0  0  0  0
  180.6670  182.6210  137.9840 O   0  0  0  0  0  1  0  0  0  0  0  0
  180.8150  181.8410  136.9870 O   0  0  0  0  0  0  0  0  0  0  0  0
  1  2  1  0  0  0  0
  2 35  1  0  0  0  0
  3  5  2  0  0  0  0
  3  6  1  0  0  0  0
  4  2  2  0  0  0  0
  5  4  1  0  0  0  0
  6  1  2  0  0  0  0
  7  6  1  0  0  0  0
  8 11  1  0  0  0  0
  8  7  1  0  0  0  0
  9 13  2  0  0  0  0
 10  9  1  0  0  0  0
 10 11  2  0  0  0  0
 11 12  1  0  0  0  0
 13 12  1  0  0  0  0
 15 16  1  0  0  0  0
 15  5  1  0  0  0  0
 15 14  1  1  0  0  0
 17 18  1  0  0  0  0
 17 16  1  0  0  0  0
 19 18  1  0  0  0  0
 19 20  1  0  0  0  0
 20 24  1  0  0  0  0
 20 21  1  1  0  0  0
 22 24  2  0  0  0  0
 24 23  1  0  0  0  0
 24 25  1  0  0  0  0
 26 34  1  0  0  0  0
 26  3  1  0  0  0  0
 27 28  1  0  0  0  0
 29 33  2  0  0  0  0
 29 30  1  0  0  0  0
 30 32  1  0  0  0  0
 30 31  2  0  0  0  0
 31 28  1  0  0  0  0
 33 34  2  0  0  0  0
 34 27  1  0  0  0  0
 35 36  1  0  0  0  0
 36 38  1  0  0  0  0
 37 39  2  0  0  0  0
 37 40  1  0  0  0  0
 38 37  1  0  0  0  0
 41 38  1  0  0  0  0
 42 43  1  6  0  0  0
 42 41  1  0  0  0  0
 42 45  1  0  0  0  0
 45 44  1  1  0  0  0
 46 48  1  0  0  0  0
 46 45  1  0  0  0  0
 46 47  1  1  0  0  0
 50 48  1  0  0  0  0
 50 49  1  1  0  0  0
 51 50  2  0  0  0  0
 52 53  1  6  0  0  0
 52 50  1  0  0  0  0
 54 53  1  0  0  0  0
 55 53  2  0  0  0  0
 56 52  1  0  0  0  0
 58 57  2  1  0  0  0
 58 56  1  0  0  0  0
 60 59  1  0  0  0  0
 60 58  1  0  0  0  0
M  END
>  <MODEL>
5

>  <REMARK>
 VINA RESULT:      -5.1      4.029      8.896
  Name = 
  24 active torsions:
  status: ('A' for Active; 'I' for Inactive)
    1  A    between atoms: C_4  and  C_10
    2  A    between atoms: C_4  and  C_29
    3  A    between atoms: C_6  and  C_56
    4  A    between atoms: O_8  and  C_33
    5  A    between atoms: O_8  and  P_51
    6  A    between atoms: C_10  and  C_48
    7  A    between atoms: C_12  and  N_35
    8  A    between atoms: C_12  and  C_60
    9  A    between atoms: C_13  and  S_22
   10  A    between atoms: C_14  and  C_45
   11  A    between atoms: C_19  and  C_30
   12  A    between atoms: C_19  and  C_53
   13  A    between atoms: C_20  and  C_60
   14  A    between atoms: P_24  and  O_25
   15  A    between atoms: O_25  and  C_56
   16  A    between atoms: C_26  and  C_32
   17  A    between atoms: C_26  and  O_47
   18  A    between atoms: C_27  and  C_40
   19  A    between atoms: C_29  and  P_38
   20  A    between atoms: C_30  and  C_33
   21  A    between atoms: N_35  and  C_53
   22  A    between atoms: C_40  and  C_55
   23  A    between atoms: O_47  and  C_48
   24  A    between atoms: P_51  and  C_56
                            x       y       z     vdW  Elec       q    Type
                         _______ _______ _______ _____ _____    ______ ____

>  <TORSDO>
F 24

$$$$
=
 OpenBabel11032420063D

 60 62  0  0  1  0  0  0  0  0999 V2000
  185.8860  177.9700  139.1760 C   0  0  0  0  0  3  0  0  0  0  0  0
  184.5590  178.3590  139.3540 C   0  0  0  0  0  0  0  0  0  0  0  0
  185.3330  177.0020  137.0090 C   0  0  0  0  0  0  0  0  0  0  0  0
  183.6220  178.0830  138.3530 C   0  0  0  0  0  3  0  0  0  0  0  0
  183.9900  177.3970  137.1890 C   0  0  0  0  0  0  0  0  0  0  0  0
  186.2870  177.2880  138.0150 C   0  0  0  0  0  0  0  0  0  0  0  0
  187.6990  176.9070  137.8280 C   0  0  0  0  0  2  0  0  0  0  0  0
  188.8610  177.2460  138.8950 S   0  0  0  0  0  0  0  0  0  0  0  0
  191.6190  175.7430  136.6850 C   0  0  0  0  0  2  0  0  0  0  0  0
  190.3220  175.8630  137.0260 N   0  0  0  0  0  0  0  0  0  0  0  0
  190.3300  176.7210  138.0600 C   0  0  0  0  0  0  0  0  0  0  0  0
  191.5570  177.1530  138.3930 N   0  0  0  0  0  0  0  0  0  0  0  0
  192.3770  176.5340  137.5230 C   0  0  0  0  0  3  0  0  0  0  0  0
  183.4150  177.4990  134.7670 C   0  0  0  0  0  1  0  0  0  0  0  0
  182.9420  177.0830  136.1520 C   0  0  2  0  0  3  0  0  0  0  0  0
  181.7420  177.7270  136.4620 O   0  0  0  0  0  0  0  0  0  0  0  0
  181.0410  176.8300  137.2680 C   0  0  0  0  0  2  0  0  0  0  0  0
  181.0900  175.4330  136.6650 C   0  0  0  0  0  2  0  0  0  0  0  0
  180.9700  174.3480  137.7260 C   0  0  0  0  0  2  0  0  0  0  0  0
  179.8490  173.3740  137.3970 C   0  0  1  0  0  3  0  0  0  0  0  0
  178.9310  173.9830  136.5600 F   0  0  0  0  0  0  0  0  0  0  0  0
  181.2380  172.3680  135.0970 O   0  0  0  0  0  0  0  0  0  0  0  0
  181.7040  171.2070  137.5590 O   0  0  0  0  0  1  0  0  0  0  0  0
  180.5300  171.9120  136.5670 P   0  0  0  0  0  0  0  0  0  0  0  0
  179.4270  170.9140  136.3070 O   0  0  0  0  0  1  0  0  0  0  0  0
  185.7530  176.3140  135.7370 C   0  0  0  0  0  2  0  0  0  0  0  0
  184.3970  174.0920  135.9140 C   0  0  0  0  0  2  0  0  0  0  0  0
  184.5310  172.6820  136.5460 C   0  0  0  0  0  2  0  0  0  0  0  0
  187.3840  173.0210  135.3210 C   0  0  0  0  0  3  0  0  0  0  0  0
  186.5850  171.7760  135.2620 C   0  0  0  0  0  0  0  0  0  0  0  0
  185.3230  171.6570  135.7380 C   0  0  0  0  0  3  0  0  0  0  0  0
  187.1920  170.5940  134.5940 C   0  0  0  0  0  1  0  0  0  0  0  0
  186.7140  174.0890  135.5990 C   0  0  0  0  0  0  0  0  0  0  0  0
  185.7040  174.8330  135.9000 C   0  0  0  0  0  0  0  0  0  0  0  0
  184.1970  179.1720  140.5560 C   0  0  0  0  0  2  0  0  0  0  0  0
  184.2980  178.3890  141.8640 C   0  0  0  0  0  2  0  0  0  0  0  0
  182.0520  179.0950  142.7100 C   0  0  0  0  0  0  0  0  0  0  0  0
  183.4670  178.9910  142.9050 N   0  0  0  0  0  0  0  0  0  0  0  0
  181.4680  178.6100  141.5440 O   0  0  0  0  0  0  0  0  0  0  0  0
  181.3230  179.6340  143.5870 O   0  0  0  0  0  1  0  0  0  0  0  0
  184.0850  179.4780  144.1380 C   0  0  0  0  0  2  0  0  0  0  0  0
  184.4730  178.3470  145.0890 C   0  0  2  0  0  3  0  0  0  0  0  0
  184.2290  178.6900  146.4250 O   0  0  0  0  0  1  0  0  0  0  0  0
  186.4650  178.4250  143.7230 O   0  0  0  0  0  1  0  0  0  0  0  0
  185.9110  177.8670  144.8770 C   0  0  1  0  0  3  0  0  0  0  0  0
  186.7930  178.1680  146.0860 C   0  0  2  0  0  3  0  0  0  0  0  0
  186.3650  179.3440  146.7050 O   0  0  0  0  0  1  0  0  0  0  0  0
  188.1340  178.2870  145.7030 O   0  0  0  0  0  0  0  0  0  0  0  0
  188.1810  176.2970  147.7560 C   0  0  0  0  0  1  0  0  0  0  0  0
  189.0620  177.6800  146.9880 P   0  0  2  0  0  0  0  0  0  0  0  0
  189.2370  178.7710  148.0150 O   0  0  0  0  0  0  0  0  0  0  0  0
  190.7050  177.0990  146.4130 C   0  0  1  0  0  3  0  0  0  0  0  0
  191.5960  176.4980  147.4670 C   0  0  0  0  0  0  0  0  0  0  0  0
  192.1590  177.2260  148.3250 O   0  0  0  0  0  1  0  0  0  0  0  0
  191.7610  175.1200  147.5190 O   0  0  0  0  0  0  0  0  0  0  0  0
  190.6970  176.4420  145.1590 O   0  0  0  0  0  0  0  0  0  0  0  0
  191.6790  178.8700  144.3500 O   0  0  0  0  0  0  0  0  0  0  0  0
  191.1380  177.5260  143.9170 P   0  0  2  0  0  4  0  0  0  0  0  0
  189.7030  177.8250  143.0240 O   0  0  0  0  0  1  0  0  0  0  0  0
  190.6250  177.3350  142.2940 O   0  0  0  0  0  0  0  0  0  0  0  0
  1  2  1  0  0  0  0
  2 35  1  0  0  0  0
  3  5  2  0  0  0  0
  3  6  1  0  0  0  0
  4  2  2  0  0  0  0
  5  4  1  0  0  0  0
  6  1  2  0  0  0  0
  7  6  1  0  0  0  0
  7  8  1  0  0  0  0
  9 10  1  0  0  0  0
  9 13  1  0  0  0  0
 10 11  2  0  0  0  0
 11 12  1  0  0  0  0
 11  8  1  0  0  0  0
 13 12  2  0  0  0  0
 15 14  1  6  0  0  0
 15 16  1  0  0  0  0
 15  5  1  0  0  0  0
 16 17  1  0  0  0  0
 18 17  1  0  0  0  0
 18 19  1  0  0  0  0
 20 21  1  6  0  0  0
 20 19  1  0  0  0  0
 22 24  2  0  0  0  0
 24 20  1  0  0  0  0
 24 23  1  0  0  0  0
 25 24  1  0  0  0  0
 26 34  1  0  0  0  0
 26  3  1  0  0  0  0
 27 28  1  0  0  0  0
 29 33  2  0  0  0  0
 30 29  1  0  0  0  0
 30 31  2  0  0  0  0
 31 28  1  0  0  0  0
 32 30  1  0  0  0  0
 33 34  2  0  0  0  0
 34 27  1  0  0  0  0
 35 36  1  0  0  0  0
 36 38  1  0  0  0  0
 37 38  1  0  0  0  0
 37 40  1  0  0  0  0
 38 41  1  0  0  0  0
 39 37  2  0  0  0  0
 41 42  1  0  0  0  0
 42 43  1  1  0  0  0
 45 44  1  6  0  0  0
 45 42  1  0  0  0  0
 45 46  1  0  0  0  0
 46 47  1  6  0  0  0
 48 46  1  0  0  0  0
 48 50  1  0  0  0  0
 50 49  1  1  0  0  0
 50 51  2  0  0  0  0
 52 56  1  6  0  0  0
 52 50  1  0  0  0  0
 52 53  1  0  0  0  0
 53 55  2  0  0  0  0
 53 54  1  0  0  0  0
 58 57  2  1  0  0  0
 58 56  1  0  0  0  0
 60 59  1  0  0  0  0
 60 58  1  0  0  0  0
M  END
>  <MODEL>
6

>  <REMARK>
 VINA RESULT:      -5.1      1.875      2.881
  Name = 
  24 active torsions:
  status: ('A' for Active; 'I' for Inactive)
    1  A    between atoms: C_4  and  C_10
    2  A    between atoms: C_4  and  C_29
    3  A    between atoms: C_6  and  C_56
    4  A    between atoms: O_8  and  C_33
    5  A    between atoms: O_8  and  P_51
    6  A    between atoms: C_10  and  C_48
    7  A    between atoms: C_12  and  N_35
    8  A    between atoms: C_12  and  C_60
    9  A    between atoms: C_13  and  S_22
   10  A    between atoms: C_14  and  C_45
   11  A    between atoms: C_19  and  C_30
   12  A    between atoms: C_19  and  C_53
   13  A    between atoms: C_20  and  C_60
   14  A    between atoms: P_24  and  O_25
   15  A    between atoms: O_25  and  C_56
   16  A    between atoms: C_26  and  C_32
   17  A    between atoms: C_26  and  O_47
   18  A    between atoms: C_27  and  C_40
   19  A    between atoms: C_29  and  P_38
   20  A    between atoms: C_30  and  C_33
   21  A    between atoms: N_35  and  C_53
   22  A    between atoms: C_40  and  C_55
   23  A    between atoms: O_47  and  C_48
   24  A    between atoms: P_51  and  C_56
                            x       y       z     vdW  Elec       q    Type
                         _______ _______ _______ _____ _____    ______ ____

>  <TORSDO>
F 24

$$$$
=
 OpenBabel11032420063D

 60 62  0  0  1  0  0  0  0  0999 V2000
  187.0330  177.7290  138.9340 C   0  0  0  0  0  3  0  0  0  0  0  0
  185.7080  178.1430  139.0580 C   0  0  0  0  0  0  0  0  0  0  0  0
  186.5240  176.6640  136.8030 C   0  0  0  0  0  0  0  0  0  0  0  0
  184.7930  177.8310  138.0470 C   0  0  0  0  0  3  0  0  0  0  0  0
  185.1820  177.0840  136.9270 C   0  0  0  0  0  0  0  0  0  0  0  0
  187.4550  176.9860  137.8190 C   0  0  0  0  0  0  0  0  0  0  0  0
  188.8660  176.5800  137.6890 C   0  0  0  0  0  2  0  0  0  0  0  0
  190.1080  177.5700  137.9750 S   0  0  0  0  0  0  0  0  0  0  0  0
  192.8130  175.4110  136.3080 C   0  0  0  0  0  2  0  0  0  0  0  0
  191.6190  176.0330  136.2720 N   0  0  0  0  0  0  0  0  0  0  0  0
  191.5070  176.6020  137.4840 C   0  0  0  0  0  0  0  0  0  0  0  0
  192.5610  176.3790  138.2850 N   0  0  0  0  0  0  0  0  0  0  0  0
  193.3910  175.6230  137.5420 C   0  0  0  0  0  3  0  0  0  0  0  0
  183.6180  177.9890  135.2130 C   0  0  0  0  0  1  0  0  0  0  0  0
  184.1570  176.7320  135.8790 C   0  0  2  0  0  3  0  0  0  0  0  0
  183.1100  176.0040  136.4480 O   0  0  0  0  0  0  0  0  0  0  0  0
  182.0390  176.1540  135.5670 C   0  0  0  0  0  2  0  0  0  0  0  0
  180.8800  175.2630  135.9930 C   0  0  0  0  0  2  0  0  0  0  0  0
  181.1370  174.5960  137.3380 C   0  0  0  0  0  2  0  0  0  0  0  0
  180.1470  175.0730  138.3900 C   0  0  1  0  0  3  0  0  0  0  0  0
  179.8200  174.0250  139.2320 F   0  0  0  0  0  0  0  0  0  0  0  0
  179.9400  176.7040  140.7400 O   0  0  0  0  0  1  0  0  0  0  0  0
  182.4420  175.9590  139.8420 O   0  0  0  0  0  1  0  0  0  0  0  0
  180.8850  176.4120  139.3650 P   0  0  0  0  0  0  0  0  0  0  0  0
  180.9610  177.6680  138.5300 O   0  0  0  0  0  0  0  0  0  0  0  0
  186.9680  175.9090  135.5780 C   0  0  0  0  0  2  0  0  0  0  0  0
  187.2110  173.6130  136.7940 C   0  0  0  0  0  2  0  0  0  0  0  0
  187.1120  172.0990  136.4750 C   0  0  0  0  0  2  0  0  0  0  0  0
  184.5730  173.1520  134.9920 C   0  0  0  0  0  3  0  0  0  0  0  0
  184.6220  171.9150  135.8020 C   0  0  0  0  0  0  0  0  0  0  0  0
  185.7080  171.4990  136.4950 C   0  0  0  0  0  3  0  0  0  0  0  0
  183.3810  171.1000  135.8980 C   0  0  0  0  0  1  0  0  0  0  0  0
  185.5390  173.9830  135.2020 C   0  0  0  0  0  0  0  0  0  0  0  0
  186.6280  174.4630  135.7010 C   0  0  0  0  0  0  0  0  0  0  0  0
  185.3260  179.0190  140.2090 C   0  0  0  0  0  2  0  0  0  0  0  0
  183.8570  178.8810  140.6070 C   0  0  0  0  0  2  0  0  0  0  0  0
  182.6100  178.9100  142.7760 C   0  0  0  0  0  0  0  0  0  0  0  0
  183.7260  178.4580  142.0000 N   0  0  0  0  0  0  0  0  0  0  0  0
  181.6470  179.7350  142.2030 O   0  0  0  0  0  0  0  0  0  0  0  0
  182.4940  178.5750  143.9860 O   0  0  0  0  0  1  0  0  0  0  0  0
  184.7300  177.5730  142.5890 C   0  0  0  0  0  2  0  0  0  0  0  0
  185.9690  178.3260  143.0710 C   0  0  2  0  0  3  0  0  0  0  0  0
  187.1440  177.7780  142.5420 O   0  0  0  0  0  1  0  0  0  0  0  0
  185.2300  177.4770  145.2100 O   0  0  0  0  0  1  0  0  0  0  0  0
  186.0320  178.4430  144.5970 C   0  0  1  0  0  3  0  0  0  0  0  0
  187.4650  178.3470  145.1140 C   0  0  2  0  0  3  0  0  0  0  0  0
  188.3620  178.6560  144.0890 O   0  0  0  0  0  1  0  0  0  0  0  0
  187.7260  177.0650  145.6110 O   0  0  0  0  0  0  0  0  0  0  0  0
  188.6960  176.0010  148.0820 C   0  0  0  0  0  1  0  0  0  0  0  0
  188.9440  177.2370  146.7810 P   0  0  2  0  0  0  0  0  0  0  0  0
  188.8340  178.6110  147.3950 O   0  0  0  0  0  0  0  0  0  0  0  0
  190.6120  177.0150  146.0520 C   0  0  1  0  0  3  0  0  0  0  0  0
  191.6560  176.4290  146.9650 C   0  0  0  0  0  0  0  0  0  0  0  0
  192.0870  177.0790  147.9510 O   0  0  0  0  0  1  0  0  0  0  0  0
  192.1150  175.1360  146.7390 O   0  0  0  0  0  0  0  0  0  0  0  0
  190.6180  176.5420  144.7180 O   0  0  0  0  0  0  0  0  0  0  0  0
  191.6100  179.0300  144.1350 O   0  0  0  0  0  0  0  0  0  0  0  0
  191.5430  177.5760  143.7250 P   0  0  2  0  0  4  0  0  0  0  0  0
  190.8050  177.5240  142.1760 O   0  0  0  0  0  1  0  0  0  0  0  0
  192.0230  177.1520  142.1360 O   0  0  0  0  0  0  0  0  0  0  0  0
  1  2  1  0  0  0  0
  2 35  1  0  0  0  0
  3  5  2  0  0  0  0
  3  6  1  0  0  0  0
  4  2  2  0  0  0  0
  5  4  1  0  0  0  0
  6  1  2  0  0  0  0
  7  6  1  0  0  0  0
  7  8  1  0  0  0  0
  9 13  1  0  0  0  0
 10  9  1  0  0  0  0
 10 11  2  0  0  0  0
 11  8  1  0  0  0  0
 11 12  1  0  0  0  0
 13 12  2  0  0  0  0
 15 14  1  1  0  0  0
 15 16  1  0  0  0  0
 15  5  1  0  0  0  0
 17 18  1  0  0  0  0
 17 16  1  0  0  0  0
 18 19  1  0  0  0  0
 19 20  1  0  0  0  0
 20 21  1  1  0  0  0
 20 24  1  0  0  0  0
 24 23  1  0  0  0  0
 24 22  1  0  0  0  0
 25 24  2  0  0  0  0
 26 34  1  0  0  0  0
 26  3  1  0  0  0  0
 28 31  1  0  0  0  0
 28 27  1  0  0  0  0
 29 33  2  0  0  0  0
 29 30  1  0  0  0  0
 30 32  1  0  0  0  0
 30 31  2  0  0  0  0
 33 34  2  0  0  0  0
 34 27  1  0  0  0  0
 35 36  1  0  0  0  0
 36 38  1  0  0  0  0
 37 40  1  0  0  0  0
 38 41  1  0  0  0  0
 38 37  1  0  0  0  0
 39 37  2  0  0  0  0
 41 42  1  0  0  0  0
 42 43  1  1  0  0  0
 42 45  1  0  0  0  0
 45 46  1  0  0  0  0
 45 44  1  1  0  0  0
 46 47  1  6  0  0  0
 46 48  1  0  0  0  0
 48 50  1  0  0  0  0
 50 51  2  0  0  0  0
 50 49  1  1  0  0  0
 52 56  1  6  0  0  0
 52 50  1  0  0  0  0
 52 53  1  0  0  0  0
 53 54  1  0  0  0  0
 55 53  2  0  0  0  0
 58 57  2  6  0  0  0
 58 56  1  0  0  0  0
 60 59  1  0  0  0  0
 60 58  1  0  0  0  0
M  END
>  <MODEL>
7

>  <REMARK>
 VINA RESULT:      -4.9      1.337      2.360
  Name = 
  24 active torsions:
  status: ('A' for Active; 'I' for Inactive)
    1  A    between atoms: C_4  and  C_10
    2  A    between atoms: C_4  and  C_29
    3  A    between atoms: C_6  and  C_56
    4  A    between atoms: O_8  and  C_33
    5  A    between atoms: O_8  and  P_51
    6  A    between atoms: C_10  and  C_48
    7  A    between atoms: C_12  and  N_35
    8  A    between atoms: C_12  and  C_60
    9  A    between atoms: C_13  and  S_22
   10  A    between atoms: C_14  and  C_45
   11  A    between atoms: C_19  and  C_30
   12  A    between atoms: C_19  and  C_53
   13  A    between atoms: C_20  and  C_60
   14  A    between atoms: P_24  and  O_25
   15  A    between atoms: O_25  and  C_56
   16  A    between atoms: C_26  and  C_32
   17  A    between atoms: C_26  and  O_47
   18  A    between atoms: C_27  and  C_40
   19  A    between atoms: C_29  and  P_38
   20  A    between atoms: C_30  and  C_33
   21  A    between atoms: N_35  and  C_53
   22  A    between atoms: C_40  and  C_55
   23  A    between atoms: O_47  and  C_48
   24  A    between atoms: P_51  and  C_56
                            x       y       z     vdW  Elec       q    Type
                         _______ _______ _______ _____ _____    ______ ____

>  <TORSDO>
F 24

$$$$
=
 OpenBabel11032420063D

 60 62  0  0  1  0  0  0  0  0999 V2000
  188.9700  176.9310  140.1600 C   0  0  0  0  0  3  0  0  0  0  0  0
  189.7250  176.6230  139.0300 C   0  0  0  0  0  0  0  0  0  0  0  0
  190.9960  177.5080  141.3840 C   0  0  0  0  0  0  0  0  0  0  0  0
  191.1160  176.7710  139.0710 C   0  0  0  0  0  3  0  0  0  0  0  0
  191.7610  177.1970  140.2390 C   0  0  0  0  0  0  0  0  0  0  0  0
  189.5890  177.3690  141.3430 C   0  0  0  0  0  0  0  0  0  0  0  0
  188.7740  177.7180  142.5210 C   0  0  0  0  0  2  0  0  0  0  0  0
  187.9280  176.6370  143.3700 S   0  0  0  0  0  0  0  0  0  0  0  0
  185.5390  178.9120  145.3380 C   0  0  0  0  0  3  0  0  0  0  0  0
  185.8870  178.2750  144.2040 N   0  0  0  0  0  0  0  0  0  0  0  0
  187.0330  177.6480  144.5160 C   0  0  0  0  0  0  0  0  0  0  0  0
  187.4320  177.8490  145.7820 N   0  0  0  0  0  2  0  0  0  0  0  0
  186.4860  178.6510  146.3070 C   0  0  0  0  0  3  0  0  0  0  0  0
  193.7160  178.6110  139.6210 C   0  0  0  0  0  1  0  0  0  0  0  0
  193.2650  177.3050  140.2560 C   0  0  2  0  0  3  0  0  0  0  0  0
  193.8380  176.2220  139.5850 O   0  0  0  0  0  0  0  0  0  0  0  0
  195.2000  176.2850  139.8830 C   0  0  0  0  0  2  0  0  0  0  0  0
  195.7810  174.8820  139.9820 C   0  0  0  0  0  2  0  0  0  0  0  0
  196.7530  174.5850  138.8480 C   0  0  0  0  0  2  0  0  0  0  0  0
  196.0160  174.3230  137.5430 C   0  0  1  0  0  3  0  0  0  0  0  0
  196.7600  174.8070  136.4810 F   0  0  0  0  0  0  0  0  0  0  0  0
  195.0750  171.8880  138.7300 O   0  0  0  0  0  1  0  0  0  0  0  0
  194.7230  172.2810  136.0200 O   0  0  0  0  0  0  0  0  0  0  0  0
  195.7640  172.5400  137.3270 P   0  0  0  0  0  0  0  0  0  0  0  0
  197.0880  171.8680  137.0560 O   0  0  0  0  0  1  0  0  0  0  0  0
  191.6730  178.0200  142.6270 C   0  0  0  0  0  2  0  0  0  0  0  0
  192.3930  175.6660  143.4910 C   0  0  0  0  0  2  0  0  0  0  0  0
  191.9010  174.5770  144.4790 C   0  0  0  0  0  2  0  0  0  0  0  0
  191.4800  177.1400  146.2140 C   0  0  0  0  0  3  0  0  0  0  0  0
  192.0400  175.8660  146.7170 C   0  0  0  0  0  0  0  0  0  0  0  0
  192.2790  174.7800  145.9440 C   0  0  0  0  0  3  0  0  0  0  0  0
  192.4050  175.7900  148.1570 C   0  0  0  0  0  1  0  0  0  0  0  0
  191.4920  177.2740  144.9300 C   0  0  0  0  0  0  0  0  0  0  0  0
  191.6820  176.9750  143.6890 C   0  0  0  0  0  0  0  0  0  0  0  0
  189.0190  176.2600  137.7620 C   0  0  0  0  0  2  0  0  0  0  0  0
  187.5710  175.8240  137.9830 C   0  0  0  0  0  2  0  0  0  0  0  0
  185.9700  174.9210  136.2870 C   0  0  0  0  0  0  0  0  0  0  0  0
  186.7750  176.0030  136.7700 N   0  0  0  0  0  0  0  0  0  0  0  0
  185.9320  173.7130  136.9760 O   0  0  0  0  0  1  0  0  0  0  0  0
  185.2960  175.0490  135.2280 O   0  0  0  0  0  0  0  0  0  0  0  0
  186.8020  177.2820  136.0640 C   0  0  0  0  0  2  0  0  0  0  0  0
  186.2210  178.4260  136.8940 C   0  0  2  0  0  3  0  0  0  0  0  0
  187.1540  179.4530  137.0820 O   0  0  0  0  0  1  0  0  0  0  0  0
  186.0850  178.7210  139.2880 O   0  0  0  0  0  1  0  0  0  0  0  0
  185.6250  177.9470  138.2210 C   0  0  1  0  0  3  0  0  0  0  0  0
  184.1000  177.9450  138.1880 C   0  0  2  0  0  3  0  0  0  0  0  0
  183.6510  178.2150  136.8930 O   0  0  0  0  0  1  0  0  0  0  0  0
  183.5840  178.8900  139.0820 O   0  0  0  0  0  0  0  0  0  0  0  0
  183.4180  178.2160  141.8560 C   0  0  0  0  0  1  0  0  0  0  0  0
  182.6640  178.0300  140.2210 P   0  0  2  0  0  0  0  0  0  0  0  0
  182.6750  176.5690  139.8470 O   0  0  0  0  0  0  0  0  0  0  0  0
  180.9350  178.6410  140.2840 C   0  0  1  0  0  3  0  0  0  0  0  0
  180.0210  177.9310  141.2480 C   0  0  0  0  0  0  0  0  0  0  0  0
  179.7250  178.4500  142.3550 O   0  0  0  0  0  1  0  0  0  0  0  0
  179.4660  176.7090  140.8900 O   0  0  0  0  0  0  0  0  0  0  0  0
  180.8000  180.0490  140.2250 O   0  0  0  0  0  0  0  0  0  0  0  0
  180.4020  179.4890  137.5710 O   0  0  0  0  0  0  0  0  0  0  0  0
  180.3200  180.5340  138.6610 P   0  0  2  0  0  4  0  0  0  0  0  0
  181.3840  181.8060  138.2170 O   0  0  0  0  0  1  0  0  0  0  0  0
  180.1660  182.1790  138.2060 O   0  0  0  0  0  0  0  0  0  0  0  0
  1  6  1  0  0  0  0
  2  4  1  0  0  0  0
  2  1  2  0  0  0  0
  3 26  1  0  0  0  0
  4  5  2  0  0  0  0
  5 15  1  0  0  0  0
  5  3  1  0  0  0  0
  6  3  2  0  0  0  0
  6  7  1  0  0  0  0
  7  8  1  0  0  0  0
  8 11  1  0  0  0  0
  9 13  2  0  0  0  0
 10 11  2  0  0  0  0
 10  9  1  0  0  0  0
 11 12  1  0  0  0  0
 12 13  1  0  0  0  0
 15 14  1  6  0  0  0
 16 17  1  0  0  0  0
 16 15  1  0  0  0  0
 17 18  1  0  0  0  0
 19 18  1  0  0  0  0
 20 21  1  6  0  0  0
 20 19  1  0  0  0  0
 23 24  2  0  0  0  0
 24 20  1  0  0  0  0
 24 22  1  0  0  0  0
 25 24  1  0  0  0  0
 26 34  1  0  0  0  0
 27 34  1  0  0  0  0
 27 28  1  0  0  0  0
 28 31  1  0  0  0  0
 29 30  1  0  0  0  0
 30 32  1  0  0  0  0
 31 30  2  0  0  0  0
 33 29  2  0  0  0  0
 34 33  2  0  0  0  0
 35 36  1  0  0  0  0
 35  2  1  0  0  0  0
 37 38  1  0  0  0  0
 37 39  1  0  0  0  0
 38 36  1  0  0  0  0
 40 37  2  0  0  0  0
 41 38  1  0  0  0  0
 41 42  1  0  0  0  0
 42 43  1  1  0  0  0
 42 45  1  0  0  0  0
 45 44  1  1  0  0  0
 46 47  1  6  0  0  0
 46 45  1  0  0  0  0
 46 48  1  0  0  0  0
 48 50  1  0  0  0  0
 50 52  1  0  0  0  0
 50 49  1  1  0  0  0
 51 50  2  0  0  0  0
 52 56  1  1  0  0  0
 52 53  1  0  0  0  0
 53 54  1  0  0  0  0
 55 53  2  0  0  0  0
 58 57  2  6  0  0  0
 58 56  1  0  0  0  0
 60 59  1  0  0  0  0
 60 58  1  0  0  0  0
M  END
>  <MODEL>
8

>  <REMARK>
 VINA RESULT:      -4.8      4.593     10.994
  Name = 
  24 active torsions:
  status: ('A' for Active; 'I' for Inactive)
    1  A    between atoms: C_4  and  C_10
    2  A    between atoms: C_4  and  C_29
    3  A    between atoms: C_6  and  C_56
    4  A    between atoms: O_8  and  C_33
    5  A    between atoms: O_8  and  P_51
    6  A    between atoms: C_10  and  C_48
    7  A    between atoms: C_12  and  N_35
    8  A    between atoms: C_12  and  C_60
    9  A    between atoms: C_13  and  S_22
   10  A    between atoms: C_14  and  C_45
   11  A    between atoms: C_19  and  C_30
   12  A    between atoms: C_19  and  C_53
   13  A    between atoms: C_20  and  C_60
   14  A    between atoms: P_24  and  O_25
   15  A    between atoms: O_25  and  C_56
   16  A    between atoms: C_26  and  C_32
   17  A    between atoms: C_26  and  O_47
   18  A    between atoms: C_27  and  C_40
   19  A    between atoms: C_29  and  P_38
   20  A    between atoms: C_30  and  C_33
   21  A    between atoms: N_35  and  C_53
   22  A    between atoms: C_40  and  C_55
   23  A    between atoms: O_47  and  C_48
   24  A    between atoms: P_51  and  C_56
                            x       y       z     vdW  Elec       q    Type
                         _______ _______ _______ _____ _____    ______ ____

>  <TORSDO>
F 24

$$$$
=
 OpenBabel11032420063D

 60 62  0  0  1  0  0  0  0  0999 V2000
  188.7730  176.9020  139.7640 C   0  0  0  0  0  3  0  0  0  0  0  0
  189.5620  176.5440  138.6720 C   0  0  0  0  0  0  0  0  0  0  0  0
  190.7660  177.4830  141.0400 C   0  0  0  0  0  0  0  0  0  0  0  0
  190.9530  176.6680  138.7580 C   0  0  0  0  0  3  0  0  0  0  0  0
  191.5650  177.1200  139.9340 C   0  0  0  0  0  0  0  0  0  0  0  0
  189.3580  177.3670  140.9530 C   0  0  0  0  0  0  0  0  0  0  0  0
  188.5100  177.7700  142.0900 C   0  0  0  0  0  2  0  0  0  0  0  0
  187.9130  176.7270  143.1680 S   0  0  0  0  0  0  0  0  0  0  0  0
  186.0600  178.8020  145.8160 C   0  0  0  0  0  2  0  0  0  0  0  0
  187.0770  177.9960  145.4560 N   0  0  0  0  0  0  0  0  0  0  0  0
  186.8520  177.7430  144.1560 C   0  0  0  0  0  0  0  0  0  0  0  0
  185.7540  178.3450  143.6710 N   0  0  0  0  0  0  0  0  0  0  0  0
  185.2490  179.0170  144.7220 C   0  0  0  0  0  3  0  0  0  0  0  0
  193.5200  178.6400  140.2090 C   0  0  0  0  0  1  0  0  0  0  0  0
  193.0690  177.2020  140.0020 C   0  0  2  0  0  3  0  0  0  0  0  0
  193.6370  176.6850  138.8350 O   0  0  0  0  0  0  0  0  0  0  0  0
  194.2910  175.5180  139.2320 C   0  0  0  0  0  2  0  0  0  0  0  0
  194.3520  174.5310  138.0750 C   0  0  0  0  0  2  0  0  0  0  0  0
  195.3650  174.9510  137.0190 C   0  0  0  0  0  2  0  0  0  0  0  0
  196.4020  173.8630  136.7830 C   0  0  1  0  0  3  0  0  0  0  0  0
  196.2590  173.3500  135.5070 F   0  0  0  0  0  0  0  0  0  0  0  0
  198.1090  175.6130  138.2840 O   0  0  0  0  0  1  0  0  0  0  0  0
  199.1670  173.2950  137.2210 O   0  0  0  0  0  1  0  0  0  0  0  0
  198.0690  174.5540  136.9630 P   0  0  0  0  0  0  0  0  0  0  0  0
  198.4480  175.3020  135.7070 O   0  0  0  0  0  0  0  0  0  0  0  0
  191.4090  178.0230  142.2900 C   0  0  0  0  0  2  0  0  0  0  0  0
  192.0990  175.6510  143.1290 C   0  0  0  0  0  2  0  0  0  0  0  0
  191.6260  174.5820  144.1480 C   0  0  0  0  0  2  0  0  0  0  0  0
  191.3780  177.1650  145.8870 C   0  0  0  0  0  3  0  0  0  0  0  0
  191.9230  175.8760  146.3680 C   0  0  0  0  0  0  0  0  0  0  0  0
  192.0880  174.7800  145.5900 C   0  0  0  0  0  3  0  0  0  0  0  0
  192.3620  175.7950  147.7870 C   0  0  0  0  0  1  0  0  0  0  0  0
  191.3260  177.2930  144.6030 C   0  0  0  0  0  0  0  0  0  0  0  0
  191.4410  176.9820  143.3570 C   0  0  0  0  0  0  0  0  0  0  0  0
  188.8940  176.1520  137.3920 C   0  0  0  0  0  2  0  0  0  0  0  0
  187.5570  175.4440  137.6040 C   0  0  0  0  0  2  0  0  0  0  0  0
  186.7840  173.4400  136.3200 C   0  0  0  0  0  0  0  0  0  0  0  0
  187.0760  174.8420  136.3610 N   0  0  0  0  0  0  0  0  0  0  0  0
  186.9400  172.6590  137.4600 O   0  0  0  0  0  1  0  0  0  0  0  0
  186.3920  172.8990  135.2500 O   0  0  0  0  0  0  0  0  0  0  0  0
  186.8930  175.6740  135.1730 C   0  0  0  0  0  2  0  0  0  0  0  0
  185.7420  176.6690  135.3220 C   0  0  2  0  0  3  0  0  0  0  0  0
  186.1090  177.9500  134.8910 O   0  0  0  0  0  1  0  0  0  0  0  0
  185.3120  177.9450  137.3280 O   0  0  0  0  0  1  0  0  0  0  0  0
  185.1610  176.6890  136.7390 C   0  0  1  0  0  3  0  0  0  0  0  0
  183.6930  176.2700  136.7540 C   0  0  2  0  0  3  0  0  0  0  0  0
  183.3960  175.5350  135.6050 O   0  0  0  0  0  1  0  0  0  0  0  0
  182.8600  177.3920  136.8360 O   0  0  0  0  0  0  0  0  0  0  0  0
  182.2930  175.7690  139.1210 C   0  0  0  0  0  1  0  0  0  0  0  0
  181.6610  177.0250  137.9790 P   0  0  2  0  0  0  0  0  0  0  0  0
  180.4620  176.4600  137.2580 O   0  0  0  0  0  0  0  0  0  0  0  0
  181.1670  178.5110  138.9350 C   0  0  1  0  0  3  0  0  0  0  0  0
  181.1230  179.8040  138.1640 C   0  0  0  0  0  0  0  0  0  0  0  0
  180.6640  179.8400  136.9940 O   0  0  0  0  0  0  0  0  0  0  0  0
  181.5540  180.9770  138.7710 O   0  0  0  0  0  1  0  0  0  0  0  0
  180.1130  178.3010  139.8560 O   0  0  0  0  0  0  0  0  0  0  0  0
  182.0290  178.6910  141.7770 O   0  0  0  0  0  0  0  0  0  0  0  0
  180.5690  178.8330  141.4120 P   0  0  2  0  0  4  0  0  0  0  0  0
  179.6780  177.8670  142.5170 O   0  0  0  0  0  1  0  0  0  0  0  0
  179.4350  179.1090  142.6660 O   0  0  0  0  0  0  0  0  0  0  0  0
  1  6  1  0  0  0  0
  2  4  1  0  0  0  0
  2  1  2  0  0  0  0
  3 26  1  0  0  0  0
  4  5  2  0  0  0  0
  5 15  1  0  0  0  0
  5  3  1  0  0  0  0
  6  3  2  0  0  0  0
  6  7  1  0  0  0  0
  7  8  1  0  0  0  0
  8 11  1  0  0  0  0
 10  9  1  0  0  0  0
 11 10  2  0  0  0  0
 12 11  1  0  0  0  0
 12 13  2  0  0  0  0
 13  9  1  0  0  0  0
 15 14  1  6  0  0  0
 16 17  1  0  0  0  0
 16 15  1  0  0  0  0
 18 17  1  0  0  0  0
 19 18  1  0  0  0  0
 20 21  1  6  0  0  0
 20 24  1  0  0  0  0
 20 19  1  0  0  0  0
 24 23  1  0  0  0  0
 24 22  1  0  0  0  0
 25 24  2  0  0  0  0
 26 34  1  0  0  0  0
 27 34  1  0  0  0  0
 27 28  1  0  0  0  0
 28 31  1  0  0  0  0
 29 30  1  0  0  0  0
 30 32  1  0  0  0  0
 31 30  2  0  0  0  0
 33 29  2  0  0  0  0
 34 33  2  0  0  0  0
 35 36  1  0  0  0  0
 35  2  1  0  0  0  0
 37 38  1  0  0  0  0
 37 39  1  0  0  0  0
 38 36  1  0  0  0  0
 40 37  2  0  0  0  0
 41 42  1  0  0  0  0
 41 38  1  0  0  0  0
 42 43  1  1  0  0  0
 42 45  1  0  0  0  0
 45 46  1  0  0  0  0
 45 44  1  6  0  0  0
 46 47  1  6  0  0  0
 46 48  1  0  0  0  0
 48 50  1  0  0  0  0
 50 52  1  0  0  0  0
 50 49  1  1  0  0  0
 51 50  2  0  0  0  0
 52 53  1  6  0  0  0
 52 56  1  0  0  0  0
 53 55  1  0  0  0  0
 54 53  2  0  0  0  0
 56 58  1  0  0  0  0
 58 57  2  1  0  0  0
 58 60  1  0  0  0  0
 59 60  1  0  0  0  0
M  END
>  <MODEL>
9

>  <REMARK>
 VINA RESULT:      -4.7      4.611     11.196
  Name = 
  24 active torsions:
  status: ('A' for Active; 'I' for Inactive)
    1  A    between atoms: C_4  and  C_10
    2  A    between atoms: C_4  and  C_29
    3  A    between atoms: C_6  and  C_56
    4  A    between atoms: O_8  and  C_33
    5  A    between atoms: O_8  and  P_51
    6  A    between atoms: C_10  and  C_48
    7  A    between atoms: C_12  and  N_35
    8  A    between atoms: C_12  and  C_60
    9  A    between atoms: C_13  and  S_22
   10  A    between atoms: C_14  and  C_45
   11  A    between atoms: C_19  and  C_30
   12  A    between atoms: C_19  and  C_53
   13  A    between atoms: C_20  and  C_60
   14  A    between atoms: P_24  and  O_25
   15  A    between atoms: O_25  and  C_56
   16  A    between atoms: C_26  and  C_32
   17  A    between atoms: C_26  and  O_47
   18  A    between atoms: C_27  and  C_40
   19  A    between atoms: C_29  and  P_38
   20  A    between atoms: C_30  and  C_33
   21  A    between atoms: N_35  and  C_53
   22  A    between atoms: C_40  and  C_55
   23  A    between atoms: O_47  and  C_48
   24  A    between atoms: P_51  and  C_56
                            x       y       z     vdW  Elec       q    Type
                         _______ _______ _______ _____ _____    ______ ____

>  <TORSDO>
F 24

$$$$
