=
 OpenBabel11042410173D

 55 62  0  0  1  0  0  0  0  0999 V2000
  188.9670  177.2460  143.5050 C   0  0  2  0  0  3  0  0  0  0  0  0
  189.3360  178.0390  144.7500 C   0  0  0  0  0  2  0  0  0  0  0  0
  189.9390  177.1280  145.8040 C   0  0  0  0  0  2  0  0  0  0  0  0
  191.4520  177.1690  145.7220 C   0  0  1  0  0  3  0  0  0  0  0  0
  192.1160  174.9610  144.6120 O   0  0  0  0  0  0  0  0  0  0  0  0
  191.9900  176.5050  146.7910 O   0  0  0  0  0  0  0  0  0  0  0  0
  191.9170  175.9090  145.4180 C   0  0  0  0  0  0  0  0  0  0  0  0
  189.2730  178.0690  142.2700 C   0  0  0  0  0  2  0  0  0  0  0  0
  191.3810  177.0240  142.1820 O   0  0  0  0  0  0  0  0  0  0  0  0
  190.4500  177.5020  141.5510 C   0  0  0  0  0  0  0  0  0  0  0  0
  189.1530  176.3800  138.8550 C   0  0  2  0  0  3  0  0  0  0  0  0
  188.8780  178.0960  139.3880 S   0  0  0  0  0  0  0  0  0  0  0  0
  190.4370  176.1720  139.5130 N   0  0  0  0  0  2  0  0  0  0  0  0
  190.4670  177.5230  140.0510 C   0  0  2  0  0  3  0  0  0  0  0  0
  189.3200  176.3400  137.3370 C   0  0  0  0  0  2  0  0  0  0  0  0
  184.9910  173.7140  137.0490 C   0  0  0  0  0  0  0  0  0  0  0  0
  187.1150  175.0980  137.0730 C   0  0  0  0  0  0  0  0  0  0  0  0
  187.2110  172.5910  137.1380 C   0  0  0  0  0  2  0  0  0  0  0  0
  184.4490  172.5940  137.2720 O   0  0  0  0  0  0  0  0  0  0  0  0
  189.3140  173.8590  136.8710 C   0  0  0  0  0  2  0  0  0  0  0  0
  186.4920  176.1600  137.3490 O   0  0  0  0  0  0  0  0  0  0  0  0
  186.4290  173.8250  137.0520 N   0  0  0  0  0  0  0  0  0  0  0  0
  188.4950  172.7000  136.3300 C   0  0  0  0  0  2  0  0  0  0  0  0
  188.5710  175.1800  136.6740 C   0  0  2  0  0  3  0  0  0  0  0  0
  182.8230  174.8630  137.5540 C   0  0  2  0  0  3  0  0  0  0  0  0
  184.1160  174.8860  136.7210 C   0  0  2  0  0  3  0  0  0  0  0  0
  183.0280  176.1890  134.8450 C   0  0  0  0  0  2  0  0  0  0  0  0
  182.1210  176.7030  135.9710 C   0  0  0  0  0  2  0  0  0  0  0  0
  183.8260  174.9340  135.2210 C   0  0  0  0  0  2  0  0  0  0  0  0
  181.6440  175.5650  136.8680 C   0  0  0  0  0  2  0  0  0  0  0  0
  183.0580  175.4460  138.8010 O   0  0  0  0  0  1  0  0  0  0  0  0
  187.5500  176.9090  143.5160 N   0  0  0  0  0  2  0  0  0  0  0  0
  186.1460  177.8580  145.1680 C   0  0  0  0  0  3  0  0  0  0  0  0
  185.1770  178.8500  145.7190 C   0  0  0  0  0  2  0  0  0  0  0  0
  183.6340  178.9230  143.7530 C   0  0  0  0  0  0  0  0  0  0  0  0
  184.7410  179.2470  142.8170 C   0  0  0  0  0  3  0  0  0  0  0  0
  186.5310  177.8400  143.8920 C   0  0  0  0  0  0  0  0  0  0  0  0
  183.8440  178.7260  145.0610 C   0  0  0  0  0  3  0  0  0  0  0  0
  185.9950  178.7840  142.8780 C   0  0  0  0  0  3  0  0  0  0  0  0
  181.1840  178.4870  144.0600 C   0  0  0  0  0  3  0  0  0  0  0  0
  179.8840  178.4460  143.5510 C   0  0  0  0  0  3  0  0  0  0  0  0
  179.6530  178.7520  142.2480 N   0  0  0  0  0  0  0  0  0  0  0  0
  181.9770  179.1580  141.8840 C   0  0  0  0  0  3  0  0  0  0  0  0
  180.6680  179.1020  141.4030 C   0  0  0  0  0  0  0  0  0  0  0  0
  182.2500  178.8490  143.2240 C   0  0  0  0  0  0  0  0  0  0  0  0
  181.5190  180.2810  139.4060 C   0  0  2  0  0  3  0  0  0  0  0  0
  180.4220  179.4320  139.9580 C   0  0  2  0  0  3  0  0  0  0  0  0
  180.1340  180.9170  139.7500 C   0  0  2  0  0  0  0  0  0  0  0  0
  179.1940  180.8450  138.6800 O   0  0  0  0  0  0  0  0  0  0  0  0
  181.7470  179.7510  137.9890 C   0  0  0  0  0  1  0  0  0  0  0  0
  179.7970  182.0800  138.8220 C   0  0  2  0  0  3  0  0  0  0  0  0
  180.6930  182.3780  137.6230 C   0  0  0  0  0  2  0  0  0  0  0  0
  180.6140  183.8220  137.2760 C   0  0  0  0  0  0  0  0  0  0  0  0
  179.6320  184.5080  137.6620 O   0  0  0  0  0  1  0  0  0  0  0  0
  181.6420  184.4210  136.5580 O   0  0  0  0  0  0  0  0  0  0  0  0
  1  8  1  6  0  0  0
  1 32  1  0  0  0  0
  1  2  1  0  0  0  0
  2  3  1  0  0  0  0
  4  3  1  1  0  0  0
  4  6  1  0  0  0  0
  5  7  2  0  0  0  0
  7  4  1  0  0  0  0
  7  6  1  0  0  0  0
 10  9  2  0  0  0  0
 10  8  1  0  0  0  0
 11 15  1  6  0  0  0
 11 12  1  0  0  0  0
 11 13  1  0  0  0  0
 12 14  1  0  0  0  0
 13 14  1  0  0  0  0
 14 10  1  1  0  0  0
 16 22  1  0  0  0  0
 16 19  2  0  0  0  0
 17 21  2  0  0  0  0
 22 17  1  0  0  0  0
 22 18  1  0  0  0  0
 23 20  1  0  0  0  0
 23 18  1  0  0  0  0
 24 20  1  0  0  0  0
 24 17  1  0  0  0  0
 24 15  1  1  0  0  0
 25 31  1  1  0  0  0
 26 16  1  6  0  0  0
 26 25  1  0  0  0  0
 27 29  1  0  0  0  0
 27 28  1  0  0  0  0
 28 30  1  0  0  0  0
 29 26  1  0  0  0  0
 30 25  1  0  0  0  0
 32 37  1  0  0  0  0
 33 34  1  0  0  0  0
 35 38  2  0  0  0  0
 36 39  2  0  0  0  0
 36 35  1  0  0  0  0
 37 33  2  0  0  0  0
 38 34  1  0  0  0  0
 39 37  1  0  0  0  0
 41 40  1  0  0  0  0
 42 41  2  0  0  0  0
 43 45  1  0  0  0  0
 44 43  2  0  0  0  0
 44 42  1  0  0  0  0
 45 35  1  0  0  0  0
 45 40  2  0  0  0  0
 46 50  1  6  0  0  0
 46 48  1  0  0  0  0
 46 47  1  0  0  0  0
 47 44  1  1  0  0  0
 48 49  1  6  0  0  0
 48 47  1  0  0  0  0
 49 51  1  0  0  0  0
 51 52  1  6  0  0  0
 51 48  1  0  0  0  0
 53 52  1  0  0  0  0
 53 54  1  0  0  0  0
 55 53  2  0  0  0  0
M  END
>  <MODEL>
1

>  <REMARK>
 VINA RESULT:      -9.2      0.000      0.000
  Name = 
  15 active torsions:
  status: ('A' for Active; 'I' for Inactive)
    1  A    between atoms: C_2  and  C_27
    2  A    between atoms: C_2  and  C_55
    3  A    between atoms: C_6  and  C_20
    4  A    between atoms: C_10  and  C_14
    5  A    between atoms: C_12  and  C_55
    6  A    between atoms: C_13  and  C_15
    7  A    between atoms: C_14  and  C_54
    8  A    between atoms: C_20  and  C_53
    9  A    between atoms: C_23  and  C_27
   10  A    between atoms: C_23  and  C_34
   11  A    between atoms: C_27  and  N_50
   12  A    between atoms: C_30  and  C_45
   13  A    between atoms: C_33  and  C_46
   14  A    between atoms: C_34  and  C_49
   15  A    between atoms: C_37  and  N_50
                            x       y       z     vdW  Elec       q    Type
                         _______ _______ _______ _____ _____    ______ ____

>  <TORSDO>
F 15

$$$$
=
 OpenBabel11042410173D

 55 62  0  0  1  0  0  0  0  0999 V2000
  188.7330  177.5650  143.4210 C   0  0  2  0  0  3  0  0  0  0  0  0
  190.0280  177.8580  144.1650 C   0  0  0  0  0  2  0  0  0  0  0  0
  190.3090  176.7790  145.1950 C   0  0  0  0  0  2  0  0  0  0  0  0
  190.3650  177.3870  146.5820 C   0  0  1  0  0  3  0  0  0  0  0  0
  192.3730  176.2760  147.7130 O   0  0  0  0  0  0  0  0  0  0  0  0
  189.7270  176.5660  147.4720 O   0  0  0  0  0  0  0  0  0  0  0  0
  191.2190  176.6410  147.3630 C   0  0  0  0  0  0  0  0  0  0  0  0
  187.7740  176.8350  144.3400 C   0  0  0  0  0  2  0  0  0  0  0  0
  186.3190  177.7770  145.9340 O   0  0  0  0  0  0  0  0  0  0  0  0
  186.6740  177.7480  144.7650 C   0  0  0  0  0  0  0  0  0  0  0  0
  184.1040  178.2410  142.9320 C   0  0  2  0  0  3  0  0  0  0  0  0
  184.4540  179.3020  144.3650 S   0  0  0  0  0  0  0  0  0  0  0  0
  185.4740  177.8310  142.6490 N   0  0  0  0  0  2  0  0  0  0  0  0
  186.0180  178.6250  143.7410 C   0  0  2  0  0  3  0  0  0  0  0  0
  183.5580  179.0950  141.7890 C   0  0  0  0  0  2  0  0  0  0  0  0
  183.5150  177.3570  137.0250 C   0  0  0  0  0  0  0  0  0  0  0  0
  183.5810  178.0950  139.4490 C   0  0  0  0  0  0  0  0  0  0  0  0
  181.5010  178.3770  138.0740 C   0  0  0  0  0  2  0  0  0  0  0  0
  182.9340  177.4360  135.9040 O   0  0  0  0  0  0  0  0  0  0  0  0
  181.4030  178.8480  140.4970 C   0  0  0  0  0  2  0  0  0  0  0  0
  184.8400  178.0300  139.4970 O   0  0  0  0  0  0  0  0  0  0  0  0
  182.8810  177.9050  138.1980 N   0  0  0  0  0  0  0  0  0  0  0  0
  180.7190  178.1210  139.3520 C   0  0  0  0  0  2  0  0  0  0  0  0
  182.8030  178.2830  140.7310 C   0  0  2  0  0  3  0  0  0  0  0  0
  185.8320  177.1860  136.0880 C   0  0  2  0  0  3  0  0  0  0  0  0
  184.8230  176.6300  137.1090 C   0  0  2  0  0  3  0  0  0  0  0  0
  185.9210  174.3520  137.1370 C   0  0  0  0  0  2  0  0  0  0  0  0
  187.1740  175.1500  136.7530 C   0  0  0  0  0  2  0  0  0  0  0  0
  184.6130  175.1260  136.9390 C   0  0  0  0  0  2  0  0  0  0  0  0
  186.8780  176.1560  135.6430 C   0  0  0  0  0  2  0  0  0  0  0  0
  186.4710  178.3060  136.6240 O   0  0  0  0  0  1  0  0  0  0  0  0
  188.9940  176.7400  142.2500 N   0  0  0  0  0  2  0  0  0  0  0  0
  188.6810  177.9380  140.2330 C   0  0  0  0  0  3  0  0  0  0  0  0
  189.1150  178.6350  138.9870 C   0  0  0  0  0  2  0  0  0  0  0  0
  190.7620  176.9200  138.2130 C   0  0  0  0  0  0  0  0  0  0  0  0
  191.4970  176.9530  139.5040 C   0  0  0  0  0  3  0  0  0  0  0  0
  189.5160  177.2670  141.0260 C   0  0  0  0  0  0  0  0  0  0  0  0
  189.6750  177.6700  137.9960 C   0  0  0  0  0  3  0  0  0  0  0  0
  190.9600  177.1080  140.7200 C   0  0  0  0  0  3  0  0  0  0  0  0
  190.6110  175.9940  135.8880 C   0  0  0  0  0  3  0  0  0  0  0  0
  191.1200  175.1910  134.8650 C   0  0  0  0  0  3  0  0  0  0  0  0
  192.2490  174.4640  135.0670 N   0  0  0  0  0  0  0  0  0  0  0  0
  192.4360  175.2890  137.2990 C   0  0  0  0  0  3  0  0  0  0  0  0
  192.9140  174.4910  136.2590 C   0  0  0  0  0  0  0  0  0  0  0  0
  191.2720  176.0530  137.1240 C   0  0  0  0  0  0  0  0  0  0  0  0
  194.6500  173.8440  137.8950 C   0  0  2  0  0  3  0  0  0  0  0  0
  194.1580  173.6820  136.4940 C   0  0  2  0  0  3  0  0  0  0  0  0
  195.3840  174.5660  136.7180 C   0  0  2  0  0  0  0  0  0  0  0  0
  196.3900  173.7660  136.1010 O   0  0  0  0  0  0  0  0  0  0  0  0
  195.1260  172.4500  138.3050 C   0  0  0  0  0  1  0  0  0  0  0  0
  196.8790  174.7090  136.9840 C   0  0  2  0  0  3  0  0  0  0  0  0
  197.5020  174.0270  138.2000 C   0  0  0  0  0  2  0  0  0  0  0  0
  197.9660  175.0520  139.1740 C   0  0  0  0  0  0  0  0  0  0  0  0
  199.1680  175.4240  139.1690 O   0  0  0  0  0  0  0  0  0  0  0  0
  197.0640  175.6240  140.0630 O   0  0  0  0  0  1  0  0  0  0  0  0
  1  2  1  1  0  0  0
  1  8  1  0  0  0  0
  2  3  1  0  0  0  0
  4  3  1  6  0  0  0
  4  7  1  0  0  0  0
  4  6  1  0  0  0  0
  7  6  1  0  0  0  0
  7  5  2  0  0  0  0
  8 10  1  0  0  0  0
 10  9  2  0  0  0  0
 11 15  1  6  0  0  0
 11 12  1  0  0  0  0
 13 11  1  0  0  0  0
 13 14  1  0  0  0  0
 14 12  1  0  0  0  0
 14 10  1  1  0  0  0
 16 22  1  0  0  0  0
 17 21  2  0  0  0  0
 17 24  1  0  0  0  0
 18 22  1  0  0  0  0
 18 23  1  0  0  0  0
 19 16  2  0  0  0  0
 20 24  1  0  0  0  0
 22 17  1  0  0  0  0
 23 20  1  0  0  0  0
 24 15  1  1  0  0  0
 25 31  1  1  0  0  0
 25 26  1  0  0  0  0
 26 16  1  6  0  0  0
 28 27  1  0  0  0  0
 29 26  1  0  0  0  0
 29 27  1  0  0  0  0
 30 25  1  0  0  0  0
 30 28  1  0  0  0  0
 32  1  1  0  0  0  0
 33 37  2  0  0  0  0
 34 33  1  0  0  0  0
 35 36  1  0  0  0  0
 36 39  2  0  0  0  0
 37 32  1  0  0  0  0
 38 35  2  0  0  0  0
 38 34  1  0  0  0  0
 39 37  1  0  0  0  0
 40 45  1  0  0  0  0
 41 42  1  0  0  0  0
 41 40  2  0  0  0  0
 42 44  2  0  0  0  0
 44 43  1  0  0  0  0
 45 43  2  0  0  0  0
 45 35  1  0  0  0  0
 46 50  1  6  0  0  0
 47 44  1  1  0  0  0
 47 48  1  0  0  0  0
 47 46  1  0  0  0  0
 48 49  1  6  0  0  0
 48 51  1  0  0  0  0
 48 46  1  0  0  0  0
 49 51  1  0  0  0  0
 51 52  1  1  0  0  0
 52 53  1  0  0  0  0
 53 55  1  0  0  0  0
 54 53  2  0  0  0  0
M  END
>  <MODEL>
2

>  <REMARK>
 VINA RESULT:      -8.8      3.773     10.025
  Name = 
  15 active torsions:
  status: ('A' for Active; 'I' for Inactive)
    1  A    between atoms: C_2  and  C_27
    2  A    between atoms: C_2  and  C_55
    3  A    between atoms: C_6  and  C_20
    4  A    between atoms: C_10  and  C_14
    5  A    between atoms: C_12  and  C_55
    6  A    between atoms: C_13  and  C_15
    7  A    between atoms: C_14  and  C_54
    8  A    between atoms: C_20  and  C_53
    9  A    between atoms: C_23  and  C_27
   10  A    between atoms: C_23  and  C_34
   11  A    between atoms: C_27  and  N_50
   12  A    between atoms: C_30  and  C_45
   13  A    between atoms: C_33  and  C_46
   14  A    between atoms: C_34  and  C_49
   15  A    between atoms: C_37  and  N_50
                            x       y       z     vdW  Elec       q    Type
                         _______ _______ _______ _____ _____    ______ ____

>  <TORSDO>
F 15

$$$$
=
 OpenBabel11042410173D

 55 62  0  0  1  0  0  0  0  0999 V2000
  188.8740  177.0400  143.6450 C   0  0  2  0  0  3  0  0  0  0  0  0
  189.2900  177.8800  144.8430 C   0  0  0  0  0  2  0  0  0  0  0  0
  190.7820  177.7530  145.0920 C   0  0  0  0  0  2  0  0  0  0  0  0
  191.0530  176.6140  146.0540 C   0  0  1  0  0  3  0  0  0  0  0  0
  189.1500  176.7180  147.7610 O   0  0  0  0  0  0  0  0  0  0  0  0
  191.7250  177.0850  147.1480 O   0  0  0  0  0  0  0  0  0  0  0  0
  190.2610  176.7720  147.1690 C   0  0  0  0  0  0  0  0  0  0  0  0
  189.1810  177.7930  142.3650 C   0  0  0  0  0  2  0  0  0  0  0  0
  190.5230  175.9210  141.8750 O   0  0  0  0  0  0  0  0  0  0  0  0
  190.0090  176.9480  141.4570 C   0  0  0  0  0  0  0  0  0  0  0  0
  189.2120  176.4570  138.4030 C   0  0  2  0  0  3  0  0  0  0  0  0
  188.6240  177.9220  139.3040 S   0  0  0  0  0  0  0  0  0  0  0  0
  190.4290  176.2270  139.1710 N   0  0  0  0  0  2  0  0  0  0  0  0
  190.1950  177.3760  140.0320 C   0  0  2  0  0  3  0  0  0  0  0  0
  189.5560  176.8490  136.9670 C   0  0  0  0  0  2  0  0  0  0  0  0
  187.1810  172.5030  135.8730 C   0  0  0  0  0  0  0  0  0  0  0  0
  188.2770  174.7430  136.3300 C   0  0  0  0  0  0  0  0  0  0  0  0
  189.6380  172.7750  135.5740 C   0  0  0  0  0  2  0  0  0  0  0  0
  187.3320  171.2560  135.7240 O   0  0  0  0  0  0  0  0  0  0  0  0
  190.7210  174.9900  135.7180 C   0  0  0  0  0  2  0  0  0  0  0  0
  187.2640  175.1810  136.9420 O   0  0  0  0  0  0  0  0  0  0  0  0
  188.3380  173.3630  135.9010 N   0  0  0  0  0  0  0  0  0  0  0  0
  190.5190  173.7700  134.8360 C   0  0  0  0  0  2  0  0  0  0  0  0
  189.3910  175.6980  135.9680 C   0  0  2  0  0  3  0  0  0  0  0  0
  184.9840  172.3760  137.0710 C   0  0  2  0  0  3  0  0  0  0  0  0
  185.7910  173.0570  135.9520 C   0  0  2  0  0  3  0  0  0  0  0  0
  183.7110  173.6090  134.6220 C   0  0  0  0  0  2  0  0  0  0  0  0
  183.0420  173.5880  136.0030 C   0  0  0  0  0  2  0  0  0  0  0  0
  185.0930  172.9440  134.5970 C   0  0  0  0  0  2  0  0  0  0  0  0
  183.4720  172.3700  136.8150 C   0  0  0  0  0  2  0  0  0  0  0  0
  185.2540  173.0020  138.2900 O   0  0  0  0  0  1  0  0  0  0  0  0
  187.4470  176.7480  143.6970 N   0  0  0  0  0  2  0  0  0  0  0  0
  186.1040  177.9970  145.1920 C   0  0  0  0  0  3  0  0  0  0  0  0
  185.1680  179.0900  145.5870 C   0  0  0  0  0  2  0  0  0  0  0  0
  183.5750  178.8580  143.6730 C   0  0  0  0  0  0  0  0  0  0  0  0
  184.6620  178.9920  142.6700 C   0  0  0  0  0  3  0  0  0  0  0  0
  186.4550  177.7520  143.9300 C   0  0  0  0  0  0  0  0  0  0  0  0
  183.8150  178.8840  144.9900 C   0  0  0  0  0  3  0  0  0  0  0  0
  185.9090  178.5190  142.7820 C   0  0  0  0  0  3  0  0  0  0  0  0
  181.1110  178.6920  144.1070 C   0  0  0  0  0  3  0  0  0  0  0  0
  179.7990  178.5900  143.6400 C   0  0  0  0  0  3  0  0  0  0  0  0
  179.5550  178.5190  142.3050 N   0  0  0  0  0  0  0  0  0  0  0  0
  181.8900  178.6480  141.8260 C   0  0  0  0  0  3  0  0  0  0  0  0
  180.5690  178.5400  141.3900 C   0  0  0  0  0  0  0  0  0  0  0  0
  182.1770  178.7240  143.1970 C   0  0  0  0  0  0  0  0  0  0  0  0
  180.9650  177.2480  139.3220 C   0  0  2  0  0  3  0  0  0  0  0  0
  180.3080  178.4520  139.9130 C   0  0  2  0  0  3  0  0  0  0  0  0
  181.5780  178.6680  139.0930 C   0  0  2  0  0  0  0  0  0  0  0  0
  181.0360  179.3430  137.9600 O   0  0  0  0  0  0  0  0  0  0  0  0
  179.9580  176.7150  138.3020 C   0  0  0  0  0  1  0  0  0  0  0  0
  182.2750  178.7730  137.7390 C   0  0  2  0  0  3  0  0  0  0  0  0
  182.1640  177.6280  136.7370 C   0  0  0  0  0  2  0  0  0  0  0  0
  183.4930  177.3560  136.1270 C   0  0  0  0  0  0  0  0  0  0  0  0
  184.5270  177.3730  136.8430 O   0  0  0  0  0  1  0  0  0  0  0  0
  183.5860  177.0450  134.7760 O   0  0  0  0  0  0  0  0  0  0  0  0
  1  8  1  6  0  0  0
  1 32  1  0  0  0  0
  1  2  1  0  0  0  0
  2  3  1  0  0  0  0
  4  3  1  6  0  0  0
  4  6  1  0  0  0  0
  4  7  1  0  0  0  0
  6  7  1  0  0  0  0
  7  5  2  0  0  0  0
 10  9  2  0  0  0  0
 10  8  1  0  0  0  0
 11 15  1  6  0  0  0
 11 13  1  0  0  0  0
 11 12  1  0  0  0  0
 12 14  1  0  0  0  0
 13 14  1  0  0  0  0
 14 10  1  1  0  0  0
 16 22  1  0  0  0  0
 17 21  2  0  0  0  0
 18 22  1  0  0  0  0
 19 16  2  0  0  0  0
 20 24  1  0  0  0  0
 22 17  1  0  0  0  0
 23 18  1  0  0  0  0
 23 20  1  0  0  0  0
 24 17  1  0  0  0  0
 24 15  1  1  0  0  0
 25 31  1  1  0  0  0
 26 16  1  6  0  0  0
 26 25  1  0  0  0  0
 27 28  1  0  0  0  0
 28 30  1  0  0  0  0
 29 27  1  0  0  0  0
 29 26  1  0  0  0  0
 30 25  1  0  0  0  0
 32 37  1  0  0  0  0
 33 34  1  0  0  0  0
 35 38  2  0  0  0  0
 36 39  2  0  0  0  0
 36 35  1  0  0  0  0
 37 33  2  0  0  0  0
 38 34  1  0  0  0  0
 39 37  1  0  0  0  0
 41 40  1  0  0  0  0
 42 41  2  0  0  0  0
 43 45  1  0  0  0  0
 44 43  2  0  0  0  0
 44 42  1  0  0  0  0
 45 35  1  0  0  0  0
 45 40  2  0  0  0  0
 46 50  1  6  0  0  0
 46 47  1  0  0  0  0
 47 44  1  1  0  0  0
 48 49  1  6  0  0  0
 48 46  1  0  0  0  0
 48 47  1  0  0  0  0
 51 52  1  6  0  0  0
 51 49  1  0  0  0  0
 51 48  1  0  0  0  0
 53 52  1  0  0  0  0
 53 54  1  0  0  0  0
 55 53  2  0  0  0  0
M  END
>  <MODEL>
3

>  <REMARK>
 VINA RESULT:      -8.7      1.907      2.770
  Name = 
  15 active torsions:
  status: ('A' for Active; 'I' for Inactive)
    1  A    between atoms: C_2  and  C_27
    2  A    between atoms: C_2  and  C_55
    3  A    between atoms: C_6  and  C_20
    4  A    between atoms: C_10  and  C_14
    5  A    between atoms: C_12  and  C_55
    6  A    between atoms: C_13  and  C_15
    7  A    between atoms: C_14  and  C_54
    8  A    between atoms: C_20  and  C_53
    9  A    between atoms: C_23  and  C_27
   10  A    between atoms: C_23  and  C_34
   11  A    between atoms: C_27  and  N_50
   12  A    between atoms: C_30  and  C_45
   13  A    between atoms: C_33  and  C_46
   14  A    between atoms: C_34  and  C_49
   15  A    between atoms: C_37  and  N_50
                            x       y       z     vdW  Elec       q    Type
                         _______ _______ _______ _____ _____    ______ ____

>  <TORSDO>
F 15

$$$$
=
 OpenBabel11042410173D

 55 62  0  0  1  0  0  0  0  0999 V2000
  181.4710  179.2940  138.2770 C   0  0  2  0  0  3  0  0  0  0  0  0
  180.2930  180.0220  137.6470 C   0  0  0  0  0  2  0  0  0  0  0  0
  180.7760  181.1710  136.7810 C   0  0  0  0  0  2  0  0  0  0  0  0
  179.9130  182.3950  137.0120 C   0  0  1  0  0  3  0  0  0  0  0  0
  181.4930  184.3870  136.7220 O   0  0  0  0  0  0  0  0  0  0  0  0
  180.0360  182.8060  138.3110 O   0  0  0  0  0  0  0  0  0  0  0  0
  180.7280  183.4920  137.1740 C   0  0  0  0  0  0  0  0  0  0  0  0
  182.3540  180.2890  139.0030 C   0  0  0  0  0  2  0  0  0  0  0  0
  184.6630  179.9710  138.6630 O   0  0  0  0  0  0  0  0  0  0  0  0
  183.6750  179.6720  139.3170 C   0  0  0  0  0  0  0  0  0  0  0  0
  184.1510  179.2450  142.4470 C   0  0  2  0  0  3  0  0  0  0  0  0
  182.5060  179.0180  141.7070 S   0  0  0  0  0  0  0  0  0  0  0  0
  184.9440  178.9460  141.2630 N   0  0  0  0  0  2  0  0  0  0  0  0
  183.7690  178.6880  140.4450 C   0  0  2  0  0  3  0  0  0  0  0  0
  184.3750  178.1810  143.5210 C   0  0  0  0  0  2  0  0  0  0  0  0
  188.8770  177.4330  145.7330 C   0  0  0  0  0  0  0  0  0  0  0  0
  186.6850  177.9180  144.5550 C   0  0  0  0  0  0  0  0  0  0  0  0
  186.7970  177.7780  147.0580 C   0  0  0  0  0  2  0  0  0  0  0  0
  189.4540  177.0550  146.7940 O   0  0  0  0  0  0  0  0  0  0  0  0
  184.7000  178.5380  145.9990 C   0  0  0  0  0  2  0  0  0  0  0  0
  187.1380  177.5560  143.4350 O   0  0  0  0  0  0  0  0  0  0  0  0
  187.4690  177.7420  145.7590 N   0  0  0  0  0  0  0  0  0  0  0  0
  185.7150  178.8450  147.0860 C   0  0  0  0  0  2  0  0  0  0  0  0
  185.3490  178.6220  144.6190 C   0  0  2  0  0  3  0  0  0  0  0  0
  190.3330  176.2820  144.0500 C   0  0  2  0  0  3  0  0  0  0  0  0
  189.6960  177.6120  144.4910 C   0  0  2  0  0  3  0  0  0  0  0  0
  191.5190  178.9850  143.4000 C   0  0  0  0  0  2  0  0  0  0  0  0
  191.6320  177.7680  142.4730 C   0  0  0  0  0  2  0  0  0  0  0  0
  190.7450  178.7040  144.6940 C   0  0  0  0  0  2  0  0  0  0  0  0
  191.6360  176.4620  143.2630 C   0  0  0  0  0  2  0  0  0  0  0  0
  189.4160  175.5550  143.2870 O   0  0  0  0  0  1  0  0  0  0  0  0
  182.2560  178.6140  137.2560 N   0  0  0  0  0  2  0  0  0  0  0  0
  181.6360  176.4300  137.9240 C   0  0  0  0  0  3  0  0  0  0  0  0
  181.3320  174.9830  137.7210 C   0  0  0  0  0  2  0  0  0  0  0  0
  183.2920  174.4430  136.2640 C   0  0  0  0  0  0  0  0  0  0  0  0
  182.9540  175.5240  135.3030 C   0  0  0  0  0  3  0  0  0  0  0  0
  182.1160  177.2200  136.9640 C   0  0  0  0  0  0  0  0  0  0  0  0
  182.5640  174.2190  137.3650 C   0  0  0  0  0  3  0  0  0  0  0  0
  182.4410  176.7230  135.6030 C   0  0  0  0  0  3  0  0  0  0  0  0
  184.2800  172.1880  135.7870 C   0  0  0  0  0  3  0  0  0  0  0  0
  185.3810  171.3830  135.4900 C   0  0  0  0  0  3  0  0  0  0  0  0
  186.6190  171.9320  135.3890 N   0  0  0  0  0  0  0  0  0  0  0  0
  185.7450  174.1020  135.8640 C   0  0  0  0  0  3  0  0  0  0  0  0
  186.8270  173.2690  135.5740 C   0  0  0  0  0  0  0  0  0  0  0  0
  184.4530  173.5670  135.9750 C   0  0  0  0  0  0  0  0  0  0  0  0
  188.8400  173.9810  136.8170 C   0  0  2  0  0  3  0  0  0  0  0  0
  188.1940  173.8830  135.4740 C   0  0  2  0  0  3  0  0  0  0  0  0
  188.2550  175.2600  136.1330 C   0  0  2  0  0  0  0  0  0  0  0  0
  189.1810  175.9140  135.2680 O   0  0  0  0  0  0  0  0  0  0  0  0
  190.3080  173.6290  136.5710 C   0  0  0  0  0  1  0  0  0  0  0  0
  189.0420  176.5130  136.5060 C   0  0  2  0  0  3  0  0  0  0  0  0
  190.3340  176.3870  137.3070 C   0  0  0  0  0  2  0  0  0  0  0  0
  190.1340  176.9190  138.6820 C   0  0  0  0  0  0  0  0  0  0  0  0
  189.6960  178.0870  138.8450 O   0  0  0  0  0  0  0  0  0  0  0  0
  190.3940  176.1120  139.7830 O   0  0  0  0  0  1  0  0  0  0  0  0
  1  2  1  6  0  0  0
  1  8  1  0  0  0  0
  3  2  1  0  0  0  0
  4  3  1  1  0  0  0
  4  7  1  0  0  0  0
  4  6  1  0  0  0  0
  5  7  2  0  0  0  0
  7  6  1  0  0  0  0
  8 10  1  0  0  0  0
  9 10  2  0  0  0  0
 11 15  1  1  0  0  0
 12 11  1  0  0  0  0
 13 11  1  0  0  0  0
 14 10  1  6  0  0  0
 14 13  1  0  0  0  0
 14 12  1  0  0  0  0
 16 22  1  0  0  0  0
 16 19  2  0  0  0  0
 17 24  1  0  0  0  0
 17 22  1  0  0  0  0
 18 23  1  0  0  0  0
 20 23  1  0  0  0  0
 21 17  2  0  0  0  0
 22 18  1  0  0  0  0
 24 15  1  6  0  0  0
 24 20  1  0  0  0  0
 25 31  1  6  0  0  0
 25 26  1  0  0  0  0
 26 29  1  0  0  0  0
 26 16  1  1  0  0  0
 27 29  1  0  0  0  0
 28 30  1  0  0  0  0
 28 27  1  0  0  0  0
 30 25  1  0  0  0  0
 32  1  1  0  0  0  0
 34 33  1  0  0  0  0
 35 38  2  0  0  0  0
 36 39  2  0  0  0  0
 36 35  1  0  0  0  0
 37 32  1  0  0  0  0
 37 33  2  0  0  0  0
 38 34  1  0  0  0  0
 39 37  1  0  0  0  0
 40 45  1  0  0  0  0
 41 40  2  0  0  0  0
 42 41  1  0  0  0  0
 42 44  2  0  0  0  0
 43 45  2  0  0  0  0
 44 43  1  0  0  0  0
 45 35  1  0  0  0  0
 46 50  1  6  0  0  0
 47 44  1  1  0  0  0
 47 48  1  0  0  0  0
 47 46  1  0  0  0  0
 48 49  1  6  0  0  0
 48 51  1  0  0  0  0
 48 46  1  0  0  0  0
 49 51  1  0  0  0  0
 51 52  1  1  0  0  0
 52 53  1  0  0  0  0
 53 54  2  0  0  0  0
 53 55  1  0  0  0  0
M  END
>  <MODEL>
4

>  <REMARK>
 VINA RESULT:      -8.2      2.500     10.582
  Name = 
  15 active torsions:
  status: ('A' for Active; 'I' for Inactive)
    1  A    between atoms: C_2  and  C_27
    2  A    between atoms: C_2  and  C_55
    3  A    between atoms: C_6  and  C_20
    4  A    between atoms: C_10  and  C_14
    5  A    between atoms: C_12  and  C_55
    6  A    between atoms: C_13  and  C_15
    7  A    between atoms: C_14  and  C_54
    8  A    between atoms: C_20  and  C_53
    9  A    between atoms: C_23  and  C_27
   10  A    between atoms: C_23  and  C_34
   11  A    between atoms: C_27  and  N_50
   12  A    between atoms: C_30  and  C_45
   13  A    between atoms: C_33  and  C_46
   14  A    between atoms: C_34  and  C_49
   15  A    between atoms: C_37  and  N_50
                            x       y       z     vdW  Elec       q    Type
                         _______ _______ _______ _____ _____    ______ ____

>  <TORSDO>
F 15

$$$$
=
 OpenBabel11042410173D

 55 62  0  0  1  0  0  0  0  0999 V2000
  181.4060  179.7740  137.2600 C   0  0  2  0  0  3  0  0  0  0  0  0
  180.1750  180.6400  137.0380 C   0  0  0  0  0  2  0  0  0  0  0  0
  180.5070  181.8230  136.1470 C   0  0  0  0  0  2  0  0  0  0  0  0
  179.9130  183.0910  136.7250 C   0  0  1  0  0  3  0  0  0  0  0  0
  181.9150  184.6240  137.1610 O   0  0  0  0  0  0  0  0  0  0  0  0
  179.9690  183.0450  138.0910 O   0  0  0  0  0  0  0  0  0  0  0  0
  180.9240  183.8520  137.2670 C   0  0  0  0  0  0  0  0  0  0  0  0
  180.9900  178.3220  137.3820 C   0  0  0  0  0  2  0  0  0  0  0  0
  181.6860  178.1030  135.1430 O   0  0  0  0  0  0  0  0  0  0  0  0
  181.4870  177.5430  136.2110 C   0  0  0  0  0  0  0  0  0  0  0  0
  183.5800  175.2750  137.0360 C   0  0  2  0  0  3  0  0  0  0  0  0
  182.1490  175.6610  138.0880 S   0  0  0  0  0  0  0  0  0  0  0  0
  183.0110  175.7000  135.7630 N   0  0  0  0  0  2  0  0  0  0  0  0
  181.7420  176.0740  136.3680 C   0  0  2  0  0  3  0  0  0  0  0  0
  183.8180  173.7660  137.0360 C   0  0  0  0  0  2  0  0  0  0  0  0
  188.5880  175.3440  136.3440 C   0  0  0  0  0  0  0  0  0  0  0  0
  186.2250  174.5660  136.8330 C   0  0  0  0  0  0  0  0  0  0  0  0
  187.7540  173.2030  135.3840 C   0  0  0  0  0  2  0  0  0  0  0  0
  189.6100  175.2420  135.6060 O   0  0  0  0  0  0  0  0  0  0  0  0
  185.5770  172.2460  136.0520 C   0  0  0  0  0  2  0  0  0  0  0  0
  185.8780  175.6990  137.2660 O   0  0  0  0  0  0  0  0  0  0  0  0
  187.5260  174.3750  136.2300 N   0  0  0  0  0  0  0  0  0  0  0  0
  187.0680  171.9730  135.9560 C   0  0  0  0  0  2  0  0  0  0  0  0
  185.3020  173.3850  137.0320 C   0  0  2  0  0  3  0  0  0  0  0  0
  188.6660  177.8210  136.7050 C   0  0  2  0  0  3  0  0  0  0  0  0
  188.5430  176.4380  137.3670 C   0  0  2  0  0  3  0  0  0  0  0  0
  189.5170  177.2630  139.5510 C   0  0  0  0  0  2  0  0  0  0  0  0
  188.9450  178.6100  139.0900 C   0  0  0  0  0  2  0  0  0  0  0  0
  189.6180  176.2200  138.4320 C   0  0  0  0  0  2  0  0  0  0  0  0
  189.2760  178.8850  137.6260 C   0  0  0  0  0  2  0  0  0  0  0  0
  187.4080  178.2430  136.2660 O   0  0  0  0  0  1  0  0  0  0  0  0
  182.1000  180.1760  138.4760 N   0  0  0  0  0  2  0  0  0  0  0  0
  181.0970  179.7580  140.5780 C   0  0  0  0  0  3  0  0  0  0  0  0
  180.8450  178.9930  141.8340 C   0  0  0  0  0  2  0  0  0  0  0  0
  183.2310  178.4950  142.3930 C   0  0  0  0  0  0  0  0  0  0  0  0
  183.4810  177.8840  141.0620 C   0  0  0  0  0  3  0  0  0  0  0  0
  182.0370  179.4270  139.6930 C   0  0  0  0  0  0  0  0  0  0  0  0
  182.0420  179.0110  142.7260 C   0  0  0  0  0  3  0  0  0  0  0  0
  182.9620  178.2830  139.8940 C   0  0  0  0  0  3  0  0  0  0  0  0
  184.0640  178.7830  144.7410 C   0  0  0  0  0  3  0  0  0  0  0  0
  185.1040  178.7600  145.6720 C   0  0  0  0  0  3  0  0  0  0  0  0
  186.3690  178.4710  145.2730 N   0  0  0  0  0  0  0  0  0  0  0  0
  185.6450  178.2070  143.0140 C   0  0  0  0  0  3  0  0  0  0  0  0
  186.6640  178.1990  143.9670 C   0  0  0  0  0  0  0  0  0  0  0  0
  184.3270  178.5020  143.3920 C   0  0  0  0  0  0  0  0  0  0  0  0
  188.6230  176.7220  144.2620 C   0  0  2  0  0  3  0  0  0  0  0  0
  188.0630  177.8880  143.5160 C   0  0  2  0  0  3  0  0  0  0  0  0
  189.0940  178.1730  144.6060 C   0  0  2  0  0  0  0  0  0  0  0  0
  190.1900  178.6170  143.8090 O   0  0  0  0  0  0  0  0  0  0  0  0
  189.4080  175.9290  143.2150 C   0  0  0  0  0  1  0  0  0  0  0  0
  190.5450  178.2010  145.0770 C   0  0  2  0  0  3  0  0  0  0  0  0
  191.3910  176.9330  145.0050 C   0  0  0  0  0  2  0  0  0  0  0  0
  191.5260  176.3340  146.3600 C   0  0  0  0  0  0  0  0  0  0  0  0
  192.4330  175.4910  146.5860 O   0  0  0  0  0  0  0  0  0  0  0  0
  190.6760  176.7340  147.3840 O   0  0  0  0  0  1  0  0  0  0  0  0
  1  2  1  1  0  0  0
  1  8  1  0  0  0  0
  1 32  1  0  0  0  0
  3  2  1  0  0  0  0
  4  3  1  6  0  0  0
  4  7  1  0  0  0  0
  4  6  1  0  0  0  0
  5  7  2  0  0  0  0
  7  6  1  0  0  0  0
  9 10  2  0  0  0  0
 10  8  1  0  0  0  0
 11 15  1  6  0  0  0
 11 12  1  0  0  0  0
 13 14  1  0  0  0  0
 13 11  1  0  0  0  0
 14 10  1  1  0  0  0
 14 12  1  0  0  0  0
 17 24  1  0  0  0  0
 17 21  2  0  0  0  0
 18 23  1  0  0  0  0
 18 22  1  0  0  0  0
 19 16  2  0  0  0  0
 20 24  1  0  0  0  0
 22 16  1  0  0  0  0
 22 17  1  0  0  0  0
 23 20  1  0  0  0  0
 24 15  1  6  0  0  0
 25 31  1  1  0  0  0
 25 26  1  0  0  0  0
 25 30  1  0  0  0  0
 26 16  1  6  0  0  0
 26 29  1  0  0  0  0
 28 27  1  0  0  0  0
 29 27  1  0  0  0  0
 30 28  1  0  0  0  0
 32 37  1  0  0  0  0
 33 34  1  0  0  0  0
 34 38  1  0  0  0  0
 35 38  2  0  0  0  0
 35 45  1  0  0  0  0
 36 35  1  0  0  0  0
 37 39  1  0  0  0  0
 37 33  2  0  0  0  0
 39 36  2  0  0  0  0
 40 41  1  0  0  0  0
 42 41  2  0  0  0  0
 43 45  1  0  0  0  0
 43 44  2  0  0  0  0
 44 42  1  0  0  0  0
 45 40  2  0  0  0  0
 46 50  1  6  0  0  0
 46 48  1  0  0  0  0
 47 44  1  1  0  0  0
 47 46  1  0  0  0  0
 47 48  1  0  0  0  0
 48 49  1  6  0  0  0
 48 51  1  0  0  0  0
 49 51  1  0  0  0  0
 51 52  1  6  0  0  0
 52 53  1  0  0  0  0
 53 54  2  0  0  0  0
 53 55  1  0  0  0  0
M  END
>  <MODEL>
5

>  <REMARK>
 VINA RESULT:      -8.0      2.001      9.202
  Name = 
  15 active torsions:
  status: ('A' for Active; 'I' for Inactive)
    1  A    between atoms: C_2  and  C_27
    2  A    between atoms: C_2  and  C_55
    3  A    between atoms: C_6  and  C_20
    4  A    between atoms: C_10  and  C_14
    5  A    between atoms: C_12  and  C_55
    6  A    between atoms: C_13  and  C_15
    7  A    between atoms: C_14  and  C_54
    8  A    between atoms: C_20  and  C_53
    9  A    between atoms: C_23  and  C_27
   10  A    between atoms: C_23  and  C_34
   11  A    between atoms: C_27  and  N_50
   12  A    between atoms: C_30  and  C_45
   13  A    between atoms: C_33  and  C_46
   14  A    between atoms: C_34  and  C_49
   15  A    between atoms: C_37  and  N_50
                            x       y       z     vdW  Elec       q    Type
                         _______ _______ _______ _____ _____    ______ ____

>  <TORSDO>
F 15

$$$$
=
 OpenBabel11042410173D

 55 62  0  0  1  0  0  0  0  0999 V2000
  190.9870  175.3940  137.4150 C   0  0  2  0  0  3  0  0  0  0  0  0
  192.1820  174.8660  136.6350 C   0  0  0  0  0  2  0  0  0  0  0  0
  193.3000  174.4620  137.5790 C   0  0  0  0  0  2  0  0  0  0  0  0
  194.5730  174.2060  136.7980 C   0  0  1  0  0  3  0  0  0  0  0  0
  196.4720  174.6980  138.4400 O   0  0  0  0  0  0  0  0  0  0  0  0
  195.0450  175.3850  136.2870 O   0  0  0  0  0  0  0  0  0  0  0  0
  195.6380  174.7280  137.4960 C   0  0  0  0  0  0  0  0  0  0  0  0
  191.4590  175.9930  138.7240 C   0  0  0  0  0  2  0  0  0  0  0  0
  189.3410  177.0220  138.7110 O   0  0  0  0  0  0  0  0  0  0  0  0
  190.4130  176.8960  139.2840 C   0  0  0  0  0  0  0  0  0  0  0  0
  191.4780  176.7210  142.2910 C   0  0  2  0  0  3  0  0  0  0  0  0
  192.4550  177.5370  140.9940 S   0  0  0  0  0  0  0  0  0  0  0  0
  190.1600  176.9260  141.7040 N   0  0  0  0  0  2  0  0  0  0  0  0
  190.6970  177.6390  140.5560 C   0  0  2  0  0  3  0  0  0  0  0  0
  191.6080  177.5070  143.5950 C   0  0  0  0  0  2  0  0  0  0  0  0
  188.2200  178.0150  147.3340 C   0  0  0  0  0  0  0  0  0  0  0  0
  189.8120  177.6920  145.3880 C   0  0  0  0  0  0  0  0  0  0  0  0
  190.4390  176.9480  147.7010 C   0  0  0  0  0  2  0  0  0  0  0  0
  188.0700  178.0650  148.5890 O   0  0  0  0  0  0  0  0  0  0  0  0
  191.9110  176.3400  145.8130 C   0  0  0  0  0  2  0  0  0  0  0  0
  189.1660  178.4850  144.6490 O   0  0  0  0  0  0  0  0  0  0  0  0
  189.4610  177.5320  146.7820 N   0  0  0  0  0  0  0  0  0  0  0  0
  191.1960  175.8060  147.0410 C   0  0  0  0  0  2  0  0  0  0  0  0
  190.9020  176.8390  144.7790 C   0  0  2  0  0  3  0  0  0  0  0  0
  185.8630  178.8640  147.2900 C   0  0  2  0  0  3  0  0  0  0  0  0
  187.0690  178.4000  146.4540 C   0  0  2  0  0  3  0  0  0  0  0  0
  185.6050  177.6610  144.5290 C   0  0  0  0  0  2  0  0  0  0  0  0
  184.6550  178.7350  145.0750 C   0  0  0  0  0  2  0  0  0  0  0  0
  186.7030  177.2500  145.5170 C   0  0  0  0  0  2  0  0  0  0  0  0
  184.5160  178.6410  146.5910 C   0  0  0  0  0  2  0  0  0  0  0  0
  186.0090  180.2150  147.6140 O   0  0  0  0  0  1  0  0  0  0  0  0
  190.0440  174.3190  137.6940 N   0  0  0  0  0  2  0  0  0  0  0  0
  188.7760  174.7210  135.7360 C   0  0  0  0  0  3  0  0  0  0  0  0
  187.8170  174.3790  134.6460 C   0  0  0  0  0  2  0  0  0  0  0  0
  186.0660  173.3130  136.0780 C   0  0  0  0  0  0  0  0  0  0  0  0
  187.0420  172.3680  136.6780 C   0  0  0  0  0  3  0  0  0  0  0  0
  189.0190  173.9250  136.7760 C   0  0  0  0  0  0  0  0  0  0  0  0
  186.4290  174.2310  135.1740 C   0  0  0  0  0  3  0  0  0  0  0  0
  188.3210  172.6290  136.9760 C   0  0  0  0  0  3  0  0  0  0  0  0
  183.9690  171.9800  136.4180 C   0  0  0  0  0  3  0  0  0  0  0  0
  182.6330  171.8980  136.8160 C   0  0  0  0  0  3  0  0  0  0  0  0
  181.9820  173.0080  137.2480 N   0  0  0  0  0  0  0  0  0  0  0  0
  183.9370  174.3380  136.9220 C   0  0  0  0  0  3  0  0  0  0  0  0
  182.6000  174.2250  137.3060 C   0  0  0  0  0  0  0  0  0  0  0  0
  184.6390  173.2110  136.4710 C   0  0  0  0  0  0  0  0  0  0  0  0
  182.6730  176.6900  137.4640 C   0  0  2  0  0  3  0  0  0  0  0  0
  181.8840  175.4600  137.7740 C   0  0  2  0  0  3  0  0  0  0  0  0
  182.6140  176.1440  138.9280 C   0  0  2  0  0  0  0  0  0  0  0  0
  181.5030  176.6380  139.6730 O   0  0  0  0  0  0  0  0  0  0  0  0
  181.6310  177.7220  137.0280 C   0  0  0  0  0  1  0  0  0  0  0  0
  182.6990  177.2680  139.9560 C   0  0  2  0  0  3  0  0  0  0  0  0
  182.6570  178.7220  139.4960 C   0  0  0  0  0  2  0  0  0  0  0  0
  184.0050  179.3380  139.6340 C   0  0  0  0  0  0  0  0  0  0  0  0
  184.4970  179.9910  138.6780 O   0  0  0  0  0  0  0  0  0  0  0  0
  184.7020  179.2230  140.8300 O   0  0  0  0  0  1  0  0  0  0  0  0
  1  2  1  1  0  0  0
  1 32  1  0  0  0  0
  1  8  1  0  0  0  0
  2  3  1  0  0  0  0
  4  7  1  0  0  0  0
  4  3  1  1  0  0  0
  6  4  1  0  0  0  0
  6  7  1  0  0  0  0
  7  5  2  0  0  0  0
  8 10  1  0  0  0  0
  9 10  2  0  0  0  0
 11 15  1  1  0  0  0
 12 11  1  0  0  0  0
 13 11  1  0  0  0  0
 14 10  1  6  0  0  0
 14 12  1  0  0  0  0
 14 13  1  0  0  0  0
 16 19  2  0  0  0  0
 17 22  1  0  0  0  0
 20 23  1  0  0  0  0
 21 17  2  0  0  0  0
 22 16  1  0  0  0  0
 22 18  1  0  0  0  0
 23 18  1  0  0  0  0
 24 15  1  6  0  0  0
 24 17  1  0  0  0  0
 24 20  1  0  0  0  0
 25 31  1  6  0  0  0
 26 25  1  0  0  0  0
 26 16  1  1  0  0  0
 27 28  1  0  0  0  0
 27 29  1  0  0  0  0
 28 30  1  0  0  0  0
 29 26  1  0  0  0  0
 30 25  1  0  0  0  0
 33 37  2  0  0  0  0
 34 38  1  0  0  0  0
 34 33  1  0  0  0  0
 35 45  1  0  0  0  0
 35 36  1  0  0  0  0
 36 39  2  0  0  0  0
 37 39  1  0  0  0  0
 37 32  1  0  0  0  0
 38 35  2  0  0  0  0
 40 45  2  0  0  0  0
 40 41  1  0  0  0  0
 41 42  2  0  0  0  0
 42 44  1  0  0  0  0
 43 44  2  0  0  0  0
 45 43  1  0  0  0  0
 46 50  1  1  0  0  0
 46 47  1  0  0  0  0
 46 48  1  0  0  0  0
 47 44  1  6  0  0  0
 47 48  1  0  0  0  0
 48 49  1  6  0  0  0
 48 51  1  0  0  0  0
 49 51  1  0  0  0  0
 51 52  1  6  0  0  0
 52 53  1  0  0  0  0
 53 55  1  0  0  0  0
 54 53  2  0  0  0  0
M  END
>  <MODEL>
6

>  <REMARK>
 VINA RESULT:      -7.8      3.083      8.509
  Name = 
  15 active torsions:
  status: ('A' for Active; 'I' for Inactive)
    1  A    between atoms: C_2  and  C_27
    2  A    between atoms: C_2  and  C_55
    3  A    between atoms: C_6  and  C_20
    4  A    between atoms: C_10  and  C_14
    5  A    between atoms: C_12  and  C_55
    6  A    between atoms: C_13  and  C_15
    7  A    between atoms: C_14  and  C_54
    8  A    between atoms: C_20  and  C_53
    9  A    between atoms: C_23  and  C_27
   10  A    between atoms: C_23  and  C_34
   11  A    between atoms: C_27  and  N_50
   12  A    between atoms: C_30  and  C_45
   13  A    between atoms: C_33  and  C_46
   14  A    between atoms: C_34  and  C_49
   15  A    between atoms: C_37  and  N_50
                            x       y       z     vdW  Elec       q    Type
                         _______ _______ _______ _____ _____    ______ ____

>  <TORSDO>
F 15

$$$$
=
 OpenBabel11042410173D

 55 62  0  0  1  0  0  0  0  0999 V2000
  187.9390  177.1650  144.5940 C   0  0  2  0  0  3  0  0  0  0  0  0
  187.5120  177.9920  145.7970 C   0  0  0  0  0  2  0  0  0  0  0  0
  188.0480  177.3850  147.0810 C   0  0  0  0  0  2  0  0  0  0  0  0
  189.3630  178.0390  147.4550 C   0  0  1  0  0  3  0  0  0  0  0  0
  191.1260  176.2100  147.1450 O   0  0  0  0  0  0  0  0  0  0  0  0
  189.6620  177.7570  148.7600 O   0  0  0  0  0  0  0  0  0  0  0  0
  190.3200  177.0610  147.6090 C   0  0  0  0  0  0  0  0  0  0  0  0
  189.0180  177.9040  143.8270 C   0  0  0  0  0  2  0  0  0  0  0  0
  189.8240  175.8010  143.1370 O   0  0  0  0  0  0  0  0  0  0  0  0
  189.6840  176.9840  142.8610 C   0  0  0  0  0  0  0  0  0  0  0  0
  189.9390  176.5200  139.7110 C   0  0  2  0  0  3  0  0  0  0  0  0
  188.7960  177.7600  140.3890 S   0  0  0  0  0  0  0  0  0  0  0  0
  190.9000  176.5170  140.8060 N   0  0  0  0  0  2  0  0  0  0  0  0
  190.1700  177.5300  141.5520 C   0  0  2  0  0  3  0  0  0  0  0  0
  190.5840  177.0660  138.4380 C   0  0  0  0  0  2  0  0  0  0  0  0
  194.4730  175.1990  135.7710 C   0  0  0  0  0  0  0  0  0  0  0  0
  192.5550  176.0320  137.2050 C   0  0  0  0  0  0  0  0  0  0  0  0
  192.1890  175.4090  134.8020 C   0  0  0  0  0  2  0  0  0  0  0  0
  194.9150  174.9870  134.6050 O   0  0  0  0  0  0  0  0  0  0  0  0
  190.2290  175.9320  136.2110 C   0  0  0  0  0  2  0  0  0  0  0  0
  193.3330  176.4650  138.0990 O   0  0  0  0  0  0  0  0  0  0  0  0
  193.0790  175.5190  135.9580 N   0  0  0  0  0  0  0  0  0  0  0  0
  190.8060  174.9370  135.2190 C   0  0  0  0  0  2  0  0  0  0  0  0
  191.0710  175.9690  137.4850 C   0  0  2  0  0  3  0  0  0  0  0  0
  196.8640  174.9210  136.4640 C   0  0  2  0  0  3  0  0  0  0  0  0
  195.4050  175.0450  136.9350 C   0  0  2  0  0  3  0  0  0  0  0  0
  195.8540  173.7540  139.0620 C   0  0  0  0  0  2  0  0  0  0  0  0
  197.2780  174.2940  138.8760 C   0  0  0  0  0  2  0  0  0  0  0  0
  194.9840  173.8610  137.8040 C   0  0  0  0  0  2  0  0  0  0  0  0
  197.7520  174.1330  137.4350 C   0  0  0  0  0  2  0  0  0  0  0  0
  197.4010  176.1950  136.2610 O   0  0  0  0  0  1  0  0  0  0  0  0
  186.8050  176.9250  143.7120 N   0  0  0  0  0  2  0  0  0  0  0  0
  184.8910  178.0300  144.5590 C   0  0  0  0  0  3  0  0  0  0  0  0
  183.8040  179.0520  144.5630 C   0  0  0  0  0  2  0  0  0  0  0  0
  183.1370  178.8230  142.1640 C   0  0  0  0  0  0  0  0  0  0  0  0
  184.5250  179.0610  141.6900 C   0  0  0  0  0  3  0  0  0  0  0  0
  185.7370  177.8620  143.5430 C   0  0  0  0  0  0  0  0  0  0  0  0
  182.8240  178.8010  143.4650 C   0  0  0  0  0  3  0  0  0  0  0  0
  185.6500  178.6510  142.2880 C   0  0  0  0  0  3  0  0  0  0  0  0
  180.8390  179.3100  141.2860 C   0  0  0  0  0  3  0  0  0  0  0  0
  179.8470  179.1420  140.3170 C   0  0  0  0  0  3  0  0  0  0  0  0
  180.0650  178.3230  139.2560 N   0  0  0  0  0  0  0  0  0  0  0  0
  182.2540  177.7980  140.0510 C   0  0  0  0  0  3  0  0  0  0  0  0
  181.2410  177.6450  139.1030 C   0  0  0  0  0  0  0  0  0  0  0  0
  182.0620  178.6360  141.1590 C   0  0  0  0  0  0  0  0  0  0  0  0
  182.4280  175.6300  138.3040 C   0  0  2  0  0  3  0  0  0  0  0  0
  181.4850  176.7290  137.9380 C   0  0  2  0  0  3  0  0  0  0  0  0
  182.9210  176.8250  137.4240 C   0  0  2  0  0  0  0  0  0  0  0  0
  182.7040  176.6280  136.0280 O   0  0  0  0  0  0  0  0  0  0  0  0
  181.8710  174.3890  137.6040 C   0  0  0  0  0  1  0  0  0  0  0  0
  184.0020  176.3940  136.4380 C   0  0  2  0  0  3  0  0  0  0  0  0
  184.3500  174.9160  136.2910 C   0  0  0  0  0  2  0  0  0  0  0  0
  185.7450  174.6730  136.7470 C   0  0  0  0  0  0  0  0  0  0  0  0
  186.6010  175.5920  136.6640 O   0  0  0  0  0  0  0  0  0  0  0  0
  186.0920  173.4460  137.2990 O   0  0  0  0  0  1  0  0  0  0  0  0
  1  8  1  6  0  0  0
  1  2  1  0  0  0  0
  2  3  1  0  0  0  0
  4  3  1  1  0  0  0
  4  7  1  0  0  0  0
  4  6  1  0  0  0  0
  5  7  2  0  0  0  0
  7  6  1  0  0  0  0
 10  9  2  0  0  0  0
 10  8  1  0  0  0  0
 11 15  1  6  0  0  0
 11 12  1  0  0  0  0
 11 13  1  0  0  0  0
 12 14  1  0  0  0  0
 13 14  1  0  0  0  0
 14 10  1  1  0  0  0
 16 22  1  0  0  0  0
 17 24  1  0  0  0  0
 17 21  2  0  0  0  0
 18 23  1  0  0  0  0
 18 22  1  0  0  0  0
 19 16  2  0  0  0  0
 20 24  1  0  0  0  0
 22 17  1  0  0  0  0
 23 20  1  0  0  0  0
 24 15  1  6  0  0  0
 25 31  1  1  0  0  0
 25 26  1  0  0  0  0
 25 30  1  0  0  0  0
 26 16  1  6  0  0  0
 26 29  1  0  0  0  0
 28 27  1  0  0  0  0
 29 27  1  0  0  0  0
 30 28  1  0  0  0  0
 32  1  1  0  0  0  0
 33 34  1  0  0  0  0
 35 38  2  0  0  0  0
 36 35  1  0  0  0  0
 36 39  2  0  0  0  0
 37 32  1  0  0  0  0
 37 33  2  0  0  0  0
 38 34  1  0  0  0  0
 39 37  1  0  0  0  0
 41 40  2  0  0  0  0
 42 41  1  0  0  0  0
 43 45  2  0  0  0  0
 44 42  2  0  0  0  0
 44 43  1  0  0  0  0
 45 40  1  0  0  0  0
 45 35  1  0  0  0  0
 46 50  1  6  0  0  0
 47 46  1  0  0  0  0
 47 44  1  1  0  0  0
 48 49  1  6  0  0  0
 48 47  1  0  0  0  0
 48 46  1  0  0  0  0
 49 51  1  0  0  0  0
 51 52  1  1  0  0  0
 51 48  1  0  0  0  0
 52 53  1  0  0  0  0
 53 55  1  0  0  0  0
 54 53  2  0  0  0  0
M  END
>  <MODEL>
7

>  <REMARK>
 VINA RESULT:      -7.7      3.446      6.794
  Name = 
  15 active torsions:
  status: ('A' for Active; 'I' for Inactive)
    1  A    between atoms: C_2  and  C_27
    2  A    between atoms: C_2  and  C_55
    3  A    between atoms: C_6  and  C_20
    4  A    between atoms: C_10  and  C_14
    5  A    between atoms: C_12  and  C_55
    6  A    between atoms: C_13  and  C_15
    7  A    between atoms: C_14  and  C_54
    8  A    between atoms: C_20  and  C_53
    9  A    between atoms: C_23  and  C_27
   10  A    between atoms: C_23  and  C_34
   11  A    between atoms: C_27  and  N_50
   12  A    between atoms: C_30  and  C_45
   13  A    between atoms: C_33  and  C_46
   14  A    between atoms: C_34  and  C_49
   15  A    between atoms: C_37  and  N_50
                            x       y       z     vdW  Elec       q    Type
                         _______ _______ _______ _____ _____    ______ ____

>  <TORSDO>
F 15

$$$$
=
 OpenBabel11042410173D

 55 62  0  0  1  0  0  0  0  0999 V2000
  188.7390  176.7950  144.1390 C   0  0  2  0  0  3  0  0  0  0  0  0
  189.1100  178.2170  144.5310 C   0  0  0  0  0  2  0  0  0  0  0  0
  189.9750  178.2190  145.7780 C   0  0  0  0  0  2  0  0  0  0  0  0
  189.5620  177.0880  146.6990 C   0  0  1  0  0  3  0  0  0  0  0  0
  188.2530  178.2130  148.5880 O   0  0  0  0  0  0  0  0  0  0  0  0
  190.4600  176.9770  147.7250 O   0  0  0  0  0  0  0  0  0  0  0  0
  189.1170  177.6200  147.8880 C   0  0  0  0  0  0  0  0  0  0  0  0
  189.6360  176.3290  143.0090 C   0  0  0  0  0  2  0  0  0  0  0  0
  189.0960  178.3610  141.9480 O   0  0  0  0  0  0  0  0  0  0  0  0
  189.4500  177.1990  141.8120 C   0  0  0  0  0  0  0  0  0  0  0  0
  190.0510  177.8150  138.7350 C   0  0  2  0  0  3  0  0  0  0  0  0
  191.3360  177.1360  139.8260 S   0  0  0  0  0  0  0  0  0  0  0  0
  188.8910  177.2920  139.4450 N   0  0  0  0  0  2  0  0  0  0  0  0
  189.7080  176.6280  140.4490 C   0  0  2  0  0  3  0  0  0  0  0  0
  190.1650  177.1720  137.3540 C   0  0  0  0  0  2  0  0  0  0  0  0
  193.2300  173.3730  135.9760 C   0  0  0  0  0  0  0  0  0  0  0  0
  191.7610  175.2710  136.7950 C   0  0  0  0  0  0  0  0  0  0  0  0
  190.7520  173.1990  135.8000 C   0  0  0  0  0  2  0  0  0  0  0  0
  193.3230  172.3310  135.2660 O   0  0  0  0  0  0  0  0  0  0  0  0
  189.2600  174.8720  136.8380 C   0  0  0  0  0  2  0  0  0  0  0  0
  192.7300  176.0760  136.8530 O   0  0  0  0  0  0  0  0  0  0  0  0
  191.9330  173.9500  136.2300 N   0  0  0  0  0  0  0  0  0  0  0  0
  189.5980  173.3930  136.7700 C   0  0  0  0  0  2  0  0  0  0  0  0
  190.4360  175.6640  137.4080 C   0  0  2  0  0  3  0  0  0  0  0  0
  195.6890  173.7370  135.6700 C   0  0  2  0  0  3  0  0  0  0  0  0
  194.4730  173.9420  136.5900 C   0  0  2  0  0  3  0  0  0  0  0  0
  195.9060  174.0000  138.6730 C   0  0  0  0  0  2  0  0  0  0  0  0
  196.9820  174.5030  137.7020 C   0  0  0  0  0  2  0  0  0  0  0  0
  194.7040  173.3480  137.9790 C   0  0  0  0  0  2  0  0  0  0  0  0
  197.0210  173.6630  136.4280 C   0  0  0  0  0  2  0  0  0  0  0  0
  195.7400  174.7640  134.7250 O   0  0  0  0  0  1  0  0  0  0  0  0
  187.3500  176.7320  143.7030 N   0  0  0  0  0  2  0  0  0  0  0  0
  186.0470  177.8790  145.3110 C   0  0  0  0  0  3  0  0  0  0  0  0
  185.1410  178.9560  145.8070 C   0  0  0  0  0  2  0  0  0  0  0  0
  183.5330  178.9320  143.8920 C   0  0  0  0  0  0  0  0  0  0  0  0
  184.6180  179.1260  142.8960 C   0  0  0  0  0  3  0  0  0  0  0  0
  186.3850  177.7360  144.0300 C   0  0  0  0  0  0  0  0  0  0  0  0
  183.7810  178.8370  145.2040 C   0  0  0  0  0  3  0  0  0  0  0  0
  185.8530  178.6140  142.9570 C   0  0  0  0  0  3  0  0  0  0  0  0
  181.0800  178.6240  144.3120 C   0  0  0  0  0  3  0  0  0  0  0  0
  179.7620  178.5990  143.8510 C   0  0  0  0  0  3  0  0  0  0  0  0
  179.4970  178.8130  142.5360 N   0  0  0  0  0  0  0  0  0  0  0  0
  181.8200  179.0910  142.0650 C   0  0  0  0  0  3  0  0  0  0  0  0
  180.4940  179.0530  141.6340 C   0  0  0  0  0  0  0  0  0  0  0  0
  182.1290  178.8750  143.4160 C   0  0  0  0  0  0  0  0  0  0  0  0
  181.3950  179.8630  139.4800 C   0  0  2  0  0  3  0  0  0  0  0  0
  180.2090  179.2800  140.1760 C   0  0  2  0  0  3  0  0  0  0  0  0
  180.1660  180.7660  139.8250 C   0  0  2  0  0  0  0  0  0  0  0  0
  179.1570  180.7590  138.8170 O   0  0  0  0  0  0  0  0  0  0  0  0
  181.4300  179.1670  138.1190 C   0  0  0  0  0  1  0  0  0  0  0  0
  179.9710  181.8750  138.7950 C   0  0  2  0  0  3  0  0  0  0  0  0
  180.8200  181.8910  137.5270 C   0  0  0  0  0  2  0  0  0  0  0  0
  180.6380  183.1830  136.8110 C   0  0  0  0  0  0  0  0  0  0  0  0
  179.7000  183.3150  135.9830 O   0  0  0  0  0  0  0  0  0  0  0  0
  181.4810  184.2530  137.0850 O   0  0  0  0  0  1  0  0  0  0  0  0
  1  8  1  6  0  0  0
  1  2  1  0  0  0  0
  2  3  1  0  0  0  0
  4  3  1  6  0  0  0
  4  6  1  0  0  0  0
  4  7  1  0  0  0  0
  6  7  1  0  0  0  0
  7  5  2  0  0  0  0
 10  9  2  0  0  0  0
 10  8  1  0  0  0  0
 11 15  1  6  0  0  0
 11 13  1  0  0  0  0
 11 12  1  0  0  0  0
 12 14  1  0  0  0  0
 13 14  1  0  0  0  0
 14 10  1  1  0  0  0
 16 22  1  0  0  0  0
 17 21  2  0  0  0  0
 17 24  1  0  0  0  0
 18 22  1  0  0  0  0
 18 23  1  0  0  0  0
 19 16  2  0  0  0  0
 20 24  1  0  0  0  0
 22 17  1  0  0  0  0
 23 20  1  0  0  0  0
 24 15  1  6  0  0  0
 25 31  1  6  0  0  0
 25 30  1  0  0  0  0
 25 26  1  0  0  0  0
 26 16  1  6  0  0  0
 26 29  1  0  0  0  0
 28 27  1  0  0  0  0
 29 27  1  0  0  0  0
 30 28  1  0  0  0  0
 32 37  1  0  0  0  0
 32  1  1  0  0  0  0
 33 34  1  0  0  0  0
 35 38  2  0  0  0  0
 36 39  2  0  0  0  0
 36 35  1  0  0  0  0
 37 33  2  0  0  0  0
 38 34  1  0  0  0  0
 39 37  1  0  0  0  0
 41 40  1  0  0  0  0
 42 41  2  0  0  0  0
 43 45  1  0  0  0  0
 44 43  2  0  0  0  0
 44 42  1  0  0  0  0
 45 35  1  0  0  0  0
 45 40  2  0  0  0  0
 46 50  1  6  0  0  0
 46 48  1  0  0  0  0
 46 47  1  0  0  0  0
 47 44  1  1  0  0  0
 48 49  1  6  0  0  0
 48 47  1  0  0  0  0
 51 52  1  6  0  0  0
 51 49  1  0  0  0  0
 51 48  1  0  0  0  0
 53 55  1  0  0  0  0
 53 52  1  0  0  0  0
 54 53  2  0  0  0  0
M  END
>  <MODEL>
8

>  <REMARK>
 VINA RESULT:      -7.7      3.159      5.408
  Name = 
  15 active torsions:
  status: ('A' for Active; 'I' for Inactive)
    1  A    between atoms: C_2  and  C_27
    2  A    between atoms: C_2  and  C_55
    3  A    between atoms: C_6  and  C_20
    4  A    between atoms: C_10  and  C_14
    5  A    between atoms: C_12  and  C_55
    6  A    between atoms: C_13  and  C_15
    7  A    between atoms: C_14  and  C_54
    8  A    between atoms: C_20  and  C_53
    9  A    between atoms: C_23  and  C_27
   10  A    between atoms: C_23  and  C_34
   11  A    between atoms: C_27  and  N_50
   12  A    between atoms: C_30  and  C_45
   13  A    between atoms: C_33  and  C_46
   14  A    between atoms: C_34  and  C_49
   15  A    between atoms: C_37  and  N_50
                            x       y       z     vdW  Elec       q    Type
                         _______ _______ _______ _____ _____    ______ ____

>  <TORSDO>
F 15

$$$$
=
 OpenBabel11042410173D

 55 62  0  0  1  0  0  0  0  0999 V2000
  187.9190  177.0690  136.7160 C   0  0  2  0  0  3  0  0  0  0  0  0
  189.3640  176.9600  136.2560 C   0  0  0  0  0  2  0  0  0  0  0  0
  190.1550  176.0580  137.1860 C   0  0  0  0  0  2  0  0  0  0  0  0
  191.4750  176.7100  137.5440 C   0  0  1  0  0  3  0  0  0  0  0  0
  193.1550  174.7840  137.6700 O   0  0  0  0  0  0  0  0  0  0  0  0
  191.6730  176.6400  138.8960 O   0  0  0  0  0  0  0  0  0  0  0  0
  192.3670  175.7330  137.9260 C   0  0  0  0  0  0  0  0  0  0  0  0
  187.8150  178.0980  137.8230 C   0  0  0  0  0  2  0  0  0  0  0  0
  185.8220  179.2330  137.2850 O   0  0  0  0  0  0  0  0  0  0  0  0
  186.3880  178.4670  138.0510 C   0  0  0  0  0  0  0  0  0  0  0  0
  185.0290  179.0170  140.8900 C   0  0  2  0  0  3  0  0  0  0  0  0
  184.0240  178.6340  139.4250 S   0  0  0  0  0  0  0  0  0  0  0  0
  186.2490  178.3340  140.4770 N   0  0  0  0  0  2  0  0  0  0  0  0
  185.6630  177.8800  139.2260 C   0  0  2  0  0  3  0  0  0  0  0  0
  184.4240  178.3320  142.1140 C   0  0  0  0  0  2  0  0  0  0  0  0
  188.1400  177.5150  145.4680 C   0  0  0  0  0  0  0  0  0  0  0  0
  186.3610  178.0330  143.7370 C   0  0  0  0  0  0  0  0  0  0  0  0
  185.7870  177.9120  146.1770 C   0  0  0  0  0  2  0  0  0  0  0  0
  188.4000  177.1350  146.6460 O   0  0  0  0  0  0  0  0  0  0  0  0
  184.0720  178.7040  144.5860 C   0  0  0  0  0  2  0  0  0  0  0  0
  187.0930  177.6530  142.7830 O   0  0  0  0  0  0  0  0  0  0  0  0
  186.7850  177.8520  145.1090 N   0  0  0  0  0  0  0  0  0  0  0  0
  184.7600  179.0000  145.9070 C   0  0  0  0  0  2  0  0  0  0  0  0
  185.0730  178.7640  143.4340 C   0  0  2  0  0  3  0  0  0  0  0  0
  189.9410  176.3130  144.2070 C   0  0  2  0  0  3  0  0  0  0  0  0
  189.2690  177.6670  144.4940 C   0  0  2  0  0  3  0  0  0  0  0  0
  191.3760  178.9620  143.9620 C   0  0  0  0  0  2  0  0  0  0  0  0
  191.6790  177.7510  143.0690 C   0  0  0  0  0  2  0  0  0  0  0  0
  190.2730  178.7050  144.9950 C   0  0  0  0  0  2  0  0  0  0  0  0
  191.4140  176.4380  143.8000 C   0  0  0  0  0  2  0  0  0  0  0  0
  189.2310  175.6400  143.2100 O   0  0  0  0  0  1  0  0  0  0  0  0
  187.4420  175.7840  137.2110 N   0  0  0  0  0  2  0  0  0  0  0  0
  185.8920  175.5230  135.4420 C   0  0  0  0  0  3  0  0  0  0  0  0
  184.8570  174.8090  134.6390 C   0  0  0  0  0  2  0  0  0  0  0  0
  183.4630  174.0020  136.5510 C   0  0  0  0  0  0  0  0  0  0  0  0
  184.6270  173.3520  137.2070 C   0  0  0  0  0  3  0  0  0  0  0  0
  186.3720  175.0610  136.5970 C   0  0  0  0  0  0  0  0  0  0  0  0
  183.5810  174.6750  135.4000 C   0  0  0  0  0  3  0  0  0  0  0  0
  185.8850  173.8050  137.2230 C   0  0  0  0  0  3  0  0  0  0  0  0
  181.4800  172.6270  137.2350 C   0  0  0  0  0  3  0  0  0  0  0  0
  180.2320  172.5180  137.8520 C   0  0  0  0  0  3  0  0  0  0  0  0
  179.6410  173.6160  138.3910 N   0  0  0  0  0  0  0  0  0  0  0  0
  181.4860  174.9840  137.7440 C   0  0  0  0  0  3  0  0  0  0  0  0
  180.2360  174.8440  138.3470 C   0  0  0  0  0  0  0  0  0  0  0  0
  182.1250  173.8710  137.1780 C   0  0  0  0  0  0  0  0  0  0  0  0
  180.3720  177.2960  138.6260 C   0  0  2  0  0  3  0  0  0  0  0  0
  179.5840  176.0650  138.9320 C   0  0  2  0  0  3  0  0  0  0  0  0
  180.4140  176.6740  140.0600 C   0  0  2  0  0  0  0  0  0  0  0  0
  179.3740  177.1470  140.9140 O   0  0  0  0  0  0  0  0  0  0  0  0
  179.3220  178.3670  138.3260 C   0  0  0  0  0  1  0  0  0  0  0  0
  180.6020  177.7400  141.1350 C   0  0  2  0  0  3  0  0  0  0  0  0
  180.5560  179.2180  140.7550 C   0  0  0  0  0  2  0  0  0  0  0  0
  180.1440  180.0320  141.9300 C   0  0  0  0  0  0  0  0  0  0  0  0
  180.3920  179.6240  143.0940 O   0  0  0  0  0  1  0  0  0  0  0  0
  179.5220  181.2600  141.7400 O   0  0  0  0  0  0  0  0  0  0  0  0
  1  2  1  1  0  0  0
  1 32  1  0  0  0  0
  1  8  1  0  0  0  0
  2  3  1  0  0  0  0
  4  3  1  1  0  0  0
  4  7  1  0  0  0  0
  4  6  1  0  0  0  0
  5  7  2  0  0  0  0
  7  6  1  0  0  0  0
  8 10  1  0  0  0  0
  9 10  2  0  0  0  0
 11 15  1  1  0  0  0
 12 11  1  0  0  0  0
 13 11  1  0  0  0  0
 14 10  1  6  0  0  0
 14 12  1  0  0  0  0
 14 13  1  0  0  0  0
 16 19  2  0  0  0  0
 17 22  1  0  0  0  0
 20 23  1  0  0  0  0
 21 17  2  0  0  0  0
 22 16  1  0  0  0  0
 22 18  1  0  0  0  0
 23 18  1  0  0  0  0
 24 15  1  6  0  0  0
 24 17  1  0  0  0  0
 24 20  1  0  0  0  0
 25 31  1  6  0  0  0
 25 26  1  0  0  0  0
 26 29  1  0  0  0  0
 26 16  1  1  0  0  0
 27 29  1  0  0  0  0
 28 30  1  0  0  0  0
 28 27  1  0  0  0  0
 30 25  1  0  0  0  0
 33 37  2  0  0  0  0
 34 38  1  0  0  0  0
 34 33  1  0  0  0  0
 35 45  1  0  0  0  0
 35 36  1  0  0  0  0
 36 39  2  0  0  0  0
 37 32  1  0  0  0  0
 37 39  1  0  0  0  0
 38 35  2  0  0  0  0
 40 41  1  0  0  0  0
 41 42  2  0  0  0  0
 43 44  2  0  0  0  0
 44 42  1  0  0  0  0
 45 40  2  0  0  0  0
 45 43  1  0  0  0  0
 46 50  1  1  0  0  0
 46 47  1  0  0  0  0
 46 48  1  0  0  0  0
 47 44  1  6  0  0  0
 47 48  1  0  0  0  0
 48 49  1  6  0  0  0
 48 51  1  0  0  0  0
 49 51  1  0  0  0  0
 51 52  1  6  0  0  0
 52 53  1  0  0  0  0
 53 54  1  0  0  0  0
 55 53  2  0  0  0  0
M  END
>  <MODEL>
9

>  <REMARK>
 VINA RESULT:      -7.6      2.862      8.062
  Name = 
  15 active torsions:
  status: ('A' for Active; 'I' for Inactive)
    1  A    between atoms: C_2  and  C_27
    2  A    between atoms: C_2  and  C_55
    3  A    between atoms: C_6  and  C_20
    4  A    between atoms: C_10  and  C_14
    5  A    between atoms: C_12  and  C_55
    6  A    between atoms: C_13  and  C_15
    7  A    between atoms: C_14  and  C_54
    8  A    between atoms: C_20  and  C_53
    9  A    between atoms: C_23  and  C_27
   10  A    between atoms: C_23  and  C_34
   11  A    between atoms: C_27  and  N_50
   12  A    between atoms: C_30  and  C_45
   13  A    between atoms: C_33  and  C_46
   14  A    between atoms: C_34  and  C_49
   15  A    between atoms: C_37  and  N_50
                            x       y       z     vdW  Elec       q    Type
                         _______ _______ _______ _____ _____    ______ ____

>  <TORSDO>
F 15

$$$$
