=
 OpenBabel11042411353D

 61 68  0  0  1  0  0  0  0  0999 V2000
  185.1460  178.6610  140.3890 S   0  0  0  0  0  0  0  0  0  0  0  0
  183.0430  178.0230  139.1950 C   0  0  0  0  0  0  0  0  0  0  0  0
  184.0790  177.7740  138.2870 C   0  0  0  0  0  3  0  0  0  0  0  0
  183.4680  178.5380  140.4160 C   0  0  0  0  0  0  0  0  0  0  0  0
  185.3250  178.0960  138.8140 C   0  0  0  0  0  0  0  0  0  0  0  0
  182.5880  178.8870  141.5740 C   0  0  0  0  0  2  0  0  0  0  0  0
  183.4120  179.1760  142.7820 C   0  0  0  0  0  3  0  0  0  0  0  0
  183.2590  178.4690  143.8530 N   0  0  0  0  0  0  0  0  0  0  0  0
  184.0430  178.6900  145.0310 C   0  0  0  0  0  0  0  0  0  0  0  0
  185.4620  178.5170  144.9900 N   0  0  0  0  0  0  0  0  0  0  0  0
  183.4850  179.0210  146.1170 O   0  0  0  0  0  0  0  0  0  0  0  0
  186.4510  177.9320  147.0190 O   0  0  0  0  0  1  0  0  0  0  0  0
  186.2940  178.9700  146.0990 C   0  0  0  0  0  2  0  0  0  0  0  0
  186.0840  177.7870  143.8940 C   0  0  0  0  0  2  0  0  0  0  0  0
  187.3830  177.1410  144.3750 C   0  0  0  0  0  2  0  0  0  0  0  0
  187.9990  176.2800  143.2800 C   0  0  0  0  0  2  0  0  0  0  0  0
  188.5830  177.4770  141.3030 O   0  0  0  0  0  1  0  0  0  0  0  0
  189.0820  177.0560  142.5370 C   0  0  2  0  0  3  0  0  0  0  0  0
  190.3040  176.1730  142.3100 C   0  0  0  0  0  2  0  0  0  0  0  0
  191.5680  176.8210  142.8570 C   0  0  1  0  0  3  0  0  0  0  0  0
  192.0750  177.7040  141.9000 O   0  0  0  0  0  1  0  0  0  0  0  0
  191.2450  177.5830  144.1360 C   0  0  0  0  0  2  0  0  0  0  0  0
  191.5630  179.0560  143.9640 C   0  0  0  0  0  1  0  0  0  0  0  0
  186.6270  177.8980  138.1120 C   0  0  0  0  0  2  0  0  0  0  0  0
  186.6470  178.6780  136.8070 C   0  0  0  0  0  2  0  0  0  0  0  0
  186.7660  177.7250  135.6290 C   0  0  0  0  0  2  0  0  0  0  0  0
  187.7760  173.8280  137.1840 C   0  0  0  0  0  2  0  0  0  0  0  0
  186.6440  175.2550  135.3710 C   0  0  1  0  0  3  0  0  0  0  0  0
  189.2210  173.9890  136.7570 C   0  0  0  0  0  2  0  0  0  0  0  0
  189.4560  177.6130  135.6960 O   0  0  0  0  0  1  0  0  0  0  0  0
  187.3900  176.4000  136.0650 C   0  0  1  0  0  3  0  0  0  0  0  0
  186.8810  173.8560  135.9580 C   0  0  2  0  0  3  0  0  0  0  0  0
  185.6270  174.6280  136.3130 C   0  0  0  0  0  2  0  0  0  0  0  0
  189.6610  175.4590  136.7350 C   0  0  2  0  0  3  0  0  0  0  0  0
  188.8910  176.3320  135.7240 C   0  0  2  0  0  3  0  0  0  0  0  0
  193.9130  174.7190  137.2010 C   0  0  1  0  0  3  0  0  0  0  0  0
  191.8730  176.0460  137.7860 C   0  0  0  0  0  2  0  0  0  0  0  0
  193.3920  176.0990  137.6260 C   0  0  1  0  0  3  0  0  0  0  0  0
  191.1780  175.5470  136.5140 C   0  0  1  0  0  3  0  0  0  0  0  0
  191.7610  174.2040  136.0480 C   0  0  0  0  0  2  0  0  0  0  0  0
  193.9480  176.4490  138.8630 O   0  0  0  0  0  1  0  0  0  0  0  0
  193.2700  174.3070  135.8820 C   0  0  0  0  0  2  0  0  0  0  0  0
  195.4300  174.7060  137.0220 C   0  0  0  0  0  2  0  0  0  0  0  0
  197.9440  175.3980  137.9690 O   0  0  0  0  0  1  0  0  0  0  0  0
  196.1420  173.7970  138.0310 C   0  0  1  0  0  0  0  0  0  0  0  0
  197.4260  173.1050  137.6280 C   0  0  0  0  0  2  0  0  0  0  0  0
  197.4690  174.2580  138.6210 C   0  0  1  0  0  3  0  0  0  0  0  0
  195.3540  173.0600  138.9180 O   0  0  0  0  0  1  0  0  0  0  0  0
  181.3290  177.6800  138.8070 S   0  0  0  0  0  0  0  0  0  0  0  0
  178.9310  181.9630  136.8450 C   0  0  0  0  0  2  0  0  0  0  0  0
  181.2830  179.8750  137.0050 C   0  0  1  0  0  0  0  0  0  0  0  0
  179.9620  183.0400  137.1790 C   0  0  0  0  0  2  0  0  0  0  0  0
  181.4740  182.4480  138.0400 S   0  0  0  0  0  0  0  0  0  0  0  0
  180.4950  180.1510  135.7220 C   0  0  1  0  0  3  0  0  0  0  0  0
  181.0120  180.7040  138.2960 C   0  0  1  0  0  3  0  0  0  0  0  0
  180.1620  178.9570  136.6160 C   0  0  1  0  0  3  0  0  0  0  0  0
  181.4760  178.3620  137.1210 C   0  0  2  0  0  3  0  0  0  0  0  0
  179.3050  181.1280  135.6310 C   0  0  0  0  0  2  0  0  0  0  0  0
  179.7820  180.5640  139.2150 C   0  0  0  0  0  3  0  0  0  0  0  0
  179.6470  181.7060  139.9850 F   0  0  0  0  0  0  0  0  0  0  0  0
  179.7700  179.4440  140.0220 F   0  0  0  0  0  0  0  0  0  0  0  0
  1  4  1  0  0  0  0
  2  4  2  0  0  0  0
  3  5  2  0  0  0  0
  3  2  1  0  0  0  0
  4  6  1  0  0  0  0
  5  1  1  0  0  0  0
  6  7  1  0  0  0  0
  7  8  2  0  0  0  0
  8  9  1  0  0  0  0
  9 11  2  0  0  0  0
 10  9  1  0  0  0  0
 10 13  1  0  0  0  0
 13 12  1  0  0  0  0
 14 15  1  0  0  0  0
 14 10  1  0  0  0  0
 16 15  1  0  0  0  0
 18 17  1  6  0  0  0
 18 16  1  0  0  0  0
 19 18  1  0  0  0  0
 19 20  1  0  0  0  0
 20 21  1  6  0  0  0
 20 22  1  0  0  0  0
 23 22  1  0  0  0  0
 24  5  1  0  0  0  0
 25 24  1  0  0  0  0
 26 25  1  0  0  0  0
 28 32  1  0  0  0  0
 28 31  1  0  0  0  0
 28 33  1  1  0  0  0
 29 27  1  0  0  0  0
 31 26  1  6  0  0  0
 32 33  1  1  0  0  0
 32 27  1  0  0  0  0
 34 29  1  6  0  0  0
 35 30  1  1  0  0  0
 35 31  1  0  0  0  0
 35 34  1  0  0  0  0
 36 43  1  6  0  0  0
 36 38  1  0  0  0  0
 38 37  1  0  0  0  0
 38 41  1  1  0  0  0
 39 40  1  1  0  0  0
 39 34  1  0  0  0  0
 39 37  1  0  0  0  0
 42 40  1  0  0  0  0
 42 36  1  0  0  0  0
 43 45  1  0  0  0  0
 45 47  1  0  0  0  0
 45 48  1  1  0  0  0
 46 45  1  0  0  0  0
 46 47  1  0  0  0  0
 47 44  1  6  0  0  0
 49  2  1  0  0  0  0
 50 52  1  0  0  0  0
 51 57  1  0  0  0  0
 51 55  1  0  0  0  0
 52 53  1  0  0  0  0
 53 55  1  0  0  0  0
 54 56  1  0  0  0  0
 54 51  1  0  0  0  0
 55 59  1  0  0  0  0
 56 51  1  0  0  0  0
 56 57  1  0  0  0  0
 57 49  1  0  0  0  0
 58 54  1  0  0  0  0
 58 50  1  0  0  0  0
 59 60  1  0  0  0  0
 59 61  1  0  0  0  0
M  END
>  <MODEL>
1

>  <REMARK>
 VINA RESULT:      -7.7      0.000      0.000
  Name = 
  21 active torsions:
  status: ('A' for Active; 'I' for Inactive)
    1  A    between atoms: C_2  and  C_50
    2  A    between atoms: C_3  and  C_8
    3  A    between atoms: C_4  and  N_57
    4  A    between atoms: C_5  and  C_27
    5  A    between atoms: C_5  and  C_45
    6  A    between atoms: C_8  and  C_14
    7  A    between atoms: C_13  and  C_50
    8  A    between atoms: C_14  and  C_27
    9  A    between atoms: C_20  and  C_33
   10  A    between atoms: C_21  and  S_51
   11  A    between atoms: C_22  and  C_47
   12  A    between atoms: C_24  and  C_28
   13  A    between atoms: C_28  and  C_52
   14  A    between atoms: N_29  and  C_37
   15  A    between atoms: N_29  and  C_39
   16  A    between atoms: C_31  and  C_43
   17  A    between atoms: C_33  and  C_40
   18  A    between atoms: C_37  and  C_45
   19  A    between atoms: C_38  and  C_52
   20  A    between atoms: C_38  and  C_55
   21  A    between atoms: C_48  and  S_51
                            x       y       z     vdW  Elec       q    Type
                         _______ _______ _______ _____ _____    ______ ____

>  <TORSDO>
F 21

$$$$
=
 OpenBabel11042411353D

 61 68  0  0  1  0  0  0  0  0999 V2000
  189.4090  177.5180  139.9670 S   0  0  0  0  0  0  0  0  0  0  0  0
  190.9900  176.8220  138.1570 C   0  0  0  0  0  0  0  0  0  0  0  0
  191.7440  176.8150  139.3370 C   0  0  0  0  0  3  0  0  0  0  0  0
  189.6650  177.2090  138.3330 C   0  0  0  0  0  0  0  0  0  0  0  0
  190.9910  177.1970  140.4420 C   0  0  0  0  0  0  0  0  0  0  0  0
  188.6280  177.2980  137.2580 C   0  0  0  0  0  2  0  0  0  0  0  0
  187.2770  177.4890  137.8560 C   0  0  0  0  0  3  0  0  0  0  0  0
  186.2270  177.4720  137.1020 N   0  0  0  0  0  0  0  0  0  0  0  0
  184.9060  177.6270  137.6310 C   0  0  0  0  0  0  0  0  0  0  0  0
  183.8930  176.6670  137.3190 N   0  0  0  0  0  0  0  0  0  0  0  0
  184.6210  178.6220  138.3590 O   0  0  0  0  0  0  0  0  0  0  0  0
  181.7450  177.5690  137.4260 O   0  0  0  0  0  1  0  0  0  0  0  0
  182.6230  176.6720  138.0370 C   0  0  0  0  0  2  0  0  0  0  0  0
  184.0700  175.7420  136.2070 C   0  0  0  0  0  2  0  0  0  0  0  0
  183.0520  174.6070  136.3130 C   0  0  0  0  0  2  0  0  0  0  0  0
  183.5930  173.3340  135.6770 C   0  0  0  0  0  2  0  0  0  0  0  0
  184.8200  171.5280  136.6350 O   0  0  0  0  0  1  0  0  0  0  0  0
  183.5910  172.1890  136.6860 C   0  0  2  0  0  3  0  0  0  0  0  0
  182.4750  171.2020  136.3650 C   0  0  0  0  0  2  0  0  0  0  0  0
  181.1260  171.9000  136.2700 C   0  0  1  0  0  3  0  0  0  0  0  0
  180.3580  171.2690  135.2880 O   0  0  0  0  0  1  0  0  0  0  0  0
  180.4070  171.8200  137.6110 C   0  0  0  0  0  2  0  0  0  0  0  0
  180.0660  173.2120  138.1070 C   0  0  0  0  0  1  0  0  0  0  0  0
  191.4950  177.2410  141.8460 C   0  0  0  0  0  2  0  0  0  0  0  0
  190.3800  177.6520  142.7940 C   0  0  0  0  0  2  0  0  0  0  0  0
  189.9780  176.4760  143.6700 C   0  0  0  0  0  2  0  0  0  0  0  0
  187.7630  177.2320  147.2950 C   0  0  0  0  0  2  0  0  0  0  0  0
  189.8620  177.6330  145.8670 C   0  0  1  0  0  3  0  0  0  0  0  0
  186.7890  178.1300  146.5590 C   0  0  0  0  0  2  0  0  0  0  0  0
  187.6600  177.6190  142.9130 O   0  0  0  0  0  1  0  0  0  0  0  0
  189.0370  176.9280  144.7860 C   0  0  1  0  0  3  0  0  0  0  0  0
  189.1570  177.8280  147.2180 C   0  0  2  0  0  3  0  0  0  0  0  0
  190.1400  176.6910  147.0290 C   0  0  0  0  0  2  0  0  0  0  0  0
  186.6400  177.7410  145.0830 C   0  0  2  0  0  3  0  0  0  0  0  0
  187.9380  177.8730  144.2620 C   0  0  2  0  0  3  0  0  0  0  0  0
  182.7250  178.6750  143.4570 C   0  0  1  0  0  3  0  0  0  0  0  0
  185.0800  177.9000  143.1120 C   0  0  0  0  0  2  0  0  0  0  0  0
  183.9000  178.6280  142.4700 C   0  0  1  0  0  3  0  0  0  0  0  0
  185.4880  178.5330  144.4470 C   0  0  1  0  0  3  0  0  0  0  0  0
  184.2890  178.6520  145.4000 C   0  0  0  0  0  2  0  0  0  0  0  0
  183.5210  177.9170  141.3240 O   0  0  0  0  0  1  0  0  0  0  0  0
  183.1470  179.4000  144.7290 C   0  0  0  0  0  2  0  0  0  0  0  0
  181.5110  179.3940  142.8730 C   0  0  0  0  0  2  0  0  0  0  0  0
  179.0950  180.2860  143.9020 O   0  0  0  0  0  1  0  0  0  0  0  0
  180.2690  178.4980  142.7900 C   0  0  1  0  0  0  0  0  0  0  0  0
  179.6420  177.9800  144.0670 C   0  0  0  0  0  2  0  0  0  0  0  0
  178.9310  179.0570  143.2590 C   0  0  1  0  0  3  0  0  0  0  0  0
  180.1680  177.6180  141.7110 O   0  0  0  0  0  1  0  0  0  0  0  0
  191.6840  176.3490  136.5770 S   0  0  0  0  0  0  0  0  0  0  0  0
  195.6120  173.0090  135.4120 C   0  0  0  0  0  2  0  0  0  0  0  0
  193.2620  174.0760  137.2170 C   0  0  1  0  0  0  0  0  0  0  0  0
  196.5340  173.2310  136.6090 C   0  0  0  0  0  2  0  0  0  0  0  0
  195.9430  174.4550  137.8480 S   0  0  0  0  0  0  0  0  0  0  0  0
  193.3080  172.6520  136.6590 C   0  0  1  0  0  3  0  0  0  0  0  0
  194.4520  175.0550  136.9880 C   0  0  1  0  0  3  0  0  0  0  0  0
  192.4900  173.7460  135.9730 C   0  0  1  0  0  3  0  0  0  0  0  0
  191.8320  174.5960  137.0600 C   0  0  2  0  0  3  0  0  0  0  0  0
  194.4190  172.1210  135.7300 C   0  0  0  0  0  2  0  0  0  0  0  0
  194.7980  175.7610  135.6620 C   0  0  0  0  0  3  0  0  0  0  0  0
  196.1380  176.1080  135.6570 F   0  0  0  0  0  0  0  0  0  0  0  0
  194.0220  176.8600  135.3560 F   0  0  0  0  0  0  0  0  0  0  0  0
  1  5  1  0  0  0  0
  2  4  2  0  0  0  0
  2  3  1  0  0  0  0
  3  5  2  0  0  0  0
  4  1  1  0  0  0  0
  5 24  1  0  0  0  0
  6  7  1  0  0  0  0
  6  4  1  0  0  0  0
  8  9  1  0  0  0  0
  8  7  2  0  0  0  0
  9 11  2  0  0  0  0
 10  9  1  0  0  0  0
 10 13  1  0  0  0  0
 12 13  1  0  0  0  0
 14 15  1  0  0  0  0
 14 10  1  0  0  0  0
 16 15  1  0  0  0  0
 16 18  1  0  0  0  0
 18 17  1  6  0  0  0
 19 18  1  0  0  0  0
 20 21  1  6  0  0  0
 20 19  1  0  0  0  0
 20 22  1  0  0  0  0
 22 23  1  0  0  0  0
 24 25  1  0  0  0  0
 25 26  1  0  0  0  0
 28 33  1  1  0  0  0
 28 32  1  0  0  0  0
 29 27  1  0  0  0  0
 31 26  1  6  0  0  0
 31 28  1  0  0  0  0
 32 33  1  1  0  0  0
 32 27  1  0  0  0  0
 34 29  1  1  0  0  0
 35 30  1  6  0  0  0
 35 31  1  0  0  0  0
 35 34  1  0  0  0  0
 36 43  1  6  0  0  0
 36 42  1  0  0  0  0
 38 41  1  6  0  0  0
 38 37  1  0  0  0  0
 38 36  1  0  0  0  0
 39 37  1  6  0  0  0
 39 34  1  0  0  0  0
 39 40  1  0  0  0  0
 42 40  1  0  0  0  0
 45 48  1  6  0  0  0
 45 43  1  0  0  0  0
 45 47  1  0  0  0  0
 45 46  1  0  0  0  0
 47 44  1  1  0  0  0
 47 46  1  0  0  0  0
 49 57  1  0  0  0  0
 49  2  1  0  0  0  0
 50 58  1  0  0  0  0
 50 52  1  0  0  0  0
 52 53  1  0  0  0  0
 54 51  1  0  0  0  0
 55 51  1  0  0  0  0
 55 53  1  0  0  0  0
 56 54  1  0  0  0  0
 56 57  1  0  0  0  0
 56 51  1  0  0  0  0
 57 51  1  0  0  0  0
 58 54  1  0  0  0  0
 59 55  1  0  0  0  0
 60 59  1  0  0  0  0
 61 59  1  0  0  0  0
M  END
>  <MODEL>
2

>  <REMARK>
 VINA RESULT:      -7.7      4.946     12.348
  Name = 
  21 active torsions:
  status: ('A' for Active; 'I' for Inactive)
    1  A    between atoms: C_2  and  C_50
    2  A    between atoms: C_3  and  C_8
    3  A    between atoms: C_4  and  N_57
    4  A    between atoms: C_5  and  C_27
    5  A    between atoms: C_5  and  C_45
    6  A    between atoms: C_8  and  C_14
    7  A    between atoms: C_13  and  C_50
    8  A    between atoms: C_14  and  C_27
    9  A    between atoms: C_20  and  C_33
   10  A    between atoms: C_21  and  S_51
   11  A    between atoms: C_22  and  C_47
   12  A    between atoms: C_24  and  C_28
   13  A    between atoms: C_28  and  C_52
   14  A    between atoms: N_29  and  C_37
   15  A    between atoms: N_29  and  C_39
   16  A    between atoms: C_31  and  C_43
   17  A    between atoms: C_33  and  C_40
   18  A    between atoms: C_37  and  C_45
   19  A    between atoms: C_38  and  C_52
   20  A    between atoms: C_38  and  C_55
   21  A    between atoms: C_48  and  S_51
                            x       y       z     vdW  Elec       q    Type
                         _______ _______ _______ _____ _____    ______ ____

>  <TORSDO>
F 21

$$$$
=
 OpenBabel11042411353D

 61 68  0  0  1  0  0  0  0  0999 V2000
  185.3290  179.0720  141.8380 S   0  0  0  0  0  0  0  0  0  0  0  0
  183.0930  178.3810  140.9550 C   0  0  0  0  0  0  0  0  0  0  0  0
  183.9630  178.3200  139.8600 C   0  0  0  0  0  3  0  0  0  0  0  0
  183.6960  178.8000  142.1370 C   0  0  0  0  0  0  0  0  0  0  0  0
  185.2590  178.6930  140.2000 C   0  0  0  0  0  0  0  0  0  0  0  0
  183.0180  178.9490  143.4630 C   0  0  0  0  0  2  0  0  0  0  0  0
  183.9300  178.5220  144.5610 C   0  0  0  0  0  3  0  0  0  0  0  0
  184.8280  179.3370  145.0090 N   0  0  0  0  0  0  0  0  0  0  0  0
  185.7120  178.9840  146.0790 C   0  0  0  0  0  0  0  0  0  0  0  0
  186.7820  178.0640  145.8490 N   0  0  0  0  0  0  0  0  0  0  0  0
  185.5410  179.4670  147.2360 O   0  0  0  0  0  0  0  0  0  0  0  0
  188.2990  176.5680  146.7980 O   0  0  0  0  0  1  0  0  0  0  0  0
  187.8290  177.8820  146.8480 C   0  0  0  0  0  2  0  0  0  0  0  0
  186.7830  177.2150  144.6650 C   0  0  0  0  0  2  0  0  0  0  0  0
  187.7140  177.8050  143.6070 C   0  0  0  0  0  2  0  0  0  0  0  0
  188.5950  176.7240  142.9960 C   0  0  0  0  0  2  0  0  0  0  0  0
  189.7880  176.9940  140.9500 O   0  0  0  0  0  1  0  0  0  0  0  0
  189.8020  177.3470  142.3010 C   0  0  2  0  0  3  0  0  0  0  0  0
  191.0950  176.8500  142.9370 C   0  0  0  0  0  2  0  0  0  0  0  0
  191.6990  177.8980  143.8600 C   0  0  1  0  0  3  0  0  0  0  0  0
  191.1990  179.1540  143.5090 O   0  0  0  0  0  1  0  0  0  0  0  0
  191.3320  177.5860  145.3050 C   0  0  0  0  0  2  0  0  0  0  0  0
  191.6810  176.1480  145.6370 C   0  0  0  0  0  1  0  0  0  0  0  0
  186.4230  178.6840  139.2660 C   0  0  0  0  0  2  0  0  0  0  0  0
  186.7830  177.2560  138.8850 C   0  0  0  0  0  2  0  0  0  0  0  0
  187.1130  177.1780  137.4030 C   0  0  0  0  0  2  0  0  0  0  0  0
  188.7660  173.2320  136.8400 C   0  0  0  0  0  2  0  0  0  0  0  0
  187.1800  175.0940  136.0500 C   0  0  1  0  0  3  0  0  0  0  0  0
  190.0830  173.8100  136.3600 C   0  0  0  0  0  2  0  0  0  0  0  0
  189.7650  177.5110  137.0750 O   0  0  0  0  0  1  0  0  0  0  0  0
  187.9310  175.9250  137.0950 C   0  0  1  0  0  3  0  0  0  0  0  0
  187.6570  173.6420  135.8890 C   0  0  2  0  0  3  0  0  0  0  0  0
  186.4250  173.9520  136.7130 C   0  0  0  0  0  2  0  0  0  0  0  0
  190.3680  175.1900  136.9650 C   0  0  2  0  0  3  0  0  0  0  0  0
  189.3410  176.2730  136.5780 C   0  0  2  0  0  3  0  0  0  0  0  0
  194.6430  174.9850  136.2390 C   0  0  1  0  0  3  0  0  0  0  0  0
  192.7330  175.3670  137.8110 C   0  0  0  0  0  2  0  0  0  0  0  0
  194.1820  175.7380  137.4940 C   0  0  1  0  0  3  0  0  0  0  0  0
  191.8000  175.6250  136.6230 C   0  0  1  0  0  3  0  0  0  0  0  0
  192.3120  174.9350  135.3490 C   0  0  0  0  0  2  0  0  0  0  0  0
  194.9760  175.3620  138.5850 O   0  0  0  0  0  1  0  0  0  0  0  0
  193.7480  175.3480  135.0600 C   0  0  0  0  0  2  0  0  0  0  0  0
  196.0870  175.3150  135.8670 C   0  0  0  0  0  2  0  0  0  0  0  0
  198.1310  175.4600  137.7360 O   0  0  0  0  0  1  0  0  0  0  0  0
  197.0370  174.1260  136.0520 C   0  0  1  0  0  0  0  0  0  0  0  0
  198.5020  174.2860  135.7050 C   0  0  0  0  0  2  0  0  0  0  0  0
  198.0780  174.1870  137.1630 C   0  0  1  0  0  3  0  0  0  0  0  0
  196.5350  172.8440  135.8160 O   0  0  0  0  0  1  0  0  0  0  0  0
  181.3650  177.9320  140.8290 S   0  0  0  0  0  0  0  0  0  0  0  0
  178.9330  175.8800  136.6070 C   0  0  0  0  0  2  0  0  0  0  0  0
  181.4180  176.3180  138.4920 C   0  0  1  0  0  0  0  0  0  0  0  0
  179.7750  176.4760  135.4810 C   0  0  0  0  0  2  0  0  0  0  0  0
  181.1630  177.5570  136.0160 S   0  0  0  0  0  0  0  0  0  0  0  0
  180.8450  174.9360  138.1700 C   0  0  1  0  0  3  0  0  0  0  0  0
  180.8400  177.5940  137.8090 C   0  0  1  0  0  3  0  0  0  0  0  0
  180.4810  175.6630  139.4640 C   0  0  1  0  0  3  0  0  0  0  0  0
  181.7380  176.3570  139.9870 C   0  0  2  0  0  3  0  0  0  0  0  0
  179.5980  174.6980  137.2940 C   0  0  0  0  0  2  0  0  0  0  0  0
  179.4880  178.2580  138.1370 C   0  0  0  0  0  3  0  0  0  0  0  0
  179.2050  179.2250  137.1870 F   0  0  0  0  0  0  0  0  0  0  0  0
  179.3820  178.7930  139.4040 F   0  0  0  0  0  0  0  0  0  0  0  0
  1  4  1  0  0  0  0
  2  4  2  0  0  0  0
  3  5  2  0  0  0  0
  3  2  1  0  0  0  0
  4  6  1  0  0  0  0
  5  1  1  0  0  0  0
  6  7  1  0  0  0  0
  7  8  2  0  0  0  0
  8  9  1  0  0  0  0
  9 11  2  0  0  0  0
 10  9  1  0  0  0  0
 10 13  1  0  0  0  0
 12 13  1  0  0  0  0
 14 10  1  0  0  0  0
 15 14  1  0  0  0  0
 16 15  1  0  0  0  0
 18 17  1  6  0  0  0
 18 19  1  0  0  0  0
 18 16  1  0  0  0  0
 19 20  1  0  0  0  0
 20 21  1  6  0  0  0
 20 22  1  0  0  0  0
 22 23  1  0  0  0  0
 24  5  1  0  0  0  0
 25 24  1  0  0  0  0
 26 25  1  0  0  0  0
 28 33  1  1  0  0  0
 28 31  1  0  0  0  0
 29 27  1  0  0  0  0
 31 26  1  6  0  0  0
 32 28  1  0  0  0  0
 32 33  1  1  0  0  0
 32 27  1  0  0  0  0
 34 29  1  6  0  0  0
 35 34  1  0  0  0  0
 35 30  1  1  0  0  0
 35 31  1  0  0  0  0
 36 43  1  6  0  0  0
 36 38  1  0  0  0  0
 38 37  1  0  0  0  0
 38 41  1  1  0  0  0
 39 40  1  6  0  0  0
 39 34  1  0  0  0  0
 39 37  1  0  0  0  0
 42 40  1  0  0  0  0
 42 36  1  0  0  0  0
 43 45  1  0  0  0  0
 45 48  1  6  0  0  0
 45 47  1  0  0  0  0
 46 45  1  0  0  0  0
 46 47  1  0  0  0  0
 47 44  1  1  0  0  0
 49  2  1  0  0  0  0
 50 58  1  0  0  0  0
 51 56  1  0  0  0  0
 51 57  1  0  0  0  0
 52 53  1  0  0  0  0
 52 50  1  0  0  0  0
 53 55  1  0  0  0  0
 54 51  1  0  0  0  0
 54 56  1  0  0  0  0
 55 59  1  0  0  0  0
 55 51  1  0  0  0  0
 56 57  1  0  0  0  0
 57 49  1  0  0  0  0
 58 54  1  0  0  0  0
 59 61  1  0  0  0  0
 60 59  1  0  0  0  0
M  END
>  <MODEL>
3

>  <REMARK>
 VINA RESULT:      -7.0      1.872      2.574
  Name = 
  21 active torsions:
  status: ('A' for Active; 'I' for Inactive)
    1  A    between atoms: C_2  and  C_50
    2  A    between atoms: C_3  and  C_8
    3  A    between atoms: C_4  and  N_57
    4  A    between atoms: C_5  and  C_27
    5  A    between atoms: C_5  and  C_45
    6  A    between atoms: C_8  and  C_14
    7  A    between atoms: C_13  and  C_50
    8  A    between atoms: C_14  and  C_27
    9  A    between atoms: C_20  and  C_33
   10  A    between atoms: C_21  and  S_51
   11  A    between atoms: C_22  and  C_47
   12  A    between atoms: C_24  and  C_28
   13  A    between atoms: C_28  and  C_52
   14  A    between atoms: N_29  and  C_37
   15  A    between atoms: N_29  and  C_39
   16  A    between atoms: C_31  and  C_43
   17  A    between atoms: C_33  and  C_40
   18  A    between atoms: C_37  and  C_45
   19  A    between atoms: C_38  and  C_52
   20  A    between atoms: C_38  and  C_55
   21  A    between atoms: C_48  and  S_51
                            x       y       z     vdW  Elec       q    Type
                         _______ _______ _______ _____ _____    ______ ____

>  <TORSDO>
F 21

$$$$
=
 OpenBabel11042411353D

 61 68  0  0  1  0  0  0  0  0999 V2000
  186.4410  178.4700  141.9470 S   0  0  0  0  0  0  0  0  0  0  0  0
  184.4240  178.8390  140.5150 C   0  0  0  0  0  0  0  0  0  0  0  0
  185.4590  178.5150  139.6290 C   0  0  0  0  0  3  0  0  0  0  0  0
  184.8110  178.8730  141.8510 C   0  0  0  0  0  0  0  0  0  0  0  0
  186.6620  178.2900  140.2890 C   0  0  0  0  0  0  0  0  0  0  0  0
  183.9200  179.1780  143.0140 C   0  0  0  0  0  2  0  0  0  0  0  0
  184.7310  179.3940  144.2450 C   0  0  0  0  0  3  0  0  0  0  0  0
  184.9170  178.4200  145.0760 N   0  0  0  0  0  0  0  0  0  0  0  0
  185.7080  178.5700  146.2600 C   0  0  0  0  0  0  0  0  0  0  0  0
  187.0430  178.0590  146.2980 N   0  0  0  0  0  0  0  0  0  0  0  0
  185.2260  179.1350  147.2840 O   0  0  0  0  0  0  0  0  0  0  0  0
  188.1690  177.2890  148.1900 O   0  0  0  0  0  1  0  0  0  0  0  0
  187.9390  178.4130  147.3940 C   0  0  0  0  0  2  0  0  0  0  0  0
  187.4910  177.0920  145.3050 C   0  0  0  0  0  2  0  0  0  0  0  0
  188.8910  177.4640  144.8170 C   0  0  0  0  0  2  0  0  0  0  0  0
  189.8950  176.3730  145.1670 C   0  0  0  0  0  2  0  0  0  0  0  0
  191.6620  177.5590  146.2410 O   0  0  0  0  0  1  0  0  0  0  0  0
  191.3210  176.9030  145.0570 C   0  0  2  0  0  3  0  0  0  0  0  0
  191.4350  177.8790  143.8910 C   0  0  0  0  0  2  0  0  0  0  0  0
  191.7680  177.1580  142.5930 C   0  0  1  0  0  3  0  0  0  0  0  0
  191.3400  175.8310  142.6880 O   0  0  0  0  0  1  0  0  0  0  0  0
  191.0640  177.8400  141.4280 C   0  0  0  0  0  2  0  0  0  0  0  0
  191.5560  177.2710  140.1110 C   0  0  0  0  0  1  0  0  0  0  0  0
  187.9350  177.8780  139.6280 C   0  0  0  0  0  2  0  0  0  0  0  0
  188.3870  178.9450  138.6440 C   0  0  0  0  0  2  0  0  0  0  0  0
  187.8900  178.6140  137.2460 C   0  0  0  0  0  2  0  0  0  0  0  0
  187.2690  174.3520  136.9820 C   0  0  0  0  0  2  0  0  0  0  0  0
  186.7060  176.7190  136.1550 C   0  0  1  0  0  3  0  0  0  0  0  0
  188.6040  174.1610  136.2920 C   0  0  0  0  0  2  0  0  0  0  0  0
  190.2710  177.5440  136.5850 O   0  0  0  0  0  1  0  0  0  0  0  0
  187.9230  177.1060  137.0020 C   0  0  1  0  0  3  0  0  0  0  0  0
  186.3720  175.2200  136.1180 C   0  0  2  0  0  3  0  0  0  0  0  0
  185.6010  176.1500  137.0310 C   0  0  0  0  0  2  0  0  0  0  0  0
  189.6240  175.2340  136.6900 C   0  0  2  0  0  3  0  0  0  0  0  0
  189.2190  176.6680  136.2920 C   0  0  2  0  0  3  0  0  0  0  0  0
  193.8180  174.1190  136.5800 C   0  0  1  0  0  3  0  0  0  0  0  0
  192.0530  175.8940  136.5990 C   0  0  0  0  0  2  0  0  0  0  0  0
  193.4590  175.5370  136.1160 C   0  0  1  0  0  3  0  0  0  0  0  0
  191.0100  174.8680  136.1400 C   0  0  1  0  0  3  0  0  0  0  0  0
  191.4170  173.4410  136.5360 C   0  0  0  0  0  2  0  0  0  0  0  0
  194.3570  176.4550  136.6750 O   0  0  0  0  0  1  0  0  0  0  0  0
  192.8120  173.1210  136.0190 C   0  0  0  0  0  2  0  0  0  0  0  0
  195.2150  173.7010  136.1260 C   0  0  0  0  0  2  0  0  0  0  0  0
  195.6480  170.9680  136.3190 O   0  0  0  0  0  1  0  0  0  0  0  0
  196.0720  173.1440  137.2680 C   0  0  1  0  0  0  0  0  0  0  0  0
  195.4310  172.2490  138.3080 C   0  0  0  0  0  2  0  0  0  0  0  0
  196.3890  171.6540  137.2850 C   0  0  1  0  0  3  0  0  0  0  0  0
  197.1010  173.9460  137.7670 O   0  0  0  0  0  1  0  0  0  0  0  0
  182.7520  179.1550  139.9580 S   0  0  0  0  0  0  0  0  0  0  0  0
  179.1170  177.6450  136.4300 C   0  0  0  0  0  2  0  0  0  0  0  0
  181.9850  178.6340  137.2730 C   0  0  1  0  0  0  0  0  0  0  0  0
  179.0130  178.9080  135.5760 C   0  0  0  0  0  2  0  0  0  0  0  0
  180.1030  180.2990  136.0820 S   0  0  0  0  0  0  0  0  0  0  0  0
  181.7420  177.3400  136.4940 C   0  0  1  0  0  3  0  0  0  0  0  0
  180.8020  179.5910  137.6090 C   0  0  1  0  0  3  0  0  0  0  0  0
  181.9470  177.3270  138.0090 C   0  0  1  0  0  3  0  0  0  0  0  0
  183.0350  178.3460  138.3480 C   0  0  2  0  0  3  0  0  0  0  0  0
  180.3460  176.8070  136.1160 C   0  0  0  0  0  2  0  0  0  0  0  0
  179.7190  179.3440  138.6780 C   0  0  0  0  0  3  0  0  0  0  0  0
  179.7050  180.3970  139.5760 F   0  0  0  0  0  0  0  0  0  0  0  0
  179.8160  178.1450  139.3540 F   0  0  0  0  0  0  0  0  0  0  0  0
  2  4  2  0  0  0  0
  3  5  2  0  0  0  0
  3  2  1  0  0  0  0
  4  1  1  0  0  0  0
  4  6  1  0  0  0  0
  5  1  1  0  0  0  0
  6  7  1  0  0  0  0
  7  8  2  0  0  0  0
  8  9  1  0  0  0  0
  9 10  1  0  0  0  0
  9 11  2  0  0  0  0
 10 13  1  0  0  0  0
 13 12  1  0  0  0  0
 14 10  1  0  0  0  0
 15 16  1  0  0  0  0
 15 14  1  0  0  0  0
 18 16  1  0  0  0  0
 18 17  1  1  0  0  0
 19 18  1  0  0  0  0
 20 21  1  1  0  0  0
 20 19  1  0  0  0  0
 22 20  1  0  0  0  0
 23 22  1  0  0  0  0
 24  5  1  0  0  0  0
 25 24  1  0  0  0  0
 26 25  1  0  0  0  0
 28 31  1  0  0  0  0
 28 33  1  1  0  0  0
 29 27  1  0  0  0  0
 31 26  1  6  0  0  0
 32 28  1  0  0  0  0
 32 27  1  1  0  0  0
 32 33  1  0  0  0  0
 34 29  1  6  0  0  0
 35 30  1  1  0  0  0
 35 34  1  0  0  0  0
 35 31  1  0  0  0  0
 36 43  1  6  0  0  0
 38 36  1  0  0  0  0
 38 37  1  0  0  0  0
 38 41  1  1  0  0  0
 39 40  1  1  0  0  0
 39 37  1  0  0  0  0
 39 34  1  0  0  0  0
 42 40  1  0  0  0  0
 42 36  1  0  0  0  0
 43 45  1  0  0  0  0
 45 47  1  0  0  0  0
 45 48  1  1  0  0  0
 45 46  1  0  0  0  0
 47 44  1  6  0  0  0
 47 46  1  0  0  0  0
 49  2  1  0  0  0  0
 51 55  1  0  0  0  0
 51 56  1  0  0  0  0
 51 57  1  0  0  0  0
 52 53  1  0  0  0  0
 52 50  1  0  0  0  0
 53 55  1  0  0  0  0
 54 51  1  0  0  0  0
 54 56  1  0  0  0  0
 55 59  1  0  0  0  0
 56 57  1  0  0  0  0
 57 49  1  0  0  0  0
 58 50  1  0  0  0  0
 58 54  1  0  0  0  0
 59 61  1  0  0  0  0
 59 60  1  0  0  0  0
M  END
>  <MODEL>
4

>  <REMARK>
 VINA RESULT:      -6.4      1.651      2.395
  Name = 
  21 active torsions:
  status: ('A' for Active; 'I' for Inactive)
    1  A    between atoms: C_2  and  C_50
    2  A    between atoms: C_3  and  C_8
    3  A    between atoms: C_4  and  N_57
    4  A    between atoms: C_5  and  C_27
    5  A    between atoms: C_5  and  C_45
    6  A    between atoms: C_8  and  C_14
    7  A    between atoms: C_13  and  C_50
    8  A    between atoms: C_14  and  C_27
    9  A    between atoms: C_20  and  C_33
   10  A    between atoms: C_21  and  S_51
   11  A    between atoms: C_22  and  C_47
   12  A    between atoms: C_24  and  C_28
   13  A    between atoms: C_28  and  C_52
   14  A    between atoms: N_29  and  C_37
   15  A    between atoms: N_29  and  C_39
   16  A    between atoms: C_31  and  C_43
   17  A    between atoms: C_33  and  C_40
   18  A    between atoms: C_37  and  C_45
   19  A    between atoms: C_38  and  C_52
   20  A    between atoms: C_38  and  C_55
   21  A    between atoms: C_48  and  S_51
                            x       y       z     vdW  Elec       q    Type
                         _______ _______ _______ _____ _____    ______ ____

>  <TORSDO>
F 21

$$$$
=
 OpenBabel11042411353D

 61 68  0  0  1  0  0  0  0  0999 V2000
  189.0140  176.6820  136.4760 S   0  0  0  0  0  0  0  0  0  0  0  0
  188.8520  177.8480  138.6830 C   0  0  0  0  0  0  0  0  0  0  0  0
  187.6250  178.0770  138.0470 C   0  0  0  0  0  3  0  0  0  0  0  0
  189.7500  177.0960  137.9310 C   0  0  0  0  0  0  0  0  0  0  0  0
  187.5720  177.4890  136.7870 C   0  0  0  0  0  0  0  0  0  0  0  0
  191.1250  176.6900  138.3580 C   0  0  0  0  0  2  0  0  0  0  0  0
  191.7810  175.8820  137.2910 C   0  0  0  0  0  3  0  0  0  0  0  0
  191.8250  174.5940  137.3910 N   0  0  0  0  0  0  0  0  0  0  0  0
  192.4220  173.7720  136.3830 C   0  0  0  0  0  0  0  0  0  0  0  0
  193.6740  173.1260  136.6330 N   0  0  0  0  0  0  0  0  0  0  0  0
  191.8590  173.6260  135.2590 O   0  0  0  0  0  0  0  0  0  0  0  0
  194.7930  171.0870  136.4570 O   0  0  0  0  0  1  0  0  0  0  0  0
  194.1720  172.1010  135.7240 C   0  0  0  0  0  2  0  0  0  0  0  0
  194.5200  173.5610  137.7370 C   0  0  0  0  0  2  0  0  0  0  0  0
  195.0980  174.9420  137.4310 C   0  0  0  0  0  2  0  0  0  0  0  0
  196.3630  174.8260  136.5910 C   0  0  0  0  0  2  0  0  0  0  0  0
  197.9530  173.0920  136.9750 O   0  0  0  0  0  1  0  0  0  0  0  0
  197.5290  174.3370  137.4440 C   0  0  2  0  0  3  0  0  0  0  0  0
  197.1010  174.2060  138.9010 C   0  0  0  0  0  2  0  0  0  0  0  0
  198.0250  174.9880  139.8240 C   0  0  1  0  0  3  0  0  0  0  0  0
  198.6410  176.0070  139.0920 O   0  0  0  0  0  1  0  0  0  0  0  0
  197.2210  175.5930  140.9670 C   0  0  0  0  0  2  0  0  0  0  0  0
  198.1010  175.7720  142.1900 C   0  0  0  0  0  1  0  0  0  0  0  0
  186.3840  177.5120  135.8840 C   0  0  0  0  0  2  0  0  0  0  0  0
  185.2030  176.8210  136.5480 C   0  0  0  0  0  2  0  0  0  0  0  0
  183.8970  177.4180  136.0470 C   0  0  0  0  0  2  0  0  0  0  0  0
  180.2970  176.6090  138.2830 C   0  0  0  0  0  2  0  0  0  0  0  0
  182.4040  175.7330  137.1010 C   0  0  1  0  0  3  0  0  0  0  0  0
  180.9280  177.1260  139.5610 C   0  0  0  0  0  2  0  0  0  0  0  0
  184.1710  178.6930  138.4030 O   0  0  0  0  0  1  0  0  0  0  0  0
  182.7820  177.2180  137.0710 C   0  0  1  0  0  3  0  0  0  0  0  0
  181.0720  175.4010  137.7890 C   0  0  2  0  0  3  0  0  0  0  0  0
  181.1500  175.4820  136.2790 C   0  0  0  0  0  2  0  0  0  0  0  0
  181.9980  178.1910  139.2920 C   0  0  2  0  0  3  0  0  0  0  0  0
  183.2050  177.6820  138.4790 C   0  0  2  0  0  3  0  0  0  0  0  0
  183.0710  178.6120  143.4780 C   0  0  1  0  0  3  0  0  0  0  0  0
  181.3390  178.6900  141.6710 C   0  0  0  0  0  2  0  0  0  0  0  0
  181.7610  179.2700  143.0210 C   0  0  1  0  0  3  0  0  0  0  0  0
  182.4410  178.8320  140.6150 C   0  0  1  0  0  3  0  0  0  0  0  0
  183.7710  178.2440  141.1110 C   0  0  0  0  0  2  0  0  0  0  0  0
  180.7490  178.9930  143.9490 O   0  0  0  0  0  1  0  0  0  0  0  0
  184.1630  178.8630  142.4450 C   0  0  0  0  0  2  0  0  0  0  0  0
  183.5470  179.1520  144.8240 C   0  0  0  0  0  2  0  0  0  0  0  0
  184.2600  178.0750  147.2790 O   0  0  0  0  0  1  0  0  0  0  0  0
  185.0160  178.8200  145.1140 C   0  0  1  0  0  0  0  0  0  0  0  0
  185.7480  179.5800  146.1990 C   0  0  0  0  0  2  0  0  0  0  0  0
  185.3640  178.1240  146.4230 C   0  0  1  0  0  3  0  0  0  0  0  0
  185.8260  178.4430  144.0400 O   0  0  0  0  0  1  0  0  0  0  0  0
  189.2040  178.4600  140.3280 S   0  0  0  0  0  0  0  0  0  0  0  0
  191.6820  176.8200  144.7000 C   0  0  0  0  0  2  0  0  0  0  0  0
  189.3600  176.7280  142.5740 C   0  0  1  0  0  0  0  0  0  0  0  0
  190.6090  177.0970  145.7520 C   0  0  0  0  0  2  0  0  0  0  0  0
  189.0420  177.8150  145.1140 S   0  0  0  0  0  0  0  0  0  0  0  0
  190.2450  175.5230  142.8990 C   0  0  1  0  0  3  0  0  0  0  0  0
  189.5110  178.0590  143.3700 C   0  0  1  0  0  3  0  0  0  0  0  0
  190.5250  176.4080  141.6840 C   0  0  1  0  0  3  0  0  0  0  0  0
  189.1840  176.7870  141.0560 C   0  0  2  0  0  3  0  0  0  0  0  0
  191.4220  175.5560  143.8940 C   0  0  0  0  0  2  0  0  0  0  0  0
  190.6640  179.0730  143.2210 C   0  0  0  0  0  3  0  0  0  0  0  0
  191.8080  178.4150  142.8020 F   0  0  0  0  0  0  0  0  0  0  0  0
  190.9360  179.8300  144.3430 F   0  0  0  0  0  0  0  0  0  0  0  0
  1  5  1  0  0  0  0
  1  4  1  0  0  0  0
  2 49  1  0  0  0  0
  3  2  1  0  0  0  0
  4  6  1  0  0  0  0
  4  2  2  0  0  0  0
  5  3  2  0  0  0  0
  7  8  2  0  0  0  0
  7  6  1  0  0  0  0
  9 10  1  0  0  0  0
  9  8  1  0  0  0  0
 10 14  1  0  0  0  0
 11  9  2  0  0  0  0
 13 12  1  0  0  0  0
 13 10  1  0  0  0  0
 15 14  1  0  0  0  0
 16 15  1  0  0  0  0
 16 18  1  0  0  0  0
 18 17  1  6  0  0  0
 18 19  1  0  0  0  0
 19 20  1  0  0  0  0
 20 21  1  6  0  0  0
 20 22  1  0  0  0  0
 22 23  1  0  0  0  0
 24 25  1  0  0  0  0
 24  5  1  0  0  0  0
 26 25  1  0  0  0  0
 27 29  1  0  0  0  0
 28 33  1  6  0  0  0
 28 32  1  0  0  0  0
 31 26  1  6  0  0  0
 31 28  1  0  0  0  0
 31 35  1  0  0  0  0
 32 33  1  6  0  0  0
 32 27  1  0  0  0  0
 34 29  1  1  0  0  0
 34 39  1  0  0  0  0
 35 30  1  6  0  0  0
 35 34  1  0  0  0  0
 36 43  1  1  0  0  0
 37 38  1  0  0  0  0
 38 36  1  0  0  0  0
 38 41  1  1  0  0  0
 39 40  1  1  0  0  0
 39 37  1  0  0  0  0
 40 42  1  0  0  0  0
 42 36  1  0  0  0  0
 43 45  1  0  0  0  0
 45 48  1  6  0  0  0
 45 46  1  0  0  0  0
 45 47  1  0  0  0  0
 46 47  1  0  0  0  0
 47 44  1  1  0  0  0
 49 57  1  0  0  0  0
 50 52  1  0  0  0  0
 51 54  1  0  0  0  0
 51 55  1  0  0  0  0
 53 52  1  0  0  0  0
 54 58  1  0  0  0  0
 55 53  1  0  0  0  0
 56 51  1  0  0  0  0
 56 54  1  0  0  0  0
 57 56  1  0  0  0  0
 57 51  1  0  0  0  0
 58 50  1  0  0  0  0
 59 55  1  0  0  0  0
 59 61  1  0  0  0  0
 60 59  1  0  0  0  0
M  END
>  <MODEL>
5

>  <REMARK>
 VINA RESULT:      -6.2      4.185     10.769
  Name = 
  21 active torsions:
  status: ('A' for Active; 'I' for Inactive)
    1  A    between atoms: C_2  and  C_50
    2  A    between atoms: C_3  and  C_8
    3  A    between atoms: C_4  and  N_57
    4  A    between atoms: C_5  and  C_27
    5  A    between atoms: C_5  and  C_45
    6  A    between atoms: C_8  and  C_14
    7  A    between atoms: C_13  and  C_50
    8  A    between atoms: C_14  and  C_27
    9  A    between atoms: C_20  and  C_33
   10  A    between atoms: C_21  and  S_51
   11  A    between atoms: C_22  and  C_47
   12  A    between atoms: C_24  and  C_28
   13  A    between atoms: C_28  and  C_52
   14  A    between atoms: N_29  and  C_37
   15  A    between atoms: N_29  and  C_39
   16  A    between atoms: C_31  and  C_43
   17  A    between atoms: C_33  and  C_40
   18  A    between atoms: C_37  and  C_45
   19  A    between atoms: C_38  and  C_52
   20  A    between atoms: C_38  and  C_55
   21  A    between atoms: C_48  and  S_51
                            x       y       z     vdW  Elec       q    Type
                         _______ _______ _______ _____ _____    ______ ____

>  <TORSDO>
F 21

$$$$
=
 OpenBabel11042411353D

 61 68  0  0  1  0  0  0  0  0999 V2000
  188.0060  175.7740  136.3090 S   0  0  0  0  0  0  0  0  0  0  0  0
  189.0170  177.3100  138.0050 C   0  0  0  0  0  0  0  0  0  0  0  0
  187.9350  178.0130  137.4600 C   0  0  0  0  0  3  0  0  0  0  0  0
  189.2050  176.0440  137.4580 C   0  0  0  0  0  0  0  0  0  0  0  0
  187.2740  177.2790  136.4810 C   0  0  0  0  0  0  0  0  0  0  0  0
  190.2700  175.0690  137.8500 C   0  0  0  0  0  2  0  0  0  0  0  0
  190.8250  174.3950  136.6430 C   0  0  0  0  0  3  0  0  0  0  0  0
  191.5880  173.3600  136.7750 N   0  0  0  0  0  0  0  0  0  0  0  0
  192.1280  172.6630  135.6460 C   0  0  0  0  0  0  0  0  0  0  0  0
  193.5170  172.3270  135.6100 N   0  0  0  0  0  0  0  0  0  0  0  0
  191.3850  172.3570  134.6690 O   0  0  0  0  0  0  0  0  0  0  0  0
  195.0730  170.6550  135.1340 O   0  0  0  0  0  1  0  0  0  0  0  0
  194.0300  171.4120  134.5950 C   0  0  0  0  0  2  0  0  0  0  0  0
  194.4570  172.9770  136.5130 C   0  0  0  0  0  2  0  0  0  0  0  0
  194.8750  174.3300  135.9360 C   0  0  0  0  0  2  0  0  0  0  0  0
  196.2070  174.2200  135.2070 C   0  0  0  0  0  2  0  0  0  0  0  0
  197.5060  176.1830  135.5880 O   0  0  0  0  0  1  0  0  0  0  0  0
  197.3190  174.8700  136.0250 C   0  0  2  0  0  3  0  0  0  0  0  0
  198.6210  174.0950  135.8580 C   0  0  0  0  0  2  0  0  0  0  0  0
  198.7310  172.9660  136.8730 C   0  0  1  0  0  3  0  0  0  0  0  0
  198.1380  173.3740  138.0710 O   0  0  0  0  0  1  0  0  0  0  0  0
  198.0190  171.7270  136.3460 C   0  0  0  0  0  2  0  0  0  0  0  0
  199.0310  170.6900  135.8980 C   0  0  0  0  0  1  0  0  0  0  0  0
  186.0540  177.7330  135.7510 C   0  0  0  0  0  2  0  0  0  0  0  0
  184.9420  176.7060  135.8900 C   0  0  0  0  0  2  0  0  0  0  0  0
  183.6050  177.4040  136.0830 C   0  0  0  0  0  2  0  0  0  0  0  0
  181.1280  175.4990  139.0580 C   0  0  0  0  0  2  0  0  0  0  0  0
  183.0860  175.3600  137.3990 C   0  0  1  0  0  3  0  0  0  0  0  0
  181.8030  176.2720  140.1720 C   0  0  0  0  0  2  0  0  0  0  0  0
  183.9290  178.8180  138.3520 O   0  0  0  0  0  1  0  0  0  0  0  0
  182.8930  176.8790  137.3280 C   0  0  1  0  0  3  0  0  0  0  0  0
  182.1490  174.6170  138.3630 C   0  0  2  0  0  3  0  0  0  0  0  0
  181.8520  174.6380  136.8780 C   0  0  0  0  0  2  0  0  0  0  0  0
  182.3350  177.6300  139.6990 C   0  0  2  0  0  3  0  0  0  0  0  0
  183.4290  177.5360  138.6150 C   0  0  2  0  0  3  0  0  0  0  0  0
  183.7030  178.6180  143.6980 C   0  0  1  0  0  3  0  0  0  0  0  0
  181.8270  178.3010  142.0720 C   0  0  0  0  0  2  0  0  0  0  0  0
  182.2870  179.0670  143.3120 C   0  0  1  0  0  3  0  0  0  0  0  0
  182.8070  178.4560  140.9040 C   0  0  1  0  0  3  0  0  0  0  0  0
  184.2380  178.0840  141.3210 C   0  0  0  0  0  2  0  0  0  0  0  0
  181.4020  178.7760  144.3570 O   0  0  0  0  0  1  0  0  0  0  0  0
  184.6620  178.8830  142.5440 C   0  0  0  0  0  2  0  0  0  0  0  0
  184.2220  179.3510  144.9340 C   0  0  0  0  0  2  0  0  0  0  0  0
  186.1150  180.2370  146.7580 O   0  0  0  0  0  1  0  0  0  0  0  0
  184.7410  178.3990  146.0180 C   0  0  1  0  0  0  0  0  0  0  0  0
  186.1970  177.9840  146.0070 C   0  0  0  0  0  2  0  0  0  0  0  0
  185.6920  178.9430  147.0760 C   0  0  1  0  0  3  0  0  0  0  0  0
  183.8730  177.4120  146.4910 O   0  0  0  0  0  1  0  0  0  0  0  0
  190.0410  177.9900  139.3060 S   0  0  0  0  0  0  0  0  0  0  0  0
  189.5210  176.4500  144.3360 C   0  0  0  0  0  2  0  0  0  0  0  0
  188.9480  178.3630  141.9010 C   0  0  1  0  0  0  0  0  0  0  0  0
  190.0930  177.6660  145.0630 C   0  0  0  0  0  2  0  0  0  0  0  0
  190.6660  179.0370  143.9820 S   0  0  0  0  0  0  0  0  0  0  0  0
  187.8430  177.6440  142.6780 C   0  0  1  0  0  3  0  0  0  0  0  0
  190.4350  178.2520  142.3530 C   0  0  1  0  0  3  0  0  0  0  0  0
  188.3740  177.0890  141.3560 C   0  0  1  0  0  3  0  0  0  0  0  0
  188.6160  178.2660  140.4120 C   0  0  2  0  0  3  0  0  0  0  0  0
  188.1000  176.6610  143.8380 C   0  0  0  0  0  2  0  0  0  0  0  0
  191.3410  177.0170  142.1770 C   0  0  0  0  0  3  0  0  0  0  0  0
  192.4470  177.3580  141.4170 F   0  0  0  0  0  0  0  0  0  0  0  0
  190.7260  175.9020  141.6440 F   0  0  0  0  0  0  0  0  0  0  0  0
  1  5  1  0  0  0  0
  1  4  1  0  0  0  0
  2 49  1  0  0  0  0
  3  2  1  0  0  0  0
  4  6  1  0  0  0  0
  4  2  2  0  0  0  0
  5  3  2  0  0  0  0
  7  8  2  0  0  0  0
  7  6  1  0  0  0  0
  9  8  1  0  0  0  0
 10  9  1  0  0  0  0
 10 14  1  0  0  0  0
 11  9  2  0  0  0  0
 13 12  1  0  0  0  0
 13 10  1  0  0  0  0
 15 14  1  0  0  0  0
 16 15  1  0  0  0  0
 16 18  1  0  0  0  0
 18 17  1  6  0  0  0
 19 18  1  0  0  0  0
 19 20  1  0  0  0  0
 20 21  1  1  0  0  0
 22 20  1  0  0  0  0
 23 22  1  0  0  0  0
 24 25  1  0  0  0  0
 24  5  1  0  0  0  0
 25 26  1  0  0  0  0
 27 29  1  0  0  0  0
 28 33  1  6  0  0  0
 28 32  1  0  0  0  0
 31 26  1  6  0  0  0
 31 28  1  0  0  0  0
 31 35  1  0  0  0  0
 32 33  1  6  0  0  0
 32 27  1  0  0  0  0
 34 29  1  1  0  0  0
 34 39  1  0  0  0  0
 35 30  1  6  0  0  0
 35 34  1  0  0  0  0
 36 43  1  1  0  0  0
 37 38  1  0  0  0  0
 38 36  1  0  0  0  0
 38 41  1  1  0  0  0
 39 40  1  1  0  0  0
 39 37  1  0  0  0  0
 40 42  1  0  0  0  0
 42 36  1  0  0  0  0
 43 45  1  0  0  0  0
 45 48  1  1  0  0  0
 45 47  1  0  0  0  0
 46 45  1  0  0  0  0
 46 47  1  0  0  0  0
 47 44  1  6  0  0  0
 49 57  1  0  0  0  0
 50 52  1  0  0  0  0
 51 55  1  0  0  0  0
 51 54  1  0  0  0  0
 53 52  1  0  0  0  0
 54 58  1  0  0  0  0
 55 53  1  0  0  0  0
 56 51  1  0  0  0  0
 56 54  1  0  0  0  0
 57 56  1  0  0  0  0
 57 51  1  0  0  0  0
 58 50  1  0  0  0  0
 59 55  1  0  0  0  0
 60 59  1  0  0  0  0
 61 59  1  0  0  0  0
M  END
>  <MODEL>
6

>  <REMARK>
 VINA RESULT:      -6.2      4.448     10.922
  Name = 
  21 active torsions:
  status: ('A' for Active; 'I' for Inactive)
    1  A    between atoms: C_2  and  C_50
    2  A    between atoms: C_3  and  C_8
    3  A    between atoms: C_4  and  N_57
    4  A    between atoms: C_5  and  C_27
    5  A    between atoms: C_5  and  C_45
    6  A    between atoms: C_8  and  C_14
    7  A    between atoms: C_13  and  C_50
    8  A    between atoms: C_14  and  C_27
    9  A    between atoms: C_20  and  C_33
   10  A    between atoms: C_21  and  S_51
   11  A    between atoms: C_22  and  C_47
   12  A    between atoms: C_24  and  C_28
   13  A    between atoms: C_28  and  C_52
   14  A    between atoms: N_29  and  C_37
   15  A    between atoms: N_29  and  C_39
   16  A    between atoms: C_31  and  C_43
   17  A    between atoms: C_33  and  C_40
   18  A    between atoms: C_37  and  C_45
   19  A    between atoms: C_38  and  C_52
   20  A    between atoms: C_38  and  C_55
   21  A    between atoms: C_48  and  S_51
                            x       y       z     vdW  Elec       q    Type
                         _______ _______ _______ _____ _____    ______ ____

>  <TORSDO>
F 21

$$$$
=
 OpenBabel11042411353D

 61 68  0  0  1  0  0  0  0  0999 V2000
  189.4970  177.5950  139.8140 S   0  0  0  0  0  0  0  0  0  0  0  0
  187.1650  178.5000  139.8630 C   0  0  0  0  0  0  0  0  0  0  0  0
  187.4640  178.3070  138.5080 C   0  0  0  0  0  3  0  0  0  0  0  0
  188.2030  178.1640  140.7270 C   0  0  0  0  0  0  0  0  0  0  0  0
  188.7500  177.8110  138.3220 C   0  0  0  0  0  0  0  0  0  0  0  0
  188.1650  178.2560  142.2200 C   0  0  0  0  0  2  0  0  0  0  0  0
  189.4670  177.8210  142.7980 C   0  0  0  0  0  3  0  0  0  0  0  0
  189.5180  176.7840  143.5690 N   0  0  0  0  0  0  0  0  0  0  0  0
  190.7470  176.3120  144.1310 C   0  0  0  0  0  0  0  0  0  0  0  0
  191.1390  176.7220  145.4440 N   0  0  0  0  0  0  0  0  0  0  0  0
  191.5020  175.5460  143.4650 O   0  0  0  0  0  0  0  0  0  0  0  0
  192.4100  176.6160  147.3960 O   0  0  0  0  0  1  0  0  0  0  0  0
  192.2520  176.0660  146.1220 C   0  0  0  0  0  2  0  0  0  0  0  0
  190.5070  177.8720  146.0760 C   0  0  0  0  0  2  0  0  0  0  0  0
  189.3610  177.4030  146.9720 C   0  0  0  0  0  2  0  0  0  0  0  0
  189.0740  178.4250  148.0640 C   0  0  0  0  0  2  0  0  0  0  0  0
  187.3540  178.0070  149.6610 O   0  0  0  0  0  1  0  0  0  0  0  0
  187.5800  178.4790  148.3670 C   0  0  2  0  0  3  0  0  0  0  0  0
  186.8070  177.6170  147.3760 C   0  0  0  0  0  2  0  0  0  0  0  0
  185.6980  178.4070  146.6970 C   0  0  1  0  0  3  0  0  0  0  0  0
  185.6450  179.6870  147.2560 O   0  0  0  0  0  1  0  0  0  0  0  0
  185.9780  178.5130  145.2040 C   0  0  0  0  0  2  0  0  0  0  0  0
  184.8460  179.2450  144.5080 C   0  0  0  0  0  1  0  0  0  0  0  0
  189.3450  177.4560  137.0000 C   0  0  0  0  0  2  0  0  0  0  0  0
  188.2480  177.1290  135.9990 C   0  0  0  0  0  2  0  0  0  0  0  0
  188.7340  176.0760  135.0150 C   0  0  0  0  0  2  0  0  0  0  0  0
  188.2640  171.9580  136.2160 C   0  0  0  0  0  2  0  0  0  0  0  0
  188.8720  174.3790  136.8270 C   0  0  1  0  0  3  0  0  0  0  0  0
  186.7540  172.0820  136.1910 C   0  0  0  0  0  2  0  0  0  0  0  0
  186.1470  175.4580  134.5940 O   0  0  0  0  0  1  0  0  0  0  0  0
  188.2810  174.6820  135.4460 C   0  0  1  0  0  3  0  0  0  0  0  0
  188.8320  172.9050  137.2580 C   0  0  2  0  0  3  0  0  0  0  0  0
  190.1080  173.5010  136.7010 C   0  0  0  0  0  2  0  0  0  0  0  0
  186.2730  173.1340  135.1830 C   0  0  2  0  0  3  0  0  0  0  0  0
  186.7440  174.5680  135.4960 C   0  0  2  0  0  3  0  0  0  0  0  0
  182.0980  172.4760  136.1710 C   0  0  1  0  0  3  0  0  0  0  0  0
  184.2610  171.6220  135.2430 C   0  0  0  0  0  2  0  0  0  0  0  0
  182.7380  171.5140  135.1600 C   0  0  1  0  0  3  0  0  0  0  0  0
  184.7470  173.0610  135.0400 C   0  0  1  0  0  3  0  0  0  0  0  0
  184.0410  174.0310  136.0000 C   0  0  0  0  0  2  0  0  0  0  0  0
  182.3770  170.1980  135.4720 O   0  0  0  0  0  1  0  0  0  0  0  0
  182.5300  173.9050  135.8700 C   0  0  0  0  0  2  0  0  0  0  0  0
  180.5720  172.4160  136.1360 C   0  0  0  0  0  2  0  0  0  0  0  0
  179.0290  174.7170  136.2770 O   0  0  0  0  0  1  0  0  0  0  0  0
  179.9290  172.8220  137.4670 C   0  0  1  0  0  0  0  0  0  0  0  0
  180.3670  174.1040  138.1430 C   0  0  0  0  0  2  0  0  0  0  0  0
  178.9940  174.0250  137.4910 C   0  0  1  0  0  3  0  0  0  0  0  0
  179.5680  171.8070  138.3560 O   0  0  0  0  0  1  0  0  0  0  0  0
  185.5720  179.1030  140.4130 S   0  0  0  0  0  0  0  0  0  0  0  0
  180.7180  177.1130  139.7660 C   0  0  0  0  0  2  0  0  0  0  0  0
  183.2300  178.7720  138.8410 C   0  0  1  0  0  0  0  0  0  0  0  0
  179.9050  178.3980  139.6150 C   0  0  0  0  0  2  0  0  0  0  0  0
  180.8700  179.9600  139.7080 S   0  0  0  0  0  0  0  0  0  0  0  0
  182.6690  177.5910  138.0470 C   0  0  1  0  0  3  0  0  0  0  0  0
  182.5070  179.2780  140.1260 C   0  0  1  0  0  3  0  0  0  0  0  0
  183.8640  177.4200  138.9840 C   0  0  1  0  0  3  0  0  0  0  0  0
  184.7540  178.6550  138.8450 C   0  0  2  0  0  3  0  0  0  0  0  0
  181.4750  176.7290  138.5040 C   0  0  0  0  0  2  0  0  0  0  0  0
  182.5030  178.5700  141.4950 C   0  0  0  0  0  3  0  0  0  0  0  0
  182.2560  179.4960  142.4950 F   0  0  0  0  0  0  0  0  0  0  0  0
  183.6380  177.8440  141.7910 F   0  0  0  0  0  0  0  0  0  0  0  0
  1  4  1  0  0  0  0
  2 49  1  0  0  0  0
  2  4  2  0  0  0  0
  3  2  1  0  0  0  0
  4  6  1  0  0  0  0
  5  3  2  0  0  0  0
  5  1  1  0  0  0  0
  6  7  1  0  0  0  0
  7  8  2  0  0  0  0
  8  9  1  0  0  0  0
  9 10  1  0  0  0  0
 10 14  1  0  0  0  0
 10 13  1  0  0  0  0
 11  9  2  0  0  0  0
 13 12  1  0  0  0  0
 14 15  1  0  0  0  0
 15 16  1  0  0  0  0
 16 18  1  0  0  0  0
 18 17  1  1  0  0  0
 19 18  1  0  0  0  0
 20 21  1  1  0  0  0
 20 19  1  0  0  0  0
 22 20  1  0  0  0  0
 23 22  1  0  0  0  0
 24  5  1  0  0  0  0
 25 24  1  0  0  0  0
 26 25  1  0  0  0  0
 28 33  1  6  0  0  0
 28 32  1  0  0  0  0
 29 27  1  0  0  0  0
 31 26  1  1  0  0  0
 31 35  1  0  0  0  0
 31 28  1  0  0  0  0
 32 27  1  6  0  0  0
 33 32  1  0  0  0  0
 34 35  1  0  0  0  0
 34 29  1  1  0  0  0
 35 30  1  6  0  0  0
 36 43  1  6  0  0  0
 38 37  1  0  0  0  0
 38 41  1  1  0  0  0
 38 36  1  0  0  0  0
 39 34  1  0  0  0  0
 39 37  1  1  0  0  0
 39 40  1  0  0  0  0
 42 40  1  0  0  0  0
 42 36  1  0  0  0  0
 43 45  1  0  0  0  0
 45 47  1  0  0  0  0
 45 46  1  0  0  0  0
 45 48  1  1  0  0  0
 47 44  1  6  0  0  0
 47 46  1  0  0  0  0
 51 57  1  0  0  0  0
 51 56  1  0  0  0  0
 51 55  1  0  0  0  0
 52 53  1  0  0  0  0
 52 50  1  0  0  0  0
 53 55  1  0  0  0  0
 54 58  1  0  0  0  0
 54 51  1  0  0  0  0
 54 56  1  0  0  0  0
 55 59  1  0  0  0  0
 57 56  1  0  0  0  0
 57 49  1  0  0  0  0
 58 50  1  0  0  0  0
 59 61  1  0  0  0  0
 59 60  1  0  0  0  0
M  END
>  <MODEL>
7

>  <REMARK>
 VINA RESULT:      -5.9      3.655      7.842
  Name = 
  21 active torsions:
  status: ('A' for Active; 'I' for Inactive)
    1  A    between atoms: C_2  and  C_50
    2  A    between atoms: C_3  and  C_8
    3  A    between atoms: C_4  and  N_57
    4  A    between atoms: C_5  and  C_27
    5  A    between atoms: C_5  and  C_45
    6  A    between atoms: C_8  and  C_14
    7  A    between atoms: C_13  and  C_50
    8  A    between atoms: C_14  and  C_27
    9  A    between atoms: C_20  and  C_33
   10  A    between atoms: C_21  and  S_51
   11  A    between atoms: C_22  and  C_47
   12  A    between atoms: C_24  and  C_28
   13  A    between atoms: C_28  and  C_52
   14  A    between atoms: N_29  and  C_37
   15  A    between atoms: N_29  and  C_39
   16  A    between atoms: C_31  and  C_43
   17  A    between atoms: C_33  and  C_40
   18  A    between atoms: C_37  and  C_45
   19  A    between atoms: C_38  and  C_52
   20  A    between atoms: C_38  and  C_55
   21  A    between atoms: C_48  and  S_51
                            x       y       z     vdW  Elec       q    Type
                         _______ _______ _______ _____ _____    ______ ____

>  <TORSDO>
F 21

$$$$
=
 OpenBabel11042411353D

 61 68  0  0  1  0  0  0  0  0999 V2000
  190.5370  176.9420  138.9740 S   0  0  0  0  0  0  0  0  0  0  0  0
  188.3620  177.5690  137.9090 C   0  0  0  0  0  0  0  0  0  0  0  0
  188.2650  177.9950  139.2400 C   0  0  0  0  0  3  0  0  0  0  0  0
  189.5660  176.9440  137.6000 C   0  0  0  0  0  0  0  0  0  0  0  0
  189.4120  177.7000  139.9690 C   0  0  0  0  0  0  0  0  0  0  0  0
  189.9530  176.4000  136.2600 C   0  0  0  0  0  2  0  0  0  0  0  0
  189.0680  175.2590  135.8900 C   0  0  0  0  0  3  0  0  0  0  0  0
  189.1120  174.1610  136.5710 N   0  0  0  0  0  0  0  0  0  0  0  0
  188.2660  173.0450  136.2700 C   0  0  0  0  0  0  0  0  0  0  0  0
  188.7740  171.9460  135.5090 N   0  0  0  0  0  0  0  0  0  0  0  0
  187.0620  173.0320  136.6590 O   0  0  0  0  0  0  0  0  0  0  0  0
  188.8950  169.6280  135.2810 O   0  0  0  0  0  1  0  0  0  0  0  0
  188.0150  170.7050  135.4040 C   0  0  0  0  0  2  0  0  0  0  0  0
  190.0020  172.0880  134.7380 C   0  0  0  0  0  2  0  0  0  0  0  0
  191.0700  172.7730  135.5900 C   0  0  0  0  0  2  0  0  0  0  0  0
  192.4170  172.0790  135.4330 C   0  0  0  0  0  2  0  0  0  0  0  0
  194.4760  172.9370  134.5940 O   0  0  0  0  0  1  0  0  0  0  0  0
  193.5570  173.0720  135.6370 C   0  0  2  0  0  3  0  0  0  0  0  0
  194.2590  172.8070  136.9630 C   0  0  0  0  0  2  0  0  0  0  0  0
  195.0230  174.0340  137.4430 C   0  0  1  0  0  3  0  0  0  0  0  0
  194.1840  175.1490  137.3660 O   0  0  0  0  0  1  0  0  0  0  0  0
  195.4740  173.8310  138.8830 C   0  0  0  0  0  2  0  0  0  0  0  0
  196.9870  173.8760  138.9710 C   0  0  0  0  0  1  0  0  0  0  0  0
  189.6350  178.0700  141.3970 C   0  0  0  0  0  2  0  0  0  0  0  0
  190.4720  177.0080  142.0920 C   0  0  0  0  0  2  0  0  0  0  0  0
  189.5690  176.0210  142.8160 C   0  0  0  0  0  2  0  0  0  0  0  0
  188.4890  177.2620  146.8050 C   0  0  0  0  0  2  0  0  0  0  0  0
  190.1280  177.3690  144.8280 C   0  0  1  0  0  3  0  0  0  0  0  0
  187.3980  178.1680  146.2690 C   0  0  0  0  0  2  0  0  0  0  0  0
  187.1960  177.2750  142.5990 O   0  0  0  0  0  1  0  0  0  0  0  0
  189.0000  176.6410  144.0910 C   0  0  1  0  0  3  0  0  0  0  0  0
  189.8370  177.7360  146.2910 C   0  0  2  0  0  3  0  0  0  0  0  0
  190.6680  176.5130  145.9640 C   0  0  0  0  0  2  0  0  0  0  0  0
  186.8250  177.6650  144.9380 C   0  0  2  0  0  3  0  0  0  0  0  0
  187.8510  177.6220  143.7870 C   0  0  2  0  0  3  0  0  0  0  0  0
  182.8110  178.6360  143.6030 C   0  0  1  0  0  3  0  0  0  0  0  0
  185.2320  178.2660  143.0840 C   0  0  0  0  0  2  0  0  0  0  0  0
  183.9710  179.0280  142.6760 C   0  0  1  0  0  3  0  0  0  0  0  0
  185.5860  178.4880  144.5580 C   0  0  1  0  0  3  0  0  0  0  0  0
  184.3940  178.1720  145.4740 C   0  0  0  0  0  2  0  0  0  0  0  0
  183.6570  178.6770  141.3580 O   0  0  0  0  0  1  0  0  0  0  0  0
  183.1680  178.9660  145.0470 C   0  0  0  0  0  2  0  0  0  0  0  0
  181.5180  179.3670  143.2470 C   0  0  0  0  0  2  0  0  0  0  0  0
  179.0380  180.0470  142.2080 O   0  0  0  0  0  1  0  0  0  0  0  0
  180.2630  178.6250  143.7210 C   0  0  1  0  0  0  0  0  0  0  0  0
  179.1960  179.3810  144.4830 C   0  0  0  0  0  2  0  0  0  0  0  0
  178.9310  178.9380  143.0510 C   0  0  1  0  0  3  0  0  0  0  0  0
  180.4000  177.2910  144.1110 O   0  0  0  0  0  1  0  0  0  0  0  0
  187.0490  177.8360  136.7220 S   0  0  0  0  0  0  0  0  0  0  0  0
  181.8660  176.8010  136.7760 C   0  0  0  0  0  2  0  0  0  0  0  0
  184.6480  177.3300  138.1530 C   0  0  1  0  0  0  0  0  0  0  0  0
  181.8570  175.4460  137.4820 C   0  0  0  0  0  2  0  0  0  0  0  0
  183.5060  174.8010  137.9790 S   0  0  0  0  0  0  0  0  0  0  0  0
  183.4040  178.1770  138.4280 C   0  0  1  0  0  3  0  0  0  0  0  0
  184.5660  176.0790  137.2280 C   0  0  1  0  0  3  0  0  0  0  0  0
  184.4730  178.6370  137.4360 C   0  0  1  0  0  3  0  0  0  0  0  0
  185.8410  178.2780  138.0150 C   0  0  2  0  0  3  0  0  0  0  0  0
  182.0460  177.9730  137.7280 C   0  0  0  0  0  2  0  0  0  0  0  0
  184.4410  176.1000  135.6920 C   0  0  0  0  0  3  0  0  0  0  0  0
  185.4980  175.4030  135.1310 F   0  0  0  0  0  0  0  0  0  0  0  0
  184.3450  177.3530  135.1220 F   0  0  0  0  0  0  0  0  0  0  0  0
  1  5  1  0  0  0  0
  2  3  1  0  0  0  0
  3  5  2  0  0  0  0
  4  2  2  0  0  0  0
  4  1  1  0  0  0  0
  5 24  1  0  0  0  0
  6  4  1  0  0  0  0
  7  6  1  0  0  0  0
  7  8  2  0  0  0  0
  9  8  1  0  0  0  0
  9 11  2  0  0  0  0
 10  9  1  0  0  0  0
 12 13  1  0  0  0  0
 13 10  1  0  0  0  0
 14 10  1  0  0  0  0
 14 15  1  0  0  0  0
 16 15  1  0  0  0  0
 16 18  1  0  0  0  0
 18 17  1  6  0  0  0
 18 19  1  0  0  0  0
 19 20  1  0  0  0  0
 20 21  1  1  0  0  0
 20 22  1  0  0  0  0
 22 23  1  0  0  0  0
 24 25  1  0  0  0  0
 25 26  1  0  0  0  0
 28 33  1  1  0  0  0
 28 32  1  0  0  0  0
 29 27  1  0  0  0  0
 31 26  1  6  0  0  0
 31 28  1  0  0  0  0
 32 33  1  1  0  0  0
 32 27  1  0  0  0  0
 34 29  1  1  0  0  0
 35 30  1  6  0  0  0
 35 31  1  0  0  0  0
 35 34  1  0  0  0  0
 36 43  1  6  0  0  0
 36 42  1  0  0  0  0
 38 41  1  6  0  0  0
 38 37  1  0  0  0  0
 38 36  1  0  0  0  0
 39 37  1  6  0  0  0
 39 34  1  0  0  0  0
 39 40  1  0  0  0  0
 42 40  1  0  0  0  0
 43 45  1  0  0  0  0
 45 48  1  1  0  0  0
 45 46  1  0  0  0  0
 47 44  1  6  0  0  0
 47 45  1  0  0  0  0
 47 46  1  0  0  0  0
 49  2  1  0  0  0  0
 49 57  1  0  0  0  0
 50 52  1  0  0  0  0
 50 58  1  0  0  0  0
 51 54  1  0  0  0  0
 52 53  1  0  0  0  0
 55 53  1  0  0  0  0
 55 51  1  0  0  0  0
 56 57  1  0  0  0  0
 56 51  1  0  0  0  0
 56 54  1  0  0  0  0
 57 51  1  0  0  0  0
 58 54  1  0  0  0  0
 59 55  1  0  0  0  0
 60 59  1  0  0  0  0
 61 59  1  0  0  0  0
M  END
>  <MODEL>
8

>  <REMARK>
 VINA RESULT:      -5.9      3.609     10.360
  Name = 
  21 active torsions:
  status: ('A' for Active; 'I' for Inactive)
    1  A    between atoms: C_2  and  C_50
    2  A    between atoms: C_3  and  C_8
    3  A    between atoms: C_4  and  N_57
    4  A    between atoms: C_5  and  C_27
    5  A    between atoms: C_5  and  C_45
    6  A    between atoms: C_8  and  C_14
    7  A    between atoms: C_13  and  C_50
    8  A    between atoms: C_14  and  C_27
    9  A    between atoms: C_20  and  C_33
   10  A    between atoms: C_21  and  S_51
   11  A    between atoms: C_22  and  C_47
   12  A    between atoms: C_24  and  C_28
   13  A    between atoms: C_28  and  C_52
   14  A    between atoms: N_29  and  C_37
   15  A    between atoms: N_29  and  C_39
   16  A    between atoms: C_31  and  C_43
   17  A    between atoms: C_33  and  C_40
   18  A    between atoms: C_37  and  C_45
   19  A    between atoms: C_38  and  C_52
   20  A    between atoms: C_38  and  C_55
   21  A    between atoms: C_48  and  S_51
                            x       y       z     vdW  Elec       q    Type
                         _______ _______ _______ _____ _____    ______ ____

>  <TORSDO>
F 21

$$$$
=
 OpenBabel11042411353D

 61 68  0  0  1  0  0  0  0  0999 V2000
  185.0420  178.5110  139.3340 S   0  0  0  0  0  0  0  0  0  0  0  0
  187.0300  178.7250  140.8370 C   0  0  0  0  0  0  0  0  0  0  0  0
  185.9130  178.8780  141.6680 C   0  0  0  0  0  3  0  0  0  0  0  0
  186.7170  178.5280  139.4960 C   0  0  0  0  0  0  0  0  0  0  0  0
  184.7190  178.7930  140.9610 C   0  0  0  0  0  0  0  0  0  0  0  0
  187.7010  178.3240  138.3870 C   0  0  0  0  0  2  0  0  0  0  0  0
  187.4830  177.0010  137.7380 C   0  0  0  0  0  3  0  0  0  0  0  0
  188.0700  176.7250  136.6200 N   0  0  0  0  0  0  0  0  0  0  0  0
  187.9120  175.4600  135.9680 C   0  0  0  0  0  0  0  0  0  0  0  0
  189.0610  174.6640  135.6620 N   0  0  0  0  0  0  0  0  0  0  0  0
  186.7620  175.0470  135.6420 O   0  0  0  0  0  0  0  0  0  0  0  0
  188.7160  172.4590  136.3400 O   0  0  0  0  0  1  0  0  0  0  0  0
  188.9070  173.2810  135.2270 C   0  0  0  0  0  2  0  0  0  0  0  0
  190.3920  175.2560  135.6740 C   0  0  0  0  0  2  0  0  0  0  0  0
  191.2010  174.6850  136.8380 C   0  0  0  0  0  2  0  0  0  0  0  0
  191.5860  175.7830  137.8200 C   0  0  0  0  0  2  0  0  0  0  0  0
  193.5730  177.0880  137.9980 O   0  0  0  0  0  1  0  0  0  0  0  0
  193.0920  175.7790  138.0620 C   0  0  2  0  0  3  0  0  0  0  0  0
  193.7970  174.9330  137.0080 C   0  0  0  0  0  2  0  0  0  0  0  0
  195.1820  174.5060  137.4720 C   0  0  1  0  0  3  0  0  0  0  0  0
  195.0640  173.8250  138.6860 O   0  0  0  0  0  1  0  0  0  0  0  0
  195.8160  173.5920  136.4320 C   0  0  0  0  0  2  0  0  0  0  0  0
  194.8130  173.2610  135.3430 C   0  0  0  0  0  1  0  0  0  0  0  0
  183.3580  178.8660  141.5700 C   0  0  0  0  0  2  0  0  0  0  0  0
  182.3830  178.0000  140.7870 C   0  0  0  0  0  2  0  0  0  0  0  0
  181.0590  178.7280  140.6150 C   0  0  0  0  0  2  0  0  0  0  0  0
  180.1040  180.4490  136.7750 C   0  0  0  0  0  2  0  0  0  0  0  0
  181.6940  180.2890  138.7880 C   0  0  1  0  0  3  0  0  0  0  0  0
  180.4790  179.1640  136.0630 C   0  0  0  0  0  2  0  0  0  0  0  0
  180.9690  176.6780  138.8720 O   0  0  0  0  0  1  0  0  0  0  0  0
  180.8220  179.0830  139.1480 C   0  0  1  0  0  3  0  0  0  0  0  0
  181.3250  181.0090  137.4820 C   0  0  2  0  0  3  0  0  0  0  0  0
  180.8750  181.5710  138.8150 C   0  0  0  0  0  2  0  0  0  0  0  0
  180.2690  177.9270  136.9450 C   0  0  2  0  0  3  0  0  0  0  0  0
  181.1460  177.9010  138.2130 C   0  0  2  0  0  3  0  0  0  0  0  0
  181.3060  173.8500  135.8730 C   0  0  1  0  0  3  0  0  0  0  0  0
  181.9330  176.2690  136.0380 C   0  0  0  0  0  2  0  0  0  0  0  0
  182.1530  174.9730  135.2570 C   0  0  1  0  0  3  0  0  0  0  0  0
  180.4510  176.6520  136.1090 C   0  0  1  0  0  3  0  0  0  0  0  0
  179.5980  175.4950  136.6500 C   0  0  0  0  0  2  0  0  0  0  0  0
  183.5100  174.6380  135.3430 O   0  0  0  0  0  1  0  0  0  0  0  0
  179.8320  174.2330  135.8320 C   0  0  0  0  0  2  0  0  0  0  0  0
  181.4810  172.5250  135.1340 C   0  0  0  0  0  2  0  0  0  0  0  0
  184.0050  171.5100  134.5950 O   0  0  0  0  0  1  0  0  0  0  0  0
  182.0640  171.4200  136.0220 C   0  0  1  0  0  0  0  0  0  0  0  0
  182.3250  170.0520  135.4280 C   0  0  0  0  0  2  0  0  0  0  0  0
  183.4950  170.9610  135.7750 C   0  0  1  0  0  3  0  0  0  0  0  0
  181.6850  171.3920  137.3660 O   0  0  0  0  0  1  0  0  0  0  0  0
  188.7040  178.7610  141.4700 S   0  0  0  0  0  0  0  0  0  0  0  0
  192.0110  176.2830  144.7670 C   0  0  0  0  0  2  0  0  0  0  0  0
  189.2110  176.7400  143.4010 C   0  0  1  0  0  0  0  0  0  0  0  0
  191.3180  176.5380  146.1040 C   0  0  0  0  0  2  0  0  0  0  0  0
  189.7590  177.5090  146.0160 S   0  0  0  0  0  0  0  0  0  0  0  0
  189.9640  175.4100  143.3400 C   0  0  1  0  0  3  0  0  0  0  0  0
  189.7670  177.9280  144.2420 C   0  0  1  0  0  3  0  0  0  0  0  0
  190.0290  176.4110  142.1870 C   0  0  1  0  0  3  0  0  0  0  0  0
  188.6380  177.0200  142.0110 C   0  0  2  0  0  3  0  0  0  0  0  0
  191.3590  175.1760  143.9540 C   0  0  0  0  0  2  0  0  0  0  0  0
  190.9700  178.8140  143.8660 C   0  0  0  0  0  3  0  0  0  0  0  0
  190.5790  180.1420  143.8410 F   0  0  0  0  0  0  0  0  0  0  0  0
  191.6030  178.4850  142.6840 F   0  0  0  0  0  0  0  0  0  0  0  0
  1  4  1  0  0  0  0
  1  5  1  0  0  0  0
  2 49  1  0  0  0  0
  2  3  1  0  0  0  0
  4  2  2  0  0  0  0
  5 24  1  0  0  0  0
  5  3  2  0  0  0  0
  6  4  1  0  0  0  0
  7  6  1  0  0  0  0
  8  7  2  0  0  0  0
  9  8  1  0  0  0  0
 10 14  1  0  0  0  0
 10  9  1  0  0  0  0
 11  9  2  0  0  0  0
 13 10  1  0  0  0  0
 13 12  1  0  0  0  0
 14 15  1  0  0  0  0
 15 16  1  0  0  0  0
 16 18  1  0  0  0  0
 18 17  1  6  0  0  0
 19 20  1  0  0  0  0
 19 18  1  0  0  0  0
 20 21  1  1  0  0  0
 22 20  1  0  0  0  0
 23 22  1  0  0  0  0
 25 24  1  0  0  0  0
 26 25  1  0  0  0  0
 28 33  1  1  0  0  0
 28 31  1  0  0  0  0
 29 27  1  0  0  0  0
 31 26  1  1  0  0  0
 32 27  1  6  0  0  0
 32 28  1  0  0  0  0
 32 33  1  0  0  0  0
 34 29  1  6  0  0  0
 34 35  1  0  0  0  0
 35 30  1  1  0  0  0
 35 31  1  0  0  0  0
 36 43  1  6  0  0  0
 38 41  1  1  0  0  0
 38 36  1  0  0  0  0
 38 37  1  0  0  0  0
 39 37  1  1  0  0  0
 39 40  1  0  0  0  0
 39 34  1  0  0  0  0
 42 36  1  0  0  0  0
 42 40  1  0  0  0  0
 43 45  1  0  0  0  0
 45 48  1  1  0  0  0
 46 47  1  0  0  0  0
 46 45  1  0  0  0  0
 47 44  1  6  0  0  0
 47 45  1  0  0  0  0
 49 57  1  0  0  0  0
 50 52  1  0  0  0  0
 51 55  1  0  0  0  0
 53 52  1  0  0  0  0
 54 51  1  0  0  0  0
 54 58  1  0  0  0  0
 55 53  1  0  0  0  0
 56 54  1  0  0  0  0
 56 51  1  0  0  0  0
 57 56  1  0  0  0  0
 57 51  1  0  0  0  0
 58 50  1  0  0  0  0
 59 55  1  0  0  0  0
 60 59  1  0  0  0  0
 61 59  1  0  0  0  0
M  END
>  <MODEL>
9

>  <REMARK>
 VINA RESULT:      -5.9      4.254     10.434
  Name = 
  21 active torsions:
  status: ('A' for Active; 'I' for Inactive)
    1  A    between atoms: C_2  and  C_50
    2  A    between atoms: C_3  and  C_8
    3  A    between atoms: C_4  and  N_57
    4  A    between atoms: C_5  and  C_27
    5  A    between atoms: C_5  and  C_45
    6  A    between atoms: C_8  and  C_14
    7  A    between atoms: C_13  and  C_50
    8  A    between atoms: C_14  and  C_27
    9  A    between atoms: C_20  and  C_33
   10  A    between atoms: C_21  and  S_51
   11  A    between atoms: C_22  and  C_47
   12  A    between atoms: C_24  and  C_28
   13  A    between atoms: C_28  and  C_52
   14  A    between atoms: N_29  and  C_37
   15  A    between atoms: N_29  and  C_39
   16  A    between atoms: C_31  and  C_43
   17  A    between atoms: C_33  and  C_40
   18  A    between atoms: C_37  and  C_45
   19  A    between atoms: C_38  and  C_52
   20  A    between atoms: C_38  and  C_55
   21  A    between atoms: C_48  and  S_51
                            x       y       z     vdW  Elec       q    Type
                         _______ _______ _______ _____ _____    ______ ____

>  <TORSDO>
F 21

$$$$
