=
 OpenBabel11042411123D

 54 62  0  0  1  0  0  0  0  0999 V2000
  191.3180  175.7510  136.5790 C   0  0  1  0  0  0  0  0  0  0  0  0
  190.9560  174.0010  137.4800 C   0  0  0  0  0  2  0  0  0  0  0  0
  191.5290  176.1300  138.6650 C   0  0  1  0  0  3  0  0  0  0  0  0
  191.7250  174.4180  136.3790 O   0  0  0  0  0  0  0  0  0  0  0  0
  190.4920  175.4110  137.7860 C   0  0  1  0  0  3  0  0  0  0  0  0
  192.2600  176.6190  137.4150 C   0  0  1  0  0  3  0  0  0  0  0  0
  189.5520  176.7580  142.0010 N   0  0  0  0  0  0  0  0  0  0  0  0
  188.8730  179.0370  137.7480 C   0  0  0  0  0  1  0  0  0  0  0  0
  190.9870  177.3080  139.5030 C   0  0  2  0  0  3  0  0  0  0  0  0
  190.9250  176.2930  141.8440 C   0  0  1  0  0  3  0  0  0  0  0  0
  193.0190  177.0200  140.8490 O   0  0  0  0  0  1  0  0  0  0  0  0
  191.6460  177.2810  140.9130 C   0  0  1  0  0  3  0  0  0  0  0  0
  189.4390  177.2180  139.5830 C   0  0  2  0  0  3  0  0  0  0  0  0
  188.6980  178.4250  139.0950 C   0  0  0  0  0  0  0  0  0  0  0  0
  187.7650  178.8080  139.9090 N   0  0  0  0  0  0  0  0  0  0  0  0
  187.7880  178.0520  141.0880 N   0  0  0  0  0  2  0  0  0  0  0  0
  188.8730  177.1510  140.9660 C   0  0  0  0  0  0  0  0  0  0  0  0
  191.6040  176.2730  143.2060 C   0  0  0  0  0  2  0  0  0  0  0  0
  191.5250  177.6300  143.8960 C   0  0  0  0  0  2  0  0  0  0  0  0
  190.3120  176.9280  146.0380 C   0  0  0  0  0  3  0  0  0  0  0  0
  189.0490  177.2290  146.5220 C   0  0  0  0  0  3  0  0  0  0  0  0
  190.4220  177.7080  144.8990 C   0  0  0  0  0  0  0  0  0  0  0  0
  188.4800  178.1320  145.6980 N   0  0  0  0  0  0  0  0  0  0  0  0
  189.2940  178.4070  144.6920 N   0  0  0  0  0  0  0  0  0  0  0  0
  186.2690  178.0230  144.6130 C   0  0  0  0  0  2  0  0  0  0  0  0
  187.0850  178.5700  145.7780 C   0  0  1  0  0  3  0  0  0  0  0  0
  184.9380  178.3930  147.0680 C   0  0  0  0  0  3  0  0  0  0  0  0
  186.4230  178.1260  147.0850 C   0  0  0  0  0  2  0  0  0  0  0  0
  184.8910  178.6820  144.6570 C   0  0  0  0  0  2  0  0  0  0  0  0
  184.2780  178.5910  145.9750 N   0  0  0  0  0  0  0  0  0  0  0  0
  194.3480  176.6270  136.2630 O   0  0  0  0  0  1  0  0  0  0  0  0
  193.6980  176.1180  137.3860 C   0  0  0  0  0  2  0  0  0  0  0  0
  190.5910  176.3500  135.3770 C   0  0  0  0  0  2  0  0  0  0  0  0
  189.7550  175.3560  134.5940 C   0  0  0  0  0  2  0  0  0  0  0  0
  188.3000  175.7520  134.7480 C   0  0  0  0  0  2  0  0  0  0  0  0
  187.6610  174.9950  135.9000 C   0  0  0  0  0  2  0  0  0  0  0  0
  186.3730  174.3140  135.4530 C   0  0  0  0  0  2  0  0  0  0  0  0
  185.2790  174.4340  136.5190 C   0  0  2  0  0  3  0  0  0  0  0  0
  182.8250  171.8490  136.8820 C   0  0  0  0  0  2  0  0  0  0  0  0
  183.3860  171.3160  135.5930 C   0  0  0  0  0  2  0  0  0  0  0  0
  185.3410  172.6220  138.0910 O   0  0  0  0  0  1  0  0  0  0  0  0
  183.3440  173.1330  137.0940 O   0  0  0  0  0  0  0  0  0  0  0  0
  184.7370  173.0470  136.9040 C   0  0  1  0  0  0  0  0  0  0  0  0
  185.1050  171.8460  135.5730 S   0  0  0  0  0  0  0  0  0  0  0  0
  184.1660  175.3450  135.9970 C   0  0  0  0  0  2  0  0  0  0  0  0
  183.0870  177.6060  138.7030 C   0  0  1  0  0  3  0  0  0  0  0  0
  184.4390  178.2650  138.3410 C   0  0  0  0  0  2  0  0  0  0  0  0
  185.8610  177.6820  136.4840 O   0  0  0  0  0  0  0  0  0  0  0  0
  182.9030  176.3840  137.8980 N   0  0  0  0  0  2  0  0  0  0  0  0
  183.9170  176.4340  136.9340 N   0  0  0  0  0  0  0  0  0  0  0  0
  184.8340  177.4720  137.1780 C   0  0  0  0  0  0  0  0  0  0  0  0
  182.8320  177.2990  140.1900 C   0  0  0  0  0  3  0  0  0  0  0  0
  182.7750  178.5490  141.0490 C   0  0  0  0  0  2  0  0  0  0  0  0
  181.4920  177.8330  140.6700 C   0  0  0  0  0  2  0  0  0  0  0  0
  1 33  1  6  0  0  0
  1  6  1  0  0  0  0
  1  5  1  0  0  0  0
  3  9  1  6  0  0  0
  4  1  1  0  0  0  0
  4  2  1  0  0  0  0
  5  2  1  1  0  0  0
  5  3  1  0  0  0  0
  6 32  1  1  0  0  0
  6  3  1  0  0  0  0
  8 14  1  0  0  0  0
  9 13  1  0  0  0  0
  9 12  1  0  0  0  0
 10  7  1  0  0  0  0
 10 18  1  0  0  0  0
 11 12  1  0  0  0  0
 12 10  1  0  0  0  0
 13 17  1  0  0  0  0
 14 13  1  0  0  0  0
 14 15  2  0  0  0  0
 15 16  1  0  0  0  0
 17 16  1  0  0  0  0
 17  7  2  0  0  0  0
 18 19  1  0  0  0  0
 19 22  1  0  0  0  0
 20 21  2  0  0  0  0
 22 20  1  0  0  0  0
 23 26  1  0  0  0  0
 23 21  1  0  0  0  0
 24 22  2  0  0  0  0
 24 23  1  0  0  0  0
 25 29  1  0  0  0  0
 25 26  1  0  0  0  0
 26 28  1  0  0  0  0
 27 28  1  0  0  0  0
 29 30  1  0  0  0  0
 30 27  2  0  0  0  0
 31 32  1  0  0  0  0
 34 35  1  0  0  0  0
 34 33  1  0  0  0  0
 35 36  1  0  0  0  0
 37 36  1  0  0  0  0
 37 38  1  0  0  0  0
 38 43  1  0  0  0  0
 39 42  1  0  0  0  0
 40 39  1  0  0  0  0
 43 42  1  0  0  0  0
 43 41  1  0  0  0  0
 44 40  1  0  0  0  0
 44 43  1  0  0  0  0
 45 38  1  0  0  0  0
 45 50  1  0  0  0  0
 46 52  1  0  0  0  0
 47 46  1  0  0  0  0
 48 51  2  0  0  0  0
 49 46  1  0  0  0  0
 50 51  1  0  0  0  0
 50 49  1  0  0  0  0
 51 47  1  0  0  0  0
 52 54  1  0  0  0  0
 52 53  1  0  0  0  0
 54 53  1  0  0  0  0
M  END
>  <MODEL>
1

>  <REMARK>
 VINA RESULT:      -7.7      0.000      0.000
  Name = 
  16 active torsions:
  status: ('A' for Active; 'I' for Inactive)
    1  A    between atoms: C_4  and  C_23
    2  A    between atoms: C_6  and  C_19
    3  A    between atoms: C_6  and  C_44
    4  A    between atoms: C_10  and  N_46
    5  A    between atoms: C_12  and  C_20
    6  A    between atoms: C_14  and  C_37
    7  A    between atoms: C_14  and  C_45
    8  A    between atoms: C_16  and  C_32
    9  A    between atoms: C_17  and  C_45
   10  A    between atoms: C_19  and  C_32
   11  A    between atoms: C_24  and  C_53
   12  A    between atoms: C_25  and  C_36
   13  A    between atoms: C_29  and  C_36
   14  A    between atoms: C_29  and  N_42
   15  A    between atoms: C_30  and  C_36
   16  A    between atoms: C_30  and  C_44
                            x       y       z     vdW  Elec       q    Type
                         _______ _______ _______ _____ _____    ______ ____

>  <TORSDO>
F 16

$$$$
=
 OpenBabel11042411123D

 54 62  0  0  1  0  0  0  0  0999 V2000
  187.8570  177.8020  137.2470 C   0  0  1  0  0  0  0  0  0  0  0  0
  188.9370  179.4410  136.8570 C   0  0  0  0  0  2  0  0  0  0  0  0
  189.4510  177.7810  138.6590 C   0  0  1  0  0  3  0  0  0  0  0  0
  187.5670  179.1580  137.0000 O   0  0  0  0  0  0  0  0  0  0  0  0
  189.3400  178.0080  137.1420 C   0  0  1  0  0  3  0  0  0  0  0  0
  187.9720  177.4000  138.7170 C   0  0  1  0  0  3  0  0  0  0  0  0
  192.9810  177.1770  140.2730 N   0  0  0  0  0  0  0  0  0  0  0  0
  191.0400  174.7320  136.5320 C   0  0  0  0  0  1  0  0  0  0  0  0
  190.3570  176.6090  139.0910 C   0  0  2  0  0  3  0  0  0  0  0  0
  191.7780  177.6960  140.9130 C   0  0  1  0  0  3  0  0  0  0  0  0
  189.4820  177.0300  141.3450 O   0  0  0  0  0  1  0  0  0  0  0  0
  190.6340  176.7100  140.6200 C   0  0  1  0  0  3  0  0  0  0  0  0
  191.6690  176.6330  138.2600 C   0  0  2  0  0  3  0  0  0  0  0  0
  191.9710  175.3800  137.4970 C   0  0  0  0  0  0  0  0  0  0  0  0
  193.1960  174.9830  137.6430 N   0  0  0  0  0  0  0  0  0  0  0  0
  193.8710  175.7770  138.5790 N   0  0  0  0  0  2  0  0  0  0  0  0
  192.9310  176.7210  139.0580 C   0  0  0  0  0  0  0  0  0  0  0  0
  192.0110  177.7910  142.4130 C   0  0  0  0  0  2  0  0  0  0  0  0
  191.7920  176.4490  143.1040 C   0  0  0  0  0  2  0  0  0  0  0  0
  192.0520  176.0630  145.6200 C   0  0  0  0  0  3  0  0  0  0  0  0
  191.1890  176.2910  146.6810 C   0  0  0  0  0  3  0  0  0  0  0  0
  191.3800  176.5920  144.5310 C   0  0  0  0  0  0  0  0  0  0  0  0
  190.0900  176.9150  146.2110 N   0  0  0  0  0  0  0  0  0  0  0  0
  190.1830  177.0760  144.9010 N   0  0  0  0  0  0  0  0  0  0  0  0
  189.1770  178.0780  148.1830 C   0  0  0  0  0  2  0  0  0  0  0  0
  188.8800  177.1730  146.9940 C   0  0  1  0  0  3  0  0  0  0  0  0
  186.6270  178.2800  147.0040 C   0  0  0  0  0  3  0  0  0  0  0  0
  187.7830  177.8260  146.1480 C   0  0  0  0  0  2  0  0  0  0  0  0
  187.9220  178.1340  149.0530 C   0  0  0  0  0  2  0  0  0  0  0  0
  186.7290  178.4510  148.2820 N   0  0  0  0  0  0  0  0  0  0  0  0
  185.9050  178.5060  139.1530 O   0  0  0  0  0  1  0  0  0  0  0  0
  187.1990  178.3310  139.6420 C   0  0  0  0  0  2  0  0  0  0  0  0
  187.2070  176.8510  136.2430 C   0  0  0  0  0  2  0  0  0  0  0  0
  185.9990  177.4270  135.5280 C   0  0  0  0  0  2  0  0  0  0  0  0
  184.8420  176.4690  135.7300 C   0  0  0  0  0  2  0  0  0  0  0  0
  184.0120  176.8820  136.9340 C   0  0  0  0  0  2  0  0  0  0  0  0
  183.6420  175.6680  137.7780 C   0  0  0  0  0  2  0  0  0  0  0  0
  182.5840  176.0210  138.8290 C   0  0  2  0  0  3  0  0  0  0  0  0
  179.5470  175.8540  136.9340 C   0  0  0  0  0  2  0  0  0  0  0  0
  180.2480  174.7770  136.1530 C   0  0  0  0  0  2  0  0  0  0  0  0
  180.4990  175.0850  139.5600 O   0  0  0  0  0  1  0  0  0  0  0  0
  180.4880  176.4910  137.7530 O   0  0  0  0  0  0  0  0  0  0  0  0
  181.2040  175.4770  138.4190 C   0  0  1  0  0  0  0  0  0  0  0  0
  181.4110  174.0370  137.3080 S   0  0  0  0  0  0  0  0  0  0  0  0
  182.5520  177.5390  139.0200 C   0  0  0  0  0  2  0  0  0  0  0  0
  182.8170  178.3940  142.5980 C   0  0  1  0  0  3  0  0  0  0  0  0
  181.4010  178.9420  142.3060 C   0  0  0  0  0  2  0  0  0  0  0  0
  180.1510  178.6610  140.2650 O   0  0  0  0  0  0  0  0  0  0  0  0
  183.4160  177.8870  141.3480 N   0  0  0  0  0  2  0  0  0  0  0  0
  182.3610  177.8710  140.4280 N   0  0  0  0  0  0  0  0  0  0  0  0
  181.2070  178.5000  140.9260 C   0  0  0  0  0  0  0  0  0  0  0  0
  183.8040  179.3400  143.3060 C   0  0  0  0  0  3  0  0  0  0  0  0
  183.8000  179.1750  144.8140 C   0  0  0  0  0  2  0  0  0  0  0  0
  184.9340  178.5900  143.9920 C   0  0  0  0  0  2  0  0  0  0  0  0
  1 33  1  6  0  0  0
  1  6  1  0  0  0  0
  2  4  1  0  0  0  0
  3  6  1  0  0  0  0
  3  9  1  6  0  0  0
  4  1  1  0  0  0  0
  5  2  1  1  0  0  0
  5  1  1  0  0  0  0
  5  3  1  0  0  0  0
  6 32  1  1  0  0  0
  7 10  1  0  0  0  0
  8 14  1  0  0  0  0
  9 12  1  0  0  0  0
 10 18  1  0  0  0  0
 12 10  1  0  0  0  0
 12 11  1  0  0  0  0
 13 17  1  0  0  0  0
 13  9  1  0  0  0  0
 14 15  2  0  0  0  0
 14 13  1  0  0  0  0
 15 16  1  0  0  0  0
 16 17  1  0  0  0  0
 17  7  2  0  0  0  0
 18 19  1  0  0  0  0
 19 22  1  0  0  0  0
 20 21  2  0  0  0  0
 22 24  2  0  0  0  0
 22 20  1  0  0  0  0
 23 21  1  0  0  0  0
 23 26  1  0  0  0  0
 24 23  1  0  0  0  0
 25 29  1  0  0  0  0
 26 25  1  0  0  0  0
 27 30  2  0  0  0  0
 28 26  1  0  0  0  0
 28 27  1  0  0  0  0
 30 29  1  0  0  0  0
 31 32  1  0  0  0  0
 34 35  1  0  0  0  0
 34 33  1  0  0  0  0
 35 36  1  0  0  0  0
 36 37  1  0  0  0  0
 37 38  1  0  0  0  0
 38 45  1  0  0  0  0
 39 42  1  0  0  0  0
 40 39  1  0  0  0  0
 40 44  1  0  0  0  0
 42 43  1  0  0  0  0
 43 38  1  0  0  0  0
 43 41  1  0  0  0  0
 44 43  1  0  0  0  0
 45 50  1  0  0  0  0
 46 52  1  0  0  0  0
 47 46  1  0  0  0  0
 48 51  2  0  0  0  0
 49 46  1  0  0  0  0
 50 51  1  0  0  0  0
 50 49  1  0  0  0  0
 51 47  1  0  0  0  0
 52 54  1  0  0  0  0
 52 53  1  0  0  0  0
 54 53  1  0  0  0  0
M  END
>  <MODEL>
2

>  <REMARK>
 VINA RESULT:      -7.4      2.689      4.347
  Name = 
  16 active torsions:
  status: ('A' for Active; 'I' for Inactive)
    1  A    between atoms: C_4  and  C_23
    2  A    between atoms: C_6  and  C_19
    3  A    between atoms: C_6  and  C_44
    4  A    between atoms: C_10  and  N_46
    5  A    between atoms: C_12  and  C_20
    6  A    between atoms: C_14  and  C_37
    7  A    between atoms: C_14  and  C_45
    8  A    between atoms: C_16  and  C_32
    9  A    between atoms: C_17  and  C_45
   10  A    between atoms: C_19  and  C_32
   11  A    between atoms: C_24  and  C_53
   12  A    between atoms: C_25  and  C_36
   13  A    between atoms: C_29  and  C_36
   14  A    between atoms: C_29  and  N_42
   15  A    between atoms: C_30  and  C_36
   16  A    between atoms: C_30  and  C_44
                            x       y       z     vdW  Elec       q    Type
                         _______ _______ _______ _____ _____    ______ ____

>  <TORSDO>
F 16

$$$$
=
 OpenBabel11042411123D

 54 62  0  0  1  0  0  0  0  0999 V2000
  187.7900  177.3130  137.5210 C   0  0  1  0  0  0  0  0  0  0  0  0
  186.4880  178.6610  138.2230 C   0  0  0  0  0  2  0  0  0  0  0  0
  186.0280  177.0680  136.3470 C   0  0  1  0  0  3  0  0  0  0  0  0
  187.8470  178.6770  137.8640 O   0  0  0  0  0  0  0  0  0  0  0  0
  186.3290  177.2000  137.8490 C   0  0  1  0  0  3  0  0  0  0  0  0
  187.5260  177.0050  136.0470 C   0  0  1  0  0  3  0  0  0  0  0  0
  183.2950  174.5960  137.7050 N   0  0  0  0  0  0  0  0  0  0  0  0
  187.4740  173.3860  135.5110 C   0  0  0  0  0  1  0  0  0  0  0  0
  185.3090  175.7700  135.9250 C   0  0  2  0  0  3  0  0  0  0  0  0
  183.1100  175.9550  137.2090 C   0  0  1  0  0  3  0  0  0  0  0  0
  183.4970  177.2530  135.1920 O   0  0  0  0  0  1  0  0  0  0  0  0
  183.7790  176.0390  135.8260 C   0  0  1  0  0  3  0  0  0  0  0  0
  185.6370  174.6410  136.9410 C   0  0  2  0  0  3  0  0  0  0  0  0
  186.2470  173.4060  136.3550 C   0  0  0  0  0  0  0  0  0  0  0  0
  185.6870  172.3160  136.7800 N   0  0  0  0  0  0  0  0  0  0  0  0
  184.5760  172.6050  137.5830 N   0  0  0  0  0  2  0  0  0  0  0  0
  184.4520  174.0150  137.6050 C   0  0  0  0  0  0  0  0  0  0  0  0
  181.6220  176.2430  137.0840 C   0  0  0  0  0  2  0  0  0  0  0  0
  181.0240  176.7060  138.4080 C   0  0  0  0  0  2  0  0  0  0  0  0
  179.8970  178.8280  139.2900 C   0  0  0  0  0  3  0  0  0  0  0  0
  179.9080  180.1360  138.8310 C   0  0  0  0  0  3  0  0  0  0  0  0
  180.7940  178.1800  138.4570 C   0  0  0  0  0  0  0  0  0  0  0  0
  180.7660  180.2170  137.7940 N   0  0  0  0  0  0  0  0  0  0  0  0
  181.2870  179.0270  137.5400 N   0  0  0  0  0  0  0  0  0  0  0  0
  180.4030  181.1210  135.5300 C   0  0  0  0  0  2  0  0  0  0  0  0
  180.9250  181.3920  136.9360 C   0  0  1  0  0  3  0  0  0  0  0  0
  180.1830  183.7530  136.5110 C   0  0  0  0  0  3  0  0  0  0  0  0
  180.1930  182.6130  137.4990 C   0  0  0  0  0  2  0  0  0  0  0  0
  180.7850  182.3120  134.6510 C   0  0  0  0  0  2  0  0  0  0  0  0
  180.4040  183.5830  135.2480 N   0  0  0  0  0  0  0  0  0  0  0  0
  189.2100  177.8640  134.5940 O   0  0  0  0  0  1  0  0  0  0  0  0
  187.9520  178.1410  135.1260 C   0  0  0  0  0  2  0  0  0  0  0  0
  188.7580  176.4440  138.3220 C   0  0  0  0  0  2  0  0  0  0  0  0
  189.7230  177.2260  139.1940 C   0  0  0  0  0  2  0  0  0  0  0  0
  189.1230  177.3160  140.5830 C   0  0  0  0  0  2  0  0  0  0  0  0
  190.2160  177.2870  141.6380 C   0  0  0  0  0  2  0  0  0  0  0  0
  189.7560  176.5240  142.8740 C   0  0  0  0  0  2  0  0  0  0  0  0
  189.1060  177.4600  143.8980 C   0  0  2  0  0  3  0  0  0  0  0  0
  190.4480  177.1790  147.2090 C   0  0  0  0  0  2  0  0  0  0  0  0
  191.4200  176.2120  146.5920 C   0  0  0  0  0  2  0  0  0  0  0  0
  190.4200  179.1080  145.0480 O   0  0  0  0  0  1  0  0  0  0  0  0
  189.4360  177.4450  146.2780 O   0  0  0  0  0  0  0  0  0  0  0  0
  190.0730  177.7530  145.0600 C   0  0  1  0  0  0  0  0  0  0  0  0
  191.5850  176.7370  144.8800 S   0  0  0  0  0  0  0  0  0  0  0  0
  187.8040  176.8310  144.4000 C   0  0  0  0  0  2  0  0  0  0  0  0
  185.0030  178.5450  142.7210 C   0  0  1  0  0  3  0  0  0  0  0  0
  184.5350  178.6640  144.1900 C   0  0  0  0  0  2  0  0  0  0  0  0
  185.8020  178.0590  146.1480 O   0  0  0  0  0  0  0  0  0  0  0  0
  186.2510  177.7600  142.6640 N   0  0  0  0  0  2  0  0  0  0  0  0
  186.6600  177.6420  143.9980 N   0  0  0  0  0  0  0  0  0  0  0  0
  185.6890  178.1120  144.8980 C   0  0  0  0  0  0  0  0  0  0  0  0
  183.9890  177.9930  141.7030 C   0  0  0  0  0  3  0  0  0  0  0  0
  182.6870  178.7730  141.6850 C   0  0  0  0  0  2  0  0  0  0  0  0
  183.7050  178.9750  140.5780 C   0  0  0  0  0  2  0  0  0  0  0  0
  1  5  1  0  0  0  0
  1  4  1  0  0  0  0
  1 33  1  1  0  0  0
  3  9  1  1  0  0  0
  3  5  1  0  0  0  0
  4  2  1  0  0  0  0
  5  2  1  6  0  0  0
  6 32  1  6  0  0  0
  6  3  1  0  0  0  0
  6  1  1  0  0  0  0
  8 14  1  0  0  0  0
  9 13  1  0  0  0  0
 10  7  1  0  0  0  0
 11 12  1  0  0  0  0
 12  9  1  0  0  0  0
 12 10  1  0  0  0  0
 13 17  1  0  0  0  0
 14 15  2  0  0  0  0
 14 13  1  0  0  0  0
 15 16  1  0  0  0  0
 16 17  1  0  0  0  0
 17  7  2  0  0  0  0
 18 10  1  0  0  0  0
 18 19  1  0  0  0  0
 19 22  1  0  0  0  0
 21 20  2  0  0  0  0
 22 20  1  0  0  0  0
 23 21  1  0  0  0  0
 24 23  1  0  0  0  0
 24 22  2  0  0  0  0
 25 26  1  0  0  0  0
 26 28  1  0  0  0  0
 26 23  1  0  0  0  0
 27 28  1  0  0  0  0
 29 30  1  0  0  0  0
 29 25  1  0  0  0  0
 30 27  2  0  0  0  0
 31 32  1  0  0  0  0
 33 34  1  0  0  0  0
 34 35  1  0  0  0  0
 35 36  1  0  0  0  0
 36 37  1  0  0  0  0
 37 38  1  0  0  0  0
 38 45  1  0  0  0  0
 38 43  1  0  0  0  0
 40 39  1  0  0  0  0
 41 43  1  0  0  0  0
 42 39  1  0  0  0  0
 43 42  1  0  0  0  0
 44 43  1  0  0  0  0
 44 40  1  0  0  0  0
 46 47  1  0  0  0  0
 47 51  1  0  0  0  0
 49 46  1  0  0  0  0
 49 50  1  0  0  0  0
 50 45  1  0  0  0  0
 50 51  1  0  0  0  0
 51 48  2  0  0  0  0
 52 46  1  0  0  0  0
 53 52  1  0  0  0  0
 54 53  1  0  0  0  0
 54 52  1  0  0  0  0
M  END
>  <MODEL>
3

>  <REMARK>
 VINA RESULT:      -6.9      3.735      8.942
  Name = 
  16 active torsions:
  status: ('A' for Active; 'I' for Inactive)
    1  A    between atoms: C_4  and  C_23
    2  A    between atoms: C_6  and  C_19
    3  A    between atoms: C_6  and  C_44
    4  A    between atoms: C_10  and  N_46
    5  A    between atoms: C_12  and  C_20
    6  A    between atoms: C_14  and  C_37
    7  A    between atoms: C_14  and  C_45
    8  A    between atoms: C_16  and  C_32
    9  A    between atoms: C_17  and  C_45
   10  A    between atoms: C_19  and  C_32
   11  A    between atoms: C_24  and  C_53
   12  A    between atoms: C_25  and  C_36
   13  A    between atoms: C_29  and  C_36
   14  A    between atoms: C_29  and  N_42
   15  A    between atoms: C_30  and  C_36
   16  A    between atoms: C_30  and  C_44
                            x       y       z     vdW  Elec       q    Type
                         _______ _______ _______ _____ _____    ______ ____

>  <TORSDO>
F 16

$$$$
=
 OpenBabel11042411123D

 54 62  0  0  1  0  0  0  0  0999 V2000
  188.3470  176.6020  136.3170 C   0  0  1  0  0  0  0  0  0  0  0  0
  189.3420  176.8150  134.5940 C   0  0  0  0  0  2  0  0  0  0  0  0
  190.4080  176.6720  136.8550 C   0  0  1  0  0  3  0  0  0  0  0  0
  188.2110  177.4150  135.1750 O   0  0  0  0  0  0  0  0  0  0  0  0
  189.5810  175.9240  135.7960 C   0  0  1  0  0  3  0  0  0  0  0  0
  189.1240  177.2140  137.4830 C   0  0  1  0  0  3  0  0  0  0  0  0
  193.0970  177.0110  139.6970 N   0  0  0  0  0  0  0  0  0  0  0  0
  192.9760  173.6180  136.2020 C   0  0  0  0  0  1  0  0  0  0  0  0
  191.1900  175.7790  137.8400 C   0  0  2  0  0  3  0  0  0  0  0  0
  191.6960  177.4160  139.7330 C   0  0  1  0  0  3  0  0  0  0  0  0
  189.4860  176.4420  139.4760 O   0  0  0  0  0  1  0  0  0  0  0  0
  190.8530  176.2060  139.2990 C   0  0  1  0  0  3  0  0  0  0  0  0
  192.7110  175.8840  137.5410 C   0  0  2  0  0  3  0  0  0  0  0  0
  193.4010  174.5870  137.2510 C   0  0  0  0  0  0  0  0  0  0  0  0
  194.5110  174.4480  137.9070 N   0  0  0  0  0  0  0  0  0  0  0  0
  194.6980  175.5070  138.8040 N   0  0  0  0  0  2  0  0  0  0  0  0
  193.5580  176.3390  138.6860 C   0  0  0  0  0  0  0  0  0  0  0  0
  191.3300  177.8230  141.1520 C   0  0  0  0  0  2  0  0  0  0  0  0
  191.1780  176.6120  142.0650 C   0  0  0  0  0  2  0  0  0  0  0  0
  188.7250  177.1100  142.5980 C   0  0  0  0  0  3  0  0  0  0  0  0
  188.0510  177.2320  143.8040 C   0  0  0  0  0  3  0  0  0  0  0  0
  189.9980  176.7140  142.9730 C   0  0  0  0  0  0  0  0  0  0  0  0
  188.9020  176.9200  144.8020 N   0  0  0  0  0  0  0  0  0  0  0  0
  190.0960  176.6330  144.3100 N   0  0  0  0  0  0  0  0  0  0  0  0
  189.6440  177.9970  146.8920 C   0  0  0  0  0  2  0  0  0  0  0  0
  188.6120  177.0930  146.2270 C   0  0  1  0  0  3  0  0  0  0  0  0
  187.0160  178.0630  147.9050 C   0  0  0  0  0  3  0  0  0  0  0  0
  187.2220  177.6920  146.4570 C   0  0  0  0  0  2  0  0  0  0  0  0
  189.3920  177.9650  148.3980 C   0  0  0  0  0  2  0  0  0  0  0  0
  187.9980  178.2220  148.7310 N   0  0  0  0  0  0  0  0  0  0  0  0
  188.9100  179.2140  138.7630 O   0  0  0  0  0  1  0  0  0  0  0  0
  189.1030  178.7360  137.4680 C   0  0  0  0  0  2  0  0  0  0  0  0
  187.1250  175.7260  136.5880 C   0  0  0  0  0  2  0  0  0  0  0  0
  185.9230  176.0480  135.7210 C   0  0  0  0  0  2  0  0  0  0  0  0
  184.7870  175.1410  136.1500 C   0  0  0  0  0  2  0  0  0  0  0  0
  184.2850  175.5320  137.5300 C   0  0  0  0  0  2  0  0  0  0  0  0
  183.4320  176.7920  137.4600 C   0  0  0  0  0  2  0  0  0  0  0  0
  182.7430  177.0750  138.7990 C   0  0  2  0  0  3  0  0  0  0  0  0
  179.9590  175.2360  140.1040 C   0  0  0  0  0  2  0  0  0  0  0  0
  179.4580  176.5750  140.5650 C   0  0  0  0  0  2  0  0  0  0  0  0
  180.9660  176.0860  137.5240 O   0  0  0  0  0  1  0  0  0  0  0  0
  181.2860  175.3810  139.6790 O   0  0  0  0  0  0  0  0  0  0  0  0
  181.3190  176.4920  138.8140 C   0  0  1  0  0  0  0  0  0  0  0  0
  180.1350  177.7610  139.3950 S   0  0  0  0  0  0  0  0  0  0  0  0
  182.7310  178.5850  139.0490 C   0  0  0  0  0  2  0  0  0  0  0  0
  184.3460  179.1920  142.3080 C   0  0  1  0  0  3  0  0  0  0  0  0
  185.6040  179.0510  141.4200 C   0  0  0  0  0  2  0  0  0  0  0  0
  185.6450  178.8730  139.0170 O   0  0  0  0  0  0  0  0  0  0  0  0
  183.1400  178.9420  141.4970 N   0  0  0  0  0  2  0  0  0  0  0  0
  183.5970  178.9210  140.1740 N   0  0  0  0  0  0  0  0  0  0  0  0
  185.0000  178.9420  140.0940 C   0  0  0  0  0  0  0  0  0  0  0  0
  184.2970  178.3490  143.5960 C   0  0  0  0  0  3  0  0  0  0  0  0
  184.6790  179.1390  144.8340 C   0  0  0  0  0  2  0  0  0  0  0  0
  183.2200  178.8230  144.5580 C   0  0  0  0  0  2  0  0  0  0  0  0
  1 33  1  1  0  0  0
  1  6  1  0  0  0  0
  2  4  1  0  0  0  0
  3  6  1  0  0  0  0
  3  9  1  1  0  0  0
  4  1  1  0  0  0  0
  5  2  1  6  0  0  0
  5  1  1  0  0  0  0
  5  3  1  0  0  0  0
  6 32  1  6  0  0  0
  7 10  1  0  0  0  0
  8 14  1  0  0  0  0
  9 12  1  0  0  0  0
 10 18  1  0  0  0  0
 12 11  1  0  0  0  0
 12 10  1  0  0  0  0
 13  9  1  0  0  0  0
 13 17  1  0  0  0  0
 14 13  1  0  0  0  0
 14 15  2  0  0  0  0
 15 16  1  0  0  0  0
 17 16  1  0  0  0  0
 17  7  2  0  0  0  0
 18 19  1  0  0  0  0
 19 22  1  0  0  0  0
 20 22  1  0  0  0  0
 20 21  2  0  0  0  0
 21 23  1  0  0  0  0
 22 24  2  0  0  0  0
 23 26  1  0  0  0  0
 24 23  1  0  0  0  0
 25 29  1  0  0  0  0
 26 28  1  0  0  0  0
 26 25  1  0  0  0  0
 27 30  2  0  0  0  0
 28 27  1  0  0  0  0
 29 30  1  0  0  0  0
 32 31  1  0  0  0  0
 34 35  1  0  0  0  0
 34 33  1  0  0  0  0
 35 36  1  0  0  0  0
 37 36  1  0  0  0  0
 37 38  1  0  0  0  0
 38 43  1  0  0  0  0
 38 45  1  0  0  0  0
 39 40  1  0  0  0  0
 41 43  1  0  0  0  0
 42 39  1  0  0  0  0
 43 44  1  0  0  0  0
 43 42  1  0  0  0  0
 44 40  1  0  0  0  0
 45 50  1  0  0  0  0
 46 52  1  0  0  0  0
 47 46  1  0  0  0  0
 48 51  2  0  0  0  0
 49 46  1  0  0  0  0
 50 49  1  0  0  0  0
 51 50  1  0  0  0  0
 51 47  1  0  0  0  0
 52 54  1  0  0  0  0
 52 53  1  0  0  0  0
 54 53  1  0  0  0  0
M  END
>  <MODEL>
4

>  <REMARK>
 VINA RESULT:      -6.6      2.712      4.476
  Name = 
  16 active torsions:
  status: ('A' for Active; 'I' for Inactive)
    1  A    between atoms: C_4  and  C_23
    2  A    between atoms: C_6  and  C_19
    3  A    between atoms: C_6  and  C_44
    4  A    between atoms: C_10  and  N_46
    5  A    between atoms: C_12  and  C_20
    6  A    between atoms: C_14  and  C_37
    7  A    between atoms: C_14  and  C_45
    8  A    between atoms: C_16  and  C_32
    9  A    between atoms: C_17  and  C_45
   10  A    between atoms: C_19  and  C_32
   11  A    between atoms: C_24  and  C_53
   12  A    between atoms: C_25  and  C_36
   13  A    between atoms: C_29  and  C_36
   14  A    between atoms: C_29  and  N_42
   15  A    between atoms: C_30  and  C_36
   16  A    between atoms: C_30  and  C_44
                            x       y       z     vdW  Elec       q    Type
                         _______ _______ _______ _____ _____    ______ ____

>  <TORSDO>
F 16

$$$$
=
 OpenBabel11042411123D

 54 62  0  0  1  0  0  0  0  0999 V2000
  182.0930  178.6290  141.3560 C   0  0  1  0  0  0  0  0  0  0  0  0
  180.3290  179.3780  140.7810 C   0  0  0  0  0  2  0  0  0  0  0  0
  181.6000  177.6060  139.5530 C   0  0  1  0  0  3  0  0  0  0  0  0
  181.5430  179.9200  141.2380 O   0  0  0  0  0  0  0  0  0  0  0  0
  180.8510  177.9570  140.8490 C   0  0  1  0  0  3  0  0  0  0  0  0
  182.9020  178.1360  140.1550 C   0  0  1  0  0  3  0  0  0  0  0  0
  181.0990  175.1740  136.5100 N   0  0  0  0  0  0  0  0  0  0  0  0
  179.6370  174.4270  141.0970 C   0  0  0  0  0  1  0  0  0  0  0  0
  181.6970  176.1010  139.2280 C   0  0  2  0  0  3  0  0  0  0  0  0
  182.1690  176.1420  136.7190 C   0  0  1  0  0  3  0  0  0  0  0  0
  183.9160  176.6440  138.3310 O   0  0  0  0  0  1  0  0  0  0  0  0
  182.7630  175.8830  138.1140 C   0  0  1  0  0  3  0  0  0  0  0  0
  180.2990  175.5710  138.8060 C   0  0  2  0  0  3  0  0  0  0  0  0
  179.7750  174.4240  139.6140 C   0  0  0  0  0  0  0  0  0  0  0  0
  179.3040  173.4640  138.8810 N   0  0  0  0  0  0  0  0  0  0  0  0
  179.5270  173.7150  137.5220 N   0  0  0  0  0  2  0  0  0  0  0  0
  180.2360  174.9390  137.4520 C   0  0  0  0  0  0  0  0  0  0  0  0
  183.2380  175.9430  135.6550 C   0  0  0  0  0  2  0  0  0  0  0  0
  183.6640  174.4830  135.5490 C   0  0  0  0  0  2  0  0  0  0  0  0
  185.4600  173.2710  136.9110 C   0  0  0  0  0  3  0  0  0  0  0  0
  186.7850  173.5830  137.1740 C   0  0  0  0  0  3  0  0  0  0  0  0
  185.0620  174.2510  136.0180 C   0  0  0  0  0  0  0  0  0  0  0  0
  187.1120  174.6810  136.4640 N   0  0  0  0  0  0  0  0  0  0  0  0
  186.0640  175.1120  135.7810 N   0  0  0  0  0  0  0  0  0  0  0  0
  188.2120  176.6040  137.5460 C   0  0  0  0  0  2  0  0  0  0  0  0
  188.3710  175.4170  136.6030 C   0  0  1  0  0  3  0  0  0  0  0  0
  190.7250  175.3330  137.4720 C   0  0  0  0  0  3  0  0  0  0  0  0
  189.4970  174.5250  137.1310 C   0  0  0  0  0  2  0  0  0  0  0  0
  189.4970  177.4290  137.4810 C   0  0  0  0  0  2  0  0  0  0  0  0
  190.6880  176.6110  137.6650 N   0  0  0  0  0  0  0  0  0  0  0  0
  184.6170  179.7770  139.9360 O   0  0  0  0  0  1  0  0  0  0  0  0
  183.4700  179.2770  139.3220 C   0  0  0  0  0  2  0  0  0  0  0  0
  182.5470  178.2900  142.7740 C   0  0  0  0  0  2  0  0  0  0  0  0
  182.8990  179.4970  143.6220 C   0  0  0  0  0  2  0  0  0  0  0  0
  184.3680  179.3950  143.9850 C   0  0  0  0  0  2  0  0  0  0  0  0
  184.9630  178.1080  143.4390 C   0  0  0  0  0  2  0  0  0  0  0  0
  186.2490  178.3900  142.6700 C   0  0  0  0  0  2  0  0  0  0  0  0
  187.4850  178.1490  143.5430 C   0  0  2  0  0  3  0  0  0  0  0  0
  191.0020  177.9930  142.8790 C   0  0  0  0  0  2  0  0  0  0  0  0
  190.7820  176.5110  142.7590 C   0  0  0  0  0  2  0  0  0  0  0  0
  188.5850  178.8390  141.5240 O   0  0  0  0  0  1  0  0  0  0  0  0
  189.8460  178.5720  143.4170 O   0  0  0  0  0  0  0  0  0  0  0  0
  188.7560  178.0700  142.6790 C   0  0  1  0  0  0  0  0  0  0  0  0
  189.0790  176.3310  142.2090 S   0  0  0  0  0  0  0  0  0  0  0  0
  187.2830  176.8710  144.3590 C   0  0  0  0  0  2  0  0  0  0  0  0
  189.5450  176.8910  147.2710 C   0  0  1  0  0  3  0  0  0  0  0  0
  188.5350  177.9720  147.7220 C   0  0  0  0  0  2  0  0  0  0  0  0
  186.4780  178.5590  146.6120 O   0  0  0  0  0  0  0  0  0  0  0  0
  189.2040  176.4360  145.9100 N   0  0  0  0  0  2  0  0  0  0  0  0
  187.9420  176.9850  145.6550 N   0  0  0  0  0  0  0  0  0  0  0  0
  187.5460  177.8960  146.6490 C   0  0  0  0  0  0  0  0  0  0  0  0
  191.0400  177.2530  147.3450 C   0  0  0  0  0  3  0  0  0  0  0  0
  191.9160  176.0690  147.7100 C   0  0  0  0  0  2  0  0  0  0  0  0
  191.8590  176.5530  146.2730 C   0  0  0  0  0  2  0  0  0  0  0  0
  1 33  1  1  0  0  0
  2  4  1  0  0  0  0
  3  9  1  1  0  0  0
  3  6  1  0  0  0  0
  3  5  1  0  0  0  0
  4  1  1  0  0  0  0
  5  2  1  6  0  0  0
  5  1  1  0  0  0  0
  6 32  1  6  0  0  0
  6  1  1  0  0  0  0
  7 10  1  0  0  0  0
  7 17  2  0  0  0  0
 10 12  1  0  0  0  0
 12 11  1  0  0  0  0
 12  9  1  0  0  0  0
 13  9  1  0  0  0  0
 13 14  1  0  0  0  0
 14  8  1  0  0  0  0
 15 14  2  0  0  0  0
 16 15  1  0  0  0  0
 17 16  1  0  0  0  0
 17 13  1  0  0  0  0
 18 10  1  0  0  0  0
 19 18  1  0  0  0  0
 19 22  1  0  0  0  0
 20 21  2  0  0  0  0
 22 20  1  0  0  0  0
 23 26  1  0  0  0  0
 23 21  1  0  0  0  0
 24 22  2  0  0  0  0
 24 23  1  0  0  0  0
 26 28  1  0  0  0  0
 26 25  1  0  0  0  0
 27 30  2  0  0  0  0
 28 27  1  0  0  0  0
 29 25  1  0  0  0  0
 29 30  1  0  0  0  0
 32 31  1  0  0  0  0
 33 34  1  0  0  0  0
 34 35  1  0  0  0  0
 36 35  1  0  0  0  0
 37 36  1  0  0  0  0
 37 38  1  0  0  0  0
 38 45  1  0  0  0  0
 39 42  1  0  0  0  0
 40 39  1  0  0  0  0
 41 43  1  0  0  0  0
 43 42  1  0  0  0  0
 43 38  1  0  0  0  0
 44 43  1  0  0  0  0
 44 40  1  0  0  0  0
 45 50  1  0  0  0  0
 46 52  1  0  0  0  0
 46 47  1  0  0  0  0
 48 51  2  0  0  0  0
 49 46  1  0  0  0  0
 50 49  1  0  0  0  0
 50 51  1  0  0  0  0
 51 47  1  0  0  0  0
 52 53  1  0  0  0  0
 54 52  1  0  0  0  0
 54 53  1  0  0  0  0
M  END
>  <MODEL>
5

>  <REMARK>
 VINA RESULT:      -6.5      3.063     10.305
  Name = 
  16 active torsions:
  status: ('A' for Active; 'I' for Inactive)
    1  A    between atoms: C_4  and  C_23
    2  A    between atoms: C_6  and  C_19
    3  A    between atoms: C_6  and  C_44
    4  A    between atoms: C_10  and  N_46
    5  A    between atoms: C_12  and  C_20
    6  A    between atoms: C_14  and  C_37
    7  A    between atoms: C_14  and  C_45
    8  A    between atoms: C_16  and  C_32
    9  A    between atoms: C_17  and  C_45
   10  A    between atoms: C_19  and  C_32
   11  A    between atoms: C_24  and  C_53
   12  A    between atoms: C_25  and  C_36
   13  A    between atoms: C_29  and  C_36
   14  A    between atoms: C_29  and  N_42
   15  A    between atoms: C_30  and  C_36
   16  A    between atoms: C_30  and  C_44
                            x       y       z     vdW  Elec       q    Type
                         _______ _______ _______ _____ _____    ______ ____

>  <TORSDO>
F 16

$$$$
=
 OpenBabel11042411123D

 54 62  0  0  1  0  0  0  0  0999 V2000
  187.6600  177.3720  137.9860 C   0  0  1  0  0  0  0  0  0  0  0  0
  186.1520  178.5950  138.4720 C   0  0  0  0  0  2  0  0  0  0  0  0
  186.1250  176.9760  136.5630 C   0  0  1  0  0  3  0  0  0  0  0  0
  187.5440  178.7350  138.3210 O   0  0  0  0  0  0  0  0  0  0  0  0
  186.1830  177.1280  138.0920 C   0  0  1  0  0  3  0  0  0  0  0  0
  187.6500  177.0480  136.4920 C   0  0  1  0  0  3  0  0  0  0  0  0
  183.1720  174.4760  137.2410 N   0  0  0  0  0  0  0  0  0  0  0  0
  187.8440  173.3170  136.4820 C   0  0  0  0  0  1  0  0  0  0  0  0
  185.5960  175.6200  136.0500 C   0  0  2  0  0  3  0  0  0  0  0  0
  183.1110  175.7880  136.6080 C   0  0  1  0  0  3  0  0  0  0  0  0
  184.0490  176.9640  134.7010 O   0  0  0  0  0  1  0  0  0  0  0  0
  184.1590  175.8100  135.4830 C   0  0  1  0  0  3  0  0  0  0  0  0
  185.6330  174.5790  137.2030 C   0  0  2  0  0  3  0  0  0  0  0  0
  186.4200  173.3360  136.9220 C   0  0  0  0  0  0  0  0  0  0  0  0
  185.7860  172.2530  137.2450 N   0  0  0  0  0  0  0  0  0  0  0  0
  184.4800  172.5430  137.6590 N   0  0  0  0  0  2  0  0  0  0  0  0
  184.3200  173.9440  137.5340 C   0  0  0  0  0  0  0  0  0  0  0  0
  181.7210  175.9980  136.0270 C   0  0  0  0  0  2  0  0  0  0  0  0
  180.6320  175.7600  137.0680 C   0  0  0  0  0  2  0  0  0  0  0  0
  180.2840  178.2930  137.1840 C   0  0  0  0  0  3  0  0  0  0  0  0
  179.8910  179.1220  138.2230 C   0  0  0  0  0  3  0  0  0  0  0  0
  180.1630  177.0200  137.7160 C   0  0  0  0  0  0  0  0  0  0  0  0
  179.5670  178.3540  139.2820 N   0  0  0  0  0  0  0  0  0  0  0  0
  179.7570  177.0770  138.9940 N   0  0  0  0  0  0  0  0  0  0  0  0
  180.1520  178.2080  141.6730 C   0  0  0  0  0  2  0  0  0  0  0  0
  179.2670  178.8660  140.6210 C   0  0  1  0  0  3  0  0  0  0  0  0
  179.3540  180.8700  142.1310 C   0  0  0  0  0  3  0  0  0  0  0  0
  179.4570  180.3830  140.7070 C   0  0  0  0  0  2  0  0  0  0  0  0
  179.6450  178.6400  143.0480 C   0  0  0  0  0  2  0  0  0  0  0  0
  179.4870  180.0840  143.1490 N   0  0  0  0  0  0  0  0  0  0  0  0
  189.4990  178.2860  135.6350 O   0  0  0  0  0  1  0  0  0  0  0  0
  188.1070  178.2210  135.6350 C   0  0  0  0  0  2  0  0  0  0  0  0
  188.5710  176.5910  138.9320 C   0  0  0  0  0  2  0  0  0  0  0  0
  189.4450  177.4600  139.8160 C   0  0  0  0  0  2  0  0  0  0  0  0
  188.6340  177.8410  141.0380 C   0  0  0  0  0  2  0  0  0  0  0  0
  189.5490  178.1320  142.2160 C   0  0  0  0  0  2  0  0  0  0  0  0
  189.4880  177.0050  143.2400 C   0  0  0  0  0  2  0  0  0  0  0  0
  189.6140  177.5430  144.6690 C   0  0  2  0  0  3  0  0  0  0  0  0
  192.0480  176.4470  147.0600 C   0  0  0  0  0  2  0  0  0  0  0  0
  192.0940  175.1870  146.2410 C   0  0  0  0  0  2  0  0  0  0  0  0
  191.8790  178.3180  144.8550 O   0  0  0  0  0  1  0  0  0  0  0  0
  190.9550  177.2130  146.6350 O   0  0  0  0  0  0  0  0  0  0  0  0
  191.0230  177.2780  145.2300 C   0  0  1  0  0  0  0  0  0  0  0  0
  191.6650  175.6960  144.5690 S   0  0  0  0  0  0  0  0  0  0  0  0
  188.5350  176.9030  145.5450 C   0  0  0  0  0  2  0  0  0  0  0  0
  185.3790  178.7530  145.0780 C   0  0  1  0  0  3  0  0  0  0  0  0
  185.5200  178.8690  146.6140 C   0  0  0  0  0  2  0  0  0  0  0  0
  187.4190  178.1830  147.9300 O   0  0  0  0  0  0  0  0  0  0  0  0
  186.4730  177.9190  144.5440 N   0  0  0  0  0  2  0  0  0  0  0  0
  187.3600  177.7650  145.6150 N   0  0  0  0  0  0  0  0  0  0  0  0
  186.8330  178.2600  146.8210 C   0  0  0  0  0  0  0  0  0  0  0  0
  184.0270  178.2580  144.5330 C   0  0  0  0  0  3  0  0  0  0  0  0
  183.0880  179.3920  144.1650 C   0  0  0  0  0  2  0  0  0  0  0  0
  183.8190  178.6300  143.0740 C   0  0  0  0  0  2  0  0  0  0  0  0
  1  5  1  0  0  0  0
  1  4  1  0  0  0  0
  1 33  1  1  0  0  0
  3  9  1  1  0  0  0
  3  5  1  0  0  0  0
  4  2  1  0  0  0  0
  5  2  1  6  0  0  0
  6 32  1  6  0  0  0
  6  3  1  0  0  0  0
  6  1  1  0  0  0  0
  7 17  2  0  0  0  0
  8 14  1  0  0  0  0
  9 13  1  0  0  0  0
 10  7  1  0  0  0  0
 11 12  1  0  0  0  0
 12  9  1  0  0  0  0
 12 10  1  0  0  0  0
 13 17  1  0  0  0  0
 14 13  1  0  0  0  0
 14 15  2  0  0  0  0
 15 16  1  0  0  0  0
 17 16  1  0  0  0  0
 18 10  1  0  0  0  0
 18 19  1  0  0  0  0
 19 22  1  0  0  0  0
 20 22  1  0  0  0  0
 20 21  2  0  0  0  0
 21 23  1  0  0  0  0
 22 24  2  0  0  0  0
 23 26  1  0  0  0  0
 24 23  1  0  0  0  0
 25 29  1  0  0  0  0
 26 28  1  0  0  0  0
 26 25  1  0  0  0  0
 27 30  2  0  0  0  0
 28 27  1  0  0  0  0
 29 30  1  0  0  0  0
 31 32  1  0  0  0  0
 33 34  1  0  0  0  0
 34 35  1  0  0  0  0
 35 36  1  0  0  0  0
 36 37  1  0  0  0  0
 37 38  1  0  0  0  0
 38 43  1  0  0  0  0
 38 45  1  0  0  0  0
 40 39  1  0  0  0  0
 41 43  1  0  0  0  0
 42 39  1  0  0  0  0
 43 42  1  0  0  0  0
 44 43  1  0  0  0  0
 44 40  1  0  0  0  0
 45 50  1  0  0  0  0
 46 47  1  0  0  0  0
 47 51  1  0  0  0  0
 49 46  1  0  0  0  0
 49 50  1  0  0  0  0
 50 51  1  0  0  0  0
 51 48  2  0  0  0  0
 52 46  1  0  0  0  0
 53 52  1  0  0  0  0
 54 53  1  0  0  0  0
 54 52  1  0  0  0  0
M  END
>  <MODEL>
6

>  <REMARK>
 VINA RESULT:      -6.3      3.270      8.872
  Name = 
  16 active torsions:
  status: ('A' for Active; 'I' for Inactive)
    1  A    between atoms: C_4  and  C_23
    2  A    between atoms: C_6  and  C_19
    3  A    between atoms: C_6  and  C_44
    4  A    between atoms: C_10  and  N_46
    5  A    between atoms: C_12  and  C_20
    6  A    between atoms: C_14  and  C_37
    7  A    between atoms: C_14  and  C_45
    8  A    between atoms: C_16  and  C_32
    9  A    between atoms: C_17  and  C_45
   10  A    between atoms: C_19  and  C_32
   11  A    between atoms: C_24  and  C_53
   12  A    between atoms: C_25  and  C_36
   13  A    between atoms: C_29  and  C_36
   14  A    between atoms: C_29  and  N_42
   15  A    between atoms: C_30  and  C_36
   16  A    between atoms: C_30  and  C_44
                            x       y       z     vdW  Elec       q    Type
                         _______ _______ _______ _____ _____    ______ ____

>  <TORSDO>
F 16

$$$$
=
 OpenBabel11042411123D

 54 62  0  0  1  0  0  0  0  0999 V2000
  187.8770  176.5980  136.7040 C   0  0  1  0  0  0  0  0  0  0  0  0
  188.9060  177.6770  135.3700 C   0  0  0  0  0  2  0  0  0  0  0  0
  189.7780  176.9470  137.6010 C   0  0  1  0  0  3  0  0  0  0  0  0
  187.6060  177.7240  135.9050 O   0  0  0  0  0  0  0  0  0  0  0  0
  189.2920  176.4810  136.2180 C   0  0  1  0  0  3  0  0  0  0  0  0
  188.3450  176.8880  138.1310 C   0  0  1  0  0  3  0  0  0  0  0  0
  193.1460  176.9620  139.6220 N   0  0  0  0  0  0  0  0  0  0  0  0
  191.7620  173.6710  136.3060 C   0  0  0  0  0  1  0  0  0  0  0  0
  190.7010  175.9610  138.3470 C   0  0  2  0  0  3  0  0  0  0  0  0
  191.8530  177.5010  140.0270 C   0  0  1  0  0  3  0  0  0  0  0  0
  189.5680  176.7530  140.3750 O   0  0  0  0  0  1  0  0  0  0  0  0
  190.8080  176.3890  139.8410 C   0  0  1  0  0  3  0  0  0  0  0  0
  192.0900  175.9240  137.6530 C   0  0  2  0  0  3  0  0  0  0  0  0
  192.5450  174.5710  137.1980 C   0  0  0  0  0  0  0  0  0  0  0  0
  193.7700  174.3110  137.5350 N   0  0  0  0  0  0  0  0  0  0  0  0
  194.2930  175.3280  138.3430 N   0  0  0  0  0  2  0  0  0  0  0  0
  193.2520  176.2700  138.5280 C   0  0  0  0  0  0  0  0  0  0  0  0
  191.9190  177.9120  141.4900 C   0  0  0  0  0  2  0  0  0  0  0  0
  191.7400  176.7180  142.4200 C   0  0  0  0  0  2  0  0  0  0  0  0
  191.6750  176.6920  144.9790 C   0  0  0  0  0  3  0  0  0  0  0  0
  190.7180  177.1320  145.8800 C   0  0  0  0  0  3  0  0  0  0  0  0
  191.1800  177.0980  143.7510 C   0  0  0  0  0  0  0  0  0  0  0  0
  189.7380  177.7530  145.1930 N   0  0  0  0  0  0  0  0  0  0  0  0
  189.9950  177.7110  143.8960 N   0  0  0  0  0  0  0  0  0  0  0  0
  187.2840  177.6890  144.9710 C   0  0  0  0  0  2  0  0  0  0  0  0
  188.4720  178.2050  145.7740 C   0  0  1  0  0  3  0  0  0  0  0  0
  186.9260  178.0270  147.7450 C   0  0  0  0  0  3  0  0  0  0  0  0
  188.3150  177.7440  147.2250 C   0  0  0  0  0  2  0  0  0  0  0  0
  186.0240  178.3610  145.5150 C   0  0  0  0  0  2  0  0  0  0  0  0
  185.9220  178.2530  146.9630 N   0  0  0  0  0  0  0  0  0  0  0  0
  186.4970  178.2670  138.7340 O   0  0  0  0  0  1  0  0  0  0  0  0
  187.8870  178.2510  138.6320 C   0  0  0  0  0  2  0  0  0  0  0  0
  186.9420  175.4210  136.4320 C   0  0  0  0  0  2  0  0  0  0  0  0
  185.6630  175.7950  135.7060 C   0  0  0  0  0  2  0  0  0  0  0  0
  184.7380  176.4560  136.7080 C   0  0  0  0  0  2  0  0  0  0  0  0
  183.5750  177.1280  135.9970 C   0  0  0  0  0  2  0  0  0  0  0  0
  182.4350  176.1420  135.7730 C   0  0  0  0  0  2  0  0  0  0  0  0
  181.6210  175.9300  137.0540 C   0  0  2  0  0  3  0  0  0  0  0  0
  180.2900  172.7220  137.9370 C   0  0  0  0  0  2  0  0  0  0  0  0
  179.1970  173.5060  138.6070 C   0  0  0  0  0  2  0  0  0  0  0  0
  180.5400  174.3790  135.5740 O   0  0  0  0  0  1  0  0  0  0  0  0
  181.3180  173.6070  137.5850 O   0  0  0  0  0  0  0  0  0  0  0  0
  180.7130  174.6940  136.9250 C   0  0  1  0  0  0  0  0  0  0  0  0
  179.0820  175.0430  137.6800 S   0  0  0  0  0  0  0  0  0  0  0  0
  180.8090  177.1930  137.3480 C   0  0  0  0  0  2  0  0  0  0  0  0
  182.5090  178.3780  140.3980 C   0  0  1  0  0  3  0  0  0  0  0  0
  182.6010  179.6600  139.5380 C   0  0  0  0  0  2  0  0  0  0  0  0
  181.5490  180.0250  137.4010 O   0  0  0  0  0  0  0  0  0  0  0  0
  181.8930  177.2970  139.6070 N   0  0  0  0  0  2  0  0  0  0  0  0
  181.4000  177.9300  138.4600 N   0  0  0  0  0  0  0  0  0  0  0  0
  181.8160  179.2690  138.3680 C   0  0  0  0  0  0  0  0  0  0  0  0
  183.8110  177.8760  141.0500 C   0  0  0  0  0  3  0  0  0  0  0  0
  184.7250  179.0050  141.4880 C   0  0  0  0  0  2  0  0  0  0  0  0
  183.9050  178.2530  142.5200 C   0  0  0  0  0  2  0  0  0  0  0  0
  1 33  1  6  0  0  0
  1  6  1  0  0  0  0
  2  4  1  0  0  0  0
  3  6  1  0  0  0  0
  3  9  1  1  0  0  0
  4  1  1  0  0  0  0
  5  2  1  6  0  0  0
  5  1  1  0  0  0  0
  5  3  1  0  0  0  0
  6 32  1  6  0  0  0
  7 10  1  0  0  0  0
  8 14  1  0  0  0  0
  9 12  1  0  0  0  0
 10 18  1  0  0  0  0
 12 10  1  0  0  0  0
 12 11  1  0  0  0  0
 13  9  1  0  0  0  0
 13 17  1  0  0  0  0
 14 15  2  0  0  0  0
 14 13  1  0  0  0  0
 15 16  1  0  0  0  0
 16 17  1  0  0  0  0
 17  7  2  0  0  0  0
 18 19  1  0  0  0  0
 19 22  1  0  0  0  0
 20 21  2  0  0  0  0
 22 24  2  0  0  0  0
 22 20  1  0  0  0  0
 23 26  1  0  0  0  0
 23 21  1  0  0  0  0
 24 23  1  0  0  0  0
 25 29  1  0  0  0  0
 25 26  1  0  0  0  0
 26 28  1  0  0  0  0
 28 27  1  0  0  0  0
 29 30  1  0  0  0  0
 30 27  2  0  0  0  0
 32 31  1  0  0  0  0
 34 33  1  0  0  0  0
 34 35  1  0  0  0  0
 36 35  1  0  0  0  0
 37 36  1  0  0  0  0
 37 38  1  0  0  0  0
 38 45  1  0  0  0  0
 39 40  1  0  0  0  0
 41 43  1  0  0  0  0
 42 39  1  0  0  0  0
 43 38  1  0  0  0  0
 43 42  1  0  0  0  0
 43 44  1  0  0  0  0
 44 40  1  0  0  0  0
 45 50  1  0  0  0  0
 46 52  1  0  0  0  0
 47 46  1  0  0  0  0
 48 51  2  0  0  0  0
 49 46  1  0  0  0  0
 50 49  1  0  0  0  0
 51 50  1  0  0  0  0
 51 47  1  0  0  0  0
 52 53  1  0  0  0  0
 52 54  1  0  0  0  0
 53 54  1  0  0  0  0
M  END
>  <MODEL>
7

>  <REMARK>
 VINA RESULT:      -6.3      2.551      3.991
  Name = 
  16 active torsions:
  status: ('A' for Active; 'I' for Inactive)
    1  A    between atoms: C_4  and  C_23
    2  A    between atoms: C_6  and  C_19
    3  A    between atoms: C_6  and  C_44
    4  A    between atoms: C_10  and  N_46
    5  A    between atoms: C_12  and  C_20
    6  A    between atoms: C_14  and  C_37
    7  A    between atoms: C_14  and  C_45
    8  A    between atoms: C_16  and  C_32
    9  A    between atoms: C_17  and  C_45
   10  A    between atoms: C_19  and  C_32
   11  A    between atoms: C_24  and  C_53
   12  A    between atoms: C_25  and  C_36
   13  A    between atoms: C_29  and  C_36
   14  A    between atoms: C_29  and  N_42
   15  A    between atoms: C_30  and  C_36
   16  A    between atoms: C_30  and  C_44
                            x       y       z     vdW  Elec       q    Type
                         _______ _______ _______ _____ _____    ______ ____

>  <TORSDO>
F 16

$$$$
=
 OpenBabel11042411123D

 54 62  0  0  1  0  0  0  0  0999 V2000
  187.8720  176.9100  136.9210 C   0  0  1  0  0  0  0  0  0  0  0  0
  188.9050  177.9970  135.5970 C   0  0  0  0  0  2  0  0  0  0  0  0
  189.8110  177.1510  137.7720 C   0  0  1  0  0  3  0  0  0  0  0  0
  187.6240  178.0750  136.1710 O   0  0  0  0  0  0  0  0  0  0  0  0
  189.2670  176.7560  136.3880 C   0  0  1  0  0  3  0  0  0  0  0  0
  188.3920  177.1280  138.3430 C   0  0  1  0  0  3  0  0  0  0  0  0
  193.2180  176.9630  139.7170 N   0  0  0  0  0  0  0  0  0  0  0  0
  191.6540  173.8710  136.2920 C   0  0  0  0  0  1  0  0  0  0  0  0
  190.7140  176.1020  138.4540 C   0  0  2  0  0  3  0  0  0  0  0  0
  191.9520  177.5260  140.1740 C   0  0  1  0  0  3  0  0  0  0  0  0
  189.6510  176.8410  140.5390 O   0  0  0  0  0  1  0  0  0  0  0  0
  190.8660  176.4590  139.9620 C   0  0  1  0  0  3  0  0  0  0  0  0
  192.0870  176.0490  137.7280 C   0  0  2  0  0  3  0  0  0  0  0  0
  192.4850  174.7040  137.2050 C   0  0  0  0  0  0  0  0  0  0  0  0
  193.7070  174.3880  137.5030 N   0  0  0  0  0  0  0  0  0  0  0  0
  194.2810  175.3490  138.3430 N   0  0  0  0  0  2  0  0  0  0  0  0
  193.2780  176.3160  138.5920 C   0  0  0  0  0  0  0  0  0  0  0  0
  192.0630  177.8690  141.6520 C   0  0  0  0  0  2  0  0  0  0  0  0
  191.9320  176.6300  142.5300 C   0  0  0  0  0  2  0  0  0  0  0  0
  191.6790  176.3240  145.0580 C   0  0  0  0  0  3  0  0  0  0  0  0
  190.7180  176.7750  145.9500 C   0  0  0  0  0  3  0  0  0  0  0  0
  191.3250  176.9240  143.8620 C   0  0  0  0  0  0  0  0  0  0  0  0
  189.8690  177.5860  145.2860 N   0  0  0  0  0  0  0  0  0  0  0  0
  190.2120  177.6600  144.0110 N   0  0  0  0  0  0  0  0  0  0  0  0
  187.4080  177.4920  145.1790 C   0  0  0  0  0  2  0  0  0  0  0  0
  188.6260  178.1230  145.8430 C   0  0  1  0  0  3  0  0  0  0  0  0
  187.1630  178.2530  147.8800 C   0  0  0  0  0  3  0  0  0  0  0  0
  188.5300  177.8910  147.3530 C   0  0  0  0  0  2  0  0  0  0  0  0
  186.1680  178.2410  145.6650 C   0  0  0  0  0  2  0  0  0  0  0  0
  186.1260  178.3570  147.1150 N   0  0  0  0  0  0  0  0  0  0  0  0
  186.6730  178.4600  139.3190 O   0  0  0  0  0  1  0  0  0  0  0  0
  188.0040  178.4880  138.9070 C   0  0  0  0  0  2  0  0  0  0  0  0
  186.8820  175.7820  136.6350 C   0  0  0  0  0  2  0  0  0  0  0  0
  186.8470  175.3360  135.1850 C   0  0  0  0  0  2  0  0  0  0  0  0
  185.5270  175.7900  134.5940 C   0  0  0  0  0  2  0  0  0  0  0  0
  184.4790  175.9430  135.6830 C   0  0  0  0  0  2  0  0  0  0  0  0
  183.2900  175.0260  135.4230 C   0  0  0  0  0  2  0  0  0  0  0  0
  183.1580  173.9600  136.5150 C   0  0  2  0  0  3  0  0  0  0  0  0
  183.2950  170.3790  136.4810 C   0  0  0  0  0  2  0  0  0  0  0  0
  182.0750  170.4710  135.6070 C   0  0  0  0  0  2  0  0  0  0  0  0
  184.7460  172.6060  135.3280 O   0  0  0  0  0  1  0  0  0  0  0  0
  183.5460  171.6450  137.0260 O   0  0  0  0  0  0  0  0  0  0  0  0
  183.5000  172.5650  135.9610 C   0  0  1  0  0  0  0  0  0  0  0  0
  182.2240  172.0480  134.7540 S   0  0  0  0  0  0  0  0  0  0  0  0
  181.7400  174.0010  137.0900 C   0  0  0  0  0  2  0  0  0  0  0  0
  182.3080  176.4010  139.8310 C   0  0  1  0  0  3  0  0  0  0  0  0
  180.8330  176.7310  139.5020 C   0  0  0  0  0  2  0  0  0  0  0  0
  179.4040  175.5250  137.9800 O   0  0  0  0  0  0  0  0  0  0  0  0
  182.8100  175.3890  138.8830 N   0  0  0  0  0  2  0  0  0  0  0  0
  181.6710  174.9360  138.2070 N   0  0  0  0  0  0  0  0  0  0  0  0
  180.5320  175.7030  138.5070 C   0  0  0  0  0  0  0  0  0  0  0  0
  183.2910  177.5840  139.9080 C   0  0  0  0  0  3  0  0  0  0  0  0
  182.6040  178.9040  140.2040 C   0  0  0  0  0  2  0  0  0  0  0  0
  183.3660  178.1840  141.3020 C   0  0  0  0  0  2  0  0  0  0  0  0
  1 33  1  6  0  0  0
  1  6  1  0  0  0  0
  2  4  1  0  0  0  0
  3  6  1  0  0  0  0
  3  9  1  1  0  0  0
  4  1  1  0  0  0  0
  5  2  1  6  0  0  0
  5  1  1  0  0  0  0
  5  3  1  0  0  0  0
  6 32  1  6  0  0  0
  7 10  1  0  0  0  0
  8 14  1  0  0  0  0
  9 12  1  0  0  0  0
 10 18  1  0  0  0  0
 12 10  1  0  0  0  0
 12 11  1  0  0  0  0
 13  9  1  0  0  0  0
 13 17  1  0  0  0  0
 14 15  2  0  0  0  0
 14 13  1  0  0  0  0
 15 16  1  0  0  0  0
 16 17  1  0  0  0  0
 17  7  2  0  0  0  0
 18 19  1  0  0  0  0
 19 22  1  0  0  0  0
 20 21  2  0  0  0  0
 22 24  2  0  0  0  0
 22 20  1  0  0  0  0
 23 26  1  0  0  0  0
 23 21  1  0  0  0  0
 24 23  1  0  0  0  0
 25 29  1  0  0  0  0
 25 26  1  0  0  0  0
 26 28  1  0  0  0  0
 28 27  1  0  0  0  0
 29 30  1  0  0  0  0
 30 27  2  0  0  0  0
 32 31  1  0  0  0  0
 34 33  1  0  0  0  0
 35 34  1  0  0  0  0
 35 36  1  0  0  0  0
 37 36  1  0  0  0  0
 37 38  1  0  0  0  0
 38 45  1  0  0  0  0
 39 42  1  0  0  0  0
 40 39  1  0  0  0  0
 41 43  1  0  0  0  0
 43 38  1  0  0  0  0
 43 42  1  0  0  0  0
 44 40  1  0  0  0  0
 44 43  1  0  0  0  0
 45 50  1  0  0  0  0
 46 52  1  0  0  0  0
 47 46  1  0  0  0  0
 48 51  2  0  0  0  0
 49 46  1  0  0  0  0
 50 51  1  0  0  0  0
 50 49  1  0  0  0  0
 51 47  1  0  0  0  0
 52 53  1  0  0  0  0
 52 54  1  0  0  0  0
 53 54  1  0  0  0  0
M  END
>  <MODEL>
8

>  <REMARK>
 VINA RESULT:      -6.2      2.179      3.639
  Name = 
  16 active torsions:
  status: ('A' for Active; 'I' for Inactive)
    1  A    between atoms: C_4  and  C_23
    2  A    between atoms: C_6  and  C_19
    3  A    between atoms: C_6  and  C_44
    4  A    between atoms: C_10  and  N_46
    5  A    between atoms: C_12  and  C_20
    6  A    between atoms: C_14  and  C_37
    7  A    between atoms: C_14  and  C_45
    8  A    between atoms: C_16  and  C_32
    9  A    between atoms: C_17  and  C_45
   10  A    between atoms: C_19  and  C_32
   11  A    between atoms: C_24  and  C_53
   12  A    between atoms: C_25  and  C_36
   13  A    between atoms: C_29  and  C_36
   14  A    between atoms: C_29  and  N_42
   15  A    between atoms: C_30  and  C_36
   16  A    between atoms: C_30  and  C_44
                            x       y       z     vdW  Elec       q    Type
                         _______ _______ _______ _____ _____    ______ ____

>  <TORSDO>
F 16

$$$$
=
 OpenBabel11042411123D

 54 62  0  0  1  0  0  0  0  0999 V2000
  190.3310  177.8830  142.8130 C   0  0  1  0  0  0  0  0  0  0  0  0
  190.9150  179.6210  143.6140 C   0  0  0  0  0  2  0  0  0  0  0  0
  188.8490  178.3660  144.2660 C   0  0  1  0  0  3  0  0  0  0  0  0
  190.8030  179.1100  142.3090 O   0  0  0  0  0  0  0  0  0  0  0  0
  190.3870  178.3460  144.2400 C   0  0  1  0  0  3  0  0  0  0  0  0
  188.8110  177.7270  142.8780 C   0  0  1  0  0  3  0  0  0  0  0  0
  186.2050  178.6000  147.1610 N   0  0  0  0  0  0  0  0  0  0  0  0
  190.4580  176.2270  147.2960 C   0  0  0  0  0  1  0  0  0  0  0  0
  188.1900  177.4610  145.3270 C   0  0  2  0  0  3  0  0  0  0  0  0
  185.9700  178.6560  145.7230 C   0  0  1  0  0  3  0  0  0  0  0  0
  186.3270  177.3000  143.7390 O   0  0  0  0  0  1  0  0  0  0  0  0
  186.6520  177.4300  145.0930 C   0  0  1  0  0  3  0  0  0  0  0  0
  188.5520  177.9770  146.7470 C   0  0  2  0  0  3  0  0  0  0  0  0
  189.2210  176.9800  147.6430 C   0  0  0  0  0  0  0  0  0  0  0  0
  188.7010  176.9400  148.8300 N   0  0  0  0  0  0  0  0  0  0  0  0
  187.5700  177.7620  148.9090 N   0  0  0  0  0  2  0  0  0  0  0  0
  187.3870  178.3180  147.6200 C   0  0  0  0  0  0  0  0  0  0  0  0
  184.4720  178.6110  145.4590 C   0  0  0  0  0  2  0  0  0  0  0  0
  184.0270  179.7380  144.5360 C   0  0  0  0  0  2  0  0  0  0  0  0
  181.9590  179.0010  143.2200 C   0  0  0  0  0  3  0  0  0  0  0  0
  181.8240  178.3830  141.9860 C   0  0  0  0  0  3  0  0  0  0  0  0
  183.3190  179.2460  143.3170 C   0  0  0  0  0  0  0  0  0  0  0  0
  183.0450  178.2870  141.4220 N   0  0  0  0  0  0  0  0  0  0  0  0
  183.9640  178.7820  142.2350 N   0  0  0  0  0  0  0  0  0  0  0  0
  182.0620  177.0010  139.5620 C   0  0  0  0  0  2  0  0  0  0  0  0
  183.3380  177.5450  140.1940 C   0  0  1  0  0  3  0  0  0  0  0  0
  184.1660  177.7120  137.8300 C   0  0  0  0  0  3  0  0  0  0  0  0
  184.0590  178.4150  139.1610 C   0  0  0  0  0  2  0  0  0  0  0  0
  182.4660  176.0790  138.4120 C   0  0  0  0  0  2  0  0  0  0  0  0
  183.4170  176.7090  137.5080 N   0  0  0  0  0  0  0  0  0  0  0  0
  188.1970  178.0760  140.6010 O   0  0  0  0  0  1  0  0  0  0  0  0
  188.0870  178.6200  141.8790 C   0  0  0  0  0  2  0  0  0  0  0  0
  191.2060  176.6910  142.4270 C   0  0  0  0  0  2  0  0  0  0  0  0
  191.9030  176.8370  141.0880 C   0  0  0  0  0  2  0  0  0  0  0  0
  190.9390  176.3780  140.0120 C   0  0  0  0  0  2  0  0  0  0  0  0
  191.3210  176.9710  138.6660 C   0  0  0  0  0  2  0  0  0  0  0  0
  192.7720  176.6500  138.3250 C   0  0  0  0  0  2  0  0  0  0  0  0
  192.8720  175.4160  137.4210 C   0  0  2  0  0  3  0  0  0  0  0  0
  195.7980  173.8230  138.7400 C   0  0  0  0  0  2  0  0  0  0  0  0
  195.2780  172.5920  138.0530 C   0  0  0  0  0  2  0  0  0  0  0  0
  195.1270  175.7220  136.6570 O   0  0  0  0  0  1  0  0  0  0  0  0
  194.7920  174.7980  138.7260 O   0  0  0  0  0  0  0  0  0  0  0  0
  194.3100  174.8680  137.4040 C   0  0  1  0  0  0  0  0  0  0  0  0
  194.3280  173.1990  136.6520 S   0  0  0  0  0  0  0  0  0  0  0  0
  192.3970  175.7840  136.0140 C   0  0  0  0  0  2  0  0  0  0  0  0
  189.2700  173.8380  135.8290 C   0  0  1  0  0  3  0  0  0  0  0  0
  188.7170  175.2450  135.5010 C   0  0  0  0  0  2  0  0  0  0  0  0
  190.0170  177.2380  135.1220 O   0  0  0  0  0  0  0  0  0  0  0  0
  190.7090  173.9340  136.1380 N   0  0  0  0  0  2  0  0  0  0  0  0
  191.0690  175.2340  135.7650 N   0  0  0  0  0  0  0  0  0  0  0  0
  189.9540  176.0220  135.4330 C   0  0  0  0  0  0  0  0  0  0  0  0
  188.5480  173.0400  136.9310 C   0  0  0  0  0  3  0  0  0  0  0  0
  187.0480  172.9660  136.7190 C   0  0  0  0  0  2  0  0  0  0  0  0
  187.9170  171.7630  136.4020 C   0  0  0  0  0  2  0  0  0  0  0  0
  1 33  1  6  0  0  0
  1  6  1  0  0  0  0
  1  5  1  0  0  0  0
  3  9  1  1  0  0  0
  4  1  1  0  0  0  0
  4  2  1  0  0  0  0
  5  2  1  6  0  0  0
  5  3  1  0  0  0  0
  6 32  1  6  0  0  0
  6  3  1  0  0  0  0
  7 17  2  0  0  0  0
  8 14  1  0  0  0  0
  9 13  1  0  0  0  0
 10  7  1  0  0  0  0
 11 12  1  0  0  0  0
 12  9  1  0  0  0  0
 12 10  1  0  0  0  0
 13 17  1  0  0  0  0
 13 14  1  0  0  0  0
 14 15  2  0  0  0  0
 15 16  1  0  0  0  0
 17 16  1  0  0  0  0
 18 10  1  0  0  0  0
 19 18  1  0  0  0  0
 20 22  1  0  0  0  0
 21 20  2  0  0  0  0
 22 19  1  0  0  0  0
 23 21  1  0  0  0  0
 23 24  1  0  0  0  0
 24 22  2  0  0  0  0
 25 26  1  0  0  0  0
 26 23  1  0  0  0  0
 27 28  1  0  0  0  0
 28 26  1  0  0  0  0
 29 25  1  0  0  0  0
 30 27  2  0  0  0  0
 30 29  1  0  0  0  0
 31 32  1  0  0  0  0
 34 33  1  0  0  0  0
 35 34  1  0  0  0  0
 36 35  1  0  0  0  0
 37 36  1  0  0  0  0
 38 37  1  0  0  0  0
 40 39  1  0  0  0  0
 41 43  1  0  0  0  0
 42 39  1  0  0  0  0
 43 38  1  0  0  0  0
 43 42  1  0  0  0  0
 44 43  1  0  0  0  0
 44 40  1  0  0  0  0
 45 38  1  0  0  0  0
 46 49  1  0  0  0  0
 46 52  1  0  0  0  0
 47 46  1  0  0  0  0
 48 51  2  0  0  0  0
 50 45  1  0  0  0  0
 50 49  1  0  0  0  0
 51 47  1  0  0  0  0
 51 50  1  0  0  0  0
 53 52  1  0  0  0  0
 54 53  1  0  0  0  0
 54 52  1  0  0  0  0
M  END
>  <MODEL>
9

>  <REMARK>
 VINA RESULT:      -6.2      2.937      7.994
  Name = 
  16 active torsions:
  status: ('A' for Active; 'I' for Inactive)
    1  A    between atoms: C_4  and  C_23
    2  A    between atoms: C_6  and  C_19
    3  A    between atoms: C_6  and  C_44
    4  A    between atoms: C_10  and  N_46
    5  A    between atoms: C_12  and  C_20
    6  A    between atoms: C_14  and  C_37
    7  A    between atoms: C_14  and  C_45
    8  A    between atoms: C_16  and  C_32
    9  A    between atoms: C_17  and  C_45
   10  A    between atoms: C_19  and  C_32
   11  A    between atoms: C_24  and  C_53
   12  A    between atoms: C_25  and  C_36
   13  A    between atoms: C_29  and  C_36
   14  A    between atoms: C_29  and  N_42
   15  A    between atoms: C_30  and  C_36
   16  A    between atoms: C_30  and  C_44
                            x       y       z     vdW  Elec       q    Type
                         _______ _______ _______ _____ _____    ______ ____

>  <TORSDO>
F 16

$$$$
