=
 OpenBabel11032420243D

 39 41  0  0  1  0  0  0  0  0999 V2000
  186.2770  177.9450  144.0830 C   0  0  0  0  0  0  0  0  0  0  0  0
  187.1590  177.7200  145.1440 C   0  0  0  0  0  3  0  0  0  0  0  0
  188.9350  177.2320  143.5750 C   0  0  0  0  0  3  0  0  0  0  0  0
  188.0560  177.4490  142.5090 C   0  0  0  0  0  0  0  0  0  0  0  0
  186.7280  177.7970  142.7630 C   0  0  0  0  0  3  0  0  0  0  0  0
  188.4930  177.3470  144.9030 C   0  0  0  0  0  0  0  0  0  0  0  0
  184.6740  178.7150  145.8370 C   0  0  0  0  0  1  0  0  0  0  0  0
  184.8560  178.3060  144.3800 C   0  0  1  0  0  3  0  0  0  0  0  0
  184.4190  179.3760  143.4980 N   0  0  0  0  0  2  0  0  0  0  0  0
  183.5480  178.7750  142.5010 C   0  0  0  0  0  2  0  0  0  0  0  0
  184.0310  179.0930  141.1660 N   0  0  0  0  0  2  0  0  0  0  0  0
  183.2040  177.1370  140.1860 O   0  0  0  0  0  0  0  0  0  0  0  0
  183.8280  178.2240  140.0470 C   0  0  0  0  0  0  0  0  0  0  0  0
  185.7740  178.7740  138.7770 O   0  0  0  0  0  0  0  0  0  0  0  0
  184.3780  178.5830  138.7070 C   0  0  1  0  0  3  0  0  0  0  0  0
  184.0730  177.5100  137.7010 C   0  0  0  0  0  2  0  0  0  0  0  0
  185.4160  177.2700  137.1070 C   0  0  0  0  0  2  0  0  0  0  0  0
  186.3560  177.7300  138.1110 N   0  0  0  0  0  0  0  0  0  0  0  0
  187.5080  178.2620  137.4000 C   0  0  0  0  0  2  0  0  0  0  0  0
  187.2300  178.2750  135.9100 C   0  0  0  0  0  1  0  0  0  0  0  0
  190.7950  177.2230  145.8430 C   0  0  0  0  0  0  0  0  0  0  0  0
  189.4500  177.1410  146.0240 C   0  0  0  0  0  0  0  0  0  0  0  0
  191.7360  176.9910  146.9080 N   0  0  0  0  0  2  0  0  0  0  0  0
  193.1100  175.6330  148.2530 N   0  0  0  0  0  2  0  0  0  0  0  0
  192.3210  175.7300  147.2370 C   0  0  0  0  0  3  0  0  0  0  0  0
  188.9000  178.2300  148.1860 C   0  0  0  0  0  1  0  0  0  0  0  0
  188.8670  176.9340  147.3940 C   0  0  0  0  0  2  0  0  0  0  0  0
  191.7970  178.9980  144.3470 C   0  0  0  0  0  1  0  0  0  0  0  0
  191.3100  177.6470  144.5770 N   0  0  0  0  0  2  0  0  0  0  0  0
  188.5530  177.4050  141.1030 C   0  0  0  0  0  2  0  0  0  0  0  0
  193.1600  176.2010  138.0520 C   0  0  0  0  0  0  0  0  0  0  0  0
  190.0070  177.5200  141.0830 N   0  0  0  0  0  2  0  0  0  0  0  0
  192.1630  177.3370  140.0560 C   0  0  0  0  0  3  0  0  0  0  0  0
  194.2370  176.0600  137.4170 O   0  0  0  0  0  0  0  0  0  0  0  0
  192.0410  175.5490  137.5560 C   0  0  0  0  0  3  0  0  0  0  0  0
  190.2480  176.1500  139.1300 N   0  0  0  0  0  0  0  0  0  0  0  0
  190.8240  176.9720  140.0440 C   0  0  0  0  0  0  0  0  0  0  0  0
  190.7420  175.5200  138.0390 C   0  0  0  0  0  3  0  0  0  0  0  0
  193.1900  176.9980  139.1870 C   0  0  0  0  0  3  0  0  0  0  0  0
  1  8  1  0  0  0  0
  1  2  1  0  0  0  0
  3  6  1  0  0  0  0
  4  5  1  0  0  0  0
  4  3  2  0  0  0  0
  5  1  2  0  0  0  0
  6  2  2  0  0  0  0
  6 22  1  0  0  0  0
  8  7  1  1  0  0  0
  9  8  1  0  0  0  0
 10  9  1  0  0  0  0
 11 10  1  0  0  0  0
 13 12  2  0  0  0  0
 13 11  1  0  0  0  0
 15 14  1  0  0  0  0
 15 13  1  1  0  0  0
 16 15  1  0  0  0  0
 17 16  1  0  0  0  0
 17 18  1  0  0  0  0
 18 14  1  0  0  0  0
 19 18  1  0  0  0  0
 20 19  1  0  0  0  0
 21 22  2  0  0  0  0
 21 23  1  0  0  0  0
 22 27  1  0  0  0  0
 23 25  1  0  0  0  0
 25 24  2  0  0  0  0
 27 26  1  0  0  0  0
 28 29  1  0  0  0  0
 29 21  1  0  0  0  0
 30  4  1  0  0  0  0
 31 39  1  0  0  0  0
 32 30  1  0  0  0  0
 34 31  2  0  0  0  0
 35 38  2  0  0  0  0
 35 31  1  0  0  0  0
 36 37  2  0  0  0  0
 37 33  1  0  0  0  0
 37 32  1  0  0  0  0
 38 36  1  0  0  0  0
 39 33  2  0  0  0  0
M  END
>  <MODEL>
1

>  <REMARK>
 VINA RESULT:      -9.5      0.000      0.000
  Name = 
  12 active torsions:
  status: ('A' for Active; 'I' for Inactive)
    1  A    between atoms: N_2  and  C_27
    2  A    between atoms: N_3  and  C_9
    3  A    between atoms: N_6  and  C_9
    4  A    between atoms: N_6  and  C_11
    5  A    between atoms: C_7  and  C_11
    6  A    between atoms: C_10  and  N_17
    7  A    between atoms: C_10  and  N_34
    8  A    between atoms: C_15  and  N_36
    9  A    between atoms: C_19  and  C_30
   10  A    between atoms: C_21  and  C_32
   11  A    between atoms: C_27  and  C_29
   12  A    between atoms: C_30  and  C_39
                            x       y       z     vdW  Elec       q    Type
                         _______ _______ _______ _____ _____    ______ ____

>  <TORSDO>
F 12

$$$$
=
 OpenBabel11032420243D

 39 41  0  0  1  0  0  0  0  0999 V2000
  186.1750  177.9240  144.2660 C   0  0  0  0  0  0  0  0  0  0  0  0
  187.0690  177.6820  145.3140 C   0  0  0  0  0  3  0  0  0  0  0  0
  188.8460  177.2900  143.7190 C   0  0  0  0  0  3  0  0  0  0  0  0
  187.9550  177.5240  142.6660 C   0  0  0  0  0  0  0  0  0  0  0  0
  186.6210  177.8310  142.9400 C   0  0  0  0  0  3  0  0  0  0  0  0
  188.4090  177.3490  145.0530 C   0  0  0  0  0  0  0  0  0  0  0  0
  184.5770  178.6610  146.0390 C   0  0  0  0  0  1  0  0  0  0  0  0
  184.7480  178.2410  144.5840 C   0  0  1  0  0  3  0  0  0  0  0  0
  184.2600  179.2850  143.6970 N   0  0  0  0  0  2  0  0  0  0  0  0
  182.8150  179.3250  143.8430 C   0  0  0  0  0  2  0  0  0  0  0  0
  182.1810  178.8650  142.6170 N   0  0  0  0  0  2  0  0  0  0  0  0
  180.3360  180.2910  142.8010 O   0  0  0  0  0  0  0  0  0  0  0  0
  180.9330  179.3890  142.1520 C   0  0  0  0  0  0  0  0  0  0  0  0
  181.1010  177.8230  140.3570 O   0  0  0  0  0  0  0  0  0  0  0  0
  180.3100  178.8530  140.9070 C   0  0  1  0  0  3  0  0  0  0  0  0
  178.9310  178.3260  141.1840 C   0  0  0  0  0  2  0  0  0  0  0  0
  179.0010  176.9740  140.5690 C   0  0  0  0  0  2  0  0  0  0  0  0
  180.4140  176.6520  140.5330 N   0  0  0  0  0  0  0  0  0  0  0  0
  180.6330  175.8430  139.3440 C   0  0  0  0  0  2  0  0  0  0  0  0
  179.7310  174.6250  139.3770 C   0  0  0  0  0  1  0  0  0  0  0  0
  190.7220  177.1470  145.9540 C   0  0  0  0  0  0  0  0  0  0  0  0
  189.3780  177.1280  146.1610 C   0  0  0  0  0  0  0  0  0  0  0  0
  191.6720  176.9000  147.0060 N   0  0  0  0  0  2  0  0  0  0  0  0
  193.0930  175.5280  148.2880 N   0  0  0  0  0  2  0  0  0  0  0  0
  192.2980  175.6450  147.2770 C   0  0  0  0  0  3  0  0  0  0  0  0
  188.8180  178.3110  148.2690 C   0  0  0  0  0  1  0  0  0  0  0  0
  188.8130  176.9750  147.5450 C   0  0  0  0  0  2  0  0  0  0  0  0
  191.7800  178.8420  144.4030 C   0  0  0  0  0  1  0  0  0  0  0  0
  191.2300  177.5220  144.6690 N   0  0  0  0  0  2  0  0  0  0  0  0
  188.4440  177.5400  141.2570 C   0  0  0  0  0  2  0  0  0  0  0  0
  192.9420  176.4520  138.0070 C   0  0  0  0  0  0  0  0  0  0  0  0
  189.9030  177.5540  141.2340 N   0  0  0  0  0  2  0  0  0  0  0  0
  192.0360  177.3630  140.1620 C   0  0  0  0  0  3  0  0  0  0  0  0
  194.0050  176.3260  137.3440 O   0  0  0  0  0  0  0  0  0  0  0  0
  191.7780  175.9570  137.4400 C   0  0  0  0  0  3  0  0  0  0  0  0
  190.0380  176.4570  139.1060 N   0  0  0  0  0  0  0  0  0  0  0  0
  190.6750  177.1000  140.1180 C   0  0  0  0  0  0  0  0  0  0  0  0
  190.4820  175.9520  137.9310 C   0  0  0  0  0  3  0  0  0  0  0  0
  193.0330  177.0780  139.2410 C   0  0  0  0  0  3  0  0  0  0  0  0
  1  8  1  0  0  0  0
  1  2  1  0  0  0  0
  3  6  1  0  0  0  0
  4  5  1  0  0  0  0
  4  3  2  0  0  0  0
  5  1  2  0  0  0  0
  6  2  2  0  0  0  0
  6 22  1  0  0  0  0
  8  7  1  1  0  0  0
  9 10  1  0  0  0  0
  9  8  1  0  0  0  0
 11 10  1  0  0  0  0
 13 11  1  0  0  0  0
 13 12  2  0  0  0  0
 14 18  1  0  0  0  0
 14 15  1  0  0  0  0
 15 16  1  0  0  0  0
 15 13  1  1  0  0  0
 17 16  1  0  0  0  0
 18 17  1  0  0  0  0
 19 20  1  0  0  0  0
 19 18  1  0  0  0  0
 21 22  2  0  0  0  0
 21 23  1  0  0  0  0
 22 27  1  0  0  0  0
 23 25  1  0  0  0  0
 25 24  2  0  0  0  0
 27 26  1  0  0  0  0
 28 29  1  0  0  0  0
 29 21  1  0  0  0  0
 30  4  1  0  0  0  0
 31 39  1  0  0  0  0
 32 30  1  0  0  0  0
 34 31  2  0  0  0  0
 35 38  2  0  0  0  0
 35 31  1  0  0  0  0
 36 37  2  0  0  0  0
 37 33  1  0  0  0  0
 37 32  1  0  0  0  0
 38 36  1  0  0  0  0
 39 33  2  0  0  0  0
M  END
>  <MODEL>
2

>  <REMARK>
 VINA RESULT:      -9.1      2.115      3.076
  Name = 
  12 active torsions:
  status: ('A' for Active; 'I' for Inactive)
    1  A    between atoms: N_2  and  C_27
    2  A    between atoms: N_3  and  C_9
    3  A    between atoms: N_6  and  C_9
    4  A    between atoms: N_6  and  C_11
    5  A    between atoms: C_7  and  C_11
    6  A    between atoms: C_10  and  N_17
    7  A    between atoms: C_10  and  N_34
    8  A    between atoms: C_15  and  N_36
    9  A    between atoms: C_19  and  C_30
   10  A    between atoms: C_21  and  C_32
   11  A    between atoms: C_27  and  C_29
   12  A    between atoms: C_30  and  C_39
                            x       y       z     vdW  Elec       q    Type
                         _______ _______ _______ _____ _____    ______ ____

>  <TORSDO>
F 12

$$$$
=
 OpenBabel11032420243D

 39 41  0  0  1  0  0  0  0  0999 V2000
  185.9790  177.9310  144.1850 C   0  0  0  0  0  0  0  0  0  0  0  0
  186.8510  177.6730  145.2490 C   0  0  0  0  0  3  0  0  0  0  0  0
  188.6820  177.3950  143.6920 C   0  0  0  0  0  3  0  0  0  0  0  0
  187.8140  177.6450  142.6230 C   0  0  0  0  0  0  0  0  0  0  0  0
  186.4650  177.9030  142.8700 C   0  0  0  0  0  3  0  0  0  0  0  0
  188.2070  177.3890  145.0140 C   0  0  0  0  0  0  0  0  0  0  0  0
  184.3470  178.8560  145.8340 C   0  0  0  0  0  1  0  0  0  0  0  0
  184.5360  178.1950  144.4740 C   0  0  1  0  0  3  0  0  0  0  0  0
  183.9620  179.0240  143.4260 N   0  0  0  0  0  2  0  0  0  0  0  0
  182.5210  179.0090  143.6150 C   0  0  0  0  0  2  0  0  0  0  0  0
  181.8520  179.0480  142.3220 N   0  0  0  0  0  2  0  0  0  0  0  0
  180.1470  180.4860  143.0250 O   0  0  0  0  0  0  0  0  0  0  0  0
  180.6600  179.8070  142.0950 C   0  0  0  0  0  0  0  0  0  0  0  0
  179.8340  181.0870  140.2560 O   0  0  0  0  0  0  0  0  0  0  0  0
  179.9960  179.7790  140.7590 C   0  0  1  0  0  3  0  0  0  0  0  0
  180.7970  178.9680  139.7810 C   0  0  0  0  0  2  0  0  0  0  0  0
  180.8960  179.9030  138.6300 C   0  0  0  0  0  2  0  0  0  0  0  0
  180.6930  181.2210  139.2000 N   0  0  0  0  0  0  0  0  0  0  0  0
  180.0130  182.0180  138.1910 C   0  0  0  0  0  2  0  0  0  0  0  0
  181.0080  182.9270  137.4970 C   0  0  0  0  0  1  0  0  0  0  0  0
  190.4970  177.1260  145.9540 C   0  0  0  0  0  0  0  0  0  0  0  0
  189.1510  177.1510  146.1400 C   0  0  0  0  0  0  0  0  0  0  0  0
  191.4230  176.8620  147.0250 N   0  0  0  0  0  2  0  0  0  0  0  0
  193.0410  175.5710  148.1460 N   0  0  0  0  0  2  0  0  0  0  0  0
  192.2950  175.7330  147.1060 C   0  0  0  0  0  3  0  0  0  0  0  0
  188.6980  178.3460  148.2670 C   0  0  0  0  0  1  0  0  0  0  0  0
  188.5590  177.0330  147.5170 C   0  0  0  0  0  2  0  0  0  0  0  0
  191.7420  178.7180  144.4350 C   0  0  0  0  0  1  0  0  0  0  0  0
  191.0370  177.4690  144.6740 N   0  0  0  0  0  2  0  0  0  0  0  0
  188.3410  177.7300  141.2310 C   0  0  0  0  0  2  0  0  0  0  0  0
  192.8230  176.5440  137.9920 C   0  0  0  0  0  0  0  0  0  0  0  0
  189.7960  177.6210  141.2390 N   0  0  0  0  0  2  0  0  0  0  0  0
  191.9360  177.3410  140.1990 C   0  0  0  0  0  3  0  0  0  0  0  0
  193.8890  176.3840  137.3430 O   0  0  0  0  0  0  0  0  0  0  0  0
  191.6380  176.2010  137.3590 C   0  0  0  0  0  3  0  0  0  0  0  0
  189.9000  176.7030  139.0260 N   0  0  0  0  0  0  0  0  0  0  0  0
  190.5590  177.2000  140.1040 C   0  0  0  0  0  0  0  0  0  0  0  0
  190.3320  176.2650  137.8210 C   0  0  0  0  0  3  0  0  0  0  0  0
  192.9310  177.0520  139.2780 C   0  0  0  0  0  3  0  0  0  0  0  0
  1  8  1  0  0  0  0
  1  2  1  0  0  0  0
  3  6  1  0  0  0  0
  4  5  1  0  0  0  0
  4  3  2  0  0  0  0
  5  1  2  0  0  0  0
  6  2  2  0  0  0  0
  6 22  1  0  0  0  0
  8  7  1  1  0  0  0
  9 10  1  0  0  0  0
  9  8  1  0  0  0  0
 11 10  1  0  0  0  0
 13 11  1  0  0  0  0
 13 12  2  0  0  0  0
 14 15  1  0  0  0  0
 15 13  1  1  0  0  0
 16 15  1  0  0  0  0
 17 18  1  0  0  0  0
 17 16  1  0  0  0  0
 18 14  1  0  0  0  0
 19 18  1  0  0  0  0
 20 19  1  0  0  0  0
 21 22  2  0  0  0  0
 21 23  1  0  0  0  0
 22 27  1  0  0  0  0
 23 25  1  0  0  0  0
 25 24  2  0  0  0  0
 27 26  1  0  0  0  0
 28 29  1  0  0  0  0
 29 21  1  0  0  0  0
 30 32  1  0  0  0  0
 30  4  1  0  0  0  0
 31 39  1  0  0  0  0
 34 31  2  0  0  0  0
 35 38  2  0  0  0  0
 35 31  1  0  0  0  0
 36 37  2  0  0  0  0
 37 33  1  0  0  0  0
 37 32  1  0  0  0  0
 38 36  1  0  0  0  0
 39 33  2  0  0  0  0
M  END
>  <MODEL>
3

>  <REMARK>
 VINA RESULT:      -9.0      2.268      3.006
  Name = 
  12 active torsions:
  status: ('A' for Active; 'I' for Inactive)
    1  A    between atoms: N_2  and  C_27
    2  A    between atoms: N_3  and  C_9
    3  A    between atoms: N_6  and  C_9
    4  A    between atoms: N_6  and  C_11
    5  A    between atoms: C_7  and  C_11
    6  A    between atoms: C_10  and  N_17
    7  A    between atoms: C_10  and  N_34
    8  A    between atoms: C_15  and  N_36
    9  A    between atoms: C_19  and  C_30
   10  A    between atoms: C_21  and  C_32
   11  A    between atoms: C_27  and  C_29
   12  A    between atoms: C_30  and  C_39
                            x       y       z     vdW  Elec       q    Type
                         _______ _______ _______ _____ _____    ______ ____

>  <TORSDO>
F 12

$$$$
=
 OpenBabel11032420243D

 39 41  0  0  1  0  0  0  0  0999 V2000
  188.1770  177.8130  138.3010 C   0  0  0  0  0  0  0  0  0  0  0  0
  189.2730  177.1520  137.7360 C   0  0  0  0  0  3  0  0  0  0  0  0
  190.2410  176.8600  139.9340 C   0  0  0  0  0  3  0  0  0  0  0  0
  189.1520  177.5260  140.5060 C   0  0  0  0  0  0  0  0  0  0  0  0
  188.1270  178.0080  139.6890 C   0  0  0  0  0  3  0  0  0  0  0  0
  190.3230  176.6820  138.5430 C   0  0  0  0  0  0  0  0  0  0  0  0
  187.4650  178.1750  135.9350 C   0  0  0  0  0  1  0  0  0  0  0  0
  187.0970  178.3300  137.4060 C   0  0  1  0  0  3  0  0  0  0  0  0
  185.8450  177.6430  137.6880 N   0  0  0  0  0  2  0  0  0  0  0  0
  184.9270  178.6380  138.2180 C   0  0  0  0  0  2  0  0  0  0  0  0
  184.3150  178.1420  139.4420 N   0  0  0  0  0  2  0  0  0  0  0  0
  185.4100  179.6640  140.8400 O   0  0  0  0  0  0  0  0  0  0  0  0
  184.6050  178.7000  140.7270 C   0  0  0  0  0  0  0  0  0  0  0  0
  184.7820  178.3700  143.0860 O   0  0  0  0  0  0  0  0  0  0  0  0
  183.9770  178.1270  141.9540 C   0  0  1  0  0  3  0  0  0  0  0  0
  182.6130  178.7160  142.1790 C   0  0  0  0  0  2  0  0  0  0  0  0
  182.7030  179.1380  143.6020 C   0  0  0  0  0  2  0  0  0  0  0  0
  184.1230  179.2870  143.8590 N   0  0  0  0  0  0  0  0  0  0  0  0
  184.3430  178.9150  145.2480 C   0  0  0  0  0  2  0  0  0  0  0  0
  185.6720  178.1990  145.3840 C   0  0  0  0  0  1  0  0  0  0  0  0
  191.3660  174.6530  137.5450 C   0  0  0  0  0  0  0  0  0  0  0  0
  191.4750  175.9440  137.9560 C   0  0  0  0  0  0  0  0  0  0  0  0
  192.4790  173.9130  137.0090 N   0  0  0  0  0  2  0  0  0  0  0  0
  193.7630  173.0060  135.2560 N   0  0  0  0  0  2  0  0  0  0  0  0
  192.7670  173.7410  135.6200 C   0  0  0  0  0  3  0  0  0  0  0  0
  193.5480  176.7810  139.0350 C   0  0  0  0  0  1  0  0  0  0  0  0
  192.7470  176.7170  137.7460 C   0  0  0  0  0  2  0  0  0  0  0  0
  189.3370  173.7640  136.3260 C   0  0  0  0  0  1  0  0  0  0  0  0
  190.0830  174.0200  137.5480 N   0  0  0  0  0  2  0  0  0  0  0  0
  189.0320  177.6400  141.9880 C   0  0  0  0  0  2  0  0  0  0  0  0
  191.3370  176.3400  146.9860 C   0  0  0  0  0  0  0  0  0  0  0  0
  190.2570  177.1690  142.6250 N   0  0  0  0  0  2  0  0  0  0  0  0
  191.5470  176.3850  144.4860 C   0  0  0  0  0  3  0  0  0  0  0  0
  191.9170  175.9430  148.0300 O   0  0  0  0  0  0  0  0  0  0  0  0
  190.1250  176.9950  147.1440 C   0  0  0  0  0  3  0  0  0  0  0  0
  189.4320  177.5390  144.8470 N   0  0  0  0  0  0  0  0  0  0  0  0
  190.4040  177.0350  144.0430 C   0  0  0  0  0  0  0  0  0  0  0  0
  189.2760  177.5370  146.1910 C   0  0  0  0  0  3  0  0  0  0  0  0
  191.9610  176.0820  145.7740 C   0  0  0  0  0  3  0  0  0  0  0  0
  1  5  1  0  0  0  0
  2  1  2  0  0  0  0
  2  6  1  0  0  0  0
  3  4  1  0  0  0  0
  4 30  1  0  0  0  0
  5  4  2  0  0  0  0
  6  3  2  0  0  0  0
  8  7  1  6  0  0  0
  8  9  1  0  0  0  0
  8  1  1  0  0  0  0
  9 10  1  0  0  0  0
 10 11  1  0  0  0  0
 11 13  1  0  0  0  0
 13 12  2  0  0  0  0
 14 18  1  0  0  0  0
 15 13  1  6  0  0  0
 15 16  1  0  0  0  0
 15 14  1  0  0  0  0
 16 17  1  0  0  0  0
 17 18  1  0  0  0  0
 18 19  1  0  0  0  0
 19 20  1  0  0  0  0
 21 29  1  0  0  0  0
 21 22  2  0  0  0  0
 22  6  1  0  0  0  0
 23 21  1  0  0  0  0
 24 25  2  0  0  0  0
 25 23  1  0  0  0  0
 27 22  1  0  0  0  0
 27 26  1  0  0  0  0
 28 29  1  0  0  0  0
 30 32  1  0  0  0  0
 31 35  1  0  0  0  0
 31 34  2  0  0  0  0
 32 37  1  0  0  0  0
 33 39  2  0  0  0  0
 36 38  1  0  0  0  0
 37 33  1  0  0  0  0
 37 36  2  0  0  0  0
 38 35  2  0  0  0  0
 39 31  1  0  0  0  0
M  END
>  <MODEL>
4

>  <REMARK>
 VINA RESULT:      -8.5      2.557      7.444
  Name = 
  12 active torsions:
  status: ('A' for Active; 'I' for Inactive)
    1  A    between atoms: N_2  and  C_27
    2  A    between atoms: N_3  and  C_9
    3  A    between atoms: N_6  and  C_9
    4  A    between atoms: N_6  and  C_11
    5  A    between atoms: C_7  and  C_11
    6  A    between atoms: C_10  and  N_17
    7  A    between atoms: C_10  and  N_34
    8  A    between atoms: C_15  and  N_36
    9  A    between atoms: C_19  and  C_30
   10  A    between atoms: C_21  and  C_32
   11  A    between atoms: C_27  and  C_29
   12  A    between atoms: C_30  and  C_39
                            x       y       z     vdW  Elec       q    Type
                         _______ _______ _______ _____ _____    ______ ____

>  <TORSDO>
F 12

$$$$
=
 OpenBabel11032420243D

 39 41  0  0  1  0  0  0  0  0999 V2000
  186.9590  177.4500  137.3760 C   0  0  0  0  0  0  0  0  0  0  0  0
  186.1030  176.6610  136.6010 C   0  0  0  0  0  3  0  0  0  0  0  0
  184.2080  177.4370  137.8910 C   0  0  0  0  0  3  0  0  0  0  0  0
  185.0600  178.2230  138.6740 C   0  0  0  0  0  0  0  0  0  0  0  0
  186.4340  178.2220  138.4210 C   0  0  0  0  0  3  0  0  0  0  0  0
  184.7210  176.6340  136.8580 C   0  0  0  0  0  0  0  0  0  0  0  0
  189.0790  178.7710  137.3840 C   0  0  0  0  0  1  0  0  0  0  0  0
  188.4280  177.4240  137.0930 C   0  0  1  0  0  3  0  0  0  0  0  0
  189.0680  176.3760  137.8720 N   0  0  0  0  0  2  0  0  0  0  0  0
  190.2620  176.9560  138.4630 C   0  0  0  0  0  2  0  0  0  0  0  0
  190.4720  176.4060  139.7940 N   0  0  0  0  0  2  0  0  0  0  0  0
  189.0050  177.8890  140.8530 O   0  0  0  0  0  0  0  0  0  0  0  0
  189.8120  176.9250  140.9540 C   0  0  0  0  0  0  0  0  0  0  0  0
  191.0850  177.0970  142.9670 O   0  0  0  0  0  0  0  0  0  0  0  0
  190.0930  176.3470  142.3000 C   0  0  1  0  0  3  0  0  0  0  0  0
  188.8470  176.3160  143.1390 C   0  0  0  0  0  2  0  0  0  0  0  0
  189.3170  176.9630  144.3930 C   0  0  0  0  0  2  0  0  0  0  0  0
  190.4680  177.7520  143.9980 N   0  0  0  0  0  0  0  0  0  0  0  0
  191.3900  177.7460  145.1230 C   0  0  0  0  0  2  0  0  0  0  0  0
  191.6270  176.3220  145.5860 C   0  0  0  0  0  1  0  0  0  0  0  0
  183.4560  174.5530  136.3430 C   0  0  0  0  0  0  0  0  0  0  0  0
  183.7960  175.8280  136.0160 C   0  0  0  0  0  0  0  0  0  0  0  0
  182.5910  173.7460  135.5220 N   0  0  0  0  0  2  0  0  0  0  0  0
  180.6380  172.4990  135.1010 N   0  0  0  0  0  2  0  0  0  0  0  0
  181.3000  173.2650  135.9020 C   0  0  0  0  0  3  0  0  0  0  0  0
  181.8870  177.2130  135.2450 C   0  0  0  0  0  1  0  0  0  0  0  0
  183.1710  176.5150  134.8340 C   0  0  0  0  0  2  0  0  0  0  0  0
  184.9320  173.0020  137.6890 C   0  0  0  0  0  1  0  0  0  0  0  0
  183.8860  174.0090  137.5950 N   0  0  0  0  0  2  0  0  0  0  0  0
  184.5000  179.1340  139.7140 C   0  0  0  0  0  2  0  0  0  0  0  0
  184.4050  178.6660  145.3480 C   0  0  0  0  0  0  0  0  0  0  0  0
  185.3470  179.1170  140.9010 N   0  0  0  0  0  2  0  0  0  0  0  0
  185.7600  178.8150  143.2420 C   0  0  0  0  0  3  0  0  0  0  0  0
  184.5060  178.4860  146.5900 O   0  0  0  0  0  0  0  0  0  0  0  0
  183.1300  178.8490  144.8360 C   0  0  0  0  0  3  0  0  0  0  0  0
  183.4910  179.1430  142.4200 N   0  0  0  0  0  0  0  0  0  0  0  0
  184.8300  179.0250  142.2330 C   0  0  0  0  0  0  0  0  0  0  0  0
  182.7200  179.0680  143.5300 C   0  0  0  0  0  3  0  0  0  0  0  0
  185.5780  178.6610  144.6080 C   0  0  0  0  0  3  0  0  0  0  0  0
  1  5  1  0  0  0  0
  2  6  1  0  0  0  0
  2  1  2  0  0  0  0
  3  4  1  0  0  0  0
  4 30  1  0  0  0  0
  5  4  2  0  0  0  0
  6  3  2  0  0  0  0
  8  1  1  0  0  0  0
  8  7  1  1  0  0  0
  8  9  1  0  0  0  0
  9 10  1  0  0  0  0
 10 11  1  0  0  0  0
 11 13  1  0  0  0  0
 12 13  2  0  0  0  0
 14 18  1  0  0  0  0
 15 13  1  6  0  0  0
 15 14  1  0  0  0  0
 15 16  1  0  0  0  0
 16 17  1  0  0  0  0
 18 17  1  0  0  0  0
 18 19  1  0  0  0  0
 19 20  1  0  0  0  0
 21 29  1  0  0  0  0
 22 21  2  0  0  0  0
 22  6  1  0  0  0  0
 23 25  1  0  0  0  0
 23 21  1  0  0  0  0
 24 25  2  0  0  0  0
 27 26  1  0  0  0  0
 27 22  1  0  0  0  0
 29 28  1  0  0  0  0
 30 32  1  0  0  0  0
 31 34  2  0  0  0  0
 32 37  1  0  0  0  0
 33 39  2  0  0  0  0
 35 31  1  0  0  0  0
 36 38  1  0  0  0  0
 37 36  2  0  0  0  0
 37 33  1  0  0  0  0
 38 35  2  0  0  0  0
 39 31  1  0  0  0  0
M  END
>  <MODEL>
5

>  <REMARK>
 VINA RESULT:      -8.5      3.020      9.868
  Name = 
  12 active torsions:
  status: ('A' for Active; 'I' for Inactive)
    1  A    between atoms: N_2  and  C_27
    2  A    between atoms: N_3  and  C_9
    3  A    between atoms: N_6  and  C_9
    4  A    between atoms: N_6  and  C_11
    5  A    between atoms: C_7  and  C_11
    6  A    between atoms: C_10  and  N_17
    7  A    between atoms: C_10  and  N_34
    8  A    between atoms: C_15  and  N_36
    9  A    between atoms: C_19  and  C_30
   10  A    between atoms: C_21  and  C_32
   11  A    between atoms: C_27  and  C_29
   12  A    between atoms: C_30  and  C_39
                            x       y       z     vdW  Elec       q    Type
                         _______ _______ _______ _____ _____    ______ ____

>  <TORSDO>
F 12

$$$$
=
 OpenBabel11032420243D

 39 41  0  0  1  0  0  0  0  0999 V2000
  187.7870  177.8060  138.1250 C   0  0  0  0  0  0  0  0  0  0  0  0
  188.8040  176.9990  137.6040 C   0  0  0  0  0  3  0  0  0  0  0  0
  189.8700  176.9270  139.7750 C   0  0  0  0  0  3  0  0  0  0  0  0
  188.8590  177.7390  140.3010 C   0  0  0  0  0  0  0  0  0  0  0  0
  187.8250  178.1830  139.4750 C   0  0  0  0  0  3  0  0  0  0  0  0
  189.8630  176.5630  138.4180 C   0  0  0  0  0  0  0  0  0  0  0  0
  187.1360  178.2760  135.7600 C   0  0  0  0  0  1  0  0  0  0  0  0
  186.6950  178.2780  137.2190 C   0  0  1  0  0  3  0  0  0  0  0  0
  185.5120  177.4490  137.3890 N   0  0  0  0  0  2  0  0  0  0  0  0
  184.4740  178.3010  137.9440 C   0  0  0  0  0  2  0  0  0  0  0  0
  184.1190  177.8420  139.2790 N   0  0  0  0  0  2  0  0  0  0  0  0
  184.9220  179.7520  140.3650 O   0  0  0  0  0  0  0  0  0  0  0  0
  184.3770  178.6190  140.4530 C   0  0  0  0  0  0  0  0  0  0  0  0
  185.1840  177.9200  142.5900 O   0  0  0  0  0  0  0  0  0  0  0  0
  184.0260  178.0820  141.8010 C   0  0  1  0  0  3  0  0  0  0  0  0
  183.0690  178.9990  142.5080 C   0  0  0  0  0  2  0  0  0  0  0  0
  183.7390  179.1700  143.8240 C   0  0  0  0  0  2  0  0  0  0  0  0
  185.1350  178.8680  143.5750 N   0  0  0  0  0  0  0  0  0  0  0  0
  185.6580  178.2550  144.7870 C   0  0  0  0  0  2  0  0  0  0  0  0
  185.0440  178.9190  146.0040 C   0  0  0  0  0  1  0  0  0  0  0  0
  192.2470  176.0010  137.9700 C   0  0  0  0  0  0  0  0  0  0  0  0
  190.9310  175.6740  137.8840 C   0  0  0  0  0  0  0  0  0  0  0  0
  193.2900  175.1700  137.4270 N   0  0  0  0  0  2  0  0  0  0  0  0
  195.1450  174.7470  136.0400 N   0  0  0  0  0  2  0  0  0  0  0  0
  194.2940  175.5980  136.5050 C   0  0  0  0  0  3  0  0  0  0  0  0
  190.4920  174.3860  135.8080 C   0  0  0  0  0  1  0  0  0  0  0  0
  190.5000  174.3460  137.3260 C   0  0  0  0  0  2  0  0  0  0  0  0
  193.5590  177.0990  139.8320 C   0  0  0  0  0  1  0  0  0  0  0  0
  192.6360  177.1630  138.7110 N   0  0  0  0  0  2  0  0  0  0  0  0
  188.8290  178.0520  141.7590 C   0  0  0  0  0  2  0  0  0  0  0  0
  191.0990  176.5360  146.7110 C   0  0  0  0  0  0  0  0  0  0  0  0
  190.0650  177.6050  142.3920 N   0  0  0  0  0  2  0  0  0  0  0  0
  191.3570  176.7650  144.2260 C   0  0  0  0  0  3  0  0  0  0  0  0
  191.6800  176.1000  147.7400 O   0  0  0  0  0  0  0  0  0  0  0  0
  189.8510  177.1130  146.8840 C   0  0  0  0  0  3  0  0  0  0  0  0
  189.1760  177.7760  144.6130 N   0  0  0  0  0  0  0  0  0  0  0  0
  190.1890  177.3810  143.8000 C   0  0  0  0  0  0  0  0  0  0  0  0
  188.9930  177.6730  145.9500 C   0  0  0  0  0  3  0  0  0  0  0  0
  191.7610  176.3960  145.5000 C   0  0  0  0  0  3  0  0  0  0  0  0
  1  5  1  0  0  0  0
  2  1  2  0  0  0  0
  2  6  1  0  0  0  0
  3  4  1  0  0  0  0
  4 30  1  0  0  0  0
  5  4  2  0  0  0  0
  6  3  2  0  0  0  0
  8  7  1  6  0  0  0
  8  9  1  0  0  0  0
  8  1  1  0  0  0  0
  9 10  1  0  0  0  0
 10 11  1  0  0  0  0
 11 13  1  0  0  0  0
 12 13  2  0  0  0  0
 14 18  1  0  0  0  0
 15 13  1  6  0  0  0
 15 16  1  0  0  0  0
 15 14  1  0  0  0  0
 16 17  1  0  0  0  0
 18 17  1  0  0  0  0
 18 19  1  0  0  0  0
 19 20  1  0  0  0  0
 21 29  1  0  0  0  0
 22 21  2  0  0  0  0
 22  6  1  0  0  0  0
 23 21  1  0  0  0  0
 24 25  2  0  0  0  0
 25 23  1  0  0  0  0
 26 27  1  0  0  0  0
 27 22  1  0  0  0  0
 29 28  1  0  0  0  0
 30 32  1  0  0  0  0
 31 35  1  0  0  0  0
 31 34  2  0  0  0  0
 32 37  1  0  0  0  0
 33 39  2  0  0  0  0
 36 38  1  0  0  0  0
 37 33  1  0  0  0  0
 37 36  2  0  0  0  0
 38 35  2  0  0  0  0
 39 31  1  0  0  0  0
M  END
>  <MODEL>
6

>  <REMARK>
 VINA RESULT:      -8.2      2.472      7.228
  Name = 
  12 active torsions:
  status: ('A' for Active; 'I' for Inactive)
    1  A    between atoms: N_2  and  C_27
    2  A    between atoms: N_3  and  C_9
    3  A    between atoms: N_6  and  C_9
    4  A    between atoms: N_6  and  C_11
    5  A    between atoms: C_7  and  C_11
    6  A    between atoms: C_10  and  N_17
    7  A    between atoms: C_10  and  N_34
    8  A    between atoms: C_15  and  N_36
    9  A    between atoms: C_19  and  C_30
   10  A    between atoms: C_21  and  C_32
   11  A    between atoms: C_27  and  C_29
   12  A    between atoms: C_30  and  C_39
                            x       y       z     vdW  Elec       q    Type
                         _______ _______ _______ _____ _____    ______ ____

>  <TORSDO>
F 12

$$$$
=
 OpenBabel11032420243D

 39 41  0  0  1  0  0  0  0  0999 V2000
  184.3500  179.1630  142.8800 C   0  0  0  0  0  0  0  0  0  0  0  0
  183.4090  178.7860  141.9170 C   0  0  0  0  0  3  0  0  0  0  0  0
  185.1880  178.3630  140.3320 C   0  0  0  0  0  3  0  0  0  0  0  0
  186.1340  178.7460  141.2890 C   0  0  0  0  0  0  0  0  0  0  0  0
  185.7140  179.1530  142.5570 C   0  0  0  0  0  3  0  0  0  0  0  0
  183.8150  178.3960  140.6300 C   0  0  0  0  0  0  0  0  0  0  0  0
  182.8620  178.6300  144.8140 C   0  0  0  0  0  1  0  0  0  0  0  0
  183.8760  179.6050  144.2280 C   0  0  1  0  0  3  0  0  0  0  0  0
  185.0080  179.7580  145.1290 N   0  0  0  0  0  2  0  0  0  0  0  0
  184.9830  178.6220  146.0370 C   0  0  0  0  0  2  0  0  0  0  0  0
  186.1450  177.7780  145.8040 N   0  0  0  0  0  2  0  0  0  0  0  0
  187.2450  178.4110  147.7690 O   0  0  0  0  0  0  0  0  0  0  0  0
  187.2500  177.7220  146.7130 C   0  0  0  0  0  0  0  0  0  0  0  0
  188.6940  176.8580  145.0180 O   0  0  0  0  0  0  0  0  0  0  0  0
  188.4330  176.8670  146.4050 C   0  0  1  0  0  3  0  0  0  0  0  0
  189.6500  177.3570  147.1350 C   0  0  0  0  0  2  0  0  0  0  0  0
  190.6450  177.4390  146.0330 C   0  0  0  0  0  2  0  0  0  0  0  0
  189.8540  177.5560  144.8230 N   0  0  0  0  0  0  0  0  0  0  0  0
  190.5920  176.8770  143.7690 C   0  0  0  0  0  2  0  0  0  0  0  0
  189.6500  176.0050  142.9630 C   0  0  0  0  0  1  0  0  0  0  0  0
  182.2350  178.8360  138.7560 C   0  0  0  0  0  0  0  0  0  0  0  0
  182.8250  177.9560  139.6090 C   0  0  0  0  0  0  0  0  0  0  0  0
  181.2490  178.4340  137.7870 N   0  0  0  0  0  2  0  0  0  0  0  0
  180.4690  178.0660  135.5970 N   0  0  0  0  0  2  0  0  0  0  0  0
  181.4480  178.3880  136.3740 C   0  0  0  0  0  3  0  0  0  0  0  0
  183.4030  175.8880  138.3640 C   0  0  0  0  0  1  0  0  0  0  0  0
  182.5730  176.4790  139.4910 C   0  0  0  0  0  2  0  0  0  0  0  0
  181.7390  181.3120  138.6180 C   0  0  0  0  0  1  0  0  0  0  0  0
  182.6680  180.2000  138.7420 N   0  0  0  0  0  2  0  0  0  0  0  0
  187.5920  178.6310  140.9940 C   0  0  0  0  0  2  0  0  0  0  0  0
  191.0130  176.4780  137.0400 C   0  0  0  0  0  0  0  0  0  0  0  0
  187.8040  178.5380  139.5530 N   0  0  0  0  0  2  0  0  0  0  0  0
  188.8910  177.6980  137.5910 C   0  0  0  0  0  3  0  0  0  0  0  0
  191.6550  175.9750  136.0810 O   0  0  0  0  0  0  0  0  0  0  0  0
  191.5730  176.3720  138.3030 C   0  0  0  0  0  3  0  0  0  0  0  0
  189.9470  177.4850  139.7760 N   0  0  0  0  0  0  0  0  0  0  0  0
  188.9320  177.8820  138.9660 C   0  0  0  0  0  0  0  0  0  0  0  0
  191.1020  176.8260  139.5250 C   0  0  0  0  0  3  0  0  0  0  0  0
  189.8020  177.0870  136.7430 C   0  0  0  0  0  3  0  0  0  0  0  0
  1  8  1  0  0  0  0
  2  1  2  0  0  0  0
  3  6  2  0  0  0  0
  3  4  1  0  0  0  0
  4  5  2  0  0  0  0
  5  1  1  0  0  0  0
  6  2  1  0  0  0  0
  8  7  1  1  0  0  0
  8  9  1  0  0  0  0
  9 10  1  0  0  0  0
 11 10  1  0  0  0  0
 11 13  1  0  0  0  0
 13 12  2  0  0  0  0
 14 15  1  0  0  0  0
 15 13  1  6  0  0  0
 15 16  1  0  0  0  0
 17 16  1  0  0  0  0
 18 14  1  0  0  0  0
 18 17  1  0  0  0  0
 19 18  1  0  0  0  0
 20 19  1  0  0  0  0
 21 22  2  0  0  0  0
 22  6  1  0  0  0  0
 23 21  1  0  0  0  0
 24 25  2  0  0  0  0
 25 23  1  0  0  0  0
 26 27  1  0  0  0  0
 27 22  1  0  0  0  0
 28 29  1  0  0  0  0
 29 21  1  0  0  0  0
 30  4  1  0  0  0  0
 31 35  1  0  0  0  0
 32 30  1  0  0  0  0
 33 37  1  0  0  0  0
 34 31  2  0  0  0  0
 35 38  2  0  0  0  0
 37 32  1  0  0  0  0
 37 36  2  0  0  0  0
 38 36  1  0  0  0  0
 39 31  1  0  0  0  0
 39 33  2  0  0  0  0
M  END
>  <MODEL>
7

>  <REMARK>
 VINA RESULT:      -8.2      2.823      7.776
  Name = 
  12 active torsions:
  status: ('A' for Active; 'I' for Inactive)
    1  A    between atoms: N_2  and  C_27
    2  A    between atoms: N_3  and  C_9
    3  A    between atoms: N_6  and  C_9
    4  A    between atoms: N_6  and  C_11
    5  A    between atoms: C_7  and  C_11
    6  A    between atoms: C_10  and  N_17
    7  A    between atoms: C_10  and  N_34
    8  A    between atoms: C_15  and  N_36
    9  A    between atoms: C_19  and  C_30
   10  A    between atoms: C_21  and  C_32
   11  A    between atoms: C_27  and  C_29
   12  A    between atoms: C_30  and  C_39
                            x       y       z     vdW  Elec       q    Type
                         _______ _______ _______ _____ _____    ______ ____

>  <TORSDO>
F 12

$$$$
=
 OpenBabel11032420243D

 39 41  0  0  1  0  0  0  0  0999 V2000
  188.1840  178.0700  142.5420 C   0  0  0  0  0  0  0  0  0  0  0  0
  188.8830  177.7270  143.7040 C   0  0  0  0  0  3  0  0  0  0  0  0
  186.8230  177.7860  144.9720 C   0  0  0  0  0  3  0  0  0  0  0  0
  186.1180  178.1360  143.8150 C   0  0  0  0  0  0  0  0  0  0  0  0
  186.8000  178.2850  142.6050 C   0  0  0  0  0  3  0  0  0  0  0  0
  188.2140  177.5950  144.9330 C   0  0  0  0  0  0  0  0  0  0  0  0
  189.9250  177.0950  141.0400 C   0  0  0  0  0  1  0  0  0  0  0  0
  188.9370  178.2340  141.2610 C   0  0  1  0  0  3  0  0  0  0  0  0
  188.0080  178.3200  140.1440 N   0  0  0  0  0  2  0  0  0  0  0  0
  188.8010  178.5600  138.9500 C   0  0  0  0  0  2  0  0  0  0  0  0
  188.4150  177.6240  137.9040 N   0  0  0  0  0  2  0  0  0  0  0  0
  186.5020  178.8120  137.2730 O   0  0  0  0  0  0  0  0  0  0  0  0
  187.2450  177.8080  137.1010 C   0  0  0  0  0  0  0  0  0  0  0  0
  186.7390  175.5190  136.6480 O   0  0  0  0  0  0  0  0  0  0  0  0
  186.8760  176.7970  136.0680 C   0  0  1  0  0  3  0  0  0  0  0  0
  185.5910  177.1730  135.3870 C   0  0  0  0  0  2  0  0  0  0  0  0
  184.8140  175.9110  135.5000 C   0  0  0  0  0  2  0  0  0  0  0  0
  185.4070  175.2060  136.6200 N   0  0  0  0  0  0  0  0  0  0  0  0
  185.3060  173.7840  136.3270 C   0  0  0  0  0  2  0  0  0  0  0  0
  185.1660  173.0020  137.6180 C   0  0  0  0  0  1  0  0  0  0  0  0
  190.2840  176.9780  146.1710 C   0  0  0  0  0  0  0  0  0  0  0  0
  188.9420  177.1940  146.1680 C   0  0  0  0  0  0  0  0  0  0  0  0
  190.9990  176.5550  147.3480 N   0  0  0  0  0  2  0  0  0  0  0  0
  192.8190  175.5750  148.4740 N   0  0  0  0  0  2  0  0  0  0  0  0
  192.3020  175.9700  147.3590 C   0  0  0  0  0  3  0  0  0  0  0  0
  188.3860  178.3750  148.2790 C   0  0  0  0  0  1  0  0  0  0  0  0
  188.1460  177.1300  147.4420 C   0  0  0  0  0  2  0  0  0  0  0  0
  191.6750  176.2310  144.1960 C   0  0  0  0  0  1  0  0  0  0  0  0
  191.0470  177.2700  144.9960 N   0  0  0  0  0  2  0  0  0  0  0  0
  184.6320  178.2560  143.8470 C   0  0  0  0  0  2  0  0  0  0  0  0
  180.1580  179.6820  140.6960 C   0  0  0  0  0  0  0  0  0  0  0  0
  184.0990  178.2270  142.4890 N   0  0  0  0  0  2  0  0  0  0  0  0
  182.5000  178.7890  140.7960 C   0  0  0  0  0  3  0  0  0  0  0  0
  179.2560  180.0340  139.8910 O   0  0  0  0  0  0  0  0  0  0  0  0
  179.8790  179.7950  142.0490 C   0  0  0  0  0  3  0  0  0  0  0  0
  181.9290  179.0020  143.1540 N   0  0  0  0  0  0  0  0  0  0  0  0
  182.7880  178.6910  142.1500 C   0  0  0  0  0  0  0  0  0  0  0  0
  180.6650  179.4860  143.1480 C   0  0  0  0  0  3  0  0  0  0  0  0
  181.3480  179.2190  140.1550 C   0  0  0  0  0  3  0  0  0  0  0  0
  1  5  2  0  0  0  0
  1  2  1  0  0  0  0
  2  6  2  0  0  0  0
  4 30  1  0  0  0  0
  4  3  2  0  0  0  0
  5  4  1  0  0  0  0
  6  3  1  0  0  0  0
  6 22  1  0  0  0  0
  8  7  1  6  0  0  0
  8  1  1  0  0  0  0
  9  8  1  0  0  0  0
 10  9  1  0  0  0  0
 11 10  1  0  0  0  0
 13 12  2  0  0  0  0
 13 11  1  0  0  0  0
 15 14  1  0  0  0  0
 15 13  1  1  0  0  0
 16 17  1  0  0  0  0
 16 15  1  0  0  0  0
 17 18  1  0  0  0  0
 18 14  1  0  0  0  0
 19 18  1  0  0  0  0
 19 20  1  0  0  0  0
 21 23  1  0  0  0  0
 22 21  2  0  0  0  0
 22 27  1  0  0  0  0
 23 25  1  0  0  0  0
 25 24  2  0  0  0  0
 27 26  1  0  0  0  0
 28 29  1  0  0  0  0
 29 21  1  0  0  0  0
 31 35  1  0  0  0  0
 32 30  1  0  0  0  0
 33 37  1  0  0  0  0
 34 31  2  0  0  0  0
 35 38  2  0  0  0  0
 37 32  1  0  0  0  0
 37 36  2  0  0  0  0
 38 36  1  0  0  0  0
 39 31  1  0  0  0  0
 39 33  2  0  0  0  0
M  END
>  <MODEL>
8

>  <REMARK>
 VINA RESULT:      -8.0      2.368      6.411
  Name = 
  12 active torsions:
  status: ('A' for Active; 'I' for Inactive)
    1  A    between atoms: N_2  and  C_27
    2  A    between atoms: N_3  and  C_9
    3  A    between atoms: N_6  and  C_9
    4  A    between atoms: N_6  and  C_11
    5  A    between atoms: C_7  and  C_11
    6  A    between atoms: C_10  and  N_17
    7  A    between atoms: C_10  and  N_34
    8  A    between atoms: C_15  and  N_36
    9  A    between atoms: C_19  and  C_30
   10  A    between atoms: C_21  and  C_32
   11  A    between atoms: C_27  and  C_29
   12  A    between atoms: C_30  and  C_39
                            x       y       z     vdW  Elec       q    Type
                         _______ _______ _______ _____ _____    ______ ____

>  <TORSDO>
F 12

$$$$
=
 OpenBabel11032420243D

 39 41  0  0  1  0  0  0  0  0999 V2000
  188.8000  177.4320  139.8360 C   0  0  0  0  0  0  0  0  0  0  0  0
  189.4500  177.5260  141.0700 C   0  0  0  0  0  3  0  0  0  0  0  0
  187.5200  178.6380  142.0140 C   0  0  0  0  0  3  0  0  0  0  0  0
  186.8650  178.5540  140.7800 C   0  0  0  0  0  0  0  0  0  0  0  0
  187.5080  177.9590  139.6920 C   0  0  0  0  0  3  0  0  0  0  0  0
  188.8250  178.1410  142.1680 C   0  0  0  0  0  0  0  0  0  0  0  0
  189.6210  177.7540  137.4990 C   0  0  0  0  0  1  0  0  0  0  0  0
  189.5120  176.8000  138.6830 C   0  0  1  0  0  3  0  0  0  0  0  0
  190.8340  176.3570  139.0960 N   0  0  0  0  0  2  0  0  0  0  0  0
  191.7490  176.6830  138.0140 C   0  0  0  0  0  2  0  0  0  0  0  0
  192.7150  175.6080  137.8420 N   0  0  0  0  0  2  0  0  0  0  0  0
  194.2500  176.9110  136.6530 O   0  0  0  0  0  0  0  0  0  0  0  0
  193.9510  175.7890  137.1440 C   0  0  0  0  0  0  0  0  0  0  0  0
  196.1680  175.0970  136.5870 O   0  0  0  0  0  0  0  0  0  0  0  0
  194.8870  174.6410  136.9650 C   0  0  1  0  0  3  0  0  0  0  0  0
  194.9990  173.8410  138.2320 C   0  0  0  0  0  2  0  0  0  0  0  0
  196.4740  173.7580  138.4010 C   0  0  0  0  0  2  0  0  0  0  0  0
  197.0010  174.8820  137.6510 N   0  0  0  0  0  0  0  0  0  0  0  0
  198.2860  174.4660  137.1130 C   0  0  0  0  0  2  0  0  0  0  0  0
  198.4350  172.9620  137.2410 C   0  0  0  0  0  1  0  0  0  0  0  0
  188.9290  177.6810  144.6130 C   0  0  0  0  0  0  0  0  0  0  0  0
  189.4930  178.2130  143.4960 C   0  0  0  0  0  0  0  0  0  0  0  0
  189.5450  177.7720  145.9110 N   0  0  0  0  0  2  0  0  0  0  0  0
  190.7970  176.9300  147.7180 N   0  0  0  0  0  2  0  0  0  0  0  0
  190.3440  176.7580  146.5220 C   0  0  0  0  0  3  0  0  0  0  0  0
  191.9210  177.7570  143.2530 C   0  0  0  0  0  1  0  0  0  0  0  0
  190.8700  178.8160  143.5380 C   0  0  0  0  0  2  0  0  0  0  0  0
  186.4750  177.3290  145.1070 C   0  0  0  0  0  1  0  0  0  0  0  0
  187.7270  176.9140  144.4960 N   0  0  0  0  0  2  0  0  0  0  0  0
  185.4520  179.0090  140.6460 C   0  0  0  0  0  2  0  0  0  0  0  0
  180.6350  178.4660  143.5600 C   0  0  0  0  0  0  0  0  0  0  0  0
  184.8560  179.1840  141.9660 N   0  0  0  0  0  2  0  0  0  0  0  0
  183.0950  178.9640  143.5750 C   0  0  0  0  0  3  0  0  0  0  0  0
  179.6450  178.3020  144.3190 O   0  0  0  0  0  0  0  0  0  0  0  0
  180.4170  178.3400  142.1970 C   0  0  0  0  0  3  0  0  0  0  0  0
  182.6280  178.7410  141.1950 N   0  0  0  0  0  0  0  0  0  0  0  0
  183.4700  178.9540  142.2390 C   0  0  0  0  0  0  0  0  0  0  0  0
  181.3040  178.4690  141.1380 C   0  0  0  0  0  3  0  0  0  0  0  0
  181.8540  178.7540  144.1570 C   0  0  0  0  0  3  0  0  0  0  0  0
  1  2  1  0  0  0  0
  2  6  2  0  0  0  0
  3  6  1  0  0  0  0
  4  3  2  0  0  0  0
  5  1  2  0  0  0  0
  5  4  1  0  0  0  0
  6 22  1  0  0  0  0
  8  7  1  6  0  0  0
  8  9  1  0  0  0  0
  8  1  1  0  0  0  0
 10  9  1  0  0  0  0
 11 10  1  0  0  0  0
 12 13  2  0  0  0  0
 13 11  1  0  0  0  0
 14 15  1  0  0  0  0
 14 18  1  0  0  0  0
 15 13  1  1  0  0  0
 15 16  1  0  0  0  0
 16 17  1  0  0  0  0
 18 17  1  0  0  0  0
 19 20  1  0  0  0  0
 19 18  1  0  0  0  0
 21 23  1  0  0  0  0
 22 27  1  0  0  0  0
 22 21  2  0  0  0  0
 23 25  1  0  0  0  0
 25 24  2  0  0  0  0
 26 27  1  0  0  0  0
 29 21  1  0  0  0  0
 29 28  1  0  0  0  0
 30  4  1  0  0  0  0
 30 32  1  0  0  0  0
 31 39  1  0  0  0  0
 31 34  2  0  0  0  0
 32 37  1  0  0  0  0
 33 39  2  0  0  0  0
 35 31  1  0  0  0  0
 36 37  2  0  0  0  0
 37 33  1  0  0  0  0
 38 36  1  0  0  0  0
 38 35  2  0  0  0  0
M  END
>  <MODEL>
9

>  <REMARK>
 VINA RESULT:      -8.0      2.728      8.716
  Name = 
  12 active torsions:
  status: ('A' for Active; 'I' for Inactive)
    1  A    between atoms: N_2  and  C_27
    2  A    between atoms: N_3  and  C_9
    3  A    between atoms: N_6  and  C_9
    4  A    between atoms: N_6  and  C_11
    5  A    between atoms: C_7  and  C_11
    6  A    between atoms: C_10  and  N_17
    7  A    between atoms: C_10  and  N_34
    8  A    between atoms: C_15  and  N_36
    9  A    between atoms: C_19  and  C_30
   10  A    between atoms: C_21  and  C_32
   11  A    between atoms: C_27  and  C_29
   12  A    between atoms: C_30  and  C_39
                            x       y       z     vdW  Elec       q    Type
                         _______ _______ _______ _____ _____    ______ ____

>  <TORSDO>
F 12

$$$$
