=
 OpenBabel11032420303D

 33 36  0  0  1  0  0  0  0  0999 V2000
  185.5290  178.3070  144.1140 N   0  0  0  0  0  0  0  0  0  0  0  0
  184.6770  179.0270  146.1690 O   0  0  0  0  0  0  0  0  0  0  0  0
  184.5320  178.9560  144.9190 C   0  0  0  0  0  0  0  0  0  0  0  0
  186.5470  178.4690  141.9080 C   0  0  0  0  0  2  0  0  0  0  0  0
  187.7840  177.7500  142.4500 C   0  0  2  0  0  3  0  0  0  0  0  0
  185.3070  178.0630  142.6930 C   0  0  0  0  0  2  0  0  0  0  0  0
  186.7020  177.7030  144.7400 C   0  0  0  0  0  2  0  0  0  0  0  0
  187.9620  178.0580  143.9480 C   0  0  1  0  0  3  0  0  0  0  0  0
  190.6210  176.8290  146.3790 C   0  0  0  0  0  0  0  0  0  0  0  0
  191.2060  176.7800  147.6280 C   0  0  0  0  0  3  0  0  0  0  0  0
  189.4890  177.5210  145.9070 C   0  0  0  0  0  0  0  0  0  0  0  0
  189.1550  177.3510  144.5380 C   0  0  0  0  0  0  0  0  0  0  0  0
  192.2870  175.9660  147.5720 N   0  0  0  0  0  2  0  0  0  0  0  0
  191.0650  175.8420  144.2210 C   0  0  0  0  0  3  0  0  0  0  0  0
  192.3970  175.4970  146.3060 C   0  0  0  0  0  3  0  0  0  0  0  0
  189.9450  176.5150  143.7110 C   0  0  0  0  0  3  0  0  0  0  0  0
  191.3700  176.0260  145.5630 C   0  0  0  0  0  0  0  0  0  0  0  0
  188.6560  178.3980  146.7630 C   0  0  0  0  0  3  0  0  0  0  0  0
  188.1220  178.0260  147.9200 C   0  0  0  0  0  2  0  0  0  0  0  0
  183.3170  179.5700  144.2980 C   0  0  0  0  0  2  0  0  0  0  0  0
  182.1730  178.5630  144.2080 C   0  0  0  0  0  2  0  0  0  0  0  0
  179.8850  178.0600  143.1230 C   0  0  2  0  0  3  0  0  0  0  0  0
  179.6750  180.2630  142.2240 C   0  0  0  0  0  2  0  0  0  0  0  0
  181.1790  178.8490  143.0750 C   0  0  1  0  0  3  0  0  0  0  0  0
  180.8800  180.2120  142.9480 O   0  0  0  0  0  0  0  0  0  0  0  0
  178.9650  178.9240  142.3150 C   0  0  0  0  0  2  0  0  0  0  0  0
  179.3850  177.9740  144.4250 O   0  0  0  0  0  1  0  0  0  0  0  0
  189.0100  178.1990  141.6610 C   0  0  0  0  0  2  0  0  0  0  0  0
  189.0460  177.5470  140.2880 C   0  0  0  0  0  2  0  0  0  0  0  0
  189.3690  178.5720  139.2150 C   0  0  0  0  0  2  0  0  0  0  0  0
  188.6220  179.4410  137.1240 O   0  0  0  0  0  1  0  0  0  0  0  0
  187.0790  178.3360  138.4620 N   0  0  0  0  0  1  0  0  0  0  0  0
  188.4590  178.3810  138.0160 C   0  0  2  0  0  3  0  0  0  0  0  0
  1  7  1  0  0  0  0
  1  3  1  0  0  0  0
  3  2  2  0  0  0  0
  4  5  1  0  0  0  0
  4  6  1  0  0  0  0
  5 28  1  6  0  0  0
  5  8  1  0  0  0  0
  6  1  1  0  0  0  0
  8 12  1  1  0  0  0
  8  7  1  0  0  0  0
  9 10  2  0  0  0  0
 11  9  1  0  0  0  0
 11 18  1  0  0  0  0
 12 11  2  0  0  0  0
 13 10  1  0  0  0  0
 14 17  1  0  0  0  0
 15 13  1  0  0  0  0
 16 14  2  0  0  0  0
 16 12  1  0  0  0  0
 17 15  2  0  0  0  0
 17  9  1  0  0  0  0
 18 19  2  0  0  0  0
 20  3  1  0  0  0  0
 21 20  1  0  0  0  0
 22 27  1  1  0  0  0
 23 26  1  0  0  0  0
 23 25  1  0  0  0  0
 24 22  1  0  0  0  0
 24 21  1  1  0  0  0
 25 24  1  0  0  0  0
 26 22  1  0  0  0  0
 29 28  1  0  0  0  0
 30 29  1  0  0  0  0
 33 31  1  6  0  0  0
 33 32  1  0  0  0  0
 33 30  1  0  0  0  0
M  END
>  <MODEL>
1

>  <REMARK>
 VINA RESULT:      -9.0      0.000      0.000
  Name = 
  9 active torsions:
  status: ('A' for Active; 'I' for Inactive)
    1  A    between atoms: C_7  and  C_8
    2  A    between atoms: C_7  and  C_24
    3  A    between atoms: C_9  and  C_24
    4  A    between atoms: C_10  and  C_11
    5  A    between atoms: C_14  and  C_33
    6  A    between atoms: C_17  and  C_27
    7  A    between atoms: C_20  and  C_32
    8  A    between atoms: C_31  and  C_32
    9  A    between atoms: C_31  and  C_33
                            x       y       z     vdW  Elec       q    Type
                         _______ _______ _______ _____ _____    ______ ____

>  <TORSDO>
F 9

$$$$
=
 OpenBabel11032420303D

 33 36  0  0  1  0  0  0  0  0999 V2000
  186.0870  178.6480  140.4840 N   0  0  0  0  0  0  0  0  0  0  0  0
  188.0730  177.7590  139.6280 O   0  0  0  0  0  0  0  0  0  0  0  0
  186.9110  178.1890  139.4010 C   0  0  0  0  0  0  0  0  0  0  0  0
  183.7470  178.7180  141.1540 C   0  0  0  0  0  2  0  0  0  0  0  0
  184.1910  178.8190  142.6140 C   0  0  2  0  0  3  0  0  0  0  0  0
  184.8080  179.3040  140.2320 C   0  0  0  0  0  2  0  0  0  0  0  0
  186.6000  178.6440  141.8510 C   0  0  0  0  0  2  0  0  0  0  0  0
  185.5390  178.1010  142.8100 C   0  0  1  0  0  3  0  0  0  0  0  0
  187.5160  177.5320  146.0130 C   0  0  0  0  0  0  0  0  0  0  0  0
  188.5100  176.9100  146.7400 C   0  0  0  0  0  3  0  0  0  0  0  0
  187.1170  177.3880  144.6700 C   0  0  0  0  0  0  0  0  0  0  0  0
  186.0340  178.1940  144.2300 C   0  0  0  0  0  0  0  0  0  0  0  0
  188.4930  177.3960  148.0050 N   0  0  0  0  0  2  0  0  0  0  0  0
  185.8350  179.2060  146.4570 C   0  0  0  0  0  3  0  0  0  0  0  0
  187.5040  178.3170  148.0900 C   0  0  0  0  0  3  0  0  0  0  0  0
  185.4060  179.0930  145.1260 C   0  0  0  0  0  3  0  0  0  0  0  0
  186.8960  178.4060  146.8610 C   0  0  0  0  0  0  0  0  0  0  0  0
  187.7660  176.4500  143.7230 C   0  0  0  0  0  3  0  0  0  0  0  0
  189.0440  176.5140  143.3660 C   0  0  0  0  0  2  0  0  0  0  0  0
  186.4080  178.1960  137.9910 C   0  0  0  0  0  2  0  0  0  0  0  0
  187.5320  178.5060  137.0050 C   0  0  0  0  0  2  0  0  0  0  0  0
  189.4300  177.1390  135.9120 C   0  0  2  0  0  3  0  0  0  0  0  0
  188.1880  175.0990  135.9900 C   0  0  0  0  0  2  0  0  0  0  0  0
  187.9390  177.3140  136.1300 C   0  0  1  0  0  3  0  0  0  0  0  0
  187.3960  176.1020  136.5770 O   0  0  0  0  0  0  0  0  0  0  0  0
  189.5230  175.6840  135.5640 C   0  0  0  0  0  2  0  0  0  0  0  0
  190.1490  177.3610  137.0890 O   0  0  0  0  0  1  0  0  0  0  0  0
  183.1190  178.2010  143.5080 C   0  0  0  0  0  2  0  0  0  0  0  0
  182.0340  179.2120  143.8390 C   0  0  0  0  0  2  0  0  0  0  0  0
  180.6650  178.5560  143.8240 C   0  0  0  0  0  2  0  0  0  0  0  0
  180.1710  178.6130  141.4920 O   0  0  0  0  0  1  0  0  0  0  0  0
  180.0010  180.5920  142.6940 N   0  0  0  0  0  1  0  0  0  0  0  0
  179.8080  179.1540  142.7250 C   0  0  2  0  0  3  0  0  0  0  0  0
  1  7  1  0  0  0  0
  3  2  2  0  0  0  0
  3  1  1  0  0  0  0
  4  5  1  0  0  0  0
  5  8  1  0  0  0  0
  5 28  1  1  0  0  0
  6  1  1  0  0  0  0
  6  4  1  0  0  0  0
  7  8  1  0  0  0  0
  8 12  1  1  0  0  0
  9 10  2  0  0  0  0
  9 17  1  0  0  0  0
 10 13  1  0  0  0  0
 11  9  1  0  0  0  0
 12 11  2  0  0  0  0
 12 16  1  0  0  0  0
 13 15  1  0  0  0  0
 14 17  1  0  0  0  0
 16 14  2  0  0  0  0
 17 15  2  0  0  0  0
 18 11  1  0  0  0  0
 19 18  2  0  0  0  0
 20  3  1  0  0  0  0
 21 20  1  0  0  0  0
 22 24  1  0  0  0  0
 22 27  1  1  0  0  0
 23 25  1  0  0  0  0
 24 25  1  0  0  0  0
 24 21  1  1  0  0  0
 26 22  1  0  0  0  0
 26 23  1  0  0  0  0
 28 29  1  0  0  0  0
 30 29  1  0  0  0  0
 32 33  1  0  0  0  0
 33 31  1  6  0  0  0
 33 30  1  0  0  0  0
M  END
>  <MODEL>
2

>  <REMARK>
 VINA RESULT:      -8.8      2.367      7.361
  Name = 
  9 active torsions:
  status: ('A' for Active; 'I' for Inactive)
    1  A    between atoms: C_7  and  C_8
    2  A    between atoms: C_7  and  C_24
    3  A    between atoms: C_9  and  C_24
    4  A    between atoms: C_10  and  C_11
    5  A    between atoms: C_14  and  C_33
    6  A    between atoms: C_17  and  C_27
    7  A    between atoms: C_20  and  C_32
    8  A    between atoms: C_31  and  C_32
    9  A    between atoms: C_31  and  C_33
                            x       y       z     vdW  Elec       q    Type
                         _______ _______ _______ _____ _____    ______ ____

>  <TORSDO>
F 9

$$$$
=
 OpenBabel11032420303D

 33 36  0  0  1  0  0  0  0  0999 V2000
  189.3310  176.9880  140.2110 N   0  0  0  0  0  0  0  0  0  0  0  0
  187.8220  177.1680  138.4350 O   0  0  0  0  0  0  0  0  0  0  0  0
  189.0150  177.0190  138.8110 C   0  0  0  0  0  0  0  0  0  0  0  0
  191.1070  177.6440  141.7430 C   0  0  0  0  0  2  0  0  0  0  0  0
  190.0820  177.6900  142.8770 C   0  0  2  0  0  3  0  0  0  0  0  0
  190.6740  176.6510  140.6720 C   0  0  0  0  0  2  0  0  0  0  0  0
  188.2700  177.0990  141.2080 C   0  0  0  0  0  2  0  0  0  0  0  0
  188.6930  178.0580  142.3220 C   0  0  1  0  0  3  0  0  0  0  0  0
  185.4530  178.6980  144.2150 C   0  0  0  0  0  0  0  0  0  0  0  0
  184.1710  179.2000  144.3080 C   0  0  0  0  0  3  0  0  0  0  0  0
  186.3820  178.7050  143.1560 C   0  0  0  0  0  0  0  0  0  0  0  0
  187.6400  178.0930  143.3980 C   0  0  0  0  0  0  0  0  0  0  0  0
  183.6900  178.9400  145.5470 N   0  0  0  0  0  2  0  0  0  0  0  0
  186.9630  177.5230  145.6880 C   0  0  0  0  0  3  0  0  0  0  0  0
  184.6480  178.2820  146.2430 C   0  0  0  0  0  3  0  0  0  0  0  0
  187.9160  177.5090  144.6590 C   0  0  0  0  0  3  0  0  0  0  0  0
  185.7410  178.1290  145.4250 C   0  0  0  0  0  0  0  0  0  0  0  0
  186.1030  179.3130  141.8340 C   0  0  0  0  0  3  0  0  0  0  0  0
  185.1570  178.8940  141.0020 C   0  0  0  0  0  2  0  0  0  0  0  0
  190.0870  176.8950  137.7740 C   0  0  0  0  0  2  0  0  0  0  0  0
  190.1770  175.4670  137.2410 C   0  0  0  0  0  2  0  0  0  0  0  0
  191.9990  173.7870  136.5150 C   0  0  2  0  0  3  0  0  0  0  0  0
  193.7240  174.9400  137.6990 C   0  0  0  0  0  2  0  0  0  0  0  0
  191.5020  174.7640  137.5640 C   0  0  1  0  0  3  0  0  0  0  0  0
  192.5310  175.6630  137.8760 O   0  0  0  0  0  0  0  0  0  0  0  0
  193.4670  173.7350  136.8110 C   0  0  0  0  0  2  0  0  0  0  0  0
  191.8230  174.2880  135.2230 O   0  0  0  0  0  1  0  0  0  0  0  0
  190.5320  178.7120  143.9180 C   0  0  0  0  0  2  0  0  0  0  0  0
  191.7220  178.1970  144.7100 C   0  0  0  0  0  2  0  0  0  0  0  0
  191.4850  176.7700  145.1710 C   0  0  0  0  0  2  0  0  0  0  0  0
  192.3460  175.5220  147.0110 O   0  0  0  0  0  1  0  0  0  0  0  0
  190.3180  176.6180  147.2890 N   0  0  0  0  0  1  0  0  0  0  0  0
  191.6340  176.6740  146.6780 C   0  0  2  0  0  3  0  0  0  0  0  0
  1  6  1  0  0  0  0
  1  7  1  0  0  0  0
  2  3  2  0  0  0  0
  3  1  1  0  0  0  0
  4  5  1  0  0  0  0
  5 28  1  1  0  0  0
  6  4  1  0  0  0  0
  7  8  1  0  0  0  0
  8  5  1  0  0  0  0
  8 12  1  1  0  0  0
  9 10  2  0  0  0  0
  9 17  1  0  0  0  0
 10 13  1  0  0  0  0
 11 12  2  0  0  0  0
 11  9  1  0  0  0  0
 12 16  1  0  0  0  0
 13 15  1  0  0  0  0
 16 14  2  0  0  0  0
 17 14  1  0  0  0  0
 17 15  2  0  0  0  0
 18 11  1  0  0  0  0
 19 18  2  0  0  0  0
 20  3  1  0  0  0  0
 21 20  1  0  0  0  0
 22 27  1  6  0  0  0
 22 26  1  0  0  0  0
 22 24  1  0  0  0  0
 23 25  1  0  0  0  0
 24 21  1  6  0  0  0
 24 25  1  0  0  0  0
 26 23  1  0  0  0  0
 28 29  1  0  0  0  0
 29 30  1  0  0  0  0
 30 33  1  0  0  0  0
 33 31  1  6  0  0  0
 33 32  1  0  0  0  0
M  END
>  <MODEL>
3

>  <REMARK>
 VINA RESULT:      -8.8      3.560      8.861
  Name = 
  9 active torsions:
  status: ('A' for Active; 'I' for Inactive)
    1  A    between atoms: C_7  and  C_8
    2  A    between atoms: C_7  and  C_24
    3  A    between atoms: C_9  and  C_24
    4  A    between atoms: C_10  and  C_11
    5  A    between atoms: C_14  and  C_33
    6  A    between atoms: C_17  and  C_27
    7  A    between atoms: C_20  and  C_32
    8  A    between atoms: C_31  and  C_32
    9  A    between atoms: C_31  and  C_33
                            x       y       z     vdW  Elec       q    Type
                         _______ _______ _______ _____ _____    ______ ____

>  <TORSDO>
F 9

$$$$
=
 OpenBabel11032420303D

 33 36  0  0  1  0  0  0  0  0999 V2000
  186.0740  178.6580  140.3870 N   0  0  0  0  0  0  0  0  0  0  0  0
  188.0640  177.7600  139.5510 O   0  0  0  0  0  0  0  0  0  0  0  0
  186.9060  178.1970  139.3120 C   0  0  0  0  0  0  0  0  0  0  0  0
  183.7270  178.7390  141.0320 C   0  0  0  0  0  2  0  0  0  0  0  0
  184.1560  178.8350  142.4970 C   0  0  2  0  0  3  0  0  0  0  0  0
  184.8010  179.3210  140.1230 C   0  0  0  0  0  2  0  0  0  0  0  0
  186.5720  178.6480  141.7590 C   0  0  0  0  0  2  0  0  0  0  0  0
  185.4980  178.1090  142.7060 C   0  0  1  0  0  3  0  0  0  0  0  0
  187.4480  177.5330  145.9240 C   0  0  0  0  0  0  0  0  0  0  0  0
  188.4400  176.9140  146.6570 C   0  0  0  0  0  3  0  0  0  0  0  0
  187.0630  177.3960  144.5760 C   0  0  0  0  0  0  0  0  0  0  0  0
  185.9780  178.1950  144.1310 C   0  0  0  0  0  0  0  0  0  0  0  0
  188.4060  177.3910  147.9240 N   0  0  0  0  0  2  0  0  0  0  0  0
  185.7480  179.1900  146.3640 C   0  0  0  0  0  3  0  0  0  0  0  0
  187.4080  178.3030  148.0070 C   0  0  0  0  0  3  0  0  0  0  0  0
  185.3340  179.0830  145.0280 C   0  0  0  0  0  3  0  0  0  0  0  0
  186.8120  178.3960  146.7720 C   0  0  0  0  0  0  0  0  0  0  0  0
  187.7300  176.4700  143.6290 C   0  0  0  0  0  3  0  0  0  0  0  0
  189.0100  176.5450  143.2870 C   0  0  0  0  0  2  0  0  0  0  0  0
  186.4190  178.2100  137.8970 C   0  0  0  0  0  2  0  0  0  0  0  0
  186.4350  176.8080  137.2940 C   0  0  0  0  0  2  0  0  0  0  0  0
  184.9960  174.7610  136.6570 C   0  0  2  0  0  3  0  0  0  0  0  0
  183.0980  175.5460  137.8780 C   0  0  0  0  0  2  0  0  0  0  0  0
  185.0400  176.2340  137.0160 C   0  0  1  0  0  3  0  0  0  0  0  0
  184.1350  176.4790  138.0570 O   0  0  0  0  0  0  0  0  0  0  0  0
  183.5860  174.3970  137.0120 C   0  0  0  0  0  2  0  0  0  0  0  0
  185.8630  174.0120  137.4580 O   0  0  0  0  0  1  0  0  0  0  0  0
  183.0710  178.2210  143.3780 C   0  0  0  0  0  2  0  0  0  0  0  0
  181.9690  179.2260  143.6690 C   0  0  0  0  0  2  0  0  0  0  0  0
  180.6410  178.5210  143.8810 C   0  0  0  0  0  2  0  0  0  0  0  0
  179.3070  178.5470  141.9050 O   0  0  0  0  0  1  0  0  0  0  0  0
  179.9560  180.5840  142.8130 N   0  0  0  0  0  1  0  0  0  0  0  0
  179.5440  179.2230  143.1020 C   0  0  2  0  0  3  0  0  0  0  0  0
  1  7  1  0  0  0  0
  3  2  2  0  0  0  0
  3  1  1  0  0  0  0
  4  5  1  0  0  0  0
  5  8  1  0  0  0  0
  5 28  1  1  0  0  0
  6  1  1  0  0  0  0
  6  4  1  0  0  0  0
  7  8  1  0  0  0  0
  8 12  1  1  0  0  0
  9 10  2  0  0  0  0
  9 17  1  0  0  0  0
 10 13  1  0  0  0  0
 11  9  1  0  0  0  0
 12 11  2  0  0  0  0
 12 16  1  0  0  0  0
 13 15  1  0  0  0  0
 14 17  1  0  0  0  0
 16 14  2  0  0  0  0
 17 15  2  0  0  0  0
 18 11  1  0  0  0  0
 19 18  2  0  0  0  0
 20  3  1  0  0  0  0
 21 20  1  0  0  0  0
 22 26  1  0  0  0  0
 22 24  1  0  0  0  0
 22 27  1  1  0  0  0
 23 25  1  0  0  0  0
 24 21  1  1  0  0  0
 24 25  1  0  0  0  0
 26 23  1  0  0  0  0
 28 29  1  0  0  0  0
 29 30  1  0  0  0  0
 32 33  1  0  0  0  0
 33 31  1  6  0  0  0
 33 30  1  0  0  0  0
M  END
>  <MODEL>
4

>  <REMARK>
 VINA RESULT:      -8.7      3.082      6.553
  Name = 
  9 active torsions:
  status: ('A' for Active; 'I' for Inactive)
    1  A    between atoms: C_7  and  C_8
    2  A    between atoms: C_7  and  C_24
    3  A    between atoms: C_9  and  C_24
    4  A    between atoms: C_10  and  C_11
    5  A    between atoms: C_14  and  C_33
    6  A    between atoms: C_17  and  C_27
    7  A    between atoms: C_20  and  C_32
    8  A    between atoms: C_31  and  C_32
    9  A    between atoms: C_31  and  C_33
                            x       y       z     vdW  Elec       q    Type
                         _______ _______ _______ _____ _____    ______ ____

>  <TORSDO>
F 9

$$$$
=
 OpenBabel11032420303D

 33 36  0  0  1  0  0  0  0  0999 V2000
  189.3310  177.0680  140.1700 N   0  0  0  0  0  0  0  0  0  0  0  0
  187.8300  177.3500  138.4000 O   0  0  0  0  0  0  0  0  0  0  0  0
  189.0180  177.1550  138.7710 C   0  0  0  0  0  0  0  0  0  0  0  0
  191.1220  177.6210  141.7240 C   0  0  0  0  0  2  0  0  0  0  0  0
  190.0960  177.6600  142.8580 C   0  0  2  0  0  3  0  0  0  0  0  0
  190.6620  176.6770  140.6210 C   0  0  0  0  0  2  0  0  0  0  0  0
  188.2710  177.1770  141.1690 C   0  0  0  0  0  2  0  0  0  0  0  0
  188.7200  178.0860  142.3140 C   0  0  1  0  0  3  0  0  0  0  0  0
  185.4800  178.7210  144.2100 C   0  0  0  0  0  0  0  0  0  0  0  0
  184.1990  179.2250  144.3050 C   0  0  0  0  0  3  0  0  0  0  0  0
  186.4100  178.7330  143.1510 C   0  0  0  0  0  0  0  0  0  0  0  0
  187.6660  178.1160  143.3900 C   0  0  0  0  0  0  0  0  0  0  0  0
  183.7170  178.9590  145.5420 N   0  0  0  0  0  2  0  0  0  0  0  0
  186.9870  177.5330  145.6760 C   0  0  0  0  0  3  0  0  0  0  0  0
  184.6730  178.2940  146.2340 C   0  0  0  0  0  3  0  0  0  0  0  0
  187.9400  177.5240  144.6470 C   0  0  0  0  0  3  0  0  0  0  0  0
  185.7660  178.1440  145.4150 C   0  0  0  0  0  0  0  0  0  0  0  0
  186.1330  179.3500  141.8330 C   0  0  0  0  0  3  0  0  0  0  0  0
  185.1250  179.0040  141.0420 C   0  0  0  0  0  2  0  0  0  0  0  0
  190.0870  177.0330  137.7310 C   0  0  0  0  0  2  0  0  0  0  0  0
  189.6300  176.1580  136.5670 C   0  0  0  0  0  2  0  0  0  0  0  0
  191.2570  174.1820  136.9100 C   0  0  2  0  0  3  0  0  0  0  0  0
  191.2480  173.5980  134.5940 C   0  0  0  0  0  2  0  0  0  0  0  0
  190.7350  175.2660  135.9860 C   0  0  1  0  0  3  0  0  0  0  0  0
  190.3780  174.6900  134.7590 O   0  0  0  0  0  0  0  0  0  0  0  0
  191.8290  173.1960  135.9380 C   0  0  0  0  0  2  0  0  0  0  0  0
  190.2190  173.5640  137.6120 O   0  0  0  0  0  1  0  0  0  0  0  0
  190.5740  178.6330  143.9320 C   0  0  0  0  0  2  0  0  0  0  0  0
  191.7200  178.0410  144.7360 C   0  0  0  0  0  2  0  0  0  0  0  0
  191.3320  176.6890  145.3080 C   0  0  0  0  0  2  0  0  0  0  0  0
  192.3860  175.8790  147.2880 O   0  0  0  0  0  1  0  0  0  0  0  0
  190.1020  176.2910  147.3560 N   0  0  0  0  0  1  0  0  0  0  0  0
  191.3800  176.7270  146.8240 C   0  0  2  0  0  3  0  0  0  0  0  0
  1  6  1  0  0  0  0
  1  7  1  0  0  0  0
  2  3  2  0  0  0  0
  3  1  1  0  0  0  0
  4  5  1  0  0  0  0
  5 28  1  1  0  0  0
  6  4  1  0  0  0  0
  7  8  1  0  0  0  0
  8  5  1  0  0  0  0
  8 12  1  1  0  0  0
  9 10  2  0  0  0  0
  9 17  1  0  0  0  0
 10 13  1  0  0  0  0
 11 12  2  0  0  0  0
 11  9  1  0  0  0  0
 12 16  1  0  0  0  0
 13 15  1  0  0  0  0
 16 14  2  0  0  0  0
 17 14  1  0  0  0  0
 17 15  2  0  0  0  0
 18 11  1  0  0  0  0
 19 18  2  0  0  0  0
 20  3  1  0  0  0  0
 21 20  1  0  0  0  0
 22 27  1  6  0  0  0
 23 25  1  0  0  0  0
 23 26  1  0  0  0  0
 24 21  1  1  0  0  0
 24 22  1  0  0  0  0
 25 24  1  0  0  0  0
 26 22  1  0  0  0  0
 28 29  1  0  0  0  0
 29 30  1  0  0  0  0
 30 33  1  0  0  0  0
 33 31  1  1  0  0  0
 33 32  1  0  0  0  0
M  END
>  <MODEL>
5

>  <REMARK>
 VINA RESULT:      -8.6      3.550      8.645
  Name = 
  9 active torsions:
  status: ('A' for Active; 'I' for Inactive)
    1  A    between atoms: C_7  and  C_8
    2  A    between atoms: C_7  and  C_24
    3  A    between atoms: C_9  and  C_24
    4  A    between atoms: C_10  and  C_11
    5  A    between atoms: C_14  and  C_33
    6  A    between atoms: C_17  and  C_27
    7  A    between atoms: C_20  and  C_32
    8  A    between atoms: C_31  and  C_32
    9  A    between atoms: C_31  and  C_33
                            x       y       z     vdW  Elec       q    Type
                         _______ _______ _______ _____ _____    ______ ____

>  <TORSDO>
F 9

$$$$
=
 OpenBabel11032420303D

 33 36  0  0  1  0  0  0  0  0999 V2000
  189.5610  177.2120  142.1320 N   0  0  0  0  0  0  0  0  0  0  0  0
  191.0880  176.5170  143.7600 O   0  0  0  0  0  0  0  0  0  0  0  0
  190.0770  177.2110  143.4720 C   0  0  0  0  0  0  0  0  0  0  0  0
  188.4680  178.7050  140.5490 C   0  0  0  0  0  2  0  0  0  0  0  0
  188.9980  177.8410  139.4030 C   0  0  2  0  0  3  0  0  0  0  0  0
  188.2990  177.8700  141.8120 C   0  0  0  0  0  2  0  0  0  0  0  0
  190.1870  176.3870  141.1020 C   0  0  0  0  0  2  0  0  0  0  0  0
  190.3310  177.1850  139.8050 C   0  0  1  0  0  3  0  0  0  0  0  0
  192.7040  175.4720  137.3700 C   0  0  0  0  0  0  0  0  0  0  0  0
  193.9550  175.2600  136.8290 C   0  0  0  0  0  3  0  0  0  0  0  0
  192.2680  176.3250  138.4030 C   0  0  0  0  0  0  0  0  0  0  0  0
  190.8840  176.3020  138.7170 C   0  0  0  0  0  0  0  0  0  0  0  0
  193.8530  174.3320  135.8470 N   0  0  0  0  0  0  0  0  0  0  0  0
  190.4820  174.6100  136.9840 C   0  0  0  0  0  2  0  0  0  0  0  0
  192.5570  173.9520  135.7570 C   0  0  0  0  0  3  0  0  0  0  0  0
  190.0070  175.4450  138.0060 C   0  0  0  0  0  3  0  0  0  0  0  0
  191.8400  174.6530  136.6970 C   0  0  0  0  0  0  0  0  0  0  0  0
  193.1760  177.2250  139.1530 C   0  0  0  0  0  3  0  0  0  0  0  0
  193.8960  176.8530  140.2050 C   0  0  0  0  0  2  0  0  0  0  0  0
  189.4420  178.0400  144.5440 C   0  0  0  0  0  2  0  0  0  0  0  0
  188.7670  177.1610  145.5950 C   0  0  0  0  0  2  0  0  0  0  0  0
  186.8990  177.7830  147.2650 C   0  0  2  0  0  3  0  0  0  0  0  0
  185.6620  179.0130  145.6320 C   0  0  0  0  0  2  0  0  0  0  0  0
  187.2880  177.4940  145.8280 C   0  0  1  0  0  3  0  0  0  0  0  0
  186.8310  178.5370  145.0110 O   0  0  0  0  0  0  0  0  0  0  0  0
  185.6490  178.5920  147.0910 C   0  0  0  0  0  2  0  0  0  0  0  0
  187.8550  178.5750  147.9060 O   0  0  0  0  0  1  0  0  0  0  0  0
  189.1810  178.7120  138.1630 C   0  0  0  0  0  2  0  0  0  0  0  0
  187.9970  178.5750  137.2190 C   0  0  0  0  0  2  0  0  0  0  0  0
  186.9920  177.5740  137.7600 C   0  0  0  0  0  2  0  0  0  0  0  0
  185.4360  178.9980  138.8700 O   0  0  0  0  0  1  0  0  0  0  0  0
  184.6150  177.1090  137.7990 N   0  0  0  0  0  1  0  0  0  0  0  0
  185.5990  178.1750  137.7560 C   0  0  2  0  0  3  0  0  0  0  0  0
  1  3  1  0  0  0  0
  3  2  2  0  0  0  0
  3 20  1  0  0  0  0
  4  6  1  0  0  0  0
  5 28  1  6  0  0  0
  5  8  1  0  0  0  0
  5  4  1  0  0  0  0
  6  1  1  0  0  0  0
  7  1  1  0  0  0  0
  8 12  1  6  0  0  0
  8  7  1  0  0  0  0
  9 11  2  0  0  0  0
 10  9  1  0  0  0  0
 11 12  1  0  0  0  0
 11 18  1  0  0  0  0
 13 10  2  0  0  0  0
 14 16  1  0  0  0  0
 15 13  1  0  0  0  0
 15 17  2  0  0  0  0
 16 12  2  0  0  0  0
 17 14  1  0  0  0  0
 17  9  1  0  0  0  0
 18 19  2  0  0  0  0
 20 21  1  0  0  0  0
 22 27  1  6  0  0  0
 23 26  1  0  0  0  0
 24 21  1  1  0  0  0
 24 22  1  0  0  0  0
 25 23  1  0  0  0  0
 25 24  1  0  0  0  0
 26 22  1  0  0  0  0
 29 30  1  0  0  0  0
 29 28  1  0  0  0  0
 33 30  1  0  0  0  0
 33 32  1  1  0  0  0
 33 31  1  0  0  0  0
M  END
>  <MODEL>
6

>  <REMARK>
 VINA RESULT:      -8.1      3.683      6.984
  Name = 
  9 active torsions:
  status: ('A' for Active; 'I' for Inactive)
    1  A    between atoms: C_7  and  C_8
    2  A    between atoms: C_7  and  C_24
    3  A    between atoms: C_9  and  C_24
    4  A    between atoms: C_10  and  C_11
    5  A    between atoms: C_14  and  C_33
    6  A    between atoms: C_17  and  C_27
    7  A    between atoms: C_20  and  C_32
    8  A    between atoms: C_31  and  C_32
    9  A    between atoms: C_31  and  C_33
                            x       y       z     vdW  Elec       q    Type
                         _______ _______ _______ _____ _____    ______ ____

>  <TORSDO>
F 9

$$$$
=
 OpenBabel11032420303D

 33 36  0  0  1  0  0  0  0  0999 V2000
  187.1670  178.3800  141.6920 N   0  0  0  0  0  0  0  0  0  0  0  0
  185.7240  179.0030  139.9620 O   0  0  0  0  0  0  0  0  0  0  0  0
  185.8810  178.7730  141.1910 C   0  0  0  0  0  0  0  0  0  0  0  0
  188.1510  176.9710  143.4170 C   0  0  0  0  0  2  0  0  0  0  0  0
  189.4300  176.8810  142.5820 C   0  0  2  0  0  3  0  0  0  0  0  0
  187.4150  178.2730  143.1260 C   0  0  0  0  0  2  0  0  0  0  0  0
  188.3080  178.2710  140.7870 C   0  0  0  0  0  2  0  0  0  0  0  0
  189.0950  176.9930  141.0840 C   0  0  1  0  0  3  0  0  0  0  0  0
  191.4490  176.3990  138.1530 C   0  0  1  0  0  3  0  0  0  0  0  0
  191.7180  175.9710  136.8690 C   0  0  0  0  0  3  0  0  0  0  0  0
  190.2530  176.4230  138.8960 C   0  0  0  0  0  0  0  0  0  0  0  0
  190.3250  176.9350  140.2180 C   0  0  0  0  0  0  0  0  0  0  0  0
  193.0350  176.1560  136.6150 N   0  0  0  0  0  0  0  0  0  0  0  0
  192.7310  177.3540  139.9620 C   0  0  0  0  0  3  0  0  0  0  0  0
  193.6070  176.6950  137.7180 C   0  0  0  0  0  3  0  0  0  0  0  0
  191.5610  177.3950  140.7350 C   0  0  0  0  0  3  0  0  0  0  0  0
  192.6320  176.8480  138.6730 C   0  0  0  0  0  0  0  0  0  0  0  0
  188.9550  175.9440  138.3640 C   0  0  0  0  0  3  0  0  0  0  0  0
  188.2140  176.6120  137.4880 C   0  0  0  0  0  2  0  0  0  0  0  0
  184.7020  178.9030  142.1030 C   0  0  0  0  0  2  0  0  0  0  0  0
  183.4040  178.5400  141.3860 C   0  0  0  0  0  2  0  0  0  0  0  0
  180.8250  178.6560  141.4410 C   0  0  2  0  0  3  0  0  0  0  0  0
  180.7420  178.6630  143.8290 C   0  0  0  0  0  2  0  0  0  0  0  0
  182.1370  179.0010  142.1190 C   0  0  1  0  0  3  0  0  0  0  0  0
  182.0930  178.5680  143.4510 O   0  0  0  0  0  0  0  0  0  0  0  0
  179.8640  178.6950  142.5900 C   0  0  0  0  0  2  0  0  0  0  0  0
  180.8430  177.3600  140.9200 O   0  0  0  0  0  1  0  0  0  0  0  0
  190.1280  175.5570  142.8780 C   0  0  0  0  0  2  0  0  0  0  0  0
  191.3700  175.7710  143.7280 C   0  0  0  0  0  2  0  0  0  0  0  0
  191.3260  177.1260  144.4120 C   0  0  0  0  0  2  0  0  0  0  0  0
  192.0960  175.7270  146.1830 O   0  0  0  0  0  1  0  0  0  0  0  0
  190.2180  177.0400  146.5640 N   0  0  0  0  0  1  0  0  0  0  0  0
  191.5110  176.9640  145.9090 C   0  0  2  0  0  3  0  0  0  0  0  0
  1  6  1  0  0  0  0
  2  3  2  0  0  0  0
  3  1  1  0  0  0  0
  3 20  1  0  0  0  0
  5 28  1  6  0  0  0
  5  4  1  0  0  0  0
  6  4  1  0  0  0  0
  7  8  1  0  0  0  0
  7  1  1  0  0  0  0
  8 12  1  6  0  0  0
  8  5  1  0  0  0  0
  9 10  1  1  0  0  0
  9 17  1  0  0  0  0
  9 11  1  0  0  0  0
 11 12  2  0  0  0  0
 12 16  1  0  0  0  0
 13 10  2  0  0  0  0
 13 15  1  0  0  0  0
 14 16  2  0  0  0  0
 15 17  2  0  0  0  0
 17 14  1  0  0  0  0
 18 11  1  0  0  0  0
 19 18  2  0  0  0  0
 21 20  1  0  0  0  0
 22 27  1  1  0  0  0
 22 24  1  0  0  0  0
 22 26  1  0  0  0  0
 24 21  1  6  0  0  0
 24 25  1  0  0  0  0
 25 23  1  0  0  0  0
 26 23  1  0  0  0  0
 28 29  1  0  0  0  0
 29 30  1  0  0  0  0
 30 33  1  0  0  0  0
 33 31  1  6  0  0  0
 33 32  1  0  0  0  0
M  END
>  <MODEL>
7

>  <REMARK>
 VINA RESULT:      -8.1      2.939      6.044
  Name = 
  9 active torsions:
  status: ('A' for Active; 'I' for Inactive)
    1  A    between atoms: C_7  and  C_8
    2  A    between atoms: C_7  and  C_24
    3  A    between atoms: C_9  and  C_24
    4  A    between atoms: C_10  and  C_11
    5  A    between atoms: C_14  and  C_33
    6  A    between atoms: C_17  and  C_27
    7  A    between atoms: C_20  and  C_32
    8  A    between atoms: C_31  and  C_32
    9  A    between atoms: C_31  and  C_33
                            x       y       z     vdW  Elec       q    Type
                         _______ _______ _______ _____ _____    ______ ____

>  <TORSDO>
F 9

$$$$
=
 OpenBabel11032420303D

 33 36  0  0  1  0  0  0  0  0999 V2000
  185.9380  178.8200  141.0210 N   0  0  0  0  0  0  0  0  0  0  0  0
  185.2430  178.8690  138.7890 O   0  0  0  0  0  0  0  0  0  0  0  0
  184.9270  178.9250  140.0080 C   0  0  0  0  0  0  0  0  0  0  0  0
  186.2470  177.9460  143.2730 C   0  0  0  0  0  2  0  0  0  0  0  0
  187.7500  177.8540  143.0070 C   0  0  2  0  0  3  0  0  0  0  0  0
  185.6220  179.0490  142.4270 C   0  0  0  0  0  2  0  0  0  0  0  0
  187.3420  178.6770  140.6470 C   0  0  0  0  0  2  0  0  0  0  0  0
  188.0110  177.6050  141.5110 C   0  0  1  0  0  3  0  0  0  0  0  0
  191.3110  177.0690  139.6910 C   0  0  1  0  0  3  0  0  0  0  0  0
  192.0510  176.7130  138.5820 C   0  0  0  0  0  3  0  0  0  0  0  0
  189.9200  177.1150  139.9080 C   0  0  0  0  0  0  0  0  0  0  0  0
  189.4810  177.5310  141.1920 C   0  0  0  0  0  0  0  0  0  0  0  0
  193.3670  176.8350  138.8790 N   0  0  0  0  0  0  0  0  0  0  0  0
  191.8030  177.8210  141.9320 C   0  0  0  0  0  3  0  0  0  0  0  0
  193.4740  177.2630  140.1590 C   0  0  0  0  0  3  0  0  0  0  0  0
  190.4260  177.8800  142.1880 C   0  0  0  0  0  3  0  0  0  0  0  0
  192.2050  177.4100  140.6680 C   0  0  0  0  0  0  0  0  0  0  0  0
  188.9230  176.7520  138.8730 C   0  0  0  0  0  3  0  0  0  0  0  0
  188.7630  177.4040  137.7270 C   0  0  0  0  0  2  0  0  0  0  0  0
  183.4830  179.0840  140.3700 C   0  0  0  0  0  2  0  0  0  0  0  0
  182.8170  177.7300  140.5990 C   0  0  0  0  0  2  0  0  0  0  0  0
  182.3270  176.7680  138.2540 C   0  0  2  0  0  3  0  0  0  0  0  0
  180.1860  175.9280  138.8970 C   0  0  0  0  0  2  0  0  0  0  0  0
  181.7750  177.3610  139.5360 C   0  0  1  0  0  3  0  0  0  0  0  0
  180.7680  176.5220  140.0320 O   0  0  0  0  0  0  0  0  0  0  0  0
  181.1420  176.0210  137.7220 C   0  0  0  0  0  2  0  0  0  0  0  0
  183.3510  175.8520  138.5120 O   0  0  0  0  0  1  0  0  0  0  0  0
  188.3390  176.7260  143.8500 C   0  0  0  0  0  2  0  0  0  0  0  0
  188.4340  177.1270  145.3130 C   0  0  0  0  0  2  0  0  0  0  0  0
  189.8720  177.4300  145.6940 C   0  0  0  0  0  2  0  0  0  0  0  0
  189.6720  177.7200  148.0520 O   0  0  0  0  0  1  0  0  0  0  0  0
  191.6170  176.7520  147.2320 N   0  0  0  0  0  1  0  0  0  0  0  0
  190.1790  176.8690  147.0700 C   0  0  2  0  0  3  0  0  0  0  0  0
  1  6  1  0  0  0  0
  2  3  2  0  0  0  0
  3 20  1  0  0  0  0
  3  1  1  0  0  0  0
  5  4  1  0  0  0  0
  5 28  1  1  0  0  0
  6  4  1  0  0  0  0
  7  1  1  0  0  0  0
  7  8  1  0  0  0  0
  8 12  1  1  0  0  0
  8  5  1  0  0  0  0
  9 10  1  1  0  0  0
  9 11  1  0  0  0  0
  9 17  1  0  0  0  0
 10 13  2  0  0  0  0
 11 12  2  0  0  0  0
 12 16  1  0  0  0  0
 13 15  1  0  0  0  0
 14 16  2  0  0  0  0
 15 17  2  0  0  0  0
 17 14  1  0  0  0  0
 18 11  1  0  0  0  0
 19 18  2  0  0  0  0
 20 21  1  0  0  0  0
 22 27  1  1  0  0  0
 22 24  1  0  0  0  0
 23 25  1  0  0  0  0
 24 25  1  0  0  0  0
 24 21  1  1  0  0  0
 26 22  1  0  0  0  0
 26 23  1  0  0  0  0
 28 29  1  0  0  0  0
 29 30  1  0  0  0  0
 30 33  1  0  0  0  0
 33 32  1  1  0  0  0
 33 31  1  0  0  0  0
M  END
>  <MODEL>
8

>  <REMARK>
 VINA RESULT:      -8.0      3.300      6.100
  Name = 
  9 active torsions:
  status: ('A' for Active; 'I' for Inactive)
    1  A    between atoms: C_7  and  C_8
    2  A    between atoms: C_7  and  C_24
    3  A    between atoms: C_9  and  C_24
    4  A    between atoms: C_10  and  C_11
    5  A    between atoms: C_14  and  C_33
    6  A    between atoms: C_17  and  C_27
    7  A    between atoms: C_20  and  C_32
    8  A    between atoms: C_31  and  C_32
    9  A    between atoms: C_31  and  C_33
                            x       y       z     vdW  Elec       q    Type
                         _______ _______ _______ _____ _____    ______ ____

>  <TORSDO>
F 9

$$$$
=
 OpenBabel11032420303D

 33 36  0  0  1  0  0  0  0  0999 V2000
  185.8070  178.6490  142.1690 N   0  0  0  0  0  0  0  0  0  0  0  0
  184.7260  178.1500  144.1810 O   0  0  0  0  0  0  0  0  0  0  0  0
  185.8110  178.2490  143.5480 C   0  0  0  0  0  0  0  0  0  0  0  0
  187.0320  178.2510  140.1030 C   0  0  0  0  0  2  0  0  0  0  0  0
  185.7910  178.6700  139.3130 C   0  0  2  0  0  3  0  0  0  0  0  0
  187.0520  178.9340  141.4650 C   0  0  0  0  0  2  0  0  0  0  0  0
  184.5500  178.9710  141.5000 C   0  0  0  0  0  2  0  0  0  0  0  0
  184.5160  178.3350  140.1090 C   0  0  1  0  0  3  0  0  0  0  0  0
  181.1550  178.2550  138.3230 C   0  0  1  0  0  3  0  0  0  0  0  0
  180.0540  177.5920  137.8220 C   0  0  0  0  0  3  0  0  0  0  0  0
  182.2970  177.7850  139.0010 C   0  0  0  0  0  0  0  0  0  0  0  0
  183.2640  178.7510  139.3830 C   0  0  0  0  0  0  0  0  0  0  0  0
  179.2240  178.4970  137.2500 N   0  0  0  0  0  0  0  0  0  0  0  0
  181.9070  180.5480  138.4050 C   0  0  0  0  0  3  0  0  0  0  0  0
  179.7830  179.7240  137.3790 C   0  0  0  0  0  3  0  0  0  0  0  0
  183.0580  180.1200  139.0830 C   0  0  0  0  0  3  0  0  0  0  0  0
  180.9780  179.5810  138.0430 C   0  0  0  0  0  0  0  0  0  0  0  0
  182.5220  176.3550  139.3210 C   0  0  0  0  0  3  0  0  0  0  0  0
  183.0560  175.4760  138.4810 C   0  0  0  0  0  2  0  0  0  0  0  0
  187.0900  177.9280  144.2560 C   0  0  0  0  0  2  0  0  0  0  0  0
  187.7780  176.7160  143.6320 C   0  0  0  0  0  2  0  0  0  0  0  0
  190.1540  176.0810  142.8460 C   0  0  2  0  0  3  0  0  0  0  0  0
  191.2000  177.6990  144.2580 C   0  0  0  0  0  2  0  0  0  0  0  0
  189.2730  176.6110  143.9610 C   0  0  1  0  0  3  0  0  0  0  0  0
  189.8100  177.8150  144.4360 O   0  0  0  0  0  0  0  0  0  0  0  0
  191.4970  176.6240  143.2280 C   0  0  0  0  0  2  0  0  0  0  0  0
  189.7930  176.6190  141.6080 O   0  0  0  0  0  1  0  0  0  0  0  0
  185.7870  177.9500  137.9670 C   0  0  0  0  0  2  0  0  0  0  0  0
  187.1320  177.2970  137.6920 C   0  0  0  0  0  2  0  0  0  0  0  0
  187.8220  177.9630  136.5150 C   0  0  0  0  0  2  0  0  0  0  0  0
  189.7870  177.5570  137.8010 O   0  0  0  0  0  1  0  0  0  0  0  0
  189.0580  179.7510  137.5840 N   0  0  0  0  0  1  0  0  0  0  0  0
  189.1930  178.4650  136.9240 C   0  0  2  0  0  3  0  0  0  0  0  0
  1  3  1  0  0  0  0
  3  2  2  0  0  0  0
  3 20  1  0  0  0  0
  4  6  1  0  0  0  0
  5 28  1  6  0  0  0
  5  4  1  0  0  0  0
  5  8  1  0  0  0  0
  6  1  1  0  0  0  0
  7  1  1  0  0  0  0
  8 12  1  6  0  0  0
  8  7  1  0  0  0  0
  9 10  1  6  0  0  0
  9 11  1  0  0  0  0
 11 18  1  0  0  0  0
 11 12  2  0  0  0  0
 13 15  1  0  0  0  0
 13 10  2  0  0  0  0
 14 16  2  0  0  0  0
 15 17  2  0  0  0  0
 16 12  1  0  0  0  0
 17  9  1  0  0  0  0
 17 14  1  0  0  0  0
 19 18  2  0  0  0  0
 21 20  1  0  0  0  0
 22 27  1  6  0  0  0
 22 26  1  0  0  0  0
 22 24  1  0  0  0  0
 23 25  1  0  0  0  0
 24 21  1  6  0  0  0
 24 25  1  0  0  0  0
 26 23  1  0  0  0  0
 29 28  1  0  0  0  0
 30 33  1  0  0  0  0
 30 29  1  0  0  0  0
 33 32  1  1  0  0  0
 33 31  1  0  0  0  0
M  END
>  <MODEL>
9

>  <REMARK>
 VINA RESULT:      -7.9      3.505      8.845
  Name = 
  9 active torsions:
  status: ('A' for Active; 'I' for Inactive)
    1  A    between atoms: C_7  and  C_8
    2  A    between atoms: C_7  and  C_24
    3  A    between atoms: C_9  and  C_24
    4  A    between atoms: C_10  and  C_11
    5  A    between atoms: C_14  and  C_33
    6  A    between atoms: C_17  and  C_27
    7  A    between atoms: C_20  and  C_32
    8  A    between atoms: C_31  and  C_32
    9  A    between atoms: C_31  and  C_33
                            x       y       z     vdW  Elec       q    Type
                         _______ _______ _______ _____ _____    ______ ____

>  <TORSDO>
F 9

$$$$
