=
 OpenBabel11032420283D

 39 44  0  0  1  0  0  0  0  0999 V2000
  181.6530  176.4650  140.2890 O   0  0  0  0  0  1  0  0  0  0  0  0
  185.5060  178.5870  138.4710 N   0  0  0  0  0  0  0  0  0  0  0  0
  188.1220  178.2900  136.1080 C   0  0  0  0  0  3  0  0  0  0  0  0
  182.4380  179.3390  142.4610 C   0  0  0  0  0  2  0  0  0  0  0  0
  184.4440  178.5660  140.7130 C   0  0  2  0  0  3  0  0  0  0  0  0
  186.6020  178.4510  137.6890 C   0  0  0  0  0  0  0  0  0  0  0  0
  187.1080  178.1690  141.6650 N   0  0  0  0  0  0  0  0  0  0  0  0
  184.7860  178.6100  142.1790 C   0  0  0  0  0  0  0  0  0  0  0  0
  186.9470  178.2570  140.3820 C   0  0  0  0  0  0  0  0  0  0  0  0
  188.0250  178.1230  139.5540 N   0  0  0  0  0  0  0  0  0  0  0  0
  182.2400  177.7210  140.4340 C   0  0  2  0  0  0  0  0  0  0  0  0
  183.6390  177.4390  140.4840 O   0  0  0  0  0  0  0  0  0  0  0  0
  180.3190  178.2010  142.0480 C   0  0  0  0  0  0  0  0  0  0  0  0
  187.8280  178.2240  138.2160 C   0  0  0  0  0  0  0  0  0  0  0  0
  181.7160  178.3200  141.6980 N   0  0  0  0  0  0  0  0  0  0  0  0
  179.8230  178.8700  143.1180 F   0  0  0  0  0  0  0  0  0  0  0  0
  186.0320  178.3490  142.5960 C   0  0  0  0  0  3  0  0  0  0  0  0
  188.8050  178.1190  137.2020 N   0  0  0  0  0  0  0  0  0  0  0  0
  185.6560  178.5000  139.8280 C   0  0  0  0  0  0  0  0  0  0  0  0
  179.5320  177.5020  141.3620 O   0  0  0  0  0  0  0  0  0  0  0  0
  183.6610  178.7620  143.1630 C   0  0  1  0  0  3  0  0  0  0  0  0
  186.6790  178.5110  136.3760 C   0  0  0  0  0  3  0  0  0  0  0  0
  181.5200  179.1650  136.8520 C   0  0  0  0  0  0  0  0  0  0  0  0
  181.4140  179.9270  139.5250 C   0  0  0  0  0  3  0  0  0  0  0  0
  181.1090  180.4500  137.1960 C   0  0  0  0  0  3  0  0  0  0  0  0
  181.9080  177.5150  135.1240 C   0  0  0  0  0  3  0  0  0  0  0  0
  182.2540  176.9400  137.4490 C   0  0  0  0  0  3  0  0  0  0  0  0
  181.8920  178.2320  137.8600 C   0  0  0  0  0  0  0  0  0  0  0  0
  182.2620  176.5820  136.0980 C   0  0  0  0  0  3  0  0  0  0  0  0
  181.0460  180.8270  138.5300 C   0  0  0  0  0  3  0  0  0  0  0  0
  181.5400  178.8040  135.5010 C   0  0  0  0  0  3  0  0  0  0  0  0
  181.8680  178.6300  139.2330 C   0  0  0  0  0  0  0  0  0  0  0  0
  184.0450  179.6820  144.3210 C   0  0  0  0  0  2  0  0  0  0  0  0
  184.2340  178.8810  145.5990 C   0  0  0  0  0  2  0  0  0  0  0  0
  185.4440  179.3110  146.2860 N   0  0  0  0  0  2  0  0  0  0  0  0
  186.3940  178.2010  146.3330 C   0  0  0  0  0  0  0  0  0  0  0  0
  185.7800  177.0630  145.8480 F   0  0  0  0  0  0  0  0  0  0  0  0
  187.4970  178.4830  145.5440 F   0  0  0  0  0  0  0  0  0  0  0  0
  186.7990  177.9680  147.6370 F   0  0  0  0  0  0  0  0  0  0  0  0
  2 19  2  0  0  0  0
  3 22  1  0  0  0  0
  3 18  2  0  0  0  0
  4 21  1  0  0  0  0
  5 19  1  6  0  0  0
  5  8  1  0  0  0  0
  6 14  1  0  0  0  0
  6  2  1  0  0  0  0
  7 17  1  0  0  0  0
  8 17  2  0  0  0  0
  8 21  1  0  0  0  0
  9  7  2  0  0  0  0
 10  9  1  0  0  0  0
 11  1  1  6  0  0  0
 11 12  1  0  0  0  0
 11 15  1  0  0  0  0
 12  5  1  0  0  0  0
 13 16  1  0  0  0  0
 14 10  2  0  0  0  0
 15 13  1  0  0  0  0
 15  4  1  0  0  0  0
 18 14  1  0  0  0  0
 19  9  1  0  0  0  0
 20 13  2  0  0  0  0
 21 33  1  1  0  0  0
 22  6  2  0  0  0  0
 23 25  2  0  0  0  0
 23 28  1  0  0  0  0
 25 30  1  0  0  0  0
 26 31  2  0  0  0  0
 26 29  1  0  0  0  0
 27 28  1  0  0  0  0
 28 32  2  0  0  0  0
 29 27  2  0  0  0  0
 30 24  2  0  0  0  0
 31 23  1  0  0  0  0
 32 24  1  0  0  0  0
 32 11  1  0  0  0  0
 33 34  1  0  0  0  0
 34 35  1  0  0  0  0
 35 36  1  0  0  0  0
 36 39  1  0  0  0  0
 37 36  1  0  0  0  0
 38 36  1  0  0  0  0
M  END
>  <MODEL>
1

>  <REMARK>
 VINA RESULT:      -8.1      0.000      0.000
  Name = 
  5 active torsions:
  status: ('A' for Active; 'I' for Inactive)
    1  A    between atoms: C_1  and  C_12
    2  A    between atoms: C_1  and  N_34
    3  A    between atoms: C_5  and  N_34
    4  A    between atoms: C_12  and  C_38
    5  A    between atoms: C_20  and  C_37
                            x       y       z     vdW  Elec       q    Type
                         _______ _______ _______ _____ _____    ______ ____

>  <TORSDO>
F 5

$$$$
=
 OpenBabel11032420283D

 39 44  0  0  1  0  0  0  0  0999 V2000
  186.8560  179.1360  136.8140 O   0  0  0  0  0  1  0  0  0  0  0  0
  183.3990  177.3850  139.5790 N   0  0  0  0  0  0  0  0  0  0  0  0
  179.9110  177.3480  140.1660 C   0  0  0  0  0  3  0  0  0  0  0  0
  188.4850  177.5150  139.6960 C   0  0  0  0  0  2  0  0  0  0  0  0
  185.7710  178.0020  139.9640 C   0  0  2  0  0  3  0  0  0  0  0  0
  182.0950  177.4570  139.9300 C   0  0  0  0  0  0  0  0  0  0  0  0
  184.7650  179.2940  142.3060 N   0  0  0  0  0  0  0  0  0  0  0  0
  186.6820  178.5800  141.0150 C   0  0  0  0  0  0  0  0  0  0  0  0
  183.9010  178.7040  141.5390 C   0  0  0  0  0  0  0  0  0  0  0  0
  182.5730  178.7530  141.8540 N   0  0  0  0  0  0  0  0  0  0  0  0
  186.8010  178.1830  137.8300 C   0  0  2  0  0  0  0  0  0  0  0  0
  185.9180  178.7600  138.7920 O   0  0  0  0  0  0  0  0  0  0  0  0
  189.3130  177.9290  137.4380 C   0  0  0  0  0  0  0  0  0  0  0  0
  181.6930  178.1240  141.0380 C   0  0  0  0  0  0  0  0  0  0  0  0
  188.1900  177.9960  138.3460 N   0  0  0  0  0  0  0  0  0  0  0  0
  190.5480  177.6130  137.9010 F   0  0  0  0  0  0  0  0  0  0  0  0
  186.1780  179.2410  142.0650 C   0  0  0  0  0  3  0  0  0  0  0  0
  180.2900  178.0560  141.1900 N   0  0  0  0  0  0  0  0  0  0  0  0
  184.3260  177.9990  140.3760 C   0  0  0  0  0  0  0  0  0  0  0  0
  189.1690  178.1350  136.2070 O   0  0  0  0  0  0  0  0  0  0  0  0
  188.1620  178.5620  140.7550 C   0  0  1  0  0  3  0  0  0  0  0  0
  181.0540  176.9340  139.3150 C   0  0  0  0  0  3  0  0  0  0  0  0
  184.6220  175.3600  136.1840 C   0  0  0  0  0  0  0  0  0  0  0  0
  187.1270  175.7290  137.3330 C   0  0  0  0  0  3  0  0  0  0  0  0
  185.5030  174.2870  136.2970 C   0  0  0  0  0  3  0  0  0  0  0  0
  182.4880  176.2060  135.4150 C   0  0  0  0  0  3  0  0  0  0  0  0
  184.0730  177.6970  136.4730 C   0  0  0  0  0  3  0  0  0  0  0  0
  184.9900  176.6500  136.6560 C   0  0  0  0  0  0  0  0  0  0  0  0
  182.8370  177.4810  135.8590 C   0  0  0  0  0  3  0  0  0  0  0  0
  186.7580  174.4740  136.8610 C   0  0  0  0  0  3  0  0  0  0  0  0
  183.3780  175.1470  135.5790 C   0  0  0  0  0  3  0  0  0  0  0  0
  186.2650  176.8370  137.2760 C   0  0  0  0  0  0  0  0  0  0  0  0
  188.9530  178.2430  142.0220 C   0  0  0  0  0  2  0  0  0  0  0  0
  190.1680  177.3900  141.6930 C   0  0  0  0  0  2  0  0  0  0  0  0
  191.0850  177.3640  142.8230 N   0  0  0  0  0  2  0  0  0  0  0  0
  190.8100  176.1870  143.6430 C   0  0  0  0  0  0  0  0  0  0  0  0
  190.1030  175.2690  142.8900 F   0  0  0  0  0  0  0  0  0  0  0  0
  191.9970  175.6040  144.0560 F   0  0  0  0  0  0  0  0  0  0  0  0
  190.0510  176.5340  144.7490 F   0  0  0  0  0  0  0  0  0  0  0  0
  2  6  1  0  0  0  0
  2 19  2  0  0  0  0
  3 18  2  0  0  0  0
  4 21  1  0  0  0  0
  5 12  1  6  0  0  0
  5 19  1  0  0  0  0
  5  8  1  0  0  0  0
  6 14  1  0  0  0  0
  8 17  2  0  0  0  0
  9 10  1  0  0  0  0
  9  7  2  0  0  0  0
 11  1  1  6  0  0  0
 11 15  1  0  0  0  0
 11 12  1  0  0  0  0
 13 16  1  0  0  0  0
 13 15  1  0  0  0  0
 14 18  1  0  0  0  0
 14 10  2  0  0  0  0
 15  4  1  0  0  0  0
 17  7  1  0  0  0  0
 19  9  1  0  0  0  0
 20 13  2  0  0  0  0
 21  8  1  0  0  0  0
 21 33  1  1  0  0  0
 22  6  2  0  0  0  0
 22  3  1  0  0  0  0
 23 25  2  0  0  0  0
 23 28  1  0  0  0  0
 25 30  1  0  0  0  0
 26 31  2  0  0  0  0
 26 29  1  0  0  0  0
 27 28  1  0  0  0  0
 28 32  2  0  0  0  0
 29 27  2  0  0  0  0
 30 24  2  0  0  0  0
 31 23  1  0  0  0  0
 32 24  1  0  0  0  0
 32 11  1  0  0  0  0
 34 33  1  0  0  0  0
 34 35  1  0  0  0  0
 35 36  1  0  0  0  0
 36 38  1  0  0  0  0
 36 39  1  0  0  0  0
 37 36  1  0  0  0  0
M  END
>  <MODEL>
2

>  <REMARK>
 VINA RESULT:      -7.4      3.210      6.117
  Name = 
  5 active torsions:
  status: ('A' for Active; 'I' for Inactive)
    1  A    between atoms: C_1  and  C_12
    2  A    between atoms: C_1  and  N_34
    3  A    between atoms: C_5  and  N_34
    4  A    between atoms: C_12  and  C_38
    5  A    between atoms: C_20  and  C_37
                            x       y       z     vdW  Elec       q    Type
                         _______ _______ _______ _____ _____    ______ ____

>  <TORSDO>
F 5

$$$$
=
 OpenBabel11032420283D

 39 44  0  0  1  0  0  0  0  0999 V2000
  187.6610  179.5060  137.0420 O   0  0  0  0  0  1  0  0  0  0  0  0
  186.8430  177.6790  141.3610 N   0  0  0  0  0  0  0  0  0  0  0  0
  185.4030  178.2960  144.5330 C   0  0  0  0  0  3  0  0  0  0  0  0
  189.6460  176.4100  137.3080 C   0  0  0  0  0  2  0  0  0  0  0  0
  188.6610  177.4170  139.6930 C   0  0  2  0  0  3  0  0  0  0  0  0
  186.4380  177.9240  142.6280 C   0  0  0  0  0  0  0  0  0  0  0  0
  190.3940  177.7460  141.9410 N   0  0  0  0  0  0  0  0  0  0  0  0
  190.1500  177.2080  139.5960 C   0  0  0  0  0  0  0  0  0  0  0  0
  189.1180  177.8070  142.1650 C   0  0  0  0  0  0  0  0  0  0  0  0
  188.6640  178.0560  143.4290 N   0  0  0  0  0  0  0  0  0  0  0  0
  187.8370  178.2510  137.6260 C   0  0  2  0  0  0  0  0  0  0  0  0
  188.3270  178.5490  138.9340 O   0  0  0  0  0  0  0  0  0  0  0  0
  188.7520  177.5520  135.3450 C   0  0  0  0  0  0  0  0  0  0  0  0
  187.3250  178.1090  143.6350 C   0  0  0  0  0  0  0  0  0  0  0  0
  188.8180  177.5000  136.7880 N   0  0  0  0  0  0  0  0  0  0  0  0
  189.5500  176.7530  134.5940 F   0  0  0  0  0  0  0  0  0  0  0  0
  190.9410  177.4390  140.6510 C   0  0  0  0  0  3  0  0  0  0  0  0
  186.6620  178.3500  144.8580 N   0  0  0  0  0  0  0  0  0  0  0  0
  188.1850  177.6090  141.1050 C   0  0  0  0  0  0  0  0  0  0  0  0
  187.9430  178.3130  134.7570 O   0  0  0  0  0  0  0  0  0  0  0  0
  190.7360  176.9220  138.2420 C   0  0  1  0  0  3  0  0  0  0  0  0
  185.2070  178.0210  143.0870 C   0  0  0  0  0  3  0  0  0  0  0  0
  184.0980  177.1810  138.1820 C   0  0  0  0  0  0  0  0  0  0  0  0
  186.4530  176.2160  137.0610 C   0  0  0  0  0  3  0  0  0  0  0  0
  184.1270  175.9170  137.5980 C   0  0  0  0  0  3  0  0  0  0  0  0
  182.8190  178.9230  139.2710 C   0  0  0  0  0  3  0  0  0  0  0  0
  185.1620  179.2700  138.7770 C   0  0  0  0  0  3  0  0  0  0  0  0
  185.2690  177.9890  138.2130 C   0  0  0  0  0  0  0  0  0  0  0  0
  183.9520  179.7350  139.2990 C   0  0  0  0  0  3  0  0  0  0  0  0
  185.3000  175.4400  137.0300 C   0  0  0  0  0  3  0  0  0  0  0  0
  182.8930  177.6480  138.7160 C   0  0  0  0  0  3  0  0  0  0  0  0
  186.4900  177.4840  137.6660 C   0  0  0  0  0  0  0  0  0  0  0  0
  191.8490  175.8790  138.3190 C   0  0  0  0  0  2  0  0  0  0  0  0
  193.2030  176.5240  138.0730 C   0  0  0  0  0  2  0  0  0  0  0  0
  194.2130  175.5010  137.8440 N   0  0  0  0  0  2  0  0  0  0  0  0
  194.5060  175.4220  136.4150 C   0  0  0  0  0  0  0  0  0  0  0  0
  193.8470  174.3320  135.8810 F   0  0  0  0  0  0  0  0  0  0  0  0
  194.0660  176.5680  135.7720 F   0  0  0  0  0  0  0  0  0  0  0  0
  195.8670  175.2640  136.2080 F   0  0  0  0  0  0  0  0  0  0  0  0
  2  6  1  0  0  0  0
  3 18  2  0  0  0  0
  4 21  1  0  0  0  0
  5 12  1  6  0  0  0
  5 19  1  0  0  0  0
  6 22  2  0  0  0  0
  6 14  1  0  0  0  0
  7  9  2  0  0  0  0
  8  5  1  0  0  0  0
  8 17  2  0  0  0  0
  9 10  1  0  0  0  0
 10 14  2  0  0  0  0
 11  1  1  6  0  0  0
 11 32  1  0  0  0  0
 11 12  1  0  0  0  0
 13 15  1  0  0  0  0
 14 18  1  0  0  0  0
 15  4  1  0  0  0  0
 15 11  1  0  0  0  0
 16 13  1  0  0  0  0
 17  7  1  0  0  0  0
 19  2  2  0  0  0  0
 19  9  1  0  0  0  0
 20 13  2  0  0  0  0
 21 33  1  1  0  0  0
 21  8  1  0  0  0  0
 22  3  1  0  0  0  0
 23 28  1  0  0  0  0
 23 31  1  0  0  0  0
 24 32  1  0  0  0  0
 25 23  2  0  0  0  0
 26 29  1  0  0  0  0
 27 29  2  0  0  0  0
 28 27  1  0  0  0  0
 30 24  2  0  0  0  0
 30 25  1  0  0  0  0
 31 26  2  0  0  0  0
 32 28  2  0  0  0  0
 34 33  1  0  0  0  0
 35 34  1  0  0  0  0
 36 35  1  0  0  0  0
 37 36  1  0  0  0  0
 38 36  1  0  0  0  0
 39 36  1  0  0  0  0
M  END
>  <MODEL>
3

>  <REMARK>
 VINA RESULT:      -7.2      4.964      8.033
  Name = 
  5 active torsions:
  status: ('A' for Active; 'I' for Inactive)
    1  A    between atoms: C_1  and  C_12
    2  A    between atoms: C_1  and  N_34
    3  A    between atoms: C_5  and  N_34
    4  A    between atoms: C_12  and  C_38
    5  A    between atoms: C_20  and  C_37
                            x       y       z     vdW  Elec       q    Type
                         _______ _______ _______ _____ _____    ______ ____

>  <TORSDO>
F 5

$$$$
=
 OpenBabel11032420283D

 39 44  0  0  1  0  0  0  0  0999 V2000
  181.7460  175.8790  139.7780 O   0  0  0  0  0  1  0  0  0  0  0  0
  185.5070  178.3340  138.2000 N   0  0  0  0  0  0  0  0  0  0  0  0
  188.3980  178.1970  136.1660 C   0  0  0  0  0  3  0  0  0  0  0  0
  181.9260  178.9860  141.7560 C   0  0  0  0  0  2  0  0  0  0  0  0
  184.2000  178.3470  140.3090 C   0  0  2  0  0  3  0  0  0  0  0  0
  186.6950  178.2810  137.5550 C   0  0  0  0  0  0  0  0  0  0  0  0
  186.7620  178.3660  141.5720 N   0  0  0  0  0  0  0  0  0  0  0  0
  184.3610  178.5430  141.7930 C   0  0  0  0  0  0  0  0  0  0  0  0
  186.7430  178.3350  140.2750 C   0  0  0  0  0  0  0  0  0  0  0  0
  187.9190  178.2790  139.5820 N   0  0  0  0  0  0  0  0  0  0  0  0
  182.1600  177.2080  139.8720 C   0  0  2  0  0  0  0  0  0  0  0  0
  183.5670  177.1120  140.0960 O   0  0  0  0  0  0  0  0  0  0  0  0
  180.0200  177.5580  141.2220 C   0  0  0  0  0  0  0  0  0  0  0  0
  187.8690  178.2530  138.2280 C   0  0  0  0  0  0  0  0  0  0  0  0
  181.4240  177.8280  141.0140 N   0  0  0  0  0  0  0  0  0  0  0  0
  179.3260  178.2370  142.1700 F   0  0  0  0  0  0  0  0  0  0  0  0
  185.5710  178.4760  142.3620 C   0  0  0  0  0  3  0  0  0  0  0  0
  188.9640  178.1980  137.3380 N   0  0  0  0  0  0  0  0  0  0  0  0
  185.5070  178.3690  139.5670 C   0  0  0  0  0  0  0  0  0  0  0  0
  179.4070  176.7150  140.5210 O   0  0  0  0  0  0  0  0  0  0  0  0
  183.1180  178.6240  142.6340 C   0  0  1  0  0  3  0  0  0  0  0  0
  186.9180  178.2510  136.2570 C   0  0  0  0  0  3  0  0  0  0  0  0
  181.0150  179.8710  137.2210 C   0  0  0  0  0  0  0  0  0  0  0  0
  182.1530  177.3370  137.3500 C   0  0  0  0  0  3  0  0  0  0  0  0
  181.3290  179.1860  136.0500 C   0  0  0  0  0  3  0  0  0  0  0  0
  180.1750  181.8830  138.2730 C   0  0  0  0  0  3  0  0  0  0  0  0
  180.9690  180.0450  139.6320 C   0  0  0  0  0  3  0  0  0  0  0  0
  181.2690  179.2840  138.4910 C   0  0  0  0  0  0  0  0  0  0  0  0
  180.4310  181.3300  139.5270 C   0  0  0  0  0  3  0  0  0  0  0  0
  181.9070  177.9250  136.1150 C   0  0  0  0  0  3  0  0  0  0  0  0
  180.4650  181.1530  137.1220 C   0  0  0  0  0  3  0  0  0  0  0  0
  181.8260  177.9680  138.5620 C   0  0  0  0  0  0  0  0  0  0  0  0
  183.2520  179.6700  143.7390 C   0  0  0  0  0  2  0  0  0  0  0  0
  183.5450  179.0030  145.0730 C   0  0  0  0  0  2  0  0  0  0  0  0
  184.7920  179.5110  145.6250 N   0  0  0  0  0  2  0  0  0  0  0  0
  185.4340  178.4630  146.4150 C   0  0  0  0  0  0  0  0  0  0  0  0
  184.4920  177.8800  147.2390 F   0  0  0  0  0  0  0  0  0  0  0  0
  185.9610  177.4900  145.5800 F   0  0  0  0  0  0  0  0  0  0  0  0
  186.4420  178.9990  147.2010 F   0  0  0  0  0  0  0  0  0  0  0  0
  2 19  2  0  0  0  0
  3 22  1  0  0  0  0
  3 18  2  0  0  0  0
  4 21  1  0  0  0  0
  5 19  1  6  0  0  0
  5  8  1  0  0  0  0
  6  2  1  0  0  0  0
  6 14  1  0  0  0  0
  7 17  1  0  0  0  0
  8 17  2  0  0  0  0
  8 21  1  0  0  0  0
  9  7  2  0  0  0  0
 10  9  1  0  0  0  0
 11  1  1  6  0  0  0
 11 12  1  0  0  0  0
 11 15  1  0  0  0  0
 12  5  1  0  0  0  0
 13 16  1  0  0  0  0
 14 10  2  0  0  0  0
 15 13  1  0  0  0  0
 15  4  1  0  0  0  0
 18 14  1  0  0  0  0
 19  9  1  0  0  0  0
 20 13  2  0  0  0  0
 21 33  1  1  0  0  0
 22  6  2  0  0  0  0
 23 28  1  0  0  0  0
 24 32  1  0  0  0  0
 25 30  1  0  0  0  0
 25 23  2  0  0  0  0
 26 29  1  0  0  0  0
 28 32  2  0  0  0  0
 28 27  1  0  0  0  0
 29 27  2  0  0  0  0
 30 24  2  0  0  0  0
 31 23  1  0  0  0  0
 31 26  2  0  0  0  0
 32 11  1  0  0  0  0
 33 34  1  0  0  0  0
 34 35  1  0  0  0  0
 35 36  1  0  0  0  0
 36 39  1  0  0  0  0
 36 37  1  0  0  0  0
 38 36  1  0  0  0  0
M  END
>  <MODEL>
4

>  <REMARK>
 VINA RESULT:      -6.9      0.845      1.966
  Name = 
  5 active torsions:
  status: ('A' for Active; 'I' for Inactive)
    1  A    between atoms: C_1  and  C_12
    2  A    between atoms: C_1  and  N_34
    3  A    between atoms: C_5  and  N_34
    4  A    between atoms: C_12  and  C_38
    5  A    between atoms: C_20  and  C_37
                            x       y       z     vdW  Elec       q    Type
                         _______ _______ _______ _____ _____    ______ ____

>  <TORSDO>
F 5

$$$$
=
 OpenBabel11032420283D

 39 44  0  0  1  0  0  0  0  0999 V2000
  181.5870  180.2370  138.2380 O   0  0  0  0  0  1  0  0  0  0  0  0
  183.6620  178.3800  142.0980 N   0  0  0  0  0  0  0  0  0  0  0  0
  184.4400  178.9300  145.5050 C   0  0  0  0  0  3  0  0  0  0  0  0
  183.4460  177.2470  137.1420 C   0  0  0  0  0  2  0  0  0  0  0  0
  184.0870  178.2080  139.6600 C   0  0  2  0  0  3  0  0  0  0  0  0
  184.1070  178.6070  143.3550 C   0  0  0  0  0  0  0  0  0  0  0  0
  186.8170  178.6300  140.3880 N   0  0  0  0  0  0  0  0  0  0  0  0
  185.2110  178.0750  138.6670 C   0  0  0  0  0  0  0  0  0  0  0  0
  185.9440  178.6260  141.3470 C   0  0  0  0  0  0  0  0  0  0  0  0
  186.3490  178.8540  142.6320 N   0  0  0  0  0  0  0  0  0  0  0  0
  182.1350  178.9940  138.5540 C   0  0  2  0  0  0  0  0  0  0  0  0
  183.3110  179.3200  139.2970 O   0  0  0  0  0  0  0  0  0  0  0  0
  181.4910  178.3380  136.1710 C   0  0  0  0  0  0  0  0  0  0  0  0
  185.4160  178.8390  143.6140 C   0  0  0  0  0  0  0  0  0  0  0  0
  182.4290  178.2920  137.2700 N   0  0  0  0  0  0  0  0  0  0  0  0
  181.6950  177.5790  135.0650 F   0  0  0  0  0  0  0  0  0  0  0  0
  186.4720  178.3480  139.0250 C   0  0  0  0  0  3  0  0  0  0  0  0
  185.6310  179.0480  144.9940 N   0  0  0  0  0  0  0  0  0  0  0  0
  184.5680  178.3780  141.0730 C   0  0  0  0  0  0  0  0  0  0  0  0
  180.4610  179.0560  136.2230 O   0  0  0  0  0  0  0  0  0  0  0  0
  184.8570  177.8160  137.2300 C   0  0  1  0  0  3  0  0  0  0  0  0
  183.4120  178.6420  144.4740 C   0  0  0  0  0  3  0  0  0  0  0  0
  179.5720  177.7350  141.2510 C   0  0  0  0  0  0  0  0  0  0  0  0
  180.7780  176.8920  138.8910 C   0  0  0  0  0  3  0  0  0  0  0  0
  179.2860  176.4740  140.7320 C   0  0  0  0  0  3  0  0  0  0  0  0
  179.1630  179.4080  142.9520 C   0  0  0  0  0  3  0  0  0  0  0  0
  180.6930  179.8740  141.1360 C   0  0  0  0  0  3  0  0  0  0  0  0
  180.4820  178.6010  140.5840 C   0  0  0  0  0  0  0  0  0  0  0  0
  180.0420  180.2760  142.3050 C   0  0  0  0  0  3  0  0  0  0  0  0
  179.8800  176.0580  139.5480 C   0  0  0  0  0  3  0  0  0  0  0  0
  178.9310  178.1390  142.4260 C   0  0  0  0  0  3  0  0  0  0  0  0
  181.1280  178.1590  139.3870 C   0  0  0  0  0  0  0  0  0  0  0  0
  185.8270  176.8310  136.5790 C   0  0  0  0  0  2  0  0  0  0  0  0
  185.1180  175.5320  136.2340 C   0  0  0  0  0  2  0  0  0  0  0  0
  185.8480  174.4000  136.7860 N   0  0  0  0  0  2  0  0  0  0  0  0
  184.9020  173.4600  137.3860 C   0  0  0  0  0  0  0  0  0  0  0  0
  183.8900  174.1720  138.0000 F   0  0  0  0  0  0  0  0  0  0  0  0
  184.3480  172.6500  136.4080 F   0  0  0  0  0  0  0  0  0  0  0  0
  185.5370  172.6770  138.3370 F   0  0  0  0  0  0  0  0  0  0  0  0
  2  6  1  0  0  0  0
  4 21  1  0  0  0  0
  4 15  1  0  0  0  0
  5  8  1  6  0  0  0
  5 19  1  0  0  0  0
  6 14  1  0  0  0  0
  6 22  2  0  0  0  0
  7  9  2  0  0  0  0
  8 17  2  0  0  0  0
  9 10  1  0  0  0  0
 10 14  2  0  0  0  0
 11  1  1  6  0  0  0
 11 12  1  0  0  0  0
 11 32  1  0  0  0  0
 12  5  1  0  0  0  0
 13 20  2  0  0  0  0
 13 15  1  0  0  0  0
 14 18  1  0  0  0  0
 15 11  1  0  0  0  0
 16 13  1  0  0  0  0
 17  7  1  0  0  0  0
 18  3  2  0  0  0  0
 19  9  1  0  0  0  0
 19  2  2  0  0  0  0
 21 33  1  1  0  0  0
 21  8  1  0  0  0  0
 22  3  1  0  0  0  0
 23 31  1  0  0  0  0
 24 32  2  0  0  0  0
 24 30  1  0  0  0  0
 25 23  1  0  0  0  0
 27 29  2  0  0  0  0
 28 27  1  0  0  0  0
 28 23  2  0  0  0  0
 29 26  1  0  0  0  0
 30 25  2  0  0  0  0
 31 26  2  0  0  0  0
 32 28  1  0  0  0  0
 34 33  1  0  0  0  0
 34 35  1  0  0  0  0
 35 36  1  0  0  0  0
 36 37  1  0  0  0  0
 36 39  1  0  0  0  0
 38 36  1  0  0  0  0
M  END
>  <MODEL>
5

>  <REMARK>
 VINA RESULT:      -6.9      3.534      6.527
  Name = 
  5 active torsions:
  status: ('A' for Active; 'I' for Inactive)
    1  A    between atoms: C_1  and  C_12
    2  A    between atoms: C_1  and  N_34
    3  A    between atoms: C_5  and  N_34
    4  A    between atoms: C_12  and  C_38
    5  A    between atoms: C_20  and  C_37
                            x       y       z     vdW  Elec       q    Type
                         _______ _______ _______ _____ _____    ______ ____

>  <TORSDO>
F 5

$$$$
=
 OpenBabel11032420283D

 39 44  0  0  1  0  0  0  0  0999 V2000
  181.5510  175.5010  138.9750 O   0  0  0  0  0  1  0  0  0  0  0  0
  184.1390  178.1840  141.9340 N   0  0  0  0  0  0  0  0  0  0  0  0
  186.3300  178.1310  144.7120 C   0  0  0  0  0  3  0  0  0  0  0  0
  180.5760  179.0090  138.3960 C   0  0  0  0  0  2  0  0  0  0  0  0
  182.0020  178.5230  140.7210 C   0  0  2  0  0  3  0  0  0  0  0  0
  184.8590  178.2230  143.0790 C   0  0  0  0  0  0  0  0  0  0  0  0
  181.0630  179.5350  143.2230 N   0  0  0  0  0  0  0  0  0  0  0  0
  180.6600  179.1940  140.8630 C   0  0  0  0  0  0  0  0  0  0  0  0
  182.2880  179.1100  143.1800 C   0  0  0  0  0  0  0  0  0  0  0  0
  183.0500  179.1280  144.3130 N   0  0  0  0  0  0  0  0  0  0  0  0
  181.8840  176.8540  139.0340 C   0  0  2  0  0  0  0  0  0  0  0  0
  181.7860  177.1690  140.4230 O   0  0  0  0  0  0  0  0  0  0  0  0
  180.4820  177.0750  136.9100 C   0  0  0  0  0  0  0  0  0  0  0  0
  184.3280  178.6810  144.2380 C   0  0  0  0  0  0  0  0  0  0  0  0
  180.9000  177.5960  138.1920 N   0  0  0  0  0  0  0  0  0  0  0  0
  179.7040  177.8240  136.0880 F   0  0  0  0  0  0  0  0  0  0  0  0
  180.2210  179.5930  142.0630 C   0  0  0  0  0  3  0  0  0  0  0  0
  185.2710  178.6220  145.2870 N   0  0  0  0  0  0  0  0  0  0  0  0
  182.8460  178.6310  141.9590 C   0  0  1  0  0  3  0  0  0  0  0  0
  180.8460  175.9380  136.5180 O   0  0  0  0  0  0  0  0  0  0  0  0
  179.7570  179.2260  139.6620 C   0  0  1  0  0  3  0  0  0  0  0  0
  186.1090  177.8550  143.2700 C   0  0  0  0  0  2  0  0  0  0  0  0
  185.4610  176.3980  137.4740 C   0  0  0  0  0  0  0  0  0  0  0  0
  183.7910  178.4000  138.4430 C   0  0  0  0  0  3  0  0  0  0  0  0
  185.8930  177.7220  137.4890 C   0  0  0  0  0  3  0  0  0  0  0  0
  185.9000  174.0900  136.8920 C   0  0  0  0  0  3  0  0  0  0  0  0
  183.7760  174.7100  137.8710 C   0  0  0  0  0  3  0  0  0  0  0  0
  184.1660  176.0560  137.9550 C   0  0  0  0  0  0  0  0  0  0  0  0
  184.6290  173.7370  137.3450 C   0  0  0  0  0  3  0  0  0  0  0  0
  185.0550  178.7220  137.9630 C   0  0  0  0  0  3  0  0  0  0  0  0
  186.3150  175.4180  136.9590 C   0  0  0  0  0  3  0  0  0  0  0  0
  183.3160  177.0780  138.4820 C   0  0  0  0  0  0  0  0  0  0  0  0
  179.0180  180.5580  139.5490 C   0  0  0  0  0  2  0  0  0  0  0  0
  179.2660  181.1930  138.1910 C   0  0  0  0  0  2  0  0  0  0  0  0
  179.8400  182.5210  138.3540 N   0  0  0  0  0  2  0  0  0  0  0  0
  181.1820  182.5430  137.7760 C   0  0  0  0  0  0  0  0  0  0  0  0
  181.1800  181.8070  136.6080 F   0  0  0  0  0  0  0  0  0  0  0  0
  181.5550  183.8440  137.4830 F   0  0  0  0  0  0  0  0  0  0  0  0
  182.0950  181.9820  138.6540 F   0  0  0  0  0  0  0  0  0  0  0  0
  2  6  2  0  0  0  0
  3 18  2  0  0  0  0
  4 21  1  0  0  0  0
  5 12  1  1  0  0  0
  5  8  1  0  0  0  0
  5 19  1  0  0  0  0
  6 22  1  0  0  0  0
  6 14  1  0  0  0  0
  8 17  2  0  0  0  0
  9  7  2  0  0  0  0
  9 10  1  0  0  0  0
 11  1  1  6  0  0  0
 11 12  1  0  0  0  0
 13 15  1  0  0  0  0
 14 10  2  0  0  0  0
 14 18  1  0  0  0  0
 15  4  1  0  0  0  0
 15 11  1  0  0  0  0
 16 13  1  0  0  0  0
 17  7  1  0  0  0  0
 19  2  1  1  0  0  0
 19  9  1  0  0  0  0
 20 13  2  0  0  0  0
 21 33  1  6  0  0  0
 21  8  1  0  0  0  0
 22  3  1  0  0  0  0
 23 25  2  0  0  0  0
 23 28  1  0  0  0  0
 24 32  1  0  0  0  0
 25 30  1  0  0  0  0
 26 31  2  0  0  0  0
 26 29  1  0  0  0  0
 27 28  1  0  0  0  0
 28 32  2  0  0  0  0
 29 27  2  0  0  0  0
 30 24  2  0  0  0  0
 31 23  1  0  0  0  0
 32 11  1  0  0  0  0
 34 35  1  0  0  0  0
 34 33  1  0  0  0  0
 36 35  1  0  0  0  0
 36 39  1  0  0  0  0
 37 36  1  0  0  0  0
 38 36  1  0  0  0  0
M  END
>  <MODEL>
6

>  <REMARK>
 VINA RESULT:      -6.7      3.639      6.387
  Name = 
  5 active torsions:
  status: ('A' for Active; 'I' for Inactive)
    1  A    between atoms: C_1  and  C_12
    2  A    between atoms: C_1  and  N_34
    3  A    between atoms: C_5  and  N_34
    4  A    between atoms: C_12  and  C_38
    5  A    between atoms: C_20  and  C_37
                            x       y       z     vdW  Elec       q    Type
                         _______ _______ _______ _____ _____    ______ ____

>  <TORSDO>
F 5

$$$$
=
 OpenBabel11032420283D

 39 44  0  0  1  0  0  0  0  0999 V2000
  189.3870  179.2860  138.9330 O   0  0  0  0  0  1  0  0  0  0  0  0
  184.8150  177.9810  138.7040 N   0  0  0  0  0  0  0  0  0  0  0  0
  181.6840  178.6760  137.2090 C   0  0  0  0  0  3  0  0  0  0  0  0
  188.8020  176.8840  141.6680 C   0  0  0  0  0  2  0  0  0  0  0  0
  186.5300  177.9500  140.4960 C   0  0  2  0  0  3  0  0  0  0  0  0
  183.5730  178.3010  138.2710 C   0  0  0  0  0  0  0  0  0  0  0  0
  184.4520  179.0480  142.1210 N   0  0  0  0  0  0  0  0  0  0  0  0
  186.6810  178.1190  141.9850 C   0  0  0  0  0  0  0  0  0  0  0  0
  184.1670  178.8110  140.8780 C   0  0  0  0  0  0  0  0  0  0  0  0
  182.9270  179.1210  140.3970 N   0  0  0  0  0  0  0  0  0  0  0  0
  188.6440  178.2220  139.4440 C   0  0  2  0  0  0  0  0  0  0  0  0
  187.4200  178.8300  139.8620 O   0  0  0  0  0  0  0  0  0  0  0  0
  190.8520  177.4480  140.4700 C   0  0  0  0  0  0  0  0  0  0  0  0
  182.6550  178.8580  139.0960 C   0  0  0  0  0  0  0  0  0  0  0  0
  189.4220  177.6320  140.5740 N   0  0  0  0  0  0  0  0  0  0  0  0
  191.5270  176.7790  141.4370 F   0  0  0  0  0  0  0  0  0  0  0  0
  185.7150  178.7020  142.7060 C   0  0  0  0  0  3  0  0  0  0  0  0
  181.4420  179.1000  138.4150 N   0  0  0  0  0  0  0  0  0  0  0  0
  185.1340  178.2220  140.0120 C   0  0  0  0  0  0  0  0  0  0  0  0
  191.4940  177.8780  139.4790 O   0  0  0  0  0  0  0  0  0  0  0  0
  188.0120  177.7930  142.6010 C   0  0  1  0  0  3  0  0  0  0  0  0
  183.0640  178.1450  137.0670 C   0  0  0  0  0  3  0  0  0  0  0  0
  187.6340  176.3000  136.1710 C   0  0  0  0  0  0  0  0  0  0  0  0
  188.9530  175.8690  138.5810 C   0  0  0  0  0  3  0  0  0  0  0  0
  188.1530  175.0420  136.4680 C   0  0  0  0  0  3  0  0  0  0  0  0
  186.5020  177.7450  134.5940 C   0  0  0  0  0  3  0  0  0  0  0  0
  187.2630  178.6260  136.7140 C   0  0  0  0  0  3  0  0  0  0  0  0
  187.7700  177.3730  137.0940 C   0  0  0  0  0  0  0  0  0  0  0  0
  186.6380  178.8140  135.4790 C   0  0  0  0  0  3  0  0  0  0  0  0
  188.8200  174.8300  137.6670 C   0  0  0  0  0  3  0  0  0  0  0  0
  186.9980  176.4910  134.9400 C   0  0  0  0  0  3  0  0  0  0  0  0
  188.4200  177.1490  138.3480 C   0  0  0  0  0  0  0  0  0  0  0  0
  187.8530  177.0970  143.9510 C   0  0  0  0  0  2  0  0  0  0  0  0
  188.5700  177.8760  145.0420 C   0  0  0  0  0  2  0  0  0  0  0  0
  189.9540  178.1140  144.6620 N   0  0  0  0  0  2  0  0  0  0  0  0
  190.7880  177.0220  145.1600 C   0  0  0  0  0  0  0  0  0  0  0  0
  192.0530  177.5080  145.4270 F   0  0  0  0  0  0  0  0  0  0  0  0
  190.2520  176.5070  146.3300 F   0  0  0  0  0  0  0  0  0  0  0  0
  190.8880  176.0190  144.2110 F   0  0  0  0  0  0  0  0  0  0  0  0
  2 19  2  0  0  0  0
  3 18  2  0  0  0  0
  4 21  1  0  0  0  0
  5 12  1  6  0  0  0
  5  8  1  0  0  0  0
  6  2  1  0  0  0  0
  6 14  1  0  0  0  0
  7 17  1  0  0  0  0
  8 21  1  0  0  0  0
  8 17  2  0  0  0  0
  9  7  2  0  0  0  0
 10  9  1  0  0  0  0
 11  1  1  6  0  0  0
 11 12  1  0  0  0  0
 11 15  1  0  0  0  0
 13 15  1  0  0  0  0
 13 16  1  0  0  0  0
 14 10  2  0  0  0  0
 15  4  1  0  0  0  0
 18 14  1  0  0  0  0
 19  5  1  0  0  0  0
 19  9  1  0  0  0  0
 20 13  2  0  0  0  0
 21 33  1  1  0  0  0
 22  3  1  0  0  0  0
 22  6  2  0  0  0  0
 23 25  2  0  0  0  0
 23 28  1  0  0  0  0
 25 30  1  0  0  0  0
 26 31  2  0  0  0  0
 26 29  1  0  0  0  0
 27 28  1  0  0  0  0
 28 32  2  0  0  0  0
 29 27  2  0  0  0  0
 30 24  2  0  0  0  0
 31 23  1  0  0  0  0
 32 24  1  0  0  0  0
 32 11  1  0  0  0  0
 33 34  1  0  0  0  0
 35 34  1  0  0  0  0
 35 36  1  0  0  0  0
 36 37  1  0  0  0  0
 36 38  1  0  0  0  0
 39 36  1  0  0  0  0
M  END
>  <MODEL>
7

>  <REMARK>
 VINA RESULT:      -6.4      3.313      6.258
  Name = 
  5 active torsions:
  status: ('A' for Active; 'I' for Inactive)
    1  A    between atoms: C_1  and  C_12
    2  A    between atoms: C_1  and  N_34
    3  A    between atoms: C_5  and  N_34
    4  A    between atoms: C_12  and  C_38
    5  A    between atoms: C_20  and  C_37
                            x       y       z     vdW  Elec       q    Type
                         _______ _______ _______ _____ _____    ______ ____

>  <TORSDO>
F 5

$$$$
=
 OpenBabel11032420283D

 39 44  0  0  1  0  0  0  0  0999 V2000
  181.9220  181.1110  138.7490 O   0  0  0  0  0  1  0  0  0  0  0  0
  183.6130  178.7310  142.5080 N   0  0  0  0  0  0  0  0  0  0  0  0
  184.5160  178.9850  145.9200 C   0  0  0  0  0  3  0  0  0  0  0  0
  183.1310  177.8520  137.5190 C   0  0  0  0  0  2  0  0  0  0  0  0
  183.9740  178.5680  140.0590 C   0  0  2  0  0  3  0  0  0  0  0  0
  184.1070  178.8160  143.7650 C   0  0  0  0  0  0  0  0  0  0  0  0
  186.7400  178.4050  140.7570 N   0  0  0  0  0  0  0  0  0  0  0  0
  185.0400  178.2490  139.0440 C   0  0  0  0  0  0  0  0  0  0  0  0
  185.8920  178.5410  141.7300 C   0  0  0  0  0  0  0  0  0  0  0  0
  186.3460  178.6340  143.0150 N   0  0  0  0  0  0  0  0  0  0  0  0
  182.2120  179.7720  139.0130 C   0  0  2  0  0  0  0  0  0  0  0  0
  183.4350  179.8270  139.7480 O   0  0  0  0  0  0  0  0  0  0  0  0
  181.4270  179.3490  136.6190 C   0  0  0  0  0  0  0  0  0  0  0  0
  185.4370  178.7710  144.0110 C   0  0  0  0  0  0  0  0  0  0  0  0
  182.3470  179.0740  137.7000 N   0  0  0  0  0  0  0  0  0  0  0  0
  181.4650  178.6070  135.4840 F   0  0  0  0  0  0  0  0  0  0  0  0
  186.3330  178.2500  139.3910 C   0  0  0  0  0  3  0  0  0  0  0  0
  185.7020  178.8800  145.3940 N   0  0  0  0  0  0  0  0  0  0  0  0
  184.4910  178.5850  141.4700 C   0  0  1  0  0  3  0  0  0  0  0  0
  180.5640  180.2570  136.7120 O   0  0  0  0  0  0  0  0  0  0  0  0
  184.6280  178.1210  137.6040 C   0  0  1  0  0  3  0  0  0  0  0  0
  183.4430  178.9480  144.8950 C   0  0  0  0  0  2  0  0  0  0  0  0
  179.7000  177.2620  140.6940 C   0  0  0  0  0  0  0  0  0  0  0  0
  180.2760  179.9820  140.6210 C   0  0  0  0  0  3  0  0  0  0  0  0
  178.9310  178.1590  141.4300 C   0  0  0  0  0  3  0  0  0  0  0  0
  180.1750  174.9700  140.0770 C   0  0  0  0  0  3  0  0  0  0  0  0
  181.5470  176.7660  139.2140 C   0  0  0  0  0  3  0  0  0  0  0  0
  180.7840  177.7260  139.8970 C   0  0  0  0  0  0  0  0  0  0  0  0
  181.2500  175.4030  139.3020 C   0  0  0  0  0  3  0  0  0  0  0  0
  179.2250  179.5160  141.4020 C   0  0  0  0  0  3  0  0  0  0  0  0
  179.4010  175.8980  140.7700 C   0  0  0  0  0  3  0  0  0  0  0  0
  181.0640  179.1260  139.8320 C   0  0  0  0  0  0  0  0  0  0  0  0
  185.3740  176.9860  136.9040 C   0  0  0  0  0  2  0  0  0  0  0  0
  186.0380  177.4890  135.6330 C   0  0  0  0  0  2  0  0  0  0  0  0
  187.3900  176.9590  135.5280 N   0  0  0  0  0  2  0  0  0  0  0  0
  188.3170  177.8590  136.2100 C   0  0  0  0  0  0  0  0  0  0  0  0
  188.6980  177.2890  137.4080 F   0  0  0  0  0  0  0  0  0  0  0  0
  189.4460  178.0600  135.4330 F   0  0  0  0  0  0  0  0  0  0  0  0
  187.7060  179.0750  136.4700 F   0  0  0  0  0  0  0  0  0  0  0  0
  2  6  2  0  0  0  0
  4 21  1  0  0  0  0
  4 15  1  0  0  0  0
  5  8  1  6  0  0  0
  5 19  1  0  0  0  0
  6 14  1  0  0  0  0
  6 22  1  0  0  0  0
  7  9  2  0  0  0  0
  8 17  2  0  0  0  0
  9 10  1  0  0  0  0
 10 14  2  0  0  0  0
 11  1  1  6  0  0  0
 11 12  1  0  0  0  0
 11 32  1  0  0  0  0
 12  5  1  0  0  0  0
 13 20  2  0  0  0  0
 13 15  1  0  0  0  0
 14 18  1  0  0  0  0
 15 11  1  0  0  0  0
 16 13  1  0  0  0  0
 17  7  1  0  0  0  0
 18  3  2  0  0  0  0
 19  9  1  6  0  0  0
 19  2  1  0  0  0  0
 21 33  1  1  0  0  0
 21  8  1  0  0  0  0
 22  3  1  0  0  0  0
 23 31  1  0  0  0  0
 23 25  1  0  0  0  0
 24 30  1  0  0  0  0
 26 31  2  0  0  0  0
 27 29  2  0  0  0  0
 27 28  1  0  0  0  0
 28 23  2  0  0  0  0
 29 26  1  0  0  0  0
 30 25  2  0  0  0  0
 32 28  1  0  0  0  0
 32 24  2  0  0  0  0
 34 33  1  0  0  0  0
 35 34  1  0  0  0  0
 35 36  1  0  0  0  0
 36 39  1  0  0  0  0
 36 37  1  0  0  0  0
 38 36  1  0  0  0  0
M  END
>  <MODEL>
8

>  <REMARK>
 VINA RESULT:      -6.2      3.451      6.262
  Name = 
  5 active torsions:
  status: ('A' for Active; 'I' for Inactive)
    1  A    between atoms: C_1  and  C_12
    2  A    between atoms: C_1  and  N_34
    3  A    between atoms: C_5  and  N_34
    4  A    between atoms: C_12  and  C_38
    5  A    between atoms: C_20  and  C_37
                            x       y       z     vdW  Elec       q    Type
                         _______ _______ _______ _____ _____    ______ ____

>  <TORSDO>
F 5

$$$$
=
 OpenBabel11032420283D

 39 44  0  0  1  0  0  0  0  0999 V2000
  182.0630  181.0350  138.9990 O   0  0  0  0  0  1  0  0  0  0  0  0
  183.9100  178.5450  142.6110 N   0  0  0  0  0  0  0  0  0  0  0  0
  184.8960  178.6800  146.0060 C   0  0  0  0  0  3  0  0  0  0  0  0
  183.3190  177.8620  137.6030 C   0  0  0  0  0  2  0  0  0  0  0  0
  184.2110  178.4940  140.1490 C   0  0  2  0  0  3  0  0  0  0  0  0
  184.4340  178.5910  143.8570 C   0  0  0  0  0  0  0  0  0  0  0  0
  186.9970  178.3720  140.7690 N   0  0  0  0  0  0  0  0  0  0  0  0
  185.2570  178.2450  139.0940 C   0  0  0  0  0  0  0  0  0  0  0  0
  186.1720  178.4460  141.7680 C   0  0  0  0  0  0  0  0  0  0  0  0
  186.6570  178.4970  143.0430 N   0  0  0  0  0  0  0  0  0  0  0  0
  182.3920  179.6950  139.1990 C   0  0  2  0  0  0  0  0  0  0  0  0
  183.6330  179.7500  139.9050 O   0  0  0  0  0  0  0  0  0  0  0  0
  181.5560  179.3510  136.8100 C   0  0  0  0  0  0  0  0  0  0  0  0
  185.7720  178.5690  144.0670 C   0  0  0  0  0  0  0  0  0  0  0  0
  182.5100  179.0550  137.8550 N   0  0  0  0  0  0  0  0  0  0  0  0
  181.5820  178.6580  135.6440 F   0  0  0  0  0  0  0  0  0  0  0  0
  186.5580  178.2640  139.4080 C   0  0  0  0  0  3  0  0  0  0  0  0
  186.0700  178.6270  145.4460 N   0  0  0  0  0  0  0  0  0  0  0  0
  184.7640  178.4650  141.5450 C   0  0  1  0  0  3  0  0  0  0  0  0
  180.6730  180.2320  136.9630 O   0  0  0  0  0  0  0  0  0  0  0  0
  184.8110  178.1660  137.6610 C   0  0  1  0  0  3  0  0  0  0  0  0
  183.7970  178.6580  145.0080 C   0  0  0  0  0  2  0  0  0  0  0  0
  179.9020  177.0740  140.7350 C   0  0  0  0  0  0  0  0  0  0  0  0
  180.6030  179.7540  140.9800 C   0  0  0  0  0  3  0  0  0  0  0  0
  179.2380  177.8900  141.6480 C   0  0  0  0  0  3  0  0  0  0  0  0
  180.2120  174.8720  139.7780 C   0  0  0  0  0  3  0  0  0  0  0  0
  181.5980  176.7170  139.0500 C   0  0  0  0  0  3  0  0  0  0  0  0
  180.9400  177.6020  139.9180 C   0  0  0  0  0  0  0  0  0  0  0  0
  181.2420  175.3670  138.9800 C   0  0  0  0  0  3  0  0  0  0  0  0
  179.5950  179.2250  141.7770 C   0  0  0  0  0  3  0  0  0  0  0  0
  179.5420  175.7250  140.6520 C   0  0  0  0  0  3  0  0  0  0  0  0
  181.2830  178.9860  140.0190 C   0  0  0  0  0  0  0  0  0  0  0  0
  185.5660  177.0810  136.8950 C   0  0  0  0  0  2  0  0  0  0  0  0
  184.6600  175.8910  136.6230 C   0  0  0  0  0  2  0  0  0  0  0  0
  185.4550  174.6830  136.4560 N   0  0  0  0  0  2  0  0  0  0  0  0
  184.9670  173.6520  137.3690 C   0  0  0  0  0  0  0  0  0  0  0  0
  184.2270  172.7310  136.6540 F   0  0  0  0  0  0  0  0  0  0  0  0
  186.0330  173.0000  137.9670 F   0  0  0  0  0  0  0  0  0  0  0  0
  184.1570  174.2130  138.3430 F   0  0  0  0  0  0  0  0  0  0  0  0
  2  6  2  0  0  0  0
  4 21  1  0  0  0  0
  4 15  1  0  0  0  0
  5  8  1  6  0  0  0
  5 19  1  0  0  0  0
  6 14  1  0  0  0  0
  6 22  1  0  0  0  0
  7  9  2  0  0  0  0
  8 17  2  0  0  0  0
  9 10  1  0  0  0  0
 10 14  2  0  0  0  0
 11  1  1  6  0  0  0
 11 12  1  0  0  0  0
 11 32  1  0  0  0  0
 12  5  1  0  0  0  0
 13 20  2  0  0  0  0
 13 15  1  0  0  0  0
 14 18  1  0  0  0  0
 15 11  1  0  0  0  0
 16 13  1  0  0  0  0
 17  7  1  0  0  0  0
 18  3  2  0  0  0  0
 19  9  1  6  0  0  0
 19  2  1  0  0  0  0
 21 33  1  6  0  0  0
 21  8  1  0  0  0  0
 22  3  1  0  0  0  0
 23 25  1  0  0  0  0
 24 30  1  0  0  0  0
 25 30  2  0  0  0  0
 26 31  2  0  0  0  0
 27 28  1  0  0  0  0
 28 32  1  0  0  0  0
 28 23  2  0  0  0  0
 29 27  2  0  0  0  0
 29 26  1  0  0  0  0
 31 23  1  0  0  0  0
 32 24  2  0  0  0  0
 34 33  1  0  0  0  0
 35 34  1  0  0  0  0
 35 36  1  0  0  0  0
 36 38  1  0  0  0  0
 36 39  1  0  0  0  0
 37 36  1  0  0  0  0
M  END
>  <MODEL>
9

>  <REMARK>
 VINA RESULT:      -6.1      3.482      6.151
  Name = 
  5 active torsions:
  status: ('A' for Active; 'I' for Inactive)
    1  A    between atoms: C_1  and  C_12
    2  A    between atoms: C_1  and  N_34
    3  A    between atoms: C_5  and  N_34
    4  A    between atoms: C_12  and  C_38
    5  A    between atoms: C_20  and  C_37
                            x       y       z     vdW  Elec       q    Type
                         _______ _______ _______ _____ _____    ______ ____

>  <TORSDO>
F 5

$$$$
