=
 OpenBabel11042413033D

 40 43  0  0  1  0  0  0  0  0999 V2000
  184.9910  179.2570  143.6320 N   0  0  0  0  0  2  0  0  0  0  0  0
  185.3800  178.1120  142.8270 C   0  0  0  0  0  2  0  0  0  0  0  0
  187.6250  177.0050  142.7240 C   0  0  0  0  0  2  0  0  0  0  0  0
  188.2940  178.5430  140.3900 C   0  0  0  0  0  2  0  0  0  0  0  0
  186.8440  178.4790  140.8630 C   0  0  0  0  0  2  0  0  0  0  0  0
  186.8190  178.2550  142.3690 C   0  0  1  0  0  3  0  0  0  0  0  0
  189.0360  177.1260  142.1490 C   0  0  0  0  0  2  0  0  0  0  0  0
  188.9790  177.2850  140.6930 N   0  0  0  0  0  0  0  0  0  0  0  0
  190.3500  177.4400  140.2360 C   0  0  0  0  0  2  0  0  0  0  0  0
  190.8400  176.1720  139.7210 N   0  0  0  0  0  2  0  0  0  0  0  0
  189.9150  176.6220  137.4680 N   0  0  0  0  0  2  0  0  0  0  0  0
  191.2410  174.7150  137.9240 N   0  0  0  0  0  2  0  0  0  0  0  0
  190.7110  175.8170  138.3470 C   0  0  0  0  0  0  0  0  0  0  0  0
  189.6370  176.2670  136.0820 C   0  0  0  0  0  2  0  0  0  0  0  0
  187.6860  177.6200  135.5240 N   0  0  0  0  0  2  0  0  0  0  0  0
  188.1380  176.2580  135.8150 C   0  0  2  0  0  3  0  0  0  0  0  0
  186.2500  177.5750  135.2460 C   0  0  0  0  0  2  0  0  0  0  0  0
  187.3860  175.7030  137.0260 C   0  0  0  0  0  2  0  0  0  0  0  0
  185.8830  175.8040  136.7720 C   0  0  0  0  0  2  0  0  0  0  0  0
  185.5240  177.1850  136.4550 N   0  0  0  0  0  2  0  0  0  0  0  0
  183.8630  178.8360  144.4490 C   0  0  2  0  0  3  0  0  0  0  0  0
  182.5870  179.5020  143.9550 C   0  0  0  0  0  2  0  0  0  0  0  0
  181.5970  178.4750  143.4240 C   0  0  2  0  0  3  0  0  0  0  0  0
  181.2820  178.7340  141.9730 C   0  0  0  0  0  2  0  0  0  0  0  0
  179.3240  178.2490  143.2360 N   0  0  0  0  0  2  0  0  0  0  0  0
  179.3380  177.6760  140.8750 C   0  0  0  0  0  1  0  0  0  0  0  0
  180.3410  178.5860  144.1460 N   0  0  0  0  0  2  0  0  0  0  0  0
  179.7800  178.6780  141.9220 C   0  0  2  0  0  3  0  0  0  0  0  0
  184.1030  179.2220  145.8320 N   0  0  0  0  0  2  0  0  0  0  0  0
  184.8100  178.1300  146.4930 C   0  0  0  0  0  2  0  0  0  0  0  0
  185.9100  178.6450  147.3030 N   0  0  0  0  0  2  0  0  0  0  0  0
  189.4180  177.8440  148.2750 C   0  0  0  0  0  3  0  0  0  0  0  0
  187.7550  177.5860  146.0440 C   0  0  0  0  0  3  0  0  0  0  0  0
  187.2610  178.1790  147.2170 C   0  0  0  0  0  0  0  0  0  0  0  0
  189.9140  177.2530  147.1030 C   0  0  0  0  0  0  0  0  0  0  0  0
  188.0990  178.3030  148.3300 C   0  0  0  0  0  3  0  0  0  0  0  0
  189.0720  177.1270  145.9890 C   0  0  0  0  0  3  0  0  0  0  0  0
  191.8000  176.1810  145.8880 O   0  0  0  0  0  0  0  0  0  0  0  0
  191.3070  176.7740  147.0470 C   0  0  0  0  0  0  0  0  0  0  0  0
  192.0640  176.8970  148.0470 O   0  0  0  0  0  1  0  0  0  0  0  0
  1 21  1  0  0  0  0
  2  1  1  0  0  0  0
  4  8  1  0  0  0  0
  4  5  1  0  0  0  0
  5  6  1  0  0  0  0
  6  3  1  0  0  0  0
  6  2  1  6  0  0  0
  7  3  1  0  0  0  0
  8  7  1  0  0  0  0
  9  8  1  0  0  0  0
 10  9  1  0  0  0  0
 11 13  1  0  0  0  0
 12 13  2  0  0  0  0
 13 10  1  0  0  0  0
 14 11  1  0  0  0  0
 15 16  1  0  0  0  0
 16 14  1  1  0  0  0
 16 18  1  0  0  0  0
 17 15  1  0  0  0  0
 17 20  1  0  0  0  0
 19 18  1  0  0  0  0
 20 19  1  0  0  0  0
 21 22  1  6  0  0  0
 21 29  1  0  0  0  0
 23 22  1  1  0  0  0
 23 27  1  0  0  0  0
 24 23  1  0  0  0  0
 25 27  1  0  0  0  0
 28 26  1  6  0  0  0
 28 24  1  0  0  0  0
 28 25  1  0  0  0  0
 29 30  1  0  0  0  0
 30 31  1  0  0  0  0
 32 36  1  0  0  0  0
 33 34  1  0  0  0  0
 34 31  1  0  0  0  0
 34 36  2  0  0  0  0
 35 32  2  0  0  0  0
 37 33  2  0  0  0  0
 37 35  1  0  0  0  0
 38 39  2  0  0  0  0
 39 35  1  0  0  0  0
 39 40  1  0  0  0  0
M  END
>  <MODEL>
1

>  <REMARK>
 VINA RESULT:      -8.5      0.000      0.000
  Name = 
  14 active torsions:
  status: ('A' for Active; 'I' for Inactive)
    1  A    between atoms: N_1  and  C_21
    2  A    between atoms: N_1  and  C_25
    3  A    between atoms: C_3  and  N_12
    4  A    between atoms: C_3  and  N_38
    5  A    between atoms: C_4  and  C_7
    6  A    between atoms: C_4  and  N_17
    7  A    between atoms: C_6  and  C_9
    8  A    between atoms: C_6  and  C_25
    9  A    between atoms: C_14  and  C_31
   10  A    between atoms: N_16  and  C_23
   11  A    between atoms: N_16  and  C_36
   12  A    between atoms: C_21  and  C_22
   13  A    between atoms: C_25  and  N_34
   14  A    between atoms: N_34  and  C_36
                            x       y       z     vdW  Elec       q    Type
                         _______ _______ _______ _____ _____    ______ ____

>  <TORSDO>
F 14

$$$$
=
 OpenBabel11042413033D

 40 43  0  0  1  0  0  0  0  0999 V2000
  185.6990  178.8850  144.1070 N   0  0  0  0  0  2  0  0  0  0  0  0
  185.9550  177.8060  143.1690 C   0  0  0  0  0  2  0  0  0  0  0  0
  188.1760  176.8360  142.5370 C   0  0  0  0  0  2  0  0  0  0  0  0
  188.2620  178.5110  140.2030 C   0  0  0  0  0  2  0  0  0  0  0  0
  186.9500  178.3430  140.9650 C   0  0  0  0  0  2  0  0  0  0  0  0
  187.2550  178.0510  142.4280 C   0  0  1  0  0  3  0  0  0  0  0  0
  189.4260  177.0620  141.6860 C   0  0  0  0  0  2  0  0  0  0  0  0
  189.0540  177.2810  140.2860 N   0  0  0  0  0  0  0  0  0  0  0  0
  190.2870  177.5350  139.5610 C   0  0  0  0  0  2  0  0  0  0  0  0
  190.0550  177.3860  138.1330 N   0  0  0  0  0  2  0  0  0  0  0  0
  192.2330  176.2540  137.8020 N   0  0  0  0  0  2  0  0  0  0  0  0
  190.6640  176.4990  136.0470 N   0  0  0  0  0  2  0  0  0  0  0  0
  190.9620  176.6760  137.2930 C   0  0  0  0  0  0  0  0  0  0  0  0
  193.2610  175.6270  136.9800 C   0  0  0  0  0  2  0  0  0  0  0  0
  194.7330  175.6760  138.9240 N   0  0  0  0  0  2  0  0  0  0  0  0
  194.2310  174.8290  137.8400 C   0  0  2  0  0  3  0  0  0  0  0  0
  195.6410  174.8760  139.7460 C   0  0  0  0  0  2  0  0  0  0  0  0
  195.3970  174.3180  136.9910 C   0  0  0  0  0  2  0  0  0  0  0  0
  196.4060  173.6140  137.8970 C   0  0  0  0  0  2  0  0  0  0  0  0
  196.8260  174.5150  138.9690 N   0  0  0  0  0  2  0  0  0  0  0  0
  184.3390  178.7050  144.5960 C   0  0  2  0  0  3  0  0  0  0  0  0
  183.4040  179.6810  143.8980 C   0  0  0  0  0  2  0  0  0  0  0  0
  182.2710  178.9490  143.1890 C   0  0  2  0  0  3  0  0  0  0  0  0
  182.7300  178.4110  141.8590 C   0  0  0  0  0  2  0  0  0  0  0  0
  180.5940  179.4480  141.7100 N   0  0  0  0  0  2  0  0  0  0  0  0
  181.1100  177.6540  140.1550 C   0  0  0  0  0  1  0  0  0  0  0  0
  181.1890  179.8770  142.9090 N   0  0  0  0  0  2  0  0  0  0  0  0
  181.6510  178.8520  140.9080 C   0  0  2  0  0  3  0  0  0  0  0  0
  184.3100  178.9540  146.0310 N   0  0  0  0  0  2  0  0  0  0  0  0
  185.6440  179.3730  146.4470 C   0  0  0  0  0  2  0  0  0  0  0  0
  186.2360  178.3860  147.3460 N   0  0  0  0  0  2  0  0  0  0  0  0
  189.7630  177.6850  148.3270 C   0  0  0  0  0  3  0  0  0  0  0  0
  188.0940  177.3120  146.1170 C   0  0  0  0  0  3  0  0  0  0  0  0
  187.5950  177.9410  147.2690 C   0  0  0  0  0  0  0  0  0  0  0  0
  190.2640  177.0590  147.1760 C   0  0  0  0  0  0  0  0  0  0  0  0
  188.4360  178.1230  148.3720 C   0  0  0  0  0  3  0  0  0  0  0  0
  189.4190  176.8750  146.0720 C   0  0  0  0  0  3  0  0  0  0  0  0
  192.4870  176.7420  148.2440 O   0  0  0  0  0  1  0  0  0  0  0  0
  191.6650  176.6020  147.1300 C   0  0  0  0  0  0  0  0  0  0  0  0
  192.1300  176.0800  146.0820 O   0  0  0  0  0  0  0  0  0  0  0  0
  1 21  1  0  0  0  0
  2  1  1  0  0  0  0
  4  8  1  0  0  0  0
  4  5  1  0  0  0  0
  5  6  1  0  0  0  0
  6  3  1  0  0  0  0
  6  2  1  1  0  0  0
  7  3  1  0  0  0  0
  8  7  1  0  0  0  0
  9  8  1  0  0  0  0
 10  9  1  0  0  0  0
 12 13  2  0  0  0  0
 13 11  1  0  0  0  0
 13 10  1  0  0  0  0
 14 11  1  0  0  0  0
 15 17  1  0  0  0  0
 16 14  1  6  0  0  0
 16 15  1  0  0  0  0
 18 16  1  0  0  0  0
 18 19  1  0  0  0  0
 19 20  1  0  0  0  0
 20 17  1  0  0  0  0
 21 22  1  6  0  0  0
 21 29  1  0  0  0  0
 23 22  1  6  0  0  0
 24 23  1  0  0  0  0
 25 27  1  0  0  0  0
 27 23  1  0  0  0  0
 28 26  1  1  0  0  0
 28 25  1  0  0  0  0
 28 24  1  0  0  0  0
 29 30  1  0  0  0  0
 30 31  1  0  0  0  0
 32 36  1  0  0  0  0
 33 34  1  0  0  0  0
 34 31  1  0  0  0  0
 34 36  2  0  0  0  0
 35 32  2  0  0  0  0
 37 33  2  0  0  0  0
 37 35  1  0  0  0  0
 39 35  1  0  0  0  0
 39 38  1  0  0  0  0
 40 39  2  0  0  0  0
M  END
>  <MODEL>
2

>  <REMARK>
 VINA RESULT:      -8.1      2.199      3.939
  Name = 
  14 active torsions:
  status: ('A' for Active; 'I' for Inactive)
    1  A    between atoms: N_1  and  C_21
    2  A    between atoms: N_1  and  C_25
    3  A    between atoms: C_3  and  N_12
    4  A    between atoms: C_3  and  N_38
    5  A    between atoms: C_4  and  C_7
    6  A    between atoms: C_4  and  N_17
    7  A    between atoms: C_6  and  C_9
    8  A    between atoms: C_6  and  C_25
    9  A    between atoms: C_14  and  C_31
   10  A    between atoms: N_16  and  C_23
   11  A    between atoms: N_16  and  C_36
   12  A    between atoms: C_21  and  C_22
   13  A    between atoms: C_25  and  N_34
   14  A    between atoms: N_34  and  C_36
                            x       y       z     vdW  Elec       q    Type
                         _______ _______ _______ _____ _____    ______ ____

>  <TORSDO>
F 14

$$$$
=
 OpenBabel11042413033D

 40 43  0  0  1  0  0  0  0  0999 V2000
  186.2000  178.9450  140.0780 N   0  0  0  0  0  2  0  0  0  0  0  0
  187.1770  178.6180  141.1020 C   0  0  0  0  0  2  0  0  0  0  0  0
  189.3270  177.3490  141.3000 C   0  0  0  0  0  2  0  0  0  0  0  0
  189.6960  177.4990  138.4530 C   0  0  0  0  0  2  0  0  0  0  0  0
  188.3360  177.8340  139.0580 C   0  0  0  0  0  2  0  0  0  0  0  0
  188.5320  178.3600  140.4730 C   0  0  1  0  0  3  0  0  0  0  0  0
  190.6370  177.0180  140.5840 C   0  0  0  0  0  2  0  0  0  0  0  0
  190.3630  176.4680  139.2530 N   0  0  0  0  0  0  0  0  0  0  0  0
  191.6520  176.2290  138.6270 C   0  0  0  0  0  2  0  0  0  0  0  0
  191.5100  175.2300  137.5800 N   0  0  0  0  0  2  0  0  0  0  0  0
  193.7900  174.3490  137.9820 N   0  0  0  0  0  2  0  0  0  0  0  0
  192.3010  173.3330  136.4470 N   0  0  0  0  0  2  0  0  0  0  0  0
  192.5160  174.2520  137.3310 C   0  0  0  0  0  0  0  0  0  0  0  0
  194.9090  173.4600  137.6960 C   0  0  0  0  0  2  0  0  0  0  0  0
  195.7790  174.9410  139.4270 N   0  0  0  0  0  2  0  0  0  0  0  0
  196.1100  173.8030  138.5670 C   0  0  2  0  0  3  0  0  0  0  0  0
  196.9410  175.2310  140.2680 C   0  0  0  0  0  2  0  0  0  0  0  0
  197.3200  174.1400  137.6940 C   0  0  0  0  0  2  0  0  0  0  0  0
  198.4770  174.5820  138.5880 C   0  0  0  0  0  2  0  0  0  0  0  0
  198.0520  175.6950  139.4370 N   0  0  0  0  0  2  0  0  0  0  0  0
  184.8850  178.7360  140.6670 C   0  0  2  0  0  3  0  0  0  0  0  0
  183.8300  179.4700  139.8520 C   0  0  0  0  0  2  0  0  0  0  0  0
  182.7870  178.5060  139.3030 C   0  0  2  0  0  3  0  0  0  0  0  0
  183.1750  177.0780  139.5830 C   0  0  0  0  0  2  0  0  0  0  0  0
  182.3900  177.3650  137.3550 N   0  0  0  0  0  2  0  0  0  0  0  0
  182.0830  175.1980  138.4100 C   0  0  0  0  0  1  0  0  0  0  0  0
  182.7100  178.6380  137.8580 N   0  0  0  0  0  2  0  0  0  0  0  0
  182.9980  176.3960  138.2540 C   0  0  2  0  0  3  0  0  0  0  0  0
  184.8840  179.2490  142.0300 N   0  0  0  0  0  2  0  0  0  0  0  0
  184.0790  178.3540  142.8520 C   0  0  0  0  0  2  0  0  0  0  0  0
  184.2140  178.6930  144.2660 N   0  0  0  0  0  2  0  0  0  0  0  0
  186.5370  178.5600  147.1780 C   0  0  0  0  0  3  0  0  0  0  0  0
  186.4330  177.6360  144.5430 C   0  0  0  0  0  3  0  0  0  0  0  0
  185.3680  178.3930  145.0590 C   0  0  0  0  0  0  0  0  0  0  0  0
  187.6020  177.8070  146.6630 C   0  0  0  0  0  0  0  0  0  0  0  0
  185.4270  178.8500  146.3800 C   0  0  0  0  0  3  0  0  0  0  0  0
  187.5410  177.3460  145.3400 C   0  0  0  0  0  3  0  0  0  0  0  0
  189.0490  178.2800  148.6290 O   0  0  0  0  0  1  0  0  0  0  0  0
  188.7730  177.5050  147.5060 C   0  0  0  0  0  0  0  0  0  0  0  0
  189.5350  176.5430  147.2190 O   0  0  0  0  0  0  0  0  0  0  0  0
  1 21  1  0  0  0  0
  1  2  1  0  0  0  0
  4  5  1  0  0  0  0
  4  8  1  0  0  0  0
  5  6  1  0  0  0  0
  6  2  1  1  0  0  0
  6  3  1  0  0  0  0
  7  3  1  0  0  0  0
  8  7  1  0  0  0  0
  9  8  1  0  0  0  0
 10  9  1  0  0  0  0
 12 13  2  0  0  0  0
 13 10  1  0  0  0  0
 13 11  1  0  0  0  0
 14 11  1  0  0  0  0
 15 17  1  0  0  0  0
 16 14  1  6  0  0  0
 16 15  1  0  0  0  0
 18 16  1  0  0  0  0
 18 19  1  0  0  0  0
 19 20  1  0  0  0  0
 20 17  1  0  0  0  0
 21 22  1  6  0  0  0
 21 29  1  0  0  0  0
 23 24  1  0  0  0  0
 23 22  1  6  0  0  0
 25 27  1  0  0  0  0
 25 28  1  0  0  0  0
 27 23  1  0  0  0  0
 28 26  1  1  0  0  0
 28 24  1  0  0  0  0
 29 30  1  0  0  0  0
 30 31  1  0  0  0  0
 31 34  1  0  0  0  0
 33 34  2  0  0  0  0
 33 37  1  0  0  0  0
 34 36  1  0  0  0  0
 35 32  1  0  0  0  0
 35 39  1  0  0  0  0
 36 32  2  0  0  0  0
 37 35  2  0  0  0  0
 39 38  1  0  0  0  0
 40 39  2  0  0  0  0
M  END
>  <MODEL>
3

>  <REMARK>
 VINA RESULT:      -8.0      3.323      5.477
  Name = 
  14 active torsions:
  status: ('A' for Active; 'I' for Inactive)
    1  A    between atoms: N_1  and  C_21
    2  A    between atoms: N_1  and  C_25
    3  A    between atoms: C_3  and  N_12
    4  A    between atoms: C_3  and  N_38
    5  A    between atoms: C_4  and  C_7
    6  A    between atoms: C_4  and  N_17
    7  A    between atoms: C_6  and  C_9
    8  A    between atoms: C_6  and  C_25
    9  A    between atoms: C_14  and  C_31
   10  A    between atoms: N_16  and  C_23
   11  A    between atoms: N_16  and  C_36
   12  A    between atoms: C_21  and  C_22
   13  A    between atoms: C_25  and  N_34
   14  A    between atoms: N_34  and  C_36
                            x       y       z     vdW  Elec       q    Type
                         _______ _______ _______ _____ _____    ______ ____

>  <TORSDO>
F 14

$$$$
=
 OpenBabel11042413033D

 40 43  0  0  1  0  0  0  0  0999 V2000
  186.8760  178.6810  137.6170 N   0  0  0  0  0  2  0  0  0  0  0  0
  188.2960  178.6340  137.3150 C   0  0  0  0  0  2  0  0  0  0  0  0
  188.1800  178.0880  139.7560 C   0  0  0  0  0  2  0  0  0  0  0  0
  190.8710  177.0800  139.6750 C   0  0  0  0  0  2  0  0  0  0  0  0
  190.1170  177.3290  138.3720 C   0  0  0  0  0  2  0  0  0  0  0  0
  189.0990  178.4410  138.5870 C   0  0  1  0  0  3  0  0  0  0  0  0
  189.0220  177.7840  140.9950 C   0  0  0  0  0  2  0  0  0  0  0  0
  189.9370  176.6710  140.7270 N   0  0  0  0  0  0  0  0  0  0  0  0
  190.7280  176.4810  141.9310 C   0  0  0  0  0  2  0  0  0  0  0  0
  191.1150  177.7740  142.4710 N   0  0  0  0  0  2  0  0  0  0  0  0
  191.0140  176.9370  144.8000 N   0  0  0  0  0  2  0  0  0  0  0  0
  191.7730  179.1180  144.2790 N   0  0  0  0  0  2  0  0  0  0  0  0
  191.3470  177.9700  143.8640 C   0  0  0  0  0  0  0  0  0  0  0  0
  191.1110  177.1000  146.2450 C   0  0  0  0  0  2  0  0  0  0  0  0
  188.7150  177.4390  145.9380 N   0  0  0  0  0  2  0  0  0  0  0  0
  189.7370  177.0060  146.8940 C   0  0  2  0  0  3  0  0  0  0  0  0
  187.4060  177.3140  146.5810 C   0  0  0  0  0  2  0  0  0  0  0  0
  189.6830  177.8780  148.1510 C   0  0  0  0  0  2  0  0  0  0  0  0
  188.2660  177.8490  148.7200 C   0  0  0  0  0  2  0  0  0  0  0  0
  187.3080  178.2590  147.6940 N   0  0  0  0  0  2  0  0  0  0  0  0
  186.3320  177.3710  137.2920 C   0  0  2  0  0  3  0  0  0  0  0  0
  186.4970  177.0950  135.8050 C   0  0  0  0  0  2  0  0  0  0  0  0
  186.9980  175.6780  135.5580 C   0  0  2  0  0  3  0  0  0  0  0  0
  187.5610  175.0800  136.8210 C   0  0  0  0  0  2  0  0  0  0  0  0
  188.9540  174.6540  134.9400 N   0  0  0  0  0  2  0  0  0  0  0  0
  188.9660  173.0500  136.7640 C   0  0  0  0  0  1  0  0  0  0  0  0
  188.0850  175.7050  134.5940 N   0  0  0  0  0  2  0  0  0  0  0  0
  188.8850  174.5150  136.3860 C   0  0  2  0  0  3  0  0  0  0  0  0
  184.9160  177.3430  137.6320 N   0  0  0  0  0  2  0  0  0  0  0  0
  184.5690  178.6230  138.2400 C   0  0  0  0  0  2  0  0  0  0  0  0
  183.5600  178.4420  139.2800 N   0  0  0  0  0  2  0  0  0  0  0  0
  182.9270  178.7820  142.9370 C   0  0  0  0  0  3  0  0  0  0  0  0
  185.0890  178.8920  141.1700 C   0  0  0  0  0  3  0  0  0  0  0  0
  183.7970  178.6500  140.6770 C   0  0  0  0  0  0  0  0  0  0  0  0
  184.2170  179.0260  143.4320 C   0  0  0  0  0  0  0  0  0  0  0  0
  182.7200  178.5940  141.5680 C   0  0  0  0  0  3  0  0  0  0  0  0
  185.2960  179.0790  142.5380 C   0  0  0  0  0  3  0  0  0  0  0  0
  183.4150  178.9470  145.7840 O   0  0  0  0  0  1  0  0  0  0  0  0
  184.4320  179.2270  144.8760 C   0  0  0  0  0  0  0  0  0  0  0  0
  185.5390  179.6530  145.3030 O   0  0  0  0  0  0  0  0  0  0  0  0
  2  1  1  0  0  0  0
  3  7  1  0  0  0  0
  4  8  1  0  0  0  0
  5  6  1  0  0  0  0
  5  4  1  0  0  0  0
  6  2  1  6  0  0  0
  6  3  1  0  0  0  0
  8  7  1  0  0  0  0
  8  9  1  0  0  0  0
  9 10  1  0  0  0  0
 10 13  1  0  0  0  0
 11 14  1  0  0  0  0
 13 12  2  0  0  0  0
 13 11  1  0  0  0  0
 15 17  1  0  0  0  0
 15 16  1  0  0  0  0
 16 14  1  6  0  0  0
 16 18  1  0  0  0  0
 17 20  1  0  0  0  0
 18 19  1  0  0  0  0
 20 19  1  0  0  0  0
 21 22  1  6  0  0  0
 21  1  1  0  0  0  0
 21 29  1  0  0  0  0
 23 22  1  1  0  0  0
 23 24  1  0  0  0  0
 25 28  1  0  0  0  0
 27 25  1  0  0  0  0
 27 23  1  0  0  0  0
 28 26  1  6  0  0  0
 28 24  1  0  0  0  0
 29 30  1  0  0  0  0
 30 31  1  0  0  0  0
 31 34  1  0  0  0  0
 32 35  1  0  0  0  0
 33 37  1  0  0  0  0
 34 33  2  0  0  0  0
 34 36  1  0  0  0  0
 35 39  1  0  0  0  0
 36 32  2  0  0  0  0
 37 35  2  0  0  0  0
 39 40  2  0  0  0  0
 39 38  1  0  0  0  0
M  END
>  <MODEL>
4

>  <REMARK>
 VINA RESULT:      -7.9      2.800      8.412
  Name = 
  14 active torsions:
  status: ('A' for Active; 'I' for Inactive)
    1  A    between atoms: N_1  and  C_21
    2  A    between atoms: N_1  and  C_25
    3  A    between atoms: C_3  and  N_12
    4  A    between atoms: C_3  and  N_38
    5  A    between atoms: C_4  and  C_7
    6  A    between atoms: C_4  and  N_17
    7  A    between atoms: C_6  and  C_9
    8  A    between atoms: C_6  and  C_25
    9  A    between atoms: C_14  and  C_31
   10  A    between atoms: N_16  and  C_23
   11  A    between atoms: N_16  and  C_36
   12  A    between atoms: C_21  and  C_22
   13  A    between atoms: C_25  and  N_34
   14  A    between atoms: N_34  and  C_36
                            x       y       z     vdW  Elec       q    Type
                         _______ _______ _______ _____ _____    ______ ____

>  <TORSDO>
F 14

$$$$
=
 OpenBabel11042413033D

 40 43  0  0  1  0  0  0  0  0999 V2000
  183.3460  177.1940  140.0980 N   0  0  0  0  0  2  0  0  0  0  0  0
  182.6140  177.1420  138.8450 C   0  0  0  0  0  2  0  0  0  0  0  0
  184.8950  177.5030  137.8760 C   0  0  0  0  0  2  0  0  0  0  0  0
  184.7600  174.9480  136.5650 C   0  0  0  0  0  2  0  0  0  0  0  0
  183.7560  175.2890  137.6630 C   0  0  0  0  0  2  0  0  0  0  0  0
  183.5500  176.7970  137.7030 C   0  0  1  0  0  3  0  0  0  0  0  0
  185.8580  177.0470  136.7790 C   0  0  0  0  0  2  0  0  0  0  0  0
  186.0460  175.5950  136.8390 N   0  0  0  0  0  0  0  0  0  0  0  0
  186.9290  175.2420  135.7400 C   0  0  0  0  0  2  0  0  0  0  0  0
  187.9310  174.2960  136.2030 N   0  0  0  0  0  2  0  0  0  0  0  0
  189.4030  176.1110  137.0210 N   0  0  0  0  0  2  0  0  0  0  0  0
  189.9080  173.8250  137.3770 N   0  0  0  0  0  2  0  0  0  0  0  0
  189.0930  174.7160  136.9130 C   0  0  0  0  0  0  0  0  0  0  0  0
  190.6280  176.6170  137.6270 C   0  0  0  0  0  2  0  0  0  0  0  0
  190.6390  176.3240  140.0490 N   0  0  0  0  0  2  0  0  0  0  0  0
  190.3380  177.2700  138.9720 C   0  0  2  0  0  3  0  0  0  0  0  0
  190.3750  176.9870  141.3260 C   0  0  0  0  0  2  0  0  0  0  0  0
  188.8720  177.7010  139.0470 C   0  0  0  0  0  2  0  0  0  0  0  0
  188.5820  178.2530  140.4420 C   0  0  0  0  0  2  0  0  0  0  0  0
  188.9440  177.2630  141.4550 N   0  0  0  0  0  2  0  0  0  0  0  0
  182.8910  178.3830  140.8040 C   0  0  2  0  0  3  0  0  0  0  0  0
  181.6820  178.9760  140.0960 C   0  0  0  0  0  2  0  0  0  0  0  0
  180.4670  179.0120  141.0140 C   0  0  2  0  0  3  0  0  0  0  0  0
  180.8710  179.3490  142.4260 C   0  0  0  0  0  2  0  0  0  0  0  0
  179.3070  177.5570  142.3520 N   0  0  0  0  0  2  0  0  0  0  0  0
  179.3340  178.9770  144.3230 C   0  0  0  0  0  1  0  0  0  0  0  0
  179.8500  177.6980  141.0630 N   0  0  0  0  0  2  0  0  0  0  0  0
  180.1700  178.3060  143.2530 C   0  0  2  0  0  3  0  0  0  0  0  0
  183.9650  179.3670  140.8260 N   0  0  0  0  0  2  0  0  0  0  0  0
  185.0370  178.8510  141.6700 C   0  0  0  0  0  2  0  0  0  0  0  0
  184.5810  178.7050  143.0490 N   0  0  0  0  0  2  0  0  0  0  0  0
  187.4220  177.2710  144.9900 C   0  0  0  0  0  3  0  0  0  0  0  0
  185.1830  178.8800  145.4410 C   0  0  0  0  0  3  0  0  0  0  0  0
  185.4390  178.3880  144.1510 C   0  0  0  0  0  0  0  0  0  0  0  0
  187.1670  177.7600  146.2800 C   0  0  0  0  0  0  0  0  0  0  0  0
  186.5630  177.5840  143.9330 C   0  0  0  0  0  3  0  0  0  0  0  0
  186.0410  178.5680  146.4970 C   0  0  0  0  0  3  0  0  0  0  0  0
  187.7490  177.7890  148.6970 O   0  0  0  0  0  1  0  0  0  0  0  0
  188.0730  177.4250  147.3930 C   0  0  0  0  0  0  0  0  0  0  0  0
  189.1480  176.8040  147.1750 O   0  0  0  0  0  0  0  0  0  0  0  0
  1 21  1  0  0  0  0
  2  1  1  0  0  0  0
  4  8  1  0  0  0  0
  4  5  1  0  0  0  0
  5  6  1  0  0  0  0
  6  3  1  0  0  0  0
  6  2  1  1  0  0  0
  7  8  1  0  0  0  0
  7  3  1  0  0  0  0
  9 10  1  0  0  0  0
  9  8  1  0  0  0  0
 10 13  1  0  0  0  0
 11 14  1  0  0  0  0
 13 11  1  0  0  0  0
 13 12  2  0  0  0  0
 15 17  1  0  0  0  0
 16 14  1  6  0  0  0
 16 18  1  0  0  0  0
 16 15  1  0  0  0  0
 17 20  1  0  0  0  0
 18 19  1  0  0  0  0
 19 20  1  0  0  0  0
 21 22  1  6  0  0  0
 21 29  1  0  0  0  0
 23 22  1  6  0  0  0
 23 27  1  0  0  0  0
 23 24  1  0  0  0  0
 24 28  1  0  0  0  0
 25 28  1  0  0  0  0
 27 25  1  0  0  0  0
 28 26  1  1  0  0  0
 29 30  1  0  0  0  0
 30 31  1  0  0  0  0
 31 34  1  0  0  0  0
 32 35  1  0  0  0  0
 33 37  1  0  0  0  0
 34 33  2  0  0  0  0
 35 37  2  0  0  0  0
 35 39  1  0  0  0  0
 36 34  1  0  0  0  0
 36 32  2  0  0  0  0
 39 38  1  0  0  0  0
 40 39  2  0  0  0  0
M  END
>  <MODEL>
5

>  <REMARK>
 VINA RESULT:      -7.9      2.007      4.343
  Name = 
  14 active torsions:
  status: ('A' for Active; 'I' for Inactive)
    1  A    between atoms: N_1  and  C_21
    2  A    between atoms: N_1  and  C_25
    3  A    between atoms: C_3  and  N_12
    4  A    between atoms: C_3  and  N_38
    5  A    between atoms: C_4  and  C_7
    6  A    between atoms: C_4  and  N_17
    7  A    between atoms: C_6  and  C_9
    8  A    between atoms: C_6  and  C_25
    9  A    between atoms: C_14  and  C_31
   10  A    between atoms: N_16  and  C_23
   11  A    between atoms: N_16  and  C_36
   12  A    between atoms: C_21  and  C_22
   13  A    between atoms: C_25  and  N_34
   14  A    between atoms: N_34  and  C_36
                            x       y       z     vdW  Elec       q    Type
                         _______ _______ _______ _____ _____    ______ ____

>  <TORSDO>
F 14

$$$$
=
 OpenBabel11042413033D

 40 43  0  0  1  0  0  0  0  0999 V2000
  185.6560  178.5910  142.7050 N   0  0  0  0  0  2  0  0  0  0  0  0
  186.8440  177.8860  143.1540 C   0  0  0  0  0  2  0  0  0  0  0  0
  187.9390  178.6680  141.0410 C   0  0  0  0  0  2  0  0  0  0  0  0
  189.9040  176.5830  141.2690 C   0  0  0  0  0  2  0  0  0  0  0  0
  189.0200  176.9220  142.4650 C   0  0  0  0  0  2  0  0  0  0  0  0
  187.6920  177.4750  141.9650 C   0  0  1  0  0  3  0  0  0  0  0  0
  188.8910  178.2560  139.9170 C   0  0  0  0  0  2  0  0  0  0  0  0
  190.1620  177.7870  140.4750 N   0  0  0  0  0  0  0  0  0  0  0  0
  190.9830  177.3720  139.3510 C   0  0  0  0  0  2  0  0  0  0  0  0
  190.5050  176.0990  138.8380 N   0  0  0  0  0  2  0  0  0  0  0  0
  192.4930  175.8290  137.3870 N   0  0  0  0  0  2  0  0  0  0  0  0
  190.8500  174.1370  137.5970 N   0  0  0  0  0  2  0  0  0  0  0  0
  191.2870  175.3010  137.9530 C   0  0  0  0  0  0  0  0  0  0  0  0
  193.2870  175.1250  136.3870 C   0  0  0  0  0  2  0  0  0  0  0  0
  194.7230  175.0760  138.3570 N   0  0  0  0  0  2  0  0  0  0  0  0
  194.5400  174.5270  137.0120 C   0  0  2  0  0  3  0  0  0  0  0  0
  195.9180  174.4650  138.9410 C   0  0  0  0  0  2  0  0  0  0  0  0
  195.7640  174.8350  136.1480 C   0  0  0  0  0  2  0  0  0  0  0  0
  197.0170  174.3180  136.8510 C   0  0  0  0  0  2  0  0  0  0  0  0
  197.1040  174.8850  138.1960 N   0  0  0  0  0  2  0  0  0  0  0  0
  184.6080  178.3130  143.6770 C   0  0  2  0  0  3  0  0  0  0  0  0
  183.2470  178.6350  143.0790 C   0  0  0  0  0  2  0  0  0  0  0  0
  183.2860  178.5880  141.5570 C   0  0  2  0  0  3  0  0  0  0  0  0
  182.0090  179.1280  140.9700 C   0  0  0  0  0  2  0  0  0  0  0  0
  182.7070  177.1270  139.8890 N   0  0  0  0  0  2  0  0  0  0  0  0
  181.4180  178.7350  138.6030 C   0  0  0  0  0  1  0  0  0  0  0  0
  183.3960  177.2090  141.1120 N   0  0  0  0  0  2  0  0  0  0  0  0
  181.6160  178.0870  139.9580 C   0  0  2  0  0  3  0  0  0  0  0  0
  184.8210  179.1360  144.8590 N   0  0  0  0  0  2  0  0  0  0  0  0
  184.8480  178.2600  146.0250 C   0  0  0  0  0  2  0  0  0  0  0  0
  185.8180  178.7380  147.0060 N   0  0  0  0  0  2  0  0  0  0  0  0
  189.0470  177.1320  146.0620 C   0  0  0  0  0  3  0  0  0  0  0  0
  187.9600  178.5300  148.2240 C   0  0  0  0  0  3  0  0  0  0  0  0
  187.1720  178.2790  147.0890 C   0  0  0  0  0  0  0  0  0  0  0  0
  189.8350  177.3800  147.1960 C   0  0  0  0  0  0  0  0  0  0  0  0
  187.7240  177.5800  146.0100 C   0  0  0  0  0  3  0  0  0  0  0  0
  189.2820  178.0840  148.2750 C   0  0  0  0  0  3  0  0  0  0  0  0
  191.7770  176.2130  146.1730 O   0  0  0  0  0  0  0  0  0  0  0  0
  191.2290  176.9040  147.2490 C   0  0  0  0  0  0  0  0  0  0  0  0
  191.9370  177.1180  148.2700 O   0  0  0  0  0  1  0  0  0  0  0  0
  1  2  1  0  0  0  0
  1 21  1  0  0  0  0
  3  6  1  0  0  0  0
  4  5  1  0  0  0  0
  6  5  1  0  0  0  0
  6  2  1  1  0  0  0
  7  8  1  0  0  0  0
  7  3  1  0  0  0  0
  8  4  1  0  0  0  0
  9  8  1  0  0  0  0
 10  9  1  0  0  0  0
 11 13  1  0  0  0  0
 12 13  2  0  0  0  0
 13 10  1  0  0  0  0
 14 11  1  0  0  0  0
 15 17  1  0  0  0  0
 16 14  1  6  0  0  0
 16 15  1  0  0  0  0
 18 19  1  0  0  0  0
 18 16  1  0  0  0  0
 19 20  1  0  0  0  0
 20 17  1  0  0  0  0
 21 22  1  6  0  0  0
 21 29  1  0  0  0  0
 23 22  1  1  0  0  0
 24 23  1  0  0  0  0
 25 28  1  0  0  0  0
 25 27  1  0  0  0  0
 27 23  1  0  0  0  0
 28 26  1  6  0  0  0
 28 24  1  0  0  0  0
 29 30  1  0  0  0  0
 30 31  1  0  0  0  0
 31 34  1  0  0  0  0
 32 35  1  0  0  0  0
 33 37  1  0  0  0  0
 34 33  2  0  0  0  0
 35 39  1  0  0  0  0
 35 37  2  0  0  0  0
 36 32  2  0  0  0  0
 36 34  1  0  0  0  0
 38 39  2  0  0  0  0
 39 40  1  0  0  0  0
M  END
>  <MODEL>
6

>  <REMARK>
 VINA RESULT:      -7.6      2.525      4.265
  Name = 
  14 active torsions:
  status: ('A' for Active; 'I' for Inactive)
    1  A    between atoms: N_1  and  C_21
    2  A    between atoms: N_1  and  C_25
    3  A    between atoms: C_3  and  N_12
    4  A    between atoms: C_3  and  N_38
    5  A    between atoms: C_4  and  C_7
    6  A    between atoms: C_4  and  N_17
    7  A    between atoms: C_6  and  C_9
    8  A    between atoms: C_6  and  C_25
    9  A    between atoms: C_14  and  C_31
   10  A    between atoms: N_16  and  C_23
   11  A    between atoms: N_16  and  C_36
   12  A    between atoms: C_21  and  C_22
   13  A    between atoms: C_25  and  N_34
   14  A    between atoms: N_34  and  C_36
                            x       y       z     vdW  Elec       q    Type
                         _______ _______ _______ _____ _____    ______ ____

>  <TORSDO>
F 14

$$$$
=
 OpenBabel11042413033D

 40 43  0  0  1  0  0  0  0  0999 V2000
  183.3720  178.1310  140.3060 N   0  0  0  0  0  2  0  0  0  0  0  0
  182.5570  178.2890  141.4980 C   0  0  0  0  0  2  0  0  0  0  0  0
  182.6890  178.6750  143.9690 C   0  0  0  0  0  2  0  0  0  0  0  0
  185.5570  178.7800  143.8160 C   0  0  0  0  0  2  0  0  0  0  0  0
  184.7570  178.2360  142.6360 C   0  0  0  0  0  2  0  0  0  0  0  0
  183.3800  178.8870  142.6220 C   0  0  1  0  0  3  0  0  0  0  0  0
  183.5920  179.1810  145.0940 C   0  0  0  0  0  2  0  0  0  0  0  0
  184.8740  178.4700  145.0740 N   0  0  0  0  0  0  0  0  0  0  0  0
  185.6840  179.0420  146.1360 C   0  0  0  0  0  2  0  0  0  0  0  0
  186.2370  177.9770  146.9570 N   0  0  0  0  0  2  0  0  0  0  0  0
  188.4850  178.2410  145.9530 N   0  0  0  0  0  2  0  0  0  0  0  0
  188.0770  176.7540  147.7490 N   0  0  0  0  0  2  0  0  0  0  0  0
  187.6240  177.6510  146.9350 C   0  0  0  0  0  0  0  0  0  0  0  0
  189.8860  177.8750  145.7890 C   0  0  0  0  0  2  0  0  0  0  0  0
  191.4770  177.5490  143.9690 N   0  0  0  0  0  2  0  0  0  0  0  0
  190.1230  177.2320  144.4290 C   0  0  2  0  0  3  0  0  0  0  0  0
  191.6830  176.8980  142.6740 C   0  0  0  0  0  2  0  0  0  0  0  0
  189.0930  177.7370  143.4160 C   0  0  0  0  0  2  0  0  0  0  0  0
  189.4190  177.1590  142.0400 C   0  0  0  0  0  2  0  0  0  0  0  0
  190.7950  177.4900  141.6740 N   0  0  0  0  0  2  0  0  0  0  0  0
  183.2950  179.3850  139.5720 C   0  0  2  0  0  3  0  0  0  0  0  0
  182.3570  179.2340  138.3830 C   0  0  0  0  0  2  0  0  0  0  0  0
  181.2850  180.3160  138.3840 C   0  0  2  0  0  3  0  0  0  0  0  0
  180.6290  180.4240  137.0320 C   0  0  0  0  0  2  0  0  0  0  0  0
  181.1400  182.5610  137.9450 N   0  0  0  0  0  2  0  0  0  0  0  0
  179.2510  182.3820  136.4270 C   0  0  0  0  0  1  0  0  0  0  0  0
  181.8930  181.6080  138.6530 N   0  0  0  0  0  2  0  0  0  0  0  0
  180.6520  181.9000  136.7450 C   0  0  2  0  0  3  0  0  0  0  0  0
  184.6240  179.7420  139.0940 N   0  0  0  0  0  2  0  0  0  0  0  0
  185.4270  178.5270  139.0330 C   0  0  0  0  0  2  0  0  0  0  0  0
  186.4350  178.6280  137.9820 N   0  0  0  0  0  2  0  0  0  0  0  0
  190.0590  177.8570  138.3890 C   0  0  0  0  0  3  0  0  0  0  0  0
  187.7190  176.5510  137.5950 C   0  0  0  0  0  3  0  0  0  0  0  0
  187.6690  177.9010  137.9760 C   0  0  0  0  0  0  0  0  0  0  0  0
  190.1110  176.5080  138.0060 C   0  0  0  0  0  0  0  0  0  0  0  0
  188.8440  178.5480  138.3740 C   0  0  0  0  0  3  0  0  0  0  0  0
  188.9320  175.8610  137.6110 C   0  0  0  0  0  3  0  0  0  0  0  0
  191.4340  174.4190  137.7480 O   0  0  0  0  0  0  0  0  0  0  0  0
  191.3940  175.7830  138.0200 C   0  0  0  0  0  0  0  0  0  0  0  0
  192.4680  176.3920  138.2770 O   0  0  0  0  0  1  0  0  0  0  0  0
  1  2  1  0  0  0  0
  3  7  1  0  0  0  0
  4  8  1  0  0  0  0
  5  4  1  0  0  0  0
  6  2  1  6  0  0  0
  6  5  1  0  0  0  0
  6  3  1  0  0  0  0
  8  7  1  0  0  0  0
  8  9  1  0  0  0  0
  9 10  1  0  0  0  0
 11 13  1  0  0  0  0
 13 10  1  0  0  0  0
 13 12  2  0  0  0  0
 14 11  1  0  0  0  0
 15 16  1  0  0  0  0
 16 14  1  1  0  0  0
 17 15  1  0  0  0  0
 18 16  1  0  0  0  0
 19 18  1  0  0  0  0
 20 19  1  0  0  0  0
 20 17  1  0  0  0  0
 21 22  1  6  0  0  0
 21  1  1  0  0  0  0
 23 22  1  6  0  0  0
 23 27  1  0  0  0  0
 24 23  1  0  0  0  0
 25 27  1  0  0  0  0
 28 26  1  1  0  0  0
 28 24  1  0  0  0  0
 28 25  1  0  0  0  0
 29 21  1  0  0  0  0
 30 29  1  0  0  0  0
 31 30  1  0  0  0  0
 33 37  2  0  0  0  0
 33 34  1  0  0  0  0
 34 31  1  0  0  0  0
 34 36  2  0  0  0  0
 35 39  1  0  0  0  0
 35 32  2  0  0  0  0
 36 32  1  0  0  0  0
 37 35  1  0  0  0  0
 38 39  2  0  0  0  0
 39 40  1  0  0  0  0
M  END
>  <MODEL>
7

>  <REMARK>
 VINA RESULT:      -7.6      3.473      7.593
  Name = 
  14 active torsions:
  status: ('A' for Active; 'I' for Inactive)
    1  A    between atoms: N_1  and  C_21
    2  A    between atoms: N_1  and  C_25
    3  A    between atoms: C_3  and  N_12
    4  A    between atoms: C_3  and  N_38
    5  A    between atoms: C_4  and  C_7
    6  A    between atoms: C_4  and  N_17
    7  A    between atoms: C_6  and  C_9
    8  A    between atoms: C_6  and  C_25
    9  A    between atoms: C_14  and  C_31
   10  A    between atoms: N_16  and  C_23
   11  A    between atoms: N_16  and  C_36
   12  A    between atoms: C_21  and  C_22
   13  A    between atoms: C_25  and  N_34
   14  A    between atoms: N_34  and  C_36
                            x       y       z     vdW  Elec       q    Type
                         _______ _______ _______ _____ _____    ______ ____

>  <TORSDO>
F 14

$$$$
=
 OpenBabel11042413033D

 40 43  0  0  1  0  0  0  0  0999 V2000
  184.3520  178.3330  140.8960 N   0  0  0  0  0  2  0  0  0  0  0  0
  185.3150  178.9790  141.7710 C   0  0  0  0  0  2  0  0  0  0  0  0
  186.7950  177.7670  143.3880 C   0  0  0  0  0  2  0  0  0  0  0  0
  185.0670  178.5180  145.5580 C   0  0  0  0  0  2  0  0  0  0  0  0
  184.9300  179.2140  144.2070 C   0  0  0  0  0  2  0  0  0  0  0  0
  185.3770  178.2620  143.1060 C   0  0  1  0  0  3  0  0  0  0  0  0
  186.8560  177.1540  144.7870 C   0  0  0  0  0  2  0  0  0  0  0  0
  186.4640  178.1450  145.7930 N   0  0  0  0  0  0  0  0  0  0  0  0
  186.5010  177.4700  147.0790 C   0  0  0  0  0  2  0  0  0  0  0  0
  187.4760  178.1170  147.9430 N   0  0  0  0  0  2  0  0  0  0  0  0
  189.3690  177.0080  146.7930 N   0  0  0  0  0  2  0  0  0  0  0  0
  189.7010  178.6320  148.4840 N   0  0  0  0  0  2  0  0  0  0  0  0
  188.8790  177.9650  147.7410 C   0  0  0  0  0  0  0  0  0  0  0  0
  190.7840  176.7100  146.6100 C   0  0  0  0  0  2  0  0  0  0  0  0
  190.4310  178.3670  144.8560 N   0  0  0  0  0  2  0  0  0  0  0  0
  191.2850  177.2560  145.2800 C   0  0  2  0  0  3  0  0  0  0  0  0
  190.9520  178.8860  143.5900 C   0  0  0  0  0  2  0  0  0  0  0  0
  191.2790  176.1540  144.2180 C   0  0  0  0  0  2  0  0  0  0  0  0
  191.6830  176.7530  142.8720 C   0  0  0  0  0  2  0  0  0  0  0  0
  190.8060  177.8750  142.5420 N   0  0  0  0  0  2  0  0  0  0  0  0
  183.6740  179.3910  140.1610 C   0  0  2  0  0  3  0  0  0  0  0  0
  182.3330  178.8880  139.6480 C   0  0  0  0  0  2  0  0  0  0  0  0
  181.7340  177.8530  140.5890 C   0  0  2  0  0  3  0  0  0  0  0  0
  181.0310  176.7660  139.8160 C   0  0  0  0  0  2  0  0  0  0  0  0
  179.7500  177.5000  141.6820 N   0  0  0  0  0  2  0  0  0  0  0  0
  179.4680  175.2080  140.9250 C   0  0  0  0  0  1  0  0  0  0  0  0
  180.7270  178.4790  141.4290 N   0  0  0  0  0  2  0  0  0  0  0  0
  179.7000  176.6460  140.5060 C   0  0  2  0  0  3  0  0  0  0  0  0
  184.5000  179.7960  139.0330 N   0  0  0  0  0  2  0  0  0  0  0  0
  185.0010  178.5920  138.3800 C   0  0  0  0  0  2  0  0  0  0  0  0
  186.2090  178.8860  137.6150 N   0  0  0  0  0  2  0  0  0  0  0  0
  189.1240  177.4140  139.4140 C   0  0  0  0  0  3  0  0  0  0  0  0
  188.3100  177.8820  136.7820 C   0  0  0  0  0  3  0  0  0  0  0  0
  187.4800  178.2670  137.8470 C   0  0  0  0  0  0  0  0  0  0  0  0
  189.9550  177.0310  138.3510 C   0  0  0  0  0  0  0  0  0  0  0  0
  187.8930  178.0280  139.1620 C   0  0  0  0  0  3  0  0  0  0  0  0
  189.5380  177.2690  137.0330 C   0  0  0  0  0  3  0  0  0  0  0  0
  192.2960  177.1160  139.1840 O   0  0  0  0  0  1  0  0  0  0  0  0
  191.2540  176.3870  138.6200 C   0  0  0  0  0  0  0  0  0  0  0  0
  191.4310  175.1710  138.3420 O   0  0  0  0  0  0  0  0  0  0  0  0
  1  2  1  0  0  0  0
  3  7  1  0  0  0  0
  4  8  1  0  0  0  0
  5  4  1  0  0  0  0
  6  2  1  6  0  0  0
  6  3  1  0  0  0  0
  6  5  1  0  0  0  0
  7  8  1  0  0  0  0
  8  9  1  0  0  0  0
  9 10  1  0  0  0  0
 11 13  1  0  0  0  0
 13 10  1  0  0  0  0
 13 12  2  0  0  0  0
 14 11  1  0  0  0  0
 15 16  1  0  0  0  0
 16 14  1  1  0  0  0
 17 15  1  0  0  0  0
 18 16  1  0  0  0  0
 19 18  1  0  0  0  0
 20 19  1  0  0  0  0
 20 17  1  0  0  0  0
 21 22  1  6  0  0  0
 21  1  1  0  0  0  0
 23 22  1  6  0  0  0
 23 27  1  0  0  0  0
 24 28  1  0  0  0  0
 24 23  1  0  0  0  0
 27 25  1  0  0  0  0
 28 26  1  1  0  0  0
 28 25  1  0  0  0  0
 29 21  1  0  0  0  0
 30 29  1  0  0  0  0
 31 34  1  0  0  0  0
 31 30  1  0  0  0  0
 33 37  2  0  0  0  0
 33 34  1  0  0  0  0
 34 36  2  0  0  0  0
 35 39  1  0  0  0  0
 35 32  2  0  0  0  0
 36 32  1  0  0  0  0
 37 35  1  0  0  0  0
 39 38  1  0  0  0  0
 40 39  2  0  0  0  0
M  END
>  <MODEL>
8

>  <REMARK>
 VINA RESULT:      -7.6      2.818      7.363
  Name = 
  14 active torsions:
  status: ('A' for Active; 'I' for Inactive)
    1  A    between atoms: N_1  and  C_21
    2  A    between atoms: N_1  and  C_25
    3  A    between atoms: C_3  and  N_12
    4  A    between atoms: C_3  and  N_38
    5  A    between atoms: C_4  and  C_7
    6  A    between atoms: C_4  and  N_17
    7  A    between atoms: C_6  and  C_9
    8  A    between atoms: C_6  and  C_25
    9  A    between atoms: C_14  and  C_31
   10  A    between atoms: N_16  and  C_23
   11  A    between atoms: N_16  and  C_36
   12  A    between atoms: C_21  and  C_22
   13  A    between atoms: C_25  and  N_34
   14  A    between atoms: N_34  and  C_36
                            x       y       z     vdW  Elec       q    Type
                         _______ _______ _______ _____ _____    ______ ____

>  <TORSDO>
F 14

$$$$
=
 OpenBabel11042413033D

 40 43  0  0  1  0  0  0  0  0999 V2000
  183.5970  177.9370  140.5760 N   0  0  0  0  0  2  0  0  0  0  0  0
  182.7030  178.3270  141.6520 C   0  0  0  0  0  2  0  0  0  0  0  0
  182.7780  178.6190  144.1380 C   0  0  0  0  0  2  0  0  0  0  0  0
  185.6470  178.7670  144.0510 C   0  0  0  0  0  2  0  0  0  0  0  0
  184.8790  178.2590  142.8340 C   0  0  0  0  0  2  0  0  0  0  0  0
  183.4940  178.8920  142.8160 C   0  0  1  0  0  3  0  0  0  0  0  0
  183.6500  179.0930  145.3010 C   0  0  0  0  0  2  0  0  0  0  0  0
  184.9410  178.4010  145.2810 N   0  0  0  0  0  0  0  0  0  0  0  0
  185.7220  178.9420  146.3820 C   0  0  0  0  0  2  0  0  0  0  0  0
  186.3800  177.8580  147.0930 N   0  0  0  0  0  2  0  0  0  0  0  0
  188.5160  178.2490  145.9030 N   0  0  0  0  0  2  0  0  0  0  0  0
  188.3220  176.6640  147.6510 N   0  0  0  0  0  2  0  0  0  0  0  0
  187.7690  177.5830  146.9290 C   0  0  0  0  0  0  0  0  0  0  0  0
  189.9070  177.9410  145.5940 C   0  0  0  0  0  2  0  0  0  0  0  0
  189.0550  176.9230  143.5480 N   0  0  0  0  0  2  0  0  0  0  0  0
  190.1060  177.7850  144.0920 C   0  0  2  0  0  3  0  0  0  0  0  0
  189.2580  176.8120  142.1030 C   0  0  0  0  0  2  0  0  0  0  0  0
  191.4820  177.1830  143.7990 C   0  0  0  0  0  2  0  0  0  0  0  0
  191.6130  176.9380  142.2970 C   0  0  0  0  0  2  0  0  0  0  0  0
  190.5070  176.1020  141.8300 N   0  0  0  0  0  2  0  0  0  0  0  0
  183.3220  178.8250  139.4560 C   0  0  2  0  0  3  0  0  0  0  0  0
  182.8700  178.0140  138.2500 C   0  0  0  0  0  2  0  0  0  0  0  0
  183.0180  176.5200  138.5020 C   0  0  2  0  0  3  0  0  0  0  0  0
  184.0210  175.9130  137.5560 C   0  0  0  0  0  2  0  0  0  0  0  0
  182.0660  174.5710  137.7600 N   0  0  0  0  0  2  0  0  0  0  0  0
  184.1670  173.4670  137.2370 C   0  0  0  0  0  1  0  0  0  0  0  0
  181.7530  175.8520  138.2480 N   0  0  0  0  0  2  0  0  0  0  0  0
  183.3120  174.7000  137.0190 C   0  0  2  0  0  3  0  0  0  0  0  0
  184.5350  179.5560  139.1160 N   0  0  0  0  0  2  0  0  0  0  0  0
  185.6780  178.6920  139.3880 C   0  0  0  0  0  2  0  0  0  0  0  0
  186.5640  178.6300  138.2290 N   0  0  0  0  0  2  0  0  0  0  0  0
  190.1620  177.7390  138.6210 C   0  0  0  0  0  3  0  0  0  0  0  0
  187.8030  176.5560  137.7030 C   0  0  0  0  0  3  0  0  0  0  0  0
  187.7800  177.8750  138.1840 C   0  0  0  0  0  0  0  0  0  0  0  0
  190.1870  176.4220  138.1390 C   0  0  0  0  0  0  0  0  0  0  0  0
  188.9640  178.4600  138.6430 C   0  0  0  0  0  3  0  0  0  0  0  0
  188.9990  175.8360  137.6810 C   0  0  0  0  0  3  0  0  0  0  0  0
  191.4420  174.2840  137.9450 O   0  0  0  0  0  0  0  0  0  0  0  0
  191.4520  175.6660  138.1140 C   0  0  0  0  0  0  0  0  0  0  0  0
  192.5540  176.2630  138.2440 O   0  0  0  0  0  1  0  0  0  0  0  0
  1  2  1  0  0  0  0
  3  7  1  0  0  0  0
  4  8  1  0  0  0  0
  5  4  1  0  0  0  0
  6  2  1  6  0  0  0
  6  5  1  0  0  0  0
  6  3  1  0  0  0  0
  8  7  1  0  0  0  0
  8  9  1  0  0  0  0
  9 10  1  0  0  0  0
 11 13  1  0  0  0  0
 13 10  1  0  0  0  0
 13 12  2  0  0  0  0
 14 11  1  0  0  0  0
 15 16  1  0  0  0  0
 16 14  1  1  0  0  0
 17 15  1  0  0  0  0
 18 16  1  0  0  0  0
 19 18  1  0  0  0  0
 20 17  1  0  0  0  0
 20 19  1  0  0  0  0
 21 22  1  6  0  0  0
 21  1  1  0  0  0  0
 23 22  1  6  0  0  0
 24 23  1  0  0  0  0
 25 27  1  0  0  0  0
 27 23  1  0  0  0  0
 28 26  1  1  0  0  0
 28 24  1  0  0  0  0
 28 25  1  0  0  0  0
 29 30  1  0  0  0  0
 29 21  1  0  0  0  0
 31 30  1  0  0  0  0
 32 36  1  0  0  0  0
 33 34  1  0  0  0  0
 34 31  1  0  0  0  0
 34 36  2  0  0  0  0
 35 32  2  0  0  0  0
 37 33  2  0  0  0  0
 37 35  1  0  0  0  0
 38 39  2  0  0  0  0
 39 35  1  0  0  0  0
 39 40  1  0  0  0  0
M  END
>  <MODEL>
9

>  <REMARK>
 VINA RESULT:      -7.6      2.981      7.579
  Name = 
  14 active torsions:
  status: ('A' for Active; 'I' for Inactive)
    1  A    between atoms: N_1  and  C_21
    2  A    between atoms: N_1  and  C_25
    3  A    between atoms: C_3  and  N_12
    4  A    between atoms: C_3  and  N_38
    5  A    between atoms: C_4  and  C_7
    6  A    between atoms: C_4  and  N_17
    7  A    between atoms: C_6  and  C_9
    8  A    between atoms: C_6  and  C_25
    9  A    between atoms: C_14  and  C_31
   10  A    between atoms: N_16  and  C_23
   11  A    between atoms: N_16  and  C_36
   12  A    between atoms: C_21  and  C_22
   13  A    between atoms: C_25  and  N_34
   14  A    between atoms: N_34  and  C_36
                            x       y       z     vdW  Elec       q    Type
                         _______ _______ _______ _____ _____    ______ ____

>  <TORSDO>
F 14

$$$$
