=
 OpenBabel11032419543D

 41 46  0  0  1  0  0  0  0  0999 V2000
  181.0900  177.4880  136.6830 O   0  0  0  0  0  0  0  0  0  0  0  0
  179.0760  178.2590  135.5380 N   0  0  0  0  0  1  0  0  0  0  0  0
  182.2860  177.7220  137.3860 C   0  0  0  0  0  0  0  0  0  0  0  0
  187.0040  176.5550  136.8260 C   0  0  0  0  0  3  0  0  0  0  0  0
  185.6390  176.2460  136.7850 C   0  0  0  0  0  0  0  0  0  0  0  0
  180.3900  179.7400  136.8650 C   0  0  0  0  0  3  0  0  0  0  0  0
  187.4790  177.5960  137.6080 C   0  0  0  0  0  3  0  0  0  0  0  0
  184.7090  177.0210  137.5520 C   0  0  0  0  0  0  0  0  0  0  0  0
  181.5190  180.0040  137.7720 C   0  0  0  0  0  0  0  0  0  0  0  0
  183.2360  179.1990  139.2600 C   0  0  0  0  0  3  0  0  0  0  0  0
  184.4340  178.6790  139.4960 C   0  0  0  0  0  0  0  0  0  0  0  0
  182.8980  175.4870  136.6970 C   0  0  0  0  0  0  0  0  0  0  0  0
  180.1950  178.5180  136.3770 C   0  0  0  0  0  0  0  0  0  0  0  0
  183.2430  176.7630  137.3510 C   0  0  0  0  0  0  0  0  0  0  0  0
  186.6000  178.2960  138.4190 C   0  0  0  0  0  3  0  0  0  0  0  0
  183.7690  174.9920  135.6050 C   0  0  0  0  0  2  0  0  0  0  0  0
  181.5570  181.5800  138.5590 Cl  0  0  0  0  0  0  0  0  0  0  0  0
  182.4220  179.0420  138.0560 C   0  0  0  0  0  0  0  0  0  0  0  0
  181.8560  174.8490  137.0100 O   0  0  0  0  0  0  0  0  0  0  0  0
  185.2290  178.0000  138.4450 C   0  0  0  0  0  0  0  0  0  0  0  0
  185.2160  174.9710  136.0640 C   0  0  1  0  0  3  0  0  0  0  0  0
  184.5460  178.1250  141.9600 N   0  0  0  0  0  2  0  0  0  0  0  0
  185.0140  178.9000  140.8450 C   0  0  0  0  0  0  0  0  0  0  0  0
  185.8900  179.7930  141.0150 O   0  0  0  0  0  0  0  0  0  0  0  0
  184.8300  178.8110  145.6420 C   0  0  0  0  0  3  0  0  0  0  0  0
  186.7980  177.6220  144.8870 C   0  0  0  0  0  3  0  0  0  0  0  0
  186.2810  177.5930  143.5870 C   0  0  0  0  0  3  0  0  0  0  0  0
  186.0690  178.2250  145.9160 C   0  0  0  0  0  0  0  0  0  0  0  0
  185.0370  178.1680  143.3070 C   0  0  0  0  0  0  0  0  0  0  0  0
  184.3150  178.7810  144.3430 C   0  0  0  0  0  3  0  0  0  0  0  0
  186.6280  178.2780  147.2940 C   0  0  0  0  0  2  0  0  0  0  0  0
  187.7920  177.5110  147.3600 O   0  0  0  0  0  0  0  0  0  0  0  0
  188.5320  178.0890  148.3920 C   0  0  0  0  0  1  0  0  0  0  0  0
  186.0910  174.6310  134.8640 C   0  0  0  0  0  2  0  0  0  0  0  0
  186.5830  173.1970  134.9700 C   0  0  0  0  0  2  0  0  0  0  0  0
  187.9770  173.1640  135.5690 C   0  0  0  0  0  2  0  0  0  0  0  0
  190.0300  174.5470  135.5570 C   0  0  2  0  0  3  0  0  0  0  0  0
  188.8820  173.9980  134.7810 N   0  0  0  0  0  0  0  0  0  0  0  0
  190.1860  173.3170  134.7910 C   0  0  0  0  0  2  0  0  0  0  0  0
  190.6670  175.3760  137.8150 C   0  0  0  0  0  1  0  0  0  0  0  0
  190.0160  174.2390  137.0550 C   0  0  0  0  0  2  0  0  0  0  0  0
  1  3  1  0  0  0  0
  2 13  1  0  0  0  0
  3 18  1  0  0  0  0
  4  7  1  0  0  0  0
  5  4  2  0  0  0  0
  5  8  1  0  0  0  0
  6  9  1  0  0  0  0
  7 15  2  0  0  0  0
  8 20  2  0  0  0  0
  9 18  2  0  0  0  0
  9 17  1  0  0  0  0
 10 11  2  0  0  0  0
 11 23  1  0  0  0  0
 12 19  2  0  0  0  0
 12 14  1  0  0  0  0
 13  1  1  0  0  0  0
 13  6  2  0  0  0  0
 14  3  2  0  0  0  0
 14  8  1  0  0  0  0
 15 20  1  0  0  0  0
 16 21  1  0  0  0  0
 16 12  1  0  0  0  0
 18 10  1  0  0  0  0
 20 11  1  0  0  0  0
 21 34  1  6  0  0  0
 21  5  1  0  0  0  0
 22 29  1  0  0  0  0
 23 24  2  0  0  0  0
 23 22  1  0  0  0  0
 25 28  1  0  0  0  0
 26 28  2  0  0  0  0
 27 26  1  0  0  0  0
 28 31  1  0  0  0  0
 29 27  2  0  0  0  0
 29 30  1  0  0  0  0
 30 25  2  0  0  0  0
 31 32  1  0  0  0  0
 32 33  1  0  0  0  0
 34 35  1  0  0  0  0
 35 36  1  0  0  0  0
 37 41  1  1  0  0  0
 38 39  1  0  0  0  0
 38 37  1  0  0  0  0
 38 36  1  0  0  0  0
 39 37  1  0  0  0  0
 41 40  1  0  0  0  0
M  END
>  <MODEL>
1

>  <REMARK>
 VINA RESULT:      -7.4      0.000      0.000
  Name = 
  9 active torsions:
  status: ('A' for Active; 'I' for Inactive)
    1  A    between atoms: C_5  and  C_23
    2  A    between atoms: C_5  and  C_37
    3  A    between atoms: N_7  and  C_30
    4  A    between atoms: C_11  and  C_38
    5  A    between atoms: C_17  and  C_34
    6  A    between atoms: O_18  and  C_39
    7  A    between atoms: N_21  and  C_23
    8  A    between atoms: C_28  and  C_39
    9  A    between atoms: C_37  and  C_40
                            x       y       z     vdW  Elec       q    Type
                         _______ _______ _______ _____ _____    ______ ____

>  <TORSDO>
F 9

$$$$
=
 OpenBabel11032419543D

 41 46  0  0  1  0  0  0  0  0999 V2000
  187.2080  174.7860  136.0260 O   0  0  0  0  0  0  0  0  0  0  0  0
  185.2540  175.0920  134.5950 N   0  0  0  0  0  1  0  0  0  0  0  0
  188.2120  175.2780  136.8780 C   0  0  0  0  0  0  0  0  0  0  0  0
  193.1030  175.1880  137.0020 C   0  0  0  0  0  3  0  0  0  0  0  0
  191.8580  174.5840  136.7850 C   0  0  0  0  0  0  0  0  0  0  0  0
  186.0120  176.8270  136.0430 C   0  0  0  0  0  3  0  0  0  0  0  0
  193.2240  176.3070  137.8090 C   0  0  0  0  0  3  0  0  0  0  0  0
  190.6830  175.1330  137.3940 C   0  0  0  0  0  0  0  0  0  0  0  0
  186.9170  177.3340  137.0870 C   0  0  0  0  0  0  0  0  0  0  0  0
  188.5430  176.9280  138.8190 C   0  0  0  0  0  3  0  0  0  0  0  0
  189.7810  176.6870  139.2310 C   0  0  0  0  0  0  0  0  0  0  0  0
  189.3910  173.2350  136.3470 C   0  0  0  0  0  0  0  0  0  0  0  0
  186.1600  175.5920  135.5700 C   0  0  0  0  0  0  0  0  0  0  0  0
  189.3520  174.5560  137.0030 C   0  0  0  0  0  0  0  0  0  0  0  0
  192.1080  176.7950  138.4710 C   0  0  0  0  0  3  0  0  0  0  0  0
  190.4930  172.9470  135.3990 C   0  0  0  0  0  2  0  0  0  0  0  0
  186.4970  178.8780  137.8240 Cl  0  0  0  0  0  0  0  0  0  0  0  0
  187.9600  176.5950  137.5190 C   0  0  0  0  0  0  0  0  0  0  0  0
  188.4810  172.3830  136.5350 O   0  0  0  0  0  0  0  0  0  0  0  0
  190.8450  176.2020  138.3190 C   0  0  0  0  0  0  0  0  0  0  0  0
  191.8300  173.2470  136.0510 C   0  0  1  0  0  3  0  0  0  0  0  0
  189.2720  176.5440  141.7030 N   0  0  0  0  0  2  0  0  0  0  0  0
  190.1050  177.0300  140.6400 C   0  0  0  0  0  0  0  0  0  0  0  0
  191.0900  177.7790  140.8950 O   0  0  0  0  0  0  0  0  0  0  0  0
  190.9020  176.8020  145.0770 C   0  0  0  0  0  3  0  0  0  0  0  0
  188.5230  177.1860  145.2970 C   0  0  0  0  0  3  0  0  0  0  0  0
  188.3660  177.0070  143.9180 C   0  0  0  0  0  3  0  0  0  0  0  0
  189.7910  177.0910  145.8760 C   0  0  0  0  0  0  0  0  0  0  0  0
  189.4750  176.7290  143.1110 C   0  0  0  0  0  0  0  0  0  0  0  0
  190.7450  176.6240  143.7000 C   0  0  0  0  0  3  0  0  0  0  0  0
  189.9550  177.2570  147.3450 C   0  0  0  0  0  2  0  0  0  0  0  0
  188.7110  177.1720  147.9710 O   0  0  0  0  0  0  0  0  0  0  0  0
  188.7020  178.2330  148.8770 C   0  0  0  0  0  1  0  0  0  0  0  0
  192.9180  173.1100  134.9930 C   0  0  0  0  0  2  0  0  0  0  0  0
  193.6620  171.7980  135.1800 C   0  0  0  0  0  2  0  0  0  0  0  0
  194.4520  171.8230  136.4750 C   0  0  0  0  0  2  0  0  0  0  0  0
  196.4380  172.9820  137.3920 C   0  0  2  0  0  3  0  0  0  0  0  0
  195.8110  172.2990  136.2250 N   0  0  0  0  0  0  0  0  0  0  0  0
  196.6830  171.5650  137.1540 C   0  0  0  0  0  2  0  0  0  0  0  0
  195.9500  174.4030  139.3750 C   0  0  0  0  0  1  0  0  0  0  0  0
  195.5310  173.1640  138.6100 C   0  0  0  0  0  2  0  0  0  0  0  0
  1  3  1  0  0  0  0
  2 13  1  0  0  0  0
  3 14  2  0  0  0  0
  3 18  1  0  0  0  0
  4  7  1  0  0  0  0
  5  4  2  0  0  0  0
  5  8  1  0  0  0  0
  6  9  1  0  0  0  0
  7 15  2  0  0  0  0
  8 20  2  0  0  0  0
  9 18  2  0  0  0  0
  9 17  1  0  0  0  0
 10 11  2  0  0  0  0
 11 23  1  0  0  0  0
 12 19  2  0  0  0  0
 12 14  1  0  0  0  0
 13  1  1  0  0  0  0
 13  6  2  0  0  0  0
 14  8  1  0  0  0  0
 16 21  1  0  0  0  0
 16 12  1  0  0  0  0
 18 10  1  0  0  0  0
 20 15  1  0  0  0  0
 20 11  1  0  0  0  0
 21 34  1  6  0  0  0
 21  5  1  0  0  0  0
 22 29  1  0  0  0  0
 23 24  2  0  0  0  0
 23 22  1  0  0  0  0
 25 28  1  0  0  0  0
 26 28  2  0  0  0  0
 27 26  1  0  0  0  0
 28 31  1  0  0  0  0
 29 30  1  0  0  0  0
 29 27  2  0  0  0  0
 30 25  2  0  0  0  0
 31 32  1  0  0  0  0
 32 33  1  0  0  0  0
 34 35  1  0  0  0  0
 35 36  1  0  0  0  0
 37 41  1  1  0  0  0
 38 36  1  0  0  0  0
 38 39  1  0  0  0  0
 38 37  1  0  0  0  0
 39 37  1  0  0  0  0
 41 40  1  0  0  0  0
M  END
>  <MODEL>
2

>  <REMARK>
 VINA RESULT:      -7.1      3.702      5.936
  Name = 
  9 active torsions:
  status: ('A' for Active; 'I' for Inactive)
    1  A    between atoms: C_5  and  C_23
    2  A    between atoms: C_5  and  C_37
    3  A    between atoms: N_7  and  C_30
    4  A    between atoms: C_11  and  C_38
    5  A    between atoms: C_17  and  C_34
    6  A    between atoms: O_18  and  C_39
    7  A    between atoms: N_21  and  C_23
    8  A    between atoms: C_28  and  C_39
    9  A    between atoms: C_37  and  C_40
                            x       y       z     vdW  Elec       q    Type
                         _______ _______ _______ _____ _____    ______ ____

>  <TORSDO>
F 9

$$$$
=
 OpenBabel11032419543D

 41 46  0  0  1  0  0  0  0  0999 V2000
  183.2950  176.5780  136.5290 O   0  0  0  0  0  0  0  0  0  0  0  0
  181.1550  176.7950  135.3740 N   0  0  0  0  0  1  0  0  0  0  0  0
  184.3310  177.0900  137.3310 C   0  0  0  0  0  0  0  0  0  0  0  0
  189.1730  177.6520  136.9190 C   0  0  0  0  0  3  0  0  0  0  0  0
  187.9930  176.9170  136.7520 C   0  0  0  0  0  0  0  0  0  0  0  0
  181.8730  178.4170  136.9650 C   0  0  0  0  0  3  0  0  0  0  0  0
  189.2580  178.6650  137.8600 C   0  0  0  0  0  3  0  0  0  0  0  0
  186.8460  177.2180  137.5540 C   0  0  0  0  0  0  0  0  0  0  0  0
  182.8330  178.9060  137.9680 C   0  0  0  0  0  0  0  0  0  0  0  0
  184.6990  178.5080  139.4410 C   0  0  0  0  0  3  0  0  0  0  0  0
  185.9990  178.3870  139.6810 C   0  0  0  0  0  0  0  0  0  0  0  0
  185.6720  175.3110  136.3910 C   0  0  0  0  0  0  0  0  0  0  0  0
  182.1090  177.2860  136.3080 C   0  0  0  0  0  0  0  0  0  0  0  0
  185.5560  176.5190  137.2290 C   0  0  0  0  0  0  0  0  0  0  0  0
  188.1820  178.9070  138.7000 C   0  0  0  0  0  3  0  0  0  0  0  0
  186.6740  175.3000  135.3000 C   0  0  0  0  0  2  0  0  0  0  0  0
  182.3250  180.2710  138.9590 Cl  0  0  0  0  0  0  0  0  0  0  0  0
  184.0030  178.2670  138.1770 C   0  0  0  0  0  0  0  0  0  0  0  0
  184.9020  174.3260  136.5510 O   0  0  0  0  0  0  0  0  0  0  0  0
  186.9910  178.1720  138.6010 C   0  0  0  0  0  0  0  0  0  0  0  0
  188.0360  175.6940  135.8410 C   0  0  1  0  0  3  0  0  0  0  0  0
  187.2490  177.5830  141.7250 N   0  0  0  0  0  2  0  0  0  0  0  0
  186.4510  178.5880  141.0810 C   0  0  0  0  0  0  0  0  0  0  0  0
  186.1010  179.6240  141.7130 O   0  0  0  0  0  0  0  0  0  0  0  0
  189.6910  177.9800  144.5520 C   0  0  0  0  0  3  0  0  0  0  0  0
  187.5080  177.4290  145.4400 C   0  0  0  0  0  3  0  0  0  0  0  0
  186.9900  177.3870  144.1410 C   0  0  0  0  0  3  0  0  0  0  0  0
  188.8560  177.7330  145.6460 C   0  0  0  0  0  0  0  0  0  0  0  0
  187.8160  177.6440  143.0410 C   0  0  0  0  0  0  0  0  0  0  0  0
  189.1710  177.9380  143.2540 C   0  0  0  0  0  3  0  0  0  0  0  0
  189.4140  177.7540  147.0260 C   0  0  0  0  0  2  0  0  0  0  0  0
  189.9440  176.5020  147.3390 O   0  0  0  0  0  0  0  0  0  0  0  0
  191.3180  176.7210  147.4450 C   0  0  0  0  0  1  0  0  0  0  0  0
  188.9920  175.8430  134.6650 C   0  0  0  0  0  2  0  0  0  0  0  0
  190.0270  174.7300  134.6920 C   0  0  0  0  0  2  0  0  0  0  0  0
  191.3570  175.2630  135.1920 C   0  0  0  0  0  2  0  0  0  0  0  0
  192.3550  174.3560  137.2680 C   0  0  2  0  0  3  0  0  0  0  0  0
  192.1310  174.1840  135.8050 N   0  0  0  0  0  0  0  0  0  0  0  0
  191.2420  173.5470  136.7890 C   0  0  0  0  0  2  0  0  0  0  0  0
  193.0080  176.5210  138.3060 C   0  0  0  0  0  1  0  0  0  0  0  0
  191.8380  175.6670  137.8610 C   0  0  0  0  0  2  0  0  0  0  0  0
  1  3  1  0  0  0  0
  2 13  1  0  0  0  0
  3 18  1  0  0  0  0
  4  7  1  0  0  0  0
  5  4  2  0  0  0  0
  5  8  1  0  0  0  0
  6  9  1  0  0  0  0
  7 15  2  0  0  0  0
  8 20  2  0  0  0  0
  9 18  2  0  0  0  0
  9 17  1  0  0  0  0
 10 11  2  0  0  0  0
 11 23  1  0  0  0  0
 12 19  2  0  0  0  0
 12 14  1  0  0  0  0
 13  1  1  0  0  0  0
 13  6  2  0  0  0  0
 14  3  2  0  0  0  0
 14  8  1  0  0  0  0
 16 21  1  0  0  0  0
 16 12  1  0  0  0  0
 18 10  1  0  0  0  0
 20 15  1  0  0  0  0
 20 11  1  0  0  0  0
 21 34  1  6  0  0  0
 21  5  1  0  0  0  0
 22 29  1  0  0  0  0
 23 24  2  0  0  0  0
 23 22  1  0  0  0  0
 25 28  1  0  0  0  0
 26 28  2  0  0  0  0
 27 26  1  0  0  0  0
 28 31  1  0  0  0  0
 29 30  1  0  0  0  0
 29 27  2  0  0  0  0
 30 25  2  0  0  0  0
 31 32  1  0  0  0  0
 32 33  1  0  0  0  0
 34 35  1  0  0  0  0
 35 36  1  0  0  0  0
 36 38  1  0  0  0  0
 37 41  1  6  0  0  0
 38 39  1  0  0  0  0
 38 37  1  0  0  0  0
 39 37  1  0  0  0  0
 41 40  1  0  0  0  0
M  END
>  <MODEL>
3

>  <REMARK>
 VINA RESULT:      -7.0      1.820      2.654
  Name = 
  9 active torsions:
  status: ('A' for Active; 'I' for Inactive)
    1  A    between atoms: C_5  and  C_23
    2  A    between atoms: C_5  and  C_37
    3  A    between atoms: N_7  and  C_30
    4  A    between atoms: C_11  and  C_38
    5  A    between atoms: C_17  and  C_34
    6  A    between atoms: O_18  and  C_39
    7  A    between atoms: N_21  and  C_23
    8  A    between atoms: C_28  and  C_39
    9  A    between atoms: C_37  and  C_40
                            x       y       z     vdW  Elec       q    Type
                         _______ _______ _______ _____ _____    ______ ____

>  <TORSDO>
F 9

$$$$
=
 OpenBabel11032419543D

 41 46  0  0  1  0  0  0  0  0999 V2000
  182.6480  178.1110  140.5370 O   0  0  0  0  0  0  0  0  0  0  0  0
  180.3990  179.0070  140.8540 N   0  0  0  0  0  1  0  0  0  0  0  0
  184.0140  178.0390  140.8630 C   0  0  0  0  0  0  0  0  0  0  0  0
  188.2530  178.6250  138.4920 C   0  0  0  0  0  3  0  0  0  0  0  0
  186.9390  178.1500  138.5800 C   0  0  0  0  0  0  0  0  0  0  0  0
  182.1220  179.3900  142.4550 C   0  0  0  0  0  3  0  0  0  0  0  0
  188.9910  178.9030  139.6310 C   0  0  0  0  0  3  0  0  0  0  0  0
  186.3350  177.9560  139.8650 C   0  0  0  0  0  0  0  0  0  0  0  0
  183.4920  179.1840  142.9520 C   0  0  0  0  0  0  0  0  0  0  0  0
  185.5700  177.9640  142.9060 C   0  0  0  0  0  3  0  0  0  0  0  0
  186.7610  177.6960  142.3860 C   0  0  0  0  0  0  0  0  0  0  0  0
  184.2930  177.1040  138.6520 C   0  0  0  0  0  0  0  0  0  0  0  0
  181.7380  178.8430  141.3060 C   0  0  0  0  0  0  0  0  0  0  0  0
  184.8750  177.6060  139.9110 C   0  0  0  0  0  0  0  0  0  0  0  0
  188.4470  178.6380  140.8780 C   0  0  0  0  0  3  0  0  0  0  0  0
  184.7450  177.7040  137.3740 C   0  0  0  0  0  2  0  0  0  0  0  0
  183.8370  179.7350  144.5900 Cl  0  0  0  0  0  0  0  0  0  0  0  0
  184.4040  178.5160  142.2160 C   0  0  0  0  0  0  0  0  0  0  0  0
  183.3880  176.2260  138.6500 O   0  0  0  0  0  0  0  0  0  0  0  0
  187.1490  178.1240  141.0200 C   0  0  0  0  0  0  0  0  0  0  0  0
  186.2610  177.6800  137.2970 C   0  0  1  0  0  3  0  0  0  0  0  0
  188.5010  177.8230  144.2150 N   0  0  0  0  0  2  0  0  0  0  0  0
  187.7550  177.0380  143.2720 C   0  0  0  0  0  0  0  0  0  0  0  0
  187.9680  175.7980  143.1660 O   0  0  0  0  0  0  0  0  0  0  0  0
  190.0720  176.7300  147.4470 C   0  0  0  0  0  3  0  0  0  0  0  0
  191.6960  176.5610  145.6610 C   0  0  0  0  0  3  0  0  0  0  0  0
  190.7420  177.0250  144.7490 C   0  0  0  0  0  3  0  0  0  0  0  0
  191.3600  176.4060  147.0090 C   0  0  0  0  0  0  0  0  0  0  0  0
  189.4480  177.3410  145.1790 C   0  0  0  0  0  0  0  0  0  0  0  0
  189.1200  177.1940  146.5350 C   0  0  0  0  0  3  0  0  0  0  0  0
  192.3810  175.9360  147.9830 C   0  0  0  0  0  2  0  0  0  0  0  0
  192.7920  177.0000  148.7860 O   0  0  0  0  0  0  0  0  0  0  0  0
  193.6110  176.4130  149.7510 C   0  0  0  0  0  1  0  0  0  0  0  0
  186.6880  178.4610  136.0610 C   0  0  0  0  0  2  0  0  0  0  0  0
  186.8910  177.5120  134.8910 C   0  0  0  0  0  2  0  0  0  0  0  0
  187.9140  176.4500  135.2480 C   0  0  0  0  0  2  0  0  0  0  0  0
  190.1330  176.4120  136.3450 C   0  0  2  0  0  3  0  0  0  0  0  0
  189.2470  177.0430  135.3260 N   0  0  0  0  0  0  0  0  0  0  0  0
  190.1940  175.9800  134.9550 C   0  0  0  0  0  2  0  0  0  0  0  0
  190.2420  174.0320  137.0630 C   0  0  0  0  0  1  0  0  0  0  0  0
  189.4760  175.3320  137.2060 C   0  0  0  0  0  2  0  0  0  0  0  0
  1  3  1  0  0  0  0
  1 13  1  0  0  0  0
  2 13  1  0  0  0  0
  3 18  1  0  0  0  0
  4  5  2  0  0  0  0
  4  7  1  0  0  0  0
  5  8  1  0  0  0  0
  6  9  1  0  0  0  0
  7 15  2  0  0  0  0
  8 14  1  0  0  0  0
  8 20  2  0  0  0  0
  9 17  1  0  0  0  0
 11 10  2  0  0  0  0
 11 23  1  0  0  0  0
 12 14  1  0  0  0  0
 13  6  2  0  0  0  0
 14  3  2  0  0  0  0
 15 20  1  0  0  0  0
 16 12  1  0  0  0  0
 18 10  1  0  0  0  0
 18  9  2  0  0  0  0
 19 12  2  0  0  0  0
 20 11  1  0  0  0  0
 21 34  1  6  0  0  0
 21 16  1  0  0  0  0
 21  5  1  0  0  0  0
 22 29  1  0  0  0  0
 23 22  1  0  0  0  0
 24 23  2  0  0  0  0
 26 28  2  0  0  0  0
 27 29  2  0  0  0  0
 27 26  1  0  0  0  0
 28 25  1  0  0  0  0
 28 31  1  0  0  0  0
 29 30  1  0  0  0  0
 30 25  2  0  0  0  0
 31 32  1  0  0  0  0
 32 33  1  0  0  0  0
 35 36  1  0  0  0  0
 35 34  1  0  0  0  0
 36 38  1  0  0  0  0
 37 41  1  1  0  0  0
 38 37  1  0  0  0  0
 39 38  1  0  0  0  0
 39 37  1  0  0  0  0
 40 41  1  0  0  0  0
M  END
>  <MODEL>
4

>  <REMARK>
 VINA RESULT:      -6.9      2.948      4.298
  Name = 
  9 active torsions:
  status: ('A' for Active; 'I' for Inactive)
    1  A    between atoms: C_5  and  C_23
    2  A    between atoms: C_5  and  C_37
    3  A    between atoms: N_7  and  C_30
    4  A    between atoms: C_11  and  C_38
    5  A    between atoms: C_17  and  C_34
    6  A    between atoms: O_18  and  C_39
    7  A    between atoms: N_21  and  C_23
    8  A    between atoms: C_28  and  C_39
    9  A    between atoms: C_37  and  C_40
                            x       y       z     vdW  Elec       q    Type
                         _______ _______ _______ _____ _____    ______ ____

>  <TORSDO>
F 9

$$$$
=
 OpenBabel11032419543D

 41 46  0  0  1  0  0  0  0  0999 V2000
  184.4180  174.3530  135.9790 O   0  0  0  0  0  0  0  0  0  0  0  0
  182.8660  172.4840  135.7290 N   0  0  0  0  0  1  0  0  0  0  0  0
  185.6720  174.8880  136.3220 C   0  0  0  0  0  0  0  0  0  0  0  0
  187.3340  178.3220  139.3840 C   0  0  0  0  0  3  0  0  0  0  0  0
  186.4150  177.8430  138.4430 C   0  0  0  0  0  0  0  0  0  0  0  0
  185.1930  172.1210  136.0910 C   0  0  0  0  0  3  0  0  0  0  0  0
  188.6190  177.8080  139.4570 C   0  0  0  0  0  3  0  0  0  0  0  0
  186.7960  176.7930  137.5450 C   0  0  0  0  0  0  0  0  0  0  0  0
  186.5680  172.6200  136.2580 C   0  0  0  0  0  0  0  0  0  0  0  0
  188.1810  174.4010  136.0640 C   0  0  0  0  0  3  0  0  0  0  0  0
  188.7650  175.5070  136.5080 C   0  0  0  0  0  0  0  0  0  0  0  0
  184.5020  176.9940  136.5150 C   0  0  0  0  0  0  0  0  0  0  0  0
  184.1850  172.9740  135.9350 C   0  0  0  0  0  0  0  0  0  0  0  0
  185.7330  176.1970  136.6670 C   0  0  0  0  0  0  0  0  0  0  0  0
  189.0240  176.8540  138.5370 C   0  0  0  0  0  3  0  0  0  0  0  0
  183.9890  177.7370  137.6900 C   0  0  0  0  0  2  0  0  0  0  0  0
  187.8610  171.4250  136.2100 Cl  0  0  0  0  0  0  0  0  0  0  0  0
  186.8200  173.9440  136.3420 C   0  0  0  0  0  0  0  0  0  0  0  0
  183.8570  177.0060  135.4310 O   0  0  0  0  0  0  0  0  0  0  0  0
  188.1550  176.3680  137.5490 C   0  0  0  0  0  0  0  0  0  0  0  0
  185.0940  178.5890  138.2890 C   0  0  1  0  0  3  0  0  0  0  0  0
  191.2620  175.1140  136.5450 N   0  0  0  0  0  2  0  0  0  0  0  0
  190.1280  175.8050  135.9980 C   0  0  0  0  0  0  0  0  0  0  0  0
  190.2890  176.6910  135.1130 O   0  0  0  0  0  0  0  0  0  0  0  0
  194.6050  174.3930  134.9920 C   0  0  0  0  0  3  0  0  0  0  0  0
  194.6850  176.5280  136.1270 C   0  0  0  0  0  3  0  0  0  0  0  0
  193.3470  176.3770  136.5070 C   0  0  0  0  0  3  0  0  0  0  0  0
  195.3120  175.5400  135.3640 C   0  0  0  0  0  0  0  0  0  0  0  0
  192.6290  175.2360  136.1290 C   0  0  0  0  0  0  0  0  0  0  0  0
  193.2670  174.2430  135.3710 C   0  0  0  0  0  3  0  0  0  0  0  0
  196.7420  175.6890  134.9800 C   0  0  0  0  0  2  0  0  0  0  0  0
  197.5080  175.9590  136.1140 O   0  0  0  0  0  0  0  0  0  0  0  0
  198.1790  174.7640  136.3760 C   0  0  0  0  0  1  0  0  0  0  0  0
  184.5790  179.1910  139.5900 C   0  0  0  0  0  2  0  0  0  0  0  0
  183.6110  178.2310  140.2600 C   0  0  0  0  0  2  0  0  0  0  0  0
  184.0220  177.9930  141.7020 C   0  0  0  0  0  2  0  0  0  0  0  0
  184.9620  179.3730  143.5290 C   0  0  2  0  0  3  0  0  0  0  0  0
  185.0420  178.9610  142.0990 N   0  0  0  0  0  0  0  0  0  0  0  0
  185.8610  178.2990  143.1270 C   0  0  0  0  0  2  0  0  0  0  0  0
  184.1620  178.6280  145.7640 C   0  0  0  0  0  1  0  0  0  0  0  0
  183.7760  178.8050  144.3090 C   0  0  0  0  0  2  0  0  0  0  0  0
  1  3  1  0  0  0  0
  2 13  1  0  0  0  0
  3 18  1  0  0  0  0
  3 14  2  0  0  0  0
  4  7  1  0  0  0  0
  5  4  2  0  0  0  0
  6  9  1  0  0  0  0
  8 20  2  0  0  0  0
  8  5  1  0  0  0  0
  9 18  2  0  0  0  0
 10 18  1  0  0  0  0
 10 11  2  0  0  0  0
 11 20  1  0  0  0  0
 12 14  1  0  0  0  0
 12 16  1  0  0  0  0
 13  1  1  0  0  0  0
 13  6  2  0  0  0  0
 14  8  1  0  0  0  0
 15  7  2  0  0  0  0
 16 21  1  0  0  0  0
 17  9  1  0  0  0  0
 19 12  2  0  0  0  0
 20 15  1  0  0  0  0
 21  5  1  0  0  0  0
 21 34  1  1  0  0  0
 23 11  1  0  0  0  0
 23 22  1  0  0  0  0
 24 23  2  0  0  0  0
 25 28  2  0  0  0  0
 25 30  1  0  0  0  0
 26 27  2  0  0  0  0
 28 26  1  0  0  0  0
 29 27  1  0  0  0  0
 29 22  1  0  0  0  0
 30 29  2  0  0  0  0
 31 28  1  0  0  0  0
 31 32  1  0  0  0  0
 32 33  1  0  0  0  0
 34 35  1  0  0  0  0
 35 36  1  0  0  0  0
 36 38  1  0  0  0  0
 37 41  1  1  0  0  0
 38 39  1  0  0  0  0
 38 37  1  0  0  0  0
 39 37  1  0  0  0  0
 41 40  1  0  0  0  0
M  END
>  <MODEL>
5

>  <REMARK>
 VINA RESULT:      -6.5      4.121      9.017
  Name = 
  9 active torsions:
  status: ('A' for Active; 'I' for Inactive)
    1  A    between atoms: C_5  and  C_23
    2  A    between atoms: C_5  and  C_37
    3  A    between atoms: N_7  and  C_30
    4  A    between atoms: C_11  and  C_38
    5  A    between atoms: C_17  and  C_34
    6  A    between atoms: O_18  and  C_39
    7  A    between atoms: N_21  and  C_23
    8  A    between atoms: C_28  and  C_39
    9  A    between atoms: C_37  and  C_40
                            x       y       z     vdW  Elec       q    Type
                         _______ _______ _______ _____ _____    ______ ____

>  <TORSDO>
F 9

$$$$
=
 OpenBabel11032419543D

 41 46  0  0  1  0  0  0  0  0999 V2000
  186.7940  176.1760  136.5640 O   0  0  0  0  0  0  0  0  0  0  0  0
  185.0260  175.0300  135.3310 N   0  0  0  0  0  1  0  0  0  0  0  0
  188.0300  176.1940  137.2340 C   0  0  0  0  0  0  0  0  0  0  0  0
  189.6250  177.4640  141.6820 C   0  0  0  0  0  3  0  0  0  0  0  0
  188.8380  177.6730  140.5420 C   0  0  0  0  0  0  0  0  0  0  0  0
  187.1420  174.0010  135.7040 C   0  0  0  0  0  3  0  0  0  0  0  0
  190.7640  176.6780  141.6310 C   0  0  0  0  0  3  0  0  0  0  0  0
  189.2030  177.0560  139.3010 C   0  0  0  0  0  0  0  0  0  0  0  0
  188.5230  174.0350  136.2140 C   0  0  0  0  0  0  0  0  0  0  0  0
  190.4220  175.2800  137.0220 C   0  0  0  0  0  3  0  0  0  0  0  0
  191.0880  175.9120  137.9810 C   0  0  0  0  0  0  0  0  0  0  0  0
  187.2200  178.2240  138.2670 C   0  0  0  0  0  0  0  0  0  0  0  0
  186.3440  175.0520  135.8660 C   0  0  0  0  0  0  0  0  0  0  0  0
  188.2450  177.1700  138.1500 C   0  0  0  0  0  0  0  0  0  0  0  0
  191.1730  176.1470  140.4180 C   0  0  0  0  0  3  0  0  0  0  0  0
  186.6230  178.4860  139.5980 C   0  0  0  0  0  2  0  0  0  0  0  0
  189.5790  172.7050  135.7430 Cl  0  0  0  0  0  0  0  0  0  0  0  0
  188.9750  175.0890  136.9250 C   0  0  0  0  0  0  0  0  0  0  0  0
  186.8100  178.8560  137.2560 O   0  0  0  0  0  0  0  0  0  0  0  0
  190.4420  176.3580  139.2390 C   0  0  0  0  0  0  0  0  0  0  0  0
  187.7180  178.7040  140.6250 C   0  0  1  0  0  3  0  0  0  0  0  0
  193.3250  174.9760  137.2680 N   0  0  0  0  0  2  0  0  0  0  0  0
  192.5540  176.0640  137.8000 C   0  0  0  0  0  0  0  0  0  0  0  0
  193.1240  177.1350  138.1500 O   0  0  0  0  0  0  0  0  0  0  0  0
  196.6200  175.5300  135.5510 C   0  0  0  0  0  3  0  0  0  0  0  0
  196.9790  174.3340  137.6240 C   0  0  0  0  0  3  0  0  0  0  0  0
  195.6040  174.3620  137.8790 C   0  0  0  0  0  3  0  0  0  0  0  0
  197.4880  174.9250  136.4640 C   0  0  0  0  0  0  0  0  0  0  0  0
  194.7290  174.9760  136.9750 C   0  0  0  0  0  0  0  0  0  0  0  0
  195.2450  175.5580  135.8070 C   0  0  0  0  0  3  0  0  0  0  0  0
  198.9480  174.8740  136.1800 C   0  0  0  0  0  2  0  0  0  0  0  0
  199.1680  174.2630  134.9460 O   0  0  0  0  0  0  0  0  0  0  0  0
  199.1380  172.8960  135.2230 C   0  0  0  0  0  1  0  0  0  0  0  0
  187.0710  178.7910  142.0020 C   0  0  0  0  0  2  0  0  0  0  0  0
  185.5670  178.6130  141.8800 C   0  0  0  0  0  2  0  0  0  0  0  0
  184.8570  179.3780  142.9820 C   0  0  0  0  0  2  0  0  0  0  0  0
  184.2090  178.3790  145.1510 C   0  0  2  0  0  3  0  0  0  0  0  0
  183.9340  178.4950  143.6910 N   0  0  0  0  0  0  0  0  0  0  0  0
  183.2240  179.3370  144.6670 C   0  0  0  0  0  2  0  0  0  0  0  0
  186.5070  178.0980  146.0640 C   0  0  0  0  0  1  0  0  0  0  0  0
  185.4600  179.1090  145.6430 C   0  0  0  0  0  2  0  0  0  0  0  0
  1  3  1  0  0  0  0
  2 13  1  0  0  0  0
  3 14  2  0  0  0  0
  5 21  1  0  0  0  0
  5  4  2  0  0  0  0
  6 13  2  0  0  0  0
  6  9  1  0  0  0  0
  7  4  1  0  0  0  0
  8  5  1  0  0  0  0
  9 18  2  0  0  0  0
 10 11  2  0  0  0  0
 11 20  1  0  0  0  0
 12 16  1  0  0  0  0
 13  1  1  0  0  0  0
 14 12  1  0  0  0  0
 14  8  1  0  0  0  0
 15  7  2  0  0  0  0
 16 21  1  0  0  0  0
 17  9  1  0  0  0  0
 18 10  1  0  0  0  0
 18  3  1  0  0  0  0
 19 12  2  0  0  0  0
 20  8  2  0  0  0  0
 20 15  1  0  0  0  0
 21 34  1  1  0  0  0
 22 23  1  0  0  0  0
 23 11  1  0  0  0  0
 23 24  2  0  0  0  0
 25 30  2  0  0  0  0
 25 28  1  0  0  0  0
 26 27  1  0  0  0  0
 28 26  2  0  0  0  0
 29 22  1  0  0  0  0
 29 27  2  0  0  0  0
 30 29  1  0  0  0  0
 31 28  1  0  0  0  0
 32 33  1  0  0  0  0
 32 31  1  0  0  0  0
 35 34  1  0  0  0  0
 35 36  1  0  0  0  0
 36 38  1  0  0  0  0
 37 41  1  6  0  0  0
 38 39  1  0  0  0  0
 38 37  1  0  0  0  0
 39 37  1  0  0  0  0
 41 40  1  0  0  0  0
M  END
>  <MODEL>
6

>  <REMARK>
 VINA RESULT:      -6.4      4.917     10.110
  Name = 
  9 active torsions:
  status: ('A' for Active; 'I' for Inactive)
    1  A    between atoms: C_5  and  C_23
    2  A    between atoms: C_5  and  C_37
    3  A    between atoms: N_7  and  C_30
    4  A    between atoms: C_11  and  C_38
    5  A    between atoms: C_17  and  C_34
    6  A    between atoms: O_18  and  C_39
    7  A    between atoms: N_21  and  C_23
    8  A    between atoms: C_28  and  C_39
    9  A    between atoms: C_37  and  C_40
                            x       y       z     vdW  Elec       q    Type
                         _______ _______ _______ _____ _____    ______ ____

>  <TORSDO>
F 9

$$$$
=
 OpenBabel11032419543D

 41 46  0  0  1  0  0  0  0  0999 V2000
  188.1340  178.2770  140.7830 O   0  0  0  0  0  0  0  0  0  0  0  0
  189.4730  177.6250  142.7170 N   0  0  0  0  0  1  0  0  0  0  0  0
  186.9030  178.4400  140.1220 C   0  0  0  0  0  0  0  0  0  0  0  0
  184.9030  176.8850  135.9370 C   0  0  0  0  0  3  0  0  0  0  0  0
  185.9740  177.3860  136.6860 C   0  0  0  0  0  0  0  0  0  0  0  0
  187.1070  177.8560  142.8710 C   0  0  0  0  0  3  0  0  0  0  0  0
  183.5940  177.0550  136.3580 C   0  0  0  0  0  3  0  0  0  0  0  0
  185.7240  178.0760  137.9160 C   0  0  0  0  0  0  0  0  0  0  0  0
  185.8020  178.2080  142.2860 C   0  0  0  0  0  0  0  0  0  0  0  0
  184.5090  179.2680  140.5500 C   0  0  0  0  0  3  0  0  0  0  0  0
  183.9600  179.2860  139.3420 C   0  0  0  0  0  0  0  0  0  0  0  0
  188.2150  178.4360  138.0910 C   0  0  0  0  0  0  0  0  0  0  0  0
  188.2110  177.9220  142.1330 C   0  0  0  0  0  0  0  0  0  0  0  0
  186.9040  178.4500  138.7670 C   0  0  0  0  0  0  0  0  0  0  0  0
  183.3360  177.7950  137.5010 C   0  0  0  0  0  3  0  0  0  0  0  0
  188.4840  177.3770  137.0900 C   0  0  0  0  0  2  0  0  0  0  0  0
  184.4380  178.3300  143.3950 Cl  0  0  0  0  0  0  0  0  0  0  0  0
  185.6900  178.5180  140.9770 C   0  0  0  0  0  0  0  0  0  0  0  0
  189.1170  179.2640  138.3920 O   0  0  0  0  0  0  0  0  0  0  0  0
  184.3720  178.3530  138.2660 C   0  0  0  0  0  0  0  0  0  0  0  0
  187.3660  177.3360  136.0640 C   0  0  1  0  0  3  0  0  0  0  0  0
  183.0340  181.4660  138.4590 N   0  0  0  0  0  2  0  0  0  0  0  0
  182.8210  180.2140  139.1290 C   0  0  0  0  0  0  0  0  0  0  0  0
  181.6760  179.9170  139.5720 O   0  0  0  0  0  0  0  0  0  0  0  0
  181.3840  184.6870  137.4540 C   0  0  0  0  0  3  0  0  0  0  0  0
  179.6940  183.0000  137.8440 C   0  0  0  0  0  3  0  0  0  0  0  0
  180.6920  182.0720  138.1590 C   0  0  0  0  0  3  0  0  0  0  0  0
  180.0390  184.3050  137.4840 C   0  0  0  0  0  0  0  0  0  0  0  0
  182.0410  182.4440  138.1200 C   0  0  0  0  0  0  0  0  0  0  0  0
  182.3810  183.7580  137.7680 C   0  0  0  0  0  3  0  0  0  0  0  0
  178.9770  185.2990  137.1720 C   0  0  0  0  0  2  0  0  0  0  0  0
  179.2960  186.5270  137.7510 O   0  0  0  0  0  0  0  0  0  0  0  0
  178.9750  186.3720  139.1000 C   0  0  0  0  0  1  0  0  0  0  0  0
  187.5890  176.1260  135.1650 C   0  0  0  0  0  2  0  0  0  0  0  0
  187.9290  174.9080  136.0070 C   0  0  0  0  0  2  0  0  0  0  0  0
  186.8190  173.8780  135.9130 C   0  0  0  0  0  2  0  0  0  0  0  0
  184.9040  172.9010  137.1400 C   0  0  2  0  0  3  0  0  0  0  0  0
  186.0410  173.8650  137.1500 N   0  0  0  0  0  0  0  0  0  0  0  0
  186.1860  172.5150  137.7150 C   0  0  0  0  0  2  0  0  0  0  0  0
  183.6000  171.1180  135.9950 C   0  0  0  0  0  1  0  0  0  0  0  0
  184.6760  172.1700  135.8170 C   0  0  0  0  0  2  0  0  0  0  0  0
  1 13  1  0  0  0  0
  3  1  1  0  0  0  0
  3 18  1  0  0  0  0
  4  7  2  0  0  0  0
  4  5  1  0  0  0  0
  5  8  2  0  0  0  0
  7 15  1  0  0  0  0
  8 20  1  0  0  0  0
  8 14  1  0  0  0  0
  9  6  1  0  0  0  0
  9 17  1  0  0  0  0
 10 18  1  0  0  0  0
 11 10  2  0  0  0  0
 12 19  2  0  0  0  0
 12 14  1  0  0  0  0
 13  2  1  0  0  0  0
 13  6  2  0  0  0  0
 14  3  2  0  0  0  0
 15 20  2  0  0  0  0
 16 12  1  0  0  0  0
 18  9  2  0  0  0  0
 20 11  1  0  0  0  0
 21 34  1  1  0  0  0
 21  5  1  0  0  0  0
 21 16  1  0  0  0  0
 22 23  1  0  0  0  0
 23 11  1  0  0  0  0
 23 24  2  0  0  0  0
 25 28  2  0  0  0  0
 25 30  1  0  0  0  0
 26 27  2  0  0  0  0
 28 26  1  0  0  0  0
 29 27  1  0  0  0  0
 29 22  1  0  0  0  0
 30 29  2  0  0  0  0
 31 28  1  0  0  0  0
 31 32  1  0  0  0  0
 32 33  1  0  0  0  0
 34 35  1  0  0  0  0
 36 35  1  0  0  0  0
 36 38  1  0  0  0  0
 37 41  1  6  0  0  0
 37 38  1  0  0  0  0
 37 39  1  0  0  0  0
 38 39  1  0  0  0  0
 41 40  1  0  0  0  0
M  END
>  <MODEL>
7

>  <REMARK>
 VINA RESULT:      -6.3      3.359      7.483
  Name = 
  9 active torsions:
  status: ('A' for Active; 'I' for Inactive)
    1  A    between atoms: C_5  and  C_23
    2  A    between atoms: C_5  and  C_37
    3  A    between atoms: N_7  and  C_30
    4  A    between atoms: C_11  and  C_38
    5  A    between atoms: C_17  and  C_34
    6  A    between atoms: O_18  and  C_39
    7  A    between atoms: N_21  and  C_23
    8  A    between atoms: C_28  and  C_39
    9  A    between atoms: C_37  and  C_40
                            x       y       z     vdW  Elec       q    Type
                         _______ _______ _______ _____ _____    ______ ____

>  <TORSDO>
F 9

$$$$
=
 OpenBabel11032419543D

 41 46  0  0  1  0  0  0  0  0999 V2000
  191.7500  176.7130  139.7820 O   0  0  0  0  0  0  0  0  0  0  0  0
  194.1500  177.1600  139.8440 N   0  0  0  0  0  1  0  0  0  0  0  0
  190.5340  176.5560  139.0950 C   0  0  0  0  0  0  0  0  0  0  0  0
  186.0830  178.5790  139.2780 C   0  0  0  0  0  3  0  0  0  0  0  0
  187.2310  178.0550  139.8850 C   0  0  0  0  0  0  0  0  0  0  0  0
  193.0260  176.7160  137.7900 C   0  0  0  0  0  3  0  0  0  0  0  0
  185.7420  178.2390  137.9790 C   0  0  0  0  0  3  0  0  0  0  0  0
  188.0800  177.1630  139.1540 C   0  0  0  0  0  0  0  0  0  0  0  0
  191.8170  176.3560  137.0310 C   0  0  0  0  0  0  0  0  0  0  0  0
  189.5730  175.4790  136.9700 C   0  0  0  0  0  3  0  0  0  0  0  0
  188.2600  175.6060  137.1170 C   0  0  0  0  0  0  0  0  0  0  0  0
  189.4950  176.9840  141.2350 C   0  0  0  0  0  0  0  0  0  0  0  0
  192.9690  176.8570  139.1110 C   0  0  0  0  0  0  0  0  0  0  0  0
  189.3830  176.7570  139.7820 C   0  0  0  0  0  0  0  0  0  0  0  0
  186.5090  177.3100  137.2930 C   0  0  0  0  0  3  0  0  0  0  0  0
  188.8830  178.2040  141.8110 C   0  0  0  0  0  2  0  0  0  0  0  0
  192.0350  175.9520  135.3300 Cl  0  0  0  0  0  0  0  0  0  0  0  0
  190.6190  176.2470  137.6430 C   0  0  0  0  0  0  0  0  0  0  0  0
  190.1440  176.1950  141.9740 O   0  0  0  0  0  0  0  0  0  0  0  0
  187.6470  176.7260  137.8700 C   0  0  0  0  0  0  0  0  0  0  0  0
  187.4340  178.3150  141.3740 C   0  0  1  0  0  3  0  0  0  0  0  0
  186.6870  173.6270  137.1320 N   0  0  0  0  0  2  0  0  0  0  0  0
  187.4000  174.6330  136.3960 C   0  0  0  0  0  0  0  0  0  0  0  0
  187.3280  174.6690  135.1350 O   0  0  0  0  0  0  0  0  0  0  0  0
  185.2670  170.7290  135.2100 C   0  0  0  0  0  3  0  0  0  0  0  0
  183.5050  171.8020  136.4750 C   0  0  0  0  0  3  0  0  0  0  0  0
  184.4270  172.7260  136.9770 C   0  0  0  0  0  3  0  0  0  0  0  0
  183.9250  170.7990  135.5980 C   0  0  0  0  0  0  0  0  0  0  0  0
  185.7740  172.6560  136.6020 C   0  0  0  0  0  0  0  0  0  0  0  0
  186.1880  171.6530  135.7130 C   0  0  0  0  0  3  0  0  0  0  0  0
  182.9400  169.8300  135.0450 C   0  0  0  0  0  2  0  0  0  0  0  0
  181.7270  170.4760  134.8080 O   0  0  0  0  0  0  0  0  0  0  0  0
  180.7660  169.6290  135.3610 C   0  0  0  0  0  1  0  0  0  0  0  0
  186.8980  179.6640  141.8360 C   0  0  0  0  0  2  0  0  0  0  0  0
  185.4420  179.5300  142.2510 C   0  0  0  0  0  2  0  0  0  0  0  0
  185.2420  178.2630  143.0620 C   0  0  0  0  0  2  0  0  0  0  0  0
  184.3600  178.7750  145.3180 C   0  0  2  0  0  3  0  0  0  0  0  0
  184.0580  178.3920  143.9090 N   0  0  0  0  0  0  0  0  0  0  0  0
  184.0100  179.7980  144.3400 C   0  0  0  0  0  2  0  0  0  0  0  0
  186.3130  177.5500  146.2540 C   0  0  0  0  0  1  0  0  0  0  0  0
  185.8460  178.8670  145.6680 C   0  0  0  0  0  2  0  0  0  0  0  0
  3  1  1  0  0  0  0
  3 14  2  0  0  0  0
  4  5  1  0  0  0  0
  5 21  1  0  0  0  0
  6 13  2  0  0  0  0
  7  4  2  0  0  0  0
  8 14  1  0  0  0  0
  8  5  2  0  0  0  0
  9 18  2  0  0  0  0
  9  6  1  0  0  0  0
 10 11  2  0  0  0  0
 10 18  1  0  0  0  0
 11 20  1  0  0  0  0
 12 16  1  0  0  0  0
 12 19  2  0  0  0  0
 13  1  1  0  0  0  0
 13  2  1  0  0  0  0
 14 12  1  0  0  0  0
 15 20  2  0  0  0  0
 15  7  1  0  0  0  0
 17  9  1  0  0  0  0
 18  3  1  0  0  0  0
 20  8  1  0  0  0  0
 21 16  1  0  0  0  0
 21 34  1  6  0  0  0
 23 11  1  0  0  0  0
 23 22  1  0  0  0  0
 24 23  2  0  0  0  0
 25 28  2  0  0  0  0
 25 30  1  0  0  0  0
 26 27  2  0  0  0  0
 28 26  1  0  0  0  0
 29 27  1  0  0  0  0
 29 22  1  0  0  0  0
 30 29  2  0  0  0  0
 31 28  1  0  0  0  0
 32 31  1  0  0  0  0
 32 33  1  0  0  0  0
 34 35  1  0  0  0  0
 35 36  1  0  0  0  0
 36 38  1  0  0  0  0
 37 41  1  6  0  0  0
 38 39  1  0  0  0  0
 38 37  1  0  0  0  0
 39 37  1  0  0  0  0
 41 40  1  0  0  0  0
M  END
>  <MODEL>
8

>  <REMARK>
 VINA RESULT:      -6.1      3.816     10.093
  Name = 
  9 active torsions:
  status: ('A' for Active; 'I' for Inactive)
    1  A    between atoms: C_5  and  C_23
    2  A    between atoms: C_5  and  C_37
    3  A    between atoms: N_7  and  C_30
    4  A    between atoms: C_11  and  C_38
    5  A    between atoms: C_17  and  C_34
    6  A    between atoms: O_18  and  C_39
    7  A    between atoms: N_21  and  C_23
    8  A    between atoms: C_28  and  C_39
    9  A    between atoms: C_37  and  C_40
                            x       y       z     vdW  Elec       q    Type
                         _______ _______ _______ _____ _____    ______ ____

>  <TORSDO>
F 9

$$$$
=
 OpenBabel11032419543D

 41 46  0  0  1  0  0  0  0  0999 V2000
  187.5750  175.9210  136.1880 O   0  0  0  0  0  0  0  0  0  0  0  0
  185.8160  176.4910  134.5940 N   0  0  0  0  0  1  0  0  0  0  0  0
  188.3560  176.1920  137.3250 C   0  0  0  0  0  0  0  0  0  0  0  0
  193.1290  176.5930  138.3250 C   0  0  0  0  0  3  0  0  0  0  0  0
  192.0430  175.9710  137.6960 C   0  0  0  0  0  0  0  0  0  0  0  0
  186.0680  177.6860  136.6400 C   0  0  0  0  0  3  0  0  0  0  0  0
  192.9500  177.3690  139.4590 C   0  0  0  0  0  3  0  0  0  0  0  0
  190.7210  176.1440  138.2180 C   0  0  0  0  0  0  0  0  0  0  0  0
  186.7230  177.8950  137.9420 C   0  0  0  0  0  0  0  0  0  0  0  0
  188.1370  177.0920  139.7210 C   0  0  0  0  0  3  0  0  0  0  0  0
  189.3280  176.8580  140.2570 C   0  0  0  0  0  0  0  0  0  0  0  0
  189.9180  174.6000  136.3920 C   0  0  0  0  0  0  0  0  0  0  0  0
  186.4830  176.7170  135.8300 C   0  0  0  0  0  0  0  0  0  0  0  0
  189.5710  175.5990  137.4200 C   0  0  0  0  0  0  0  0  0  0  0  0
  191.6870  177.4730  140.0220 C   0  0  0  0  0  3  0  0  0  0  0  0
  191.1730  174.7790  135.6260 C   0  0  0  0  0  2  0  0  0  0  0  0
  185.9560  179.0330  139.0470 Cl  0  0  0  0  0  0  0  0  0  0  0  0
  187.8030  177.1690  138.2990 C   0  0  0  0  0  0  0  0  0  0  0  0
  189.1440  173.6420  136.1200 O   0  0  0  0  0  0  0  0  0  0  0  0
  190.5740  176.8370  139.4530 C   0  0  0  0  0  0  0  0  0  0  0  0
  192.3390  174.9770  136.5770 C   0  0  1  0  0  3  0  0  0  0  0  0
  188.4980  177.4860  142.5610 N   0  0  0  0  0  2  0  0  0  0  0  0
  189.3920  176.7230  141.7350 C   0  0  0  0  0  0  0  0  0  0  0  0
  190.2560  175.9690  142.2620 O   0  0  0  0  0  0  0  0  0  0  0  0
  187.0850  177.5260  146.0410 C   0  0  0  0  0  3  0  0  0  0  0  0
  189.4790  177.1920  146.1440 C   0  0  0  0  0  3  0  0  0  0  0  0
  189.5470  177.2420  144.7480 C   0  0  0  0  0  3  0  0  0  0  0  0
  188.2480  177.3260  146.7910 C   0  0  0  0  0  0  0  0  0  0  0  0
  188.3860  177.4310  143.9900 C   0  0  0  0  0  0  0  0  0  0  0  0
  187.1530  177.5750  144.6450 C   0  0  0  0  0  3  0  0  0  0  0  0
  188.1780  177.2970  148.2770 C   0  0  0  0  0  2  0  0  0  0  0  0
  188.5400  178.5420  148.7900 O   0  0  0  0  0  0  0  0  0  0  0  0
  189.8490  178.3680  149.2410 C   0  0  0  0  0  1  0  0  0  0  0  0
  193.5710  175.3340  135.7550 C   0  0  0  0  0  2  0  0  0  0  0  0
  194.2140  174.0710  135.2070 C   0  0  0  0  0  2  0  0  0  0  0  0
  195.7190  174.2410  135.1250 C   0  0  0  0  0  2  0  0  0  0  0  0
  197.4760  174.8720  136.7500 C   0  0  2  0  0  3  0  0  0  0  0  0
  196.1690  175.2120  136.1200 N   0  0  0  0  0  0  0  0  0  0  0  0
  197.4280  175.7750  135.6070 C   0  0  0  0  0  2  0  0  0  0  0  0
  199.1800  173.1440  137.2960 C   0  0  0  0  0  1  0  0  0  0  0  0
  198.0740  173.5270  136.3350 C   0  0  0  0  0  2  0  0  0  0  0  0
  1  3  1  0  0  0  0
  2 13  1  0  0  0  0
  3 14  2  0  0  0  0
  3 18  1  0  0  0  0
  4  7  1  0  0  0  0
  5  8  1  0  0  0  0
  5  4  2  0  0  0  0
  6  9  1  0  0  0  0
  7 15  2  0  0  0  0
  8 20  2  0  0  0  0
  9 18  2  0  0  0  0
  9 17  1  0  0  0  0
 10 11  2  0  0  0  0
 11 23  1  0  0  0  0
 12 14  1  0  0  0  0
 13  1  1  0  0  0  0
 13  6  2  0  0  0  0
 14  8  1  0  0  0  0
 16 12  1  0  0  0  0
 16 21  1  0  0  0  0
 18 10  1  0  0  0  0
 19 12  2  0  0  0  0
 20 15  1  0  0  0  0
 20 11  1  0  0  0  0
 21 34  1  6  0  0  0
 21  5  1  0  0  0  0
 22 29  1  0  0  0  0
 23 24  2  0  0  0  0
 23 22  1  0  0  0  0
 25 28  1  0  0  0  0
 26 28  2  0  0  0  0
 27 26  1  0  0  0  0
 28 31  1  0  0  0  0
 29 30  1  0  0  0  0
 29 27  2  0  0  0  0
 30 25  2  0  0  0  0
 31 32  1  0  0  0  0
 32 33  1  0  0  0  0
 35 34  1  0  0  0  0
 36 35  1  0  0  0  0
 36 38  1  0  0  0  0
 37 41  1  6  0  0  0
 38 37  1  0  0  0  0
 39 38  1  0  0  0  0
 39 37  1  0  0  0  0
 41 40  1  0  0  0  0
M  END
>  <MODEL>
9

>  <REMARK>
 VINA RESULT:      -6.0      3.975      5.971
  Name = 
  9 active torsions:
  status: ('A' for Active; 'I' for Inactive)
    1  A    between atoms: C_5  and  C_23
    2  A    between atoms: C_5  and  C_37
    3  A    between atoms: N_7  and  C_30
    4  A    between atoms: C_11  and  C_38
    5  A    between atoms: C_17  and  C_34
    6  A    between atoms: O_18  and  C_39
    7  A    between atoms: N_21  and  C_23
    8  A    between atoms: C_28  and  C_39
    9  A    between atoms: C_37  and  C_40
                            x       y       z     vdW  Elec       q    Type
                         _______ _______ _______ _____ _____    ______ ____

>  <TORSDO>
F 9

$$$$
