=
 OpenBabel11042411013D

 29 34  0  0  1  0  0  0  0  0999 V2000
  187.4580  174.4770  135.8810 C   0  0  1  0  0  3  0  0  0  0  0  0
  191.3240  175.7730  138.2680 C   0  0  0  0  0  2  0  0  0  0  0  0
  188.5260  176.6190  135.5900 O   0  0  0  0  0  0  0  0  0  0  0  0
  192.3320  177.3850  139.8680 C   0  0  0  0  0  3  0  0  0  0  0  0
  185.5810  176.9330  136.2320 C   0  0  0  0  0  2  0  0  0  0  0  0
  187.8840  176.3920  143.8180 N   0  0  0  0  0  0  0  0  0  0  0  0
  188.8460  176.0070  142.9280 C   0  0  0  0  0  3  0  0  0  0  0  0
  189.7770  177.8370  139.8180 C   0  0  1  0  0  0  0  0  0  0  0  0
  184.0750  173.6070  135.6230 C   0  0  0  0  0  1  0  0  0  0  0  0
  187.1410  177.5250  143.6340 C   0  0  0  0  0  0  0  0  0  0  0  0
  186.1490  177.8860  144.5880 N   0  0  0  0  0  1  0  0  0  0  0  0
  192.4680  176.5380  138.8390 C   0  0  0  0  0  3  0  0  0  0  0  0
  185.0740  175.7180  135.4510 C   0  0  0  0  0  2  0  0  0  0  0  0
  187.3500  178.3350  142.5050 C   0  0  0  0  0  3  0  0  0  0  0  0
  187.8860  175.8020  136.5300 C   0  0  1  0  0  3  0  0  0  0  0  0
  188.5220  173.5780  135.9060 O   0  0  0  0  0  1  0  0  0  0  0  0
  186.7370  176.6040  137.1850 C   0  0  1  0  0  3  0  0  0  0  0  0
  188.7250  178.5730  140.4550 O   0  0  0  0  0  0  0  0  0  0  0  0
  188.3330  177.9300  141.6080 C   0  0  0  0  0  0  0  0  0  0  0  0
  188.5520  178.2710  137.6620 N   0  0  0  0  0  2  0  0  0  0  0  0
  189.0690  176.8000  141.8070 C   0  0  0  0  0  0  0  0  0  0  0  0
  191.0690  177.7260  140.6330 C   0  0  1  0  0  3  0  0  0  0  0  0
  190.2420  176.5090  135.8060 S   0  0  0  0  0  0  0  0  0  0  0  0
  186.2220  173.8340  136.5400 C   0  0  0  0  0  2  0  0  0  0  0  0
  190.0370  176.5900  140.6920 C   0  0  2  0  0  3  0  0  0  0  0  0
  189.6260  177.5930  138.3170 C   0  0  0  0  0  0  0  0  0  0  0  0
  187.1710  177.8790  137.9350 C   0  0  0  0  0  2  0  0  0  0  0  0
  184.9450  174.5420  136.3140 N   0  0  0  0  0  0  0  0  0  0  0  0
  190.3590  176.7000  137.6090 C   0  0  0  0  0  0  0  0  0  0  0  0
  1 16  1  1  0  0  0
  1 15  1  0  0  0  0
  1 24  1  0  0  0  0
  2 12  1  0  0  0  0
  3 23  1  0  0  0  0
  7  6  2  0  0  0  0
  8 26  1  6  0  0  0
  8 18  1  0  0  0  0
  8 22  1  0  0  0  0
  8 25  1  0  0  0  0
  9 28  1  0  0  0  0
 10  6  1  0  0  0  0
 10 11  1  0  0  0  0
 12  4  2  0  0  0  0
 13  5  1  0  0  0  0
 13 28  1  0  0  0  0
 14 10  2  0  0  0  0
 15  3  1  6  0  0  0
 15 17  1  0  0  0  0
 17  5  1  6  0  0  0
 17 27  1  0  0  0  0
 18 19  1  0  0  0  0
 19 21  2  0  0  0  0
 19 14  1  0  0  0  0
 20 27  1  0  0  0  0
 20 26  1  0  0  0  0
 21  7  1  0  0  0  0
 22  4  1  6  0  0  0
 22 25  1  0  0  0  0
 23 29  1  0  0  0  0
 25 21  1  1  0  0  0
 28 24  1  0  0  0  0
 29  2  1  0  0  0  0
 29 26  2  0  0  0  0
M  END
>  <MODEL>
1

>  <REMARK>
 VINA RESULT:      -7.5      0.000      0.000
  Name = 
  0 active torsions:
  status: ('A' for Active; 'I' for Inactive)
                            x       y       z     vdW  Elec       q    Type
                         _______ _______ _______ _____ _____    ______ ____

>  <TORSDO>
F 0

$$$$
=
 OpenBabel11042411013D

 29 34  0  0  1  0  0  0  0  0999 V2000
  185.3780  174.8300  136.6050 C   0  0  1  0  0  3  0  0  0  0  0  0
  189.7170  175.9430  138.1090 C   0  0  0  0  0  2  0  0  0  0  0  0
  186.4610  176.9160  136.0660 O   0  0  0  0  0  0  0  0  0  0  0  0
  191.1150  177.5100  139.4390 C   0  0  0  0  0  3  0  0  0  0  0  0
  183.7360  177.3770  137.3070 C   0  0  0  0  0  2  0  0  0  0  0  0
  187.5550  176.7520  144.2480 N   0  0  0  0  0  0  0  0  0  0  0  0
  188.2880  176.3170  143.1820 C   0  0  0  0  0  3  0  0  0  0  0  0
  188.6300  178.0870  139.9200 C   0  0  1  0  0  0  0  0  0  0  0  0
  181.9800  174.1280  137.0750 C   0  0  0  0  0  1  0  0  0  0  0  0
  186.8440  177.9200  144.2080 C   0  0  0  0  0  0  0  0  0  0  0  0
  186.0930  178.3330  145.3440 N   0  0  0  0  0  1  0  0  0  0  0  0
  190.9900  176.6530  138.4170 C   0  0  0  0  0  3  0  0  0  0  0  0
  183.0190  176.1870  136.6670 C   0  0  0  0  0  2  0  0  0  0  0  0
  186.8490  178.7150  143.0500 C   0  0  0  0  0  3  0  0  0  0  0  0
  185.9960  176.1360  137.1310 C   0  0  1  0  0  3  0  0  0  0  0  0
  186.3800  173.8800  136.4190 O   0  0  0  0  0  1  0  0  0  0  0  0
  185.0500  176.9950  138.0010 C   0  0  1  0  0  3  0  0  0  0  0  0
  187.7720  178.8760  140.7530 O   0  0  0  0  0  0  0  0  0  0  0  0
  187.6010  178.2580  141.9710 C   0  0  0  0  0  0  0  0  0  0  0  0
  187.0010  178.5730  138.0640 N   0  0  0  0  0  2  0  0  0  0  0  0
  188.3080  177.0940  142.0270 C   0  0  0  0  0  0  0  0  0  0  0  0
  190.0580  177.9160  140.4470 C   0  0  1  0  0  3  0  0  0  0  0  0
  188.1780  176.7230  135.9180 S   0  0  0  0  0  0  0  0  0  0  0  0
  184.2790  174.2520  137.5170 C   0  0  0  0  0  2  0  0  0  0  0  0
  189.0090  176.8320  140.7370 C   0  0  2  0  0  3  0  0  0  0  0  0
  188.1560  177.8450  138.4870 C   0  0  0  0  0  0  0  0  0  0  0  0
  185.6920  178.2510  138.6260 C   0  0  0  0  0  2  0  0  0  0  0  0
  183.0190  175.0220  137.5550 N   0  0  0  0  0  0  0  0  0  0  0  0
  188.6800  176.9140  137.6550 C   0  0  0  0  0  0  0  0  0  0  0  0
  1 16  1  1  0  0  0
  1 15  1  0  0  0  0
  1 24  1  0  0  0  0
  2 12  1  0  0  0  0
  7  6  2  0  0  0  0
  8 26  1  6  0  0  0
  8 22  1  0  0  0  0
  8 25  1  0  0  0  0
  8 18  1  0  0  0  0
  9 28  1  0  0  0  0
 10  6  1  0  0  0  0
 10 11  1  0  0  0  0
 12  4  2  0  0  0  0
 13  5  1  0  0  0  0
 13 28  1  0  0  0  0
 14 10  2  0  0  0  0
 15  3  1  6  0  0  0
 15 17  1  0  0  0  0
 17  5  1  6  0  0  0
 17 27  1  0  0  0  0
 18 19  1  0  0  0  0
 19 21  2  0  0  0  0
 19 14  1  0  0  0  0
 20 26  1  0  0  0  0
 20 27  1  0  0  0  0
 21  7  1  0  0  0  0
 22  4  1  6  0  0  0
 22 25  1  0  0  0  0
 23  3  1  0  0  0  0
 23 29  1  0  0  0  0
 24 28  1  0  0  0  0
 25 21  1  1  0  0  0
 29  2  1  0  0  0  0
 29 26  2  0  0  0  0
M  END
>  <MODEL>
2

>  <REMARK>
 VINA RESULT:      -6.9      1.519      1.669
  Name = 
  0 active torsions:
  status: ('A' for Active; 'I' for Inactive)
                            x       y       z     vdW  Elec       q    Type
                         _______ _______ _______ _____ _____    ______ ____

>  <TORSDO>
F 0

$$$$
=
 OpenBabel11042411013D

 29 34  0  0  1  0  0  0  0  0999 V2000
  182.9940  175.7200  138.0930 C   0  0  1  0  0  3  0  0  0  0  0  0
  187.4310  177.1020  138.9480 C   0  0  0  0  0  2  0  0  0  0  0  0
  183.8070  177.9280  137.5660 O   0  0  0  0  0  0  0  0  0  0  0  0
  188.9140  178.6870  140.1600 C   0  0  0  0  0  3  0  0  0  0  0  0
  181.3100  178.0520  139.2760 C   0  0  0  0  0  2  0  0  0  0  0  0
  186.3030  177.2680  145.4080 N   0  0  0  0  0  0  0  0  0  0  0  0
  186.8730  176.9780  144.2020 C   0  0  0  0  0  3  0  0  0  0  0  0
  186.5120  179.0040  141.0940 C   0  0  1  0  0  0  0  0  0  0  0  0
  179.7900  174.6850  139.0570 C   0  0  0  0  0  1  0  0  0  0  0  0
  185.5090  178.3670  145.5870 C   0  0  0  0  0  0  0  0  0  0  0  0
  184.9360  178.6280  146.8630 N   0  0  0  0  0  1  0  0  0  0  0  0
  188.6800  177.8990  139.1020 C   0  0  0  0  0  3  0  0  0  0  0  0
  180.5850  176.8520  138.6630 C   0  0  0  0  0  2  0  0  0  0  0  0
  185.2550  179.2410  144.5180 C   0  0  0  0  0  3  0  0  0  0  0  0
  183.5920  177.0330  138.6210 C   0  0  1  0  0  3  0  0  0  0  0  0
  184.0170  174.8780  137.6620 O   0  0  0  0  0  1  0  0  0  0  0  0
  182.7480  177.7390  139.7070 C   0  0  1  0  0  3  0  0  0  0  0  0
  185.7540  179.6510  142.1230 O   0  0  0  0  0  0  0  0  0  0  0  0
  185.8430  178.9330  143.2940 C   0  0  0  0  0  0  0  0  0  0  0  0
  184.5560  179.4760  139.5820 N   0  0  0  0  0  2  0  0  0  0  0  0
  186.6350  177.8360  143.1310 C   0  0  0  0  0  0  0  0  0  0  0  0
  188.0190  178.9230  141.3600 C   0  0  1  0  0  3  0  0  0  0  0  0
  185.4820  177.8990  137.1190 S   0  0  0  0  0  0  0  0  0  0  0  0
  182.1150  174.9810  139.1220 C   0  0  0  0  0  2  0  0  0  0  0  0
  187.1210  177.7320  141.7250 C   0  0  2  0  0  3  0  0  0  0  0  0
  185.8190  178.8250  139.7440 C   0  0  0  0  0  0  0  0  0  0  0  0
  183.3910  178.9990  140.3230 C   0  0  0  0  0  2  0  0  0  0  0  0
  180.8260  175.6300  139.4340 N   0  0  0  0  0  0  0  0  0  0  0  0
  186.2600  178.0070  138.7580 C   0  0  0  0  0  0  0  0  0  0  0  0
  1 16  1  1  0  0  0
  1 15  1  0  0  0  0
  1 24  1  0  0  0  0
  2 12  1  0  0  0  0
  6 10  1  0  0  0  0
  7  6  2  0  0  0  0
  8 26  1  6  0  0  0
  8 22  1  0  0  0  0
  8 25  1  0  0  0  0
  8 18  1  0  0  0  0
  9 28  1  0  0  0  0
 10 11  1  0  0  0  0
 12  4  2  0  0  0  0
 13  5  1  0  0  0  0
 13 28  1  0  0  0  0
 14 10  2  0  0  0  0
 15  3  1  6  0  0  0
 15 17  1  0  0  0  0
 17  5  1  6  0  0  0
 17 27  1  0  0  0  0
 18 19  1  0  0  0  0
 19 14  1  0  0  0  0
 20 26  1  0  0  0  0
 20 27  1  0  0  0  0
 21 19  2  0  0  0  0
 21  7  1  0  0  0  0
 22  4  1  6  0  0  0
 22 25  1  0  0  0  0
 23  3  1  0  0  0  0
 23 29  1  0  0  0  0
 24 28  1  0  0  0  0
 25 21  1  1  0  0  0
 29  2  1  0  0  0  0
 29 26  2  0  0  0  0
M  END
>  <MODEL>
3

>  <REMARK>
 VINA RESULT:      -6.4      3.511      4.270
  Name = 
  0 active torsions:
  status: ('A' for Active; 'I' for Inactive)
                            x       y       z     vdW  Elec       q    Type
                         _______ _______ _______ _____ _____    ______ ____

>  <TORSDO>
F 0

$$$$
=
 OpenBabel11042411013D

 29 34  0  0  1  0  0  0  0  0999 V2000
  187.2160  177.3930  143.7500 C   0  0  1  0  0  3  0  0  0  0  0  0
  182.6530  178.0970  142.7420 C   0  0  0  0  0  2  0  0  0  0  0  0
  186.3530  179.5040  142.9650 O   0  0  0  0  0  0  0  0  0  0  0  0
  180.9800  178.6930  141.0040 C   0  0  0  0  0  3  0  0  0  0  0  0
  188.6560  178.5450  141.2450 C   0  0  0  0  0  2  0  0  0  0  0  0
  183.1110  174.4000  137.3430 N   0  0  0  0  0  0  0  0  0  0  0  0
  182.6810  174.8890  138.5430 C   0  0  0  0  0  3  0  0  0  0  0  0
  183.2560  178.3490  139.8040 C   0  0  1  0  0  0  0  0  0  0  0  0
  190.3520  175.9230  143.2320 C   0  0  0  0  0  1  0  0  0  0  0  0
  183.8280  175.1660  136.4660 C   0  0  0  0  0  0  0  0  0  0  0  0
  184.2550  174.6120  135.2260 N   0  0  0  0  0  1  0  0  0  0  0  0
  181.3570  178.6750  142.2890 C   0  0  0  0  0  3  0  0  0  0  0  0
  189.4970  177.9220  142.3620 C   0  0  0  0  0  2  0  0  0  0  0  0
  184.1470  176.4970  136.7810 C   0  0  0  0  0  3  0  0  0  0  0  0
  186.5040  178.1550  142.6210 C   0  0  1  0  0  3  0  0  0  0  0  0
  186.2830  176.9890  144.7030 O   0  0  0  0  0  1  0  0  0  0  0  0
  187.1980  178.0680  141.2420 C   0  0  1  0  0  3  0  0  0  0  0  0
  183.8740  178.2490  138.5150 O   0  0  0  0  0  0  0  0  0  0  0  0
  183.7010  176.9810  138.0080 C   0  0  0  0  0  0  0  0  0  0  0  0
  185.3300  179.5810  140.5220 N   0  0  0  0  0  2  0  0  0  0  0  0
  182.9850  176.2070  138.8710 C   0  0  0  0  0  0  0  0  0  0  0  0
  181.7360  178.1570  139.8040 C   0  0  1  0  0  3  0  0  0  0  0  0
  184.7360  179.7780  143.5250 S   0  0  0  0  0  0  0  0  0  0  0  0
  188.0200  176.1720  143.2630 C   0  0  0  0  0  2  0  0  0  0  0  0
  182.6490  176.9620  140.1130 C   0  0  2  0  0  3  0  0  0  0  0  0
  184.0900  178.9860  140.9140 C   0  0  0  0  0  0  0  0  0  0  0  0
  186.4350  178.7350  140.0790 C   0  0  0  0  0  2  0  0  0  0  0  0
  189.2390  176.4860  142.4880 N   0  0  0  0  0  0  0  0  0  0  0  0
  183.7910  178.9150  142.2330 C   0  0  0  0  0  0  0  0  0  0  0  0
  1 16  1  1  0  0  0
  3 23  1  0  0  0  0
  4 12  2  0  0  0  0
  5 13  1  0  0  0  0
  6  7  1  0  0  0  0
  7 21  2  0  0  0  0
  8 18  1  6  0  0  0
  8 22  1  0  0  0  0
  8 25  1  0  0  0  0
  8 26  1  0  0  0  0
 10 14  1  0  0  0  0
 10  6  2  0  0  0  0
 11 10  1  0  0  0  0
 12  2  1  0  0  0  0
 13 28  1  0  0  0  0
 14 19  2  0  0  0  0
 15  3  1  1  0  0  0
 15  1  1  0  0  0  0
 17 27  1  6  0  0  0
 17  5  1  0  0  0  0
 17 15  1  0  0  0  0
 19 18  1  0  0  0  0
 19 21  1  0  0  0  0
 20 26  1  0  0  0  0
 22 25  1  0  0  0  0
 22  4  1  1  0  0  0
 24  1  1  0  0  0  0
 25 21  1  6  0  0  0
 26 29  2  0  0  0  0
 27 20  1  0  0  0  0
 28  9  1  0  0  0  0
 28 24  1  0  0  0  0
 29  2  1  0  0  0  0
 29 23  1  0  0  0  0
M  END
>  <MODEL>
4

>  <REMARK>
 VINA RESULT:      -6.0      3.930      8.025
  Name = 
  0 active torsions:
  status: ('A' for Active; 'I' for Inactive)
                            x       y       z     vdW  Elec       q    Type
                         _______ _______ _______ _____ _____    ______ ____

>  <TORSDO>
F 0

$$$$
=
 OpenBabel11042411013D

 29 34  0  0  1  0  0  0  0  0999 V2000
  184.0800  177.8680  139.1470 C   0  0  1  0  0  3  0  0  0  0  0  0
  181.1280  178.4440  135.5020 C   0  0  0  0  0  2  0  0  0  0  0  0
  181.8060  177.0660  139.1570 O   0  0  0  0  0  0  0  0  0  0  0  0
  178.9910  179.4240  134.6970 C   0  0  0  0  0  3  0  0  0  0  0  0
  182.3700  178.8120  141.5680 C   0  0  0  0  0  2  0  0  0  0  0  0
  180.6080  184.8660  136.7320 N   0  0  0  0  0  0  0  0  0  0  0  0
  180.8190  183.6880  136.0750 C   0  0  0  0  0  3  0  0  0  0  0  0
  179.4340  180.3740  137.0720 C   0  0  1  0  0  0  0  0  0  0  0  0
  186.0580  179.0270  141.7940 C   0  0  0  0  0  1  0  0  0  0  0  0
  179.8470  184.9350  137.8670 C   0  0  0  0  0  0  0  0  0  0  0  0
  179.6560  186.1860  138.5180 N   0  0  0  0  0  1  0  0  0  0  0  0
  179.9300  178.4710  134.6180 C   0  0  0  0  0  3  0  0  0  0  0  0
  183.8130  178.3610  141.8110 C   0  0  0  0  0  2  0  0  0  0  0  0
  179.2520  183.7770  138.3940 C   0  0  0  0  0  3  0  0  0  0  0  0
  182.5870  178.2230  139.0610 C   0  0  1  0  0  3  0  0  0  0  0  0
  184.5500  177.5130  137.8840 O   0  0  0  0  0  1  0  0  0  0  0  0
  182.1010  179.2400  140.1200 C   0  0  1  0  0  3  0  0  0  0  0  0
  178.9800  181.3390  138.0290 O   0  0  0  0  0  0  0  0  0  0  0  0
  179.4760  182.5840  137.7130 C   0  0  0  0  0  0  0  0  0  0  0  0
  179.8660  178.8670  139.0410 N   0  0  0  0  0  2  0  0  0  0  0  0
  180.2340  182.5310  136.5820 C   0  0  0  0  0  0  0  0  0  0  0  0
  178.9460  180.6100  135.6390 C   0  0  1  0  0  3  0  0  0  0  0  0
  181.2940  176.5840  137.5730 S   0  0  0  0  0  0  0  0  0  0  0  0
  184.9540  178.9980  139.7260 C   0  0  0  0  0  2  0  0  0  0  0  0
  180.3250  181.1350  136.0650 C   0  0  2  0  0  3  0  0  0  0  0  0
  180.0050  179.0720  137.6330 C   0  0  0  0  0  0  0  0  0  0  0  0
  180.6330  179.6880  139.9750 C   0  0  0  0  0  2  0  0  0  0  0  0
  184.7700  179.2640  141.1670 N   0  0  0  0  0  0  0  0  0  0  0  0
  180.7240  178.1790  136.9130 C   0  0  0  0  0  0  0  0  0  0  0  0
  1 16  1  6  0  0  0
  1 24  1  0  0  0  0
  2 29  1  0  0  0  0
  5 13  1  0  0  0  0
  6 10  1  0  0  0  0
  7 21  1  0  0  0  0
  7  6  2  0  0  0  0
  8 26  1  1  0  0  0
  8 18  1  0  0  0  0
 10 14  2  0  0  0  0
 10 11  1  0  0  0  0
 12  4  2  0  0  0  0
 12  2  1  0  0  0  0
 15  1  1  0  0  0  0
 15  3  1  1  0  0  0
 15 17  1  0  0  0  0
 17 27  1  1  0  0  0
 17  5  1  0  0  0  0
 19 18  1  0  0  0  0
 19 14  1  0  0  0  0
 20 27  1  0  0  0  0
 21 19  2  0  0  0  0
 22  4  1  6  0  0  0
 22 25  1  0  0  0  0
 22  8  1  0  0  0  0
 23  3  1  0  0  0  0
 24 28  1  0  0  0  0
 25 21  1  1  0  0  0
 25  8  1  0  0  0  0
 26 20  1  0  0  0  0
 28  9  1  0  0  0  0
 28 13  1  0  0  0  0
 29 23  1  0  0  0  0
 29 26  2  0  0  0  0
M  END
>  <MODEL>
5

>  <REMARK>
 VINA RESULT:      -5.9      7.091     10.010
  Name = 
  0 active torsions:
  status: ('A' for Active; 'I' for Inactive)
                            x       y       z     vdW  Elec       q    Type
                         _______ _______ _______ _____ _____    ______ ____

>  <TORSDO>
F 0

$$$$
=
 OpenBabel11042411013D

 29 34  0  0  1  0  0  0  0  0999 V2000
  186.1420  178.1810  142.4670 C   0  0  1  0  0  3  0  0  0  0  0  0
  182.9540  177.2780  139.0980 C   0  0  0  0  0  2  0  0  0  0  0  0
  185.8130  179.6090  140.5520 O   0  0  0  0  0  0  0  0  0  0  0  0
  182.5560  176.8060  136.6900 C   0  0  0  0  0  3  0  0  0  0  0  0
  188.7160  178.7880  140.8290 C   0  0  0  0  0  2  0  0  0  0  0  0
  186.5410  172.2810  136.8200 N   0  0  0  0  0  0  0  0  0  0  0  0
  185.4870  173.0030  137.3000 C   0  0  0  0  0  3  0  0  0  0  0  0
  185.1200  176.7060  137.0860 C   0  0  1  0  0  0  0  0  0  0  0  0
  189.0590  177.5110  144.2850 C   0  0  0  0  0  1  0  0  0  0  0  0
  187.6050  172.8790  136.2020 C   0  0  0  0  0  0  0  0  0  0  0  0
  188.6830  172.0850  135.7180 N   0  0  0  0  0  1  0  0  0  0  0  0
  182.1310  177.3110  137.8570 C   0  0  0  0  0  3  0  0  0  0  0  0
  188.7880  178.8120  142.3580 C   0  0  0  0  0  2  0  0  0  0  0  0
  187.6410  174.2740  136.0420 C   0  0  0  0  0  3  0  0  0  0  0  0
  186.1780  178.3130  140.9360 C   0  0  1  0  0  3  0  0  0  0  0  0
  184.8470  177.8780  142.8810 O   0  0  0  0  0  1  0  0  0  0  0  0
  187.5390  177.9680  140.2880 C   0  0  1  0  0  3  0  0  0  0  0  0
  186.3670  176.3580  136.4720 O   0  0  0  0  0  0  0  0  0  0  0  0
  186.5580  174.9960  136.5360 C   0  0  0  0  0  0  0  0  0  0  0  0
  186.3680  178.6090  138.1620 N   0  0  0  0  0  2  0  0  0  0  0  0
  185.5030  174.3860  137.1460 C   0  0  0  0  0  0  0  0  0  0  0  0
  183.8800  176.1290  136.3960 C   0  0  1  0  0  3  0  0  0  0  0  0
  184.1570  179.6110  140.0380 S   0  0  0  0  0  0  0  0  0  0  0  0
  187.1220  177.1280  143.0210 C   0  0  0  0  0  2  0  0  0  0  0  0
  184.4930  175.3880  137.5940 C   0  0  2  0  0  3  0  0  0  0  0  0
  185.1480  177.8680  138.0780 C   0  0  0  0  0  0  0  0  0  0  0  0
  187.5550  177.9900  138.7460 C   0  0  0  0  0  2  0  0  0  0  0  0
  188.5530  177.4820  142.9250 N   0  0  0  0  0  0  0  0  0  0  0  0
  184.1510  178.1560  138.9490 C   0  0  0  0  0  0  0  0  0  0  0  0
  1 16  1  6  0  0  0
  1 24  1  0  0  0  0
  4 12  2  0  0  0  0
  5 13  1  0  0  0  0
  6  7  1  0  0  0  0
  8 18  1  6  0  0  0
  8 25  1  0  0  0  0
  8 26  1  0  0  0  0
 10  6  2  0  0  0  0
 11 10  1  0  0  0  0
 12  2  1  0  0  0  0
 13 28  1  0  0  0  0
 14 10  1  0  0  0  0
 14 19  2  0  0  0  0
 15  3  1  1  0  0  0
 15  1  1  0  0  0  0
 17 27  1  6  0  0  0
 17  5  1  0  0  0  0
 17 15  1  0  0  0  0
 18 19  1  0  0  0  0
 19 21  1  0  0  0  0
 20 27  1  0  0  0  0
 21  7  2  0  0  0  0
 22  4  1  1  0  0  0
 22  8  1  0  0  0  0
 22 25  1  0  0  0  0
 23  3  1  0  0  0  0
 25 21  1  6  0  0  0
 26 20  1  0  0  0  0
 26 29  2  0  0  0  0
 28 24  1  0  0  0  0
 28  9  1  0  0  0  0
 29  2  1  0  0  0  0
 29 23  1  0  0  0  0
M  END
>  <MODEL>
6

>  <REMARK>
 VINA RESULT:      -5.4      2.843      7.436
  Name = 
  0 active torsions:
  status: ('A' for Active; 'I' for Inactive)
                            x       y       z     vdW  Elec       q    Type
                         _______ _______ _______ _____ _____    ______ ____

>  <TORSDO>
F 0

$$$$
=
 OpenBabel11042411013D

 29 34  0  0  1  0  0  0  0  0999 V2000
  188.9660  176.9380  142.9830 C   0  0  1  0  0  3  0  0  0  0  0  0
  185.8170  177.5670  139.5170 C   0  0  0  0  0  2  0  0  0  0  0  0
  188.9410  178.8910  141.5680 O   0  0  0  0  0  0  0  0  0  0  0  0
  185.4490  177.8780  137.0780 C   0  0  0  0  0  3  0  0  0  0  0  0
  191.6680  177.5710  141.5760 C   0  0  0  0  0  2  0  0  0  0  0  0
  188.6750  172.9310  135.8620 N   0  0  0  0  0  0  0  0  0  0  0  0
  187.7260  173.6430  136.5370 C   0  0  0  0  0  3  0  0  0  0  0  0
  187.9470  177.2590  137.4120 C   0  0  1  0  0  0  0  0  0  0  0  0
  191.6680  175.3150  144.5090 C   0  0  0  0  0  1  0  0  0  0  0  0
  189.8430  173.5030  135.4370 C   0  0  0  0  0  0  0  0  0  0  0  0
  190.8030  172.7200  134.7380 N   0  0  0  0  0  1  0  0  0  0  0  0
  185.0600  178.0870  138.3440 C   0  0  0  0  0  3  0  0  0  0  0  0
  191.6800  177.1420  143.0450 C   0  0  0  0  0  2  0  0  0  0  0  0
  190.1010  174.8600  135.6900 C   0  0  0  0  0  3  0  0  0  0  0  0
  189.0850  177.4990  141.5560 C   0  0  1  0  0  3  0  0  0  0  0  0
  187.6240  176.7410  143.2980 O   0  0  0  0  0  1  0  0  0  0  0  0
  190.4000  177.1410  140.8270 C   0  0  1  0  0  3  0  0  0  0  0  0
  189.1490  176.9080  136.7160 O   0  0  0  0  0  0  0  0  0  0  0  0
  189.1240  175.5730  136.3790 C   0  0  0  0  0  0  0  0  0  0  0  0
  189.4310  178.5460  138.9870 N   0  0  0  0  0  2  0  0  0  0  0  0
  187.9640  174.9900  136.7930 C   0  0  0  0  0  0  0  0  0  0  0  0
  186.6620  177.1120  136.5920 C   0  0  1  0  0  3  0  0  0  0  0  0
  187.3280  179.3070  141.0870 S   0  0  0  0  0  0  0  0  0  0  0  0
  189.7470  175.6280  143.2010 C   0  0  0  0  0  2  0  0  0  0  0  0
  187.1030  175.9690  137.5180 C   0  0  2  0  0  3  0  0  0  0  0  0
  188.1150  178.0660  138.6990 C   0  0  0  0  0  0  0  0  0  0  0  0
  190.4830  177.6030  139.3580 C   0  0  0  0  0  2  0  0  0  0  0  0
  191.2190  175.7610  143.2030 N   0  0  0  0  0  0  0  0  0  0  0  0
  187.1400  178.2480  139.6220 C   0  0  0  0  0  0  0  0  0  0  0  0
  1 24  1  0  0  0  0
  1 16  1  6  0  0  0
  2 29  1  0  0  0  0
  4 12  2  0  0  0  0
  5 13  1  0  0  0  0
  6  7  1  0  0  0  0
  7 21  2  0  0  0  0
  8 18  1  6  0  0  0
  8 25  1  0  0  0  0
  8 26  1  0  0  0  0
 10 14  1  0  0  0  0
 10  6  2  0  0  0  0
 11 10  1  0  0  0  0
 12  2  1  0  0  0  0
 13 28  1  0  0  0  0
 14 19  2  0  0  0  0
 15  3  1  1  0  0  0
 15  1  1  0  0  0  0
 17 27  1  6  0  0  0
 17 15  1  0  0  0  0
 17  5  1  0  0  0  0
 19 18  1  0  0  0  0
 19 21  1  0  0  0  0
 20 27  1  0  0  0  0
 22  4  1  1  0  0  0
 22  8  1  0  0  0  0
 22 25  1  0  0  0  0
 23  3  1  0  0  0  0
 24 28  1  0  0  0  0
 25 21  1  6  0  0  0
 26 20  1  0  0  0  0
 26 29  2  0  0  0  0
 28  9  1  0  0  0  0
 29 23  1  0  0  0  0
M  END
>  <MODEL>
7

>  <REMARK>
 VINA RESULT:      -4.8      2.549      7.136
  Name = 
  0 active torsions:
  status: ('A' for Active; 'I' for Inactive)
                            x       y       z     vdW  Elec       q    Type
                         _______ _______ _______ _____ _____    ______ ____

>  <TORSDO>
F 0

$$$$
=
 OpenBabel11042411013D

 29 34  0  0  1  0  0  0  0  0999 V2000
  187.2060  178.3070  140.0730 C   0  0  1  0  0  3  0  0  0  0  0  0
  182.6820  177.0050  139.6550 C   0  0  0  0  0  2  0  0  0  0  0  0
  185.6750  179.3490  138.5290 O   0  0  0  0  0  0  0  0  0  0  0  0
  180.9130  176.0980  138.1640 C   0  0  0  0  0  3  0  0  0  0  0  0
  188.1730  178.3780  137.1170 C   0  0  0  0  0  2  0  0  0  0  0  0
  184.4020  171.3940  136.7250 N   0  0  0  0  0  0  0  0  0  0  0  0
  183.8260  172.2760  137.5930 C   0  0  0  0  0  3  0  0  0  0  0  0
  183.1740  175.8810  136.9060 C   0  0  1  0  0  0  0  0  0  0  0  0
  190.6570  177.7860  139.7960 C   0  0  0  0  0  1  0  0  0  0  0  0
  184.8170  171.7740  135.4780 C   0  0  0  0  0  0  0  0  0  0  0  0
  185.4130  170.8190  134.6070 N   0  0  0  0  0  1  0  0  0  0  0  0
  181.2690  176.8550  139.2100 C   0  0  0  0  0  3  0  0  0  0  0  0
  189.1720  178.6980  138.2320 C   0  0  0  0  0  2  0  0  0  0  0  0
  184.6580  173.1030  135.0510 C   0  0  0  0  0  3  0  0  0  0  0  0
  186.2800  178.1310  138.8580 C   0  0  1  0  0  3  0  0  0  0  0  0
  186.4640  178.1930  141.2470 O   0  0  0  0  0  1  0  0  0  0  0  0
  186.9680  177.5600  137.5970 C   0  0  1  0  0  3  0  0  0  0  0  0
  183.7940  175.3230  135.7410 O   0  0  0  0  0  0  0  0  0  0  0  0
  184.0690  173.9900  135.9480 C   0  0  0  0  0  0  0  0  0  0  0  0
  184.6960  177.8560  136.5700 N   0  0  0  0  0  2  0  0  0  0  0  0
  183.6570  173.5960  137.1860 C   0  0  0  0  0  0  0  0  0  0  0  0
  181.8120  175.2760  137.2620 C   0  0  1  0  0  3  0  0  0  0  0  0
  184.0590  179.3780  139.1560 S   0  0  0  0  0  0  0  0  0  0  0  0
  188.3820  177.3120  140.1050 C   0  0  0  0  0  2  0  0  0  0  0  0
  183.0780  174.7410  137.9460 C   0  0  2  0  0  3  0  0  0  0  0  0
  183.7350  177.2100  137.4080 C   0  0  0  0  0  0  0  0  0  0  0  0
  186.0270  177.2750  136.4080 C   0  0  0  0  0  2  0  0  0  0  0  0
  189.4220  177.5280  139.0780 N   0  0  0  0  0  0  0  0  0  0  0  0
  183.4730  177.7410  138.6260 C   0  0  0  0  0  0  0  0  0  0  0  0
  1 24  1  0  0  0  0
  1 16  1  1  0  0  0
  3 23  1  0  0  0  0
  4 12  2  0  0  0  0
  5 17  1  0  0  0  0
  5 13  1  0  0  0  0
  6  7  1  0  0  0  0
  8 18  1  6  0  0  0
  8 22  1  0  0  0  0
  8 26  1  0  0  0  0
  8 25  1  0  0  0  0
 10  6  2  0  0  0  0
 11 10  1  0  0  0  0
 12  2  1  0  0  0  0
 13 28  1  0  0  0  0
 14 10  1  0  0  0  0
 14 19  2  0  0  0  0
 15  3  1  6  0  0  0
 15  1  1  0  0  0  0
 17 27  1  6  0  0  0
 17 15  1  0  0  0  0
 18 19  1  0  0  0  0
 19 21  1  0  0  0  0
 20 26  1  0  0  0  0
 21  7  2  0  0  0  0
 22 25  1  0  0  0  0
 22  4  1  1  0  0  0
 25 21  1  6  0  0  0
 26 29  2  0  0  0  0
 27 20  1  0  0  0  0
 28  9  1  0  0  0  0
 28 24  1  0  0  0  0
 29 23  1  0  0  0  0
 29  2  1  0  0  0  0
M  END
>  <MODEL>
8

>  <REMARK>
 VINA RESULT:      -4.7      3.124      7.694
  Name = 
  0 active torsions:
  status: ('A' for Active; 'I' for Inactive)
                            x       y       z     vdW  Elec       q    Type
                         _______ _______ _______ _____ _____    ______ ____

>  <TORSDO>
F 0

$$$$
=
 OpenBabel11042411013D

 29 34  0  0  1  0  0  0  0  0999 V2000
  188.7120  177.8950  140.3320 C   0  0  1  0  0  3  0  0  0  0  0  0
  185.5330  177.5000  136.8580 C   0  0  0  0  0  2  0  0  0  0  0  0
  189.0750  178.7660  138.1130 O   0  0  0  0  0  0  0  0  0  0  0  0
  185.0330  176.6060  134.5940 C   0  0  0  0  0  3  0  0  0  0  0  0
  191.3400  176.9430  138.9660 C   0  0  0  0  0  2  0  0  0  0  0  0
  186.6960  171.0690  136.3080 N   0  0  0  0  0  0  0  0  0  0  0  0
  186.0390  172.2560  136.4590 C   0  0  0  0  0  3  0  0  0  0  0  0
  187.2970  175.5840  135.3490 C   0  0  1  0  0  0  0  0  0  0  0  0
  191.0140  176.6110  142.6370 C   0  0  0  0  0  1  0  0  0  0  0  0
  187.9280  170.9940  135.7200 C   0  0  0  0  0  0  0  0  0  0  0  0
  188.5750  169.7340  135.5850 N   0  0  0  0  0  1  0  0  0  0  0  0
  184.8350  177.5320  135.5420 C   0  0  0  0  0  3  0  0  0  0  0  0
  191.3750  177.3430  140.4430 C   0  0  0  0  0  2  0  0  0  0  0  0
  188.5610  172.1560  135.2490 C   0  0  0  0  0  3  0  0  0  0  0  0
  188.8410  177.5870  138.8310 C   0  0  1  0  0  3  0  0  0  0  0  0
  187.4010  178.2670  140.6230 O   0  0  0  0  0  1  0  0  0  0  0  0
  189.9390  176.5600  138.4730 C   0  0  1  0  0  3  0  0  0  0  0  0
  188.2900  174.6100  135.0080 O   0  0  0  0  0  0  0  0  0  0  0  0
  187.8790  173.3590  135.4100 C   0  0  0  0  0  0  0  0  0  0  0  0
  189.2100  177.0270  136.1170 N   0  0  0  0  0  2  0  0  0  0  0  0
  186.6500  173.4170  135.9950 C   0  0  0  0  0  0  0  0  0  0  0  0
  185.9470  175.3990  134.6480 C   0  0  1  0  0  3  0  0  0  0  0  0
  187.5940  179.3020  137.3900 S   0  0  0  0  0  0  0  0  0  0  0  0
  189.1320  176.7250  141.2430 C   0  0  0  0  0  2  0  0  0  0  0  0
  186.1530  174.8220  136.0560 C   0  0  2  0  0  3  0  0  0  0  0  0
  187.7930  176.8530  136.0400 C   0  0  0  0  0  0  0  0  0  0  0  0
  190.0040  176.1600  136.9840 C   0  0  0  0  0  2  0  0  0  0  0  0
  190.5790  176.4280  141.2640 N   0  0  0  0  0  0  0  0  0  0  0  0
  186.9930  177.7420  136.6750 C   0  0  0  0  0  0  0  0  0  0  0  0
  1 16  1  6  0  0  0
  1 24  1  0  0  0  0
  4 12  2  0  0  0  0
  5 13  1  0  0  0  0
  6  7  1  0  0  0  0
  8 18  1  6  0  0  0
  8 26  1  0  0  0  0
  8 25  1  0  0  0  0
 10  6  2  0  0  0  0
 11 10  1  0  0  0  0
 12  2  1  0  0  0  0
 13 28  1  0  0  0  0
 14 19  2  0  0  0  0
 14 10  1  0  0  0  0
 15  3  1  6  0  0  0
 15  1  1  0  0  0  0
 17 27  1  6  0  0  0
 17 15  1  0  0  0  0
 17  5  1  0  0  0  0
 18 19  1  0  0  0  0
 19 21  1  0  0  0  0
 20 27  1  0  0  0  0
 21  7  2  0  0  0  0
 22  4  1  1  0  0  0
 22  8  1  0  0  0  0
 22 25  1  0  0  0  0
 23  3  1  0  0  0  0
 24 28  1  0  0  0  0
 25 21  1  6  0  0  0
 26 20  1  0  0  0  0
 26 29  2  0  0  0  0
 28  9  1  0  0  0  0
 29  2  1  0  0  0  0
 29 23  1  0  0  0  0
M  END
>  <MODEL>
9

>  <REMARK>
 VINA RESULT:      -4.7      2.212      7.111
  Name = 
  0 active torsions:
  status: ('A' for Active; 'I' for Inactive)
                            x       y       z     vdW  Elec       q    Type
                         _______ _______ _______ _____ _____    ______ ____

>  <TORSDO>
F 0

$$$$
