=
 OpenBabel11032421123D

 50 54  0  0  1  0  0  0  0  0999 V2000
  183.7840  179.1230  143.5550 C   0  0  0  0  0  0  0  0  0  0  0  0
  182.6430  178.5920  141.7440 N   0  0  0  0  0  0  0  0  0  0  0  0
  183.8720  178.8900  142.1990 C   0  0  0  0  0  0  0  0  0  0  0  0
  181.8490  178.6380  142.8040 N   0  0  0  0  0  0  0  0  0  0  0  0
  182.4990  178.9700  143.9160 N   0  0  0  0  0  0  0  0  0  0  0  0
  186.0020  179.0060  140.7210 N   0  0  0  0  0  0  0  0  0  0  0  0
  185.0520  178.9560  141.3800 C   0  0  0  0  0  0  0  0  0  0  0  0
  180.4040  178.4480  142.7180 C   0  0  1  0  0  3  0  0  0  0  0  0
  178.9310  179.6480  144.3450 C   0  0  0  0  0  1  0  0  0  0  0  0
  179.7430  178.3930  144.0920 C   0  0  0  0  0  2  0  0  0  0  0  0
  179.7700  179.4880  141.7960 C   0  0  0  0  0  2  0  0  0  0  0  0
  179.0620  178.8670  140.6020 C   0  0  0  0  0  2  0  0  0  0  0  0
  181.3370  178.4630  137.4730 N   0  0  0  0  0  0  0  0  0  0  0  0
  180.6000  178.6500  138.6290 C   0  0  0  0  0  0  0  0  0  0  0  0
  180.8670  179.7040  137.8390 N   0  0  0  0  0  0  0  0  0  0  0  0
  180.0230  178.1120  139.8150 N   0  0  0  0  0  2  0  0  0  0  0  0
  182.0290  177.6290  136.5860 N   0  0  0  0  0  2  0  0  0  0  0  0
  182.4910  176.4730  137.3430 C   0  0  0  0  0  2  0  0  0  0  0  0
  184.2230  172.2100  137.3560 N   0  0  0  0  0  2  0  0  0  0  0  0
  182.4840  174.6320  135.6580 C   0  0  0  0  0  2  0  0  0  0  0  0
  183.1840  173.3850  135.8260 N   0  0  2  0  0  0  0  0  0  0  0  0
  182.5270  172.1160  135.6810 C   0  0  0  0  0  2  0  0  0  0  0  0
  183.3710  175.5850  136.4740 C   0  0  2  0  0  3  0  0  0  0  0  0
  184.2060  174.6260  137.3390 C   0  0  0  0  0  2  0  0  0  0  0  0
  183.4870  173.3840  137.1760 N   0  0  2  0  0  0  0  0  0  0  0  0
  183.4280  171.2520  136.5720 C   0  0  0  0  0  2  0  0  0  0  0  0
  184.8780  179.5180  144.4840 C   0  0  0  0  0  2  0  0  0  0  0  0
  184.7360  178.8120  145.7440 N   0  0  0  0  0  2  0  0  0  0  0  0
  185.9430  179.0870  146.5110 C   0  0  0  0  0  2  0  0  0  0  0  0
  186.8320  177.8490  146.6100 C   0  0  1  0  0  3  0  0  0  0  0  0
  187.8150  177.7500  145.4550 C   0  0  1  0  0  3  0  0  0  0  0  0
  189.0600  177.1320  146.0430 C   0  0  0  0  0  2  0  0  0  0  0  0
  189.0940  177.5990  147.4810 C   0  0  0  0  0  2  0  0  0  0  0  0
  187.6530  177.8420  147.8930 C   0  0  0  0  0  2  0  0  0  0  0  0
  187.2700  176.8710  144.3410 C   0  0  0  0  0  2  0  0  0  0  0  0
  188.3650  176.4040  143.5100 N   0  0  0  0  0  2  0  0  0  0  0  0
  188.6030  177.4200  142.4950 C   0  0  0  0  0  2  0  0  0  0  0  0
  190.0140  177.2910  141.9150 C   0  0  1  0  0  3  0  0  0  0  0  0
  190.7410  176.3570  142.6530 O   0  0  0  0  0  0  0  0  0  0  0  0
  191.6510  177.1150  143.3910 C   0  0  0  0  0  1  0  0  0  0  0  0
  190.0440  176.9200  140.4200 C   0  0  2  0  0  3  0  0  0  0  0  0
  191.3080  177.4250  139.7410 C   0  0  0  0  0  2  0  0  0  0  0  0
  191.8880  176.3530  138.8400 C   0  0  0  0  0  1  0  0  0  0  0  0
  188.8170  177.4090  139.6590 C   0  0  0  0  0  2  0  0  0  0  0  0
  188.9830  177.1730  138.2350 N   0  0  0  0  0  2  0  0  0  0  0  0
  187.8110  175.5330  136.8840 C   0  0  0  0  0  1  0  0  0  0  0  0
  187.6820  176.8010  137.7030 C   0  0  2  0  0  3  0  0  0  0  0  0
  187.1320  177.7740  135.4700 O   0  0  0  0  0  0  0  0  0  0  0  0
  187.1340  177.9040  136.8550 C   0  0  0  0  0  0  0  0  0  0  0  0
  186.7080  178.9660  137.3810 O   0  0  0  0  0  1  0  0  0  0  0  0
  1  5  2  0  0  0  0
  1 27  1  0  0  0  0
  2  3  2  0  0  0  0
  2  4  1  0  0  0  0
  3  1  1  0  0  0  0
  4  5  1  0  0  0  0
  6  7  3  0  0  0  0
  7  3  1  0  0  0  0
  8 11  1  6  0  0  0
  8  4  1  0  0  0  0
  8 10  1  0  0  0  0
 10  9  1  0  0  0  0
 12 11  1  0  0  0  0
 13 15  1  0  0  0  0
 13 14  1  0  0  0  0
 14 16  1  0  0  0  0
 15 14  2  0  0  0  0
 16 12  1  0  0  0  0
 17 18  1  0  0  0  0
 17 13  1  0  0  0  0
 20 23  1  0  0  0  0
 21 20  1  1  0  0  0
 21 25  1  0  0  0  0
 22 21  1  0  0  0  0
 22 26  1  0  0  0  0
 23 24  1  0  0  0  0
 23 18  1  1  0  0  0
 25 24  1  6  0  0  0
 25 19  1  0  0  0  0
 26 19  1  0  0  0  0
 27 28  1  0  0  0  0
 28 29  1  0  0  0  0
 30 29  1  6  0  0  0
 30 34  1  0  0  0  0
 31 35  1  6  0  0  0
 31 32  1  0  0  0  0
 31 30  1  0  0  0  0
 32 33  1  0  0  0  0
 33 34  1  0  0  0  0
 36 35  1  0  0  0  0
 37 36  1  0  0  0  0
 38 37  1  1  0  0  0
 38 39  1  0  0  0  0
 39 40  1  0  0  0  0
 41 44  1  6  0  0  0
 41 38  1  0  0  0  0
 42 41  1  0  0  0  0
 43 42  1  0  0  0  0
 45 44  1  0  0  0  0
 47 46  1  6  0  0  0
 47 45  1  0  0  0  0
 48 49  2  0  0  0  0
 49 50  1  0  0  0  0
 49 47  1  0  0  0  0
M  END
>  <MODEL>
1

>  <REMARK>
 VINA RESULT:      -6.7      0.000      0.000
  Name = 
  24 active torsions:
  status: ('A' for Active; 'I' for Inactive)
    1  A    between atoms: O_2  and  C_16
    2  A    between atoms: N_5  and  CA_17
    3  A    between atoms: N_5  and  C_46
    4  A    between atoms: N_6  and  C_23
    5  A    between atoms: N_6  and  C_31
    6  A    between atoms: N_7  and  N_45
    7  A    between atoms: C_9  and  C_49
    8  A    between atoms: C_14  and  CA_17
    9  A    between atoms: C_16  and  C_23
   10  A    between atoms: C_16  and  C_47
   11  A    between atoms: C_19  and  C_22
   12  A    between atoms: N_20  and  C_22
   13  A    between atoms: N_20  and  C_49
   14  A    between atoms: C_24  and  C_47
   15  A    between atoms: C_25  and  C_34
   16  A    between atoms: C_25  and  N_41
   17  A    between atoms: C_28  and  C_32
   18  A    between atoms: C_29  and  C_38
   19  A    between atoms: C_30  and  C_31
   20  A    between atoms: C_32  and  N_45
   21  A    between atoms: C_33  and  C_35
   22  A    between atoms: C_34  and  C_35
   23  A    between atoms: C_35  and  N_48
   24  A    between atoms: C_46  and  C_47
                            x       y       z     vdW  Elec       q    Type
                         _______ _______ _______ _____ _____    ______ ____

>  <TORSDO>
F 24

$$$$
=
 OpenBabel11032421123D

 50 54  0  0  1  0  0  0  0  0999 V2000
  184.0940  178.6620  142.4880 C   0  0  0  0  0  0  0  0  0  0  0  0
  183.9620  178.6360  144.6890 N   0  0  0  0  0  0  0  0  0  0  0  0
  183.2370  178.7580  143.5630 C   0  0  0  0  0  0  0  0  0  0  0  0
  185.2140  178.4630  144.2910 N   0  0  0  0  0  0  0  0  0  0  0  0
  185.3380  178.4870  142.9670 N   0  0  0  0  0  0  0  0  0  0  0  0
  180.6700  179.1290  143.5020 N   0  0  0  0  0  0  0  0  0  0  0  0
  181.8150  178.9640  143.5270 C   0  0  0  0  0  0  0  0  0  0  0  0
  186.3340  178.3670  145.2230 C   0  0  1  0  0  3  0  0  0  0  0  0
  187.0670  178.2180  147.6110 C   0  0  0  0  0  1  0  0  0  0  0  0
  185.8750  178.3170  146.6780 C   0  0  0  0  0  2  0  0  0  0  0  0
  187.2550  177.2060  144.8520 C   0  0  0  0  0  2  0  0  0  0  0  0
  188.7140  177.6220  144.7400 C   0  0  0  0  0  2  0  0  0  0  0  0
  190.4950  176.7410  141.3970 N   0  0  0  0  0  0  0  0  0  0  0  0
  189.7880  177.0030  142.5570 C   0  0  0  0  0  0  0  0  0  0  0  0
  190.3070  175.7780  142.3620 N   0  0  0  0  0  0  0  0  0  0  0  0
  189.0260  177.9080  143.3500 N   0  0  0  0  0  2  0  0  0  0  0  0
  191.0220  177.1540  140.1660 N   0  0  0  0  0  2  0  0  0  0  0  0
  190.4060  176.3360  139.1300 C   0  0  0  0  0  2  0  0  0  0  0  0
  194.6170  175.4140  137.5210 N   0  0  0  0  0  2  0  0  0  0  0  0
  191.2240  175.0710  137.1410 C   0  0  0  0  0  2  0  0  0  0  0  0
  192.6100  174.9840  136.7560 N   0  0  2  0  0  0  0  0  0  0  0  0
  193.2580  173.7240  136.5250 C   0  0  0  0  0  2  0  0  0  0  0  0
  191.1910  176.4440  137.8310 C   0  0  2  0  0  3  0  0  0  0  0  0
  192.6770  176.7270  138.1090 C   0  0  0  0  0  2  0  0  0  0  0  0
  193.2690  175.4290  137.8880 N   0  0  2  0  0  0  0  0  0  0  0  0
  194.7090  174.1180  136.8300 C   0  0  0  0  0  2  0  0  0  0  0  0
  183.7570  178.7700  141.0420 C   0  0  0  0  0  2  0  0  0  0  0  0
  182.7980  177.7430  140.6790 N   0  0  0  0  0  2  0  0  0  0  0  0
  181.8850  178.3500  139.7200 C   0  0  0  0  0  2  0  0  0  0  0  0
  180.7280  177.4110  139.3850 C   0  0  1  0  0  3  0  0  0  0  0  0
  181.2000  175.9990  139.0790 C   0  0  1  0  0  3  0  0  0  0  0  0
  180.1140  175.0930  139.6070 C   0  0  0  0  0  2  0  0  0  0  0  0
  179.5270  175.8250  140.7930 C   0  0  0  0  0  2  0  0  0  0  0  0
  179.7320  177.3070  140.5320 C   0  0  0  0  0  2  0  0  0  0  0  0
  181.3780  175.7880  137.5840 C   0  0  0  0  0  2  0  0  0  0  0  0
  182.7820  175.9300  137.2370 N   0  0  0  0  0  2  0  0  0  0  0  0
  183.5320  175.0160  138.0870 C   0  0  0  0  0  2  0  0  0  0  0  0
  184.4410  174.1150  137.2480 C   0  0  1  0  0  3  0  0  0  0  0  0
  183.6640  173.2690  136.4560 O   0  0  0  0  0  0  0  0  0  0  0  0
  183.7260  172.0290  137.0920 C   0  0  0  0  0  1  0  0  0  0  0  0
  185.4450  174.8860  136.3680 C   0  0  2  0  0  3  0  0  0  0  0  0
  186.0540  173.9930  135.2980 C   0  0  0  0  0  2  0  0  0  0  0  0
  187.5120  173.7190  135.6050 C   0  0  0  0  0  1  0  0  0  0  0  0
  186.5510  175.5580  137.1730 C   0  0  0  0  0  2  0  0  0  0  0  0
  186.2550  176.9700  137.3490 N   0  0  0  0  0  2  0  0  0  0  0  0
  187.1370  178.2460  139.2150 C   0  0  0  0  0  1  0  0  0  0  0  0
  187.4530  177.6000  137.8810 C   0  0  2  0  0  3  0  0  0  0  0  0
  187.5430  178.6100  135.6000 O   0  0  0  0  0  0  0  0  0  0  0  0
  187.9670  178.6270  136.9250 C   0  0  0  0  0  0  0  0  0  0  0  0
  188.8100  179.4860  137.2980 O   0  0  0  0  0  1  0  0  0  0  0  0
  1  5  2  0  0  0  0
  1  3  1  0  0  0  0
  3  2  2  0  0  0  0
  4  2  1  0  0  0  0
  4  8  1  0  0  0  0
  5  4  1  0  0  0  0
  6  7  3  0  0  0  0
  7  3  1  0  0  0  0
  8 11  1  6  0  0  0
  8 10  1  0  0  0  0
 10  9  1  0  0  0  0
 12 11  1  0  0  0  0
 13 15  1  0  0  0  0
 13 14  1  0  0  0  0
 14 16  1  0  0  0  0
 15 14  2  0  0  0  0
 16 12  1  0  0  0  0
 17 13  1  0  0  0  0
 18 17  1  0  0  0  0
 19 25  1  0  0  0  0
 20 23  1  0  0  0  0
 21 22  1  1  0  0  0
 21 20  1  0  0  0  0
 21 25  1  0  0  0  0
 22 26  1  0  0  0  0
 23 24  1  0  0  0  0
 23 18  1  1  0  0  0
 25 24  1  6  0  0  0
 26 19  1  0  0  0  0
 27  1  1  0  0  0  0
 28 27  1  0  0  0  0
 29 28  1  0  0  0  0
 30 29  1  1  0  0  0
 30 34  1  0  0  0  0
 31 35  1  6  0  0  0
 31 30  1  0  0  0  0
 31 32  1  0  0  0  0
 32 33  1  0  0  0  0
 34 33  1  0  0  0  0
 36 35  1  0  0  0  0
 36 37  1  0  0  0  0
 38 37  1  6  0  0  0
 39 40  1  0  0  0  0
 39 38  1  0  0  0  0
 41 42  1  6  0  0  0
 41 44  1  0  0  0  0
 41 38  1  0  0  0  0
 42 43  1  0  0  0  0
 44 45  1  0  0  0  0
 45 47  1  0  0  0  0
 47 46  1  1  0  0  0
 48 49  2  0  0  0  0
 49 50  1  0  0  0  0
 49 47  1  0  0  0  0
M  END
>  <MODEL>
2

>  <REMARK>
 VINA RESULT:      -6.4      2.371      7.928
  Name = 
  24 active torsions:
  status: ('A' for Active; 'I' for Inactive)
    1  A    between atoms: O_2  and  C_16
    2  A    between atoms: N_5  and  CA_17
    3  A    between atoms: N_5  and  C_46
    4  A    between atoms: N_6  and  C_23
    5  A    between atoms: N_6  and  C_31
    6  A    between atoms: N_7  and  N_45
    7  A    between atoms: C_9  and  C_49
    8  A    between atoms: C_14  and  CA_17
    9  A    between atoms: C_16  and  C_23
   10  A    between atoms: C_16  and  C_47
   11  A    between atoms: C_19  and  C_22
   12  A    between atoms: N_20  and  C_22
   13  A    between atoms: N_20  and  C_49
   14  A    between atoms: C_24  and  C_47
   15  A    between atoms: C_25  and  C_34
   16  A    between atoms: C_25  and  N_41
   17  A    between atoms: C_28  and  C_32
   18  A    between atoms: C_29  and  C_38
   19  A    between atoms: C_30  and  C_31
   20  A    between atoms: C_32  and  N_45
   21  A    between atoms: C_33  and  C_35
   22  A    between atoms: C_34  and  C_35
   23  A    between atoms: C_35  and  N_48
   24  A    between atoms: C_46  and  C_47
                            x       y       z     vdW  Elec       q    Type
                         _______ _______ _______ _____ _____    ______ ____

>  <TORSDO>
F 24

$$$$
=
 OpenBabel11032421123D

 50 54  0  0  1  0  0  0  0  0999 V2000
  190.5240  177.2440  145.3270 C   0  0  0  0  0  0  0  0  0  0  0  0
  189.6260  176.6920  147.2640 N   0  0  0  0  0  0  0  0  0  0  0  0
  190.7600  176.6410  146.5430 C   0  0  0  0  0  0  0  0  0  0  0  0
  188.7440  177.3160  146.4970 N   0  0  0  0  0  0  0  0  0  0  0  0
  189.2430  177.6530  145.3120 N   0  0  0  0  0  0  0  0  0  0  0  0
  192.9730  175.5580  147.3560 N   0  0  0  0  0  0  0  0  0  0  0  0
  191.9870  176.0430  146.9950 C   0  0  0  0  0  0  0  0  0  0  0  0
  187.3500  177.5050  146.8890 C   0  0  1  0  0  3  0  0  0  0  0  0
  188.4100  178.2400  149.0320 C   0  0  0  0  0  1  0  0  0  0  0  0
  187.2090  178.3960  148.1200 C   0  0  0  0  0  2  0  0  0  0  0  0
  186.5110  177.9890  145.7080 C   0  0  0  0  0  2  0  0  0  0  0  0
  185.5150  179.0730  146.0930 C   0  0  0  0  0  2  0  0  0  0  0  0
  183.5800  178.6810  142.7430 N   0  0  0  0  0  0  0  0  0  0  0  0
  184.2810  178.7270  143.9350 C   0  0  0  0  0  0  0  0  0  0  0  0
  184.9420  178.4860  142.7890 N   0  0  0  0  0  0  0  0  0  0  0  0
  184.2810  178.8760  145.3510 N   0  0  0  0  0  2  0  0  0  0  0  0
  182.3810  178.7770  142.0250 N   0  0  0  0  0  2  0  0  0  0  0  0
  182.6630  178.3930  140.6490 C   0  0  0  0  0  2  0  0  0  0  0  0
  181.0810  179.9060  136.6020 N   0  0  0  0  0  2  0  0  0  0  0  0
  181.4850  177.2690  138.7590 C   0  0  0  0  0  2  0  0  0  0  0  0
  180.9770  177.9600  137.6010 N   0  0  2  0  0  0  0  0  0  0  0  0
  181.3140  177.5560  136.2650 C   0  0  0  0  0  2  0  0  0  0  0  0
  181.3800  178.3640  139.8310 C   0  0  2  0  0  3  0  0  0  0  0  0
  181.2310  179.6500  138.9990 C   0  0  0  0  0  2  0  0  0  0  0  0
  181.6040  179.1910  137.6820 N   0  0  2  0  0  0  0  0  0  0  0  0
  181.1370  178.8940  135.5360 C   0  0  0  0  0  2  0  0  0  0  0  0
  191.4700  177.3980  144.1880 C   0  0  0  0  0  2  0  0  0  0  0  0
  191.4410  176.2090  143.3560 N   0  0  0  0  0  2  0  0  0  0  0  0
  190.1540  176.2110  142.6750 C   0  0  0  0  0  2  0  0  0  0  0  0
  190.0450  177.3820  141.6990 C   0  0  1  0  0  3  0  0  0  0  0  0
  190.0900  176.9310  140.2480 C   0  0  1  0  0  3  0  0  0  0  0  0
  189.1770  177.8780  139.5090 C   0  0  0  0  0  2  0  0  0  0  0  0
  188.1110  178.2650  140.5090 C   0  0  0  0  0  2  0  0  0  0  0  0
  188.7460  178.1540  141.8840 C   0  0  0  0  0  2  0  0  0  0  0  0
  191.5000  177.0160  139.6880 C   0  0  0  0  0  2  0  0  0  0  0  0
  191.4430  177.1020  138.2390 N   0  0  0  0  0  2  0  0  0  0  0  0
  192.3110  176.0600  137.7090 C   0  0  0  0  0  2  0  0  0  0  0  0
  192.0510  175.8410  136.2170 C   0  0  1  0  0  3  0  0  0  0  0  0
  192.9470  174.8950  135.7170 O   0  0  0  0  0  0  0  0  0  0  0  0
  194.1260  175.6050  135.4910 C   0  0  0  0  0  1  0  0  0  0  0  0
  190.6040  175.4210  135.8900 C   0  0  2  0  0  3  0  0  0  0  0  0
  190.5460  174.0200  135.3000 C   0  0  0  0  0  2  0  0  0  0  0  0
  189.5190  173.1800  136.0330 C   0  0  0  0  0  1  0  0  0  0  0  0
  189.8930  176.4020  134.9650 C   0  0  0  0  0  2  0  0  0  0  0  0
  189.0500  177.2980  135.7380 N   0  0  0  0  0  2  0  0  0  0  0  0
  186.9140  178.0250  134.8470 C   0  0  0  0  0  1  0  0  0  0  0  0
  187.6710  176.8950  135.5150 C   0  0  2  0  0  3  0  0  0  0  0  0
  186.0310  177.3660  137.3370 O   0  0  0  0  0  0  0  0  0  0  0  0
  187.0180  176.5390  136.8120 C   0  0  0  0  0  0  0  0  0  0  0  0
  187.3800  175.5160  137.4520 O   0  0  0  0  0  1  0  0  0  0  0  0
  1  3  1  0  0  0  0
  3  7  1  0  0  0  0
  3  2  2  0  0  0  0
  4  8  1  0  0  0  0
  4  2  1  0  0  0  0
  5  1  2  0  0  0  0
  5  4  1  0  0  0  0
  7  6  3  0  0  0  0
  8 11  1  6  0  0  0
  8 10  1  0  0  0  0
 10  9  1  0  0  0  0
 11 12  1  0  0  0  0
 13 15  1  0  0  0  0
 13 14  1  0  0  0  0
 14 16  1  0  0  0  0
 15 14  2  0  0  0  0
 16 12  1  0  0  0  0
 17 13  1  0  0  0  0
 18 17  1  0  0  0  0
 19 25  1  0  0  0  0
 20 23  1  0  0  0  0
 21 22  1  6  0  0  0
 21 25  1  0  0  0  0
 21 20  1  0  0  0  0
 23 18  1  6  0  0  0
 24 23  1  0  0  0  0
 25 24  1  1  0  0  0
 26 22  1  0  0  0  0
 26 19  1  0  0  0  0
 27  1  1  0  0  0  0
 28 27  1  0  0  0  0
 29 28  1  0  0  0  0
 30 34  1  0  0  0  0
 30 29  1  1  0  0  0
 31 35  1  6  0  0  0
 31 30  1  0  0  0  0
 32 31  1  0  0  0  0
 32 33  1  0  0  0  0
 33 34  1  0  0  0  0
 36 35  1  0  0  0  0
 37 36  1  0  0  0  0
 38 37  1  1  0  0  0
 39 38  1  0  0  0  0
 40 39  1  0  0  0  0
 41 44  1  6  0  0  0
 41 38  1  0  0  0  0
 42 41  1  0  0  0  0
 42 43  1  0  0  0  0
 44 45  1  0  0  0  0
 47 46  1  1  0  0  0
 47 45  1  0  0  0  0
 47 49  1  0  0  0  0
 49 48  2  0  0  0  0
 49 50  1  0  0  0  0
M  END
>  <MODEL>
3

>  <REMARK>
 VINA RESULT:      -6.4      2.793      6.617
  Name = 
  24 active torsions:
  status: ('A' for Active; 'I' for Inactive)
    1  A    between atoms: O_2  and  C_16
    2  A    between atoms: N_5  and  CA_17
    3  A    between atoms: N_5  and  C_46
    4  A    between atoms: N_6  and  C_23
    5  A    between atoms: N_6  and  C_31
    6  A    between atoms: N_7  and  N_45
    7  A    between atoms: C_9  and  C_49
    8  A    between atoms: C_14  and  CA_17
    9  A    between atoms: C_16  and  C_23
   10  A    between atoms: C_16  and  C_47
   11  A    between atoms: C_19  and  C_22
   12  A    between atoms: N_20  and  C_22
   13  A    between atoms: N_20  and  C_49
   14  A    between atoms: C_24  and  C_47
   15  A    between atoms: C_25  and  C_34
   16  A    between atoms: C_25  and  N_41
   17  A    between atoms: C_28  and  C_32
   18  A    between atoms: C_29  and  C_38
   19  A    between atoms: C_30  and  C_31
   20  A    between atoms: C_32  and  N_45
   21  A    between atoms: C_33  and  C_35
   22  A    between atoms: C_34  and  C_35
   23  A    between atoms: C_35  and  N_48
   24  A    between atoms: C_46  and  C_47
                            x       y       z     vdW  Elec       q    Type
                         _______ _______ _______ _____ _____    ______ ____

>  <TORSDO>
F 24

$$$$
=
 OpenBabel11032421123D

 50 54  0  0  1  0  0  0  0  0999 V2000
  188.7060  176.9650  143.3710 C   0  0  0  0  0  0  0  0  0  0  0  0
  187.8900  177.9290  145.1780 N   0  0  0  0  0  0  0  0  0  0  0  0
  188.9880  177.3490  144.6640 C   0  0  0  0  0  0  0  0  0  0  0  0
  186.9830  177.8960  144.2120 N   0  0  0  0  0  0  0  0  0  0  0  0
  187.4330  177.3080  143.1080 N   0  0  0  0  0  0  0  0  0  0  0  0
  191.2190  177.0280  145.9500 N   0  0  0  0  0  0  0  0  0  0  0  0
  190.2250  177.1700  145.3760 C   0  0  0  0  0  0  0  0  0  0  0  0
  185.6120  178.3640  144.3980 C   0  0  1  0  0  3  0  0  0  0  0  0
  184.9370  178.2870  146.8060 C   0  0  0  0  0  1  0  0  0  0  0  0
  185.4440  179.1700  145.6830 C   0  0  0  0  0  2  0  0  0  0  0  0
  185.1170  179.1090  143.1600 C   0  0  0  0  0  2  0  0  0  0  0  0
  183.7560  178.6240  142.6830 C   0  0  0  0  0  2  0  0  0  0  0  0
  184.1950  178.5540  138.8190 N   0  0  0  0  0  0  0  0  0  0  0  0
  184.1330  178.5830  140.2010 C   0  0  0  0  0  0  0  0  0  0  0  0
  184.4640  179.7010  139.5310 N   0  0  0  0  0  0  0  0  0  0  0  0
  183.9180  177.9010  141.4320 N   0  0  0  0  0  2  0  0  0  0  0  0
  184.0640  177.8710  137.6030 N   0  0  0  0  0  2  0  0  0  0  0  0
  185.2920  177.1170  137.3900 C   0  0  0  0  0  2  0  0  0  0  0  0
  181.6610  174.3750  136.7060 N   0  0  0  0  0  2  0  0  0  0  0  0
  184.8040  175.3310  135.7180 C   0  0  0  0  0  2  0  0  0  0  0  0
  183.6230  174.5080  135.7400 N   0  0  2  0  0  0  0  0  0  0  0  0
  182.7700  174.3680  134.5940 C   0  0  0  0  0  2  0  0  0  0  0  0
  184.9840  175.6380  137.2130 C   0  0  2  0  0  3  0  0  0  0  0  0
  183.6080  175.2880  137.8050 C   0  0  0  0  0  2  0  0  0  0  0  0
  182.7940  175.1870  136.6160 N   0  0  2  0  0  0  0  0  0  0  0  0
  181.4470  174.0280  135.2920 C   0  0  0  0  0  2  0  0  0  0  0  0
  189.6010  176.2560  142.4160 C   0  0  0  0  0  2  0  0  0  0  0  0
  190.1390  177.1960  141.4500 N   0  0  0  0  0  2  0  0  0  0  0  0
  189.1770  177.2630  140.3590 C   0  0  0  0  0  2  0  0  0  0  0  0
  189.8600  177.6180  139.0390 C   0  0  1  0  0  3  0  0  0  0  0  0
  189.8120  176.4740  138.0380 C   0  0  1  0  0  3  0  0  0  0  0  0
  189.6840  177.1340  136.6860 C   0  0  0  0  0  2  0  0  0  0  0  0
  188.9130  178.4100  136.9380 C   0  0  0  0  0  2  0  0  0  0  0  0
  189.2090  178.8210  138.3700 C   0  0  0  0  0  2  0  0  0  0  0  0
  191.0790  175.6370  138.0960 C   0  0  0  0  0  2  0  0  0  0  0  0
  192.2170  176.4960  138.3750 N   0  0  0  0  0  2  0  0  0  0  0  0
  193.1410  176.3680  137.2570 C   0  0  0  0  0  2  0  0  0  0  0  0
  192.8860  175.0700  136.4860 C   0  0  1  0  0  3  0  0  0  0  0  0
  192.4560  175.3680  135.1930 O   0  0  0  0  0  0  0  0  0  0  0  0
  193.4820  176.1380  134.6450 C   0  0  0  0  0  1  0  0  0  0  0  0
  194.1030  174.1260  136.4320 C   0  0  2  0  0  3  0  0  0  0  0  0
  193.6790  172.6650  136.4050 C   0  0  0  0  0  2  0  0  0  0  0  0
  193.9370  172.0650  135.0370 C   0  0  0  0  0  1  0  0  0  0  0  0
  195.0880  174.3580  137.5710 C   0  0  0  0  0  2  0  0  0  0  0  0
  196.2710  175.0440  137.0780 N   0  0  0  0  0  2  0  0  0  0  0  0
  197.0450  172.8670  137.8190 C   0  0  0  0  0  1  0  0  0  0  0  0
  197.4300  174.3100  137.5620 C   0  0  2  0  0  3  0  0  0  0  0  0
  197.0660  175.2880  139.8290 O   0  0  0  0  0  1  0  0  0  0  0  0
  197.9510  174.9320  138.8180 C   0  0  0  0  0  0  0  0  0  0  0  0
  199.1800  175.1700  138.9520 O   0  0  0  0  0  0  0  0  0  0  0  0
  1  3  1  0  0  0  0
  3  2  2  0  0  0  0
  3  7  1  0  0  0  0
  4  8  1  0  0  0  0
  4  2  1  0  0  0  0
  5  1  2  0  0  0  0
  5  4  1  0  0  0  0
  7  6  3  0  0  0  0
  8 11  1  6  0  0  0
  8 10  1  0  0  0  0
 10  9  1  0  0  0  0
 12 11  1  0  0  0  0
 13 15  1  0  0  0  0
 13 14  1  0  0  0  0
 14 16  1  0  0  0  0
 15 14  2  0  0  0  0
 16 12  1  0  0  0  0
 17 13  1  0  0  0  0
 18 17  1  0  0  0  0
 20 21  1  0  0  0  0
 20 23  1  0  0  0  0
 21 22  1  6  0  0  0
 21 25  1  0  0  0  0
 22 26  1  0  0  0  0
 23 18  1  6  0  0  0
 23 24  1  0  0  0  0
 25 19  1  0  0  0  0
 25 24  1  1  0  0  0
 26 19  1  0  0  0  0
 27  1  1  0  0  0  0
 28 27  1  0  0  0  0
 29 28  1  0  0  0  0
 30 29  1  1  0  0  0
 31 35  1  6  0  0  0
 31 30  1  0  0  0  0
 32 33  1  0  0  0  0
 32 31  1  0  0  0  0
 33 34  1  0  0  0  0
 34 30  1  0  0  0  0
 35 36  1  0  0  0  0
 37 36  1  0  0  0  0
 38 37  1  6  0  0  0
 39 38  1  0  0  0  0
 40 39  1  0  0  0  0
 41 42  1  1  0  0  0
 41 38  1  0  0  0  0
 41 44  1  0  0  0  0
 43 42  1  0  0  0  0
 45 47  1  0  0  0  0
 45 44  1  0  0  0  0
 47 46  1  1  0  0  0
 47 49  1  0  0  0  0
 49 50  2  0  0  0  0
 49 48  1  0  0  0  0
M  END
>  <MODEL>
4

>  <REMARK>
 VINA RESULT:      -6.3      3.434      6.764
  Name = 
  24 active torsions:
  status: ('A' for Active; 'I' for Inactive)
    1  A    between atoms: O_2  and  C_16
    2  A    between atoms: N_5  and  CA_17
    3  A    between atoms: N_5  and  C_46
    4  A    between atoms: N_6  and  C_23
    5  A    between atoms: N_6  and  C_31
    6  A    between atoms: N_7  and  N_45
    7  A    between atoms: C_9  and  C_49
    8  A    between atoms: C_14  and  CA_17
    9  A    between atoms: C_16  and  C_23
   10  A    between atoms: C_16  and  C_47
   11  A    between atoms: C_19  and  C_22
   12  A    between atoms: N_20  and  C_22
   13  A    between atoms: N_20  and  C_49
   14  A    between atoms: C_24  and  C_47
   15  A    between atoms: C_25  and  C_34
   16  A    between atoms: C_25  and  N_41
   17  A    between atoms: C_28  and  C_32
   18  A    between atoms: C_29  and  C_38
   19  A    between atoms: C_30  and  C_31
   20  A    between atoms: C_32  and  N_45
   21  A    between atoms: C_33  and  C_35
   22  A    between atoms: C_34  and  C_35
   23  A    between atoms: C_35  and  N_48
   24  A    between atoms: C_46  and  C_47
                            x       y       z     vdW  Elec       q    Type
                         _______ _______ _______ _____ _____    ______ ____

>  <TORSDO>
F 24

$$$$
=
 OpenBabel11032421123D

 50 54  0  0  1  0  0  0  0  0999 V2000
  185.1820  178.5730  142.2480 C   0  0  0  0  0  0  0  0  0  0  0  0
  185.5630  178.0420  144.3540 N   0  0  0  0  0  0  0  0  0  0  0  0
  184.6090  178.4360  143.4940 C   0  0  0  0  0  0  0  0  0  0  0  0
  186.6720  177.9400  143.6350 N   0  0  0  0  0  0  0  0  0  0  0  0
  186.4860  178.2660  142.3590 N   0  0  0  0  0  0  0  0  0  0  0  0
  182.1330  178.8680  144.1420 N   0  0  0  0  0  0  0  0  0  0  0  0
  183.2360  178.6740  143.8510 C   0  0  0  0  0  0  0  0  0  0  0  0
  187.9680  177.6080  144.2210 C   0  0  1  0  0  3  0  0  0  0  0  0
  188.6790  177.7860  146.6130 C   0  0  0  0  0  1  0  0  0  0  0  0
  187.8350  177.0120  145.6190 C   0  0  0  0  0  2  0  0  0  0  0  0
  188.7860  176.7310  143.2760 C   0  0  0  0  0  2  0  0  0  0  0  0
  189.7930  177.5230  142.4570 C   0  0  0  0  0  2  0  0  0  0  0  0
  191.7930  176.9690  139.1670 N   0  0  0  0  0  0  0  0  0  0  0  0
  191.1320  177.0970  140.3760 C   0  0  0  0  0  0  0  0  0  0  0  0
  192.4060  177.5140  140.2730 N   0  0  0  0  0  0  0  0  0  0  0  0
  189.9620  176.8870  141.1610 N   0  0  0  0  0  2  0  0  0  0  0  0
  191.8160  176.5870  137.8200 N   0  0  0  0  0  2  0  0  0  0  0  0
  191.9400  175.1370  137.7790 C   0  0  0  0  0  2  0  0  0  0  0  0
  196.2340  175.8260  136.2770 N   0  0  0  0  0  2  0  0  0  0  0  0
  193.7700  173.5840  137.0960 C   0  0  0  0  0  2  0  0  0  0  0  0
  195.0310  174.0160  136.5510 N   0  0  2  0  0  0  0  0  0  0  0  0
  196.2860  173.5880  137.1020 C   0  0  0  0  0  2  0  0  0  0  0  0
  192.8390  174.7120  136.6260 C   0  0  2  0  0  3  0  0  0  0  0  0
  193.8190  175.8370  136.2520 C   0  0  0  0  0  2  0  0  0  0  0  0
  195.0460  175.3670  136.8510 N   0  0  2  0  0  0  0  0  0  0  0  0
  197.1730  174.7660  136.6780 C   0  0  0  0  0  2  0  0  0  0  0  0
  184.5270  179.0180  140.9880 C   0  0  0  0  0  2  0  0  0  0  0  0
  183.7620  177.9260  140.4140 N   0  0  0  0  0  2  0  0  0  0  0  0
  182.5310  178.5090  139.8980 C   0  0  0  0  0  2  0  0  0  0  0  0
  182.6670  178.8750  138.4220 C   0  0  1  0  0  3  0  0  0  0  0  0
  182.3390  177.7080  137.5040 C   0  0  1  0  0  3  0  0  0  0  0  0
  181.6880  178.3260  136.2910 C   0  0  0  0  0  2  0  0  0  0  0  0
  180.9750  179.5560  136.8060 C   0  0  0  0  0  2  0  0  0  0  0  0
  181.7390  180.0190  138.0340 C   0  0  0  0  0  2  0  0  0  0  0  0
  183.5960  176.9550  137.1000 C   0  0  0  0  0  2  0  0  0  0  0  0
  183.2360  175.8170  136.2730 N   0  0  0  0  0  2  0  0  0  0  0  0
  184.3800  175.5200  135.4230 C   0  0  0  0  0  2  0  0  0  0  0  0
  185.4210  174.6920  136.1800 C   0  0  1  0  0  3  0  0  0  0  0  0
  184.9380  173.3980  136.3790 O   0  0  0  0  0  0  0  0  0  0  0  0
  185.0500  173.1820  137.7530 C   0  0  0  0  0  1  0  0  0  0  0  0
  186.7990  174.6400  135.4930 C   0  0  2  0  0  3  0  0  0  0  0  0
  187.1490  173.2310  135.0400 C   0  0  0  0  0  2  0  0  0  0  0  0
  188.3830  172.7330  135.7650 C   0  0  0  0  0  1  0  0  0  0  0  0
  187.9200  175.1980  136.3620 C   0  0  0  0  0  2  0  0  0  0  0  0
  187.3890  176.1700  137.3030 N   0  0  0  0  0  2  0  0  0  0  0  0
  189.0270  177.3670  135.9730 C   0  0  0  0  0  1  0  0  0  0  0  0
  187.7860  177.4880  136.8340 C   0  0  2  0  0  3  0  0  0  0  0  0
  189.0820  179.3260  137.9170 O   0  0  0  0  0  0  0  0  0  0  0  0
  188.0540  178.3920  137.9940 C   0  0  0  0  0  0  0  0  0  0  0  0
  187.3830  178.2900  139.0550 O   0  0  0  0  0  1  0  0  0  0  0  0
  1  5  2  0  0  0  0
  1  3  1  0  0  0  0
  3  7  1  0  0  0  0
  3  2  2  0  0  0  0
  4  8  1  0  0  0  0
  4  2  1  0  0  0  0
  5  4  1  0  0  0  0
  7  6  3  0  0  0  0
  8 11  1  6  0  0  0
  8 10  1  0  0  0  0
 10  9  1  0  0  0  0
 12 11  1  0  0  0  0
 13 15  1  0  0  0  0
 13 14  1  0  0  0  0
 14 16  1  0  0  0  0
 15 14  2  0  0  0  0
 16 12  1  0  0  0  0
 17 13  1  0  0  0  0
 18 17  1  0  0  0  0
 19 26  1  0  0  0  0
 19 25  1  0  0  0  0
 21 25  1  0  0  0  0
 21 20  1  1  0  0  0
 21 22  1  0  0  0  0
 23 20  1  0  0  0  0
 23 18  1  1  0  0  0
 24 23  1  0  0  0  0
 25 24  1  6  0  0  0
 26 22  1  0  0  0  0
 27  1  1  0  0  0  0
 28 27  1  0  0  0  0
 29 28  1  0  0  0  0
 30 29  1  1  0  0  0
 31 35  1  6  0  0  0
 31 30  1  0  0  0  0
 32 33  1  0  0  0  0
 32 31  1  0  0  0  0
 33 34  1  0  0  0  0
 34 30  1  0  0  0  0
 36 35  1  0  0  0  0
 37 36  1  0  0  0  0
 38 37  1  6  0  0  0
 38 39  1  0  0  0  0
 39 40  1  0  0  0  0
 41 42  1  1  0  0  0
 41 38  1  0  0  0  0
 41 44  1  0  0  0  0
 42 43  1  0  0  0  0
 44 45  1  0  0  0  0
 47 46  1  1  0  0  0
 47 45  1  0  0  0  0
 47 49  1  0  0  0  0
 48 49  2  0  0  0  0
 49 50  1  0  0  0  0
M  END
>  <MODEL>
5

>  <REMARK>
 VINA RESULT:      -6.3      2.910      8.646
  Name = 
  24 active torsions:
  status: ('A' for Active; 'I' for Inactive)
    1  A    between atoms: O_2  and  C_16
    2  A    between atoms: N_5  and  CA_17
    3  A    between atoms: N_5  and  C_46
    4  A    between atoms: N_6  and  C_23
    5  A    between atoms: N_6  and  C_31
    6  A    between atoms: N_7  and  N_45
    7  A    between atoms: C_9  and  C_49
    8  A    between atoms: C_14  and  CA_17
    9  A    between atoms: C_16  and  C_23
   10  A    between atoms: C_16  and  C_47
   11  A    between atoms: C_19  and  C_22
   12  A    between atoms: N_20  and  C_22
   13  A    between atoms: N_20  and  C_49
   14  A    between atoms: C_24  and  C_47
   15  A    between atoms: C_25  and  C_34
   16  A    between atoms: C_25  and  N_41
   17  A    between atoms: C_28  and  C_32
   18  A    between atoms: C_29  and  C_38
   19  A    between atoms: C_30  and  C_31
   20  A    between atoms: C_32  and  N_45
   21  A    between atoms: C_33  and  C_35
   22  A    between atoms: C_34  and  C_35
   23  A    between atoms: C_35  and  N_48
   24  A    between atoms: C_46  and  C_47
                            x       y       z     vdW  Elec       q    Type
                         _______ _______ _______ _____ _____    ______ ____

>  <TORSDO>
F 24

$$$$
=
 OpenBabel11032421123D

 50 54  0  0  1  0  0  0  0  0999 V2000
  190.2840  177.1740  145.0760 C   0  0  0  0  0  0  0  0  0  0  0  0
  188.9000  177.1660  146.7930 N   0  0  0  0  0  0  0  0  0  0  0  0
  190.1920  177.0350  146.4440 C   0  0  0  0  0  0  0  0  0  0  0  0
  188.2460  177.3850  145.6620 N   0  0  0  0  0  0  0  0  0  0  0  0
  189.0450  177.3830  144.5990 N   0  0  0  0  0  0  0  0  0  0  0  0
  192.1270  176.5780  148.1120 N   0  0  0  0  0  0  0  0  0  0  0  0
  191.2650  176.7840  147.3690 C   0  0  0  0  0  0  0  0  0  0  0  0
  186.7920  177.5050  145.6000 C   0  0  1  0  0  3  0  0  0  0  0  0
  184.9020  178.2880  147.0410 C   0  0  0  0  0  1  0  0  0  0  0  0
  186.2660  178.6380  146.4770 C   0  0  0  0  0  2  0  0  0  0  0  0
  186.3130  177.6050  144.1520 C   0  0  0  0  0  2  0  0  0  0  0  0
  185.3340  178.7470  143.9300 C   0  0  0  0  0  2  0  0  0  0  0  0
  183.9720  179.0210  140.2970 N   0  0  0  0  0  0  0  0  0  0  0  0
  184.5130  178.8550  141.5600 C   0  0  0  0  0  0  0  0  0  0  0  0
  185.2500  179.4360  140.5970 N   0  0  0  0  0  0  0  0  0  0  0  0
  184.3870  178.3710  142.8940 N   0  0  0  0  0  2  0  0  0  0  0  0
  182.9100  178.8840  139.3950 N   0  0  0  0  0  2  0  0  0  0  0  0
  182.6860  180.1860  138.7820 C   0  0  0  0  0  2  0  0  0  0  0  0
  180.0010  183.1620  136.5230 N   0  0  0  0  0  2  0  0  0  0  0  0
  181.0930  179.9300  136.8790 C   0  0  0  0  0  2  0  0  0  0  0  0
  180.2610  180.9920  136.3770 N   0  0  2  0  0  0  0  0  0  0  0  0
  180.2410  181.3530  134.9870 C   0  0  0  0  0  2  0  0  0  0  0  0
  181.2320  180.3310  138.3550 C   0  0  2  0  0  3  0  0  0  0  0  0
  180.8040  181.8080  138.3550 C   0  0  0  0  0  2  0  0  0  0  0  0
  180.8290  182.1190  136.9440 N   0  0  2  0  0  0  0  0  0  0  0  0
  179.8120  182.8210  135.1040 C   0  0  0  0  0  2  0  0  0  0  0  0
  191.5060  177.0740  144.2320 C   0  0  0  0  0  2  0  0  0  0  0  0
  191.1820  176.4430  142.9650 N   0  0  0  0  0  2  0  0  0  0  0  0
  191.8230  177.2410  141.9290 C   0  0  0  0  0  2  0  0  0  0  0  0
  190.7940  177.8210  140.9600 C   0  0  1  0  0  3  0  0  0  0  0  0
  190.1360  176.7490  140.1060 C   0  0  1  0  0  3  0  0  0  0  0  0
  188.7160  177.2190  139.9020 C   0  0  0  0  0  2  0  0  0  0  0  0
  188.3710  177.9970  141.1520 C   0  0  0  0  0  2  0  0  0  0  0  0
  189.6770  178.5550  141.6900 C   0  0  0  0  0  2  0  0  0  0  0  0
  190.8390  176.6030  138.7660 C   0  0  0  0  0  2  0  0  0  0  0  0
  189.9550  175.9390  137.8240 N   0  0  0  0  0  2  0  0  0  0  0  0
  190.1650  176.5580  136.5230 C   0  0  0  0  0  2  0  0  0  0  0  0
  189.3320  175.8580  135.4460 C   0  0  1  0  0  3  0  0  0  0  0  0
  190.1690  175.1080  134.6190 O   0  0  0  0  0  0  0  0  0  0  0  0
  191.3720  175.8150  134.5940 C   0  0  0  0  0  1  0  0  0  0  0  0
  188.2090  174.9650  136.0070 C   0  0  2  0  0  3  0  0  0  0  0  0
  188.2690  173.5580  135.4300 C   0  0  0  0  0  2  0  0  0  0  0  0
  188.1980  172.5280  136.5400 C   0  0  0  0  0  1  0  0  0  0  0  0
  186.8180  175.5520  135.7950 C   0  0  0  0  0  2  0  0  0  0  0  0
  186.0810  175.5590  137.0480 N   0  0  0  0  0  2  0  0  0  0  0  0
  184.7050  174.4770  135.3690 C   0  0  0  0  0  1  0  0  0  0  0  0
  184.7440  175.0610  136.7660 C   0  0  2  0  0  3  0  0  0  0  0  0
  184.0290  177.4170  136.3530 O   0  0  0  0  0  0  0  0  0  0  0  0
  183.7430  176.1650  136.8870 C   0  0  0  0  0  0  0  0  0  0  0  0
  182.6590  175.9830  137.5020 O   0  0  0  0  0  1  0  0  0  0  0  0
  1  3  1  0  0  0  0
  3  2  2  0  0  0  0
  3  7  1  0  0  0  0
  4  2  1  0  0  0  0
  5  1  2  0  0  0  0
  5  4  1  0  0  0  0
  7  6  3  0  0  0  0
  8 11  1  6  0  0  0
  8  4  1  0  0  0  0
  8 10  1  0  0  0  0
 10  9  1  0  0  0  0
 12 11  1  0  0  0  0
 13 15  1  0  0  0  0
 13 14  1  0  0  0  0
 14 16  1  0  0  0  0
 15 14  2  0  0  0  0
 16 12  1  0  0  0  0
 17 13  1  0  0  0  0
 18 17  1  0  0  0  0
 19 25  1  0  0  0  0
 20 23  1  0  0  0  0
 21 22  1  6  0  0  0
 21 20  1  0  0  0  0
 21 25  1  0  0  0  0
 22 26  1  0  0  0  0
 23 24  1  0  0  0  0
 23 18  1  6  0  0  0
 25 24  1  1  0  0  0
 26 19  1  0  0  0  0
 27  1  1  0  0  0  0
 28 27  1  0  0  0  0
 29 28  1  0  0  0  0
 30 34  1  0  0  0  0
 30 29  1  1  0  0  0
 31 35  1  6  0  0  0
 31 30  1  0  0  0  0
 32 31  1  0  0  0  0
 32 33  1  0  0  0  0
 33 34  1  0  0  0  0
 36 35  1  0  0  0  0
 37 36  1  0  0  0  0
 38 41  1  0  0  0  0
 38 37  1  1  0  0  0
 39 38  1  0  0  0  0
 40 39  1  0  0  0  0
 41 42  1  6  0  0  0
 42 43  1  0  0  0  0
 44 41  1  0  0  0  0
 44 45  1  0  0  0  0
 47 46  1  6  0  0  0
 47 49  1  0  0  0  0
 47 45  1  0  0  0  0
 48 49  2  0  0  0  0
 49 50  1  0  0  0  0
M  END
>  <MODEL>
6

>  <REMARK>
 VINA RESULT:      -6.2      2.746      6.872
  Name = 
  24 active torsions:
  status: ('A' for Active; 'I' for Inactive)
    1  A    between atoms: O_2  and  C_16
    2  A    between atoms: N_5  and  CA_17
    3  A    between atoms: N_5  and  C_46
    4  A    between atoms: N_6  and  C_23
    5  A    between atoms: N_6  and  C_31
    6  A    between atoms: N_7  and  N_45
    7  A    between atoms: C_9  and  C_49
    8  A    between atoms: C_14  and  CA_17
    9  A    between atoms: C_16  and  C_23
   10  A    between atoms: C_16  and  C_47
   11  A    between atoms: C_19  and  C_22
   12  A    between atoms: N_20  and  C_22
   13  A    between atoms: N_20  and  C_49
   14  A    between atoms: C_24  and  C_47
   15  A    between atoms: C_25  and  C_34
   16  A    between atoms: C_25  and  N_41
   17  A    between atoms: C_28  and  C_32
   18  A    between atoms: C_29  and  C_38
   19  A    between atoms: C_30  and  C_31
   20  A    between atoms: C_32  and  N_45
   21  A    between atoms: C_33  and  C_35
   22  A    between atoms: C_34  and  C_35
   23  A    between atoms: C_35  and  N_48
   24  A    between atoms: C_46  and  C_47
                            x       y       z     vdW  Elec       q    Type
                         _______ _______ _______ _____ _____    ______ ____

>  <TORSDO>
F 24

$$$$
=
 OpenBabel11032421123D

 50 54  0  0  1  0  0  0  0  0999 V2000
  186.3880  177.8360  138.0420 C   0  0  0  0  0  0  0  0  0  0  0  0
  188.3070  176.7540  138.1330 N   0  0  0  0  0  0  0  0  0  0  0  0
  187.5310  177.6360  138.7860 C   0  0  0  0  0  0  0  0  0  0  0  0
  187.6370  176.4340  137.0350 N   0  0  0  0  0  0  0  0  0  0  0  0
  186.4780  177.0780  136.9360 N   0  0  0  0  0  0  0  0  0  0  0  0
  188.1450  178.7470  141.0490 N   0  0  0  0  0  0  0  0  0  0  0  0
  187.8730  178.2520  140.0390 C   0  0  0  0  0  0  0  0  0  0  0  0
  188.1800  175.5490  136.0070 C   0  0  1  0  0  3  0  0  0  0  0  0
  187.5690  173.2780  136.8590 C   0  0  0  0  0  1  0  0  0  0  0  0
  187.3100  174.3160  135.7840 C   0  0  0  0  0  2  0  0  0  0  0  0
  188.4600  176.3190  134.7180 C   0  0  0  0  0  2  0  0  0  0  0  0
  189.8850  176.8460  134.6410 C   0  0  0  0  0  2  0  0  0  0  0  0
  193.3210  175.2560  135.5300 N   0  0  0  0  0  0  0  0  0  0  0  0
  192.0670  175.7920  135.2970 C   0  0  0  0  0  0  0  0  0  0  0  0
  192.8840  176.3850  136.1850 N   0  0  0  0  0  0  0  0  0  0  0  0
  190.8110  175.7250  134.6300 N   0  0  0  0  0  2  0  0  0  0  0  0
  194.3060  174.2930  135.2750 N   0  0  0  0  0  2  0  0  0  0  0  0
  195.5870  174.8610  135.6730 C   0  0  0  0  0  2  0  0  0  0  0  0
  198.6470  175.3070  139.0800 N   0  0  0  0  0  2  0  0  0  0  0  0
  195.5230  174.2830  138.1000 C   0  0  0  0  0  2  0  0  0  0  0  0
  196.6480  174.4170  138.9890 N   0  0  2  0  0  0  0  0  0  0  0  0
  196.5600  175.1430  140.2240 C   0  0  0  0  0  2  0  0  0  0  0  0
  196.2290  174.0130  136.7620 C   0  0  2  0  0  3  0  0  0  0  0  0
  197.6720  174.4710  137.0340 C   0  0  0  0  0  2  0  0  0  0  0  0
  197.5170  175.2120  138.2640 N   0  0  2  0  0  0  0  0  0  0  0  0
  198.0300  175.5480  140.3940 C   0  0  0  0  0  2  0  0  0  0  0  0
  185.2520  178.7490  138.3460 C   0  0  0  0  0  2  0  0  0  0  0  0
  184.2640  178.0600  139.1550 N   0  0  0  0  0  2  0  0  0  0  0  0
  184.1090  178.8420  140.3740 C   0  0  0  0  0  2  0  0  0  0  0  0
  183.0250  178.2530  141.2760 C   0  0  1  0  0  3  0  0  0  0  0  0
  182.7790  179.1030  142.5120 C   0  0  1  0  0  3  0  0  0  0  0  0
  181.3020  178.9750  142.7950 C   0  0  0  0  0  2  0  0  0  0  0  0
  180.6530  178.7850  141.4420 C   0  0  0  0  0  2  0  0  0  0  0  0
  181.6920  178.1260  140.5520 C   0  0  0  0  0  2  0  0  0  0  0  0
  183.5860  178.5980  143.6980 C   0  0  0  0  0  2  0  0  0  0  0  0
  184.8380  179.3290  143.7800 N   0  0  0  0  0  2  0  0  0  0  0  0
  185.8920  178.3560  144.0300 C   0  0  0  0  0  2  0  0  0  0  0  0
  186.6560  178.6980  145.3110 C   0  0  1  0  0  3  0  0  0  0  0  0
  185.7770  179.2340  146.2540 O   0  0  0  0  0  0  0  0  0  0  0  0
  185.3260  178.1350  146.9850 C   0  0  0  0  0  1  0  0  0  0  0  0
  187.4180  177.5050  145.9210 C   0  0  2  0  0  3  0  0  0  0  0  0
  188.2220  177.9190  147.1450 C   0  0  0  0  0  2  0  0  0  0  0  0
  189.2420  176.8540  147.4930 C   0  0  0  0  0  1  0  0  0  0  0  0
  188.3270  176.8030  144.9190 C   0  0  0  0  0  2  0  0  0  0  0  0
  188.9400  177.7760  144.0310 N   0  0  0  0  0  2  0  0  0  0  0  0
  190.9840  179.0830  144.0670 C   0  0  0  0  0  1  0  0  0  0  0  0
  190.3780  177.7050  144.2390 C   0  0  2  0  0  3  0  0  0  0  0  0
  191.6470  175.6140  143.7390 O   0  0  0  0  0  1  0  0  0  0  0  0
  190.9960  176.7500  143.2690 C   0  0  0  0  0  0  0  0  0  0  0  0
  190.9660  176.9840  142.0310 O   0  0  0  0  0  0  0  0  0  0  0  0
  1 27  1  0  0  0  0
  1  3  1  0  0  0  0
  2  3  2  0  0  0  0
  3  7  1  0  0  0  0
  4  2  1  0  0  0  0
  5  4  1  0  0  0  0
  5  1  2  0  0  0  0
  7  6  3  0  0  0  0
  8 11  1  6  0  0  0
  8  4  1  0  0  0  0
 10  8  1  0  0  0  0
 10  9  1  0  0  0  0
 12 11  1  0  0  0  0
 13 15  1  0  0  0  0
 14 13  1  0  0  0  0
 14 15  2  0  0  0  0
 16 12  1  0  0  0  0
 16 14  1  0  0  0  0
 17 13  1  0  0  0  0
 17 18  1  0  0  0  0
 19 26  1  0  0  0  0
 21 20  1  6  0  0  0
 21 22  1  0  0  0  0
 22 26  1  0  0  0  0
 23 18  1  6  0  0  0
 23 24  1  0  0  0  0
 23 20  1  0  0  0  0
 25 24  1  6  0  0  0
 25 21  1  0  0  0  0
 25 19  1  0  0  0  0
 27 28  1  0  0  0  0
 28 29  1  0  0  0  0
 30 29  1  6  0  0  0
 30 31  1  0  0  0  0
 31 32  1  0  0  0  0
 31 35  1  1  0  0  0
 33 32  1  0  0  0  0
 34 30  1  0  0  0  0
 34 33  1  0  0  0  0
 35 36  1  0  0  0  0
 36 37  1  0  0  0  0
 38 37  1  6  0  0  0
 38 41  1  0  0  0  0
 38 39  1  0  0  0  0
 39 40  1  0  0  0  0
 41 44  1  6  0  0  0
 41 42  1  0  0  0  0
 42 43  1  0  0  0  0
 45 47  1  0  0  0  0
 45 44  1  0  0  0  0
 47 46  1  6  0  0  0
 49 48  1  0  0  0  0
 49 47  1  0  0  0  0
 50 49  2  0  0  0  0
M  END
>  <MODEL>
7

>  <REMARK>
 VINA RESULT:      -6.1      3.727      9.770
  Name = 
  24 active torsions:
  status: ('A' for Active; 'I' for Inactive)
    1  A    between atoms: O_2  and  C_16
    2  A    between atoms: N_5  and  CA_17
    3  A    between atoms: N_5  and  C_46
    4  A    between atoms: N_6  and  C_23
    5  A    between atoms: N_6  and  C_31
    6  A    between atoms: N_7  and  N_45
    7  A    between atoms: C_9  and  C_49
    8  A    between atoms: C_14  and  CA_17
    9  A    between atoms: C_16  and  C_23
   10  A    between atoms: C_16  and  C_47
   11  A    between atoms: C_19  and  C_22
   12  A    between atoms: N_20  and  C_22
   13  A    between atoms: N_20  and  C_49
   14  A    between atoms: C_24  and  C_47
   15  A    between atoms: C_25  and  C_34
   16  A    between atoms: C_25  and  N_41
   17  A    between atoms: C_28  and  C_32
   18  A    between atoms: C_29  and  C_38
   19  A    between atoms: C_30  and  C_31
   20  A    between atoms: C_32  and  N_45
   21  A    between atoms: C_33  and  C_35
   22  A    between atoms: C_34  and  C_35
   23  A    between atoms: C_35  and  N_48
   24  A    between atoms: C_46  and  C_47
                            x       y       z     vdW  Elec       q    Type
                         _______ _______ _______ _____ _____    ______ ____

>  <TORSDO>
F 24

$$$$
=
 OpenBabel11032421123D

 50 54  0  0  1  0  0  0  0  0999 V2000
  186.9930  177.7300  137.8680 C   0  0  0  0  0  0  0  0  0  0  0  0
  188.9140  176.6750  138.1140 N   0  0  0  0  0  0  0  0  0  0  0  0
  188.0660  177.5310  138.7100 C   0  0  0  0  0  0  0  0  0  0  0  0
  188.3540  176.3690  136.9520 N   0  0  0  0  0  0  0  0  0  0  0  0
  187.1980  176.9970  136.7600 N   0  0  0  0  0  0  0  0  0  0  0  0
  188.4490  178.6040  141.0420 N   0  0  0  0  0  0  0  0  0  0  0  0
  188.2800  178.1240  140.0020 C   0  0  0  0  0  0  0  0  0  0  0  0
  189.0050  175.5170  135.9610 C   0  0  1  0  0  3  0  0  0  0  0  0
  191.4360  176.1020  135.8710 C   0  0  0  0  0  1  0  0  0  0  0  0
  190.0930  176.2550  135.1860 C   0  0  0  0  0  2  0  0  0  0  0  0
  189.5070  174.2220  136.5990 C   0  0  0  0  0  2  0  0  0  0  0  0
  188.3840  173.3710  137.1710 C   0  0  0  0  0  2  0  0  0  0  0  0
  184.5360  173.1130  136.6650 N   0  0  0  0  0  0  0  0  0  0  0  0
  185.8910  173.2920  136.8790 C   0  0  0  0  0  0  0  0  0  0  0  0
  185.0750  173.1090  137.9310 N   0  0  0  0  0  0  0  0  0  0  0  0
  187.1930  173.5380  136.3550 N   0  0  0  0  0  2  0  0  0  0  0  0
  183.4390  173.0020  135.8020 N   0  0  0  0  0  2  0  0  0  0  0  0
  182.8520  171.6850  136.0070 C   0  0  0  0  0  2  0  0  0  0  0  0
  179.5250  173.5450  138.5830 N   0  0  0  0  0  2  0  0  0  0  0  0
  180.8950  173.1350  135.4650 C   0  0  0  0  0  2  0  0  0  0  0  0
  179.8980  173.5330  136.4240 N   0  0  2  0  0  0  0  0  0  0  0  0
  179.5420  174.9090  136.6260 C   0  0  0  0  0  2  0  0  0  0  0  0
  181.3330  171.7770  136.0340 C   0  0  2  0  0  3  0  0  0  0  0  0
  180.8130  171.8240  137.4810 C   0  0  0  0  0  2  0  0  0  0  0  0
  180.4980  173.2260  137.6330 N   0  0  2  0  0  0  0  0  0  0  0  0
  179.0470  174.8410  138.0760 C   0  0  0  0  0  2  0  0  0  0  0  0
  185.8190  178.6180  138.0840 C   0  0  0  0  0  2  0  0  0  0  0  0
  184.8160  177.9310  138.8780 N   0  0  0  0  0  2  0  0  0  0  0  0
  184.5730  178.7630  140.0480 C   0  0  0  0  0  2  0  0  0  0  0  0
  183.4120  178.2240  140.8810 C   0  0  1  0  0  3  0  0  0  0  0  0
  183.2040  179.0150  142.1620 C   0  0  1  0  0  3  0  0  0  0  0  0
  181.7130  179.0080  142.3960 C   0  0  0  0  0  2  0  0  0  0  0  0
  181.0940  178.9630  141.0170 C   0  0  0  0  0  2  0  0  0  0  0  0
  182.0970  178.2660  140.1140 C   0  0  0  0  0  2  0  0  0  0  0  0
  183.9220  178.3660  143.3340 C   0  0  0  0  0  2  0  0  0  0  0  0
  185.3320  178.7110  143.2920 N   0  0  0  0  0  2  0  0  0  0  0  0
  186.0600  177.6420  143.9610 C   0  0  0  0  0  2  0  0  0  0  0  0
  186.8340  178.1820  145.1660 C   0  0  1  0  0  3  0  0  0  0  0  0
  186.0400  178.0950  146.3110 O   0  0  0  0  0  0  0  0  0  0  0  0
  185.4110  179.3370  146.4030 C   0  0  0  0  0  1  0  0  0  0  0  0
  188.1840  177.4790  145.4080 C   0  0  2  0  0  3  0  0  0  0  0  0
  188.6540  177.6430  146.8450 C   0  0  0  0  0  2  0  0  0  0  0  0
  189.3780  176.3960  147.3100 C   0  0  0  0  0  1  0  0  0  0  0  0
  189.2760  177.9420  144.4500 C   0  0  0  0  0  2  0  0  0  0  0  0
  190.3480  176.9610  144.4010 N   0  0  0  0  0  2  0  0  0  0  0  0
  191.3240  179.0500  143.6450 C   0  0  0  0  0  1  0  0  0  0  0  0
  191.4270  177.5390  143.6150 C   0  0  2  0  0  3  0  0  0  0  0  0
  190.4850  176.0230  141.8700 O   0  0  0  0  0  1  0  0  0  0  0  0
  191.3610  177.0500  142.2040 C   0  0  0  0  0  0  0  0  0  0  0  0
  192.1200  177.5330  141.3220 O   0  0  0  0  0  0  0  0  0  0  0  0
  1 27  1  0  0  0  0
  1  3  1  0  0  0  0
  2  3  2  0  0  0  0
  3  7  1  0  0  0  0
  4  2  1  0  0  0  0
  5  4  1  0  0  0  0
  5  1  2  0  0  0  0
  7  6  3  0  0  0  0
  8 10  1  1  0  0  0
  8 11  1  0  0  0  0
  8  4  1  0  0  0  0
 10  9  1  0  0  0  0
 11 12  1  0  0  0  0
 13 14  1  0  0  0  0
 13 15  1  0  0  0  0
 14 15  2  0  0  0  0
 16 14  1  0  0  0  0
 16 12  1  0  0  0  0
 17 18  1  0  0  0  0
 17 13  1  0  0  0  0
 20 23  1  0  0  0  0
 21 20  1  6  0  0  0
 21 22  1  0  0  0  0
 21 25  1  0  0  0  0
 22 26  1  0  0  0  0
 23 18  1  1  0  0  0
 23 24  1  0  0  0  0
 25 24  1  6  0  0  0
 25 19  1  0  0  0  0
 26 19  1  0  0  0  0
 27 28  1  0  0  0  0
 28 29  1  0  0  0  0
 30 29  1  6  0  0  0
 30 31  1  0  0  0  0
 31 32  1  0  0  0  0
 31 35  1  1  0  0  0
 33 32  1  0  0  0  0
 34 30  1  0  0  0  0
 34 33  1  0  0  0  0
 36 35  1  0  0  0  0
 36 37  1  0  0  0  0
 38 37  1  6  0  0  0
 38 41  1  0  0  0  0
 38 39  1  0  0  0  0
 39 40  1  0  0  0  0
 41 44  1  6  0  0  0
 41 42  1  0  0  0  0
 42 43  1  0  0  0  0
 45 44  1  0  0  0  0
 47 46  1  6  0  0  0
 47 45  1  0  0  0  0
 48 49  1  0  0  0  0
 49 47  1  0  0  0  0
 50 49  2  0  0  0  0
M  END
>  <MODEL>
8

>  <REMARK>
 VINA RESULT:      -5.8      2.587      7.367
  Name = 
  24 active torsions:
  status: ('A' for Active; 'I' for Inactive)
    1  A    between atoms: O_2  and  C_16
    2  A    between atoms: N_5  and  CA_17
    3  A    between atoms: N_5  and  C_46
    4  A    between atoms: N_6  and  C_23
    5  A    between atoms: N_6  and  C_31
    6  A    between atoms: N_7  and  N_45
    7  A    between atoms: C_9  and  C_49
    8  A    between atoms: C_14  and  CA_17
    9  A    between atoms: C_16  and  C_23
   10  A    between atoms: C_16  and  C_47
   11  A    between atoms: C_19  and  C_22
   12  A    between atoms: N_20  and  C_22
   13  A    between atoms: N_20  and  C_49
   14  A    between atoms: C_24  and  C_47
   15  A    between atoms: C_25  and  C_34
   16  A    between atoms: C_25  and  N_41
   17  A    between atoms: C_28  and  C_32
   18  A    between atoms: C_29  and  C_38
   19  A    between atoms: C_30  and  C_31
   20  A    between atoms: C_32  and  N_45
   21  A    between atoms: C_33  and  C_35
   22  A    between atoms: C_34  and  C_35
   23  A    between atoms: C_35  and  N_48
   24  A    between atoms: C_46  and  C_47
                            x       y       z     vdW  Elec       q    Type
                         _______ _______ _______ _____ _____    ______ ____

>  <TORSDO>
F 24

$$$$
=
 OpenBabel11032421123D

 50 54  0  0  1  0  0  0  0  0999 V2000
  185.1240  178.4670  138.8360 C   0  0  0  0  0  0  0  0  0  0  0  0
  183.4480  178.7180  140.2460 N   0  0  0  0  0  0  0  0  0  0  0  0
  183.7520  178.5000  138.9550 C   0  0  0  0  0  0  0  0  0  0  0  0
  184.6100  178.8030  140.8770 N   0  0  0  0  0  0  0  0  0  0  0  0
  185.6480  178.6710  140.0570 N   0  0  0  0  0  0  0  0  0  0  0  0
  182.0020  178.2160  137.0590 N   0  0  0  0  0  0  0  0  0  0  0  0
  182.7830  178.3450  137.9040 C   0  0  0  0  0  0  0  0  0  0  0  0
  184.7160  179.1150  142.3000 C   0  0  1  0  0  3  0  0  0  0  0  0
  183.0670  179.6520  144.1030 C   0  0  0  0  0  1  0  0  0  0  0  0
  183.5160  178.6120  143.0960 C   0  0  0  0  0  2  0  0  0  0  0  0
  186.0500  178.6310  142.8670 C   0  0  0  0  0  2  0  0  0  0  0  0
  185.9510  178.1960  144.3210 C   0  0  0  0  0  2  0  0  0  0  0  0
  188.6310  176.9340  146.8410 N   0  0  0  0  0  0  0  0  0  0  0  0
  187.6210  177.3140  145.9750 C   0  0  0  0  0  0  0  0  0  0  0  0
  187.4860  177.5520  147.2910 N   0  0  0  0  0  0  0  0  0  0  0  0
  187.0970  177.3650  144.6520 N   0  0  0  0  0  2  0  0  0  0  0  0
  189.8880  176.3630  147.0780 N   0  0  0  0  0  2  0  0  0  0  0  0
  190.8860  177.4060  146.8860 C   0  0  0  0  0  2  0  0  0  0  0  0
  190.2190  175.5440  142.7310 N   0  0  0  0  0  2  0  0  0  0  0  0
  191.2520  178.2520  144.5670 C   0  0  0  0  0  2  0  0  0  0  0  0
  191.0690  177.4560  143.3810 N   0  0  2  0  0  0  0  0  0  0  0  0
  190.2380  177.8890  142.2940 C   0  0  0  0  0  2  0  0  0  0  0  0
  191.6510  177.1780  145.5900 C   0  0  2  0  0  3  0  0  0  0  0  0
  191.2050  175.8710  144.9120 C   0  0  0  0  0  2  0  0  0  0  0  0
  190.3580  176.3660  143.8520 N   0  0  2  0  0  0  0  0  0  0  0  0
  189.8530  176.5280  141.7000 C   0  0  0  0  0  2  0  0  0  0  0  0
  185.9270  178.2860  137.5960 C   0  0  0  0  0  2  0  0  0  0  0  0
  187.3270  178.1050  137.9340 N   0  0  0  0  0  2  0  0  0  0  0  0
  188.0810  178.3350  136.7090 C   0  0  0  0  0  2  0  0  0  0  0  0
  188.6220  177.0260  136.1370 C   0  0  1  0  0  3  0  0  0  0  0  0
  189.3100  176.1750  137.1920 C   0  0  1  0  0  3  0  0  0  0  0  0
  189.0130  174.7460  136.8060 C   0  0  0  0  0  2  0  0  0  0  0  0
  187.6570  174.7880  136.1380 C   0  0  0  0  0  2  0  0  0  0  0  0
  187.5160  176.1730  135.5300 C   0  0  0  0  0  2  0  0  0  0  0  0
  190.8110  176.4150  137.2010 C   0  0  0  0  0  2  0  0  0  0  0  0
  191.4500  175.4650  138.0950 N   0  0  0  0  0  2  0  0  0  0  0  0
  192.8870  175.5740  137.8880 C   0  0  0  0  0  2  0  0  0  0  0  0
  193.3290  174.7370  136.6860 C   0  0  1  0  0  3  0  0  0  0  0  0
  193.6420  175.5780  135.6170 O   0  0  0  0  0  0  0  0  0  0  0  0
  194.3050  176.6600  136.1980 C   0  0  0  0  0  1  0  0  0  0  0  0
  194.5140  173.7970  136.9800 C   0  0  2  0  0  3  0  0  0  0  0  0
  194.2320  172.3760  136.5160 C   0  0  0  0  0  2  0  0  0  0  0  0
  193.1100  172.3650  135.4970 C   0  0  0  0  0  1  0  0  0  0  0  0
  194.9200  173.7910  138.4490 C   0  0  0  0  0  2  0  0  0  0  0  0
  195.7640  174.9380  138.7400 N   0  0  0  0  0  2  0  0  0  0  0  0
  197.5020  175.2360  140.4070 C   0  0  0  0  0  1  0  0  0  0  0  0
  197.0410  174.4260  139.2120 C   0  0  2  0  0  3  0  0  0  0  0  0
  197.9290  173.6850  137.0000 O   0  0  0  0  0  0  0  0  0  0  0  0
  198.0630  174.4950  138.1230 C   0  0  0  0  0  0  0  0  0  0  0  0
  199.0630  175.2520  138.2300 O   0  0  0  0  0  1  0  0  0  0  0  0
  1  3  1  0  0  0  0
  1  5  2  0  0  0  0
  2  4  1  0  0  0  0
  3  2  2  0  0  0  0
  4  8  1  0  0  0  0
  5  4  1  0  0  0  0
  6  7  3  0  0  0  0
  7  3  1  0  0  0  0
  8 11  1  1  0  0  0
  8 10  1  0  0  0  0
 10  9  1  0  0  0  0
 11 12  1  0  0  0  0
 12 16  1  0  0  0  0
 13 17  1  0  0  0  0
 13 15  1  0  0  0  0
 14 13  1  0  0  0  0
 14 15  2  0  0  0  0
 16 14  1  0  0  0  0
 18 17  1  0  0  0  0
 19 25  1  0  0  0  0
 20 23  1  0  0  0  0
 21 22  1  6  0  0  0
 21 25  1  0  0  0  0
 21 20  1  0  0  0  0
 23 18  1  1  0  0  0
 24 23  1  0  0  0  0
 25 24  1  1  0  0  0
 26 22  1  0  0  0  0
 26 19  1  0  0  0  0
 27 28  1  0  0  0  0
 27  1  1  0  0  0  0
 29 28  1  0  0  0  0
 30 29  1  1  0  0  0
 30 31  1  0  0  0  0
 31 35  1  6  0  0  0
 32 31  1  0  0  0  0
 33 32  1  0  0  0  0
 34 30  1  0  0  0  0
 34 33  1  0  0  0  0
 35 36  1  0  0  0  0
 37 36  1  0  0  0  0
 38 41  1  0  0  0  0
 38 37  1  1  0  0  0
 39 40  1  0  0  0  0
 39 38  1  0  0  0  0
 41 42  1  1  0  0  0
 41 44  1  0  0  0  0
 43 42  1  0  0  0  0
 44 45  1  0  0  0  0
 45 47  1  0  0  0  0
 47 46  1  1  0  0  0
 48 49  2  0  0  0  0
 49 50  1  0  0  0  0
 49 47  1  0  0  0  0
M  END
>  <MODEL>
9

>  <REMARK>
 VINA RESULT:      -5.7      3.580      8.948
  Name = 
  24 active torsions:
  status: ('A' for Active; 'I' for Inactive)
    1  A    between atoms: O_2  and  C_16
    2  A    between atoms: N_5  and  CA_17
    3  A    between atoms: N_5  and  C_46
    4  A    between atoms: N_6  and  C_23
    5  A    between atoms: N_6  and  C_31
    6  A    between atoms: N_7  and  N_45
    7  A    between atoms: C_9  and  C_49
    8  A    between atoms: C_14  and  CA_17
    9  A    between atoms: C_16  and  C_23
   10  A    between atoms: C_16  and  C_47
   11  A    between atoms: C_19  and  C_22
   12  A    between atoms: N_20  and  C_22
   13  A    between atoms: N_20  and  C_49
   14  A    between atoms: C_24  and  C_47
   15  A    between atoms: C_25  and  C_34
   16  A    between atoms: C_25  and  N_41
   17  A    between atoms: C_28  and  C_32
   18  A    between atoms: C_29  and  C_38
   19  A    between atoms: C_30  and  C_31
   20  A    between atoms: C_32  and  N_45
   21  A    between atoms: C_33  and  C_35
   22  A    between atoms: C_34  and  C_35
   23  A    between atoms: C_35  and  N_48
   24  A    between atoms: C_46  and  C_47
                            x       y       z     vdW  Elec       q    Type
                         _______ _______ _______ _____ _____    ______ ____

>  <TORSDO>
F 24

$$$$
