=
 OpenBabel11032420333D

 53 56  0  0  1  0  0  0  0  0999 V2000
  185.1880  178.8780  141.6240 C   0  0  1  0  0  3  0  0  0  0  0  0
  181.4880  176.8390  139.4020 C   0  0  0  0  0  0  0  0  0  0  0  0
  180.3150  176.8830  140.3330 C   0  0  0  0  0  1  0  0  0  0  0  0
  181.4990  175.9360  138.4730 N   0  0  0  0  0  0  0  0  0  0  0  0
  183.4870  177.2750  137.0510 S   0  0  0  0  0  0  0  0  0  0  0  0
  182.4600  177.9890  139.3930 C   0  0  1  0  0  3  0  0  0  0  0  0
  182.8490  178.5570  140.7350 C   0  0  0  0  0  2  0  0  0  0  0  0
  184.6730  178.7390  139.1160 C   0  0  0  0  0  2  0  0  0  0  0  0
  184.2000  179.2380  140.4940 C   0  0  2  0  0  3  0  0  0  0  0  0
  183.7650  177.5840  138.8040 C   0  0  2  0  0  3  0  0  0  0  0  0
  182.5350  175.7510  137.4550 C   0  0  1  0  0  3  0  0  0  0  0  0
  183.4990  174.6400  137.8650 C   0  0  0  0  0  2  0  0  0  0  0  0
  184.5730  174.5140  136.8860 N   0  0  0  0  0  2  0  0  0  0  0  0
  184.3500  172.0920  136.8620 C   0  0  0  0  0  1  0  0  0  0  0  0
  185.2620  173.2650  137.1770 C   0  0  1  0  0  3  0  0  0  0  0  0
  186.5770  173.1930  136.3980 C   0  0  1  0  0  3  0  0  0  0  0  0
  187.7670  171.4020  135.8710 C   0  0  0  0  0  1  0  0  0  0  0  0
  186.5810  172.0700  135.5640 O   0  0  0  0  0  0  0  0  0  0  0  0
  186.7790  174.4010  135.6050 N   0  0  0  0  0  2  0  0  0  0  0  0
  188.0470  174.9880  136.0220 C   0  0  0  0  0  2  0  0  0  0  0  0
  188.9790  175.1160  134.8320 C   0  0  1  0  0  3  0  0  0  0  0  0
  189.4840  176.4140  134.7770 O   0  0  0  0  0  1  0  0  0  0  0  0
  190.1330  174.1370  134.9530 C   0  0  0  0  0  1  0  0  0  0  0  0
  184.5340  178.1370  142.7180 N   0  0  0  0  0  2  0  0  0  0  0  0
  184.5990  178.8670  143.9860 C   0  0  2  0  0  3  0  0  0  0  0  0
  184.5710  180.2480  143.7570 O   0  0  0  0  0  1  0  0  0  0  0  0
  185.8710  178.5050  144.7190 C   0  0  0  0  0  2  0  0  0  0  0  0
  186.2620  177.2200  144.3420 O   0  0  0  0  0  0  0  0  0  0  0  0
  187.4220  176.9500  145.0760 C   0  0  1  0  0  3  0  0  0  0  0  0
  189.0760  176.2010  143.5550 O   0  0  0  0  0  0  0  0  0  0  0  0
  188.6160  177.1430  144.1900 C   0  0  0  0  0  3  0  0  0  0  0  0
  187.5040  177.8990  146.2660 C   0  0  0  0  0  2  0  0  0  0  0  0
  188.9180  177.9150  146.8330 C   0  0  0  0  0  3  0  0  0  0  0  0
  188.8540  178.1160  148.3340 C   0  0  0  0  0  2  0  0  0  0  0  0
  189.0800  176.7300  147.7630 C   0  0  0  0  0  2  0  0  0  0  0  0
  186.4570  178.1470  141.1390 C   0  0  0  0  0  2  0  0  0  0  0  0
  187.7340  178.9610  141.2770 C   0  0  0  0  0  2  0  0  0  0  0  0
  188.8710  178.2190  140.5980 C   0  0  0  0  0  2  0  0  0  0  0  0
  188.7680  178.3710  139.0980 C   0  0  0  0  0  2  0  0  0  0  0  0
  189.8360  177.6150  138.4720 N   0  0  0  0  0  2  0  0  0  0  0  0
  190.2390  176.5850  139.4130 C   0  0  0  0  0  2  0  0  0  0  0  0
  191.0150  175.6330  138.7550 O   0  0  0  0  0  0  0  0  0  0  0  0
  191.5270  176.2960  137.6380 C   0  0  0  0  0  2  0  0  0  0  0  0
  193.6370  177.0460  138.7560 O   0  0  0  0  0  1  0  0  0  0  0  0
  193.7670  175.0500  137.3110 C   0  0  1  0  0  3  0  0  0  0  0  0
  193.0480  176.1370  135.3120 O   0  0  0  0  0  1  0  0  0  0  0  0
  193.0500  176.3300  137.7110 C   0  0  1  0  0  0  0  0  0  0  0  0
  193.8690  176.2970  136.4300 C   0  0  1  0  0  3  0  0  0  0  0  0
  194.9530  174.8970  138.0340 O   0  0  0  0  0  0  0  0  0  0  0  0
  195.2890  173.5480  137.8970 C   0  0  1  0  0  3  0  0  0  0  0  0
  195.2760  172.9290  139.1460 O   0  0  0  0  0  1  0  0  0  0  0  0
  194.9950  172.0130  136.0770 O   0  0  0  0  0  1  0  0  0  0  0  0
  194.3130  172.8550  136.9580 C   0  0  0  0  0  2  0  0  0  0  0  0
  1 36  1  6  0  0  0
  1 24  1  0  0  0  0
  2  3  1  0  0  0  0
  4  2  2  0  0  0  0
  5 11  1  0  0  0  0
  5 10  1  0  0  0  0
  6  2  1  0  0  0  0
  6  7  1  1  0  0  0
  8  9  1  0  0  0  0
  9  7  1  0  0  0  0
  9  1  1  1  0  0  0
 10  8  1  6  0  0  0
 10  6  1  0  0  0  0
 11 12  1  1  0  0  0
 11  4  1  0  0  0  0
 13 15  1  0  0  0  0
 13 12  1  0  0  0  0
 15 14  1  6  0  0  0
 16 18  1  6  0  0  0
 16 15  1  0  0  0  0
 18 17  1  0  0  0  0
 19 20  1  0  0  0  0
 19 16  1  0  0  0  0
 21 23  1  1  0  0  0
 21 20  1  0  0  0  0
 22 21  1  0  0  0  0
 24 25  1  0  0  0  0
 25 26  1  6  0  0  0
 25 27  1  0  0  0  0
 28 27  1  0  0  0  0
 28 29  1  0  0  0  0
 29 31  1  6  0  0  0
 29 32  1  0  0  0  0
 30 31  2  0  0  0  0
 32 33  1  0  0  0  0
 33 35  1  0  0  0  0
 33 34  1  0  0  0  0
 35 34  1  0  0  0  0
 36 37  1  0  0  0  0
 38 37  1  0  0  0  0
 39 38  1  0  0  0  0
 40 39  1  0  0  0  0
 40 41  1  0  0  0  0
 42 41  1  0  0  0  0
 43 47  1  0  0  0  0
 43 42  1  0  0  0  0
 45 47  1  0  0  0  0
 45 49  1  1  0  0  0
 47 44  1  1  0  0  0
 48 46  1  6  0  0  0
 48 45  1  0  0  0  0
 48 47  1  0  0  0  0
 50 49  1  0  0  0  0
 50 51  1  1  0  0  0
 52 53  1  0  0  0  0
 53 50  1  0  0  0  0
M  END
>  <MODEL>
1

>  <REMARK>
 VINA RESULT:      -5.6      0.000      0.000
  Name = 
  29 active torsions:
  status: ('A' for Active; 'I' for Inactive)
    1  A    between atoms: C_3  and  N_46
    2  A    between atoms: C_3  and  C_53
    3  A    between atoms: C_4  and  C_18
    4  A    between atoms: C_4  and  N_32
    5  A    between atoms: C_5  and  C_20
    6  A    between atoms: C_5  and  C_38
    7  A    between atoms: C_8  and  O_19
    8  A    between atoms: C_9  and  C_10
    9  A    between atoms: C_10  and  C_29
   10  A    between atoms: C_13  and  O_19
   11  A    between atoms: C_13  and  C_36
   12  A    between atoms: O_15  and  C_29
   13  A    between atoms: O_15  and  C_51
   14  A    between atoms: C_16  and  C_20
   15  A    between atoms: C_16  and  C_23
   16  A    between atoms: C_21  and  O_34
   17  A    between atoms: C_21  and  N_45
   18  A    between atoms: C_23  and  C_43
   19  A    between atoms: C_23  and  N_50
   20  A    between atoms: C_25  and  N_32
   21  A    between atoms: C_25  and  O_47
   22  A    between atoms: C_25  and  C_49
   23  A    between atoms: C_26  and  O_34
   24  A    between atoms: C_26  and  C_40
   25  A    between atoms: C_29  and  C_41
   26  A    between atoms: C_30  and  N_50
   27  A    between atoms: C_30  and  C_51
   28  A    between atoms: C_38  and  N_45
   29  A    between atoms: N_46  and  C_49
                            x       y       z     vdW  Elec       q    Type
                         _______ _______ _______ _____ _____    ______ ____

>  <TORSDO>
F 29

$$$$
=
 OpenBabel11032420333D

 53 56  0  0  1  0  0  0  0  0999 V2000
  190.1340  177.0660  141.0600 C   0  0  1  0  0  3  0  0  0  0  0  0
  188.5860  177.4720  136.5630 C   0  0  0  0  0  0  0  0  0  0  0  0
  187.6110  178.6080  136.5160 C   0  0  0  0  0  1  0  0  0  0  0  0
  188.5050  176.5570  135.6490 N   0  0  0  0  0  0  0  0  0  0  0  0
  191.0620  175.6110  136.2230 S   0  0  0  0  0  0  0  0  0  0  0  0
  189.7790  177.5670  137.4770 C   0  0  1  0  0  3  0  0  0  0  0  0
  189.5330  178.1320  138.8540 C   0  0  0  0  0  2  0  0  0  0  0  0
  191.3270  176.4710  138.8700 C   0  0  0  0  0  2  0  0  0  0  0  0
  190.6780  177.5840  139.7120 C   0  0  2  0  0  3  0  0  0  0  0  0
  190.3460  176.2200  137.7590 C   0  0  2  0  0  3  0  0  0  0  0  0
  189.3790  175.3910  135.5080 C   0  0  1  0  0  3  0  0  0  0  0  0
  188.7240  174.1520  136.1130 C   0  0  0  0  0  2  0  0  0  0  0  0
  187.2930  174.1470  135.8340 N   0  0  0  0  0  2  0  0  0  0  0  0
  187.8310  172.1340  137.0880 C   0  0  0  0  0  1  0  0  0  0  0  0
  186.7900  172.8430  136.2400 C   0  0  1  0  0  3  0  0  0  0  0  0
  185.4580  172.9960  136.9780 C   0  0  1  0  0  3  0  0  0  0  0  0
  183.9450  174.4450  137.6940 C   0  0  0  0  0  1  0  0  0  0  0  0
  185.3090  174.3100  137.4340 O   0  0  0  0  0  0  0  0  0  0  0  0
  184.3390  172.6420  136.1100 N   0  0  0  0  0  2  0  0  0  0  0  0
  184.3980  171.2010  135.8910 C   0  0  0  0  0  2  0  0  0  0  0  0
  183.0660  170.5640  136.2410 C   0  0  1  0  0  3  0  0  0  0  0  0
  182.3130  171.4550  137.0030 O   0  0  0  0  0  1  0  0  0  0  0  0
  182.2970  170.2120  134.9800 C   0  0  0  0  0  1  0  0  0  0  0  0
  190.8100  177.6930  142.2100 N   0  0  0  0  0  2  0  0  0  0  0  0
  191.1500  176.7130  143.2430 C   0  0  2  0  0  3  0  0  0  0  0  0
  190.6260  175.4560  142.9160 O   0  0  0  0  0  1  0  0  0  0  0  0
  190.5900  177.1600  144.5750 C   0  0  0  0  0  2  0  0  0  0  0  0
  191.5860  177.0550  145.5450 O   0  0  0  0  0  0  0  0  0  0  0  0
  190.9650  176.4850  146.6610 C   0  0  1  0  0  3  0  0  0  0  0  0
  192.9380  175.3120  147.2470 O   0  0  0  0  0  0  0  0  0  0  0  0
  192.0180  176.0290  147.6260 C   0  0  0  0  0  3  0  0  0  0  0  0
  190.0690  177.5220  147.3290 C   0  0  0  0  0  2  0  0  0  0  0  0
  188.6890  176.9340  147.5970 C   0  0  0  0  0  3  0  0  0  0  0  0
  187.8150  177.9840  148.2530 C   0  0  0  0  0  2  0  0  0  0  0  0
  187.6710  177.6940  146.7720 C   0  0  0  0  0  2  0  0  0  0  0  0
  188.6000  177.1620  141.1970 C   0  0  0  0  0  2  0  0  0  0  0  0
  188.1230  178.3470  142.0210 C   0  0  0  0  0  2  0  0  0  0  0  0
  186.7610  178.0270  142.6080 C   0  0  0  0  0  2  0  0  0  0  0  0
  185.7230  178.9840  142.0660 C   0  0  0  0  0  2  0  0  0  0  0  0
  184.5470  178.9350  142.9130 N   0  0  0  0  0  2  0  0  0  0  0  0
  183.4160  178.6220  142.0570 C   0  0  0  0  0  2  0  0  0  0  0  0
  183.8300  178.6040  140.7270 O   0  0  0  0  0  0  0  0  0  0  0  0
  183.2480  177.4560  140.1860 C   0  0  0  0  0  2  0  0  0  0  0  0
  180.8610  177.3980  139.4360 O   0  0  0  0  0  1  0  0  0  0  0  0
  182.2670  179.2460  138.6010 C   0  0  1  0  0  3  0  0  0  0  0  0
  183.8750  177.8650  137.5040 O   0  0  0  0  0  1  0  0  0  0  0  0
  182.1590  177.8490  139.1930 C   0  0  1  0  0  0  0  0  0  0  0  0
  182.5040  178.0160  137.7210 C   0  0  1  0  0  3  0  0  0  0  0  0
  181.0000  179.7700  138.3300 O   0  0  0  0  0  0  0  0  0  0  0  0
  181.2360  181.0740  137.8860 C   0  0  1  0  0  3  0  0  0  0  0  0
  180.9510  181.1670  136.5250 O   0  0  0  0  0  1  0  0  0  0  0  0
  179.6840  181.4030  139.6860 O   0  0  0  0  0  1  0  0  0  0  0  0
  180.3800  182.0590  138.6680 C   0  0  0  0  0  2  0  0  0  0  0  0
  1 36  1  1  0  0  0
  1 24  1  0  0  0  0
  2  6  1  0  0  0  0
  3  2  1  0  0  0  0
  4  2  2  0  0  0  0
  5 10  1  0  0  0  0
  6 10  1  0  0  0  0
  6  7  1  1  0  0  0
  7  9  1  0  0  0  0
  8  9  1  0  0  0  0
  9  1  1  1  0  0  0
 10  8  1  1  0  0  0
 11  4  1  0  0  0  0
 11 12  1  1  0  0  0
 11  5  1  0  0  0  0
 13 12  1  0  0  0  0
 13 15  1  0  0  0  0
 15 16  1  0  0  0  0
 15 14  1  1  0  0  0
 16 19  1  6  0  0  0
 16 18  1  0  0  0  0
 18 17  1  0  0  0  0
 20 19  1  0  0  0  0
 20 21  1  0  0  0  0
 21 23  1  6  0  0  0
 21 22  1  0  0  0  0
 24 25  1  0  0  0  0
 25 26  1  6  0  0  0
 25 27  1  0  0  0  0
 27 28  1  0  0  0  0
 28 29  1  0  0  0  0
 29 32  1  1  0  0  0
 29 31  1  0  0  0  0
 30 31  2  0  0  0  0
 32 33  1  0  0  0  0
 33 34  1  0  0  0  0
 35 33  1  0  0  0  0
 35 34  1  0  0  0  0
 36 37  1  0  0  0  0
 37 38  1  0  0  0  0
 39 38  1  0  0  0  0
 39 40  1  0  0  0  0
 41 40  1  0  0  0  0
 42 41  1  0  0  0  0
 43 42  1  0  0  0  0
 45 49  1  6  0  0  0
 45 47  1  0  0  0  0
 47 44  1  1  0  0  0
 47 43  1  0  0  0  0
 48 46  1  1  0  0  0
 48 45  1  0  0  0  0
 48 47  1  0  0  0  0
 50 51  1  6  0  0  0
 50 49  1  0  0  0  0
 50 53  1  0  0  0  0
 53 52  1  0  0  0  0
M  END
>  <MODEL>
2

>  <REMARK>
 VINA RESULT:      -5.6      3.337      8.151
  Name = 
  29 active torsions:
  status: ('A' for Active; 'I' for Inactive)
    1  A    between atoms: C_3  and  N_46
    2  A    between atoms: C_3  and  C_53
    3  A    between atoms: C_4  and  C_18
    4  A    between atoms: C_4  and  N_32
    5  A    between atoms: C_5  and  C_20
    6  A    between atoms: C_5  and  C_38
    7  A    between atoms: C_8  and  O_19
    8  A    between atoms: C_9  and  C_10
    9  A    between atoms: C_10  and  C_29
   10  A    between atoms: C_13  and  O_19
   11  A    between atoms: C_13  and  C_36
   12  A    between atoms: O_15  and  C_29
   13  A    between atoms: O_15  and  C_51
   14  A    between atoms: C_16  and  C_20
   15  A    between atoms: C_16  and  C_23
   16  A    between atoms: C_21  and  O_34
   17  A    between atoms: C_21  and  N_45
   18  A    between atoms: C_23  and  C_43
   19  A    between atoms: C_23  and  N_50
   20  A    between atoms: C_25  and  N_32
   21  A    between atoms: C_25  and  O_47
   22  A    between atoms: C_25  and  C_49
   23  A    between atoms: C_26  and  O_34
   24  A    between atoms: C_26  and  C_40
   25  A    between atoms: C_29  and  C_41
   26  A    between atoms: C_30  and  N_50
   27  A    between atoms: C_30  and  C_51
   28  A    between atoms: C_38  and  N_45
   29  A    between atoms: N_46  and  C_49
                            x       y       z     vdW  Elec       q    Type
                         _______ _______ _______ _____ _____    ______ ____

>  <TORSDO>
F 29

$$$$
=
 OpenBabel11032420333D

 53 56  0  0  1  0  0  0  0  0999 V2000
  185.6530  178.4380  143.9160 C   0  0  1  0  0  3  0  0  0  0  0  0
  181.1190  178.3310  142.4270 C   0  0  0  0  0  0  0  0  0  0  0  0
  180.2400  178.3160  143.6400 C   0  0  0  0  0  1  0  0  0  0  0  0
  180.6410  177.8600  141.3190 N   0  0  0  0  0  0  0  0  0  0  0  0
  182.6340  179.0960  139.8130 S   0  0  0  0  0  0  0  0  0  0  0  0
  182.3960  179.1290  142.4570 C   0  0  1  0  0  3  0  0  0  0  0  0
  183.2130  179.0500  143.7230 C   0  0  0  0  0  2  0  0  0  0  0  0
  184.6290  179.3610  141.7540 C   0  0  0  0  0  2  0  0  0  0  0  0
  184.6360  179.4180  143.2920 C   0  0  2  0  0  3  0  0  0  0  0  0
  183.3450  178.6620  141.4100 C   0  0  2  0  0  3  0  0  0  0  0  0
  181.3300  177.8140  140.0270 C   0  0  1  0  0  3  0  0  0  0  0  0
  181.9290  176.4310  139.7870 C   0  0  0  0  0  2  0  0  0  0  0  0
  182.1620  176.2190  138.3620 N   0  0  0  0  0  2  0  0  0  0  0  0
  180.6200  174.3720  138.0100 C   0  0  0  0  0  1  0  0  0  0  0  0
  182.0760  174.7850  138.1300 C   0  0  1  0  0  3  0  0  0  0  0  0
  182.8840  174.4010  136.8890 C   0  0  1  0  0  3  0  0  0  0  0  0
  184.2490  175.0490  135.2710 C   0  0  0  0  0  1  0  0  0  0  0  0
  183.5860  175.5120  136.4090 O   0  0  0  0  0  0  0  0  0  0  0  0
  183.8140  173.3170  137.1890 N   0  0  0  0  0  2  0  0  0  0  0  0
  183.1150  172.0620  136.9410 C   0  0  0  0  0  2  0  0  0  0  0  0
  183.7830  171.3080  135.8050 C   0  0  1  0  0  3  0  0  0  0  0  0
  183.2190  171.7010  134.5940 O   0  0  0  0  0  1  0  0  0  0  0  0
  185.2730  171.5980  135.7790 C   0  0  0  0  0  1  0  0  0  0  0  0
  185.0750  177.6800  145.0410 N   0  0  0  0  0  2  0  0  0  0  0  0
  185.5350  178.1900  146.3340 C   0  0  2  0  0  3  0  0  0  0  0  0
  185.6640  179.5840  146.2920 O   0  0  0  0  0  1  0  0  0  0  0  0
  186.8710  177.5710  146.6810 C   0  0  0  0  0  2  0  0  0  0  0  0
  187.8870  178.3400  146.1150 O   0  0  0  0  0  0  0  0  0  0  0  0
  189.0510  177.9950  146.8110 C   0  0  1  0  0  3  0  0  0  0  0  0
  189.1600  178.3360  149.1530 O   0  0  0  0  0  0  0  0  0  0  0  0
  188.6930  177.6760  148.2320 C   0  0  0  0  0  3  0  0  0  0  0  0
  189.6950  176.7790  146.1560 C   0  0  0  0  0  2  0  0  0  0  0  0
  191.1320  177.0910  145.7580 C   0  0  0  0  0  3  0  0  0  0  0  0
  191.3790  176.5980  144.3460 C   0  0  0  0  0  2  0  0  0  0  0  0
  191.1110  178.0680  144.5990 C   0  0  0  0  0  2  0  0  0  0  0  0
  186.3210  177.4930  142.8950 C   0  0  0  0  0  2  0  0  0  0  0  0
  187.8230  177.3460  143.0750 C   0  0  0  0  0  2  0  0  0  0  0  0
  188.4970  177.4400  141.7190 C   0  0  0  0  0  2  0  0  0  0  0  0
  187.8470  178.5250  140.8890 C   0  0  0  0  0  2  0  0  0  0  0  0
  188.6010  178.6980  139.6630 N   0  0  0  0  0  2  0  0  0  0  0  0
  189.6860  177.7330  139.6880 C   0  0  0  0  0  2  0  0  0  0  0  0
  190.1800  177.5560  138.3970 O   0  0  0  0  0  0  0  0  0  0  0  0
  189.2100  178.1130  137.5620 C   0  0  0  0  0  2  0  0  0  0  0  0
  189.5020  177.1090  135.2880 O   0  0  0  0  0  1  0  0  0  0  0  0
  188.3900  175.7270  137.0030 C   0  0  1  0  0  3  0  0  0  0  0  0
  186.5750  177.2260  137.4000 O   0  0  0  0  0  1  0  0  0  0  0  0
  188.8030  177.1000  136.4970 C   0  0  1  0  0  0  0  0  0  0  0  0
  187.3510  176.6640  136.3830 C   0  0  1  0  0  3  0  0  0  0  0  0
  188.7250  174.7330  136.0790 O   0  0  0  0  0  0  0  0  0  0  0  0
  189.3400  173.7300  136.8320 C   0  0  1  0  0  3  0  0  0  0  0  0
  188.4900  172.6310  136.9370 O   0  0  0  0  0  1  0  0  0  0  0  0
  191.3790  174.4410  135.7860 O   0  0  0  0  0  1  0  0  0  0  0  0
  190.6540  173.3170  136.1850 C   0  0  0  0  0  2  0  0  0  0  0  0
  1 36  1  6  0  0  0
  1 24  1  0  0  0  0
  2  6  1  0  0  0  0
  2  3  1  0  0  0  0
  4  2  2  0  0  0  0
  5 11  1  0  0  0  0
  5 10  1  0  0  0  0
  6  7  1  1  0  0  0
  8  9  1  0  0  0  0
  9  7  1  0  0  0  0
  9  1  1  1  0  0  0
 10  8  1  1  0  0  0
 10  6  1  0  0  0  0
 11 12  1  1  0  0  0
 11  4  1  0  0  0  0
 13 12  1  0  0  0  0
 15 14  1  6  0  0  0
 15 13  1  0  0  0  0
 16 18  1  1  0  0  0
 16 19  1  0  0  0  0
 16 15  1  0  0  0  0
 17 18  1  0  0  0  0
 20 19  1  0  0  0  0
 21 23  1  6  0  0  0
 21 20  1  0  0  0  0
 22 21  1  0  0  0  0
 24 25  1  0  0  0  0
 25 26  1  6  0  0  0
 25 27  1  0  0  0  0
 28 27  1  0  0  0  0
 28 29  1  0  0  0  0
 29 32  1  6  0  0  0
 29 31  1  0  0  0  0
 31 30  2  0  0  0  0
 33 32  1  0  0  0  0
 34 35  1  0  0  0  0
 34 33  1  0  0  0  0
 35 33  1  0  0  0  0
 36 37  1  0  0  0  0
 38 37  1  0  0  0  0
 39 38  1  0  0  0  0
 40 41  1  0  0  0  0
 40 39  1  0  0  0  0
 42 41  1  0  0  0  0
 43 42  1  0  0  0  0
 45 49  1  6  0  0  0
 47 44  1  6  0  0  0
 47 45  1  0  0  0  0
 47 43  1  0  0  0  0
 48 47  1  0  0  0  0
 48 45  1  0  0  0  0
 48 46  1  1  0  0  0
 49 50  1  0  0  0  0
 50 51  1  6  0  0  0
 52 53  1  0  0  0  0
 53 50  1  0  0  0  0
M  END
>  <MODEL>
3

>  <REMARK>
 VINA RESULT:      -5.5      2.468      4.168
  Name = 
  29 active torsions:
  status: ('A' for Active; 'I' for Inactive)
    1  A    between atoms: C_3  and  N_46
    2  A    between atoms: C_3  and  C_53
    3  A    between atoms: C_4  and  C_18
    4  A    between atoms: C_4  and  N_32
    5  A    between atoms: C_5  and  C_20
    6  A    between atoms: C_5  and  C_38
    7  A    between atoms: C_8  and  O_19
    8  A    between atoms: C_9  and  C_10
    9  A    between atoms: C_10  and  C_29
   10  A    between atoms: C_13  and  O_19
   11  A    between atoms: C_13  and  C_36
   12  A    between atoms: O_15  and  C_29
   13  A    between atoms: O_15  and  C_51
   14  A    between atoms: C_16  and  C_20
   15  A    between atoms: C_16  and  C_23
   16  A    between atoms: C_21  and  O_34
   17  A    between atoms: C_21  and  N_45
   18  A    between atoms: C_23  and  C_43
   19  A    between atoms: C_23  and  N_50
   20  A    between atoms: C_25  and  N_32
   21  A    between atoms: C_25  and  O_47
   22  A    between atoms: C_25  and  C_49
   23  A    between atoms: C_26  and  O_34
   24  A    between atoms: C_26  and  C_40
   25  A    between atoms: C_29  and  C_41
   26  A    between atoms: C_30  and  N_50
   27  A    between atoms: C_30  and  C_51
   28  A    between atoms: C_38  and  N_45
   29  A    between atoms: N_46  and  C_49
                            x       y       z     vdW  Elec       q    Type
                         _______ _______ _______ _____ _____    ______ ____

>  <TORSDO>
F 29

$$$$
=
 OpenBabel11032420333D

 53 56  0  0  1  0  0  0  0  0999 V2000
  186.9180  177.9380  138.3070 C   0  0  1  0  0  3  0  0  0  0  0  0
  188.0340  174.1070  135.6870 C   0  0  0  0  0  0  0  0  0  0  0  0
  186.9040  173.1310  135.8020 C   0  0  0  0  0  1  0  0  0  0  0  0
  189.2060  173.6530  135.3750 N   0  0  0  0  0  0  0  0  0  0  0  0
  190.1220  176.1950  134.6920 S   0  0  0  0  0  0  0  0  0  0  0  0
  187.7280  175.5820  135.6610 C   0  0  1  0  0  3  0  0  0  0  0  0
  186.6780  176.0720  136.6260 C   0  0  0  0  0  2  0  0  0  0  0  0
  188.3850  177.7730  136.2110 C   0  0  0  0  0  2  0  0  0  0  0  0
  186.9830  177.5620  136.8120 C   0  0  2  0  0  3  0  0  0  0  0  0
  188.9270  176.3840  136.0260 C   0  0  2  0  0  3  0  0  0  0  0  0
  190.4220  174.4470  135.1880 C   0  0  1  0  0  3  0  0  0  0  0  0
  191.2840  174.4140  136.4480 C   0  0  0  0  0  2  0  0  0  0  0  0
  192.6930  174.2800  136.0950 N   0  0  0  0  0  2  0  0  0  0  0  0
  192.5460  175.9880  137.8200 C   0  0  0  0  0  1  0  0  0  0  0  0
  193.3860  175.4110  136.6940 C   0  0  1  0  0  3  0  0  0  0  0  0
  194.7750  174.9860  137.1760 C   0  0  1  0  0  3  0  0  0  0  0  0
  195.1590  173.1870  138.4080 C   0  0  0  0  0  1  0  0  0  0  0  0
  194.9060  173.5950  137.0980 O   0  0  0  0  0  0  0  0  0  0  0  0
  195.8190  175.6290  136.3850 N   0  0  0  0  0  2  0  0  0  0  0  0
  196.2920  174.6520  135.4120 C   0  0  0  0  0  2  0  0  0  0  0  0
  197.8080  174.5890  135.4290 C   0  0  1  0  0  3  0  0  0  0  0  0
  198.3070  175.6520  136.1770 O   0  0  0  0  0  1  0  0  0  0  0  0
  198.2780  173.2820  136.0430 C   0  0  0  0  0  1  0  0  0  0  0  0
  188.0610  178.7720  138.7210 N   0  0  0  0  0  2  0  0  0  0  0  0
  188.8000  178.1700  139.8330 C   0  0  2  0  0  3  0  0  0  0  0  0
  189.2840  176.9070  139.4710 O   0  0  0  0  0  1  0  0  0  0  0  0
  187.8940  178.0360  141.0350 C   0  0  0  0  0  2  0  0  0  0  0  0
  188.6400  178.2500  142.1930 O   0  0  0  0  0  0  0  0  0  0  0  0
  188.9210  176.9770  142.7000 C   0  0  1  0  0  3  0  0  0  0  0  0
  190.9390  175.8650  143.2480 O   0  0  0  0  0  0  0  0  0  0  0  0
  190.3500  176.9350  143.1500 C   0  0  0  0  0  3  0  0  0  0  0  0
  188.0000  176.6850  143.8800 C   0  0  0  0  0  2  0  0  0  0  0  0
  188.0670  177.8180  144.8960 C   0  0  0  0  0  3  0  0  0  0  0  0
  186.9000  177.6990  145.8560 C   0  0  0  0  0  2  0  0  0  0  0  0
  188.2760  177.2200  146.2730 C   0  0  0  0  0  2  0  0  0  0  0  0
  185.5800  178.5770  138.7350 C   0  0  0  0  0  2  0  0  0  0  0  0
  184.3660  177.6920  138.5040 C   0  0  0  0  0  2  0  0  0  0  0  0
  183.1080  178.4890  138.7960 C   0  0  0  0  0  2  0  0  0  0  0  0
  182.0900  178.2750  137.6990 C   0  0  0  0  0  2  0  0  0  0  0  0
  181.1290  177.2790  138.1340 N   0  0  0  0  0  2  0  0  0  0  0  0
  179.9880  177.9940  138.6760 C   0  0  0  0  0  2  0  0  0  0  0  0
  179.8780  177.7290  140.0400 O   0  0  0  0  0  0  0  0  0  0  0  0
  179.7870  178.9850  140.6430 C   0  0  0  0  0  2  0  0  0  0  0  0
  179.4890  177.6530  142.7420 O   0  0  0  0  0  1  0  0  0  0  0  0
  181.1760  179.4550  142.7710 C   0  0  1  0  0  3  0  0  0  0  0  0
  179.6580  181.2310  142.2840 O   0  0  0  0  0  1  0  0  0  0  0  0
  179.9280  178.8420  142.1550 C   0  0  1  0  0  0  0  0  0  0  0  0
  179.8010  180.0690  143.0450 C   0  0  1  0  0  3  0  0  0  0  0  0
  181.5880  178.7260  143.8900 O   0  0  0  0  0  0  0  0  0  0  0  0
  182.9520  178.4990  143.6930 C   0  0  1  0  0  3  0  0  0  0  0  0
  183.2110  178.3380  142.3330 O   0  0  0  0  0  1  0  0  0  0  0  0
  184.9600  179.8020  143.5400 O   0  0  0  0  0  1  0  0  0  0  0  0
  183.7650  179.6590  144.2480 C   0  0  0  0  0  2  0  0  0  0  0  0
  1 24  1  0  0  0  0
  1 36  1  6  0  0  0
  2  3  1  0  0  0  0
  4  2  2  0  0  0  0
  5 11  1  0  0  0  0
  5 10  1  0  0  0  0
  6  2  1  0  0  0  0
  6 10  1  0  0  0  0
  6  7  1  1  0  0  0
  7  9  1  0  0  0  0
  8  9  1  0  0  0  0
  9  1  1  1  0  0  0
 10  8  1  6  0  0  0
 11  4  1  0  0  0  0
 11 12  1  1  0  0  0
 13 12  1  0  0  0  0
 13 15  1  0  0  0  0
 15 16  1  0  0  0  0
 15 14  1  1  0  0  0
 16 19  1  6  0  0  0
 18 16  1  0  0  0  0
 18 17  1  0  0  0  0
 20 21  1  0  0  0  0
 20 19  1  0  0  0  0
 21 23  1  1  0  0  0
 21 22  1  0  0  0  0
 24 25  1  0  0  0  0
 25 26  1  6  0  0  0
 25 27  1  0  0  0  0
 27 28  1  0  0  0  0
 28 29  1  0  0  0  0
 29 31  1  1  0  0  0
 29 32  1  0  0  0  0
 31 30  2  0  0  0  0
 32 33  1  0  0  0  0
 33 34  1  0  0  0  0
 33 35  1  0  0  0  0
 34 35  1  0  0  0  0
 37 36  1  0  0  0  0
 37 38  1  0  0  0  0
 39 40  1  0  0  0  0
 39 38  1  0  0  0  0
 40 41  1  0  0  0  0
 41 42  1  0  0  0  0
 42 43  1  0  0  0  0
 43 47  1  0  0  0  0
 45 48  1  0  0  0  0
 45 49  1  1  0  0  0
 47 44  1  1  0  0  0
 47 45  1  0  0  0  0
 47 48  1  0  0  0  0
 48 46  1  6  0  0  0
 50 51  1  6  0  0  0
 50 49  1  0  0  0  0
 50 53  1  0  0  0  0
 52 53  1  0  0  0  0
M  END
>  <MODEL>
4

>  <REMARK>
 VINA RESULT:      -5.3      2.814      9.048
  Name = 
  29 active torsions:
  status: ('A' for Active; 'I' for Inactive)
    1  A    between atoms: C_3  and  N_46
    2  A    between atoms: C_3  and  C_53
    3  A    between atoms: C_4  and  C_18
    4  A    between atoms: C_4  and  N_32
    5  A    between atoms: C_5  and  C_20
    6  A    between atoms: C_5  and  C_38
    7  A    between atoms: C_8  and  O_19
    8  A    between atoms: C_9  and  C_10
    9  A    between atoms: C_10  and  C_29
   10  A    between atoms: C_13  and  O_19
   11  A    between atoms: C_13  and  C_36
   12  A    between atoms: O_15  and  C_29
   13  A    between atoms: O_15  and  C_51
   14  A    between atoms: C_16  and  C_20
   15  A    between atoms: C_16  and  C_23
   16  A    between atoms: C_21  and  O_34
   17  A    between atoms: C_21  and  N_45
   18  A    between atoms: C_23  and  C_43
   19  A    between atoms: C_23  and  N_50
   20  A    between atoms: C_25  and  N_32
   21  A    between atoms: C_25  and  O_47
   22  A    between atoms: C_25  and  C_49
   23  A    between atoms: C_26  and  O_34
   24  A    between atoms: C_26  and  C_40
   25  A    between atoms: C_29  and  C_41
   26  A    between atoms: C_30  and  N_50
   27  A    between atoms: C_30  and  C_51
   28  A    between atoms: C_38  and  N_45
   29  A    between atoms: N_46  and  C_49
                            x       y       z     vdW  Elec       q    Type
                         _______ _______ _______ _____ _____    ______ ____

>  <TORSDO>
F 29

$$$$
=
 OpenBabel11032420333D

 53 56  0  0  1  0  0  0  0  0999 V2000
  186.0710  177.8550  143.8720 C   0  0  1  0  0  3  0  0  0  0  0  0
  190.7950  178.5320  143.7610 C   0  0  0  0  0  0  0  0  0  0  0  0
  191.1060  179.7220  144.6150 C   0  0  0  0  0  1  0  0  0  0  0  0
  191.6380  178.2080  142.8320 N   0  0  0  0  0  0  0  0  0  0  0  0
  190.5300  175.6640  142.5700 S   0  0  0  0  0  0  0  0  0  0  0  0
  189.6850  177.6020  144.1750 C   0  0  1  0  0  3  0  0  0  0  0  0
  188.4230  178.2450  144.6960 C   0  0  0  0  0  2  0  0  0  0  0  0
  187.9510  176.1440  143.5380 C   0  0  0  0  0  2  0  0  0  0  0  0
  187.3300  177.1960  144.4750 C   0  0  2  0  0  3  0  0  0  0  0  0
  189.2030  176.7960  143.0210 C   0  0  2  0  0  3  0  0  0  0  0  0
  191.5270  177.0690  141.9180 C   0  0  1  0  0  3  0  0  0  0  0  0
  190.9630  177.5130  140.5710 C   0  0  0  0  0  2  0  0  0  0  0  0
  190.5480  176.3550  139.7880 N   0  0  0  0  0  2  0  0  0  0  0  0
  189.0520  178.2090  139.2970 C   0  0  0  0  0  1  0  0  0  0  0  0
  189.3100  176.7230  139.1160 C   0  0  1  0  0  3  0  0  0  0  0  0
  189.3730  176.3300  137.6380 C   0  0  1  0  0  3  0  0  0  0  0  0
  189.0100  177.6270  135.8820 C   0  0  0  0  0  1  0  0  0  0  0  0
  189.9400  177.3660  136.8890 O   0  0  0  0  0  0  0  0  0  0  0  0
  190.1470  175.1060  137.4590 N   0  0  0  0  0  2  0  0  0  0  0  0
  191.3040  175.4380  136.6380 C   0  0  0  0  0  2  0  0  0  0  0  0
  192.3180  174.3100  136.6810 C   0  0  1  0  0  3  0  0  0  0  0  0
  191.6660  173.0940  136.4840 O   0  0  0  0  0  1  0  0  0  0  0  0
  193.3670  174.4950  135.5990 C   0  0  0  0  0  1  0  0  0  0  0  0
  184.9510  177.8920  144.8300 N   0  0  0  0  0  2  0  0  0  0  0  0
  183.9590  178.9070  144.4680 C   0  0  2  0  0  3  0  0  0  0  0  0
  183.2990  179.3750  145.6120 O   0  0  0  0  0  1  0  0  0  0  0  0
  182.9490  178.3160  143.5110 C   0  0  0  0  0  2  0  0  0  0  0  0
  182.1560  179.3410  142.9970 O   0  0  0  0  0  0  0  0  0  0  0  0
  180.9180  178.7540  142.7170 C   0  0  1  0  0  3  0  0  0  0  0  0
  179.6820  177.5320  144.3260 O   0  0  0  0  0  0  0  0  0  0  0  0
  180.1420  178.6180  143.9920 C   0  0  0  0  0  3  0  0  0  0  0  0
  180.1490  179.6330  141.7360 C   0  0  0  0  0  2  0  0  0  0  0  0
  180.9220  179.7710  140.4310 C   0  0  0  0  0  3  0  0  0  0  0  0
  180.3440  178.8190  139.4030 C   0  0  0  0  0  2  0  0  0  0  0  0
  179.9810  180.2910  139.3640 C   0  0  0  0  0  2  0  0  0  0  0  0
  186.3250  179.2490  143.2610 C   0  0  0  0  0  2  0  0  0  0  0  0
  186.4950  179.2430  141.7500 C   0  0  0  0  0  2  0  0  0  0  0  0
  185.5090  178.2620  141.1440 C   0  0  0  0  0  2  0  0  0  0  0  0
  184.4560  179.0040  140.3540 C   0  0  0  0  0  2  0  0  0  0  0  0
  185.0210  179.4180  139.0840 N   0  0  0  0  0  2  0  0  0  0  0  0
  184.9540  178.2740  138.1920 C   0  0  0  0  0  2  0  0  0  0  0  0
  183.7520  177.5980  138.3930 O   0  0  0  0  0  0  0  0  0  0  0  0
  183.0680  177.7150  137.1810 C   0  0  0  0  0  2  0  0  0  0  0  0
  184.0800  176.4100  135.2990 O   0  0  0  0  0  1  0  0  0  0  0  0
  183.1460  175.1320  137.1920 C   0  0  1  0  0  3  0  0  0  0  0  0
  180.9170  175.9580  136.9810 O   0  0  0  0  0  1  0  0  0  0  0  0
  183.2040  176.4200  136.3860 C   0  0  1  0  0  0  0  0  0  0  0  0
  182.0060  175.4950  136.2390 C   0  0  1  0  0  3  0  0  0  0  0  0
  183.9410  174.1420  136.6070 O   0  0  0  0  0  0  0  0  0  0  0  0
  184.8840  173.8100  137.5820 C   0  0  1  0  0  3  0  0  0  0  0  0
  184.9400  172.4260  137.7320 O   0  0  0  0  0  1  0  0  0  0  0  0
  187.1400  173.3030  136.9430 O   0  0  0  0  0  1  0  0  0  0  0  0
  186.2530  174.3510  137.1970 C   0  0  0  0  0  2  0  0  0  0  0  0
  1 36  1  1  0  0  0
  1 24  1  0  0  0  0
  2  6  1  0  0  0  0
  2  3  1  0  0  0  0
  4  2  2  0  0  0  0
  5 10  1  0  0  0  0
  6  7  1  6  0  0  0
  8  9  1  0  0  0  0
  9  1  1  6  0  0  0
  9  7  1  0  0  0  0
 10  8  1  1  0  0  0
 10  6  1  0  0  0  0
 11 12  1  6  0  0  0
 11  5  1  0  0  0  0
 11  4  1  0  0  0  0
 13 12  1  0  0  0  0
 15 14  1  6  0  0  0
 15 13  1  0  0  0  0
 16 18  1  6  0  0  0
 16 15  1  0  0  0  0
 17 18  1  0  0  0  0
 19 16  1  0  0  0  0
 20 21  1  0  0  0  0
 20 19  1  0  0  0  0
 21 23  1  6  0  0  0
 22 21  1  0  0  0  0
 25 24  1  0  0  0  0
 25 26  1  1  0  0  0
 27 25  1  0  0  0  0
 28 27  1  0  0  0  0
 29 32  1  6  0  0  0
 29 28  1  0  0  0  0
 29 31  1  0  0  0  0
 31 30  2  0  0  0  0
 33 32  1  0  0  0  0
 34 33  1  0  0  0  0
 35 34  1  0  0  0  0
 35 33  1  0  0  0  0
 37 36  1  0  0  0  0
 38 37  1  0  0  0  0
 39 38  1  0  0  0  0
 40 39  1  0  0  0  0
 41 42  1  0  0  0  0
 41 40  1  0  0  0  0
 43 42  1  0  0  0  0
 45 49  1  6  0  0  0
 47 44  1  6  0  0  0
 47 43  1  0  0  0  0
 47 45  1  0  0  0  0
 48 47  1  0  0  0  0
 48 46  1  1  0  0  0
 48 45  1  0  0  0  0
 49 50  1  0  0  0  0
 50 51  1  6  0  0  0
 52 53  1  0  0  0  0
 53 50  1  0  0  0  0
M  END
>  <MODEL>
5

>  <REMARK>
 VINA RESULT:      -4.8      2.973      7.854
  Name = 
  29 active torsions:
  status: ('A' for Active; 'I' for Inactive)
    1  A    between atoms: C_3  and  N_46
    2  A    between atoms: C_3  and  C_53
    3  A    between atoms: C_4  and  C_18
    4  A    between atoms: C_4  and  N_32
    5  A    between atoms: C_5  and  C_20
    6  A    between atoms: C_5  and  C_38
    7  A    between atoms: C_8  and  O_19
    8  A    between atoms: C_9  and  C_10
    9  A    between atoms: C_10  and  C_29
   10  A    between atoms: C_13  and  O_19
   11  A    between atoms: C_13  and  C_36
   12  A    between atoms: O_15  and  C_29
   13  A    between atoms: O_15  and  C_51
   14  A    between atoms: C_16  and  C_20
   15  A    between atoms: C_16  and  C_23
   16  A    between atoms: C_21  and  O_34
   17  A    between atoms: C_21  and  N_45
   18  A    between atoms: C_23  and  C_43
   19  A    between atoms: C_23  and  N_50
   20  A    between atoms: C_25  and  N_32
   21  A    between atoms: C_25  and  O_47
   22  A    between atoms: C_25  and  C_49
   23  A    between atoms: C_26  and  O_34
   24  A    between atoms: C_26  and  C_40
   25  A    between atoms: C_29  and  C_41
   26  A    between atoms: C_30  and  N_50
   27  A    between atoms: C_30  and  C_51
   28  A    between atoms: C_38  and  N_45
   29  A    between atoms: N_46  and  C_49
                            x       y       z     vdW  Elec       q    Type
                         _______ _______ _______ _____ _____    ______ ____

>  <TORSDO>
F 29

$$$$
=
 OpenBabel11032420333D

 53 56  0  0  1  0  0  0  0  0999 V2000
  186.1320  178.2100  144.4810 C   0  0  1  0  0  3  0  0  0  0  0  0
  181.6870  178.6420  142.7940 C   0  0  0  0  0  0  0  0  0  0  0  0
  180.7530  178.6430  143.9640 C   0  0  0  0  0  1  0  0  0  0  0  0
  181.2220  178.2870  141.6380 N   0  0  0  0  0  0  0  0  0  0  0  0
  183.3960  179.4060  140.3020 S   0  0  0  0  0  0  0  0  0  0  0  0
  183.0330  179.3060  142.9300 C   0  0  1  0  0  3  0  0  0  0  0  0
  183.7750  179.0720  144.2220 C   0  0  0  0  0  2  0  0  0  0  0  0
  185.3100  179.3560  142.3390 C   0  0  0  0  0  2  0  0  0  0  0  0
  185.2470  179.3220  143.8770 C   0  0  2  0  0  3  0  0  0  0  0  0
  183.9820  178.8090  141.8970 C   0  0  2  0  0  3  0  0  0  0  0  0
  181.9650  178.2490  140.3770 C   0  0  1  0  0  3  0  0  0  0  0  0
  182.4400  176.8300  140.0760 C   0  0  0  0  0  2  0  0  0  0  0  0
  181.3330  176.0190  139.5790 N   0  0  0  0  0  2  0  0  0  0  0  0
  182.6130  176.0120  137.5110 C   0  0  0  0  0  1  0  0  0  0  0  0
  181.2530  176.2500  138.1440 C   0  0  1  0  0  3  0  0  0  0  0  0
  180.1700  175.3640  137.5250 C   0  0  1  0  0  3  0  0  0  0  0  0
  179.3460  177.4120  137.3600 C   0  0  0  0  0  1  0  0  0  0  0  0
  179.2780  176.1440  136.7810 O   0  0  0  0  0  0  0  0  0  0  0  0
  180.7630  174.3380  136.6740 N   0  0  0  0  0  2  0  0  0  0  0  0
  180.6300  173.0640  137.3710 C   0  0  0  0  0  2  0  0  0  0  0  0
  181.2730  171.9550  136.5590 C   0  0  1  0  0  3  0  0  0  0  0  0
  180.8740  172.0650  135.2280 O   0  0  0  0  0  1  0  0  0  0  0  0
  182.7860  172.0470  136.6360 C   0  0  0  0  0  1  0  0  0  0  0  0
  185.5680  177.6680  145.7300 N   0  0  0  0  0  2  0  0  0  0  0  0
  186.1380  178.3180  146.9120 C   0  0  2  0  0  3  0  0  0  0  0  0
  185.6920  179.6420  147.0050 O   0  0  0  0  0  1  0  0  0  0  0  0
  187.6470  178.3000  146.8260 C   0  0  0  0  0  2  0  0  0  0  0  0
  188.0810  176.9790  146.7330 O   0  0  0  0  0  0  0  0  0  0  0  0
  189.4420  177.0510  146.4180 C   0  0  1  0  0  3  0  0  0  0  0  0
  190.3860  178.4000  144.7150 O   0  0  0  0  0  0  0  0  0  0  0  0
  189.7170  178.3600  145.7410 C   0  0  0  0  0  3  0  0  0  0  0  0
  190.2670  176.9480  147.6960 C   0  0  0  0  0  2  0  0  0  0  0  0
  191.7510  176.8590  147.3610 C   0  0  0  0  0  3  0  0  0  0  0  0
  192.3300  175.6040  147.9840 C   0  0  0  0  0  2  0  0  0  0  0  0
  191.9810  175.6270  146.5090 C   0  0  0  0  0  2  0  0  0  0  0  0
  186.4800  177.0790  143.4910 C   0  0  0  0  0  2  0  0  0  0  0  0
  187.9240  176.6080  143.5680 C   0  0  0  0  0  2  0  0  0  0  0  0
  188.5290  176.6320  142.1770 C   0  0  0  0  0  2  0  0  0  0  0  0
  188.5360  178.0450  141.6370 C   0  0  0  0  0  2  0  0  0  0  0  0
  189.5800  178.1630  140.6370 N   0  0  0  0  0  2  0  0  0  0  0  0
  189.1120  177.4750  139.4470 C   0  0  0  0  0  2  0  0  0  0  0  0
  189.4630  178.2100  138.3160 O   0  0  0  0  0  0  0  0  0  0  0  0
  188.3260  178.1860  137.5060 C   0  0  0  0  0  2  0  0  0  0  0  0
  189.8880  176.9030  136.0290 O   0  0  0  0  0  1  0  0  0  0  0  0
  187.5140  176.2290  136.0260 C   0  0  1  0  0  3  0  0  0  0  0  0
  186.6560  178.3290  135.2830 O   0  0  0  0  0  1  0  0  0  0  0  0
  188.5730  177.2860  136.2990 C   0  0  1  0  0  0  0  0  0  0  0  0
  187.6870  177.4120  135.0690 C   0  0  1  0  0  3  0  0  0  0  0  0
  188.0850  175.0880  135.4570 O   0  0  0  0  0  0  0  0  0  0  0  0
  187.6850  174.0330  136.2810 C   0  0  1  0  0  3  0  0  0  0  0  0
  186.5130  174.3770  136.9520 O   0  0  0  0  0  1  0  0  0  0  0  0
  186.1320  172.6740  135.0580 O   0  0  0  0  0  1  0  0  0  0  0  0
  187.4670  172.7730  135.4570 C   0  0  0  0  0  2  0  0  0  0  0  0
  1 36  1  6  0  0  0
  1 24  1  0  0  0  0
  2  6  1  0  0  0  0
  2  3  1  0  0  0  0
  4  2  2  0  0  0  0
  5 11  1  0  0  0  0
  5 10  1  0  0  0  0
  6  7  1  1  0  0  0
  8  9  1  0  0  0  0
  9  7  1  0  0  0  0
  9  1  1  6  0  0  0
 10  8  1  1  0  0  0
 10  6  1  0  0  0  0
 11 12  1  1  0  0  0
 11  4  1  0  0  0  0
 13 12  1  0  0  0  0
 15 14  1  6  0  0  0
 15 13  1  0  0  0  0
 16 19  1  6  0  0  0
 16 15  1  0  0  0  0
 18 17  1  0  0  0  0
 18 16  1  0  0  0  0
 19 20  1  0  0  0  0
 21 23  1  6  0  0  0
 21 20  1  0  0  0  0
 22 21  1  0  0  0  0
 24 25  1  0  0  0  0
 25 26  1  6  0  0  0
 27 25  1  0  0  0  0
 28 27  1  0  0  0  0
 29 31  1  1  0  0  0
 29 28  1  0  0  0  0
 29 32  1  0  0  0  0
 30 31  2  0  0  0  0
 33 32  1  0  0  0  0
 33 34  1  0  0  0  0
 35 33  1  0  0  0  0
 35 34  1  0  0  0  0
 36 37  1  0  0  0  0
 38 37  1  0  0  0  0
 39 38  1  0  0  0  0
 40 39  1  0  0  0  0
 41 40  1  0  0  0  0
 42 41  1  0  0  0  0
 43 42  1  0  0  0  0
 45 49  1  6  0  0  0
 45 47  1  0  0  0  0
 47 44  1  6  0  0  0
 47 43  1  0  0  0  0
 48 46  1  1  0  0  0
 48 45  1  0  0  0  0
 48 47  1  0  0  0  0
 49 50  1  0  0  0  0
 50 51  1  6  0  0  0
 52 53  1  0  0  0  0
 53 50  1  0  0  0  0
M  END
>  <MODEL>
6

>  <REMARK>
 VINA RESULT:      -4.8      3.256      5.243
  Name = 
  29 active torsions:
  status: ('A' for Active; 'I' for Inactive)
    1  A    between atoms: C_3  and  N_46
    2  A    between atoms: C_3  and  C_53
    3  A    between atoms: C_4  and  C_18
    4  A    between atoms: C_4  and  N_32
    5  A    between atoms: C_5  and  C_20
    6  A    between atoms: C_5  and  C_38
    7  A    between atoms: C_8  and  O_19
    8  A    between atoms: C_9  and  C_10
    9  A    between atoms: C_10  and  C_29
   10  A    between atoms: C_13  and  O_19
   11  A    between atoms: C_13  and  C_36
   12  A    between atoms: O_15  and  C_29
   13  A    between atoms: O_15  and  C_51
   14  A    between atoms: C_16  and  C_20
   15  A    between atoms: C_16  and  C_23
   16  A    between atoms: C_21  and  O_34
   17  A    between atoms: C_21  and  N_45
   18  A    between atoms: C_23  and  C_43
   19  A    between atoms: C_23  and  N_50
   20  A    between atoms: C_25  and  N_32
   21  A    between atoms: C_25  and  O_47
   22  A    between atoms: C_25  and  C_49
   23  A    between atoms: C_26  and  O_34
   24  A    between atoms: C_26  and  C_40
   25  A    between atoms: C_29  and  C_41
   26  A    between atoms: C_30  and  N_50
   27  A    between atoms: C_30  and  C_51
   28  A    between atoms: C_38  and  N_45
   29  A    between atoms: N_46  and  C_49
                            x       y       z     vdW  Elec       q    Type
                         _______ _______ _______ _____ _____    ______ ____

>  <TORSDO>
F 29

$$$$
=
 OpenBabel11032420333D

 53 56  0  0  1  0  0  0  0  0999 V2000
  186.2020  178.2590  143.5960 C   0  0  1  0  0  3  0  0  0  0  0  0
  190.9570  178.5760  143.8640 C   0  0  0  0  0  0  0  0  0  0  0  0
  191.2880  179.7620  144.7170 C   0  0  0  0  0  1  0  0  0  0  0  0
  191.8450  178.1660  143.0140 N   0  0  0  0  0  0  0  0  0  0  0  0
  190.5690  175.7070  142.7110 S   0  0  0  0  0  0  0  0  0  0  0  0
  189.7480  177.7440  144.2030 C   0  0  1  0  0  3  0  0  0  0  0  0
  188.5020  178.4930  144.6050 C   0  0  0  0  0  2  0  0  0  0  0  0
  187.9650  176.4040  143.4520 C   0  0  0  0  0  2  0  0  0  0  0  0
  187.3530  177.5230  144.3140 C   0  0  2  0  0  3  0  0  0  0  0  0
  189.3010  176.9460  143.0290 C   0  0  2  0  0  3  0  0  0  0  0  0
  191.7210  177.0150  142.1170 C   0  0  1  0  0  3  0  0  0  0  0  0
  191.3050  177.4660  140.7200 C   0  0  0  0  0  2  0  0  0  0  0  0
  192.2500  176.9720  139.7240 N   0  0  0  0  0  2  0  0  0  0  0  0
  190.5230  177.4440  138.0780 C   0  0  0  0  0  1  0  0  0  0  0  0
  191.4620  176.3940  138.6460 C   0  0  1  0  0  3  0  0  0  0  0  0
  192.3820  175.8090  137.5730 C   0  0  1  0  0  3  0  0  0  0  0  0
  191.6890  175.3280  135.5260 C   0  0  0  0  0  1  0  0  0  0  0  0
  192.1030  176.3900  136.3310 O   0  0  0  0  0  0  0  0  0  0  0  0
  193.7840  176.0230  137.9180 N   0  0  0  0  0  2  0  0  0  0  0  0
  194.5060  174.8020  137.5800 C   0  0  0  0  0  2  0  0  0  0  0  0
  195.4200  175.0470  136.3930 C   0  0  1  0  0  3  0  0  0  0  0  0
  196.6560  175.5020  136.8480 O   0  0  0  0  0  1  0  0  0  0  0  0
  195.6200  173.7660  135.6020 C   0  0  0  0  0  1  0  0  0  0  0  0
  186.0180  177.7880  142.2110 N   0  0  0  0  0  2  0  0  0  0  0  0
  186.3160  178.8370  141.2350 C   0  0  2  0  0  3  0  0  0  0  0  0
  185.1550  179.5510  140.9150 O   0  0  0  0  0  1  0  0  0  0  0  0
  186.8880  178.2190  139.9790 C   0  0  0  0  0  2  0  0  0  0  0  0
  186.4720  178.9630  138.8760 O   0  0  0  0  0  0  0  0  0  0  0  0
  186.4900  178.0760  137.7950 C   0  0  1  0  0  3  0  0  0  0  0  0
  187.9130  179.7130  136.8430 O   0  0  0  0  0  0  0  0  0  0  0  0
  187.2410  178.7050  136.6600 C   0  0  0  0  0  3  0  0  0  0  0  0
  187.1760  176.7800  138.2120 C   0  0  0  0  0  2  0  0  0  0  0  0
  187.2210  175.8050  137.0420 C   0  0  0  0  0  3  0  0  0  0  0  0
  186.1570  174.7430  137.2340 C   0  0  0  0  0  2  0  0  0  0  0  0
  185.9120  175.8990  136.2840 C   0  0  0  0  0  2  0  0  0  0  0  0
  184.8670  178.2420  144.3700 C   0  0  0  0  0  2  0  0  0  0  0  0
  184.2520  179.6170  144.5780 C   0  0  0  0  0  2  0  0  0  0  0  0
  183.0010  179.7350  143.7270 C   0  0  0  0  0  2  0  0  0  0  0  0
  182.0240  178.6370  144.0820 C   0  0  0  0  0  2  0  0  0  0  0  0
  180.7530  178.9080  143.4390 N   0  0  0  0  0  2  0  0  0  0  0  0
  180.9820  178.8670  142.0050 C   0  0  0  0  0  2  0  0  0  0  0  0
  179.8330  178.4090  141.3630 O   0  0  0  0  0  0  0  0  0  0  0  0
  180.0860  177.0630  141.0940 C   0  0  0  0  0  2  0  0  0  0  0  0
  179.6200  177.8720  138.7710 O   0  0  0  0  0  1  0  0  0  0  0  0
  180.6900  175.6600  139.0090 C   0  0  1  0  0  3  0  0  0  0  0  0
  178.9320  174.6640  140.2780 O   0  0  0  0  0  1  0  0  0  0  0  0
  179.8590  176.7830  139.6110 C   0  0  1  0  0  0  0  0  0  0  0  0
  179.1780  175.4930  139.1820 C   0  0  1  0  0  3  0  0  0  0  0  0
  180.9750  175.9180  137.6650 O   0  0  0  0  0  0  0  0  0  0  0  0
  182.0850  175.1230  137.3710 C   0  0  1  0  0  3  0  0  0  0  0  0
  183.0490  175.2710  138.3670 O   0  0  0  0  0  1  0  0  0  0  0  0
  182.7660  172.8690  136.9080 O   0  0  0  0  0  1  0  0  0  0  0  0
  181.6710  173.6630  137.2570 C   0  0  0  0  0  2  0  0  0  0  0  0
  1 36  1  1  0  0  0
  2  6  1  0  0  0  0
  2  3  1  0  0  0  0
  4  2  2  0  0  0  0
  5 10  1  0  0  0  0
  6  7  1  6  0  0  0
  8  9  1  0  0  0  0
  9  1  1  6  0  0  0
  9  7  1  0  0  0  0
 10  8  1  1  0  0  0
 10  6  1  0  0  0  0
 11 12  1  6  0  0  0
 11  5  1  0  0  0  0
 11  4  1  0  0  0  0
 13 12  1  0  0  0  0
 15 14  1  6  0  0  0
 15 13  1  0  0  0  0
 16 18  1  6  0  0  0
 16 19  1  0  0  0  0
 16 15  1  0  0  0  0
 17 18  1  0  0  0  0
 20 19  1  0  0  0  0
 21 23  1  1  0  0  0
 21 22  1  0  0  0  0
 21 20  1  0  0  0  0
 24  1  1  0  0  0  0
 25 26  1  6  0  0  0
 25 24  1  0  0  0  0
 27 25  1  0  0  0  0
 28 27  1  0  0  0  0
 29 31  1  6  0  0  0
 29 32  1  0  0  0  0
 29 28  1  0  0  0  0
 31 30  2  0  0  0  0
 33 34  1  0  0  0  0
 33 32  1  0  0  0  0
 35 33  1  0  0  0  0
 35 34  1  0  0  0  0
 36 37  1  0  0  0  0
 38 39  1  0  0  0  0
 38 37  1  0  0  0  0
 40 39  1  0  0  0  0
 41 40  1  0  0  0  0
 42 41  1  0  0  0  0
 43 42  1  0  0  0  0
 45 49  1  6  0  0  0
 45 48  1  0  0  0  0
 45 47  1  0  0  0  0
 47 44  1  6  0  0  0
 47 43  1  0  0  0  0
 48 47  1  0  0  0  0
 48 46  1  1  0  0  0
 50 49  1  0  0  0  0
 50 51  1  1  0  0  0
 52 53  1  0  0  0  0
 53 50  1  0  0  0  0
M  END
>  <MODEL>
7

>  <REMARK>
 VINA RESULT:      -4.7      3.364      9.356
  Name = 
  29 active torsions:
  status: ('A' for Active; 'I' for Inactive)
    1  A    between atoms: C_3  and  N_46
    2  A    between atoms: C_3  and  C_53
    3  A    between atoms: C_4  and  C_18
    4  A    between atoms: C_4  and  N_32
    5  A    between atoms: C_5  and  C_20
    6  A    between atoms: C_5  and  C_38
    7  A    between atoms: C_8  and  O_19
    8  A    between atoms: C_9  and  C_10
    9  A    between atoms: C_10  and  C_29
   10  A    between atoms: C_13  and  O_19
   11  A    between atoms: C_13  and  C_36
   12  A    between atoms: O_15  and  C_29
   13  A    between atoms: O_15  and  C_51
   14  A    between atoms: C_16  and  C_20
   15  A    between atoms: C_16  and  C_23
   16  A    between atoms: C_21  and  O_34
   17  A    between atoms: C_21  and  N_45
   18  A    between atoms: C_23  and  C_43
   19  A    between atoms: C_23  and  N_50
   20  A    between atoms: C_25  and  N_32
   21  A    between atoms: C_25  and  O_47
   22  A    between atoms: C_25  and  C_49
   23  A    between atoms: C_26  and  O_34
   24  A    between atoms: C_26  and  C_40
   25  A    between atoms: C_29  and  C_41
   26  A    between atoms: C_30  and  N_50
   27  A    between atoms: C_30  and  C_51
   28  A    between atoms: C_38  and  N_45
   29  A    between atoms: N_46  and  C_49
                            x       y       z     vdW  Elec       q    Type
                         _______ _______ _______ _____ _____    ______ ____

>  <TORSDO>
F 29

$$$$
=
 OpenBabel11032420333D

 53 56  0  0  1  0  0  0  0  0999 V2000
  188.9780  177.8230  140.4920 C   0  0  1  0  0  3  0  0  0  0  0  0
  184.5940  178.3370  142.3090 C   0  0  0  0  0  0  0  0  0  0  0  0
  184.7090  178.2820  143.8010 C   0  0  0  0  0  1  0  0  0  0  0  0
  183.4540  178.0380  141.7700 N   0  0  0  0  0  0  0  0  0  0  0  0
  184.1690  179.2180  139.3500 S   0  0  0  0  0  0  0  0  0  0  0  0
  185.6920  178.9930  141.5130 C   0  0  1  0  0  3  0  0  0  0  0  0
  187.1070  178.6970  141.9410 C   0  0  0  0  0  2  0  0  0  0  0  0
  186.9550  179.0700  139.5290 C   0  0  0  0  0  2  0  0  0  0  0  0
  187.9560  178.9620  140.6940 C   0  0  2  0  0  3  0  0  0  0  0  0
  185.6650  178.5460  140.0940 C   0  0  2  0  0  3  0  0  0  0  0  0
  183.1370  178.0600  140.3410 C   0  0  1  0  0  3  0  0  0  0  0  0
  183.2310  176.6560  139.7480 C   0  0  0  0  0  2  0  0  0  0  0  0
  182.6640  176.6350  138.4040 N   0  0  0  0  0  2  0  0  0  0  0  0
  180.6650  175.5660  139.2860 C   0  0  0  0  0  1  0  0  0  0  0  0
  181.8300  175.4450  138.3190 C   0  0  1  0  0  3  0  0  0  0  0  0
  181.3590  175.2310  136.8790 C   0  0  1  0  0  3  0  0  0  0  0  0
  179.9210  176.5590  135.8430 C   0  0  0  0  0  1  0  0  0  0  0  0
  181.2620  176.4600  136.2170 O   0  0  0  0  0  0  0  0  0  0  0  0
  182.2710  174.3490  136.1590 N   0  0  0  0  0  2  0  0  0  0  0  0
  182.2520  173.0570  136.8350 C   0  0  0  0  0  2  0  0  0  0  0  0
  183.6670  172.6190  137.1640 C   0  0  1  0  0  3  0  0  0  0  0  0
  183.8260  171.2770  136.8250 O   0  0  0  0  0  1  0  0  0  0  0  0
  184.6750  173.4510  136.3910 C   0  0  0  0  0  1  0  0  0  0  0  0
  189.3990  177.2200  141.7700 N   0  0  0  0  0  2  0  0  0  0  0  0
  190.6730  177.7690  142.2370 C   0  0  2  0  0  3  0  0  0  0  0  0
  191.7260  177.3130  141.4340 O   0  0  0  0  0  1  0  0  0  0  0  0
  190.9150  177.3500  143.6690 C   0  0  0  0  0  2  0  0  0  0  0  0
  189.7630  176.7400  144.1650 O   0  0  0  0  0  0  0  0  0  0  0  0
  189.9630  176.6220  145.5440 C   0  0  1  0  0  3  0  0  0  0  0  0
  192.0410  176.3900  146.6590 O   0  0  0  0  0  0  0  0  0  0  0  0
  191.3640  177.0430  145.8720 C   0  0  0  0  0  3  0  0  0  0  0  0
  188.9710  177.5150  146.2810 C   0  0  0  0  0  2  0  0  0  0  0  0
  189.0890  177.3070  147.7860 C   0  0  0  0  0  3  0  0  0  0  0  0
  189.1530  178.6560  148.4740 C   0  0  0  0  0  2  0  0  0  0  0  0
  187.8530  177.8770  148.4510 C   0  0  0  0  0  2  0  0  0  0  0  0
  188.5210  176.7400  139.4920 C   0  0  0  0  0  2  0  0  0  0  0  0
  189.1860  176.8330  138.1280 C   0  0  0  0  0  2  0  0  0  0  0  0
  190.6600  176.5010  138.2710 C   0  0  0  0  0  2  0  0  0  0  0  0
  191.3050  176.4010  136.9070 C   0  0  0  0  0  2  0  0  0  0  0  0
  192.7000  176.7850  137.0150 N   0  0  0  0  0  2  0  0  0  0  0  0
  193.4780  175.7620  136.3380 C   0  0  0  0  0  2  0  0  0  0  0  0
  194.7970  175.8090  136.7870 O   0  0  0  0  0  0  0  0  0  0  0  0
  195.5730  175.6960  135.6320 C   0  0  0  0  0  2  0  0  0  0  0  0
  198.0600  175.9160  135.8100 O   0  0  0  0  0  1  0  0  0  0  0  0
  196.9730  174.1810  137.1890 C   0  0  1  0  0  3  0  0  0  0  0  0
  196.0310  172.9620  135.3660 O   0  0  0  0  0  1  0  0  0  0  0  0
  196.9360  175.1070  135.9820 C   0  0  1  0  0  0  0  0  0  0  0  0
  197.1910  173.6210  135.7810 C   0  0  1  0  0  3  0  0  0  0  0  0
  198.2040  174.2700  137.8460 O   0  0  0  0  0  0  0  0  0  0  0  0
  197.8930  174.6760  139.1450 C   0  0  1  0  0  3  0  0  0  0  0  0
  198.2630  176.0080  139.3240 O   0  0  0  0  0  1  0  0  0  0  0  0
  195.9300  175.5360  140.2240 O   0  0  0  0  0  1  0  0  0  0  0  0
  196.4030  174.5070  139.4080 C   0  0  0  0  0  2  0  0  0  0  0  0
  1 36  1  6  0  0  0
  1 24  1  0  0  0  0
  2  3  1  0  0  0  0
  4  2  2  0  0  0  0
  5 10  1  0  0  0  0
  5 11  1  0  0  0  0
  6  7  1  1  0  0  0
  6  2  1  0  0  0  0
  8  9  1  0  0  0  0
  9  1  1  6  0  0  0
  9  7  1  0  0  0  0
 10  8  1  6  0  0  0
 10  6  1  0  0  0  0
 11 12  1  6  0  0  0
 11  4  1  0  0  0  0
 13 12  1  0  0  0  0
 15 13  1  0  0  0  0
 15 14  1  1  0  0  0
 16 19  1  6  0  0  0
 16 15  1  0  0  0  0
 17 18  1  0  0  0  0
 18 16  1  0  0  0  0
 19 20  1  0  0  0  0
 20 21  1  0  0  0  0
 21 23  1  6  0  0  0
 22 21  1  0  0  0  0
 24 25  1  0  0  0  0
 25 26  1  6  0  0  0
 25 27  1  0  0  0  0
 27 28  1  0  0  0  0
 28 29  1  0  0  0  0
 29 31  1  6  0  0  0
 29 32  1  0  0  0  0
 31 30  2  0  0  0  0
 32 33  1  0  0  0  0
 33 35  1  0  0  0  0
 33 34  1  0  0  0  0
 35 34  1  0  0  0  0
 37 38  1  0  0  0  0
 37 36  1  0  0  0  0
 39 40  1  0  0  0  0
 39 38  1  0  0  0  0
 41 42  1  0  0  0  0
 41 40  1  0  0  0  0
 43 47  1  0  0  0  0
 43 42  1  0  0  0  0
 45 49  1  1  0  0  0
 47 44  1  6  0  0  0
 47 45  1  0  0  0  0
 48 46  1  6  0  0  0
 48 47  1  0  0  0  0
 48 45  1  0  0  0  0
 49 50  1  0  0  0  0
 50 51  1  6  0  0  0
 50 53  1  0  0  0  0
 53 52  1  0  0  0  0
M  END
>  <MODEL>
8

>  <REMARK>
 VINA RESULT:      -4.7      2.336      4.600
  Name = 
  29 active torsions:
  status: ('A' for Active; 'I' for Inactive)
    1  A    between atoms: C_3  and  N_46
    2  A    between atoms: C_3  and  C_53
    3  A    between atoms: C_4  and  C_18
    4  A    between atoms: C_4  and  N_32
    5  A    between atoms: C_5  and  C_20
    6  A    between atoms: C_5  and  C_38
    7  A    between atoms: C_8  and  O_19
    8  A    between atoms: C_9  and  C_10
    9  A    between atoms: C_10  and  C_29
   10  A    between atoms: C_13  and  O_19
   11  A    between atoms: C_13  and  C_36
   12  A    between atoms: O_15  and  C_29
   13  A    between atoms: O_15  and  C_51
   14  A    between atoms: C_16  and  C_20
   15  A    between atoms: C_16  and  C_23
   16  A    between atoms: C_21  and  O_34
   17  A    between atoms: C_21  and  N_45
   18  A    between atoms: C_23  and  C_43
   19  A    between atoms: C_23  and  N_50
   20  A    between atoms: C_25  and  N_32
   21  A    between atoms: C_25  and  O_47
   22  A    between atoms: C_25  and  C_49
   23  A    between atoms: C_26  and  O_34
   24  A    between atoms: C_26  and  C_40
   25  A    between atoms: C_29  and  C_41
   26  A    between atoms: C_30  and  N_50
   27  A    between atoms: C_30  and  C_51
   28  A    between atoms: C_38  and  N_45
   29  A    between atoms: N_46  and  C_49
                            x       y       z     vdW  Elec       q    Type
                         _______ _______ _______ _____ _____    ______ ____

>  <TORSDO>
F 29

$$$$
=
 OpenBabel11032420333D

 53 56  0  0  1  0  0  0  0  0999 V2000
  186.0080  177.7470  143.5780 C   0  0  1  0  0  3  0  0  0  0  0  0
  190.7080  178.5730  143.6760 C   0  0  0  0  0  0  0  0  0  0  0  0
  190.9400  179.7980  144.5070 C   0  0  0  0  0  1  0  0  0  0  0  0
  191.6060  178.2490  142.8000 N   0  0  0  0  0  0  0  0  0  0  0  0
  190.5920  175.6640  142.5650 S   0  0  0  0  0  0  0  0  0  0  0  0
  189.6080  177.6210  144.0650 C   0  0  1  0  0  3  0  0  0  0  0  0
  188.3030  178.2380  144.5030 C   0  0  0  0  0  2  0  0  0  0  0  0
  187.9550  176.0890  143.3900 C   0  0  0  0  0  2  0  0  0  0  0  0
  187.2550  177.1470  144.2620 C   0  0  2  0  0  3  0  0  0  0  0  0
  189.2100  176.7650  142.9150 C   0  0  2  0  0  3  0  0  0  0  0  0
  191.5760  177.0800  141.9180 C   0  0  1  0  0  3  0  0  0  0  0  0
  191.0660  177.4660  140.5320 C   0  0  0  0  0  2  0  0  0  0  0  0
  190.5820  176.2860  139.8240 N   0  0  0  0  0  2  0  0  0  0  0  0
  191.8660  175.4460  137.9370 C   0  0  0  0  0  1  0  0  0  0  0  0
  190.8740  176.4930  138.4130 C   0  0  1  0  0  3  0  0  0  0  0  0
  189.5810  176.4690  137.5960 C   0  0  1  0  0  3  0  0  0  0  0  0
  189.0680  178.6200  137.5030 C   0  0  0  0  0  1  0  0  0  0  0  0
  189.5410  177.5630  136.7250 O   0  0  0  0  0  0  0  0  0  0  0  0
  189.4670  175.2260  136.8390 N   0  0  0  0  0  2  0  0  0  0  0  0
  188.1980  175.2670  136.1230 C   0  0  0  0  0  2  0  0  0  0  0  0
  187.5620  173.8890  136.1070 C   0  0  1  0  0  3  0  0  0  0  0  0
  188.5460  172.9230  136.3070 O   0  0  0  0  0  1  0  0  0  0  0  0
  186.5190  173.7730  137.2050 C   0  0  0  0  0  1  0  0  0  0  0  0
  184.9170  178.0010  144.5360 N   0  0  0  0  0  2  0  0  0  0  0  0
  184.0270  179.0700  144.0780 C   0  0  2  0  0  3  0  0  0  0  0  0
  183.3770  179.6660  145.1650 O   0  0  0  0  0  1  0  0  0  0  0  0
  182.9990  178.5040  143.1250 C   0  0  0  0  0  2  0  0  0  0  0  0
  182.0260  179.4720  142.8800 O   0  0  0  0  0  0  0  0  0  0  0  0
  180.9760  178.7990  142.2470 C   0  0  1  0  0  3  0  0  0  0  0  0
  179.8580  178.4190  144.3010 O   0  0  0  0  0  0  0  0  0  0  0  0
  179.7750  178.8160  143.1440 C   0  0  0  0  0  3  0  0  0  0  0  0
  180.6460  179.4920  140.9300 C   0  0  0  0  0  2  0  0  0  0  0  0
  181.3680  178.8070  139.7770 C   0  0  0  0  0  3  0  0  0  0  0  0
  181.3600  177.3090  140.0000 C   0  0  0  0  0  2  0  0  0  0  0  0
  180.3750  177.9360  139.0340 C   0  0  0  0  0  2  0  0  0  0  0  0
  186.3020  178.9990  142.7260 C   0  0  0  0  0  2  0  0  0  0  0  0
  186.5380  178.7070  141.2530 C   0  0  0  0  0  2  0  0  0  0  0  0
  185.2280  178.8600  140.5010 C   0  0  0  0  0  2  0  0  0  0  0  0
  185.4540  178.6610  139.0190 C   0  0  0  0  0  2  0  0  0  0  0  0
  184.5940  177.5910  138.5490 N   0  0  0  0  0  2  0  0  0  0  0  0
  184.8880  177.3940  137.1410 C   0  0  0  0  0  2  0  0  0  0  0  0
  184.1860  176.2860  136.6700 O   0  0  0  0  0  0  0  0  0  0  0  0
  182.8540  176.7020  136.6170 C   0  0  0  0  0  2  0  0  0  0  0  0
  182.7430  174.7600  135.0420 O   0  0  0  0  0  1  0  0  0  0  0  0
  180.7030  175.3020  136.3200 C   0  0  1  0  0  3  0  0  0  0  0  0
  180.4510  177.5170  135.4690 O   0  0  0  0  0  1  0  0  0  0  0  0
  182.0460  175.7370  135.7560 C   0  0  1  0  0  0  0  0  0  0  0  0
  180.7630  176.2100  135.0900 C   0  0  1  0  0  3  0  0  0  0  0  0
  180.3920  174.0000  135.9180 O   0  0  0  0  0  0  0  0  0  0  0  0
  180.2840  173.2700  137.1040 C   0  0  1  0  0  3  0  0  0  0  0  0
  181.4530  172.5440  137.3190 O   0  0  0  0  0  1  0  0  0  0  0  0
  178.9530  173.7440  139.0430 O   0  0  0  0  0  1  0  0  0  0  0  0
  180.0250  174.2050  138.2760 C   0  0  0  0  0  2  0  0  0  0  0  0
  1 36  1  1  0  0  0
  1 24  1  0  0  0  0
  2  6  1  0  0  0  0
  2  3  1  0  0  0  0
  4  2  2  0  0  0  0
  5 10  1  0  0  0  0
  6  7  1  6  0  0  0
  8  9  1  0  0  0  0
  9  1  1  6  0  0  0
  9  7  1  0  0  0  0
 10  8  1  1  0  0  0
 10  6  1  0  0  0  0
 11 12  1  6  0  0  0
 11  5  1  0  0  0  0
 11  4  1  0  0  0  0
 13 12  1  0  0  0  0
 15 14  1  6  0  0  0
 15 13  1  0  0  0  0
 16 18  1  6  0  0  0
 16 15  1  0  0  0  0
 18 17  1  0  0  0  0
 19 16  1  0  0  0  0
 20 19  1  0  0  0  0
 21 20  1  0  0  0  0
 21 22  1  0  0  0  0
 21 23  1  1  0  0  0
 25 24  1  0  0  0  0
 25 26  1  1  0  0  0
 27 25  1  0  0  0  0
 28 27  1  0  0  0  0
 29 32  1  6  0  0  0
 29 28  1  0  0  0  0
 29 31  1  0  0  0  0
 31 30  2  0  0  0  0
 33 34  1  0  0  0  0
 33 32  1  0  0  0  0
 35 33  1  0  0  0  0
 35 34  1  0  0  0  0
 37 36  1  0  0  0  0
 38 37  1  0  0  0  0
 39 38  1  0  0  0  0
 40 39  1  0  0  0  0
 41 40  1  0  0  0  0
 42 41  1  0  0  0  0
 43 42  1  0  0  0  0
 45 49  1  6  0  0  0
 47 44  1  6  0  0  0
 47 45  1  0  0  0  0
 47 43  1  0  0  0  0
 48 46  1  1  0  0  0
 48 47  1  0  0  0  0
 48 45  1  0  0  0  0
 49 50  1  0  0  0  0
 50 51  1  1  0  0  0
 50 53  1  0  0  0  0
 53 52  1  0  0  0  0
M  END
>  <MODEL>
9

>  <REMARK>
 VINA RESULT:      -4.6      3.286      8.718
  Name = 
  29 active torsions:
  status: ('A' for Active; 'I' for Inactive)
    1  A    between atoms: C_3  and  N_46
    2  A    between atoms: C_3  and  C_53
    3  A    between atoms: C_4  and  C_18
    4  A    between atoms: C_4  and  N_32
    5  A    between atoms: C_5  and  C_20
    6  A    between atoms: C_5  and  C_38
    7  A    between atoms: C_8  and  O_19
    8  A    between atoms: C_9  and  C_10
    9  A    between atoms: C_10  and  C_29
   10  A    between atoms: C_13  and  O_19
   11  A    between atoms: C_13  and  C_36
   12  A    between atoms: O_15  and  C_29
   13  A    between atoms: O_15  and  C_51
   14  A    between atoms: C_16  and  C_20
   15  A    between atoms: C_16  and  C_23
   16  A    between atoms: C_21  and  O_34
   17  A    between atoms: C_21  and  N_45
   18  A    between atoms: C_23  and  C_43
   19  A    between atoms: C_23  and  N_50
   20  A    between atoms: C_25  and  N_32
   21  A    between atoms: C_25  and  O_47
   22  A    between atoms: C_25  and  C_49
   23  A    between atoms: C_26  and  O_34
   24  A    between atoms: C_26  and  C_40
   25  A    between atoms: C_29  and  C_41
   26  A    between atoms: C_30  and  N_50
   27  A    between atoms: C_30  and  C_51
   28  A    between atoms: C_38  and  N_45
   29  A    between atoms: N_46  and  C_49
                            x       y       z     vdW  Elec       q    Type
                         _______ _______ _______ _____ _____    ______ ____

>  <TORSDO>
F 29

$$$$
