=
 OpenBabel11032420343D

 53 57  0  0  1  0  0  0  0  0999 V2000
  193.0760  172.5890  136.2660 N   0  0  0  0  0  2  0  0  0  0  0  0
  194.5120  172.5680  136.2740 C   0  0  0  0  0  0  0  0  0  0  0  0
  190.5720  176.0210  136.1800 C   0  0  0  0  0  0  0  0  0  0  0  0
  190.9210  173.6760  135.9270 O   0  0  0  0  0  0  0  0  0  0  0  0
  191.9200  176.1020  136.8740 C   0  0  2  0  0  3  0  0  0  0  0  0
  190.1200  174.8120  135.7660 C   0  0  0  0  0  0  0  0  0  0  0  0
  195.2670  173.7810  136.3020 N   0  0  0  0  0  2  0  0  0  0  0  0
  195.1130  171.4560  136.2420 O   0  0  0  0  0  0  0  0  0  0  0  0
  192.7340  174.8940  136.7360 N   0  0  0  0  0  0  0  0  0  0  0  0
  192.2530  173.7600  136.3310 C   0  0  0  0  0  0  0  0  0  0  0  0
  192.7170  177.3480  140.3810 C   0  0  0  0  0  3  0  0  0  0  0  0
  192.8390  177.0760  139.0150 C   0  0  0  0  0  3  0  0  0  0  0  0
  190.6100  176.1320  139.0070 C   0  0  0  0  0  3  0  0  0  0  0  0
  190.4880  176.4000  140.3720 C   0  0  0  0  0  3  0  0  0  0  0  0
  191.7840  176.4670  138.3250 C   0  0  0  0  0  0  0  0  0  0  0  0
  191.5390  177.0230  141.0630 C   0  0  0  0  0  0  0  0  0  0  0  0
  189.4750  178.0160  143.7510 C   0  0  2  0  0  0  0  0  0  0  0  0
  189.6700  175.7670  143.0050 O   0  0  0  0  0  0  0  0  0  0  0  0
  188.2900  178.3090  143.0940 F   0  0  0  0  0  0  0  0  0  0  0  0
  191.6710  178.6660  142.8740 N   0  0  0  0  0  0  0  0  0  0  0  0
  191.4700  177.2550  142.5470 C   0  0  1  0  0  3  0  0  0  0  0  0
  190.4560  179.1660  143.5390 C   0  0  0  0  0  3  0  0  0  0  0  0
  190.1450  176.8890  143.0820 C   0  0  0  0  0  0  0  0  0  0  0  0
  187.4780  177.2630  147.0780 C   0  0  0  0  0  2  0  0  0  0  0  0
  190.2870  177.3470  145.9920 C   0  0  0  0  0  3  0  0  0  0  0  0
  189.2320  177.7120  145.2190 C   0  0  0  0  0  0  0  0  0  0  0  0
  190.2580  176.9080  147.4340 C   0  0  0  0  0  2  0  0  0  0  0  0
  187.8090  177.8750  145.7240 C   0  0  0  0  0  2  0  0  0  0  0  0
  188.2450  177.9790  148.1500 C   0  0  0  0  0  3  0  0  0  0  0  0
  189.5150  177.8230  148.2740 N   0  0  0  0  0  0  0  0  0  0  0  0
  189.8410  177.3460  136.0100 C   0  0  2  0  0  3  0  0  0  0  0  0
  188.4980  177.2810  136.6530 C   0  0  2  0  0  3  0  0  0  0  0  0
  188.6600  177.2270  135.2540 O   0  0  0  0  0  0  0  0  0  0  0  0
  187.8660  178.6330  136.9810 C   0  0  0  0  0  2  0  0  0  0  0  0
  187.6400  177.7040  139.3150 C   0  0  0  0  0  1  0  0  0  0  0  0
  187.0710  178.6690  138.2860 C   0  0  2  0  0  3  0  0  0  0  0  0
  184.7540  179.7860  139.6490 O   0  0  0  0  0  0  0  0  0  0  0  0
  185.6660  178.3780  138.0140 N   0  0  0  0  0  2  0  0  0  0  0  0
  184.5590  178.9280  138.7440 C   0  0  0  0  0  0  0  0  0  0  0  0
  183.2240  178.5550  138.4100 N   0  0  0  0  0  2  0  0  0  0  0  0
  182.8550  177.4660  137.0680 S   0  0  0  0  0  0  0  0  0  0  0  0
  182.2900  176.1570  138.1930 C   0  0  0  0  0  1  0  0  0  0  0  0
  196.7100  173.8180  136.0880 C   0  0  0  0  0  2  0  0  0  0  0  0
  198.3960  175.5000  135.9360 O   0  0  0  0  0  0  0  0  0  0  0  0
  196.6020  177.5380  135.4460 O   0  0  0  0  0  1  0  0  0  0  0  0
  197.1630  175.2350  135.9320 C   0  0  0  0  0  0  0  0  0  0  0  0
  196.2060  176.2720  135.7220 N   0  0  0  0  0  2  0  0  0  0  0  0
  188.7920  174.6150  135.1140 C   0  0  0  0  0  2  0  0  0  0  0  0
  188.3960  173.1470  135.1670 C   0  0  0  0  0  2  0  0  0  0  0  0
  187.1210  172.9680  135.9720 C   0  0  0  0  0  2  0  0  0  0  0  0
  187.0650  173.9640  137.1160 C   0  0  0  0  0  2  0  0  0  0  0  0
  184.7660  173.6750  137.6220 O   0  0  0  0  0  1  0  0  0  0  0  0
  185.6940  174.6040  137.1520 C   0  0  0  0  0  2  0  0  0  0  0  0
  1  2  1  0  0  0  0
  1 10  1  0  0  0  0
  2  7  1  0  0  0  0
  3  5  1  0  0  0  0
  4 10  1  0  0  0  0
  5 15  1  1  0  0  0
  6  4  1  0  0  0  0
  6  3  2  0  0  0  0
  8  2  2  0  0  0  0
  9  5  1  0  0  0  0
 10  9  2  0  0  0  0
 11 16  1  0  0  0  0
 12 11  2  0  0  0  0
 13 14  1  0  0  0  0
 14 16  2  0  0  0  0
 15 13  2  0  0  0  0
 15 12  1  0  0  0  0
 17 19  1  6  0  0  0
 17 26  1  0  0  0  0
 18 23  2  0  0  0  0
 20 22  2  0  0  0  0
 21 16  1  6  0  0  0
 21 20  1  0  0  0  0
 21 23  1  0  0  0  0
 22 17  1  0  0  0  0
 23 17  1  0  0  0  0
 24 29  1  0  0  0  0
 25 27  1  0  0  0  0
 26 28  1  0  0  0  0
 26 25  2  0  0  0  0
 27 30  1  0  0  0  0
 28 24  1  0  0  0  0
 29 30  2  0  0  0  0
 31  3  1  1  0  0  0
 31 32  1  0  0  0  0
 32 34  1  6  0  0  0
 33 31  1  0  0  0  0
 33 32  1  0  0  0  0
 34 36  1  0  0  0  0
 36 35  1  1  0  0  0
 38 36  1  0  0  0  0
 38 39  1  0  0  0  0
 39 37  2  0  0  0  0
 40 39  1  0  0  0  0
 41 42  1  0  0  0  0
 41 40  1  0  0  0  0
 43  7  1  0  0  0  0
 45 47  1  0  0  0  0
 46 44  2  0  0  0  0
 46 43  1  0  0  0  0
 47 46  1  0  0  0  0
 48 49  1  0  0  0  0
 48  6  1  0  0  0  0
 49 50  1  0  0  0  0
 50 51  1  0  0  0  0
 51 53  1  0  0  0  0
 53 52  1  0  0  0  0
M  END
>  <MODEL>
1

>  <REMARK>
 VINA RESULT:      -7.6      0.000      0.000
  Name = 
  15 active torsions:
  status: ('A' for Active; 'I' for Inactive)
    1  A    between atoms: C_2  and  C_7
    2  A    between atoms: C_5  and  C_33
    3  A    between atoms: C_5  and  N_44
    4  A    between atoms: C_8  and  C_39
    5  A    between atoms: C_8  and  C_48
    6  A    between atoms: C_9  and  C_16
    7  A    between atoms: C_9  and  C_52
    8  A    between atoms: C_11  and  C_21
    9  A    between atoms: S_14  and  N_28
   10  A    between atoms: N_18  and  C_52
   11  A    between atoms: C_29  and  C_35
   12  A    between atoms: C_29  and  C_48
   13  A    between atoms: C_37  and  C_46
   14  A    between atoms: C_38  and  C_51
   15  A    between atoms: C_39  and  C_43
                            x       y       z     vdW  Elec       q    Type
                         _______ _______ _______ _____ _____    ______ ____

>  <TORSDO>
F 15

$$$$
=
 OpenBabel11032420343D

 53 57  0  0  1  0  0  0  0  0999 V2000
  192.0660  172.6620  136.0650 N   0  0  0  0  0  2  0  0  0  0  0  0
  193.4800  172.8990  135.9870 C   0  0  0  0  0  0  0  0  0  0  0  0
  188.9780  175.5810  135.9830 C   0  0  0  0  0  0  0  0  0  0  0  0
  189.7330  173.3260  135.8120 O   0  0  0  0  0  0  0  0  0  0  0  0
  190.3230  175.9400  136.5890 C   0  0  2  0  0  3  0  0  0  0  0  0
  188.7320  174.2900  135.6510 C   0  0  0  0  0  0  0  0  0  0  0  0
  194.0020  174.2270  135.9150 N   0  0  0  0  0  2  0  0  0  0  0  0
  194.2700  171.9120  135.9670 O   0  0  0  0  0  0  0  0  0  0  0  0
  191.3350  174.8910  136.4550 N   0  0  0  0  0  0  0  0  0  0  0  0
  191.0470  173.6690  136.1290 C   0  0  0  0  0  0  0  0  0  0  0  0
  188.8620  177.0950  139.9090 C   0  0  0  0  0  3  0  0  0  0  0  0
  188.9500  176.6510  138.5860 C   0  0  0  0  0  3  0  0  0  0  0  0
  191.3570  176.5010  138.7990 C   0  0  0  0  0  3  0  0  0  0  0  0
  191.2710  176.9470  140.1190 C   0  0  0  0  0  3  0  0  0  0  0  0
  190.1990  176.3520  138.0290 C   0  0  0  0  0  0  0  0  0  0  0  0
  190.0180  177.2350  140.6850 C   0  0  0  0  0  0  0  0  0  0  0  0
  188.4190  176.8980  143.8150 C   0  0  2  0  0  0  0  0  0  0  0  0
  190.4510  175.7970  143.2520 O   0  0  0  0  0  0  0  0  0  0  0  0
  187.5750  175.8230  143.5780 F   0  0  0  0  0  0  0  0  0  0  0  0
  188.7570  178.6990  142.1870 N   0  0  0  0  0  0  0  0  0  0  0  0
  189.8980  177.7910  142.0760 C   0  0  1  0  0  3  0  0  0  0  0  0
  187.8180  178.1480  143.1790 C   0  0  0  0  0  3  0  0  0  0  0  0
  189.6700  176.7170  143.0620 C   0  0  0  0  0  0  0  0  0  0  0  0
  187.6890  177.3040  147.6790 C   0  0  0  0  0  2  0  0  0  0  0  0
  189.9650  176.8890  145.7480 C   0  0  0  0  0  3  0  0  0  0  0  0
  188.6960  177.0660  145.2990 C   0  0  0  0  0  0  0  0  0  0  0  0
  190.4410  176.9080  147.1790 C   0  0  0  0  0  2  0  0  0  0  0  0
  187.5170  177.4580  146.1740 C   0  0  0  0  0  2  0  0  0  0  0  0
  188.7350  178.2640  148.1620 C   0  0  0  0  0  3  0  0  0  0  0  0
  189.9800  178.0770  147.8980 N   0  0  0  0  0  0  0  0  0  0  0  0
  188.0110  176.7420  135.8010 C   0  0  2  0  0  3  0  0  0  0  0  0
  186.6060  176.2450  135.7750 C   0  0  2  0  0  3  0  0  0  0  0  0
  187.2740  176.6590  134.6040 O   0  0  0  0  0  0  0  0  0  0  0  0
  185.5370  177.2950  136.0780 C   0  0  0  0  0  2  0  0  0  0  0  0
  183.1080  177.1640  135.4090 C   0  0  0  0  0  1  0  0  0  0  0  0
  184.1590  176.7260  136.4170 C   0  0  2  0  0  3  0  0  0  0  0  0
  182.6550  175.1550  138.3520 O   0  0  0  0  0  0  0  0  0  0  0  0
  183.7840  177.1240  137.7720 N   0  0  0  0  0  2  0  0  0  0  0  0
  183.0060  176.3240  138.6750 C   0  0  0  0  0  0  0  0  0  0  0  0
  182.6740  176.8210  139.9690 N   0  0  0  0  0  2  0  0  0  0  0  0
  183.2400  178.3900  140.5520 S   0  0  0  0  0  0  0  0  0  0  0  0
  181.6980  179.2100  140.0550 C   0  0  0  0  0  1  0  0  0  0  0  0
  195.4000  174.5110  135.6120 C   0  0  0  0  0  2  0  0  0  0  0  0
  195.4710  175.0490  137.9360 O   0  0  0  0  0  0  0  0  0  0  0  0
  198.1940  175.4860  137.9570 O   0  0  0  0  0  1  0  0  0  0  0  0
  196.1090  174.9550  136.8530 C   0  0  0  0  0  0  0  0  0  0  0  0
  197.5120  175.2140  136.8190 N   0  0  0  0  0  2  0  0  0  0  0  0
  187.4300  173.8240  135.0900 C   0  0  0  0  0  2  0  0  0  0  0  0
  186.9940  172.5390  135.7790 C   0  0  0  0  0  2  0  0  0  0  0  0
  186.7360  172.7870  137.2550 C   0  0  0  0  0  2  0  0  0  0  0  0
  185.3100  173.2530  137.4790 C   0  0  0  0  0  2  0  0  0  0  0  0
  183.7730  171.4840  137.1160 O   0  0  0  0  0  1  0  0  0  0  0  0
  184.3980  172.5620  136.4880 C   0  0  0  0  0  2  0  0  0  0  0  0
  1 10  1  0  0  0  0
  2  1  1  0  0  0  0
  3  5  1  0  0  0  0
  4 10  1  0  0  0  0
  5 15  1  1  0  0  0
  6  4  1  0  0  0  0
  6  3  2  0  0  0  0
  7  2  1  0  0  0  0
  8  2  2  0  0  0  0
  9  5  1  0  0  0  0
 10  9  2  0  0  0  0
 11 16  1  0  0  0  0
 12 11  2  0  0  0  0
 13 14  1  0  0  0  0
 14 16  2  0  0  0  0
 15 12  1  0  0  0  0
 15 13  2  0  0  0  0
 17 19  1  6  0  0  0
 17 26  1  0  0  0  0
 20 22  2  0  0  0  0
 21 16  1  6  0  0  0
 21 20  1  0  0  0  0
 21 23  1  0  0  0  0
 22 17  1  0  0  0  0
 23 18  2  0  0  0  0
 23 17  1  0  0  0  0
 24 29  1  0  0  0  0
 25 27  1  0  0  0  0
 26 25  2  0  0  0  0
 26 28  1  0  0  0  0
 27 30  1  0  0  0  0
 28 24  1  0  0  0  0
 30 29  2  0  0  0  0
 31  3  1  6  0  0  0
 32 31  1  0  0  0  0
 32 34  1  1  0  0  0
 33 32  1  0  0  0  0
 33 31  1  0  0  0  0
 34 36  1  0  0  0  0
 36 35  1  6  0  0  0
 36 38  1  0  0  0  0
 37 39  2  0  0  0  0
 38 39  1  0  0  0  0
 39 40  1  0  0  0  0
 40 41  1  0  0  0  0
 42 41  1  0  0  0  0
 43  7  1  0  0  0  0
 43 46  1  0  0  0  0
 46 44  2  0  0  0  0
 47 46  1  0  0  0  0
 47 45  1  0  0  0  0
 48  6  1  0  0  0  0
 48 49  1  0  0  0  0
 49 50  1  0  0  0  0
 50 51  1  0  0  0  0
 53 52  1  0  0  0  0
 53 51  1  0  0  0  0
M  END
>  <MODEL>
2

>  <REMARK>
 VINA RESULT:      -7.3      1.788      2.345
  Name = 
  15 active torsions:
  status: ('A' for Active; 'I' for Inactive)
    1  A    between atoms: C_2  and  C_7
    2  A    between atoms: C_5  and  C_33
    3  A    between atoms: C_5  and  N_44
    4  A    between atoms: C_8  and  C_39
    5  A    between atoms: C_8  and  C_48
    6  A    between atoms: C_9  and  C_16
    7  A    between atoms: C_9  and  C_52
    8  A    between atoms: C_11  and  C_21
    9  A    between atoms: S_14  and  N_28
   10  A    between atoms: N_18  and  C_52
   11  A    between atoms: C_29  and  C_35
   12  A    between atoms: C_29  and  C_48
   13  A    between atoms: C_37  and  C_46
   14  A    between atoms: C_38  and  C_51
   15  A    between atoms: C_39  and  C_43
                            x       y       z     vdW  Elec       q    Type
                         _______ _______ _______ _____ _____    ______ ____

>  <TORSDO>
F 15

$$$$
=
 OpenBabel11032420343D

 53 57  0  0  1  0  0  0  0  0999 V2000
  194.6450  172.9010  137.8050 N   0  0  0  0  0  2  0  0  0  0  0  0
  195.9720  173.2100  138.2580 C   0  0  0  0  0  0  0  0  0  0  0  0
  191.7080  175.6500  136.4350 C   0  0  0  0  0  0  0  0  0  0  0  0
  192.5600  173.4350  136.6590 O   0  0  0  0  0  0  0  0  0  0  0  0
  192.7060  176.0940  137.4900 C   0  0  2  0  0  3  0  0  0  0  0  0
  191.6590  174.3400  136.0890 C   0  0  0  0  0  0  0  0  0  0  0  0
  196.4300  174.5620  138.3330 N   0  0  0  0  0  2  0  0  0  0  0  0
  196.7490  172.2660  138.5820 O   0  0  0  0  0  0  0  0  0  0  0  0
  193.7340  175.0970  137.7940 N   0  0  0  0  0  0  0  0  0  0  0  0
  193.6400  173.8540  137.4360 C   0  0  0  0  0  0  0  0  0  0  0  0
  190.0390  176.7570  140.1220 C   0  0  0  0  0  3  0  0  0  0  0  0
  190.6670  176.2830  138.9670 C   0  0  0  0  0  3  0  0  0  0  0  0
  192.7550  177.2610  139.7030 C   0  0  0  0  0  3  0  0  0  0  0  0
  192.1280  177.7380  140.8560 C   0  0  0  0  0  3  0  0  0  0  0  0
  192.0280  176.5340  138.7560 C   0  0  0  0  0  0  0  0  0  0  0  0
  190.7660  177.4760  141.0770 C   0  0  0  0  0  0  0  0  0  0  0  0
  188.2880  176.8760  143.5200 C   0  0  2  0  0  0  0  0  0  0  0  0
  190.5790  176.3020  143.8030 O   0  0  0  0  0  0  0  0  0  0  0  0
  187.8440  175.6130  143.1550 F   0  0  0  0  0  0  0  0  0  0  0  0
  188.7650  178.6350  141.8800 N   0  0  0  0  0  0  0  0  0  0  0  0
  190.0440  178.0410  142.2680 C   0  0  1  0  0  3  0  0  0  0  0  0
  187.6860  177.9060  142.5680 C   0  0  0  0  0  3  0  0  0  0  0  0
  189.7310  176.9860  143.2510 C   0  0  0  0  0  0  0  0  0  0  0  0
  186.1470  177.5160  146.7800 C   0  0  0  0  0  2  0  0  0  0  0  0
  188.9940  177.1090  145.8810 C   0  0  0  0  0  3  0  0  0  0  0  0
  187.9820  177.1700  144.9780 C   0  0  0  0  0  0  0  0  0  0  0  0
  188.8970  177.2640  147.3770 C   0  0  0  0  0  2  0  0  0  0  0  0
  186.5490  177.5480  145.3120 C   0  0  0  0  0  2  0  0  0  0  0  0
  186.9030  178.5750  147.5270 C   0  0  0  0  0  3  0  0  0  0  0  0
  188.1610  178.4500  147.7630 N   0  0  0  0  0  0  0  0  0  0  0  0
  190.8380  176.7540  135.8500 C   0  0  2  0  0  3  0  0  0  0  0  0
  189.3970  176.4560  136.0870 C   0  0  2  0  0  3  0  0  0  0  0  0
  189.9940  176.2980  134.8200 O   0  0  0  0  0  0  0  0  0  0  0  0
  188.4590  177.6590  135.9960 C   0  0  0  0  0  2  0  0  0  0  0  0
  186.3040  177.9990  134.7310 C   0  0  0  0  0  1  0  0  0  0  0  0
  186.9740  177.3080  135.9080 C   0  0  2  0  0  3  0  0  0  0  0  0
  188.0010  179.0310  138.0170 O   0  0  0  0  0  0  0  0  0  0  0  0
  186.3120  177.6510  137.1640 N   0  0  0  0  0  2  0  0  0  0  0  0
  186.8800  178.4770  138.1910 C   0  0  0  0  0  0  0  0  0  0  0  0
  186.1550  178.7280  139.3930 N   0  0  0  0  0  2  0  0  0  0  0  0
  184.5240  178.1040  139.6600 S   0  0  0  0  0  0  0  0  0  0  0  0
  183.7710  179.4790  138.7430 C   0  0  0  0  0  1  0  0  0  0  0  0
  197.8260  174.9110  138.5710 C   0  0  0  0  0  2  0  0  0  0  0  0
  197.2180  176.1540  140.5160 O   0  0  0  0  0  0  0  0  0  0  0  0
  199.1420  174.9850  142.1100 O   0  0  0  0  0  1  0  0  0  0  0  0
  198.0110  175.3220  139.9980 C   0  0  0  0  0  0  0  0  0  0  0  0
  199.0430  174.7270  140.7830 N   0  0  0  0  0  2  0  0  0  0  0  0
  190.6870  173.7920  135.0980 C   0  0  0  0  0  2  0  0  0  0  0  0
  190.6460  172.2740  135.1900 C   0  0  0  0  0  2  0  0  0  0  0  0
  189.2180  171.7900  135.3730 C   0  0  0  0  0  2  0  0  0  0  0  0
  188.2520  172.6640  134.5960 C   0  0  0  0  0  2  0  0  0  0  0  0
  186.1870  173.7090  135.1130 O   0  0  0  0  0  1  0  0  0  0  0  0
  187.4990  173.5560  135.5600 C   0  0  0  0  0  2  0  0  0  0  0  0
  1  2  1  0  0  0  0
  2  7  1  0  0  0  0
  2  8  2  0  0  0  0
  3  5  1  0  0  0  0
  4 10  1  0  0  0  0
  5  9  1  0  0  0  0
  5 15  1  1  0  0  0
  6  3  2  0  0  0  0
  6  4  1  0  0  0  0
  7 43  1  0  0  0  0
 10  9  2  0  0  0  0
 10  1  1  0  0  0  0
 11 16  1  0  0  0  0
 12 11  2  0  0  0  0
 13 14  1  0  0  0  0
 14 16  2  0  0  0  0
 15 12  1  0  0  0  0
 15 13  2  0  0  0  0
 17 19  1  6  0  0  0
 17 26  1  0  0  0  0
 20 21  1  0  0  0  0
 20 22  2  0  0  0  0
 21 16  1  6  0  0  0
 21 23  1  0  0  0  0
 22 17  1  0  0  0  0
 23 17  1  0  0  0  0
 23 18  2  0  0  0  0
 24 29  1  0  0  0  0
 25 27  1  0  0  0  0
 26 28  1  0  0  0  0
 26 25  2  0  0  0  0
 27 30  1  0  0  0  0
 28 24  1  0  0  0  0
 29 30  2  0  0  0  0
 31 32  1  0  0  0  0
 31  3  1  1  0  0  0
 32 34  1  6  0  0  0
 33 31  1  0  0  0  0
 33 32  1  0  0  0  0
 36 35  1  6  0  0  0
 36 34  1  0  0  0  0
 36 38  1  0  0  0  0
 37 39  2  0  0  0  0
 38 39  1  0  0  0  0
 39 40  1  0  0  0  0
 40 41  1  0  0  0  0
 42 41  1  0  0  0  0
 43 46  1  0  0  0  0
 46 44  2  0  0  0  0
 46 47  1  0  0  0  0
 47 45  1  0  0  0  0
 48 49  1  0  0  0  0
 48  6  1  0  0  0  0
 49 50  1  0  0  0  0
 51 50  1  0  0  0  0
 51 53  1  0  0  0  0
 52 53  1  0  0  0  0
M  END
>  <MODEL>
3

>  <REMARK>
 VINA RESULT:      -6.7      2.220      2.713
  Name = 
  15 active torsions:
  status: ('A' for Active; 'I' for Inactive)
    1  A    between atoms: C_2  and  C_7
    2  A    between atoms: C_5  and  C_33
    3  A    between atoms: C_5  and  N_44
    4  A    between atoms: C_8  and  C_39
    5  A    between atoms: C_8  and  C_48
    6  A    between atoms: C_9  and  C_16
    7  A    between atoms: C_9  and  C_52
    8  A    between atoms: C_11  and  C_21
    9  A    between atoms: S_14  and  N_28
   10  A    between atoms: N_18  and  C_52
   11  A    between atoms: C_29  and  C_35
   12  A    between atoms: C_29  and  C_48
   13  A    between atoms: C_37  and  C_46
   14  A    between atoms: C_38  and  C_51
   15  A    between atoms: C_39  and  C_43
                            x       y       z     vdW  Elec       q    Type
                         _______ _______ _______ _____ _____    ______ ____

>  <TORSDO>
F 15

$$$$
=
 OpenBabel11032420343D

 53 57  0  0  1  0  0  0  0  0999 V2000
  191.6560  172.8760  135.5260 N   0  0  0  0  0  2  0  0  0  0  0  0
  193.0500  173.0250  135.2180 C   0  0  0  0  0  0  0  0  0  0  0  0
  188.8380  175.9890  136.1830 C   0  0  0  0  0  0  0  0  0  0  0  0
  189.3740  173.7100  135.7310 O   0  0  0  0  0  0  0  0  0  0  0  0
  190.2900  176.2090  136.5680 C   0  0  2  0  0  3  0  0  0  0  0  0
  188.4380  174.7480  135.8120 C   0  0  0  0  0  0  0  0  0  0  0  0
  193.6550  174.3180  135.1460 N   0  0  0  0  0  2  0  0  0  0  0  0
  193.7460  171.9930  134.9940 O   0  0  0  0  0  0  0  0  0  0  0  0
  191.1790  175.1090  136.1880 N   0  0  0  0  0  0  0  0  0  0  0  0
  190.7450  173.9390  135.8350 C   0  0  0  0  0  0  0  0  0  0  0  0
  191.8260  176.7350  140.0100 C   0  0  0  0  0  3  0  0  0  0  0  0
  191.7080  176.5150  138.6350 C   0  0  0  0  0  3  0  0  0  0  0  0
  189.3030  176.7260  138.8090 C   0  0  0  0  0  3  0  0  0  0  0  0
  189.4190  176.9430  140.1830 C   0  0  0  0  0  3  0  0  0  0  0  0
  190.4450  176.5110  138.0310 C   0  0  0  0  0  0  0  0  0  0  0  0
  190.6850  176.9610  140.7890 C   0  0  0  0  0  0  0  0  0  0  0  0
  189.1370  178.0560  143.7680 C   0  0  2  0  0  0  0  0  0  0  0  0
  188.9250  175.8470  142.9120 O   0  0  0  0  0  0  0  0  0  0  0  0
  187.9280  178.5380  143.2880 F   0  0  0  0  0  0  0  0  0  0  0  0
  191.2700  178.4650  142.6310 N   0  0  0  0  0  0  0  0  0  0  0  0
  190.8390  177.1130  142.2760 C   0  0  1  0  0  3  0  0  0  0  0  0
  190.2290  179.0790  143.4730 C   0  0  0  0  0  3  0  0  0  0  0  0
  189.5550  176.8920  142.9700 C   0  0  0  0  0  0  0  0  0  0  0  0
  187.4870  177.2310  147.2640 C   0  0  0  0  0  2  0  0  0  0  0  0
  190.1630  177.2750  145.8800 C   0  0  0  0  0  3  0  0  0  0  0  0
  189.0440  177.7010  145.2410 C   0  0  0  0  0  0  0  0  0  0  0  0
  190.2750  176.7790  147.3000 C   0  0  0  0  0  2  0  0  0  0  0  0
  187.6890  177.8860  145.9050 C   0  0  0  0  0  2  0  0  0  0  0  0
  188.3890  177.8810  148.2700 C   0  0  0  0  0  3  0  0  0  0  0  0
  189.6590  177.6820  148.2490 N   0  0  0  0  0  0  0  0  0  0  0  0
  187.9480  177.2220  136.2520 C   0  0  2  0  0  3  0  0  0  0  0  0
  186.5850  176.8500  136.7260 C   0  0  2  0  0  3  0  0  0  0  0  0
  186.8490  177.1540  135.3750 O   0  0  0  0  0  0  0  0  0  0  0  0
  185.7540  178.0000  137.2920 C   0  0  0  0  0  2  0  0  0  0  0  0
  183.9570  176.2570  137.5980 C   0  0  0  0  0  1  0  0  0  0  0  0
  184.5330  177.5700  138.1050 C   0  0  2  0  0  3  0  0  0  0  0  0
  184.3930  179.8970  139.8470 O   0  0  0  0  0  0  0  0  0  0  0  0
  183.5270  178.6280  138.0790 N   0  0  0  0  0  2  0  0  0  0  0  0
  183.4810  179.7380  138.9890 C   0  0  0  0  0  0  0  0  0  0  0  0
  182.4370  180.7040  138.8900 N   0  0  0  0  0  2  0  0  0  0  0  0
  181.1980  180.6300  137.6310 S   0  0  0  0  0  0  0  0  0  0  0  0
  179.8950  181.1490  138.7850 C   0  0  0  0  0  1  0  0  0  0  0  0
  195.0000  174.5320  134.6230 C   0  0  0  0  0  2  0  0  0  0  0  0
  195.8920  174.0540  136.7840 O   0  0  0  0  0  0  0  0  0  0  0  0
  197.9110  175.9220  136.5850 O   0  0  0  0  0  1  0  0  0  0  0  0
  195.9510  174.7740  135.7520 C   0  0  0  0  0  0  0  0  0  0  0  0
  196.9590  175.7780  135.6330 N   0  0  0  0  0  2  0  0  0  0  0  0
  187.0270  174.4140  135.4580 C   0  0  0  0  0  2  0  0  0  0  0  0
  186.7310  172.9620  135.8020 C   0  0  0  0  0  2  0  0  0  0  0  0
  185.5030  172.4770  135.0520 C   0  0  0  0  0  2  0  0  0  0  0  0
  184.2360  172.9780  135.7180 C   0  0  0  0  0  2  0  0  0  0  0  0
  182.0550  173.6520  135.0760 O   0  0  0  0  0  1  0  0  0  0  0  0
  183.3960  173.7180  134.6990 C   0  0  0  0  0  2  0  0  0  0  0  0
  1 10  1  0  0  0  0
  2  1  1  0  0  0  0
  3  5  1  0  0  0  0
  4  6  1  0  0  0  0
  4 10  1  0  0  0  0
  5 15  1  1  0  0  0
  6  3  2  0  0  0  0
  7  2  1  0  0  0  0
  8  2  2  0  0  0  0
  9  5  1  0  0  0  0
 10  9  2  0  0  0  0
 11 16  1  0  0  0  0
 12 11  2  0  0  0  0
 13 14  1  0  0  0  0
 14 16  2  0  0  0  0
 15 12  1  0  0  0  0
 15 13  2  0  0  0  0
 17 19  1  6  0  0  0
 17 26  1  0  0  0  0
 18 23  2  0  0  0  0
 20 22  2  0  0  0  0
 21 16  1  6  0  0  0
 21 20  1  0  0  0  0
 21 23  1  0  0  0  0
 22 17  1  0  0  0  0
 23 17  1  0  0  0  0
 24 29  1  0  0  0  0
 25 27  1  0  0  0  0
 26 25  2  0  0  0  0
 26 28  1  0  0  0  0
 27 30  1  0  0  0  0
 28 24  1  0  0  0  0
 30 29  2  0  0  0  0
 31  3  1  6  0  0  0
 31 32  1  0  0  0  0
 32 34  1  1  0  0  0
 33 31  1  0  0  0  0
 33 32  1  0  0  0  0
 34 36  1  0  0  0  0
 36 35  1  6  0  0  0
 38 36  1  0  0  0  0
 38 39  1  0  0  0  0
 39 37  2  0  0  0  0
 40 39  1  0  0  0  0
 41 42  1  0  0  0  0
 41 40  1  0  0  0  0
 43  7  1  0  0  0  0
 43 46  1  0  0  0  0
 46 44  2  0  0  0  0
 47 46  1  0  0  0  0
 47 45  1  0  0  0  0
 48 49  1  0  0  0  0
 48  6  1  0  0  0  0
 50 51  1  0  0  0  0
 50 49  1  0  0  0  0
 53 52  1  0  0  0  0
 53 51  1  0  0  0  0
M  END
>  <MODEL>
4

>  <REMARK>
 VINA RESULT:      -6.6      1.682      1.991
  Name = 
  15 active torsions:
  status: ('A' for Active; 'I' for Inactive)
    1  A    between atoms: C_2  and  C_7
    2  A    between atoms: C_5  and  C_33
    3  A    between atoms: C_5  and  N_44
    4  A    between atoms: C_8  and  C_39
    5  A    between atoms: C_8  and  C_48
    6  A    between atoms: C_9  and  C_16
    7  A    between atoms: C_9  and  C_52
    8  A    between atoms: C_11  and  C_21
    9  A    between atoms: S_14  and  N_28
   10  A    between atoms: N_18  and  C_52
   11  A    between atoms: C_29  and  C_35
   12  A    between atoms: C_29  and  C_48
   13  A    between atoms: C_37  and  C_46
   14  A    between atoms: C_38  and  C_51
   15  A    between atoms: C_39  and  C_43
                            x       y       z     vdW  Elec       q    Type
                         _______ _______ _______ _____ _____    ______ ____

>  <TORSDO>
F 15

$$$$
=
 OpenBabel11032420343D

 53 57  0  0  1  0  0  0  0  0999 V2000
  193.1900  177.2180  138.4620 N   0  0  0  0  0  2  0  0  0  0  0  0
  193.4810  176.3430  137.3600 C   0  0  0  0  0  0  0  0  0  0  0  0
  190.0990  176.7570  141.3420 C   0  0  0  0  0  0  0  0  0  0  0  0
  192.1330  177.7510  140.5930 O   0  0  0  0  0  0  0  0  0  0  0  0
  189.8800  176.2450  139.9300 C   0  0  2  0  0  3  0  0  0  0  0  0
  191.1960  177.5100  141.6040 C   0  0  0  0  0  0  0  0  0  0  0  0
  192.6730  175.1930  137.0990 N   0  0  0  0  0  2  0  0  0  0  0  0
  194.4770  176.5920  136.6230 O   0  0  0  0  0  0  0  0  0  0  0  0
  191.0570  176.3590  139.0660 N   0  0  0  0  0  0  0  0  0  0  0  0
  192.0850  177.0920  139.3650 C   0  0  0  0  0  0  0  0  0  0  0  0
  186.9310  178.5560  139.2620 C   0  0  0  0  0  3  0  0  0  0  0  0
  188.0700  178.0040  139.8550 C   0  0  0  0  0  3  0  0  0  0  0  0
  188.1770  176.3420  138.0990 C   0  0  0  0  0  3  0  0  0  0  0  0
  187.0370  176.8900  137.5070 C   0  0  0  0  0  3  0  0  0  0  0  0
  188.6960  176.8960  139.2730 C   0  0  0  0  0  0  0  0  0  0  0  0
  186.4150  178.0110  138.0820 C   0  0  0  0  0  0  0  0  0  0  0  0
  182.9470  178.4340  138.5970 C   0  0  2  0  0  0  0  0  0  0  0  0
  184.5870  179.9820  139.3530 O   0  0  0  0  0  0  0  0  0  0  0  0
  182.7670  177.7770  139.8050 F   0  0  0  0  0  0  0  0  0  0  0  0
  184.3740  177.5500  136.8100 N   0  0  0  0  0  0  0  0  0  0  0  0
  185.1430  178.5750  137.5150 C   0  0  1  0  0  3  0  0  0  0  0  0
  183.0740  177.3970  137.4850 C   0  0  0  0  0  3  0  0  0  0  0  0
  184.2650  179.0890  138.5840 C   0  0  0  0  0  0  0  0  0  0  0  0
  180.1660  180.4350  136.6260 C   0  0  0  0  0  2  0  0  0  0  0  0
  181.2620  180.0560  139.4070 C   0  0  0  0  0  3  0  0  0  0  0  0
  181.8370  179.4390  138.3430 C   0  0  0  0  0  0  0  0  0  0  0  0
  180.0880  181.0020  139.3930 C   0  0  0  0  0  2  0  0  0  0  0  0
  181.4750  179.7050  136.8920 C   0  0  0  0  0  2  0  0  0  0  0  0
  180.2580  181.8340  137.1580 C   0  0  0  0  0  3  0  0  0  0  0  0
  180.2490  182.0650  138.4230 N   0  0  0  0  0  0  0  0  0  0  0  0
  189.0360  176.3600  142.3560 C   0  0  2  0  0  3  0  0  0  0  0  0
  188.1300  177.5110  142.6330 C   0  0  2  0  0  3  0  0  0  0  0  0
  189.1160  177.0970  143.5520 O   0  0  0  0  0  0  0  0  0  0  0  0
  186.7730  177.1450  143.2320 C   0  0  0  0  0  2  0  0  0  0  0  0
  186.4440  177.5380  145.7020 C   0  0  0  0  0  1  0  0  0  0  0  0
  186.2650  178.1090  144.3040 C   0  0  2  0  0  3  0  0  0  0  0  0
  184.2980  179.0360  146.2380 O   0  0  0  0  0  0  0  0  0  0  0  0
  184.8650  178.4360  144.0470 N   0  0  0  0  0  2  0  0  0  0  0  0
  183.9240  178.8540  145.0470 C   0  0  0  0  0  0  0  0  0  0  0  0
  182.5700  179.1250  144.6890 N   0  0  0  0  0  2  0  0  0  0  0  0
  181.9960  179.0260  143.0210 S   0  0  0  0  0  0  0  0  0  0  0  0
  180.3180  178.5760  143.5500 C   0  0  0  0  0  1  0  0  0  0  0  0
  193.0550  174.1620  136.1400 C   0  0  0  0  0  2  0  0  0  0  0  0
  194.1760  172.0570  136.2200 O   0  0  0  0  0  0  0  0  0  0  0  0
  195.3880  172.5680  138.6440 O   0  0  0  0  0  1  0  0  0  0  0  0
  193.9190  173.1410  136.8090 C   0  0  0  0  0  0  0  0  0  0  0  0
  194.4980  173.4210  138.0840 N   0  0  0  0  0  2  0  0  0  0  0  0
  191.4830  178.0990  142.9450 C   0  0  0  0  0  2  0  0  0  0  0  0
  191.9000  177.0060  143.9180 C   0  0  0  0  0  2  0  0  0  0  0  0
  191.7220  177.4720  145.3520 C   0  0  0  0  0  2  0  0  0  0  0  0
  191.3970  176.3010  146.2590 C   0  0  0  0  0  2  0  0  0  0  0  0
  189.7060  177.8790  146.7850 O   0  0  0  0  0  1  0  0  0  0  0  0
  190.3250  176.7160  147.2440 C   0  0  0  0  0  2  0  0  0  0  0  0
  1 10  1  0  0  0  0
  2  1  1  0  0  0  0
  3  6  2  0  0  0  0
  4  6  1  0  0  0  0
  5 15  1  6  0  0  0
  5  3  1  0  0  0  0
  6 48  1  0  0  0  0
  7  2  1  0  0  0  0
  8  2  2  0  0  0  0
  9 10  2  0  0  0  0
  9  5  1  0  0  0  0
 10  4  1  0  0  0  0
 11 12  1  0  0  0  0
 13 15  1  0  0  0  0
 14 16  1  0  0  0  0
 14 13  2  0  0  0  0
 15 12  2  0  0  0  0
 16 11  2  0  0  0  0
 17 19  1  1  0  0  0
 20 22  2  0  0  0  0
 20 21  1  0  0  0  0
 21 16  1  1  0  0  0
 21 23  1  0  0  0  0
 22 17  1  0  0  0  0
 23 17  1  0  0  0  0
 23 18  2  0  0  0  0
 24 28  1  0  0  0  0
 24 29  1  0  0  0  0
 26 17  1  0  0  0  0
 26 25  2  0  0  0  0
 27 25  1  0  0  0  0
 28 26  1  0  0  0  0
 29 30  2  0  0  0  0
 30 27  1  0  0  0  0
 31  3  1  6  0  0  0
 31 32  1  0  0  0  0
 31 33  1  0  0  0  0
 32 34  1  1  0  0  0
 32 33  1  0  0  0  0
 34 36  1  0  0  0  0
 36 35  1  1  0  0  0
 38 36  1  0  0  0  0
 38 39  1  0  0  0  0
 39 37  2  0  0  0  0
 40 39  1  0  0  0  0
 41 42  1  0  0  0  0
 41 40  1  0  0  0  0
 43 46  1  0  0  0  0
 43  7  1  0  0  0  0
 44 46  2  0  0  0  0
 46 47  1  0  0  0  0
 47 45  1  0  0  0  0
 48 49  1  0  0  0  0
 49 50  1  0  0  0  0
 50 51  1  0  0  0  0
 51 53  1  0  0  0  0
 52 53  1  0  0  0  0
M  END
>  <MODEL>
5

>  <REMARK>
 VINA RESULT:      -6.6      3.135      7.842
  Name = 
  15 active torsions:
  status: ('A' for Active; 'I' for Inactive)
    1  A    between atoms: C_2  and  C_7
    2  A    between atoms: C_5  and  C_33
    3  A    between atoms: C_5  and  N_44
    4  A    between atoms: C_8  and  C_39
    5  A    between atoms: C_8  and  C_48
    6  A    between atoms: C_9  and  C_16
    7  A    between atoms: C_9  and  C_52
    8  A    between atoms: C_11  and  C_21
    9  A    between atoms: S_14  and  N_28
   10  A    between atoms: N_18  and  C_52
   11  A    between atoms: C_29  and  C_35
   12  A    between atoms: C_29  and  C_48
   13  A    between atoms: C_37  and  C_46
   14  A    between atoms: C_38  and  C_51
   15  A    between atoms: C_39  and  C_43
                            x       y       z     vdW  Elec       q    Type
                         _______ _______ _______ _____ _____    ______ ____

>  <TORSDO>
F 15

$$$$
=
 OpenBabel11032420343D

 53 57  0  0  1  0  0  0  0  0999 V2000
  190.6470  173.3190  135.2220 N   0  0  0  0  0  2  0  0  0  0  0  0
  192.0590  173.3000  134.9630 C   0  0  0  0  0  0  0  0  0  0  0  0
  188.2790  176.7010  136.2320 C   0  0  0  0  0  0  0  0  0  0  0  0
  188.5010  174.4450  135.4910 O   0  0  0  0  0  0  0  0  0  0  0  0
  189.7320  176.6530  136.6710 C   0  0  2  0  0  3  0  0  0  0  0  0
  187.7210  175.5900  135.6920 C   0  0  0  0  0  0  0  0  0  0  0  0
  192.8450  174.4880  135.0760 N   0  0  0  0  0  2  0  0  0  0  0  0
  192.6080  172.2150  134.6170 O   0  0  0  0  0  0  0  0  0  0  0  0
  190.4690  175.4940  136.1650 N   0  0  0  0  0  0  0  0  0  0  0  0
  189.8860  174.4550  135.6520 C   0  0  0  0  0  0  0  0  0  0  0  0
  189.0550  177.4660  140.3270 C   0  0  0  0  0  3  0  0  0  0  0  0
  188.8780  177.3380  138.9460 C   0  0  0  0  0  3  0  0  0  0  0  0
  191.0430  176.2710  138.7680 C   0  0  0  0  0  3  0  0  0  0  0  0
  191.2230  176.4010  140.1470 C   0  0  0  0  0  3  0  0  0  0  0  0
  189.8720  176.7390  138.1640 C   0  0  0  0  0  0  0  0  0  0  0  0
  190.2220  176.9890  140.9360 C   0  0  0  0  0  0  0  0  0  0  0  0
  188.6610  177.9440  143.9570 C   0  0  2  0  0  0  0  0  0  0  0  0
  188.7500  175.6990  143.1750 O   0  0  0  0  0  0  0  0  0  0  0  0
  187.3730  178.2210  143.5250 F   0  0  0  0  0  0  0  0  0  0  0  0
  190.6540  178.6280  142.7020 N   0  0  0  0  0  0  0  0  0  0  0  0
  190.4180  177.2150  142.4090 C   0  0  1  0  0  3  0  0  0  0  0  0
  189.5710  179.1090  143.5780 C   0  0  0  0  0  3  0  0  0  0  0  0
  189.2150  176.8290  143.1720 C   0  0  0  0  0  0  0  0  0  0  0  0
  187.3070  177.1290  147.5800 C   0  0  0  0  0  2  0  0  0  0  0  0
  189.8760  177.2980  146.0150 C   0  0  0  0  0  3  0  0  0  0  0  0
  188.6910  177.6310  145.4420 C   0  0  0  0  0  0  0  0  0  0  0  0
  190.1150  176.8570  147.4360 C   0  0  0  0  0  2  0  0  0  0  0  0
  187.3740  177.7520  146.1920 C   0  0  0  0  0  2  0  0  0  0  0  0
  188.2300  177.8680  148.5030 C   0  0  0  0  0  3  0  0  0  0  0  0
  189.5060  177.7490  148.4000 N   0  0  0  0  0  0  0  0  0  0  0  0
  187.5730  178.0310  136.4470 C   0  0  2  0  0  3  0  0  0  0  0  0
  186.4650  177.8750  137.4320 C   0  0  2  0  0  3  0  0  0  0  0  0
  186.2230  178.0060  136.0490 O   0  0  0  0  0  0  0  0  0  0  0  0
  185.9940  179.1690  138.0950 C   0  0  0  0  0  2  0  0  0  0  0  0
  185.5460  178.4420  140.4680 C   0  0  0  0  0  1  0  0  0  0  0  0
  184.9380  178.9840  139.1840 C   0  0  2  0  0  3  0  0  0  0  0  0
  182.3670  179.7870  138.0800 O   0  0  0  0  0  0  0  0  0  0  0  0
  183.8770  178.1060  138.6960 N   0  0  0  0  0  2  0  0  0  0  0  0
  182.6090  178.5540  138.1950 C   0  0  0  0  0  0  0  0  0  0  0  0
  181.6320  177.6070  137.7660 N   0  0  0  0  0  2  0  0  0  0  0  0
  181.9400  175.8670  137.7660 S   0  0  0  0  0  0  0  0  0  0  0  0
  182.8660  175.9590  136.2070 C   0  0  0  0  0  1  0  0  0  0  0  0
  194.2260  174.5680  134.6120 C   0  0  0  0  0  2  0  0  0  0  0  0
  195.7470  175.4780  136.2100 O   0  0  0  0  0  0  0  0  0  0  0  0
  195.4160  178.0760  135.3450 O   0  0  0  0  0  1  0  0  0  0  0  0
  194.9220  175.7090  135.2860 C   0  0  0  0  0  0  0  0  0  0  0  0
  194.6960  177.0450  134.8400 N   0  0  0  0  0  2  0  0  0  0  0  0
  186.2920  175.5150  135.2690 C   0  0  0  0  0  2  0  0  0  0  0  0
  186.0130  174.1780  134.6000 C   0  0  0  0  0  2  0  0  0  0  0  0
  185.5480  173.1570  135.6230 C   0  0  0  0  0  2  0  0  0  0  0  0
  185.6160  171.7540  135.0500 C   0  0  0  0  0  2  0  0  0  0  0  0
  184.1430  170.1890  136.0510 O   0  0  0  0  0  1  0  0  0  0  0  0
  184.2280  171.1500  135.0440 C   0  0  0  0  0  2  0  0  0  0  0  0
  1 10  1  0  0  0  0
  2  7  1  0  0  0  0
  2  1  1  0  0  0  0
  3  5  1  0  0  0  0
  4 10  1  0  0  0  0
  4  6  1  0  0  0  0
  5 15  1  1  0  0  0
  6  3  2  0  0  0  0
  8  2  2  0  0  0  0
  9  5  1  0  0  0  0
 10  9  2  0  0  0  0
 11 16  1  0  0  0  0
 12 11  2  0  0  0  0
 13 14  1  0  0  0  0
 14 16  2  0  0  0  0
 15 13  2  0  0  0  0
 15 12  1  0  0  0  0
 17 19  1  6  0  0  0
 17 26  1  0  0  0  0
 20 22  2  0  0  0  0
 21 16  1  6  0  0  0
 21 20  1  0  0  0  0
 21 23  1  0  0  0  0
 22 17  1  0  0  0  0
 23 18  2  0  0  0  0
 23 17  1  0  0  0  0
 24 29  1  0  0  0  0
 25 27  1  0  0  0  0
 26 25  2  0  0  0  0
 26 28  1  0  0  0  0
 27 30  1  0  0  0  0
 28 24  1  0  0  0  0
 30 29  2  0  0  0  0
 31  3  1  6  0  0  0
 31 32  1  0  0  0  0
 32 34  1  1  0  0  0
 33 31  1  0  0  0  0
 33 32  1  0  0  0  0
 34 36  1  0  0  0  0
 36 35  1  1  0  0  0
 37 39  2  0  0  0  0
 38 36  1  0  0  0  0
 39 38  1  0  0  0  0
 40 41  1  0  0  0  0
 40 39  1  0  0  0  0
 42 41  1  0  0  0  0
 43  7  1  0  0  0  0
 43 46  1  0  0  0  0
 46 44  2  0  0  0  0
 47 46  1  0  0  0  0
 47 45  1  0  0  0  0
 48  6  1  0  0  0  0
 49 48  1  0  0  0  0
 49 50  1  0  0  0  0
 51 50  1  0  0  0  0
 53 51  1  0  0  0  0
 53 52  1  0  0  0  0
M  END
>  <MODEL>
6

>  <REMARK>
 VINA RESULT:      -5.7      1.735      2.234
  Name = 
  15 active torsions:
  status: ('A' for Active; 'I' for Inactive)
    1  A    between atoms: C_2  and  C_7
    2  A    between atoms: C_5  and  C_33
    3  A    between atoms: C_5  and  N_44
    4  A    between atoms: C_8  and  C_39
    5  A    between atoms: C_8  and  C_48
    6  A    between atoms: C_9  and  C_16
    7  A    between atoms: C_9  and  C_52
    8  A    between atoms: C_11  and  C_21
    9  A    between atoms: S_14  and  N_28
   10  A    between atoms: N_18  and  C_52
   11  A    between atoms: C_29  and  C_35
   12  A    between atoms: C_29  and  C_48
   13  A    between atoms: C_37  and  C_46
   14  A    between atoms: C_38  and  C_51
   15  A    between atoms: C_39  and  C_43
                            x       y       z     vdW  Elec       q    Type
                         _______ _______ _______ _____ _____    ______ ____

>  <TORSDO>
F 15

$$$$
=
 OpenBabel11032420343D

 53 57  0  0  1  0  0  0  0  0999 V2000
  179.5910  179.5310  136.7390 N   0  0  0  0  0  2  0  0  0  0  0  0
  179.7560  180.4960  135.6880 C   0  0  0  0  0  0  0  0  0  0  0  0
  181.9480  179.1520  140.2550 C   0  0  0  0  0  0  0  0  0  0  0  0
  179.9830  178.6790  138.9890 O   0  0  0  0  0  0  0  0  0  0  0  0
  182.5940  179.6620  138.9790 C   0  0  2  0  0  3  0  0  0  0  0  0
  180.6870  178.6570  140.1990 C   0  0  0  0  0  0  0  0  0  0  0  0
  180.8260  181.4430  135.7190 N   0  0  0  0  0  2  0  0  0  0  0  0
  178.9310  180.5120  134.7310 O   0  0  0  0  0  0  0  0  0  0  0  0
  181.6550  179.8550  137.8720 N   0  0  0  0  0  0  0  0  0  0  0  0
  180.4550  179.3630  137.8690 C   0  0  0  0  0  0  0  0  0  0  0  0
  184.5780  176.6880  137.6730 C   0  0  0  0  0  3  0  0  0  0  0  0
  183.5010  177.5100  138.0180 C   0  0  0  0  0  3  0  0  0  0  0  0
  185.0460  179.2390  138.7130 C   0  0  0  0  0  3  0  0  0  0  0  0
  186.1230  178.4170  138.3720 C   0  0  0  0  0  3  0  0  0  0  0  0
  183.7340  178.7890  138.5380 C   0  0  0  0  0  0  0  0  0  0  0  0
  185.8920  177.1400  137.8370 C   0  0  0  0  0  0  0  0  0  0  0  0
  189.2150  176.8900  136.6690 C   0  0  2  0  0  0  0  0  0  0  0  0
  188.6470  177.2130  138.9550 O   0  0  0  0  0  0  0  0  0  0  0  0
  189.5040  178.2150  136.3790 F   0  0  0  0  0  0  0  0  0  0  0  0
  187.0630  175.8540  136.1140 N   0  0  0  0  0  0  0  0  0  0  0  0
  187.0260  176.2020  137.5340 C   0  0  1  0  0  3  0  0  0  0  0  0
  188.3430  176.3190  135.5540 C   0  0  0  0  0  3  0  0  0  0  0  0
  188.3280  176.8240  137.8420 C   0  0  0  0  0  0  0  0  0  0  0  0
  192.6700  175.8300  138.2690 C   0  0  0  0  0  2  0  0  0  0  0  0
  190.5950  174.8670  136.3090 C   0  0  0  0  0  3  0  0  0  0  0  0
  190.4820  176.0850  136.8970 C   0  0  0  0  0  0  0  0  0  0  0  0
  191.7100  173.8660  136.4790 C   0  0  0  0  0  2  0  0  0  0  0  0
  191.5570  176.7320  137.7540 C   0  0  0  0  0  2  0  0  0  0  0  0
  193.4860  175.3350  137.1130 C   0  0  0  0  0  3  0  0  0  0  0  0
  193.0160  174.4610  136.2940 N   0  0  0  0  0  0  0  0  0  0  0  0
  182.8040  179.2530  141.5090 C   0  0  2  0  0  3  0  0  0  0  0  0
  183.6890  178.0590  141.6270 C   0  0  2  0  0  3  0  0  0  0  0  0
  182.5450  178.2240  142.4340 O   0  0  0  0  0  0  0  0  0  0  0  0
  184.9070  178.2370  142.5330 C   0  0  0  0  0  2  0  0  0  0  0  0
  184.1870  180.1490  144.0120 C   0  0  0  0  0  1  0  0  0  0  0  0
  184.5850  178.6830  143.9600 C   0  0  2  0  0  3  0  0  0  0  0  0
  184.5880  178.5490  146.8670 O   0  0  0  0  0  0  0  0  0  0  0  0
  185.7310  178.4190  144.8270 N   0  0  0  0  0  2  0  0  0  0  0  0
  185.6860  178.4020  146.2610 C   0  0  0  0  0  0  0  0  0  0  0  0
  186.8730  178.1590  147.0140 N   0  0  0  0  0  2  0  0  0  0  0  0
  188.4240  177.8080  146.2430 S   0  0  0  0  0  0  0  0  0  0  0  0
  188.9650  176.7790  147.6380 C   0  0  0  0  0  1  0  0  0  0  0  0
  180.9060  182.5740  134.8010 C   0  0  0  0  0  2  0  0  0  0  0  0
  180.7430  184.9500  134.9500 O   0  0  0  0  0  0  0  0  0  0  0  0
  180.5980  184.9690  137.7040 O   0  0  0  0  0  1  0  0  0  0  0  0
  180.8310  183.8560  135.5690 C   0  0  0  0  0  0  0  0  0  0  0  0
  180.8000  183.8330  136.9960 N   0  0  0  0  0  2  0  0  0  0  0  0
  179.9770  178.0900  141.3830 C   0  0  0  0  0  2  0  0  0  0  0  0
  179.0110  177.0010  140.9420 C   0  0  0  0  0  2  0  0  0  0  0  0
  179.5110  175.6360  141.3810 C   0  0  0  0  0  2  0  0  0  0  0  0
  179.2090  174.5900  140.3260 C   0  0  0  0  0  2  0  0  0  0  0  0
  179.0280  175.7390  138.2600 O   0  0  0  0  0  1  0  0  0  0  0  0
  179.8980  174.9710  139.0330 C   0  0  0  0  0  2  0  0  0  0  0  0
  1 10  1  0  0  0  0
  2  7  1  0  0  0  0
  2  1  1  0  0  0  0
  4  6  1  0  0  0  0
  5 15  1  6  0  0  0
  5  3  1  0  0  0  0
  6  3  2  0  0  0  0
  6 48  1  0  0  0  0
  8  2  2  0  0  0  0
  9  5  1  0  0  0  0
 10  9  2  0  0  0  0
 10  4  1  0  0  0  0
 11 16  2  0  0  0  0
 11 12  1  0  0  0  0
 12 15  2  0  0  0  0
 14 13  2  0  0  0  0
 15 13  1  0  0  0  0
 16 14  1  0  0  0  0
 17 19  1  6  0  0  0
 17 26  1  0  0  0  0
 17 23  1  0  0  0  0
 20 21  1  0  0  0  0
 21 16  1  6  0  0  0
 21 23  1  0  0  0  0
 22 20  2  0  0  0  0
 22 17  1  0  0  0  0
 23 18  2  0  0  0  0
 25 27  1  0  0  0  0
 25 26  2  0  0  0  0
 26 28  1  0  0  0  0
 28 24  1  0  0  0  0
 29 24  1  0  0  0  0
 30 27  1  0  0  0  0
 30 29  2  0  0  0  0
 31  3  1  6  0  0  0
 31 32  1  0  0  0  0
 31 33  1  0  0  0  0
 32 33  1  0  0  0  0
 32 34  1  1  0  0  0
 34 36  1  0  0  0  0
 36 35  1  6  0  0  0
 36 38  1  0  0  0  0
 38 39  1  0  0  0  0
 39 37  2  0  0  0  0
 39 40  1  0  0  0  0
 41 40  1  0  0  0  0
 41 42  1  0  0  0  0
 43 46  1  0  0  0  0
 43  7  1  0  0  0  0
 44 46  2  0  0  0  0
 46 47  1  0  0  0  0
 47 45  1  0  0  0  0
 49 50  1  0  0  0  0
 49 48  1  0  0  0  0
 51 50  1  0  0  0  0
 52 53  1  0  0  0  0
 53 51  1  0  0  0  0
M  END
>  <MODEL>
7

>  <REMARK>
 VINA RESULT:      -5.6      4.232     11.037
  Name = 
  15 active torsions:
  status: ('A' for Active; 'I' for Inactive)
    1  A    between atoms: C_2  and  C_7
    2  A    between atoms: C_5  and  C_33
    3  A    between atoms: C_5  and  N_44
    4  A    between atoms: C_8  and  C_39
    5  A    between atoms: C_8  and  C_48
    6  A    between atoms: C_9  and  C_16
    7  A    between atoms: C_9  and  C_52
    8  A    between atoms: C_11  and  C_21
    9  A    between atoms: S_14  and  N_28
   10  A    between atoms: N_18  and  C_52
   11  A    between atoms: C_29  and  C_35
   12  A    between atoms: C_29  and  C_48
   13  A    between atoms: C_37  and  C_46
   14  A    between atoms: C_38  and  C_51
   15  A    between atoms: C_39  and  C_43
                            x       y       z     vdW  Elec       q    Type
                         _______ _______ _______ _____ _____    ______ ____

>  <TORSDO>
F 15

$$$$
=
 OpenBabel11032420343D

 53 57  0  0  1  0  0  0  0  0999 V2000
  190.8050  173.8500  135.9600 N   0  0  0  0  0  2  0  0  0  0  0  0
  192.0610  174.2520  135.3900 C   0  0  0  0  0  0  0  0  0  0  0  0
  187.8020  176.3900  137.5720 C   0  0  0  0  0  0  0  0  0  0  0  0
  188.5340  174.2800  136.7370 O   0  0  0  0  0  0  0  0  0  0  0  0
  189.2590  176.8060  137.6710 C   0  0  2  0  0  3  0  0  0  0  0  0
  187.5060  175.1390  137.1400 C   0  0  0  0  0  0  0  0  0  0  0  0
  192.4490  175.6270  135.3570 N   0  0  0  0  0  2  0  0  0  0  0  0
  192.8240  173.3720  134.8990 O   0  0  0  0  0  0  0  0  0  0  0  0
  190.1840  175.9060  136.9800 N   0  0  0  0  0  0  0  0  0  0  0  0
  189.8490  174.7180  136.5820 C   0  0  0  0  0  0  0  0  0  0  0  0
  189.3280  177.8850  141.3200 C   0  0  0  0  0  3  0  0  0  0  0  0
  188.8780  177.6630  140.0160 C   0  0  0  0  0  3  0  0  0  0  0  0
  190.9620  176.5510  139.4880 C   0  0  0  0  0  3  0  0  0  0  0  0
  191.4140  176.7750  140.7900 C   0  0  0  0  0  3  0  0  0  0  0  0
  189.6950  176.9940  139.0970 C   0  0  0  0  0  0  0  0  0  0  0  0
  190.5910  177.4330  141.7180 C   0  0  0  0  0  0  0  0  0  0  0  0
  189.9020  177.1690  145.1710 C   0  0  2  0  0  0  0  0  0  0  0  0
  191.1150  175.5320  143.9440 O   0  0  0  0  0  0  0  0  0  0  0  0
  188.6790  176.5160  145.1580 F   0  0  0  0  0  0  0  0  0  0  0  0
  190.4530  178.9790  143.6110 N   0  0  0  0  0  0  0  0  0  0  0  0
  191.0780  177.7590  143.1020 C   0  0  1  0  0  3  0  0  0  0  0  0
  189.6830  178.6380  144.8190 C   0  0  0  0  0  3  0  0  0  0  0  0
  190.7310  176.6860  144.0540 C   0  0  0  0  0  0  0  0  0  0  0  0
  190.6360  177.5050  149.0410 C   0  0  0  0  0  2  0  0  0  0  0  0
  191.5970  176.0480  146.5840 C   0  0  0  0  0  3  0  0  0  0  0  0
  190.6150  176.9810  146.4990 C   0  0  0  0  0  0  0  0  0  0  0  0
  192.3590  175.6290  147.8170 C   0  0  0  0  0  2  0  0  0  0  0  0
  190.1890  177.8920  147.6380 C   0  0  0  0  0  2  0  0  0  0  0  0
  192.1300  177.6110  149.1340 C   0  0  0  0  0  3  0  0  0  0  0  0
  192.8930  176.7600  148.5450 N   0  0  0  0  0  0  0  0  0  0  0  0
  186.7880  177.4500  137.9770 C   0  0  2  0  0  3  0  0  0  0  0  0
  185.6530  177.4750  137.0120 C   0  0  2  0  0  3  0  0  0  0  0  0
  186.6500  178.4710  137.0190 O   0  0  0  0  0  0  0  0  0  0  0  0
  184.3690  178.1200  137.5320 C   0  0  0  0  0  2  0  0  0  0  0  0
  182.4210  176.5920  137.0510 C   0  0  0  0  0  1  0  0  0  0  0  0
  183.3520  177.1410  138.1200 C   0  0  2  0  0  3  0  0  0  0  0  0
  184.3280  177.8730  140.7630 O   0  0  0  0  0  0  0  0  0  0  0  0
  182.5980  177.7960  139.1860 N   0  0  0  0  0  2  0  0  0  0  0  0
  183.1170  178.1010  140.4880 C   0  0  0  0  0  0  0  0  0  0  0  0
  182.2840  178.7210  141.4660 N   0  0  0  0  0  2  0  0  0  0  0  0
  180.6180  179.1980  141.1200 S   0  0  0  0  0  0  0  0  0  0  0  0
  180.0110  177.5010  141.3450 C   0  0  0  0  0  1  0  0  0  0  0  0
  193.5990  176.1030  134.5970 C   0  0  0  0  0  2  0  0  0  0  0  0
  194.5250  177.1220  136.5470 O   0  0  0  0  0  0  0  0  0  0  0  0
  197.0210  176.0030  136.1910 O   0  0  0  0  0  1  0  0  0  0  0  0
  194.7300  176.4100  135.5270 C   0  0  0  0  0  0  0  0  0  0  0  0
  196.0210  175.8480  135.2910 N   0  0  0  0  0  2  0  0  0  0  0  0
  186.1120  174.6150  137.0470 C   0  0  0  0  0  2  0  0  0  0  0  0
  186.0660  173.1670  137.5110 C   0  0  0  0  0  2  0  0  0  0  0  0
  184.6440  172.6380  137.4660 C   0  0  0  0  0  2  0  0  0  0  0  0
  184.0020  172.9400  136.1250 C   0  0  0  0  0  2  0  0  0  0  0  0
  181.9260  172.7420  134.9970 O   0  0  0  0  0  1  0  0  0  0  0  0
  182.6980  172.1800  136.0130 C   0  0  0  0  0  2  0  0  0  0  0  0
  1 10  1  0  0  0  0
  2  1  1  0  0  0  0
  3  5  1  0  0  0  0
  4  6  1  0  0  0  0
  5 15  1  1  0  0  0
  6  3  2  0  0  0  0
  7  2  1  0  0  0  0
  8  2  2  0  0  0  0
  9  5  1  0  0  0  0
 10  4  1  0  0  0  0
 10  9  2  0  0  0  0
 11 16  1  0  0  0  0
 12 11  2  0  0  0  0
 13 14  1  0  0  0  0
 14 16  2  0  0  0  0
 15 13  2  0  0  0  0
 15 12  1  0  0  0  0
 17 19  1  1  0  0  0
 17 26  1  0  0  0  0
 18 23  2  0  0  0  0
 20 22  2  0  0  0  0
 21 16  1  6  0  0  0
 21 20  1  0  0  0  0
 21 23  1  0  0  0  0
 22 17  1  0  0  0  0
 23 17  1  0  0  0  0
 24 29  1  0  0  0  0
 25 27  1  0  0  0  0
 26 25  2  0  0  0  0
 26 28  1  0  0  0  0
 27 30  1  0  0  0  0
 28 24  1  0  0  0  0
 30 29  2  0  0  0  0
 31  3  1  6  0  0  0
 32 33  1  0  0  0  0
 32 34  1  1  0  0  0
 32 31  1  0  0  0  0
 33 31  1  0  0  0  0
 34 36  1  0  0  0  0
 36 35  1  6  0  0  0
 36 38  1  0  0  0  0
 38 39  1  0  0  0  0
 39 37  2  0  0  0  0
 39 40  1  0  0  0  0
 41 42  1  0  0  0  0
 41 40  1  0  0  0  0
 43  7  1  0  0  0  0
 43 46  1  0  0  0  0
 46 44  2  0  0  0  0
 47 46  1  0  0  0  0
 47 45  1  0  0  0  0
 48  6  1  0  0  0  0
 48 49  1  0  0  0  0
 50 49  1  0  0  0  0
 51 50  1  0  0  0  0
 52 53  1  0  0  0  0
 53 51  1  0  0  0  0
M  END
>  <MODEL>
8

>  <REMARK>
 VINA RESULT:      -5.4      2.171      3.065
  Name = 
  15 active torsions:
  status: ('A' for Active; 'I' for Inactive)
    1  A    between atoms: C_2  and  C_7
    2  A    between atoms: C_5  and  C_33
    3  A    between atoms: C_5  and  N_44
    4  A    between atoms: C_8  and  C_39
    5  A    between atoms: C_8  and  C_48
    6  A    between atoms: C_9  and  C_16
    7  A    between atoms: C_9  and  C_52
    8  A    between atoms: C_11  and  C_21
    9  A    between atoms: S_14  and  N_28
   10  A    between atoms: N_18  and  C_52
   11  A    between atoms: C_29  and  C_35
   12  A    between atoms: C_29  and  C_48
   13  A    between atoms: C_37  and  C_46
   14  A    between atoms: C_38  and  C_51
   15  A    between atoms: C_39  and  C_43
                            x       y       z     vdW  Elec       q    Type
                         _______ _______ _______ _____ _____    ______ ____

>  <TORSDO>
F 15

$$$$
=
 OpenBabel11032420343D

 53 57  0  0  1  0  0  0  0  0999 V2000
  180.4550  178.5810  138.2740 N   0  0  0  0  0  2  0  0  0  0  0  0
  180.0970  179.3290  137.1020 C   0  0  0  0  0  0  0  0  0  0  0  0
  183.9880  179.0080  140.5980 C   0  0  0  0  0  0  0  0  0  0  0  0
  181.7630  178.2040  140.2970 O   0  0  0  0  0  0  0  0  0  0  0  0
  184.0410  179.2890  139.1070 C   0  0  2  0  0  3  0  0  0  0  0  0
  182.8670  178.4520  141.1210 C   0  0  0  0  0  0  0  0  0  0  0  0
  180.9790  180.3130  136.5580 N   0  0  0  0  0  2  0  0  0  0  0  0
  178.9770  179.1190  136.5550 O   0  0  0  0  0  0  0  0  0  0  0  0
  182.7390  179.2180  138.4410 N   0  0  0  0  0  0  0  0  0  0  0  0
  181.6950  178.6780  138.9870 C   0  0  0  0  0  0  0  0  0  0  0  0
  187.2570  177.9700  137.5570 C   0  0  0  0  0  3  0  0  0  0  0  0
  186.3690  178.7780  138.2720 C   0  0  0  0  0  3  0  0  0  0  0  0
  184.5790  177.2150  137.8130 C   0  0  0  0  0  3  0  0  0  0  0  0
  185.4650  176.4080  137.0950 C   0  0  0  0  0  3  0  0  0  0  0  0
  185.0270  178.4010  138.4020 C   0  0  0  0  0  0  0  0  0  0  0  0
  186.8140  176.7770  136.9750 C   0  0  0  0  0  0  0  0  0  0  0  0
  190.2110  176.2370  136.1760 C   0  0  2  0  0  0  0  0  0  0  0  0
  189.0800  175.1080  137.9370 O   0  0  0  0  0  0  0  0  0  0  0  0
  190.8340  177.1940  136.9630 F   0  0  0  0  0  0  0  0  0  0  0  0
  188.1510  176.6880  134.9260 N   0  0  0  0  0  0  0  0  0  0  0  0
  187.7740  175.9720  136.1440 C   0  0  1  0  0  3  0  0  0  0  0  0
  189.6050  176.9200  134.9530 C   0  0  0  0  0  3  0  0  0  0  0  0
  189.0280  175.7150  136.8780 C   0  0  0  0  0  0  0  0  0  0  0  0
  191.4400  172.7500  134.7780 C   0  0  0  0  0  2  0  0  0  0  0  0
  192.5020  175.3590  135.8470 C   0  0  0  0  0  3  0  0  0  0  0  0
  191.1670  175.1150  135.8110 C   0  0  0  0  0  0  0  0  0  0  0  0
  193.6150  174.4300  135.4320 C   0  0  0  0  0  2  0  0  0  0  0  0
  190.5440  173.7730  135.4620 C   0  0  0  0  0  2  0  0  0  0  0  0
  192.5230  172.3240  135.7240 C   0  0  0  0  0  3  0  0  0  0  0  0
  193.4880  173.1170  136.0280 N   0  0  0  0  0  0  0  0  0  0  0  0
  185.2350  179.3910  141.3820 C   0  0  2  0  0  3  0  0  0  0  0  0
  185.7060  178.2380  142.2000 C   0  0  2  0  0  3  0  0  0  0  0  0
  185.0430  179.3400  142.7760 O   0  0  0  0  0  0  0  0  0  0  0  0
  187.1660  178.3080  142.6460 C   0  0  0  0  0  2  0  0  0  0  0  0
  187.2420  177.1060  144.8620 C   0  0  0  0  0  1  0  0  0  0  0  0
  187.6650  177.0770  143.4020 C   0  0  2  0  0  3  0  0  0  0  0  0
  189.6580  178.4480  145.0200 O   0  0  0  0  0  0  0  0  0  0  0  0
  189.1170  176.9790  143.2780 N   0  0  0  0  0  2  0  0  0  0  0  0
  190.0590  177.7080  144.0790 C   0  0  0  0  0  0  0  0  0  0  0  0
  191.4590  177.5560  143.8570 N   0  0  0  0  0  2  0  0  0  0  0  0
  192.1080  176.4380  142.6510 S   0  0  0  0  0  0  0  0  0  0  0  0
  191.5440  177.4820  141.2760 C   0  0  0  0  0  1  0  0  0  0  0  0
  180.5720  181.2460  135.5130 C   0  0  0  0  0  2  0  0  0  0  0  0
  180.6560  182.8360  137.2910 O   0  0  0  0  0  0  0  0  0  0  0  0
  179.4850  184.8500  135.8130 O   0  0  0  0  0  1  0  0  0  0  0  0
  180.2810  182.5850  136.1130 C   0  0  0  0  0  0  0  0  0  0  0  0
  179.6370  183.5920  135.3340 N   0  0  0  0  0  2  0  0  0  0  0  0
  182.7280  178.0940  142.5630 C   0  0  0  0  0  2  0  0  0  0  0  0
  181.8550  179.1180  143.2730 C   0  0  0  0  0  2  0  0  0  0  0  0
  180.3870  178.7560  143.1320 C   0  0  0  0  0  2  0  0  0  0  0  0
  179.5630  179.9830  142.7920 C   0  0  0  0  0  2  0  0  0  0  0  0
  179.1610  181.0390  140.7070 O   0  0  0  0  0  1  0  0  0  0  0  0
  179.0030  179.8350  141.3940 C   0  0  0  0  0  2  0  0  0  0  0  0
  1 10  1  0  0  0  0
  2  1  1  0  0  0  0
  3  6  2  0  0  0  0
  4  6  1  0  0  0  0
  5 15  1  6  0  0  0
  5  3  1  0  0  0  0
  6 48  1  0  0  0  0
  7  2  1  0  0  0  0
  8  2  2  0  0  0  0
  9 10  2  0  0  0  0
  9  5  1  0  0  0  0
 10  4  1  0  0  0  0
 11 12  1  0  0  0  0
 12 15  2  0  0  0  0
 13 15  1  0  0  0  0
 14 13  2  0  0  0  0
 16 14  1  0  0  0  0
 16 11  2  0  0  0  0
 17 23  1  0  0  0  0
 17 19  1  1  0  0  0
 20 22  2  0  0  0  0
 20 21  1  0  0  0  0
 21 23  1  0  0  0  0
 21 16  1  1  0  0  0
 22 17  1  0  0  0  0
 23 18  2  0  0  0  0
 24 28  1  0  0  0  0
 24 29  1  0  0  0  0
 26 25  2  0  0  0  0
 26 17  1  0  0  0  0
 27 25  1  0  0  0  0
 27 30  1  0  0  0  0
 28 26  1  0  0  0  0
 29 30  2  0  0  0  0
 31  3  1  6  0  0  0
 31 32  1  0  0  0  0
 31 33  1  0  0  0  0
 32 34  1  1  0  0  0
 32 33  1  0  0  0  0
 34 36  1  0  0  0  0
 36 35  1  1  0  0  0
 38 36  1  0  0  0  0
 38 39  1  0  0  0  0
 39 37  2  0  0  0  0
 40 39  1  0  0  0  0
 41 40  1  0  0  0  0
 42 41  1  0  0  0  0
 43 46  1  0  0  0  0
 43  7  1  0  0  0  0
 46 44  2  0  0  0  0
 47 45  1  0  0  0  0
 47 46  1  0  0  0  0
 48 49  1  0  0  0  0
 50 49  1  0  0  0  0
 51 50  1  0  0  0  0
 52 53  1  0  0  0  0
 53 51  1  0  0  0  0
M  END
>  <MODEL>
9

>  <REMARK>
 VINA RESULT:      -5.3      3.917     11.064
  Name = 
  15 active torsions:
  status: ('A' for Active; 'I' for Inactive)
    1  A    between atoms: C_2  and  C_7
    2  A    between atoms: C_5  and  C_33
    3  A    between atoms: C_5  and  N_44
    4  A    between atoms: C_8  and  C_39
    5  A    between atoms: C_8  and  C_48
    6  A    between atoms: C_9  and  C_16
    7  A    between atoms: C_9  and  C_52
    8  A    between atoms: C_11  and  C_21
    9  A    between atoms: S_14  and  N_28
   10  A    between atoms: N_18  and  C_52
   11  A    between atoms: C_29  and  C_35
   12  A    between atoms: C_29  and  C_48
   13  A    between atoms: C_37  and  C_46
   14  A    between atoms: C_38  and  C_51
   15  A    between atoms: C_39  and  C_43
                            x       y       z     vdW  Elec       q    Type
                         _______ _______ _______ _____ _____    ______ ____

>  <TORSDO>
F 15

$$$$
