=
 OpenBabel11042411113D

 33 35  0  0  1  0  0  0  0  0999 V2000
  186.2580  178.8360  141.9800 C   0  0  1  0  0  3  0  0  0  0  0  0
  187.4980  178.5470  141.1920 C   0  0  0  0  0  0  0  0  0  0  0  0
  189.9110  176.8720  140.4520 C   0  0  0  0  0  3  0  0  0  0  0  0
  189.7940  177.7710  141.6160 C   0  0  0  0  0  3  0  0  0  0  0  0
  189.3110  177.0650  139.2730 C   0  0  0  0  0  0  0  0  0  0  0  0
  188.5710  178.3390  139.0080 C   0  0  0  0  0  2  0  0  0  0  0  0
  187.4270  178.4700  139.8930 N   0  0  0  0  0  0  0  0  0  0  0  0
  188.7450  178.4850  141.9070 N   0  0  0  0  0  0  0  0  0  0  0  0
  189.1610  174.8950  136.3970 C   0  0  0  0  0  3  0  0  0  0  0  0
  189.4780  176.0990  138.2200 N   0  0  0  0  0  0  0  0  0  0  0  0
  188.6470  175.9180  137.1760 C   0  0  0  0  0  3  0  0  0  0  0  0
  190.4900  175.2510  138.1470 N   0  0  0  0  0  0  0  0  0  0  0  0
  190.3230  174.5000  137.0430 C   0  0  0  0  0  3  0  0  0  0  0  0
  185.0610  178.8840  141.0440 C   0  0  0  0  0  2  0  0  0  0  0  0
  184.0550  177.9290  141.4810 N   0  0  0  0  0  2  0  0  0  0  0  0
  182.7690  178.5960  141.3940 C   0  0  0  0  0  2  0  0  0  0  0  0
  182.2420  178.9280  142.7860 C   0  0  0  0  0  2  0  0  0  0  0  0
  180.1250  178.3670  143.9850 C   0  0  0  0  0  1  0  0  0  0  0  0
  180.3970  180.4290  142.8440 O   0  0  0  0  0  1  0  0  0  0  0  0
  180.7290  179.0780  142.7890 C   0  0  1  0  0  3  0  0  0  0  0  0
  186.0430  177.8220  143.0070 N   0  0  0  0  0  2  0  0  0  0  0  0
  185.9090  178.4980  144.2890 C   0  0  0  0  0  2  0  0  0  0  0  0
  187.6380  176.9450  144.9900 O   0  0  0  0  0  0  0  0  0  0  0  0
  187.6120  177.7450  147.6100 C   0  0  0  0  0  2  0  0  0  0  0  0
  188.9570  177.6890  146.8710 C   0  0  2  0  0  3  0  0  0  0  0  0
  186.4350  177.5930  145.3890 C   0  0  1  0  0  3  0  0  0  0  0  0
  186.5120  178.3420  146.7360 C   0  0  0  0  0  2  0  0  0  0  0  0
  189.8700  177.3350  144.6670 F   0  0  0  0  0  0  0  0  0  0  0  0
  188.7400  177.7440  145.3500 C   0  0  1  0  0  3  0  0  0  0  0  0
  191.6210  175.2940  147.6440 O   0  0  0  0  0  1  0  0  0  0  0  0
  189.6540  176.4620  147.2340 N   0  0  0  0  0  2  0  0  0  0  0  0
  191.0790  176.3660  147.2700 C   0  0  0  0  0  0  0  0  0  0  0  0
  191.8700  177.4440  146.8940 O   0  0  0  0  0  0  0  0  0  0  0  0
  1 14  1  6  0  0  0
  1 21  1  0  0  0  0
  2  8  1  0  0  0  0
  2  1  1  0  0  0  0
  3  4  1  0  0  0  0
  4  8  2  0  0  0  0
  5  3  2  0  0  0  0
  6  5  1  0  0  0  0
  6  7  1  0  0  0  0
  7  2  2  0  0  0  0
  9 13  1  0  0  0  0
  9 11  2  0  0  0  0
 10  5  1  0  0  0  0
 11 10  1  0  0  0  0
 12 10  1  0  0  0  0
 13 12  2  0  0  0  0
 14 15  1  0  0  0  0
 16 15  1  0  0  0  0
 16 17  1  0  0  0  0
 17 20  1  0  0  0  0
 20 19  1  0  0  0  0
 20 18  1  1  0  0  0
 21 22  1  0  0  0  0
 23 29  1  0  0  0  0
 23 26  1  0  0  0  0
 25 31  1  6  0  0  0
 25 24  1  0  0  0  0
 26 22  1  6  0  0  0
 26 27  1  0  0  0  0
 27 24  1  0  0  0  0
 29 28  1  6  0  0  0
 29 25  1  0  0  0  0
 31 32  1  0  0  0  0
 32 30  1  0  0  0  0
 33 32  2  0  0  0  0
M  END
>  <MODEL>
1

>  <REMARK>
 VINA RESULT:      -7.8      0.000      0.000
  Name = 
  11 active torsions:
  status: ('A' for Active; 'I' for Inactive)
    1  A    between atoms: C_2  and  C_3
    2  A    between atoms: C_2  and  C_8
    3  A    between atoms: C_2  and  N_23
    4  A    between atoms: C_8  and  N_25
    5  A    between atoms: C_10  and  N_12
    6  A    between atoms: C_11  and  C_26
    7  A    between atoms: C_13  and  N_16
    8  A    between atoms: C_21  and  C_33
    9  A    between atoms: C_22  and  N_25
   10  A    between atoms: C_22  and  C_33
   11  A    between atoms: N_23  and  C_26
                            x       y       z     vdW  Elec       q    Type
                         _______ _______ _______ _____ _____    ______ ____

>  <TORSDO>
F 11

$$$$
=
 OpenBabel11042411113D

 33 35  0  0  1  0  0  0  0  0999 V2000
  187.1450  178.1360  140.9580 C   0  0  1  0  0  3  0  0  0  0  0  0
  188.0020  177.7350  142.1190 C   0  0  0  0  0  0  0  0  0  0  0  0
  189.8900  178.3030  144.4190 C   0  0  0  0  0  3  0  0  0  0  0  0
  190.2500  178.2290  142.9890 C   0  0  0  0  0  3  0  0  0  0  0  0
  188.9190  177.5940  145.0010 C   0  0  0  0  0  0  0  0  0  0  0  0
  188.2060  176.5260  144.2310 C   0  0  0  0  0  2  0  0  0  0  0  0
  187.4660  177.0930  143.1180 N   0  0  0  0  0  0  0  0  0  0  0  0
  189.4170  177.9770  142.0210 N   0  0  0  0  0  0  0  0  0  0  0  0
  188.8780  177.9500  148.5890 C   0  0  0  0  0  3  0  0  0  0  0  0
  188.6420  177.7760  146.4010 N   0  0  0  0  0  0  0  0  0  0  0  0
  189.5460  177.7260  147.3970 C   0  0  0  0  0  3  0  0  0  0  0  0
  187.4390  178.0220  146.8920 N   0  0  0  0  0  0  0  0  0  0  0  0
  187.5510  178.1320  148.2280 C   0  0  0  0  0  3  0  0  0  0  0  0
  186.0580  179.0860  141.4320 C   0  0  0  0  0  2  0  0  0  0  0  0
  184.8060  178.7740  140.7640 N   0  0  0  0  0  2  0  0  0  0  0  0
  183.7780  178.7210  141.7880 C   0  0  0  0  0  2  0  0  0  0  0  0
  184.4010  178.8000  143.1770 C   0  0  0  0  0  2  0  0  0  0  0  0
  182.0350  178.8720  143.9710 C   0  0  0  0  0  1  0  0  0  0  0  0
  183.8560  179.0860  145.4760 O   0  0  0  0  0  1  0  0  0  0  0  0
  183.4380  179.4060  144.1870 C   0  0  1  0  0  3  0  0  0  0  0  0
  187.9430  178.7740  139.9160 N   0  0  0  0  0  2  0  0  0  0  0  0
  187.6980  178.0730  138.6650 C   0  0  0  0  0  2  0  0  0  0  0  0
  190.1230  177.9580  138.6560 O   0  0  0  0  0  0  0  0  0  0  0  0
  190.2740  176.5600  136.3050 C   0  0  0  0  0  2  0  0  0  0  0  0
  191.0340  176.0270  137.5280 C   0  0  2  0  0  3  0  0  0  0  0  0
  188.9680  178.0770  137.8330 C   0  0  1  0  0  3  0  0  0  0  0  0
  188.8800  177.0560  136.6790 C   0  0  0  0  0  2  0  0  0  0  0  0
  191.3030  176.4330  139.8910 F   0  0  0  0  0  0  0  0  0  0  0  0
  190.4370  176.5950  138.8250 C   0  0  1  0  0  3  0  0  0  0  0  0
  194.6850  175.8120  137.2930 O   0  0  0  0  0  0  0  0  0  0  0  0
  192.4400  176.3970  137.4190 N   0  0  0  0  0  2  0  0  0  0  0  0
  193.4950  175.4340  137.4450 C   0  0  0  0  0  0  0  0  0  0  0  0
  193.2190  174.0870  137.6390 O   0  0  0  0  0  1  0  0  0  0  0  0
  1 14  1  1  0  0  0
  1  2  1  0  0  0  0
  2  7  2  0  0  0  0
  3  5  2  0  0  0  0
  4  3  1  0  0  0  0
  5 10  1  0  0  0  0
  6  5  1  0  0  0  0
  7  6  1  0  0  0  0
  8  2  1  0  0  0  0
  8  4  2  0  0  0  0
 10 12  1  0  0  0  0
 10 11  1  0  0  0  0
 11  9  2  0  0  0  0
 12 13  2  0  0  0  0
 13  9  1  0  0  0  0
 15 14  1  0  0  0  0
 15 16  1  0  0  0  0
 16 17  1  0  0  0  0
 17 20  1  0  0  0  0
 20 18  1  6  0  0  0
 20 19  1  0  0  0  0
 21  1  1  0  0  0  0
 22 21  1  0  0  0  0
 23 29  1  0  0  0  0
 24 27  1  0  0  0  0
 24 25  1  0  0  0  0
 25 31  1  6  0  0  0
 25 29  1  0  0  0  0
 26 23  1  0  0  0  0
 26 22  1  1  0  0  0
 27 26  1  0  0  0  0
 29 28  1  1  0  0  0
 30 32  2  0  0  0  0
 31 32  1  0  0  0  0
 32 33  1  0  0  0  0
M  END
>  <MODEL>
2

>  <REMARK>
 VINA RESULT:      -7.7      3.295      7.209
  Name = 
  11 active torsions:
  status: ('A' for Active; 'I' for Inactive)
    1  A    between atoms: C_2  and  C_3
    2  A    between atoms: C_2  and  C_8
    3  A    between atoms: C_2  and  N_23
    4  A    between atoms: C_8  and  N_25
    5  A    between atoms: C_10  and  N_12
    6  A    between atoms: C_11  and  C_26
    7  A    between atoms: C_13  and  N_16
    8  A    between atoms: C_21  and  C_33
    9  A    between atoms: C_22  and  N_25
   10  A    between atoms: C_22  and  C_33
   11  A    between atoms: N_23  and  C_26
                            x       y       z     vdW  Elec       q    Type
                         _______ _______ _______ _____ _____    ______ ____

>  <TORSDO>
F 11

$$$$
=
 OpenBabel11042411113D

 33 35  0  0  1  0  0  0  0  0999 V2000
  187.5660  178.8630  141.2530 C   0  0  1  0  0  3  0  0  0  0  0  0
  187.8540  178.4250  139.8510 C   0  0  0  0  0  0  0  0  0  0  0  0
  189.0260  176.5470  137.7830 C   0  0  0  0  0  3  0  0  0  0  0  0
  189.7630  177.5610  138.5610 C   0  0  0  0  0  3  0  0  0  0  0  0
  187.7510  176.6570  137.3950 C   0  0  0  0  0  0  0  0  0  0  0  0
  187.0110  177.9400  137.6110 C   0  0  0  0  0  2  0  0  0  0  0  0
  186.8650  178.2260  139.0270 N   0  0  0  0  0  0  0  0  0  0  0  0
  189.2320  178.3610  139.4400 N   0  0  0  0  0  0  0  0  0  0  0  0
  185.6420  174.3290  135.6260 C   0  0  0  0  0  3  0  0  0  0  0  0
  187.1320  175.5840  136.6650 N   0  0  0  0  0  0  0  0  0  0  0  0
  185.8340  175.5160  136.3110 C   0  0  0  0  0  3  0  0  0  0  0  0
  187.7740  174.5080  136.2430 N   0  0  0  0  0  0  0  0  0  0  0  0
  186.8890  173.7210  135.6040 C   0  0  0  0  0  3  0  0  0  0  0  0
  186.1550  178.4470  141.6360 C   0  0  0  0  0  2  0  0  0  0  0  0
  185.3970  179.6110  142.0630 N   0  0  0  0  0  2  0  0  0  0  0  0
  184.6280  179.2140  143.2290 C   0  0  0  0  0  2  0  0  0  0  0  0
  185.5260  179.1200  144.4580 C   0  0  0  0  0  2  0  0  0  0  0  0
  185.6210  178.6120  146.9000 C   0  0  0  0  0  1  0  0  0  0  0  0
  183.5720  179.1140  145.8160 O   0  0  0  0  0  1  0  0  0  0  0  0
  184.7990  178.4830  145.6320 C   0  0  1  0  0  3  0  0  0  0  0  0
  188.5250  178.2850  142.1890 N   0  0  0  0  0  2  0  0  0  0  0  0
  188.2490  176.8610  142.3000 C   0  0  0  0  0  2  0  0  0  0  0  0
  189.9980  175.7420  143.5570 O   0  0  0  0  0  0  0  0  0  0  0  0
  189.6590  177.2570  145.8140 C   0  0  0  0  0  2  0  0  0  0  0  0
  191.0710  177.1150  145.2280 C   0  0  2  0  0  3  0  0  0  0  0  0
  188.7210  176.3640  143.6540 C   0  0  1  0  0  3  0  0  0  0  0  0
  188.6150  177.4730  144.7220 C   0  0  0  0  0  2  0  0  0  0  0  0
  192.2210  176.2260  143.3030 F   0  0  0  0  0  0  0  0  0  0  0  0
  191.0040  176.7090  143.7480 C   0  0  1  0  0  3  0  0  0  0  0  0
  192.6730  175.3270  147.9980 O   0  0  0  0  0  0  0  0  0  0  0  0
  191.8080  176.1140  145.9900 N   0  0  0  0  0  2  0  0  0  0  0  0
  192.0780  176.2510  147.3860 C   0  0  0  0  0  0  0  0  0  0  0  0
  191.6910  177.3950  148.0710 O   0  0  0  0  0  1  0  0  0  0  0  0
  1 14  1  1  0  0  0
  1 21  1  0  0  0  0
  2  1  1  0  0  0  0
  3  4  1  0  0  0  0
  4  8  2  0  0  0  0
  5  6  1  0  0  0  0
  5  3  2  0  0  0  0
  6  7  1  0  0  0  0
  7  2  2  0  0  0  0
  8  2  1  0  0  0  0
  9 11  2  0  0  0  0
 10  5  1  0  0  0  0
 11 10  1  0  0  0  0
 12 10  1  0  0  0  0
 13  9  1  0  0  0  0
 13 12  2  0  0  0  0
 14 15  1  0  0  0  0
 15 16  1  0  0  0  0
 16 17  1  0  0  0  0
 17 20  1  0  0  0  0
 20 19  1  0  0  0  0
 20 18  1  1  0  0  0
 21 22  1  0  0  0  0
 23 26  1  0  0  0  0
 23 29  1  0  0  0  0
 25 24  1  0  0  0  0
 25 31  1  1  0  0  0
 26 22  1  6  0  0  0
 26 27  1  0  0  0  0
 27 24  1  0  0  0  0
 29 28  1  1  0  0  0
 29 25  1  0  0  0  0
 31 32  1  0  0  0  0
 32 30  2  0  0  0  0
 32 33  1  0  0  0  0
M  END
>  <MODEL>
3

>  <REMARK>
 VINA RESULT:      -7.4      2.229      3.003
  Name = 
  11 active torsions:
  status: ('A' for Active; 'I' for Inactive)
    1  A    between atoms: C_2  and  C_3
    2  A    between atoms: C_2  and  C_8
    3  A    between atoms: C_2  and  N_23
    4  A    between atoms: C_8  and  N_25
    5  A    between atoms: C_10  and  N_12
    6  A    between atoms: C_11  and  C_26
    7  A    between atoms: C_13  and  N_16
    8  A    between atoms: C_21  and  C_33
    9  A    between atoms: C_22  and  N_25
   10  A    between atoms: C_22  and  C_33
   11  A    between atoms: N_23  and  C_26
                            x       y       z     vdW  Elec       q    Type
                         _______ _______ _______ _____ _____    ______ ____

>  <TORSDO>
F 11

$$$$
=
 OpenBabel11042411113D

 33 35  0  0  1  0  0  0  0  0999 V2000
  185.8600  179.0050  141.6260 C   0  0  1  0  0  3  0  0  0  0  0  0
  184.7100  178.8690  140.6770 C   0  0  0  0  0  0  0  0  0  0  0  0
  181.7780  179.0230  139.9310 C   0  0  0  0  0  3  0  0  0  0  0  0
  182.4330  177.9370  140.6860 C   0  0  0  0  0  3  0  0  0  0  0  0
  182.3650  179.7550  138.9790 C   0  0  0  0  0  0  0  0  0  0  0  0
  183.7390  179.4000  138.5000 C   0  0  0  0  0  2  0  0  0  0  0  0
  184.7150  179.5470  139.5650 N   0  0  0  0  0  0  0  0  0  0  0  0
  183.6980  177.8940  140.9880 N   0  0  0  0  0  0  0  0  0  0  0  0
  180.9580  182.8020  137.6610 C   0  0  0  0  0  3  0  0  0  0  0  0
  181.6300  180.8090  138.3330 N   0  0  0  0  0  0  0  0  0  0  0  0
  181.8940  182.1260  138.4260 C   0  0  0  0  0  3  0  0  0  0  0  0
  180.5820  180.6100  137.5520 N   0  0  0  0  0  0  0  0  0  0  0  0
  180.1480  181.8110  137.1260 C   0  0  0  0  0  3  0  0  0  0  0  0
  185.4400  178.5260  143.0060 C   0  0  0  0  0  2  0  0  0  0  0  0
  184.8870  179.6340  143.7660 N   0  0  0  0  0  2  0  0  0  0  0  0
  184.4960  179.1090  145.0620 C   0  0  0  0  0  2  0  0  0  0  0  0
  185.5460  178.1340  145.5840 C   0  0  0  0  0  2  0  0  0  0  0  0
  187.3170  178.0470  147.3410 C   0  0  0  0  0  1  0  0  0  0  0  0
  185.6570  179.7420  147.3360 O   0  0  0  0  0  1  0  0  0  0  0  0
  185.8710  178.3960  147.0470 C   0  0  1  0  0  3  0  0  0  0  0  0
  187.0130  178.2390  141.1640 N   0  0  0  0  0  2  0  0  0  0  0  0
  188.2160  178.9860  141.4950 C   0  0  0  0  0  2  0  0  0  0  0  0
  190.0660  178.5770  143.0130 O   0  0  0  0  0  0  0  0  0  0  0  0
  189.5370  175.9050  143.3000 C   0  0  0  0  0  2  0  0  0  0  0  0
  189.7140  176.7600  144.5630 C   0  0  2  0  0  3  0  0  0  0  0  0
  189.2930  178.0200  141.9550 C   0  0  1  0  0  3  0  0  0  0  0  0
  188.7020  176.6240  142.2440 C   0  0  0  0  0  2  0  0  0  0  0  0
  189.9750  179.0580  145.2490 F   0  0  0  0  0  0  0  0  0  0  0  0
  189.4760  178.2450  144.2480 C   0  0  1  0  0  3  0  0  0  0  0  0
  192.5070  176.2190  146.8730 O   0  0  0  0  0  0  0  0  0  0  0  0
  191.0590  176.5680  145.0890 N   0  0  0  0  0  2  0  0  0  0  0  0
  191.3300  176.4360  146.4860 C   0  0  0  0  0  0  0  0  0  0  0  0
  190.3070  176.5470  147.4180 O   0  0  0  0  0  1  0  0  0  0  0  0
  1 14  1  1  0  0  0
  2  8  1  0  0  0  0
  2  1  1  0  0  0  0
  3  4  1  0  0  0  0
  4  8  2  0  0  0  0
  5  3  2  0  0  0  0
  6  5  1  0  0  0  0
  6  7  1  0  0  0  0
  7  2  2  0  0  0  0
  9 11  2  0  0  0  0
 10 11  1  0  0  0  0
 10  5  1  0  0  0  0
 12 10  1  0  0  0  0
 13 12  2  0  0  0  0
 13  9  1  0  0  0  0
 14 15  1  0  0  0  0
 15 16  1  0  0  0  0
 16 17  1  0  0  0  0
 17 20  1  0  0  0  0
 20 19  1  0  0  0  0
 20 18  1  6  0  0  0
 21 22  1  0  0  0  0
 21  1  1  0  0  0  0
 23 29  1  0  0  0  0
 24 25  1  0  0  0  0
 25 31  1  6  0  0  0
 26 22  1  1  0  0  0
 26 27  1  0  0  0  0
 26 23  1  0  0  0  0
 27 24  1  0  0  0  0
 29 25  1  0  0  0  0
 29 28  1  1  0  0  0
 31 32  1  0  0  0  0
 32 30  2  0  0  0  0
 32 33  1  0  0  0  0
M  END
>  <MODEL>
4

>  <REMARK>
 VINA RESULT:      -7.4      2.985      5.954
  Name = 
  11 active torsions:
  status: ('A' for Active; 'I' for Inactive)
    1  A    between atoms: C_2  and  C_3
    2  A    between atoms: C_2  and  C_8
    3  A    between atoms: C_2  and  N_23
    4  A    between atoms: C_8  and  N_25
    5  A    between atoms: C_10  and  N_12
    6  A    between atoms: C_11  and  C_26
    7  A    between atoms: C_13  and  N_16
    8  A    between atoms: C_21  and  C_33
    9  A    between atoms: C_22  and  N_25
   10  A    between atoms: C_22  and  C_33
   11  A    between atoms: N_23  and  C_26
                            x       y       z     vdW  Elec       q    Type
                         _______ _______ _______ _____ _____    ______ ____

>  <TORSDO>
F 11

$$$$
=
 OpenBabel11042411113D

 33 35  0  0  1  0  0  0  0  0999 V2000
  189.3480  177.2060  140.0680 C   0  0  1  0  0  3  0  0  0  0  0  0
  189.2530  177.5950  141.5100 C   0  0  0  0  0  0  0  0  0  0  0  0
  188.4520  177.1350  144.3950 C   0  0  0  0  0  3  0  0  0  0  0  0
  187.5660  177.5760  143.3010 C   0  0  0  0  0  3  0  0  0  0  0  0
  189.7530  177.4270  144.4920 C   0  0  0  0  0  0  0  0  0  0  0  0
  190.3790  178.3860  143.5280 C   0  0  0  0  0  2  0  0  0  0  0  0
  190.3420  177.8630  142.1740 N   0  0  0  0  0  0  0  0  0  0  0  0
  187.9390  177.7720  142.0700 N   0  0  0  0  0  0  0  0  0  0  0  0
  191.1740  176.3510  147.6260 C   0  0  0  0  0  3  0  0  0  0  0  0
  190.5210  176.9110  145.5930 N   0  0  0  0  0  0  0  0  0  0  0  0
  190.1640  176.9470  146.8900 C   0  0  0  0  0  3  0  0  0  0  0  0
  191.7000  176.3250  145.4630 N   0  0  0  0  0  0  0  0  0  0  0  0
  192.1250  175.9720  146.6910 C   0  0  0  0  0  3  0  0  0  0  0  0
  188.3110  177.9730  139.2640 C   0  0  0  0  0  2  0  0  0  0  0  0
  188.9720  178.9350  138.3980 N   0  0  0  0  0  2  0  0  0  0  0  0
  188.3100  178.8710  137.1080 C   0  0  0  0  0  2  0  0  0  0  0  0
  189.0540  177.9280  136.1680 C   0  0  0  0  0  2  0  0  0  0  0  0
  188.3010  175.5760  136.5390 C   0  0  0  0  0  1  0  0  0  0  0  0
  186.8250  177.2350  135.7030 O   0  0  0  0  0  1  0  0  0  0  0  0
  188.1510  176.8100  135.6700 C   0  0  1  0  0  3  0  0  0  0  0  0
  190.6820  177.4750  139.5410 N   0  0  0  0  0  2  0  0  0  0  0  0
  191.1620  176.2690  138.8830 C   0  0  0  0  0  2  0  0  0  0  0  0
  193.5190  176.5720  138.3900 O   0  0  0  0  0  0  0  0  0  0  0  0
  193.3250  175.6880  135.8040 C   0  0  0  0  0  2  0  0  0  0  0  0
  194.3980  175.0720  136.7140 C   0  0  2  0  0  3  0  0  0  0  0  0
  192.2060  176.6460  137.8470 C   0  0  1  0  0  3  0  0  0  0  0  0
  191.9960  175.8600  136.5360 C   0  0  0  0  0  2  0  0  0  0  0  0
  195.1270  175.0660  139.0140 F   0  0  0  0  0  0  0  0  0  0  0  0
  194.0340  175.2760  138.1930 C   0  0  1  0  0  3  0  0  0  0  0  0
  197.9710  175.5240  136.0340 O   0  0  0  0  0  0  0  0  0  0  0  0
  195.6860  175.6900  136.4250 N   0  0  0  0  0  2  0  0  0  0  0  0
  196.8990  174.9400  136.3390 C   0  0  0  0  0  0  0  0  0  0  0  0
  196.9060  173.5740  136.5920 O   0  0  0  0  0  1  0  0  0  0  0  0
  1 14  1  6  0  0  0
  1  2  1  0  0  0  0
  2  8  1  0  0  0  0
  2  7  2  0  0  0  0
  3  5  2  0  0  0  0
  4  3  1  0  0  0  0
  5 10  1  0  0  0  0
  6  5  1  0  0  0  0
  7  6  1  0  0  0  0
  8  4  2  0  0  0  0
 10 11  1  0  0  0  0
 11  9  2  0  0  0  0
 12 10  1  0  0  0  0
 12 13  2  0  0  0  0
 13  9  1  0  0  0  0
 15 14  1  0  0  0  0
 16 15  1  0  0  0  0
 17 16  1  0  0  0  0
 20 19  1  0  0  0  0
 20 17  1  0  0  0  0
 20 18  1  1  0  0  0
 21  1  1  0  0  0  0
 22 21  1  0  0  0  0
 24 27  1  0  0  0  0
 24 25  1  0  0  0  0
 25 31  1  1  0  0  0
 25 29  1  0  0  0  0
 26 23  1  0  0  0  0
 26 22  1  1  0  0  0
 27 26  1  0  0  0  0
 29 23  1  0  0  0  0
 29 28  1  1  0  0  0
 30 32  2  0  0  0  0
 32 31  1  0  0  0  0
 32 33  1  0  0  0  0
M  END
>  <MODEL>
5

>  <REMARK>
 VINA RESULT:      -7.2      4.685      8.855
  Name = 
  11 active torsions:
  status: ('A' for Active; 'I' for Inactive)
    1  A    between atoms: C_2  and  C_3
    2  A    between atoms: C_2  and  C_8
    3  A    between atoms: C_2  and  N_23
    4  A    between atoms: C_8  and  N_25
    5  A    between atoms: C_10  and  N_12
    6  A    between atoms: C_11  and  C_26
    7  A    between atoms: C_13  and  N_16
    8  A    between atoms: C_21  and  C_33
    9  A    between atoms: C_22  and  N_25
   10  A    between atoms: C_22  and  C_33
   11  A    between atoms: N_23  and  C_26
                            x       y       z     vdW  Elec       q    Type
                         _______ _______ _______ _____ _____    ______ ____

>  <TORSDO>
F 11

$$$$
=
 OpenBabel11042411113D

 33 35  0  0  1  0  0  0  0  0999 V2000
  189.2170  178.1500  140.5580 C   0  0  1  0  0  3  0  0  0  0  0  0
  189.6240  177.6320  141.9020 C   0  0  0  0  0  0  0  0  0  0  0  0
  190.7990  177.9240  144.6790 C   0  0  0  0  0  3  0  0  0  0  0  0
  191.5550  177.7970  143.4180 C   0  0  0  0  0  3  0  0  0  0  0  0
  189.6090  177.3630  144.9180 C   0  0  0  0  0  0  0  0  0  0  0  0
  189.0180  176.4080  143.9280 C   0  0  0  0  0  2  0  0  0  0  0  0
  188.7300  177.0750  142.6700 N   0  0  0  0  0  0  0  0  0  0  0  0
  191.0230  177.6660  142.2370 N   0  0  0  0  0  0  0  0  0  0  0  0
  188.5710  177.8130  148.3420 C   0  0  0  0  0  3  0  0  0  0  0  0
  188.9550  177.5850  146.1790 N   0  0  0  0  0  0  0  0  0  0  0  0
  189.5420  177.5490  147.3900 C   0  0  0  0  0  3  0  0  0  0  0  0
  187.6680  177.8590  146.3080 N   0  0  0  0  0  0  0  0  0  0  0  0
  187.4020  178.0030  147.6190 C   0  0  0  0  0  3  0  0  0  0  0  0
  188.7910  176.9900  139.6730 C   0  0  0  0  0  2  0  0  0  0  0  0
  189.7570  176.8070  138.6020 N   0  0  0  0  0  2  0  0  0  0  0  0
  189.1290  177.2710  137.3780 C   0  0  0  0  0  2  0  0  0  0  0  0
  187.6910  176.7700  137.2900 C   0  0  0  0  0  2  0  0  0  0  0  0
  185.3590  177.6600  137.3260 C   0  0  0  0  0  1  0  0  0  0  0  0
  187.2350  179.1000  137.1380 O   0  0  0  0  0  1  0  0  0  0  0  0
  186.7560  177.8470  136.7640 C   0  0  1  0  0  3  0  0  0  0  0  0
  188.1260  179.1110  140.6760 N   0  0  0  0  0  2  0  0  0  0  0  0
  186.8700  178.3770  140.6340 C   0  0  0  0  0  2  0  0  0  0  0  0
  184.7420  179.5450  140.6210 O   0  0  0  0  0  0  0  0  0  0  0  0
  183.9920  178.6770  143.1090 C   0  0  0  0  0  2  0  0  0  0  0  0
  183.0110  178.4980  141.9400 C   0  0  2  0  0  3  0  0  0  0  0  0
  185.8260  179.1270  141.4430 C   0  0  1  0  0  3  0  0  0  0  0  0
  185.4220  178.3320  142.7020 C   0  0  0  0  0  2  0  0  0  0  0  0
  182.8870  178.7440  139.5440 F   0  0  0  0  0  0  0  0  0  0  0  0
  183.7580  178.5370  140.5980 C   0  0  1  0  0  3  0  0  0  0  0  0
  180.1020  180.4990  142.9210 O   0  0  0  0  0  0  0  0  0  0  0  0
  182.0090  179.5560  141.9880 N   0  0  0  0  0  2  0  0  0  0  0  0
  180.9030  179.5300  142.8920 C   0  0  0  0  0  0  0  0  0  0  0  0
  180.7040  178.4450  143.7350 O   0  0  0  0  0  1  0  0  0  0  0  0
  1 14  1  6  0  0  0
  1 21  1  0  0  0  0
  1  2  1  0  0  0  0
  2  8  1  0  0  0  0
  2  7  2  0  0  0  0
  3  5  2  0  0  0  0
  4  3  1  0  0  0  0
  5 10  1  0  0  0  0
  6  5  1  0  0  0  0
  7  6  1  0  0  0  0
  8  4  2  0  0  0  0
 10 12  1  0  0  0  0
 10 11  1  0  0  0  0
 11  9  2  0  0  0  0
 12 13  2  0  0  0  0
 13  9  1  0  0  0  0
 15 14  1  0  0  0  0
 16 15  1  0  0  0  0
 17 16  1  0  0  0  0
 20 19  1  0  0  0  0
 20 17  1  0  0  0  0
 20 18  1  1  0  0  0
 22 21  1  0  0  0  0
 23 26  1  0  0  0  0
 25 31  1  6  0  0  0
 25 24  1  0  0  0  0
 26 22  1  6  0  0  0
 26 27  1  0  0  0  0
 27 24  1  0  0  0  0
 29 28  1  6  0  0  0
 29 23  1  0  0  0  0
 29 25  1  0  0  0  0
 31 32  1  0  0  0  0
 32 30  2  0  0  0  0
 32 33  1  0  0  0  0
M  END
>  <MODEL>
6

>  <REMARK>
 VINA RESULT:      -7.2      3.445      7.654
  Name = 
  11 active torsions:
  status: ('A' for Active; 'I' for Inactive)
    1  A    between atoms: C_2  and  C_3
    2  A    between atoms: C_2  and  C_8
    3  A    between atoms: C_2  and  N_23
    4  A    between atoms: C_8  and  N_25
    5  A    between atoms: C_10  and  N_12
    6  A    between atoms: C_11  and  C_26
    7  A    between atoms: C_13  and  N_16
    8  A    between atoms: C_21  and  C_33
    9  A    between atoms: C_22  and  N_25
   10  A    between atoms: C_22  and  C_33
   11  A    between atoms: N_23  and  C_26
                            x       y       z     vdW  Elec       q    Type
                         _______ _______ _______ _____ _____    ______ ____

>  <TORSDO>
F 11

$$$$
=
 OpenBabel11042411113D

 33 35  0  0  1  0  0  0  0  0999 V2000
  186.5880  179.1000  141.4030 C   0  0  1  0  0  3  0  0  0  0  0  0
  185.7960  178.9670  140.1390 C   0  0  0  0  0  0  0  0  0  0  0  0
  184.5450  177.3880  137.8770 C   0  0  0  0  0  3  0  0  0  0  0  0
  185.9650  177.7750  137.9930 C   0  0  0  0  0  3  0  0  0  0  0  0
  183.5160  178.1020  138.3450 C   0  0  0  0  0  0  0  0  0  0  0  0
  183.7480  179.4690  138.9080 C   0  0  0  0  0  2  0  0  0  0  0  0
  184.5710  179.4080  140.1030 N   0  0  0  0  0  0  0  0  0  0  0  0
  186.4740  178.4610  138.9750 N   0  0  0  0  0  0  0  0  0  0  0  0
  180.4160  176.4680  137.4990 C   0  0  0  0  0  3  0  0  0  0  0  0
  182.1750  177.6030  138.1970 N   0  0  0  0  0  0  0  0  0  0  0  0
  181.7760  176.6600  137.3240 C   0  0  0  0  0  3  0  0  0  0  0  0
  181.1470  178.0200  138.9170 N   0  0  0  0  0  0  0  0  0  0  0  0
  180.0560  177.3440  138.5120 C   0  0  0  0  0  3  0  0  0  0  0  0
  185.8890  178.3480  142.5230 C   0  0  0  0  0  2  0  0  0  0  0  0
  185.0160  179.2520  143.2540 N   0  0  0  0  0  2  0  0  0  0  0  0
  184.6330  178.5760  144.4800 C   0  0  0  0  0  2  0  0  0  0  0  0
  185.8580  177.9990  145.1800 C   0  0  0  0  0  2  0  0  0  0  0  0
  186.7650  178.9050  147.3220 C   0  0  0  0  0  1  0  0  0  0  0  0
  184.4430  178.5250  147.0190 O   0  0  0  0  0  1  0  0  0  0  0  0
  185.7010  178.0260  146.6920 C   0  0  1  0  0  3  0  0  0  0  0  0
  187.9420  178.5840  141.2280 N   0  0  0  0  0  2  0  0  0  0  0  0
  188.1890  177.6000  142.2710 C   0  0  0  0  0  2  0  0  0  0  0  0
  189.1810  178.0060  144.4490 O   0  0  0  0  0  0  0  0  0  0  0  0
  191.6480  177.0330  143.7590 C   0  0  0  0  0  2  0  0  0  0  0  0
  190.9760  176.5010  145.0340 C   0  0  2  0  0  3  0  0  0  0  0  0
  189.4320  177.9960  143.0480 C   0  0  1  0  0  3  0  0  0  0  0  0
  190.6530  177.1610  142.6090 C   0  0  0  0  0  2  0  0  0  0  0  0
  188.8860  176.6030  146.2340 F   0  0  0  0  0  0  0  0  0  0  0  0
  189.4580  176.7320  144.9820 C   0  0  1  0  0  3  0  0  0  0  0  0
  192.3570  177.1210  148.3720 O   0  0  0  0  0  1  0  0  0  0  0  0
  191.5460  177.1730  146.1940 N   0  0  0  0  0  2  0  0  0  0  0  0
  191.8150  176.4970  147.4230 C   0  0  0  0  0  0  0  0  0  0  0  0
  191.4800  175.1580  147.5810 O   0  0  0  0  0  0  0  0  0  0  0  0
  1 14  1  1  0  0  0
  2  1  1  0  0  0  0
  3  4  1  0  0  0  0
  3  5  2  0  0  0  0
  4  8  2  0  0  0  0
  5  6  1  0  0  0  0
  6  7  1  0  0  0  0
  7  2  2  0  0  0  0
  8  2  1  0  0  0  0
  9 13  1  0  0  0  0
 10  5  1  0  0  0  0
 10 12  1  0  0  0  0
 11  9  2  0  0  0  0
 11 10  1  0  0  0  0
 13 12  2  0  0  0  0
 14 15  1  0  0  0  0
 15 16  1  0  0  0  0
 16 17  1  0  0  0  0
 17 20  1  0  0  0  0
 20 19  1  0  0  0  0
 20 18  1  1  0  0  0
 21  1  1  0  0  0  0
 21 22  1  0  0  0  0
 23 29  1  0  0  0  0
 24 25  1  0  0  0  0
 25 31  1  1  0  0  0
 26 22  1  6  0  0  0
 26 23  1  0  0  0  0
 27 26  1  0  0  0  0
 27 24  1  0  0  0  0
 29 25  1  0  0  0  0
 29 28  1  1  0  0  0
 31 32  1  0  0  0  0
 32 33  2  0  0  0  0
 32 30  1  0  0  0  0
M  END
>  <MODEL>
7

>  <REMARK>
 VINA RESULT:      -7.2      2.832      5.090
  Name = 
  11 active torsions:
  status: ('A' for Active; 'I' for Inactive)
    1  A    between atoms: C_2  and  C_3
    2  A    between atoms: C_2  and  C_8
    3  A    between atoms: C_2  and  N_23
    4  A    between atoms: C_8  and  N_25
    5  A    between atoms: C_10  and  N_12
    6  A    between atoms: C_11  and  C_26
    7  A    between atoms: C_13  and  N_16
    8  A    between atoms: C_21  and  C_33
    9  A    between atoms: C_22  and  N_25
   10  A    between atoms: C_22  and  C_33
   11  A    between atoms: N_23  and  C_26
                            x       y       z     vdW  Elec       q    Type
                         _______ _______ _______ _____ _____    ______ ____

>  <TORSDO>
F 11

$$$$
=
 OpenBabel11042411113D

 33 35  0  0  1  0  0  0  0  0999 V2000
  187.8080  178.7470  140.8850 C   0  0  1  0  0  3  0  0  0  0  0  0
  188.2470  178.0940  139.6110 C   0  0  0  0  0  0  0  0  0  0  0  0
  189.6570  178.0560  136.9300 C   0  0  0  0  0  3  0  0  0  0  0  0
  188.3300  178.6370  137.2120 C   0  0  0  0  0  3  0  0  0  0  0  0
  190.1750  176.9930  137.5530 C   0  0  0  0  0  0  0  0  0  0  0  0
  189.3390  176.2060  138.5130 C   0  0  0  0  0  2  0  0  0  0  0  0
  188.9700  177.0110  139.6630 N   0  0  0  0  0  0  0  0  0  0  0  0
  187.7450  178.6340  138.3750 N   0  0  0  0  0  0  0  0  0  0  0  0
  193.6570  176.0930  137.2880 C   0  0  0  0  0  3  0  0  0  0  0  0
  191.4960  176.5380  137.2100 N   0  0  0  0  0  0  0  0  0  0  0  0
  192.5950  176.6510  137.9790 C   0  0  0  0  0  3  0  0  0  0  0  0
  191.8000  175.9390  136.0710 N   0  0  0  0  0  0  0  0  0  0  0  0
  193.1150  175.6550  136.0890 C   0  0  0  0  0  3  0  0  0  0  0  0
  186.3030  178.5970  141.0400 C   0  0  0  0  0  2  0  0  0  0  0  0
  185.7610  179.7550  141.7320 N   0  0  0  0  0  2  0  0  0  0  0  0
  184.7470  179.2660  142.6490 C   0  0  0  0  0  2  0  0  0  0  0  0
  185.0860  179.6610  144.0830 C   0  0  0  0  0  2  0  0  0  0  0  0
  185.1980  178.6250  146.3510 C   0  0  0  0  0  1  0  0  0  0  0  0
  183.1400  179.3410  145.4140 O   0  0  0  0  0  1  0  0  0  0  0  0
  184.3700  178.7740  145.0890 C   0  0  1  0  0  3  0  0  0  0  0  0
  188.4860  178.1580  142.0350 N   0  0  0  0  0  2  0  0  0  0  0  0
  187.6160  177.1390  142.6010 C   0  0  0  0  0  2  0  0  0  0  0  0
  189.5490  175.9820  143.5040 O   0  0  0  0  0  0  0  0  0  0  0  0
  189.4760  177.2680  145.9210 C   0  0  0  0  0  2  0  0  0  0  0  0
  190.8010  177.2370  145.1430 C   0  0  2  0  0  3  0  0  0  0  0  0
  188.2810  176.5390  143.8270 C   0  0  1  0  0  3  0  0  0  0  0  0
  188.2890  177.5400  145.0020 C   0  0  0  0  0  2  0  0  0  0  0  0
  191.7040  176.5770  143.0060 F   0  0  0  0  0  0  0  0  0  0  0  0
  190.5450  176.9670  143.6520 C   0  0  1  0  0  3  0  0  0  0  0  0
  192.7620  175.2360  147.5050 O   0  0  0  0  0  0  0  0  0  0  0  0
  191.6620  176.2020  145.7000 N   0  0  0  0  0  2  0  0  0  0  0  0
  192.0610  176.1870  147.0710 C   0  0  0  0  0  0  0  0  0  0  0  0
  191.6860  177.2130  147.9290 O   0  0  0  0  0  1  0  0  0  0  0  0
  1 14  1  1  0  0  0
  1 21  1  0  0  0  0
  2  7  2  0  0  0  0
  2  1  1  0  0  0  0
  3  4  1  0  0  0  0
  3  5  2  0  0  0  0
  4  8  2  0  0  0  0
  5  6  1  0  0  0  0
  6  7  1  0  0  0  0
  8  2  1  0  0  0  0
  9 11  2  0  0  0  0
 10  5  1  0  0  0  0
 10 11  1  0  0  0  0
 12 13  2  0  0  0  0
 12 10  1  0  0  0  0
 13  9  1  0  0  0  0
 14 15  1  0  0  0  0
 15 16  1  0  0  0  0
 16 17  1  0  0  0  0
 17 20  1  0  0  0  0
 20 19  1  0  0  0  0
 20 18  1  1  0  0  0
 21 22  1  0  0  0  0
 23 29  1  0  0  0  0
 23 26  1  0  0  0  0
 25 31  1  1  0  0  0
 25 24  1  0  0  0  0
 26 22  1  6  0  0  0
 26 27  1  0  0  0  0
 27 24  1  0  0  0  0
 29 28  1  1  0  0  0
 29 25  1  0  0  0  0
 31 32  1  0  0  0  0
 32 30  2  0  0  0  0
 32 33  1  0  0  0  0
M  END
>  <MODEL>
8

>  <REMARK>
 VINA RESULT:      -7.1      2.152      2.977
  Name = 
  11 active torsions:
  status: ('A' for Active; 'I' for Inactive)
    1  A    between atoms: C_2  and  C_3
    2  A    between atoms: C_2  and  C_8
    3  A    between atoms: C_2  and  N_23
    4  A    between atoms: C_8  and  N_25
    5  A    between atoms: C_10  and  N_12
    6  A    between atoms: C_11  and  C_26
    7  A    between atoms: C_13  and  N_16
    8  A    between atoms: C_21  and  C_33
    9  A    between atoms: C_22  and  N_25
   10  A    between atoms: C_22  and  C_33
   11  A    between atoms: N_23  and  C_26
                            x       y       z     vdW  Elec       q    Type
                         _______ _______ _______ _____ _____    ______ ____

>  <TORSDO>
F 11

$$$$
=
 OpenBabel11042411113D

 33 35  0  0  1  0  0  0  0  0999 V2000
  187.1950  177.9340  138.3850 C   0  0  1  0  0  3  0  0  0  0  0  0
  185.7430  178.1410  138.6880 C   0  0  0  0  0  0  0  0  0  0  0  0
  183.0410  177.2670  139.7420 C   0  0  0  0  0  3  0  0  0  0  0  0
  183.6280  176.9090  138.4360 C   0  0  0  0  0  3  0  0  0  0  0  0
  183.2520  178.4190  140.3860 C   0  0  0  0  0  0  0  0  0  0  0  0
  184.0120  179.5220  139.7190 C   0  0  0  0  0  2  0  0  0  0  0  0
  185.3860  179.1270  139.4620 N   0  0  0  0  0  0  0  0  0  0  0  0
  184.7910  177.3050  138.0060 N   0  0  0  0  0  0  0  0  0  0  0  0
  181.1600  178.9690  143.2710 C   0  0  0  0  0  3  0  0  0  0  0  0
  182.6460  178.6400  141.6720 N   0  0  0  0  0  0  0  0  0  0  0  0
  181.3270  178.7670  141.9110 C   0  0  0  0  0  3  0  0  0  0  0  0
  183.3240  178.7470  142.8020 N   0  0  0  0  0  0  0  0  0  0  0  0
  182.4430  178.9500  143.7980 C   0  0  0  0  0  3  0  0  0  0  0  0
  187.5080  178.4770  137.0010 C   0  0  0  0  0  2  0  0  0  0  0  0
  188.9470  178.5870  136.8290 N   0  0  0  0  0  2  0  0  0  0  0  0
  189.4030  177.3370  136.2490 C   0  0  0  0  0  2  0  0  0  0  0  0
  190.5500  176.7530  137.0660 C   0  0  0  0  0  2  0  0  0  0  0  0
  190.2360  174.4120  136.2570 C   0  0  0  0  0  1  0  0  0  0  0  0
  191.2650  174.8770  138.3440 O   0  0  0  0  0  1  0  0  0  0  0  0
  190.2690  175.3160  137.4750 C   0  0  1  0  0  3  0  0  0  0  0  0
  188.0350  178.5920  139.3790 N   0  0  0  0  0  2  0  0  0  0  0  0
  188.5110  177.5820  140.3120 C   0  0  0  0  0  2  0  0  0  0  0  0
  187.7650  178.0060  142.5830 O   0  0  0  0  0  0  0  0  0  0  0  0
  190.2770  177.9060  143.6690 C   0  0  0  0  0  2  0  0  0  0  0  0
  189.1680  177.0500  144.2990 C   0  0  2  0  0  3  0  0  0  0  0  0
  188.8120  178.2380  141.6480 C   0  0  1  0  0  3  0  0  0  0  0  0
  190.2250  177.8640  142.1450 C   0  0  0  0  0  2  0  0  0  0  0  0
  186.8810  176.3790  143.9300 F   0  0  0  0  0  0  0  0  0  0  0  0
  188.0280  176.8200  143.2950 C   0  0  1  0  0  3  0  0  0  0  0  0
  188.7610  178.1480  147.7720 O   0  0  0  0  0  1  0  0  0  0  0  0
  188.6610  177.7200  145.4900 N   0  0  0  0  0  2  0  0  0  0  0  0
  189.2070  177.4990  146.7910 C   0  0  0  0  0  0  0  0  0  0  0  0
  190.2240  176.5730  146.9830 O   0  0  0  0  0  0  0  0  0  0  0  0
  1 14  1  6  0  0  0
  1  2  1  0  0  0  0
  1 21  1  0  0  0  0
  2  7  2  0  0  0  0
  3  5  2  0  0  0  0
  4  3  1  0  0  0  0
  5 10  1  0  0  0  0
  6  5  1  0  0  0  0
  7  6  1  0  0  0  0
  8  4  2  0  0  0  0
  8  2  1  0  0  0  0
  9 13  1  0  0  0  0
 10 11  1  0  0  0  0
 10 12  1  0  0  0  0
 11  9  2  0  0  0  0
 12 13  2  0  0  0  0
 15 14  1  0  0  0  0
 16 15  1  0  0  0  0
 16 17  1  0  0  0  0
 17 20  1  0  0  0  0
 20 18  1  6  0  0  0
 20 19  1  0  0  0  0
 21 22  1  0  0  0  0
 23 29  1  0  0  0  0
 24 25  1  0  0  0  0
 25 31  1  1  0  0  0
 26 22  1  6  0  0  0
 26 27  1  0  0  0  0
 26 23  1  0  0  0  0
 27 24  1  0  0  0  0
 29 28  1  1  0  0  0
 29 25  1  0  0  0  0
 31 32  1  0  0  0  0
 32 33  2  0  0  0  0
 32 30  1  0  0  0  0
M  END
>  <MODEL>
9

>  <REMARK>
 VINA RESULT:      -7.1      2.437      7.000
  Name = 
  11 active torsions:
  status: ('A' for Active; 'I' for Inactive)
    1  A    between atoms: C_2  and  C_3
    2  A    between atoms: C_2  and  C_8
    3  A    between atoms: C_2  and  N_23
    4  A    between atoms: C_8  and  N_25
    5  A    between atoms: C_10  and  N_12
    6  A    between atoms: C_11  and  C_26
    7  A    between atoms: C_13  and  N_16
    8  A    between atoms: C_21  and  C_33
    9  A    between atoms: C_22  and  N_25
   10  A    between atoms: C_22  and  C_33
   11  A    between atoms: N_23  and  C_26
                            x       y       z     vdW  Elec       q    Type
                         _______ _______ _______ _____ _____    ______ ____

>  <TORSDO>
F 11

$$$$
