=
 OpenBabel11042413063D

 40 41  0  0  1  0  0  0  0  0999 V2000
  187.9510  177.0300  145.1420 C   0  0  2  0  0  3  0  0  0  0  0  0
  186.0080  178.3160  144.5750 C   0  0  0  0  0  3  0  0  0  0  0  0
  186.6560  177.1990  144.4990 N   0  0  0  0  0  0  0  0  0  0  0  0
  184.4590  178.2740  142.5680 C   0  0  0  0  0  0  0  0  0  0  0  0
  182.1660  178.8880  142.8680 N   0  0  0  0  0  0  0  0  0  0  0  0
  182.3670  179.1040  144.1950 C   0  0  0  0  0  3  0  0  0  0  0  0
  183.6330  178.9160  144.7520 C   0  0  0  0  0  3  0  0  0  0  0  0
  184.6910  178.5020  143.9410 C   0  0  0  0  0  0  0  0  0  0  0  0
  183.1730  178.4810  142.0430 C   0  0  0  0  0  0  0  0  0  0  0  0
  185.4620  177.8750  141.7440 F   0  0  0  0  0  0  0  0  0  0  0  0
  183.2430  179.4150  139.7330 C   0  0  0  0  0  0  0  0  0  0  0  0
  181.4380  178.1220  140.3220 C   0  0  0  0  0  3  0  0  0  0  0  0
  181.0230  179.0570  139.4700 C   0  0  0  0  0  3  0  0  0  0  0  0
  182.9170  178.2360  140.5810 C   0  0  2  0  0  3  0  0  0  0  0  0
  181.9540  181.1670  138.3920 C   0  0  0  0  0  1  0  0  0  0  0  0
  182.0970  179.8810  139.0490 N   0  0  0  0  0  0  0  0  0  0  0  0
  184.3820  179.9420  139.6290 O   0  0  0  0  0  0  0  0  0  0  0  0
  188.0820  177.9820  146.3220 C   0  0  0  0  0  2  0  0  0  0  0  0
  191.2440  176.7170  147.4470 C   0  0  0  0  0  0  0  0  0  0  0  0
  188.6980  177.2750  147.4790 C   0  0  0  0  0  3  0  0  0  0  0  0
  192.0860  177.2260  148.4250 O   0  0  0  0  0  1  0  0  0  0  0  0
  189.9710  177.0000  147.4730 C   0  0  0  0  0  0  0  0  0  0  0  0
  191.7850  175.8350  146.3710 C   0  0  0  0  0  2  0  0  0  0  0  0
  191.9060  175.6460  143.9950 O   0  0  0  0  0  1  0  0  0  0  0  0
  191.8170  176.5670  145.0390 C   0  0  0  0  0  2  0  0  0  0  0  0
  189.0520  177.3310  144.1350 C   0  0  0  0  0  2  0  0  0  0  0  0
  188.6370  176.9310  142.7270 C   0  0  0  0  0  2  0  0  0  0  0  0
  188.8940  178.0560  141.7310 C   0  0  0  0  0  2  0  0  0  0  0  0
  188.6930  177.5880  140.2930 C   0  0  0  0  0  2  0  0  0  0  0  0
  187.7090  178.4210  139.6160 N   0  0  0  0  0  2  0  0  0  0  0  0
  187.4990  177.8660  138.3970 O   0  0  0  0  0  0  0  0  0  0  0  0
  188.7670  177.8140  137.8120 C   0  0  2  0  0  3  0  0  0  0  0  0
  188.9720  179.0630  136.9740 C   0  0  0  0  0  1  0  0  0  0  0  0
  188.9090  176.5620  136.9460 C   0  0  2  0  0  3  0  0  0  0  0  0
  188.0060  175.5780  137.3630 O   0  0  0  0  0  1  0  0  0  0  0  0
  190.6020  175.8920  137.0610 P   0  0  2  0  0  0  0  0  0  0  0  0
  191.2000  175.7880  135.6750 O   0  0  0  0  0  0  0  0  0  0  0  0
  190.5290  174.3460  137.7450 O   0  0  0  0  0  1  0  0  0  0  0  0
  192.7650  176.1760  138.2280 C   0  0  0  0  0  1  0  0  0  0  0  0
  191.5750  176.8820  138.0410 O   0  0  0  0  0  0  0  0  0  0  0  0
  1 26  1  6  0  0  0
  1 18  1  0  0  0  0
  3  2  2  0  0  0  0
  3  1  1  0  0  0  0
  4  8  1  0  0  0  0
  5  6  2  0  0  0  0
  6  7  1  0  0  0  0
  8  2  1  0  0  0  0
  8  7  2  0  0  0  0
  9  4  2  0  0  0  0
  9  5  1  0  0  0  0
 10  4  1  0  0  0  0
 11 14  1  0  0  0  0
 12 14  1  0  0  0  0
 13 12  2  0  0  0  0
 14  9  1  1  0  0  0
 15 16  1  0  0  0  0
 16 13  1  0  0  0  0
 16 11  1  0  0  0  0
 17 11  2  0  0  0  0
 18 20  1  0  0  0  0
 19 22  2  0  0  0  0
 19 21  1  0  0  0  0
 22 20  2  0  0  0  0
 23 19  1  0  0  0  0
 24 25  1  0  0  0  0
 25 23  1  0  0  0  0
 27 26  1  0  0  0  0
 28 27  1  0  0  0  0
 29 28  1  0  0  0  0
 30 29  1  0  0  0  0
 31 30  1  0  0  0  0
 32 33  1  6  0  0  0
 32 31  1  0  0  0  0
 34 36  1  0  0  0  0
 34 35  1  1  0  0  0
 34 32  1  0  0  0  0
 36 37  2  6  0  0  0
 36 38  1  0  0  0  0
 36 40  1  0  0  0  0
 40 39  1  0  0  0  0
M  END
>  <MODEL>
1

>  <REMARK>
 VINA RESULT:      -7.9      0.000      0.000
  Name = 
  17 active torsions:
  status: ('A' for Active; 'I' for Inactive)
    1  A    between atoms: C_3  and  C_37
    2  A    between atoms: C_3  and  C_40
    3  A    between atoms: P_5  and  C_6
    4  A    between atoms: P_5  and  O_29
    5  A    between atoms: C_6  and  C_33
    6  A    between atoms: C_8  and  C_19
    7  A    between atoms: C_13  and  C_23
    8  A    between atoms: C_14  and  C_22
    9  A    between atoms: C_18  and  C_25
   10  A    between atoms: C_19  and  C_32
   11  A    between atoms: N_20  and  C_40
   12  A    between atoms: C_22  and  C_40
   13  A    between atoms: C_24  and  C_27
   14  A    between atoms: C_24  and  N_36
   15  A    between atoms: C_27  and  C_37
   16  A    between atoms: C_33  and  O_34
   17  A    between atoms: O_34  and  N_36
                            x       y       z     vdW  Elec       q    Type
                         _______ _______ _______ _____ _____    ______ ____

>  <TORSDO>
F 17

$$$$
=
 OpenBabel11042413063D

 40 41  0  0  1  0  0  0  0  0999 V2000
  184.6620  178.4670  144.7140 C   0  0  2  0  0  3  0  0  0  0  0  0
  185.2510  179.1190  142.4830 C   0  0  0  0  0  3  0  0  0  0  0  0
  185.1170  178.1790  143.3620 N   0  0  0  0  0  0  0  0  0  0  0  0
  187.0480  178.6010  140.7690 C   0  0  0  0  0  0  0  0  0  0  0  0
  186.4140  178.3410  138.4770 N   0  0  0  0  0  0  0  0  0  0  0  0
  185.1080  178.5640  138.7830 C   0  0  0  0  0  3  0  0  0  0  0  0
  184.7310  178.8200  140.1020 C   0  0  0  0  0  3  0  0  0  0  0  0
  185.6990  178.8440  141.1060 C   0  0  0  0  0  0  0  0  0  0  0  0
  187.3890  178.3540  139.4300 C   0  0  0  0  0  0  0  0  0  0  0  0
  188.0220  178.6200  141.7170 F   0  0  0  0  0  0  0  0  0  0  0  0
  189.1590  178.5310  137.6830 C   0  0  0  0  0  0  0  0  0  0  0  0
  189.0670  176.6090  138.9370 C   0  0  0  0  0  3  0  0  0  0  0  0
  189.4780  176.2910  137.7120 C   0  0  0  0  0  3  0  0  0  0  0  0
  188.8250  178.0900  139.0650 C   0  0  2  0  0  3  0  0  0  0  0  0
  189.6800  177.4220  135.4410 C   0  0  0  0  0  1  0  0  0  0  0  0
  189.5770  177.4390  136.8880 N   0  0  0  0  0  0  0  0  0  0  0  0
  189.0820  179.7150  137.2610 O   0  0  0  0  0  0  0  0  0  0  0  0
  183.4200  179.3470  144.6760 C   0  0  0  0  0  2  0  0  0  0  0  0
  180.4150  179.1350  142.7310 C   0  0  0  0  0  0  0  0  0  0  0  0
  182.2040  178.5020  144.5180 C   0  0  0  0  0  3  0  0  0  0  0  0
  180.1010  178.2500  141.7090 O   0  0  0  0  0  1  0  0  0  0  0  0
  181.3090  178.8090  143.6220 C   0  0  0  0  0  0  0  0  0  0  0  0
  179.7230  180.4540  142.8240 C   0  0  0  0  0  2  0  0  0  0  0  0
  179.9140  181.3800  140.6320 O   0  0  0  0  0  1  0  0  0  0  0  0
  179.0170  180.7860  141.5200 C   0  0  0  0  0  2  0  0  0  0  0  0
  185.7650  179.1960  145.4680 C   0  0  0  0  0  2  0  0  0  0  0  0
  185.7310  178.8650  146.9530 C   0  0  0  0  0  2  0  0  0  0  0  0
  186.7280  177.7650  147.3000 C   0  0  0  0  0  2  0  0  0  0  0  0
  187.9110  178.3110  148.0930 C   0  0  0  0  0  2  0  0  0  0  0  0
  189.0940  177.4900  147.8810 N   0  0  0  0  0  2  0  0  0  0  0  0
  188.8870  176.7930  146.7370 O   0  0  0  0  0  0  0  0  0  0  0  0
  190.1600  176.6470  146.1800 C   0  0  2  0  0  3  0  0  0  0  0  0
  191.1980  176.8520  147.2690 C   0  0  0  0  0  1  0  0  0  0  0  0
  190.3700  177.6510  145.0470 C   0  0  2  0  0  3  0  0  0  0  0  0
  189.1770  178.3250  144.7670 O   0  0  0  0  0  1  0  0  0  0  0  0
  190.9350  176.8020  143.5340 P   0  0  2  0  0  0  0  0  0  0  0  0
  189.7420  176.2320  142.7980 O   0  0  0  0  0  0  0  0  0  0  0  0
  191.9650  175.5360  143.9750 O   0  0  0  0  0  1  0  0  0  0  0  0
  191.7830  177.2820  141.2600 C   0  0  0  0  0  1  0  0  0  0  0  0
  191.7830  177.8740  142.5240 O   0  0  0  0  0  0  0  0  0  0  0  0
  1 18  1  6  0  0  0
  1 26  1  0  0  0  0
  2  3  2  0  0  0  0
  3  1  1  0  0  0  0
  4  8  1  0  0  0  0
  4 10  1  0  0  0  0
  5  6  2  0  0  0  0
  5  9  1  0  0  0  0
  6  7  1  0  0  0  0
  7  8  2  0  0  0  0
  8  2  1  0  0  0  0
  9  4  2  0  0  0  0
 11 14  1  0  0  0  0
 12 14  1  0  0  0  0
 13 12  2  0  0  0  0
 14  9  1  6  0  0  0
 15 16  1  0  0  0  0
 16 11  1  0  0  0  0
 16 13  1  0  0  0  0
 17 11  2  0  0  0  0
 19 23  1  0  0  0  0
 19 22  2  0  0  0  0
 20 18  1  0  0  0  0
 21 19  1  0  0  0  0
 22 20  2  0  0  0  0
 24 25  1  0  0  0  0
 25 23  1  0  0  0  0
 26 27  1  0  0  0  0
 27 28  1  0  0  0  0
 28 29  1  0  0  0  0
 30 29  1  0  0  0  0
 31 30  1  0  0  0  0
 32 31  1  0  0  0  0
 32 33  1  1  0  0  0
 34 35  1  6  0  0  0
 34 32  1  0  0  0  0
 36 37  2  6  0  0  0
 36 38  1  0  0  0  0
 36 34  1  0  0  0  0
 39 40  1  0  0  0  0
 40 36  1  0  0  0  0
M  END
>  <MODEL>
2

>  <REMARK>
 VINA RESULT:      -7.8      2.818      7.777
  Name = 
  17 active torsions:
  status: ('A' for Active; 'I' for Inactive)
    1  A    between atoms: C_3  and  C_37
    2  A    between atoms: C_3  and  C_40
    3  A    between atoms: P_5  and  C_6
    4  A    between atoms: P_5  and  O_29
    5  A    between atoms: C_6  and  C_33
    6  A    between atoms: C_8  and  C_19
    7  A    between atoms: C_13  and  C_23
    8  A    between atoms: C_14  and  C_22
    9  A    between atoms: C_18  and  C_25
   10  A    between atoms: C_19  and  C_32
   11  A    between atoms: N_20  and  C_40
   12  A    between atoms: C_22  and  C_40
   13  A    between atoms: C_24  and  C_27
   14  A    between atoms: C_24  and  N_36
   15  A    between atoms: C_27  and  C_37
   16  A    between atoms: C_33  and  O_34
   17  A    between atoms: O_34  and  N_36
                            x       y       z     vdW  Elec       q    Type
                         _______ _______ _______ _____ _____    ______ ____

>  <TORSDO>
F 17

$$$$
=
 OpenBabel11042413063D

 40 41  0  0  1  0  0  0  0  0999 V2000
  187.6290  176.7330  144.5430 C   0  0  2  0  0  3  0  0  0  0  0  0
  185.8110  178.1780  143.9450 C   0  0  0  0  0  3  0  0  0  0  0  0
  186.3200  176.9890  143.9600 N   0  0  0  0  0  0  0  0  0  0  0  0
  184.1990  178.3360  141.9940 C   0  0  0  0  0  0  0  0  0  0  0  0
  181.9400  179.0010  142.4150 N   0  0  0  0  0  0  0  0  0  0  0  0
  182.1900  179.1110  143.7460 C   0  0  0  0  0  3  0  0  0  0  0  0
  183.4650  178.8410  144.2450 C   0  0  0  0  0  3  0  0  0  0  0  0
  184.4820  178.4530  143.3710 C   0  0  0  0  0  0  0  0  0  0  0  0
  182.9060  178.6230  141.5290 C   0  0  0  0  0  0  0  0  0  0  0  0
  185.1620  177.9660  141.1090 F   0  0  0  0  0  0  0  0  0  0  0  0
  182.9210  179.7290  139.2950 C   0  0  0  0  0  0  0  0  0  0  0  0
  181.1070  178.4320  139.8470 C   0  0  0  0  0  3  0  0  0  0  0  0
  180.6860  179.4380  139.0830 C   0  0  0  0  0  3  0  0  0  0  0  0
  182.5960  178.4960  140.0620 C   0  0  2  0  0  3  0  0  0  0  0  0
  181.6290  181.6040  138.1360 C   0  0  0  0  0  1  0  0  0  0  0  0
  181.7640  180.2700  138.6890 N   0  0  0  0  0  0  0  0  0  0  0  0
  184.0680  180.2390  139.1910 O   0  0  0  0  0  0  0  0  0  0  0  0
  188.0330  177.8820  145.4560 C   0  0  0  0  0  2  0  0  0  0  0  0
  190.9950  176.8720  147.2090 C   0  0  0  0  0  0  0  0  0  0  0  0
  188.4690  177.3510  146.7780 C   0  0  0  0  0  3  0  0  0  0  0  0
  191.6690  177.5300  148.2270 O   0  0  0  0  0  1  0  0  0  0  0  0
  189.7300  177.1160  147.0020 C   0  0  0  0  0  0  0  0  0  0  0  0
  191.7050  175.8740  146.3560 C   0  0  0  0  0  2  0  0  0  0  0  0
  192.0250  175.2190  144.0830 O   0  0  0  0  0  1  0  0  0  0  0  0
  191.6820  176.2990  144.8970 C   0  0  0  0  0  2  0  0  0  0  0  0
  188.6550  176.6010  143.4260 C   0  0  0  0  0  2  0  0  0  0  0  0
  188.9250  177.9430  142.7620 C   0  0  0  0  0  2  0  0  0  0  0  0
  189.2280  177.7760  141.2770 C   0  0  0  0  0  2  0  0  0  0  0  0
  190.5550  177.0580  141.0530 C   0  0  0  0  0  2  0  0  0  0  0  0
  190.6090  176.4850  139.7160 N   0  0  0  0  0  2  0  0  0  0  0  0
  189.4420  176.8030  139.1060 O   0  0  0  0  0  0  0  0  0  0  0  0
  189.6910  176.6040  137.7460 C   0  0  2  0  0  3  0  0  0  0  0  0
  191.1920  176.6290  137.5140 C   0  0  0  0  0  1  0  0  0  0  0  0
  189.0050  177.6840  136.9090 C   0  0  2  0  0  3  0  0  0  0  0  0
  189.4000  178.9550  137.3390 O   0  0  0  0  0  1  0  0  0  0  0  0
  187.1910  177.5510  137.0540 P   0  0  2  0  0  0  0  0  0  0  0  0
  186.7130  178.3900  138.2190 O   0  0  0  0  0  1  0  0  0  0  0  0
  186.7860  175.9340  137.3380 O   0  0  0  0  0  0  0  0  0  0  0  0
  187.0340  177.3300  134.5940 C   0  0  0  0  0  1  0  0  0  0  0  0
  186.4350  178.0630  135.6200 O   0  0  0  0  0  0  0  0  0  0  0  0
  1 26  1  6  0  0  0
  1 18  1  0  0  0  0
  2  3  2  0  0  0  0
  3  1  1  0  0  0  0
  4  8  1  0  0  0  0
  5  6  2  0  0  0  0
  6  7  1  0  0  0  0
  8  2  1  0  0  0  0
  8  7  2  0  0  0  0
  9  4  2  0  0  0  0
  9  5  1  0  0  0  0
 10  4  1  0  0  0  0
 11 14  1  0  0  0  0
 12 14  1  0  0  0  0
 13 12  2  0  0  0  0
 14  9  1  1  0  0  0
 15 16  1  0  0  0  0
 16 13  1  0  0  0  0
 16 11  1  0  0  0  0
 17 11  2  0  0  0  0
 18 20  1  0  0  0  0
 19 21  1  0  0  0  0
 20 22  2  0  0  0  0
 22 19  2  0  0  0  0
 23 19  1  0  0  0  0
 24 25  1  0  0  0  0
 25 23  1  0  0  0  0
 27 26  1  0  0  0  0
 28 27  1  0  0  0  0
 29 28  1  0  0  0  0
 30 29  1  0  0  0  0
 31 30  1  0  0  0  0
 32 33  1  1  0  0  0
 32 31  1  0  0  0  0
 34 36  1  0  0  0  0
 34 35  1  1  0  0  0
 34 32  1  0  0  0  0
 36 38  2  1  0  0  0
 36 37  1  0  0  0  0
 39 40  1  0  0  0  0
 40 36  1  0  0  0  0
M  END
>  <MODEL>
3

>  <REMARK>
 VINA RESULT:      -7.6      1.411      2.276
  Name = 
  17 active torsions:
  status: ('A' for Active; 'I' for Inactive)
    1  A    between atoms: C_3  and  C_37
    2  A    between atoms: C_3  and  C_40
    3  A    between atoms: P_5  and  C_6
    4  A    between atoms: P_5  and  O_29
    5  A    between atoms: C_6  and  C_33
    6  A    between atoms: C_8  and  C_19
    7  A    between atoms: C_13  and  C_23
    8  A    between atoms: C_14  and  C_22
    9  A    between atoms: C_18  and  C_25
   10  A    between atoms: C_19  and  C_32
   11  A    between atoms: N_20  and  C_40
   12  A    between atoms: C_22  and  C_40
   13  A    between atoms: C_24  and  C_27
   14  A    between atoms: C_24  and  N_36
   15  A    between atoms: C_27  and  C_37
   16  A    between atoms: C_33  and  O_34
   17  A    between atoms: O_34  and  N_36
                            x       y       z     vdW  Elec       q    Type
                         _______ _______ _______ _____ _____    ______ ____

>  <TORSDO>
F 17

$$$$
=
 OpenBabel11042413063D

 40 41  0  0  1  0  0  0  0  0999 V2000
  187.5160  177.9110  143.2210 C   0  0  2  0  0  3  0  0  0  0  0  0
  188.5550  178.3780  141.1110 C   0  0  0  0  0  3  0  0  0  0  0  0
  188.0670  177.5080  141.9350 N   0  0  0  0  0  0  0  0  0  0  0  0
  190.0670  176.9710  139.6390 C   0  0  0  0  0  0  0  0  0  0  0  0
  190.0630  177.3570  137.2790 N   0  0  0  0  0  0  0  0  0  0  0  0
  189.1300  178.3360  137.4110 C   0  0  0  0  0  3  0  0  0  0  0  0
  188.6370  178.6690  138.6740 C   0  0  0  0  0  3  0  0  0  0  0  0
  189.1050  177.9900  139.8000 C   0  0  0  0  0  0  0  0  0  0  0  0
  190.5430  176.6690  138.3540 C   0  0  0  0  0  0  0  0  0  0  0  0
  190.5520  176.2900  140.7100 F   0  0  0  0  0  0  0  0  0  0  0  0
  192.9140  176.1060  137.8260 C   0  0  0  0  0  0  0  0  0  0  0  0
  191.2640  174.7790  136.9370 C   0  0  0  0  0  3  0  0  0  0  0  0
  192.2700  174.8360  136.0670 C   0  0  0  0  0  3  0  0  0  0  0  0
  191.5660  175.5800  138.1750 C   0  0  2  0  0  3  0  0  0  0  0  0
  194.4260  176.1550  135.7670 C   0  0  0  0  0  1  0  0  0  0  0  0
  193.3360  175.6270  136.5650 N   0  0  0  0  0  0  0  0  0  0  0  0
  193.6010  176.8790  138.5460 O   0  0  0  0  0  0  0  0  0  0  0  0
  188.0160  176.9850  144.3210 C   0  0  0  0  0  2  0  0  0  0  0  0
  190.0940  177.1670  147.2380 C   0  0  0  0  0  0  0  0  0  0  0  0
  189.3880  177.3870  144.7390 C   0  0  0  0  0  3  0  0  0  0  0  0
  191.1630  176.3580  147.5970 O   0  0  0  0  0  1  0  0  0  0  0  0
  189.7500  177.2730  145.9850 C   0  0  0  0  0  0  0  0  0  0  0  0
  189.3430  177.9290  148.2800 C   0  0  0  0  0  2  0  0  0  0  0  0
  187.1000  178.5060  147.7030 O   0  0  0  0  0  1  0  0  0  0  0  0
  187.8810  177.5160  148.3000 C   0  0  0  0  0  2  0  0  0  0  0  0
  185.9970  177.8350  143.1590 C   0  0  0  0  0  2  0  0  0  0  0  0
  185.3600  178.5700  144.3300 C   0  0  0  0  0  2  0  0  0  0  0  0
  184.1670  179.4050  143.8780 C   0  0  0  0  0  2  0  0  0  0  0  0
  182.8500  178.8080  144.3640 C   0  0  0  0  0  2  0  0  0  0  0  0
  181.7950  179.0280  143.3840 N   0  0  0  0  0  2  0  0  0  0  0  0
  182.2600  178.5670  142.1980 O   0  0  0  0  0  0  0  0  0  0  0  0
  181.4400  179.1700  141.2420 C   0  0  2  0  0  3  0  0  0  0  0  0
  180.0110  179.1790  141.7570 C   0  0  0  0  0  1  0  0  0  0  0  0
  181.5220  178.4200  139.9120 C   0  0  2  0  0  3  0  0  0  0  0  0
  181.9400  177.1020  140.1230 O   0  0  0  0  0  1  0  0  0  0  0  0
  182.7000  179.2380  138.7850 P   0  0  2  0  0  0  0  0  0  0  0  0
  182.0050  180.3670  138.0570 O   0  0  0  0  0  1  0  0  0  0  0  0
  183.2450  178.1060  137.6530 O   0  0  0  0  0  0  0  0  0  0  0  0
  184.9420  178.7800  139.7280 C   0  0  0  0  0  1  0  0  0  0  0  0
  184.0360  179.8390  139.6470 O   0  0  0  0  0  0  0  0  0  0  0  0
  1 26  1  6  0  0  0
  1 18  1  0  0  0  0
  2  3  2  0  0  0  0
  3  1  1  0  0  0  0
  4  8  1  0  0  0  0
  4 10  1  0  0  0  0
  5  6  2  0  0  0  0
  5  9  1  0  0  0  0
  6  7  1  0  0  0  0
  7  8  2  0  0  0  0
  8  2  1  0  0  0  0
  9  4  2  0  0  0  0
 11 14  1  0  0  0  0
 11 17  2  0  0  0  0
 12 14  1  0  0  0  0
 13 16  1  0  0  0  0
 13 12  2  0  0  0  0
 14  9  1  6  0  0  0
 15 16  1  0  0  0  0
 16 11  1  0  0  0  0
 18 20  1  0  0  0  0
 19 21  1  0  0  0  0
 19 23  1  0  0  0  0
 20 22  2  0  0  0  0
 22 19  2  0  0  0  0
 23 25  1  0  0  0  0
 24 25  1  0  0  0  0
 26 27  1  0  0  0  0
 28 27  1  0  0  0  0
 28 29  1  0  0  0  0
 30 29  1  0  0  0  0
 31 30  1  0  0  0  0
 32 33  1  1  0  0  0
 32 31  1  0  0  0  0
 34 35  1  1  0  0  0
 34 32  1  0  0  0  0
 36 38  2  6  0  0  0
 36 40  1  0  0  0  0
 36 34  1  0  0  0  0
 37 36  1  0  0  0  0
 40 39  1  0  0  0  0
M  END
>  <MODEL>
4

>  <REMARK>
 VINA RESULT:      -7.5      2.782      7.662
  Name = 
  17 active torsions:
  status: ('A' for Active; 'I' for Inactive)
    1  A    between atoms: C_3  and  C_37
    2  A    between atoms: C_3  and  C_40
    3  A    between atoms: P_5  and  C_6
    4  A    between atoms: P_5  and  O_29
    5  A    between atoms: C_6  and  C_33
    6  A    between atoms: C_8  and  C_19
    7  A    between atoms: C_13  and  C_23
    8  A    between atoms: C_14  and  C_22
    9  A    between atoms: C_18  and  C_25
   10  A    between atoms: C_19  and  C_32
   11  A    between atoms: N_20  and  C_40
   12  A    between atoms: C_22  and  C_40
   13  A    between atoms: C_24  and  C_27
   14  A    between atoms: C_24  and  N_36
   15  A    between atoms: C_27  and  C_37
   16  A    between atoms: C_33  and  O_34
   17  A    between atoms: O_34  and  N_36
                            x       y       z     vdW  Elec       q    Type
                         _______ _______ _______ _____ _____    ______ ____

>  <TORSDO>
F 17

$$$$
=
 OpenBabel11042413063D

 40 41  0  0  1  0  0  0  0  0999 V2000
  184.6160  178.4840  144.2170 C   0  0  2  0  0  3  0  0  0  0  0  0
  185.2650  178.8180  141.9330 C   0  0  0  0  0  3  0  0  0  0  0  0
  185.5110  178.2860  143.0860 N   0  0  0  0  0  0  0  0  0  0  0  0
  185.6750  178.4000  139.4650 C   0  0  0  0  0  0  0  0  0  0  0  0
  187.9290  178.2530  138.6790 N   0  0  0  0  0  0  0  0  0  0  0  0
  188.4110  178.4700  139.9310 C   0  0  0  0  0  3  0  0  0  0  0  0
  187.5300  178.6550  140.9990 C   0  0  0  0  0  3  0  0  0  0  0  0
  186.1540  178.6180  140.7740 C   0  0  0  0  0  0  0  0  0  0  0  0
  186.5910  178.2120  138.4180 C   0  0  0  0  0  0  0  0  0  0  0  0
  184.3420  178.3520  139.2050 F   0  0  0  0  0  0  0  0  0  0  0  0
  185.9410  176.5410  136.6870 C   0  0  0  0  0  0  0  0  0  0  0  0
  187.1360  178.3830  136.0150 C   0  0  0  0  0  3  0  0  0  0  0  0
  187.4930  177.3520  135.2530 C   0  0  0  0  0  3  0  0  0  0  0  0
  186.0870  177.9840  137.0190 C   0  0  2  0  0  3  0  0  0  0  0  0
  187.1330  174.8330  135.2060 C   0  0  0  0  0  1  0  0  0  0  0  0
  186.7750  176.1820  135.6030 N   0  0  0  0  0  0  0  0  0  0  0  0
  185.1820  175.7310  137.2830 O   0  0  0  0  0  0  0  0  0  0  0  0
  183.4800  179.4210  143.8320 C   0  0  0  0  0  2  0  0  0  0  0  0
  180.1210  178.8250  142.7240 C   0  0  0  0  0  0  0  0  0  0  0  0
  182.1830  178.8740  144.3180 C   0  0  0  0  0  3  0  0  0  0  0  0
  179.5130  177.6200  142.4010 O   0  0  0  0  0  1  0  0  0  0  0  0
  181.1510  178.8400  143.5250 C   0  0  0  0  0  0  0  0  0  0  0  0
  179.5950  180.1070  142.1700 C   0  0  0  0  0  2  0  0  0  0  0  0
  181.2090  179.5500  140.5030 O   0  0  0  0  0  1  0  0  0  0  0  0
  180.0620  180.3080  140.7380 C   0  0  0  0  0  2  0  0  0  0  0  0
  185.3970  179.0970  145.3710 C   0  0  0  0  0  2  0  0  0  0  0  0
  185.9190  178.0240  146.3150 C   0  0  0  0  0  2  0  0  0  0  0  0
  187.4400  177.9310  146.2630 C   0  0  0  0  0  2  0  0  0  0  0  0
  188.0220  177.5190  147.6110 C   0  0  0  0  0  2  0  0  0  0  0  0
  189.4610  177.3190  147.5100 N   0  0  0  0  0  2  0  0  0  0  0  0
  189.8100  177.6280  146.2380 O   0  0  0  0  0  0  0  0  0  0  0  0
  190.7880  176.6880  145.9040 C   0  0  2  0  0  3  0  0  0  0  0  0
  191.7520  176.5490  147.0690 C   0  0  0  0  0  1  0  0  0  0  0  0
  191.5370  177.1150  144.6400 C   0  0  2  0  0  3  0  0  0  0  0  0
  191.7150  178.5020  144.6270 O   0  0  0  0  0  1  0  0  0  0  0  0
  190.6070  176.6270  143.1490 P   0  0  2  0  0  0  0  0  0  0  0  0
  190.6340  175.1220  143.0040 O   0  0  0  0  0  1  0  0  0  0  0  0
  191.3470  177.3230  141.7960 O   0  0  0  0  0  0  0  0  0  0  0  0
  188.2140  176.0230  143.3260 C   0  0  0  0  0  1  0  0  0  0  0  0
  189.0000  177.1730  143.2370 O   0  0  0  0  0  0  0  0  0  0  0  0
  1 18  1  6  0  0  0
  1 26  1  0  0  0  0
  2  3  2  0  0  0  0
  3  1  1  0  0  0  0
  4  8  1  0  0  0  0
  5  6  2  0  0  0  0
  6  7  1  0  0  0  0
  8  7  2  0  0  0  0
  8  2  1  0  0  0  0
  9  5  1  0  0  0  0
  9  4  2  0  0  0  0
 10  4  1  0  0  0  0
 11 14  1  0  0  0  0
 11 17  2  0  0  0  0
 12 14  1  0  0  0  0
 13 16  1  0  0  0  0
 13 12  2  0  0  0  0
 14  9  1  1  0  0  0
 15 16  1  0  0  0  0
 16 11  1  0  0  0  0
 18 20  1  0  0  0  0
 19 22  2  0  0  0  0
 21 19  1  0  0  0  0
 22 20  2  0  0  0  0
 23 19  1  0  0  0  0
 24 25  1  0  0  0  0
 25 23  1  0  0  0  0
 26 27  1  0  0  0  0
 28 27  1  0  0  0  0
 28 29  1  0  0  0  0
 30 29  1  0  0  0  0
 31 30  1  0  0  0  0
 32 31  1  0  0  0  0
 32 33  1  1  0  0  0
 34 35  1  1  0  0  0
 34 32  1  0  0  0  0
 36 38  2  6  0  0  0
 36 40  1  0  0  0  0
 36 34  1  0  0  0  0
 37 36  1  0  0  0  0
 40 39  1  0  0  0  0
M  END
>  <MODEL>
5

>  <REMARK>
 VINA RESULT:      -7.3      2.821      7.628
  Name = 
  17 active torsions:
  status: ('A' for Active; 'I' for Inactive)
    1  A    between atoms: C_3  and  C_37
    2  A    between atoms: C_3  and  C_40
    3  A    between atoms: P_5  and  C_6
    4  A    between atoms: P_5  and  O_29
    5  A    between atoms: C_6  and  C_33
    6  A    between atoms: C_8  and  C_19
    7  A    between atoms: C_13  and  C_23
    8  A    between atoms: C_14  and  C_22
    9  A    between atoms: C_18  and  C_25
   10  A    between atoms: C_19  and  C_32
   11  A    between atoms: N_20  and  C_40
   12  A    between atoms: C_22  and  C_40
   13  A    between atoms: C_24  and  C_27
   14  A    between atoms: C_24  and  N_36
   15  A    between atoms: C_27  and  C_37
   16  A    between atoms: C_33  and  O_34
   17  A    between atoms: O_34  and  N_36
                            x       y       z     vdW  Elec       q    Type
                         _______ _______ _______ _____ _____    ______ ____

>  <TORSDO>
F 17

$$$$
=
 OpenBabel11042413063D

 40 41  0  0  1  0  0  0  0  0999 V2000
  189.3010  176.9290  143.4740 C   0  0  2  0  0  3  0  0  0  0  0  0
  187.2740  178.1860  143.7240 C   0  0  0  0  0  3  0  0  0  0  0  0
  187.8650  177.1080  143.3200 N   0  0  0  0  0  0  0  0  0  0  0  0
  185.1640  178.4320  142.3380 C   0  0  0  0  0  0  0  0  0  0  0  0
  183.0770  178.7500  143.4630 N   0  0  0  0  0  0  0  0  0  0  0  0
  183.6880  178.6940  144.6760 C   0  0  0  0  0  3  0  0  0  0  0  0
  185.0700  178.5090  144.7560 C   0  0  0  0  0  3  0  0  0  0  0  0
  185.8200  178.3800  143.5870 C   0  0  0  0  0  0  0  0  0  0  0  0
  183.7740  178.6260  142.2980 C   0  0  0  0  0  0  0  0  0  0  0  0
  185.8580  178.3150  141.1760 F   0  0  0  0  0  0  0  0  0  0  0  0
  181.5870  178.6920  141.1050 C   0  0  0  0  0  0  0  0  0  0  0  0
  183.2560  177.3820  140.2280 C   0  0  0  0  0  3  0  0  0  0  0  0
  182.0880  176.7930  139.9800 C   0  0  0  0  0  3  0  0  0  0  0  0
  183.0680  178.6790  140.9700 C   0  0  2  0  0  3  0  0  0  0  0  0
  179.6540  177.0790  140.6660 C   0  0  0  0  0  1  0  0  0  0  0  0
  181.0090  177.5630  140.4790 N   0  0  0  0  0  0  0  0  0  0  0  0
  180.9190  179.5820  141.6960 O   0  0  0  0  0  0  0  0  0  0  0  0
  189.9940  178.2810  143.5650 C   0  0  0  0  0  2  0  0  0  0  0  0
  191.4130  176.6300  146.4160 C   0  0  0  0  0  0  0  0  0  0  0  0
  191.2840  178.1420  144.2970 C   0  0  0  0  0  3  0  0  0  0  0  0
  192.2770  175.5450  146.4510 O   0  0  0  0  0  1  0  0  0  0  0  0
  191.3570  177.3830  145.3520 C   0  0  0  0  0  0  0  0  0  0  0  0
  190.5560  176.9500  147.5950 C   0  0  0  0  0  2  0  0  0  0  0  0
  188.4480  178.0700  147.6050 O   0  0  0  0  0  1  0  0  0  0  0  0
  189.0830  176.8880  147.2230 C   0  0  0  0  0  2  0  0  0  0  0  0
  189.8420  176.1720  142.2690 C   0  0  0  0  0  2  0  0  0  0  0  0
  190.1650  177.1180  141.1230 C   0  0  0  0  0  2  0  0  0  0  0  0
  189.0460  177.1390  140.0870 C   0  0  0  0  0  2  0  0  0  0  0  0
  189.0370  178.4430  139.2970 C   0  0  0  0  0  2  0  0  0  0  0  0
  187.8080  178.5690  138.5280 N   0  0  0  0  0  2  0  0  0  0  0  0
  187.4660  177.3200  138.1290 O   0  0  0  0  0  0  0  0  0  0  0  0
  187.9140  177.2380  136.8080 C   0  0  2  0  0  3  0  0  0  0  0  0
  186.9340  177.9740  135.9110 C   0  0  0  0  0  1  0  0  0  0  0  0
  188.0420  175.7780  136.3730 C   0  0  2  0  0  3  0  0  0  0  0  0
  187.3420  174.9460  137.2530 O   0  0  0  0  0  1  0  0  0  0  0  0
  189.7930  175.2680  136.3480 P   0  0  2  0  0  0  0  0  0  0  0  0
  190.0690  174.4650  135.0960 O   0  0  0  0  0  0  0  0  0  0  0  0
  190.0950  174.2970  137.7010 O   0  0  0  0  0  1  0  0  0  0  0  0
  191.6540  176.4190  137.5030 C   0  0  0  0  0  1  0  0  0  0  0  0
  190.8150  176.6240  136.4060 O   0  0  0  0  0  0  0  0  0  0  0  0
  1 26  1  6  0  0  0
  1 18  1  0  0  0  0
  3  1  1  0  0  0  0
  3  2  2  0  0  0  0
  4  8  1  0  0  0  0
  5  6  2  0  0  0  0
  6  7  1  0  0  0  0
  8  2  1  0  0  0  0
  8  7  2  0  0  0  0
  9  4  2  0  0  0  0
  9  5  1  0  0  0  0
 10  4  1  0  0  0  0
 11 17  2  0  0  0  0
 12 14  1  0  0  0  0
 13 12  2  0  0  0  0
 13 16  1  0  0  0  0
 14 11  1  0  0  0  0
 14  9  1  1  0  0  0
 16 15  1  0  0  0  0
 16 11  1  0  0  0  0
 18 20  1  0  0  0  0
 19 21  1  0  0  0  0
 19 23  1  0  0  0  0
 20 22  2  0  0  0  0
 22 19  2  0  0  0  0
 25 23  1  0  0  0  0
 25 24  1  0  0  0  0
 27 26  1  0  0  0  0
 28 27  1  0  0  0  0
 29 28  1  0  0  0  0
 30 29  1  0  0  0  0
 31 30  1  0  0  0  0
 32 33  1  6  0  0  0
 32 31  1  0  0  0  0
 34 32  1  0  0  0  0
 34 35  1  1  0  0  0
 36 37  2  6  0  0  0
 36 34  1  0  0  0  0
 36 40  1  0  0  0  0
 36 38  1  0  0  0  0
 40 39  1  0  0  0  0
M  END
>  <MODEL>
6

>  <REMARK>
 VINA RESULT:      -7.2      1.591      2.324
  Name = 
  17 active torsions:
  status: ('A' for Active; 'I' for Inactive)
    1  A    between atoms: C_3  and  C_37
    2  A    between atoms: C_3  and  C_40
    3  A    between atoms: P_5  and  C_6
    4  A    between atoms: P_5  and  O_29
    5  A    between atoms: C_6  and  C_33
    6  A    between atoms: C_8  and  C_19
    7  A    between atoms: C_13  and  C_23
    8  A    between atoms: C_14  and  C_22
    9  A    between atoms: C_18  and  C_25
   10  A    between atoms: C_19  and  C_32
   11  A    between atoms: N_20  and  C_40
   12  A    between atoms: C_22  and  C_40
   13  A    between atoms: C_24  and  C_27
   14  A    between atoms: C_24  and  N_36
   15  A    between atoms: C_27  and  C_37
   16  A    between atoms: C_33  and  O_34
   17  A    between atoms: O_34  and  N_36
                            x       y       z     vdW  Elec       q    Type
                         _______ _______ _______ _____ _____    ______ ____

>  <TORSDO>
F 17

$$$$
=
 OpenBabel11042413063D

 40 41  0  0  1  0  0  0  0  0999 V2000
  184.9230  178.2520  142.9340 C   0  0  2  0  0  3  0  0  0  0  0  0
  186.9220  178.4740  141.6280 C   0  0  0  0  0  3  0  0  0  0  0  0
  186.1810  177.7490  142.4020 N   0  0  0  0  0  0  0  0  0  0  0  0
  188.3860  177.7350  139.6940 C   0  0  0  0  0  0  0  0  0  0  0  0
  190.6290  177.0370  140.1470 N   0  0  0  0  0  0  0  0  0  0  0  0
  190.4650  177.2720  141.4760 C   0  0  0  0  0  3  0  0  0  0  0  0
  189.2430  177.7440  141.9580 C   0  0  0  0  0  3  0  0  0  0  0  0
  188.1920  177.9760  141.0700 C   0  0  0  0  0  0  0  0  0  0  0  0
  189.6280  177.2540  139.2470 C   0  0  0  0  0  0  0  0  0  0  0  0
  187.3870  177.9440  138.7970 F   0  0  0  0  0  0  0  0  0  0  0  0
  189.2720  175.7010  137.3310 C   0  0  0  0  0  0  0  0  0  0  0  0
  191.3040  176.7580  137.5020 C   0  0  0  0  0  3  0  0  0  0  0  0
  191.5020  175.5510  136.9760 C   0  0  0  0  0  3  0  0  0  0  0  0
  189.8430  176.9990  137.7800 C   0  0  2  0  0  3  0  0  0  0  0  0
  190.1620  173.4230  136.5890 C   0  0  0  0  0  1  0  0  0  0  0  0
  190.2810  174.8500  136.8230 N   0  0  0  0  0  0  0  0  0  0  0  0
  188.0540  175.3840  137.3890 O   0  0  0  0  0  0  0  0  0  0  0  0
  184.1940  179.0710  141.8780 C   0  0  0  0  0  2  0  0  0  0  0  0
  180.6850  179.1480  141.1370 C   0  0  0  0  0  0  0  0  0  0  0  0
  183.1290  178.2460  141.2420 C   0  0  0  0  0  3  0  0  0  0  0  0
  180.0590  179.3360  139.9140 O   0  0  0  0  0  1  0  0  0  0  0  0
  181.9070  178.6940  141.1800 C   0  0  0  0  0  0  0  0  0  0  0  0
  179.9630  179.4500  142.4080 C   0  0  0  0  0  2  0  0  0  0  0  0
  179.2900  178.5200  144.5010 O   0  0  0  0  0  1  0  0  0  0  0  0
  179.7840  178.1900  143.2400 C   0  0  0  0  0  2  0  0  0  0  0  0
  185.2090  179.1370  144.1390 C   0  0  0  0  0  2  0  0  0  0  0  0
  184.1540  178.9550  145.2200 C   0  0  0  0  0  2  0  0  0  0  0  0
  184.7350  178.2740  146.4540 C   0  0  0  0  0  2  0  0  0  0  0  0
  186.0360  178.9340  146.8980 C   0  0  0  0  0  2  0  0  0  0  0  0
  186.8660  177.9910  147.6340 N   0  0  0  0  0  2  0  0  0  0  0  0
  187.4660  177.1970  146.7150 O   0  0  0  0  0  0  0  0  0  0  0  0
  188.8310  177.3140  146.9880 C   0  0  2  0  0  3  0  0  0  0  0  0
  189.0050  177.9730  148.3450 C   0  0  0  0  0  1  0  0  0  0  0  0
  189.5290  178.1360  145.9030 C   0  0  2  0  0  3  0  0  0  0  0  0
  188.7150  178.2330  144.7700 O   0  0  0  0  0  1  0  0  0  0  0  0
  191.1090  177.3600  145.4280 P   0  0  2  0  0  0  0  0  0  0  0  0
  191.8680  178.2830  144.4990 O   0  0  0  0  0  0  0  0  0  0  0  0
  190.7810  175.9130  144.6160 O   0  0  0  0  0  1  0  0  0  0  0  0
  192.0680  175.6270  146.9110 C   0  0  0  0  0  1  0  0  0  0  0  0
  192.0490  177.0190  146.8030 O   0  0  0  0  0  0  0  0  0  0  0  0
  1 18  1  6  0  0  0
  1 26  1  0  0  0  0
  2  3  2  0  0  0  0
  3  1  1  0  0  0  0
  4  8  1  0  0  0  0
  5  6  2  0  0  0  0
  6  7  1  0  0  0  0
  8  2  1  0  0  0  0
  8  7  2  0  0  0  0
  9  4  2  0  0  0  0
  9  5  1  0  0  0  0
 10  4  1  0  0  0  0
 11 17  2  0  0  0  0
 11 14  1  0  0  0  0
 12 14  1  0  0  0  0
 13 12  2  0  0  0  0
 14  9  1  1  0  0  0
 15 16  1  0  0  0  0
 16 13  1  0  0  0  0
 16 11  1  0  0  0  0
 19 22  2  0  0  0  0
 19 23  1  0  0  0  0
 20 18  1  0  0  0  0
 21 19  1  0  0  0  0
 22 20  2  0  0  0  0
 23 25  1  0  0  0  0
 25 24  1  0  0  0  0
 26 27  1  0  0  0  0
 27 28  1  0  0  0  0
 28 29  1  0  0  0  0
 29 30  1  0  0  0  0
 31 32  1  0  0  0  0
 31 30  1  0  0  0  0
 32 33  1  1  0  0  0
 34 35  1  6  0  0  0
 34 32  1  0  0  0  0
 36 37  2  6  0  0  0
 36 34  1  0  0  0  0
 36 40  1  0  0  0  0
 38 36  1  0  0  0  0
 40 39  1  0  0  0  0
M  END
>  <MODEL>
7

>  <REMARK>
 VINA RESULT:      -7.2      2.881      8.702
  Name = 
  17 active torsions:
  status: ('A' for Active; 'I' for Inactive)
    1  A    between atoms: C_3  and  C_37
    2  A    between atoms: C_3  and  C_40
    3  A    between atoms: P_5  and  C_6
    4  A    between atoms: P_5  and  O_29
    5  A    between atoms: C_6  and  C_33
    6  A    between atoms: C_8  and  C_19
    7  A    between atoms: C_13  and  C_23
    8  A    between atoms: C_14  and  C_22
    9  A    between atoms: C_18  and  C_25
   10  A    between atoms: C_19  and  C_32
   11  A    between atoms: N_20  and  C_40
   12  A    between atoms: C_22  and  C_40
   13  A    between atoms: C_24  and  C_27
   14  A    between atoms: C_24  and  N_36
   15  A    between atoms: C_27  and  C_37
   16  A    between atoms: C_33  and  O_34
   17  A    between atoms: O_34  and  N_36
                            x       y       z     vdW  Elec       q    Type
                         _______ _______ _______ _____ _____    ______ ____

>  <TORSDO>
F 17

$$$$
=
 OpenBabel11042413063D

 40 41  0  0  1  0  0  0  0  0999 V2000
  187.0460  177.9530  143.1530 C   0  0  2  0  0  3  0  0  0  0  0  0
  188.3250  178.3880  141.1720 C   0  0  0  0  0  3  0  0  0  0  0  0
  187.6590  177.5480  141.8970 N   0  0  0  0  0  0  0  0  0  0  0  0
  189.9540  177.0230  139.7890 C   0  0  0  0  0  0  0  0  0  0  0  0
  190.0210  177.3590  137.4220 N   0  0  0  0  0  0  0  0  0  0  0  0
  189.0390  178.2960  137.4970 C   0  0  0  0  0  3  0  0  0  0  0  0
  188.4850  178.6320  138.7340 C   0  0  0  0  0  3  0  0  0  0  0  0
  188.9410  177.9990  139.8910 C   0  0  0  0  0  0  0  0  0  0  0  0
  190.4920  176.7160  138.5290 C   0  0  0  0  0  0  0  0  0  0  0  0
  190.4290  176.3870  140.8920 F   0  0  0  0  0  0  0  0  0  0  0  0
  192.8720  176.2360  137.9640 C   0  0  0  0  0  0  0  0  0  0  0  0
  191.2730  174.7430  137.2660 C   0  0  0  0  0  3  0  0  0  0  0  0
  192.2440  174.7720  136.3560 C   0  0  0  0  0  3  0  0  0  0  0  0
  191.5700  175.6730  138.4120 C   0  0  2  0  0  3  0  0  0  0  0  0
  194.3090  176.1730  135.8510 C   0  0  0  0  0  1  0  0  0  0  0  0
  193.2780  175.6630  136.7370 N   0  0  0  0  0  0  0  0  0  0  0  0
  193.5360  177.1100  138.5810 O   0  0  0  0  0  0  0  0  0  0  0  0
  187.5320  177.0610  144.2870 C   0  0  0  0  0  2  0  0  0  0  0  0
  190.7560  178.6260  144.1360 C   0  0  0  0  0  0  0  0  0  0  0  0
  188.4960  177.8070  145.1440 C   0  0  0  0  0  3  0  0  0  0  0  0
  191.0660  179.9780  144.1160 O   0  0  0  0  0  1  0  0  0  0  0  0
  189.6240  178.2250  144.6450 C   0  0  0  0  0  0  0  0  0  0  0  0
  191.7180  177.6240  143.5900 C   0  0  0  0  0  2  0  0  0  0  0  0
  191.2790  175.2780  143.5900 O   0  0  0  0  0  1  0  0  0  0  0  0
  191.6770  176.3390  144.4020 C   0  0  0  0  0  2  0  0  0  0  0  0
  185.5340  177.8280  143.0350 C   0  0  0  0  0  2  0  0  0  0  0  0
  184.9310  179.0440  142.3470 C   0  0  0  0  0  2  0  0  0  0  0  0
  184.1760  178.6490  141.0830 C   0  0  0  0  0  2  0  0  0  0  0  0
  184.9630  179.0060  139.8260 C   0  0  0  0  0  2  0  0  0  0  0  0
  184.2040  178.6640  138.6320 N   0  0  0  0  0  2  0  0  0  0  0  0
  183.9260  177.3400  138.7090 O   0  0  0  0  0  0  0  0  0  0  0  0
  183.7460  176.9410  137.3830 C   0  0  2  0  0  3  0  0  0  0  0  0
  182.5580  177.6880  136.8030 C   0  0  0  0  0  1  0  0  0  0  0  0
  183.5190  175.4310  137.3000 C   0  0  2  0  0  3  0  0  0  0  0  0
  183.0290  174.9480  138.5170 O   0  0  0  0  0  1  0  0  0  0  0  0
  185.0780  174.5690  136.9100 P   0  0  2  0  0  0  0  0  0  0  0  0
  185.0660  174.1310  135.4620 O   0  0  0  0  0  0  0  0  0  0  0  0
  185.2030  173.2000  137.8970 O   0  0  0  0  0  1  0  0  0  0  0  0
  187.5380  174.8310  136.8480 C   0  0  0  0  0  1  0  0  0  0  0  0
  186.4140  175.5790  137.2010 O   0  0  0  0  0  0  0  0  0  0  0  0
  1 26  1  6  0  0  0
  1 18  1  0  0  0  0
  2  3  2  0  0  0  0
  3  1  1  0  0  0  0
  4  8  1  0  0  0  0
  4 10  1  0  0  0  0
  5  6  2  0  0  0  0
  5  9  1  0  0  0  0
  6  7  1  0  0  0  0
  7  8  2  0  0  0  0
  8  2  1  0  0  0  0
  9  4  2  0  0  0  0
 11 14  1  0  0  0  0
 11 17  2  0  0  0  0
 12 14  1  0  0  0  0
 13 16  1  0  0  0  0
 13 12  2  0  0  0  0
 14  9  1  6  0  0  0
 15 16  1  0  0  0  0
 16 11  1  0  0  0  0
 18 20  1  0  0  0  0
 19 22  2  0  0  0  0
 21 19  1  0  0  0  0
 22 20  2  0  0  0  0
 23 19  1  0  0  0  0
 23 25  1  0  0  0  0
 24 25  1  0  0  0  0
 27 26  1  0  0  0  0
 28 27  1  0  0  0  0
 29 28  1  0  0  0  0
 30 31  1  0  0  0  0
 30 29  1  0  0  0  0
 32 33  1  1  0  0  0
 32 31  1  0  0  0  0
 34 32  1  0  0  0  0
 34 35  1  1  0  0  0
 36 37  2  6  0  0  0
 36 40  1  0  0  0  0
 36 34  1  0  0  0  0
 36 38  1  0  0  0  0
 39 40  1  0  0  0  0
M  END
>  <MODEL>
8

>  <REMARK>
 VINA RESULT:      -7.0      2.827      6.699
  Name = 
  17 active torsions:
  status: ('A' for Active; 'I' for Inactive)
    1  A    between atoms: C_3  and  C_37
    2  A    between atoms: C_3  and  C_40
    3  A    between atoms: P_5  and  C_6
    4  A    between atoms: P_5  and  O_29
    5  A    between atoms: C_6  and  C_33
    6  A    between atoms: C_8  and  C_19
    7  A    between atoms: C_13  and  C_23
    8  A    between atoms: C_14  and  C_22
    9  A    between atoms: C_18  and  C_25
   10  A    between atoms: C_19  and  C_32
   11  A    between atoms: N_20  and  C_40
   12  A    between atoms: C_22  and  C_40
   13  A    between atoms: C_24  and  C_27
   14  A    between atoms: C_24  and  N_36
   15  A    between atoms: C_27  and  C_37
   16  A    between atoms: C_33  and  O_34
   17  A    between atoms: O_34  and  N_36
                            x       y       z     vdW  Elec       q    Type
                         _______ _______ _______ _____ _____    ______ ____

>  <TORSDO>
F 17

$$$$
=
 OpenBabel11042413063D

 40 41  0  0  1  0  0  0  0  0999 V2000
  186.9810  178.0820  142.9860 C   0  0  2  0  0  3  0  0  0  0  0  0
  188.3170  178.4430  141.0280 C   0  0  0  0  0  3  0  0  0  0  0  0
  187.5860  177.6450  141.7370 N   0  0  0  0  0  0  0  0  0  0  0  0
  189.9480  177.0520  139.6740 C   0  0  0  0  0  0  0  0  0  0  0  0
  189.9930  177.3160  137.2970 N   0  0  0  0  0  0  0  0  0  0  0  0
  189.0040  178.2460  137.3520 C   0  0  0  0  0  3  0  0  0  0  0  0
  188.4560  178.6140  138.5820 C   0  0  0  0  0  3  0  0  0  0  0  0
  188.9270  178.0210  139.7540 C   0  0  0  0  0  0  0  0  0  0  0  0
  190.4790  176.7120  138.4190 C   0  0  0  0  0  0  0  0  0  0  0  0
  190.4380  176.4540  140.7920 F   0  0  0  0  0  0  0  0  0  0  0  0
  192.8720  176.2460  137.9000 C   0  0  0  0  0  0  0  0  0  0  0  0
  191.2960  174.7410  137.1760 C   0  0  0  0  0  3  0  0  0  0  0  0
  192.2840  174.7740  136.2850 C   0  0  0  0  0  3  0  0  0  0  0  0
  191.5660  175.6760  138.3250 C   0  0  2  0  0  3  0  0  0  0  0  0
  194.3490  176.1870  135.8150 C   0  0  0  0  0  1  0  0  0  0  0  0
  193.3050  175.6730  136.6820 N   0  0  0  0  0  0  0  0  0  0  0  0
  193.5190  177.1260  138.5280 O   0  0  0  0  0  0  0  0  0  0  0  0
  187.2850  177.0850  144.0960 C   0  0  0  0  0  2  0  0  0  0  0  0
  190.6120  178.4220  144.2020 C   0  0  0  0  0  0  0  0  0  0  0  0
  188.2650  177.6730  145.0520 C   0  0  0  0  0  3  0  0  0  0  0  0
  191.0140  179.7440  144.3280 O   0  0  0  0  0  1  0  0  0  0  0  0
  189.4360  178.0560  144.6330 C   0  0  0  0  0  0  0  0  0  0  0  0
  191.5230  177.4120  143.5870 C   0  0  0  0  0  2  0  0  0  0  0  0
  192.0810  175.1360  144.0420 O   0  0  0  0  0  1  0  0  0  0  0  0
  191.0080  176.0030  143.8310 C   0  0  0  0  0  2  0  0  0  0  0  0
  185.4730  178.1790  142.8040 C   0  0  0  0  0  2  0  0  0  0  0  0
  184.9490  179.5350  143.2530 C   0  0  0  0  0  2  0  0  0  0  0  0
  183.9610  179.3950  144.4060 C   0  0  0  0  0  2  0  0  0  0  0  0
  182.7210  178.6110  143.9890 C   0  0  0  0  0  2  0  0  0  0  0  0
  181.9050  179.3910  143.0700 N   0  0  0  0  0  2  0  0  0  0  0  0
  181.5510  178.5610  142.0590 O   0  0  0  0  0  0  0  0  0  0  0  0
  181.1890  179.4150  141.0150 C   0  0  2  0  0  3  0  0  0  0  0  0
  179.8650  180.0750  141.3580 C   0  0  0  0  0  1  0  0  0  0  0  0
  181.0740  178.6410  139.7010 C   0  0  2  0  0  3  0  0  0  0  0  0
  181.3850  177.2930  139.9040 O   0  0  0  0  0  1  0  0  0  0  0  0
  182.2110  179.3270  138.4510 P   0  0  2  0  0  0  0  0  0  0  0  0
  182.6580  178.2260  137.5150 O   0  0  0  0  0  0  0  0  0  0  0  0
  183.5670  179.9600  139.2400 O   0  0  0  0  0  1  0  0  0  0  0  0
  181.5940  181.7210  138.3470 C   0  0  0  0  0  1  0  0  0  0  0  0
  181.4580  180.5690  137.5700 O   0  0  0  0  0  0  0  0  0  0  0  0
  1 26  1  6  0  0  0
  1 18  1  0  0  0  0
  2  3  2  0  0  0  0
  3  1  1  0  0  0  0
  4  8  1  0  0  0  0
  4 10  1  0  0  0  0
  5  6  2  0  0  0  0
  5  9  1  0  0  0  0
  6  7  1  0  0  0  0
  7  8  2  0  0  0  0
  8  2  1  0  0  0  0
  9  4  2  0  0  0  0
 11 14  1  0  0  0  0
 11 17  2  0  0  0  0
 12 14  1  0  0  0  0
 13 16  1  0  0  0  0
 13 12  2  0  0  0  0
 14  9  1  6  0  0  0
 15 16  1  0  0  0  0
 16 11  1  0  0  0  0
 18 20  1  0  0  0  0
 19 21  1  0  0  0  0
 19 22  2  0  0  0  0
 22 20  2  0  0  0  0
 23 25  1  0  0  0  0
 23 19  1  0  0  0  0
 25 24  1  0  0  0  0
 26 27  1  0  0  0  0
 27 28  1  0  0  0  0
 29 28  1  0  0  0  0
 30 29  1  0  0  0  0
 31 30  1  0  0  0  0
 32 33  1  1  0  0  0
 32 31  1  0  0  0  0
 34 35  1  1  0  0  0
 34 32  1  0  0  0  0
 36 37  2  6  0  0  0
 36 38  1  0  0  0  0
 36 34  1  0  0  0  0
 40 39  1  0  0  0  0
 40 36  1  0  0  0  0
M  END
>  <MODEL>
9

>  <REMARK>
 VINA RESULT:      -7.0      2.878      7.836
  Name = 
  17 active torsions:
  status: ('A' for Active; 'I' for Inactive)
    1  A    between atoms: C_3  and  C_37
    2  A    between atoms: C_3  and  C_40
    3  A    between atoms: P_5  and  C_6
    4  A    between atoms: P_5  and  O_29
    5  A    between atoms: C_6  and  C_33
    6  A    between atoms: C_8  and  C_19
    7  A    between atoms: C_13  and  C_23
    8  A    between atoms: C_14  and  C_22
    9  A    between atoms: C_18  and  C_25
   10  A    between atoms: C_19  and  C_32
   11  A    between atoms: N_20  and  C_40
   12  A    between atoms: C_22  and  C_40
   13  A    between atoms: C_24  and  C_27
   14  A    between atoms: C_24  and  N_36
   15  A    between atoms: C_27  and  C_37
   16  A    between atoms: C_33  and  O_34
   17  A    between atoms: O_34  and  N_36
                            x       y       z     vdW  Elec       q    Type
                         _______ _______ _______ _____ _____    ______ ____

>  <TORSDO>
F 17

$$$$
