=
 OpenBabel11032421313D

 60 69  0  0  1  0  0  0  0  0999 V2000
  191.7180  175.2600  137.3870 C   0  0  1  0  0  3  0  0  0  0  0  0
  193.0390  174.8850  136.7920 C   0  0  0  0  0  0  0  0  0  0  0  0
  196.2390  173.4640  137.9210 C   0  0  0  0  0  2  0  0  0  0  0  0
  194.6940  175.1860  135.0040 C   0  0  0  0  0  2  0  0  0  0  0  0
  197.1800  174.3320  137.5700 C   0  0  0  0  0  0  0  0  0  0  0  0
  197.4090  176.1040  135.8240 F   0  0  0  0  0  0  0  0  0  0  0  0
  195.6430  174.5180  135.9430 C   0  0  1  0  0  3  0  0  0  0  0  0
  193.4280  175.4690  135.6890 N   0  0  0  0  0  0  0  0  0  0  0  0
  196.8030  175.0050  136.3410 C   0  0  0  0  0  0  0  0  0  0  0  0
  195.1500  173.4760  136.8850 C   0  0  2  0  0  3  0  0  0  0  0  0
  198.3940  174.6250  138.3750 C   0  0  0  0  0  1  0  0  0  0  0  0
  193.8900  173.9340  137.4650 N   0  0  0  0  0  2  0  0  0  0  0  0
  191.6990  176.7510  137.6990 C   0  0  0  0  0  2  0  0  0  0  0  0
  190.5070  177.1020  138.5270 C   0  0  0  0  0  0  0  0  0  0  0  0
  190.0740  176.1750  139.9850 S   0  0  0  0  0  0  0  0  0  0  0  0
  188.7570  178.4120  139.2350 C   0  0  0  0  0  2  0  0  0  0  0  0
  189.8220  178.1590  138.3060 N   0  0  0  0  0  0  0  0  0  0  0  0
  189.0460  177.5960  140.4910 C   0  0  2  0  0  3  0  0  0  0  0  0
  189.7790  178.4210  141.4400 N   0  0  0  0  0  0  0  0  0  0  0  0
  189.4430  176.9670  143.3480 C   0  0  0  0  0  2  0  0  0  0  0  0
  190.8010  178.7290  143.7670 C   0  0  0  0  0  3  0  0  0  0  0  0
  189.9870  178.0300  142.7970 C   0  0  0  0  0  0  0  0  0  0  0  0
  190.7500  178.1020  144.8930 N   0  0  0  0  0  0  0  0  0  0  0  0
  189.8950  176.9210  144.7820 C   0  0  1  0  0  3  0  0  0  0  0  0
  188.7070  177.0180  145.7640 C   0  0  2  0  0  3  0  0  0  0  0  0
  185.6400  179.1670  145.5610 C   0  0  1  0  0  3  0  0  0  0  0  0
  186.3980  178.2690  143.4260 C   0  0  0  0  0  2  0  0  0  0  0  0
  186.5410  178.1270  144.9350 C   0  0  1  0  0  3  0  0  0  0  0  0
  184.2120  178.6580  145.4330 C   0  0  0  0  0  2  0  0  0  0  0  0
  185.6880  179.7850  147.9070 O   0  0  0  0  0  0  0  0  0  0  0  0
  184.9240  178.1500  143.0620 C   0  0  0  0  0  3  0  0  0  0  0  0
  187.5630  178.8630  146.8740 O   0  0  0  0  0  0  0  0  0  0  0  0
  187.9110  178.3350  145.5940 C   0  0  1  0  0  3  0  0  0  0  0  0
  183.9320  178.3660  143.9640 C   0  0  0  0  0  3  0  0  0  0  0  0
  186.2460  179.2840  146.8940 C   0  0  0  0  0  0  0  0  0  0  0  0
  190.5480  176.1580  147.2820 C   0  0  0  0  0  1  0  0  0  0  0  0
  188.2600  176.1400  147.9900 O   0  0  0  0  0  1  0  0  0  0  0  0
  189.1930  176.8360  147.2170 C   0  0  2  0  0  3  0  0  0  0  0  0
  190.6770  174.9460  136.5070 O   0  0  0  0  0  0  0  0  0  0  0  0
  190.4480  173.5810  136.6840 C   0  0  0  0  0  2  0  0  0  0  0  0
  188.9710  173.3570  136.9440 C   0  0  0  0  0  2  0  0  0  0  0  0
  183.5860  176.9550  138.1090 C   0  0  1  0  0  3  0  0  0  0  0  0
  187.6070  176.4220  135.9440 C   0  0  0  0  0  3  0  0  0  0  0  0
  182.8090  177.6810  140.0770 O   0  0  0  0  0  0  0  0  0  0  0  0
  184.6580  178.8690  139.0050 C   0  0  0  0  0  0  0  0  0  0  0  0
  184.4760  179.9360  139.6530 O   0  0  0  0  0  0  0  0  0  0  0  0
  187.2950  173.0850  135.2400 O   0  0  0  0  0  0  0  0  0  0  0  0
  183.6770  174.8650  136.1120 O   0  0  0  0  0  0  0  0  0  0  0  0
  186.0000  173.5370  135.2990 N   0  0  0  0  0  2  0  0  0  0  0  0
  188.1350  174.0380  135.8740 C   0  0  1  0  0  3  0  0  0  0  0  0
  184.7830  175.3590  136.4620 C   0  0  0  0  0  0  0  0  0  0  0  0
  185.7500  177.5830  137.1620 C   0  0  0  0  0  0  0  0  0  0  0  0
  183.9950  177.5910  139.3750 C   0  0  2  0  0  3  0  0  0  0  0  0
  182.1400  176.4970  139.6670 C   0  0  0  0  0  2  0  0  0  0  0  0
  185.9920  174.6920  136.0840 N   0  0  0  0  0  0  0  0  0  0  0  0
  184.8000  176.6010  137.2790 C   0  0  0  0  0  0  0  0  0  0  0  0
  185.5930  178.8080  137.9190 N   0  0  0  0  0  2  0  0  0  0  0  0
  182.7720  175.9190  138.5340 O   0  0  0  0  0  0  0  0  0  0  0  0
  187.2830  175.0860  136.5160 C   0  0  2  0  0  3  0  0  0  0  0  0
  186.9210  177.5190  136.2600 C   0  0  0  0  0  3  0  0  0  0  0  0
  1 13  1  6  0  0  0
  2  1  1  0  0  0  0
  2 12  1  0  0  0  0
  4  8  1  0  0  0  0
  5  3  1  0  0  0  0
  5 11  1  0  0  0  0
  6  9  1  0  0  0  0
  7  4  1  1  0  0  0
  7  9  1  0  0  0  0
  7 10  1  0  0  0  0
  8  2  2  0  0  0  0
  9  5  2  0  0  0  0
 10 12  1  0  0  0  0
 10  3  1  1  0  0  0
 13 14  1  0  0  0  0
 14 15  1  0  0  0  0
 15 18  1  0  0  0  0
 16 18  1  0  0  0  0
 17 14  2  0  0  0  0
 17 16  1  0  0  0  0
 18 19  1  1  0  0  0
 19 22  2  0  0  0  0
 20 24  1  0  0  0  0
 21 23  2  0  0  0  0
 22 20  1  0  0  0  0
 22 21  1  0  0  0  0
 24 23  1  0  0  0  0
 24 25  1  1  0  0  0
 25 38  1  1  0  0  0
 26 29  1  1  0  0  0
 26 35  1  0  0  0  0
 28 27  1  6  0  0  0
 28 26  1  0  0  0  0
 28 33  1  0  0  0  0
 31 27  1  0  0  0  0
 31 34  2  0  0  0  0
 32 35  1  0  0  0  0
 33 25  1  1  0  0  0
 33 32  1  0  0  0  0
 34 29  1  0  0  0  0
 35 30  2  0  0  0  0
 38 36  1  6  0  0  0
 38 37  1  0  0  0  0
 39 40  1  0  0  0  0
 39  1  1  0  0  0  0
 40 41  1  0  0  0  0
 42 56  1  1  0  0  0
 42 58  1  0  0  0  0
 42 53  1  0  0  0  0
 43 60  2  0  0  0  0
 45 46  2  0  0  0  0
 47 49  1  0  0  0  0
 47 50  1  0  0  0  0
 48 51  2  0  0  0  0
 49 55  1  0  0  0  0
 50 59  1  0  0  0  0
 50 41  1  1  0  0  0
 51 56  1  0  0  0  0
 52 56  2  0  0  0  0
 52 57  1  0  0  0  0
 53 45  1  6  0  0  0
 53 44  1  0  0  0  0
 54 44  1  0  0  0  0
 55 51  1  0  0  0  0
 55 59  1  0  0  0  0
 57 45  1  0  0  0  0
 58 54  1  0  0  0  0
 59 43  1  6  0  0  0
 60 52  1  0  0  0  0
M  END
>  <MODEL>
1

>  <REMARK>
 VINA RESULT:      -8.9      0.000      0.000
  Name = 
  12 active torsions:
  status: ('A' for Active; 'I' for Inactive)
    1  A    between atoms: N_3  and  C_34
    2  A    between atoms: N_3  and  C_44
    3  A    between atoms: C_8  and  C_13
    4  A    between atoms: C_9  and  C_19
    5  A    between atoms: C_13  and  C_19
    6  A    between atoms: C_13  and  O_57
    7  A    between atoms: C_23  and  C_27
    8  A    between atoms: C_23  and  C_60
    9  A    between atoms: C_29  and  C_51
   10  A    between atoms: C_29  and  C_55
   11  A    between atoms: C_29  and  C_56
   12  A    between atoms: O_57  and  C_60
                            x       y       z     vdW  Elec       q    Type
                         _______ _______ _______ _____ _____    ______ ____

>  <TORSDO>
F 12

$$$$
=
 OpenBabel11032421313D

 60 69  0  0  1  0  0  0  0  0999 V2000
  191.2760  176.7530  138.9700 C   0  0  1  0  0  3  0  0  0  0  0  0
  192.2730  176.1600  138.0240 C   0  0  0  0  0  0  0  0  0  0  0  0
  193.5690  172.8280  137.1560 C   0  0  0  0  0  2  0  0  0  0  0  0
  194.2870  176.4460  136.6490 C   0  0  0  0  0  2  0  0  0  0  0  0
  194.8850  172.8840  137.3160 C   0  0  0  0  0  0  0  0  0  0  0  0
  196.6100  174.6910  137.2850 F   0  0  0  0  0  0  0  0  0  0  0  0
  194.3380  174.9540  136.6390 C   0  0  1  0  0  3  0  0  0  0  0  0
  193.2520  176.9050  137.5830 N   0  0  0  0  0  0  0  0  0  0  0  0
  195.3680  174.2170  137.0100 C   0  0  0  0  0  0  0  0  0  0  0  0
  193.0770  174.1640  136.6740 C   0  0  2  0  0  3  0  0  0  0  0  0
  195.7180  171.7620  137.8230 C   0  0  0  0  0  1  0  0  0  0  0  0
  192.1790  174.7680  137.6540 N   0  0  0  0  0  2  0  0  0  0  0  0
  189.9360  176.0470  138.8130 C   0  0  0  0  0  2  0  0  0  0  0  0
  188.9720  176.9050  138.0600 C   0  0  0  0  0  0  0  0  0  0  0  0
  187.2750  176.4200  137.8220 S   0  0  0  0  0  0  0  0  0  0  0  0
  188.2290  178.8210  137.0320 C   0  0  0  0  0  2  0  0  0  0  0  0
  189.2840  178.0820  137.6670 N   0  0  0  0  0  0  0  0  0  0  0  0
  186.9110  178.1650  137.4290 C   0  0  2  0  0  3  0  0  0  0  0  0
  186.3770  178.8340  138.6050 N   0  0  0  0  0  2  0  0  0  0  0  0
  183.9780  178.5540  138.4150 C   0  0  0  0  0  3  0  0  0  0  0  0
  184.7750  178.2200  140.5070 C   0  0  0  0  0  3  0  0  0  0  0  0
  185.0810  178.5470  139.1320 C   0  0  0  0  0  0  0  0  0  0  0  0
  183.5050  178.0360  140.6260 N   0  0  0  0  0  0  0  0  0  0  0  0
  182.8380  178.2210  139.3380 C   0  0  1  0  0  3  0  0  0  0  0  0
  181.8100  179.3690  139.4210 C   0  0  2  0  0  3  0  0  0  0  0  0
  179.2520  176.9100  140.6370 C   0  0  1  0  0  3  0  0  0  0  0  0
  179.6950  176.8190  138.2420 C   0  0  0  0  0  2  0  0  0  0  0  0
  180.2250  177.3500  139.5670 C   0  0  1  0  0  3  0  0  0  0  0  0
  179.4980  175.4300  140.8860 C   0  0  0  0  0  2  0  0  0  0  0  0
  179.2470  177.7540  142.9120 O   0  0  0  0  0  0  0  0  0  0  0  0
  179.5020  175.3130  138.3620 C   0  0  0  0  0  3  0  0  0  0  0  0
  180.1500  179.0130  141.1710 O   0  0  0  0  0  0  0  0  0  0  0  0
  180.3900  178.8620  139.7710 C   0  0  1  0  0  3  0  0  0  0  0  0
  179.3740  174.6890  139.5600 C   0  0  0  0  0  3  0  0  0  0  0  0
  179.5580  177.8800  141.6980 C   0  0  0  0  0  0  0  0  0  0  0  0
  181.9090  181.6770  138.3750 C   0  0  0  0  0  1  0  0  0  0  0  0
  180.6910  179.9030  137.3260 O   0  0  0  0  0  1  0  0  0  0  0  0
  181.8100  180.1880  138.1130 C   0  0  2  0  0  3  0  0  0  0  0  0
  191.7230  176.6350  140.2910 O   0  0  0  0  0  0  0  0  0  0  0  0
  192.1000  177.9250  140.6650 C   0  0  0  0  0  2  0  0  0  0  0  0
  191.7990  178.1200  142.1380 C   0  0  0  0  0  2  0  0  0  0  0  0
  186.9170  178.0230  146.5490 C   0  0  1  0  0  3  0  0  0  0  0  0
  188.7850  176.4200  142.6650 C   0  0  0  0  0  3  0  0  0  0  0  0
  185.6380  179.7270  147.2320 O   0  0  0  0  0  0  0  0  0  0  0  0
  185.1500  178.6420  145.0960 C   0  0  0  0  0  0  0  0  0  0  0  0
  183.9590  179.0530  145.0490 O   0  0  0  0  0  0  0  0  0  0  0  0
  192.0370  176.3390  143.7360 O   0  0  0  0  0  0  0  0  0  0  0  0
  189.3450  176.4810  146.8580 O   0  0  0  0  0  0  0  0  0  0  0  0
  191.3020  176.1780  144.8850 N   0  0  0  0  0  2  0  0  0  0  0  0
  191.1870  176.8610  142.7260 C   0  0  1  0  0  3  0  0  0  0  0  0
  189.0510  176.8420  145.6860 C   0  0  0  0  0  0  0  0  0  0  0  0
  187.0060  177.2000  144.2500 C   0  0  0  0  0  0  0  0  0  0  0  0
  186.1390  179.1800  146.0660 C   0  0  2  0  0  3  0  0  0  0  0  0
  186.7000  179.4850  148.1440 C   0  0  0  0  0  2  0  0  0  0  0  0
  190.0370  176.7230  144.6560 N   0  0  0  0  0  0  0  0  0  0  0  0
  187.7020  177.4040  145.4140 C   0  0  0  0  0  0  0  0  0  0  0  0
  185.6470  177.6890  144.1460 N   0  0  0  0  0  2  0  0  0  0  0  0
  187.6300  178.5530  147.6100 O   0  0  0  0  0  0  0  0  0  0  0  0
  189.8630  177.2010  143.3330 C   0  0  2  0  0  3  0  0  0  0  0  0
  187.5200  176.4500  143.0810 C   0  0  0  0  0  3  0  0  0  0  0  0
  1 13  1  1  0  0  0
  1 39  1  0  0  0  0
  2  1  1  0  0  0  0
  3  5  1  0  0  0  0
  4  8  1  0  0  0  0
  5 11  1  0  0  0  0
  7  4  1  1  0  0  0
  7 10  1  0  0  0  0
  7  9  1  0  0  0  0
  8  2  2  0  0  0  0
  9  6  1  0  0  0  0
  9  5  2  0  0  0  0
 10  3  1  1  0  0  0
 10 12  1  0  0  0  0
 12  2  1  0  0  0  0
 14 13  1  0  0  0  0
 15 14  1  0  0  0  0
 16 18  1  0  0  0  0
 16 17  1  0  0  0  0
 17 14  2  0  0  0  0
 18 15  1  0  0  0  0
 18 19  1  1  0  0  0
 19 22  1  0  0  0  0
 20 22  2  0  0  0  0
 20 24  1  0  0  0  0
 21 23  2  0  0  0  0
 22 21  1  0  0  0  0
 24 25  1  1  0  0  0
 24 23  1  0  0  0  0
 25 38  1  6  0  0  0
 26 29  1  1  0  0  0
 26 35  1  0  0  0  0
 27 31  1  0  0  0  0
 28 27  1  6  0  0  0
 28 33  1  0  0  0  0
 28 26  1  0  0  0  0
 31 34  2  0  0  0  0
 32 35  1  0  0  0  0
 33 25  1  1  0  0  0
 33 32  1  0  0  0  0
 34 29  1  0  0  0  0
 35 30  2  0  0  0  0
 37 38  1  0  0  0  0
 38 36  1  1  0  0  0
 39 40  1  0  0  0  0
 40 41  1  0  0  0  0
 42 56  1  6  0  0  0
 42 58  1  0  0  0  0
 43 60  2  0  0  0  0
 44 54  1  0  0  0  0
 46 45  2  0  0  0  0
 47 49  1  0  0  0  0
 50 41  1  1  0  0  0
 50 59  1  0  0  0  0
 50 47  1  0  0  0  0
 51 48  2  0  0  0  0
 52 56  2  0  0  0  0
 53 45  1  6  0  0  0
 53 42  1  0  0  0  0
 53 44  1  0  0  0  0
 55 49  1  0  0  0  0
 55 51  1  0  0  0  0
 56 51  1  0  0  0  0
 57 52  1  0  0  0  0
 57 45  1  0  0  0  0
 58 54  1  0  0  0  0
 59 43  1  6  0  0  0
 59 55  1  0  0  0  0
 60 52  1  0  0  0  0
M  END
>  <MODEL>
2

>  <REMARK>
 VINA RESULT:      -8.4      2.634      7.412
  Name = 
  12 active torsions:
  status: ('A' for Active; 'I' for Inactive)
    1  A    between atoms: N_3  and  C_34
    2  A    between atoms: N_3  and  C_44
    3  A    between atoms: C_8  and  C_13
    4  A    between atoms: C_9  and  C_19
    5  A    between atoms: C_13  and  C_19
    6  A    between atoms: C_13  and  O_57
    7  A    between atoms: C_23  and  C_27
    8  A    between atoms: C_23  and  C_60
    9  A    between atoms: C_29  and  C_51
   10  A    between atoms: C_29  and  C_55
   11  A    between atoms: C_29  and  C_56
   12  A    between atoms: O_57  and  C_60
                            x       y       z     vdW  Elec       q    Type
                         _______ _______ _______ _____ _____    ______ ____

>  <TORSDO>
F 12

$$$$
=
 OpenBabel11032421313D

 60 69  0  0  1  0  0  0  0  0999 V2000
  181.5800  178.4350  140.3830 C   0  0  1  0  0  3  0  0  0  0  0  0
  180.6450  179.4220  139.7570 C   0  0  0  0  0  0  0  0  0  0  0  0
  180.1600  181.0280  136.4840 C   0  0  0  0  0  2  0  0  0  0  0  0
  179.0690  181.2840  140.0340 C   0  0  0  0  0  2  0  0  0  0  0  0
  180.1920  182.3370  136.6990 C   0  0  0  0  0  0  0  0  0  0  0  0
  179.7440  183.8350  138.6480 F   0  0  0  0  0  0  0  0  0  0  0  0
  179.2720  181.5070  138.5720 C   0  0  1  0  0  3  0  0  0  0  0  0
  180.0150  180.2730  140.5220 N   0  0  0  0  0  0  0  0  0  0  0  0
  179.6530  182.6400  138.0110 C   0  0  0  0  0  0  0  0  0  0  0  0
  179.5340  180.3510  137.6710 C   0  0  2  0  0  3  0  0  0  0  0  0
  180.7810  183.3290  135.7610 C   0  0  0  0  0  1  0  0  0  0  0  0
  180.4930  179.4630  138.3230 N   0  0  0  0  0  2  0  0  0  0  0  0
  181.5920  178.6260  141.8940 C   0  0  0  0  0  2  0  0  0  0  0  0
  182.9460  179.0470  142.3630 C   0  0  0  0  0  0  0  0  0  0  0  0
  183.2660  179.4360  144.0720 S   0  0  0  0  0  0  0  0  0  0  0  0
  185.2150  179.3710  142.2020 C   0  0  0  0  0  2  0  0  0  0  0  0
  183.9640  179.0210  141.5900 N   0  0  0  0  0  0  0  0  0  0  0  0
  185.0420  179.2200  143.7090 C   0  0  2  0  0  3  0  0  0  0  0  0
  185.4680  177.8880  144.1100 N   0  0  0  0  0  2  0  0  0  0  0  0
  187.8390  178.2830  144.4030 C   0  0  0  0  0  3  0  0  0  0  0  0
  187.3350  176.1680  143.7730 C   0  0  0  0  0  3  0  0  0  0  0  0
  186.8370  177.4840  144.1060 C   0  0  0  0  0  0  0  0  0  0  0  0
  188.6220  176.1670  143.8610 N   0  0  0  0  0  0  0  0  0  0  0  0
  189.1080  177.4860  144.2650 C   0  0  1  0  0  3  0  0  0  0  0  0
  190.0420  178.0720  143.1850 C   0  0  2  0  0  3  0  0  0  0  0  0
  190.2460  177.3250  139.5150 C   0  0  1  0  0  3  0  0  0  0  0  0
  187.9800  177.4650  140.4020 C   0  0  0  0  0  2  0  0  0  0  0  0
  189.4360  177.7950  140.7020 C   0  0  1  0  0  3  0  0  0  0  0  0
  190.0240  178.3300  138.3950 C   0  0  0  0  0  2  0  0  0  0  0  0
  192.6660  177.1510  139.4930 O   0  0  0  0  0  0  0  0  0  0  0  0
  187.6010  178.0970  139.0700 C   0  0  0  0  0  3  0  0  0  0  0  0
  191.4780  177.0580  141.4960 O   0  0  0  0  0  0  0  0  0  0  0  0
  190.1220  177.1750  141.9270 C   0  0  1  0  0  3  0  0  0  0  0  0
  188.5270  178.4530  138.1430 C   0  0  0  0  0  3  0  0  0  0  0  0
  191.5770  177.2070  140.1250 C   0  0  0  0  0  0  0  0  0  0  0  0
  191.6830  177.5640  145.0510 C   0  0  0  0  0  1  0  0  0  0  0  0
  191.6550  179.7090  143.9870 O   0  0  0  0  0  1  0  0  0  0  0  0
  191.4420  178.3450  143.7740 C   0  0  2  0  0  3  0  0  0  0  0  0
  181.1930  177.1270  140.0730 O   0  0  0  0  0  0  0  0  0  0  0  0
  182.3520  176.5030  139.6120 C   0  0  0  0  0  2  0  0  0  0  0  0
  181.9670  175.3680  138.6840 C   0  0  0  0  0  2  0  0  0  0  0  0
  187.8930  174.3090  136.0250 C   0  0  1  0  0  3  0  0  0  0  0  0
  183.3110  174.0490  135.7320 C   0  0  0  0  0  3  0  0  0  0  0  0
  189.6010  173.1420  136.8770 O   0  0  0  0  0  0  0  0  0  0  0  0
  187.7440  171.9520  135.8210 C   0  0  0  0  0  0  0  0  0  0  0  0
  188.4060  170.8980  135.6220 O   0  0  0  0  0  0  0  0  0  0  0  0
  182.6030  177.0940  137.1330 O   0  0  0  0  0  0  0  0  0  0  0  0
  186.4970  176.8320  135.7980 O   0  0  0  0  0  0  0  0  0  0  0  0
  183.8460  177.2630  136.5750 N   0  0  0  0  0  2  0  0  0  0  0  0
  182.3470  175.7020  137.2520 C   0  0  1  0  0  3  0  0  0  0  0  0
  185.7910  175.8170  136.0470 C   0  0  0  0  0  0  0  0  0  0  0  0
  185.7070  173.3590  135.4810 C   0  0  0  0  0  0  0  0  0  0  0  0
  188.2340  173.0440  136.7030 C   0  0  2  0  0  3  0  0  0  0  0  0
  189.7620  174.5340  137.1110 C   0  0  0  0  0  2  0  0  0  0  0  0
  184.4360  176.0020  136.4700 N   0  0  0  0  0  0  0  0  0  0  0  0
  186.3920  174.4640  135.9200 C   0  0  0  0  0  0  0  0  0  0  0  0
  186.4280  172.1200  135.2750 N   0  0  0  0  0  2  0  0  0  0  0  0
  188.5870  175.2510  136.7640 O   0  0  0  0  0  0  0  0  0  0  0  0
  183.5860  174.9480  136.8880 C   0  0  2  0  0  3  0  0  0  0  0  0
  184.2680  173.3410  135.1360 C   0  0  0  0  0  3  0  0  0  0  0  0
  1 13  1  1  0  0  0
  2  1  1  0  0  0  0
  2  8  2  0  0  0  0
  3  5  1  0  0  0  0
  4  8  1  0  0  0  0
  5  9  2  0  0  0  0
  7  4  1  1  0  0  0
  9  7  1  0  0  0  0
  9  6  1  0  0  0  0
 10  3  1  6  0  0  0
 10 12  1  0  0  0  0
 10  7  1  0  0  0  0
 11  5  1  0  0  0  0
 12  2  1  0  0  0  0
 13 14  1  0  0  0  0
 14 15  1  0  0  0  0
 16 18  1  0  0  0  0
 17 16  1  0  0  0  0
 17 14  2  0  0  0  0
 18 15  1  0  0  0  0
 18 19  1  6  0  0  0
 21 23  2  0  0  0  0
 21 22  1  0  0  0  0
 22 19  1  0  0  0  0
 22 20  2  0  0  0  0
 23 24  1  0  0  0  0
 24 25  1  6  0  0  0
 24 20  1  0  0  0  0
 25 38  1  1  0  0  0
 26 29  1  6  0  0  0
 26 35  1  0  0  0  0
 26 28  1  0  0  0  0
 28 27  1  6  0  0  0
 28 33  1  0  0  0  0
 30 35  2  0  0  0  0
 31 27  1  0  0  0  0
 32 33  1  0  0  0  0
 33 25  1  1  0  0  0
 34 29  1  0  0  0  0
 34 31  2  0  0  0  0
 35 32  1  0  0  0  0
 38 37  1  0  0  0  0
 38 36  1  1  0  0  0
 39  1  1  0  0  0  0
 40 39  1  0  0  0  0
 41 40  1  0  0  0  0
 42 56  1  1  0  0  0
 42 53  1  0  0  0  0
 42 58  1  0  0  0  0
 44 54  1  0  0  0  0
 46 45  2  0  0  0  0
 47 50  1  0  0  0  0
 48 51  2  0  0  0  0
 49 47  1  0  0  0  0
 50 41  1  1  0  0  0
 51 55  1  0  0  0  0
 52 56  2  0  0  0  0
 53 45  1  6  0  0  0
 53 44  1  0  0  0  0
 55 49  1  0  0  0  0
 55 59  1  0  0  0  0
 56 51  1  0  0  0  0
 57 52  1  0  0  0  0
 57 45  1  0  0  0  0
 58 54  1  0  0  0  0
 59 43  1  6  0  0  0
 59 50  1  0  0  0  0
 60 52  1  0  0  0  0
 60 43  2  0  0  0  0
M  END
>  <MODEL>
3

>  <REMARK>
 VINA RESULT:      -8.4      4.477      9.544
  Name = 
  12 active torsions:
  status: ('A' for Active; 'I' for Inactive)
    1  A    between atoms: N_3  and  C_34
    2  A    between atoms: N_3  and  C_44
    3  A    between atoms: C_8  and  C_13
    4  A    between atoms: C_9  and  C_19
    5  A    between atoms: C_13  and  C_19
    6  A    between atoms: C_13  and  O_57
    7  A    between atoms: C_23  and  C_27
    8  A    between atoms: C_23  and  C_60
    9  A    between atoms: C_29  and  C_51
   10  A    between atoms: C_29  and  C_55
   11  A    between atoms: C_29  and  C_56
   12  A    between atoms: O_57  and  C_60
                            x       y       z     vdW  Elec       q    Type
                         _______ _______ _______ _____ _____    ______ ____

>  <TORSDO>
F 12

$$$$
=
 OpenBabel11032421313D

 60 69  0  0  1  0  0  0  0  0999 V2000
  191.2600  176.9520  138.6420 C   0  0  1  0  0  3  0  0  0  0  0  0
  192.1460  176.2960  137.6310 C   0  0  0  0  0  0  0  0  0  0  0  0
  192.4600  173.0170  135.9920 C   0  0  0  0  0  2  0  0  0  0  0  0
  194.3200  176.2030  136.4930 C   0  0  0  0  0  2  0  0  0  0  0  0
  193.6940  172.5930  136.2340 C   0  0  0  0  0  0  0  0  0  0  0  0
  195.8780  173.6780  136.7740 F   0  0  0  0  0  0  0  0  0  0  0  0
  193.9100  174.8240  136.0950 C   0  0  1  0  0  3  0  0  0  0  0  0
  193.3580  176.7520  137.4550 N   0  0  0  0  0  0  0  0  0  0  0  0
  194.6020  173.7220  136.3160 C   0  0  0  0  0  0  0  0  0  0  0  0
  192.4750  174.5140  135.8510 C   0  0  2  0  0  3  0  0  0  0  0  0
  194.0620  171.1730  136.4740 C   0  0  0  0  0  1  0  0  0  0  0  0
  191.6800  175.1390  136.9040 N   0  0  0  0  0  2  0  0  0  0  0  0
  189.9560  176.1750  138.7630 C   0  0  0  0  0  2  0  0  0  0  0  0
  188.8130  176.9750  138.2270 C   0  0  0  0  0  0  0  0  0  0  0  0
  188.6660  177.3530  136.4930 S   0  0  0  0  0  0  0  0  0  0  0  0
  186.7590  178.0030  138.2920 C   0  0  0  0  0  2  0  0  0  0  0  0
  187.8230  177.3100  138.9640 N   0  0  0  0  0  0  0  0  0  0  0  0
  186.9060  177.7250  136.8000 C   0  0  2  0  0  3  0  0  0  0  0  0
  186.0900  176.5740  136.4440 N   0  0  0  0  0  2  0  0  0  0  0  0
  183.8550  177.4790  136.2170 C   0  0  0  0  0  3  0  0  0  0  0  0
  183.9370  175.5110  137.3320 C   0  0  0  0  0  3  0  0  0  0  0  0
  184.6760  176.5430  136.6420 C   0  0  0  0  0  0  0  0  0  0  0  0
  182.6840  175.8150  137.3330 N   0  0  0  0  0  0  0  0  0  0  0  0
  182.4650  177.0830  136.6380 C   0  0  1  0  0  3  0  0  0  0  0  0
  181.8360  178.1210  137.5930 C   0  0  2  0  0  3  0  0  0  0  0  0
  181.3110  178.1150  141.3060 C   0  0  1  0  0  3  0  0  0  0  0  0
  183.5630  177.5150  140.5950 C   0  0  0  0  0  2  0  0  0  0  0  0
  182.2580  178.1450  140.1290 C   0  0  1  0  0  3  0  0  0  0  0  0
  181.7500  179.2140  142.2620 C   0  0  0  0  0  2  0  0  0  0  0  0
  178.9320  178.5690  141.1600 O   0  0  0  0  0  0  0  0  0  0  0  0
  184.0480  178.2560  141.8330 C   0  0  0  0  0  3  0  0  0  0  0  0
  180.1230  177.8220  139.3020 O   0  0  0  0  0  0  0  0  0  0  0  0
  181.4770  177.5120  138.9690 C   0  0  1  0  0  3  0  0  0  0  0  0
  183.2170  178.9950  142.6110 C   0  0  0  0  0  3  0  0  0  0  0  0
  180.0180  178.2320  140.6180 C   0  0  0  0  0  0  0  0  0  0  0  0
  180.2010  178.0810  135.6540 C   0  0  0  0  0  1  0  0  0  0  0  0
  180.8260  180.1450  136.6930 O   0  0  0  0  0  1  0  0  0  0  0  0
  180.6100  178.7860  136.9320 C   0  0  2  0  0  3  0  0  0  0  0  0
  191.8950  177.0100  139.8870 O   0  0  0  0  0  0  0  0  0  0  0  0
  191.1220  177.8850  140.6510 C   0  0  0  0  0  2  0  0  0  0  0  0
  191.6160  177.8600  142.0840 C   0  0  0  0  0  2  0  0  0  0  0  0
  187.2540  178.0500  147.0070 C   0  0  1  0  0  3  0  0  0  0  0  0
  188.6820  176.2090  143.0430 C   0  0  0  0  0  3  0  0  0  0  0  0
  186.0560  179.7980  147.7240 O   0  0  0  0  0  0  0  0  0  0  0  0
  185.3350  178.5900  145.7240 C   0  0  0  0  0  0  0  0  0  0  0  0
  184.1450  179.0030  145.7850 O   0  0  0  0  0  0  0  0  0  0  0  0
  192.0330  176.1750  143.7500 O   0  0  0  0  0  0  0  0  0  0  0  0
  189.7030  176.5180  147.1360 O   0  0  0  0  0  0  0  0  0  0  0  0
  191.4300  176.0870  144.9800 N   0  0  0  0  0  2  0  0  0  0  0  0
  191.0750  176.6410  142.8100 C   0  0  1  0  0  3  0  0  0  0  0  0
  189.2810  176.8090  145.9850 C   0  0  0  0  0  0  0  0  0  0  0  0
  187.0890  177.0910  144.7650 C   0  0  0  0  0  0  0  0  0  0  0  0
  186.4250  179.1800  146.5450 C   0  0  2  0  0  3  0  0  0  0  0  0
  187.2130  179.6050  148.5260 C   0  0  0  0  0  2  0  0  0  0  0  0
  190.1470  176.6240  144.8610 N   0  0  0  0  0  0  0  0  0  0  0  0
  187.9090  177.3610  145.8310 C   0  0  0  0  0  0  0  0  0  0  0  0
  185.7250  177.5790  144.7840 N   0  0  0  0  0  2  0  0  0  0  0  0
  188.0790  178.6390  147.9490 O   0  0  0  0  0  0  0  0  0  0  0  0
  189.8260  177.0230  143.5390 C   0  0  2  0  0  3  0  0  0  0  0  0
  187.4710  176.2700  143.5940 C   0  0  0  0  0  3  0  0  0  0  0  0
  1 13  1  1  0  0  0
  1 39  1  0  0  0  0
  2  1  1  0  0  0  0
  3  5  1  0  0  0  0
  4  8  1  0  0  0  0
  5  9  2  0  0  0  0
  5 11  1  0  0  0  0
  7  9  1  0  0  0  0
  7  4  1  1  0  0  0
  8  2  2  0  0  0  0
  9  6  1  0  0  0  0
 10  3  1  1  0  0  0
 10  7  1  0  0  0  0
 10 12  1  0  0  0  0
 12  2  1  0  0  0  0
 14 13  1  0  0  0  0
 14 17  2  0  0  0  0
 15 18  1  0  0  0  0
 15 14  1  0  0  0  0
 16 17  1  0  0  0  0
 18 19  1  1  0  0  0
 18 16  1  0  0  0  0
 19 22  1  0  0  0  0
 20 24  1  0  0  0  0
 20 22  2  0  0  0  0
 21 23  2  0  0  0  0
 22 21  1  0  0  0  0
 24 23  1  0  0  0  0
 24 25  1  1  0  0  0
 25 38  1  6  0  0  0
 26 29  1  1  0  0  0
 27 31  1  0  0  0  0
 28 27  1  1  0  0  0
 28 26  1  0  0  0  0
 29 34  1  0  0  0  0
 31 34  2  0  0  0  0
 32 35  1  0  0  0  0
 33 25  1  6  0  0  0
 33 32  1  0  0  0  0
 33 28  1  0  0  0  0
 35 30  2  0  0  0  0
 35 26  1  0  0  0  0
 37 38  1  0  0  0  0
 38 36  1  6  0  0  0
 39 40  1  0  0  0  0
 40 41  1  0  0  0  0
 42 56  1  6  0  0  0
 42 58  1  0  0  0  0
 43 60  2  0  0  0  0
 44 54  1  0  0  0  0
 45 46  2  0  0  0  0
 47 49  1  0  0  0  0
 50 41  1  1  0  0  0
 50 59  1  0  0  0  0
 50 47  1  0  0  0  0
 51 48  2  0  0  0  0
 52 57  1  0  0  0  0
 52 56  2  0  0  0  0
 53 45  1  1  0  0  0
 53 42  1  0  0  0  0
 53 44  1  0  0  0  0
 55 49  1  0  0  0  0
 55 51  1  0  0  0  0
 56 51  1  0  0  0  0
 57 45  1  0  0  0  0
 58 54  1  0  0  0  0
 59 43  1  6  0  0  0
 59 55  1  0  0  0  0
 60 52  1  0  0  0  0
M  END
>  <MODEL>
4

>  <REMARK>
 VINA RESULT:      -8.2      2.477      7.776
  Name = 
  12 active torsions:
  status: ('A' for Active; 'I' for Inactive)
    1  A    between atoms: N_3  and  C_34
    2  A    between atoms: N_3  and  C_44
    3  A    between atoms: C_8  and  C_13
    4  A    between atoms: C_9  and  C_19
    5  A    between atoms: C_13  and  C_19
    6  A    between atoms: C_13  and  O_57
    7  A    between atoms: C_23  and  C_27
    8  A    between atoms: C_23  and  C_60
    9  A    between atoms: C_29  and  C_51
   10  A    between atoms: C_29  and  C_55
   11  A    between atoms: C_29  and  C_56
   12  A    between atoms: O_57  and  C_60
                            x       y       z     vdW  Elec       q    Type
                         _______ _______ _______ _____ _____    ______ ____

>  <TORSDO>
F 12

$$$$
=
 OpenBabel11032421313D

 60 69  0  0  1  0  0  0  0  0999 V2000
  181.5600  178.2320  139.1990 C   0  0  1  0  0  3  0  0  0  0  0  0
  180.6480  179.3310  138.7550 C   0  0  0  0  0  0  0  0  0  0  0  0
  180.1540  181.4370  135.7780 C   0  0  0  0  0  2  0  0  0  0  0  0
  179.1420  181.1770  139.3520 C   0  0  0  0  0  2  0  0  0  0  0  0
  180.2350  182.6950  136.1910 C   0  0  0  0  0  0  0  0  0  0  0  0
  179.8770  183.8890  138.3570 F   0  0  0  0  0  0  0  0  0  0  0  0
  179.3240  181.6150  137.9360 C   0  0  1  0  0  3  0  0  0  0  0  0
  180.0620  180.0740  139.6560 N   0  0  0  0  0  0  0  0  0  0  0  0
  179.7320  182.8090  137.5470 C   0  0  0  0  0  0  0  0  0  0  0  0
  179.5280  180.6050  136.8630 C   0  0  2  0  0  3  0  0  0  0  0  0
  180.8390  183.8010  135.4020 C   0  0  0  0  0  1  0  0  0  0  0  0
  180.4680  179.5970  137.3470 N   0  0  0  0  0  2  0  0  0  0  0  0
  181.4170  178.0210  140.7000 C   0  0  0  0  0  2  0  0  0  0  0  0
  182.5800  178.6120  141.4290 C   0  0  0  0  0  0  0  0  0  0  0  0
  182.4260  179.2290  143.0930 S   0  0  0  0  0  0  0  0  0  0  0  0
  184.7930  179.1090  141.7960 C   0  0  0  0  0  2  0  0  0  0  0  0
  183.7630  178.5810  140.9460 N   0  0  0  0  0  0  0  0  0  0  0  0
  184.2440  179.1260  143.2190 C   0  0  2  0  0  3  0  0  0  0  0  0
  184.6210  177.8930  143.8930 N   0  0  0  0  0  2  0  0  0  0  0  0
  186.3640  177.4040  145.5030 C   0  0  0  0  0  3  0  0  0  0  0  0
  187.0940  177.4900  143.3620 C   0  0  0  0  0  3  0  0  0  0  0  0
  185.9690  177.6020  144.2640 C   0  0  0  0  0  0  0  0  0  0  0  0
  188.1580  177.2320  144.0420 N   0  0  0  0  0  0  0  0  0  0  0  0
  187.8460  177.1460  145.4680 C   0  0  1  0  0  3  0  0  0  0  0  0
  188.6350  178.2100  146.2600 C   0  0  2  0  0  3  0  0  0  0  0  0
  191.7780  176.9770  144.6260 C   0  0  1  0  0  3  0  0  0  0  0  0
  191.4310  176.1780  146.9030 C   0  0  0  0  0  2  0  0  0  0  0  0
  190.7410  176.8390  145.7180 C   0  0  1  0  0  3  0  0  0  0  0  0
  191.9740  175.5970  144.0180 C   0  0  0  0  0  2  0  0  0  0  0  0
  191.4860  178.3150  142.6240 O   0  0  0  0  0  0  0  0  0  0  0  0
  192.0570  174.8700  146.4360 C   0  0  0  0  0  3  0  0  0  0  0  0
  190.2890  178.7910  144.5660 O   0  0  0  0  0  0  0  0  0  0  0  0
  190.1330  178.2400  145.8730 C   0  0  1  0  0  3  0  0  0  0  0  0
  192.3380  174.6230  145.1310 C   0  0  0  0  0  3  0  0  0  0  0  0
  191.1770  178.0440  143.8150 C   0  0  0  0  0  0  0  0  0  0  0  0
  189.5710  178.6260  148.5800 C   0  0  0  0  0  1  0  0  0  0  0  0
  188.3100  176.6490  148.0990 O   0  0  0  0  0  1  0  0  0  0  0  0
  188.4470  178.0010  147.7770 C   0  0  2  0  0  3  0  0  0  0  0  0
  181.2620  177.0440  138.5230 O   0  0  0  0  0  0  0  0  0  0  0  0
  182.4730  176.3550  138.4450 C   0  0  0  0  0  2  0  0  0  0  0  0
  182.2270  174.9910  137.8300 C   0  0  0  0  0  2  0  0  0  0  0  0
  188.2910  177.2440  136.6190 C   0  0  1  0  0  3  0  0  0  0  0  0
  185.1700  173.8820  136.2920 C   0  0  0  0  0  3  0  0  0  0  0  0
  189.7950  178.0170  138.0830 O   0  0  0  0  0  0  0  0  0  0  0  0
  189.4980  175.6030  137.8300 C   0  0  0  0  0  0  0  0  0  0  0  0
  190.6220  175.3150  138.3230 O   0  0  0  0  0  0  0  0  0  0  0  0
  182.4590  175.8580  135.5990 O   0  0  0  0  0  0  0  0  0  0  0  0
  186.0400  177.7750  134.8810 O   0  0  0  0  0  0  0  0  0  0  0  0
  183.5270  176.5730  135.1150 N   0  0  0  0  0  2  0  0  0  0  0  0
  182.9460  174.8720  136.4980 C   0  0  1  0  0  3  0  0  0  0  0  0
  185.9430  176.7720  135.6400 C   0  0  0  0  0  0  0  0  0  0  0  0
  187.4060  174.9660  136.6220 C   0  0  0  0  0  0  0  0  0  0  0  0
  188.9120  176.9660  137.9280 C   0  0  2  0  0  3  0  0  0  0  0  0
  189.0880  179.0820  137.4640 C   0  0  0  0  0  2  0  0  0  0  0  0
  184.6660  176.1470  135.8010 N   0  0  0  0  0  0  0  0  0  0  0  0
  187.1470  176.2870  136.3640 C   0  0  0  0  0  0  0  0  0  0  0  0
  188.6730  174.6000  137.2210 N   0  0  0  0  0  2  0  0  0  0  0  0
  187.9950  178.5940  136.7000 O   0  0  0  0  0  0  0  0  0  0  0  0
  184.4100  175.0920  136.7130 C   0  0  2  0  0  3  0  0  0  0  0  0
  186.5020  173.8460  136.2770 C   0  0  0  0  0  3  0  0  0  0  0  0
  1 13  1  1  0  0  0
  2  1  1  0  0  0  0
  2  8  2  0  0  0  0
  3  5  1  0  0  0  0
  4  8  1  0  0  0  0
  5  9  2  0  0  0  0
  7  4  1  1  0  0  0
  9  7  1  0  0  0  0
  9  6  1  0  0  0  0
 10  3  1  6  0  0  0
 10 12  1  0  0  0  0
 10  7  1  0  0  0  0
 11  5  1  0  0  0  0
 12  2  1  0  0  0  0
 13 14  1  0  0  0  0
 14 15  1  0  0  0  0
 15 18  1  0  0  0  0
 16 18  1  0  0  0  0
 17 14  2  0  0  0  0
 17 16  1  0  0  0  0
 18 19  1  6  0  0  0
 19 22  1  0  0  0  0
 21 23  2  0  0  0  0
 21 22  1  0  0  0  0
 22 20  2  0  0  0  0
 23 24  1  0  0  0  0
 24 20  1  0  0  0  0
 24 25  1  1  0  0  0
 25 38  1  1  0  0  0
 26 29  1  6  0  0  0
 26 28  1  0  0  0  0
 28 33  1  0  0  0  0
 28 27  1  1  0  0  0
 29 34  1  0  0  0  0
 30 35  2  0  0  0  0
 31 27  1  0  0  0  0
 32 33  1  0  0  0  0
 33 25  1  6  0  0  0
 34 31  2  0  0  0  0
 35 32  1  0  0  0  0
 35 26  1  0  0  0  0
 38 37  1  0  0  0  0
 38 36  1  1  0  0  0
 39  1  1  0  0  0  0
 40 39  1  0  0  0  0
 41 40  1  0  0  0  0
 42 56  1  1  0  0  0
 42 58  1  0  0  0  0
 42 53  1  0  0  0  0
 45 46  2  0  0  0  0
 47 50  1  0  0  0  0
 48 51  2  0  0  0  0
 49 47  1  0  0  0  0
 49 55  1  0  0  0  0
 50 59  1  0  0  0  0
 50 41  1  1  0  0  0
 51 55  1  0  0  0  0
 51 56  1  0  0  0  0
 52 57  1  0  0  0  0
 53 45  1  6  0  0  0
 53 44  1  0  0  0  0
 54 44  1  0  0  0  0
 55 59  1  0  0  0  0
 56 52  2  0  0  0  0
 57 45  1  0  0  0  0
 58 54  1  0  0  0  0
 59 43  1  6  0  0  0
 60 43  2  0  0  0  0
 60 52  1  0  0  0  0
M  END
>  <MODEL>
5

>  <REMARK>
 VINA RESULT:      -8.0      4.306      9.191
  Name = 
  12 active torsions:
  status: ('A' for Active; 'I' for Inactive)
    1  A    between atoms: N_3  and  C_34
    2  A    between atoms: N_3  and  C_44
    3  A    between atoms: C_8  and  C_13
    4  A    between atoms: C_9  and  C_19
    5  A    between atoms: C_13  and  C_19
    6  A    between atoms: C_13  and  O_57
    7  A    between atoms: C_23  and  C_27
    8  A    between atoms: C_23  and  C_60
    9  A    between atoms: C_29  and  C_51
   10  A    between atoms: C_29  and  C_55
   11  A    between atoms: C_29  and  C_56
   12  A    between atoms: O_57  and  C_60
                            x       y       z     vdW  Elec       q    Type
                         _______ _______ _______ _____ _____    ______ ____

>  <TORSDO>
F 12

$$$$
=
 OpenBabel11032421313D

 60 69  0  0  1  0  0  0  0  0999 V2000
  185.9250  177.1040  137.0320 C   0  0  1  0  0  3  0  0  0  0  0  0
  185.0510  177.8920  137.9570 C   0  0  0  0  0  0  0  0  0  0  0  0
  185.1610  179.1400  141.4160 C   0  0  0  0  0  2  0  0  0  0  0  0
  182.7990  178.6470  138.5800 C   0  0  0  0  0  2  0  0  0  0  0  0
  184.0810  178.6620  142.0230 C   0  0  0  0  0  0  0  0  0  0  0  0
  181.8240  177.8790  141.2900 F   0  0  0  0  0  0  0  0  0  0  0  0
  183.4130  178.9750  139.9010 C   0  0  1  0  0  3  0  0  0  0  0  0
  183.7610  177.9100  137.7520 N   0  0  0  0  0  0  0  0  0  0  0  0
  182.9900  178.5410  141.0740 C   0  0  0  0  0  0  0  0  0  0  0  0
  184.8310  179.4180  139.9760 C   0  0  2  0  0  3  0  0  0  0  0  0
  184.0380  178.2320  143.4450 C   0  0  0  0  0  1  0  0  0  0  0  0
  185.6280  178.5720  139.0920 N   0  0  0  0  0  2  0  0  0  0  0  0
  186.9090  176.2700  137.8410 C   0  0  0  0  0  2  0  0  0  0  0  0
  188.3080  176.7450  137.6230 C   0  0  0  0  0  0  0  0  0  0  0  0
  189.0350  178.0140  138.6400 S   0  0  0  0  0  0  0  0  0  0  0  0
  190.4310  176.6850  136.7470 C   0  0  0  0  0  2  0  0  0  0  0  0
  189.0900  176.1750  136.7880 N   0  0  0  0  0  0  0  0  0  0  0  0
  190.6660  177.4510  138.0450 C   0  0  2  0  0  3  0  0  0  0  0  0
  191.2670  176.5590  139.0260 N   0  0  0  0  0  2  0  0  0  0  0  0
  190.4130  176.4180  141.2880 C   0  0  0  0  0  3  0  0  0  0  0  0
  192.2750  177.6890  141.0900 C   0  0  0  0  0  3  0  0  0  0  0  0
  191.2970  176.8600  140.4210 C   0  0  0  0  0  0  0  0  0  0  0  0
  191.9880  177.7540  142.3450 N   0  0  0  0  0  0  0  0  0  0  0  0
  190.7870  176.9710  142.6360 C   0  0  1  0  0  3  0  0  0  0  0  0
  189.6780  177.8750  143.2160 C   0  0  2  0  0  3  0  0  0  0  0  0
  189.7560  177.6450  146.9580 C   0  0  1  0  0  3  0  0  0  0  0  0
  187.7820  178.7460  146.0460 C   0  0  0  0  0  2  0  0  0  0  0  0
  188.9680  177.8610  145.6870 C   0  0  1  0  0  3  0  0  0  0  0  0
  188.9840  176.6380  147.7980 C   0  0  0  0  0  2  0  0  0  0  0  0
  191.9830  176.6860  147.0410 O   0  0  0  0  0  0  0  0  0  0  0  0
  187.0090  178.0880  147.1820 C   0  0  0  0  0  3  0  0  0  0  0  0
  191.2040  177.7360  145.1120 O   0  0  0  0  0  0  0  0  0  0  0  0
  189.9960  178.3460  144.6550 C   0  0  1  0  0  3  0  0  0  0  0  0
  187.5670  177.1610  148.0000 C   0  0  0  0  0  3  0  0  0  0  0  0
  191.0650  177.2700  146.4060 C   0  0  0  0  0  0  0  0  0  0  0  0
  188.4260  175.6800  143.4290 C   0  0  0  0  0  1  0  0  0  0  0  0
  187.6820  177.3780  141.9150 O   0  0  0  0  0  1  0  0  0  0  0  0
  188.3100  177.1640  143.1430 C   0  0  2  0  0  3  0  0  0  0  0  0
  185.1510  176.2700  136.2190 O   0  0  0  0  0  0  0  0  0  0  0  0
  184.9080  175.1320  136.9900 C   0  0  0  0  0  2  0  0  0  0  0  0
  184.7600  173.9350  136.0730 C   0  0  0  0  0  2  0  0  0  0  0  0
  179.3010  174.5700  139.6930 C   0  0  1  0  0  3  0  0  0  0  0  0
  181.6930  175.6160  135.9080 C   0  0  0  0  0  3  0  0  0  0  0  0
  179.1250  175.2410  141.8200 O   0  0  0  0  0  0  0  0  0  0  0  0
  179.4190  176.9100  140.0570 C   0  0  0  0  0  0  0  0  0  0  0  0
  178.9690  177.8620  140.7490 O   0  0  0  0  0  0  0  0  0  0  0  0
  182.9830  172.4980  135.3210 O   0  0  0  0  0  0  0  0  0  0  0  0
  179.6960  172.4090  137.8120 O   0  0  0  0  0  0  0  0  0  0  0  0
  181.8050  172.2540  135.9820 N   0  0  0  0  0  2  0  0  0  0  0  0
  183.3450  173.8550  135.5290 C   0  0  1  0  0  3  0  0  0  0  0  0
  180.3880  173.4480  137.6310 C   0  0  0  0  0  0  0  0  0  0  0  0
  180.1820  175.9510  137.8790 C   0  0  0  0  0  0  0  0  0  0  0  0
  179.7690  175.5920  140.6490 C   0  0  2  0  0  3  0  0  0  0  0  0
  179.1050  173.8240  141.7250 C   0  0  0  0  0  2  0  0  0  0  0  0
  181.4900  173.3970  136.7190 N   0  0  0  0  0  0  0  0  0  0  0  0
  180.0570  174.6840  138.3880 C   0  0  0  0  0  0  0  0  0  0  0  0
  179.7080  177.0740  138.6610 N   0  0  0  0  0  2  0  0  0  0  0  0
  179.4300  173.3950  140.4110 O   0  0  0  0  0  0  0  0  0  0  0  0
  182.4050  174.4610  136.5220 C   0  0  2  0  0  3  0  0  0  0  0  0
  180.7210  176.2720  136.5380 C   0  0  0  0  0  3  0  0  0  0  0  0
  1 13  1  1  0  0  0
  1  2  1  0  0  0  0
  2 12  1  0  0  0  0
  3  5  1  0  0  0  0
  5 11  1  0  0  0  0
  7  4  1  6  0  0  0
  7 10  1  0  0  0  0
  7  9  1  0  0  0  0
  8  2  2  0  0  0  0
  8  4  1  0  0  0  0
  9  6  1  0  0  0  0
  9  5  2  0  0  0  0
 10  3  1  1  0  0  0
 12 10  1  0  0  0  0
 14 13  1  0  0  0  0
 14 15  1  0  0  0  0
 16 17  1  0  0  0  0
 16 18  1  0  0  0  0
 17 14  2  0  0  0  0
 18 15  1  0  0  0  0
 18 19  1  1  0  0  0
 19 22  1  0  0  0  0
 20 24  1  0  0  0  0
 21 23  2  0  0  0  0
 22 21  1  0  0  0  0
 22 20  2  0  0  0  0
 23 24  1  0  0  0  0
 24 25  1  6  0  0  0
 25 38  1  1  0  0  0
 26 29  1  1  0  0  0
 27 31  1  0  0  0  0
 28 27  1  1  0  0  0
 28 26  1  0  0  0  0
 29 34  1  0  0  0  0
 31 34  2  0  0  0  0
 32 35  1  0  0  0  0
 33 25  1  6  0  0  0
 33 32  1  0  0  0  0
 33 28  1  0  0  0  0
 35 26  1  0  0  0  0
 35 30  2  0  0  0  0
 37 38  1  0  0  0  0
 38 36  1  6  0  0  0
 39 40  1  0  0  0  0
 39  1  1  0  0  0  0
 41 40  1  0  0  0  0
 42 56  1  6  0  0  0
 42 58  1  0  0  0  0
 42 53  1  0  0  0  0
 43 60  2  0  0  0  0
 45 46  2  0  0  0  0
 47 50  1  0  0  0  0
 47 49  1  0  0  0  0
 49 55  1  0  0  0  0
 50 41  1  1  0  0  0
 50 59  1  0  0  0  0
 51 48  2  0  0  0  0
 51 56  1  0  0  0  0
 52 56  2  0  0  0  0
 52 57  1  0  0  0  0
 53 45  1  6  0  0  0
 53 44  1  0  0  0  0
 54 44  1  0  0  0  0
 55 51  1  0  0  0  0
 57 45  1  0  0  0  0
 58 54  1  0  0  0  0
 59 43  1  6  0  0  0
 59 55  1  0  0  0  0
 60 52  1  0  0  0  0
M  END
>  <MODEL>
6

>  <REMARK>
 VINA RESULT:      -7.8      3.938      7.014
  Name = 
  12 active torsions:
  status: ('A' for Active; 'I' for Inactive)
    1  A    between atoms: N_3  and  C_34
    2  A    between atoms: N_3  and  C_44
    3  A    between atoms: C_8  and  C_13
    4  A    between atoms: C_9  and  C_19
    5  A    between atoms: C_13  and  C_19
    6  A    between atoms: C_13  and  O_57
    7  A    between atoms: C_23  and  C_27
    8  A    between atoms: C_23  and  C_60
    9  A    between atoms: C_29  and  C_51
   10  A    between atoms: C_29  and  C_55
   11  A    between atoms: C_29  and  C_56
   12  A    between atoms: O_57  and  C_60
                            x       y       z     vdW  Elec       q    Type
                         _______ _______ _______ _____ _____    ______ ____

>  <TORSDO>
F 12

$$$$
=
 OpenBabel11032421313D

 60 69  0  0  1  0  0  0  0  0999 V2000
  185.7190  179.2620  141.9360 C   0  0  1  0  0  3  0  0  0  0  0  0
  184.6290  178.9030  140.9760 C   0  0  0  0  0  0  0  0  0  0  0  0
  182.5150  180.5980  138.4870 C   0  0  0  0  0  2  0  0  0  0  0  0
  182.8050  177.3850  140.3450 C   0  0  0  0  0  2  0  0  0  0  0  0
  181.2580  180.3530  138.8330 C   0  0  0  0  0  0  0  0  0  0  0  0
  180.0800  178.5720  140.1300 F   0  0  0  0  0  0  0  0  0  0  0  0
  182.3580  178.4970  139.4550 C   0  0  1  0  0  3  0  0  0  0  0  0
  183.8980  177.8460  141.2100 N   0  0  0  0  0  0  0  0  0  0  0  0
  181.1570  179.0460  139.4540 C   0  0  0  0  0  0  0  0  0  0  0  0
  183.3600  179.4040  138.8330 C   0  0  2  0  0  3  0  0  0  0  0  0
  180.1410  181.3230  138.6820 C   0  0  0  0  0  1  0  0  0  0  0  0
  184.3580  179.7530  139.8410 N   0  0  0  0  0  2  0  0  0  0  0  0
  186.0370  178.0640  142.8210 C   0  0  0  0  0  2  0  0  0  0  0  0
  185.4160  178.2240  144.1700 C   0  0  0  0  0  0  0  0  0  0  0  0
  185.6790  177.0340  145.4690 S   0  0  0  0  0  0  0  0  0  0  0  0
  184.3100  179.3320  145.8520 C   0  0  0  0  0  2  0  0  0  0  0  0
  184.7780  179.2830  144.4950 N   0  0  0  0  0  0  0  0  0  0  0  0
  185.1140  178.3090  146.6480 C   0  0  2  0  0  3  0  0  0  0  0  0
  186.2640  178.9660  147.2500 N   0  0  0  0  0  2  0  0  0  0  0  0
  188.6780  178.8410  147.4030 C   0  0  0  0  0  3  0  0  0  0  0  0
  187.6280  176.9000  147.9060 C   0  0  0  0  0  3  0  0  0  0  0  0
  187.4920  178.2840  147.5080 C   0  0  0  0  0  0  0  0  0  0  0  0
  188.8790  176.6180  148.0370 N   0  0  0  0  0  0  0  0  0  0  0  0
  189.7010  177.7900  147.7400 C   0  0  1  0  0  3  0  0  0  0  0  0
  190.6440  177.5020  146.5520 C   0  0  2  0  0  3  0  0  0  0  0  0
  190.0260  176.9980  142.8870 C   0  0  1  0  0  3  0  0  0  0  0  0
  191.6710  178.7170  143.4160 C   0  0  0  0  0  2  0  0  0  0  0  0
  190.9030  177.5360  143.9940 C   0  0  1  0  0  3  0  0  0  0  0  0
  190.9280  176.2230  141.9380 C   0  0  0  0  0  2  0  0  0  0  0  0
  188.2360  175.3930  143.2180 O   0  0  0  0  0  0  0  0  0  0  0  0
  192.4130  178.2530  142.1700 C   0  0  0  0  0  3  0  0  0  0  0  0
  188.9500  176.7650  144.9610 O   0  0  0  0  0  0  0  0  0  0  0  0
  189.9600  177.7490  145.1860 C   0  0  1  0  0  3  0  0  0  0  0  0
  192.0510  177.1430  141.4770 C   0  0  0  0  0  3  0  0  0  0  0  0
  189.0140  176.2750  143.6700 C   0  0  0  0  0  0  0  0  0  0  0  0
  192.0540  175.8760  147.8940 C   0  0  0  0  0  1  0  0  0  0  0  0
  191.9380  175.7250  145.5070 O   0  0  0  0  0  1  0  0  0  0  0  0
  191.2110  176.0710  146.6490 C   0  0  2  0  0  3  0  0  0  0  0  0
  186.8690  179.6610  141.2460 O   0  0  0  0  0  0  0  0  0  0  0  0
  187.4280  178.4800  140.7550 C   0  0  0  0  0  2  0  0  0  0  0  0
  188.8700  178.7390  140.3670 C   0  0  0  0  0  2  0  0  0  0  0  0
  185.3060  174.4970  136.8160 C   0  0  1  0  0  3  0  0  0  0  0  0
  187.2810  178.6270  137.2490 C   0  0  0  0  0  3  0  0  0  0  0  0
  183.4100  173.4610  137.3960 O   0  0  0  0  0  0  0  0  0  0  0  0
  183.3260  175.7890  136.6530 C   0  0  0  0  0  0  0  0  0  0  0  0
  182.1000  175.7520  136.3580 O   0  0  0  0  0  0  0  0  0  0  0  0
  190.1890  177.5770  138.7260 O   0  0  0  0  0  0  0  0  0  0  0  0
  188.1990  174.5220  136.7960 O   0  0  0  0  0  0  0  0  0  0  0  0
  189.7840  176.4980  137.9780 N   0  0  0  0  0  2  0  0  0  0  0  0
  189.0820  178.4520  138.8920 C   0  0  1  0  0  3  0  0  0  0  0  0
  187.6280  175.5860  137.1590 C   0  0  0  0  0  0  0  0  0  0  0  0
  185.5530  176.9220  136.6290 C   0  0  0  0  0  0  0  0  0  0  0  0
  183.9870  174.7160  137.4400 C   0  0  2  0  0  3  0  0  0  0  0  0
  184.5370  172.6180  137.5930 C   0  0  0  0  0  2  0  0  0  0  0  0
  188.4050  176.6100  137.7890 N   0  0  0  0  0  0  0  0  0  0  0  0
  186.1640  175.7360  136.9470 C   0  0  0  0  0  0  0  0  0  0  0  0
  184.1380  176.9240  136.3200 N   0  0  0  0  0  2  0  0  0  0  0  0
  185.7490  173.3390  137.4310 O   0  0  0  0  0  0  0  0  0  0  0  0
  187.8570  177.7940  138.3420 C   0  0  2  0  0  3  0  0  0  0  0  0
  186.2470  178.2240  136.5140 C   0  0  0  0  0  3  0  0  0  0  0  0
  1 13  1  6  0  0  0
  2  8  2  0  0  0  0
  2  1  1  0  0  0  0
  3  5  1  0  0  0  0
  4  8  1  0  0  0  0
  5  9  2  0  0  0  0
  7  4  1  1  0  0  0
  9  7  1  0  0  0  0
  9  6  1  0  0  0  0
 10  3  1  1  0  0  0
 10  7  1  0  0  0  0
 10 12  1  0  0  0  0
 11  5  1  0  0  0  0
 12  2  1  0  0  0  0
 13 14  1  0  0  0  0
 14 17  2  0  0  0  0
 14 15  1  0  0  0  0
 15 18  1  0  0  0  0
 16 18  1  0  0  0  0
 17 16  1  0  0  0  0
 18 19  1  6  0  0  0
 19 22  1  0  0  0  0
 20 22  2  0  0  0  0
 20 24  1  0  0  0  0
 21 23  2  0  0  0  0
 22 21  1  0  0  0  0
 24 25  1  6  0  0  0
 24 23  1  0  0  0  0
 25 38  1  6  0  0  0
 26 29  1  6  0  0  0
 26 35  1  0  0  0  0
 26 28  1  0  0  0  0
 28 27  1  6  0  0  0
 28 33  1  0  0  0  0
 30 35  2  0  0  0  0
 31 27  1  0  0  0  0
 32 33  1  0  0  0  0
 33 25  1  1  0  0  0
 34 29  1  0  0  0  0
 34 31  2  0  0  0  0
 35 32  1  0  0  0  0
 37 38  1  0  0  0  0
 38 36  1  1  0  0  0
 39  1  1  0  0  0  0
 40 39  1  0  0  0  0
 41 40  1  0  0  0  0
 42 56  1  1  0  0  0
 42 58  1  0  0  0  0
 42 53  1  0  0  0  0
 44 53  1  0  0  0  0
 44 54  1  0  0  0  0
 46 45  2  0  0  0  0
 47 50  1  0  0  0  0
 48 51  2  0  0  0  0
 49 47  1  0  0  0  0
 50 41  1  1  0  0  0
 51 55  1  0  0  0  0
 52 56  2  0  0  0  0
 53 45  1  6  0  0  0
 55 49  1  0  0  0  0
 55 59  1  0  0  0  0
 56 51  1  0  0  0  0
 57 52  1  0  0  0  0
 57 45  1  0  0  0  0
 58 54  1  0  0  0  0
 59 43  1  6  0  0  0
 59 50  1  0  0  0  0
 60 52  1  0  0  0  0
 60 43  2  0  0  0  0
M  END
>  <MODEL>
7

>  <REMARK>
 VINA RESULT:      -7.7      4.189      8.019
  Name = 
  12 active torsions:
  status: ('A' for Active; 'I' for Inactive)
    1  A    between atoms: N_3  and  C_34
    2  A    between atoms: N_3  and  C_44
    3  A    between atoms: C_8  and  C_13
    4  A    between atoms: C_9  and  C_19
    5  A    between atoms: C_13  and  C_19
    6  A    between atoms: C_13  and  O_57
    7  A    between atoms: C_23  and  C_27
    8  A    between atoms: C_23  and  C_60
    9  A    between atoms: C_29  and  C_51
   10  A    between atoms: C_29  and  C_55
   11  A    between atoms: C_29  and  C_56
   12  A    between atoms: O_57  and  C_60
                            x       y       z     vdW  Elec       q    Type
                         _______ _______ _______ _____ _____    ______ ____

>  <TORSDO>
F 12

$$$$
=
 OpenBabel11032421313D

 60 69  0  0  1  0  0  0  0  0999 V2000
  187.3820  177.6350  142.5200 C   0  0  1  0  0  3  0  0  0  0  0  0
  187.8780  177.8240  143.9190 C   0  0  0  0  0  0  0  0  0  0  0  0
  191.0290  177.4310  145.7770 C   0  0  0  0  0  2  0  0  0  0  0  0
  187.3820  177.9480  146.3210 C   0  0  0  0  0  2  0  0  0  0  0  0
  190.7700  176.6080  146.7850 C   0  0  0  0  0  0  0  0  0  0  0  0
  188.7340  175.9570  148.0790 F   0  0  0  0  0  0  0  0  0  0  0  0
  188.8480  177.7350  146.5050 C   0  0  1  0  0  3  0  0  0  0  0  0
  187.0250  177.7730  144.9080 N   0  0  0  0  0  0  0  0  0  0  0  0
  189.4010  176.7830  147.2330 C   0  0  0  0  0  0  0  0  0  0  0  0
  189.8110  178.2700  145.5050 C   0  0  2  0  0  3  0  0  0  0  0  0
  191.7250  175.5960  147.3100 C   0  0  0  0  0  1  0  0  0  0  0  0
  189.2880  178.0020  144.1680 N   0  0  0  0  0  2  0  0  0  0  0  0
  186.4670  178.7910  142.1390 C   0  0  0  0  0  2  0  0  0  0  0  0
  185.0490  178.3310  142.0360 C   0  0  0  0  0  0  0  0  0  0  0  0
  183.8640  178.6530  143.3270 S   0  0  0  0  0  0  0  0  0  0  0  0
  183.1880  177.4910  140.9840 C   0  0  0  0  0  2  0  0  0  0  0  0
  184.5890  177.8050  140.9660 N   0  0  0  0  0  0  0  0  0  0  0  0
  182.5530  178.3060  142.1060 C   0  0  2  0  0  3  0  0  0  0  0  0
  182.0440  179.5550  141.5610 N   0  0  0  0  0  2  0  0  0  0  0  0
  180.3540  178.5500  140.1480 C   0  0  0  0  0  3  0  0  0  0  0  0
  180.2520  180.8090  140.2290 C   0  0  0  0  0  3  0  0  0  0  0  0
  180.9220  179.6100  140.6790 C   0  0  0  0  0  0  0  0  0  0  0  0
  179.2920  180.4850  139.4320 N   0  0  0  0  0  0  0  0  0  0  0  0
  179.2280  179.0320  139.2740 C   0  0  1  0  0  3  0  0  0  0  0  0
  179.4380  178.6390  137.7950 C   0  0  2  0  0  3  0  0  0  0  0  0
  180.4530  175.1320  136.9360 C   0  0  1  0  0  3  0  0  0  0  0  0
  179.7640  175.4550  139.2510 C   0  0  0  0  0  2  0  0  0  0  0  0
  179.7400  176.0870  137.8660 C   0  0  1  0  0  3  0  0  0  0  0  0
  179.4990  173.9790  136.6610 C   0  0  0  0  0  2  0  0  0  0  0  0
  181.1490  175.6870  134.6790 O   0  0  0  0  0  0  0  0  0  0  0  0
  179.1540  174.0630  139.1630 C   0  0  0  0  0  3  0  0  0  0  0  0
  180.8500  177.3520  136.2810 O   0  0  0  0  0  0  0  0  0  0  0  0
  180.4120  177.4480  137.6370 C   0  0  1  0  0  3  0  0  0  0  0  0
  179.0700  173.3780  137.9940 C   0  0  0  0  0  3  0  0  0  0  0  0
  180.8170  176.0420  135.8410 C   0  0  0  0  0  0  0  0  0  0  0  0
  179.2930  179.8750  135.5850 C   0  0  0  0  0  1  0  0  0  0  0  0
  181.2930  179.9350  136.9000 O   0  0  0  0  0  1  0  0  0  0  0  0
  179.9010  179.8610  136.9740 C   0  0  2  0  0  3  0  0  0  0  0  0
  188.4550  177.5640  141.6250 O   0  0  0  0  0  0  0  0  0  0  0  0
  188.0980  178.3940  140.5610 C   0  0  0  0  0  2  0  0  0  0  0  0
  189.0770  178.1880  139.4230 C   0  0  0  0  0  2  0  0  0  0  0  0
  186.0180  173.7710  135.6240 C   0  0  1  0  0  3  0  0  0  0  0  0
  186.0920  177.9160  137.6140 C   0  0  0  0  0  3  0  0  0  0  0  0
  185.4630  171.6640  136.1280 O   0  0  0  0  0  0  0  0  0  0  0  0
  184.0670  173.4990  136.9430 C   0  0  0  0  0  0  0  0  0  0  0  0
  183.0550  172.7720  137.1360 O   0  0  0  0  0  0  0  0  0  0  0  0
  189.4040  178.6070  137.0770 O   0  0  0  0  0  0  0  0  0  0  0  0
  187.9870  175.6270  134.6020 O   0  0  0  0  0  0  0  0  0  0  0  0
  189.0670  177.7610  136.0490 N   0  0  0  0  0  2  0  0  0  0  0  0
  188.4160  178.5000  138.0920 C   0  0  1  0  0  3  0  0  0  0  0  0
  187.4190  175.9460  135.6820 C   0  0  0  0  0  0  0  0  0  0  0  0
  185.1590  175.7410  136.7880 C   0  0  0  0  0  0  0  0  0  0  0  0
  185.4150  172.9310  136.6760 C   0  0  2  0  0  3  0  0  0  0  0  0
  186.6780  171.7120  135.3930 C   0  0  0  0  0  2  0  0  0  0  0  0
  187.9600  177.0180  136.4600 N   0  0  0  0  0  0  0  0  0  0  0  0
  186.2240  175.1820  136.1280 C   0  0  0  0  0  0  0  0  0  0  0  0
  183.9930  174.9270  137.0600 N   0  0  0  0  0  2  0  0  0  0  0  0
  187.1400  173.0480  135.2580 O   0  0  0  0  0  0  0  0  0  0  0  0
  187.4790  177.3880  137.7410 C   0  0  2  0  0  3  0  0  0  0  0  0
  185.0760  177.1590  137.2050 C   0  0  0  0  0  3  0  0  0  0  0  0
  1 13  1  6  0  0  0
  1  2  1  0  0  0  0
  2 12  1  0  0  0  0
  2  8  2  0  0  0  0
  3  5  1  0  0  0  0
  5  9  2  0  0  0  0
  5 11  1  0  0  0  0
  7  4  1  6  0  0  0
  7  9  1  0  0  0  0
  8  4  1  0  0  0  0
  9  6  1  0  0  0  0
 10  3  1  6  0  0  0
 10  7  1  0  0  0  0
 12 10  1  0  0  0  0
 14 13  1  0  0  0  0
 14 15  1  0  0  0  0
 16 18  1  0  0  0  0
 17 16  1  0  0  0  0
 17 14  2  0  0  0  0
 18 19  1  6  0  0  0
 18 15  1  0  0  0  0
 20 22  2  0  0  0  0
 21 22  1  0  0  0  0
 22 19  1  0  0  0  0
 23 21  2  0  0  0  0
 24 25  1  6  0  0  0
 24 23  1  0  0  0  0
 24 20  1  0  0  0  0
 25 38  1  6  0  0  0
 26 29  1  6  0  0  0
 26 28  1  0  0  0  0
 28 27  1  1  0  0  0
 29 34  1  0  0  0  0
 30 35  2  0  0  0  0
 31 27  1  0  0  0  0
 32 33  1  0  0  0  0
 33 25  1  6  0  0  0
 33 28  1  0  0  0  0
 34 31  2  0  0  0  0
 35 32  1  0  0  0  0
 35 26  1  0  0  0  0
 37 38  1  0  0  0  0
 38 36  1  6  0  0  0
 39  1  1  0  0  0  0
 40 39  1  0  0  0  0
 41 40  1  0  0  0  0
 42 58  1  1  0  0  0
 42 56  1  0  0  0  0
 42 53  1  0  0  0  0
 45 57  1  0  0  0  0
 45 46  2  0  0  0  0
 47 50  1  0  0  0  0
 48 51  2  0  0  0  0
 49 55  1  0  0  0  0
 49 47  1  0  0  0  0
 50 41  1  1  0  0  0
 51 56  1  0  0  0  0
 51 55  1  0  0  0  0
 52 57  1  0  0  0  0
 52 60  1  0  0  0  0
 53 44  1  6  0  0  0
 53 45  1  0  0  0  0
 54 44  1  0  0  0  0
 55 59  1  0  0  0  0
 56 52  2  0  0  0  0
 58 54  1  0  0  0  0
 59 43  1  6  0  0  0
 59 50  1  0  0  0  0
 60 43  2  0  0  0  0
M  END
>  <MODEL>
8

>  <REMARK>
 VINA RESULT:      -7.5      4.606      9.284
  Name = 
  12 active torsions:
  status: ('A' for Active; 'I' for Inactive)
    1  A    between atoms: N_3  and  C_34
    2  A    between atoms: N_3  and  C_44
    3  A    between atoms: C_8  and  C_13
    4  A    between atoms: C_9  and  C_19
    5  A    between atoms: C_13  and  C_19
    6  A    between atoms: C_13  and  O_57
    7  A    between atoms: C_23  and  C_27
    8  A    between atoms: C_23  and  C_60
    9  A    between atoms: C_29  and  C_51
   10  A    between atoms: C_29  and  C_55
   11  A    between atoms: C_29  and  C_56
   12  A    between atoms: O_57  and  C_60
                            x       y       z     vdW  Elec       q    Type
                         _______ _______ _______ _____ _____    ______ ____

>  <TORSDO>
F 12

$$$$
=
 OpenBabel11032421313D

 60 69  0  0  1  0  0  0  0  0999 V2000
  185.7920  179.1290  141.9700 C   0  0  1  0  0  3  0  0  0  0  0  0
  184.6870  178.9220  140.9820 C   0  0  0  0  0  0  0  0  0  0  0  0
  182.5920  176.1540  139.7650 C   0  0  0  0  0  2  0  0  0  0  0  0
  183.5260  179.6650  138.9500 C   0  0  0  0  0  2  0  0  0  0  0  0
  182.7580  176.1080  138.4490 C   0  0  0  0  0  0  0  0  0  0  0  0
  183.4250  177.7390  136.6780 F   0  0  0  0  0  0  0  0  0  0  0  0
  182.9380  178.2930  138.9380 C   0  0  1  0  0  3  0  0  0  0  0  0
  184.5670  179.7530  139.9810 N   0  0  0  0  0  0  0  0  0  0  0  0
  182.9910  177.4420  137.9290 C   0  0  0  0  0  0  0  0  0  0  0  0
  182.6670  177.5850  140.2190 C   0  0  2  0  0  3  0  0  0  0  0  0
  182.7880  174.8550  137.6490 C   0  0  0  0  0  1  0  0  0  0  0  0
  183.8070  177.7850  141.1090 N   0  0  0  0  0  2  0  0  0  0  0  0
  185.9430  177.8860  142.8380 C   0  0  0  0  0  2  0  0  0  0  0  0
  185.3400  178.1080  144.1870 C   0  0  0  0  0  0  0  0  0  0  0  0
  185.6120  176.9730  145.5320 S   0  0  0  0  0  0  0  0  0  0  0  0
  184.2640  179.2940  145.8350 C   0  0  0  0  0  2  0  0  0  0  0  0
  184.7140  179.1850  144.4750 N   0  0  0  0  0  0  0  0  0  0  0  0
  185.0720  178.3010  146.6630 C   0  0  2  0  0  3  0  0  0  0  0  0
  186.2340  178.9750  147.2210 N   0  0  0  0  0  2  0  0  0  0  0  0
  188.6480  178.8540  147.3890 C   0  0  0  0  0  3  0  0  0  0  0  0
  187.5970  176.9150  147.8970 C   0  0  0  0  0  3  0  0  0  0  0  0
  187.4610  178.2960  147.4900 C   0  0  0  0  0  0  0  0  0  0  0  0
  188.8480  176.6350  148.0370 N   0  0  0  0  0  0  0  0  0  0  0  0
  189.6700  177.8070  147.7380 C   0  0  1  0  0  3  0  0  0  0  0  0
  190.6210  177.5140  146.5570 C   0  0  2  0  0  3  0  0  0  0  0  0
  190.0280  176.9860  142.8910 C   0  0  1  0  0  3  0  0  0  0  0  0
  191.6600  178.7170  143.4210 C   0  0  0  0  0  2  0  0  0  0  0  0
  190.8950  177.5360  144.0010 C   0  0  1  0  0  3  0  0  0  0  0  0
  190.9390  176.2120  141.9520 C   0  0  0  0  0  2  0  0  0  0  0  0
  188.2450  175.3740  143.2200 O   0  0  0  0  0  0  0  0  0  0  0  0
  192.4130  178.2510  142.1820 C   0  0  0  0  0  3  0  0  0  0  0  0
  188.9400  176.7600  144.9600 O   0  0  0  0  0  0  0  0  0  0  0  0
  189.9430  177.7500  145.1860 C   0  0  1  0  0  3  0  0  0  0  0  0
  192.0610  177.1350  141.4930 C   0  0  0  0  0  3  0  0  0  0  0  0
  189.0150  176.2630  143.6720 C   0  0  0  0  0  0  0  0  0  0  0  0
  192.0530  175.9110  147.9020 C   0  0  0  0  0  1  0  0  0  0  0  0
  191.9010  175.7230  145.5200 O   0  0  0  0  0  1  0  0  0  0  0  0
  191.1910  176.0850  146.6670 C   0  0  2  0  0  3  0  0  0  0  0  0
  186.9970  179.3960  141.3110 O   0  0  0  0  0  0  0  0  0  0  0  0
  187.5100  178.1450  140.9680 C   0  0  0  0  0  2  0  0  0  0  0  0
  188.6290  178.3280  139.9620 C   0  0  0  0  0  2  0  0  0  0  0  0
  189.1320  173.9860  135.0420 C   0  0  1  0  0  3  0  0  0  0  0  0
  186.5730  176.9000  137.5130 C   0  0  0  0  0  3  0  0  0  0  0  0
  189.8490  171.8690  135.1360 O   0  0  0  0  0  0  0  0  0  0  0  0
  187.5690  172.3960  135.8470 C   0  0  0  0  0  0  0  0  0  0  0  0
  187.1520  171.2130  135.7150 O   0  0  0  0  0  0  0  0  0  0  0  0
  188.9060  179.3890  137.8210 O   0  0  0  0  0  0  0  0  0  0  0  0
  189.7590  176.7930  134.7310 O   0  0  0  0  0  0  0  0  0  0  0  0
  189.2370  178.7640  136.6440 N   0  0  0  0  0  2  0  0  0  0  0  0
  188.0600  178.5270  138.5680 C   0  0  1  0  0  3  0  0  0  0  0  0
  188.9970  176.4870  135.6890 C   0  0  0  0  0  0  0  0  0  0  0  0
  187.1700  174.8320  136.2280 C   0  0  0  0  0  0  0  0  0  0  0  0
  189.0160  172.7360  135.8170 C   0  0  2  0  0  3  0  0  0  0  0  0
  190.8820  172.7420  134.7020 C   0  0  0  0  0  2  0  0  0  0  0  0
  188.7280  177.4650  136.6990 N   0  0  0  0  0  0  0  0  0  0  0  0
  188.4250  175.1170  135.7560 C   0  0  0  0  0  0  0  0  0  0  0  0
  186.6690  173.4770  136.1270 N   0  0  0  0  0  2  0  0  0  0  0  0
  190.4970  174.1010  134.8460 O   0  0  0  0  0  0  0  0  0  0  0  0
  187.9850  177.2030  137.8780 C   0  0  2  0  0  3  0  0  0  0  0  0
  186.2350  175.8310  136.7940 C   0  0  0  0  0  3  0  0  0  0  0  0
  1 13  1  6  0  0  0
  2 12  1  0  0  0  0
  2  1  1  0  0  0  0
  4  8  1  0  0  0  0
  5  3  1  0  0  0  0
  6  9  1  0  0  0  0
  7  4  1  1  0  0  0
  7 10  1  0  0  0  0
  8  2  2  0  0  0  0
  9  5  2  0  0  0  0
  9  7  1  0  0  0  0
 10  3  1  6  0  0  0
 10 12  1  0  0  0  0
 11  5  1  0  0  0  0
 13 14  1  0  0  0  0
 14 17  2  0  0  0  0
 14 15  1  0  0  0  0
 15 18  1  0  0  0  0
 16 18  1  0  0  0  0
 17 16  1  0  0  0  0
 18 19  1  6  0  0  0
 19 22  1  0  0  0  0
 20 22  2  0  0  0  0
 20 24  1  0  0  0  0
 21 23  2  0  0  0  0
 22 21  1  0  0  0  0
 24 25  1  6  0  0  0
 24 23  1  0  0  0  0
 25 38  1  6  0  0  0
 26 29  1  6  0  0  0
 26 35  1  0  0  0  0
 26 28  1  0  0  0  0
 28 27  1  6  0  0  0
 28 33  1  0  0  0  0
 30 35  2  0  0  0  0
 31 27  1  0  0  0  0
 32 33  1  0  0  0  0
 33 25  1  1  0  0  0
 34 29  1  0  0  0  0
 34 31  2  0  0  0  0
 35 32  1  0  0  0  0
 37 38  1  0  0  0  0
 38 36  1  1  0  0  0
 39  1  1  0  0  0  0
 40 39  1  0  0  0  0
 41 40  1  0  0  0  0
 42 58  1  1  0  0  0
 42 56  1  0  0  0  0
 42 53  1  0  0  0  0
 45 57  1  0  0  0  0
 46 45  2  0  0  0  0
 47 50  1  0  0  0  0
 48 51  2  0  0  0  0
 49 55  1  0  0  0  0
 49 47  1  0  0  0  0
 50 41  1  1  0  0  0
 51 56  1  0  0  0  0
 51 55  1  0  0  0  0
 52 60  1  0  0  0  0
 53 44  1  6  0  0  0
 53 45  1  0  0  0  0
 54 58  1  0  0  0  0
 54 44  1  0  0  0  0
 55 59  1  0  0  0  0
 56 52  2  0  0  0  0
 57 52  1  0  0  0  0
 59 43  1  6  0  0  0
 59 50  1  0  0  0  0
 60 43  2  0  0  0  0
M  END
>  <MODEL>
9

>  <REMARK>
 VINA RESULT:      -7.5      3.804      8.039
  Name = 
  12 active torsions:
  status: ('A' for Active; 'I' for Inactive)
    1  A    between atoms: N_3  and  C_34
    2  A    between atoms: N_3  and  C_44
    3  A    between atoms: C_8  and  C_13
    4  A    between atoms: C_9  and  C_19
    5  A    between atoms: C_13  and  C_19
    6  A    between atoms: C_13  and  O_57
    7  A    between atoms: C_23  and  C_27
    8  A    between atoms: C_23  and  C_60
    9  A    between atoms: C_29  and  C_51
   10  A    between atoms: C_29  and  C_55
   11  A    between atoms: C_29  and  C_56
   12  A    between atoms: O_57  and  C_60
                            x       y       z     vdW  Elec       q    Type
                         _______ _______ _______ _____ _____    ______ ____

>  <TORSDO>
F 12

$$$$
