=
 OpenBabel11042412563D

 43 48  0  0  1  0  0  0  0  0999 V2000
  184.2890  178.6810  144.6420 C   0  0  0  0  0  3  0  0  0  0  0  0
  184.4710  178.2400  142.3050 N   0  0  0  0  0  0  0  0  0  0  0  0
  182.3620  178.9380  143.1930 C   0  0  0  0  0  0  0  0  0  0  0  0
  182.9420  179.0030  144.4660 C   0  0  0  0  0  3  0  0  0  0  0  0
  183.1580  178.5490  142.1050 C   0  0  0  0  0  0  0  0  0  0  0  0
  185.0520  178.2980  143.5360 C   0  0  0  0  0  0  0  0  0  0  0  0
  183.5290  178.0510  138.5530 C   0  0  2  0  0  3  0  0  0  0  0  0
  183.6100  179.5380  138.8280 C   0  0  0  0  0  2  0  0  0  0  0  0
  182.6550  179.7730  139.9820 C   0  0  0  0  0  2  0  0  0  0  0  0
  183.2910  177.4100  139.9040 C   0  0  0  0  0  2  0  0  0  0  0  0
  182.5590  178.4520  140.7340 C   0  0  1  0  0  3  0  0  0  0  0  0
  184.8000  177.5430  137.9650 C   0  0  0  0  0  3  0  0  0  0  0  0
  185.9360  178.0420  138.3350 N   0  0  0  0  0  0  0  0  0  0  0  0
  187.1930  177.6160  137.7980 C   0  0  0  0  0  0  0  0  0  0  0  0
  189.6760  176.7660  136.8040 C   0  0  0  0  0  0  0  0  0  0  0  0
  191.0200  176.3770  136.2620 C   0  0  0  0  0  2  0  0  0  0  0  0
  187.3780  177.4210  136.4170 C   0  0  0  0  0  3  0  0  0  0  0  0
  191.7910  175.6490  137.2690 N   0  0  0  0  0  2  0  0  0  0  0  0
  188.2600  177.3860  138.6740 C   0  0  0  0  0  3  0  0  0  0  0  0
  190.6160  176.6760  139.1540 C   0  0  0  0  0  2  0  0  0  0  0  0
  191.9530  176.5140  138.4350 C   0  0  0  0  0  2  0  0  0  0  0  0
  189.5060  176.9790  138.1860 C   0  0  0  0  0  0  0  0  0  0  0  0
  188.6170  177.0020  135.9220 C   0  0  0  0  0  3  0  0  0  0  0  0
  188.5060  177.5330  143.2560 C   0  0  0  0  0  3  0  0  0  0  0  0
  188.3590  177.5910  144.5890 N   0  0  0  0  0  0  0  0  0  0  0  0
  187.0990  177.8570  144.8820 N   0  0  0  0  0  0  0  0  0  0  0  0
  186.4820  177.9830  143.6910 C   0  0  0  0  0  0  0  0  0  0  0  0
  187.3230  177.7860  142.6490 N   0  0  0  0  0  0  0  0  0  0  0  0
  189.3400  177.2900  145.5410 C   0  0  0  0  0  0  0  0  0  0  0  0
  191.2090  176.7520  147.3620 C   0  0  0  0  0  1  0  0  0  0  0  0
  190.1840  177.0420  146.3640 C   0  0  0  0  0  0  0  0  0  0  0  0
  181.0120  179.2440  142.9980 O   0  0  0  0  0  0  0  0  0  0  0  0
  180.0110  178.4660  143.5390 N   0  0  0  0  0  2  0  0  0  0  0  0
  178.9980  178.3760  142.5750 N   0  0  0  0  0  2  0  0  0  0  0  0
  179.1290  175.0060  137.4990 C   0  0  0  0  0  2  0  0  0  0  0  0
  179.3050  177.2610  141.7810 N   0  0  0  0  0  2  0  0  0  0  0  0
  179.5000  173.7530  139.4800 C   0  0  0  0  0  2  0  0  0  0  0  0
  179.1050  178.4540  139.7920 O   0  0  0  0  0  0  0  0  0  0  0  0
  179.6340  176.1900  139.5700 N   0  0  0  0  0  0  0  0  0  0  0  0
  179.3420  177.3520  140.3570 C   0  0  0  0  0  0  0  0  0  0  0  0
  179.7100  176.2790  138.1120 C   0  0  0  0  0  2  0  0  0  0  0  0
  180.0800  174.9610  140.2190 C   0  0  0  0  0  2  0  0  0  0  0  0
  179.8110  173.8390  138.0520 N   0  0  0  0  0  2  0  0  0  0  0  0
  2  6  1  0  0  0  0
  3  4  2  0  0  0  0
  4  1  1  0  0  0  0
  5  2  2  0  0  0  0
  5  3  1  0  0  0  0
  6 27  1  0  0  0  0
  6  1  2  0  0  0  0
  7 12  1  1  0  0  0
  7  8  1  0  0  0  0
  7 10  1  0  0  0  0
  8  9  1  0  0  0  0
  9 11  1  0  0  0  0
 10 11  1  0  0  0  0
 11  5  1  1  0  0  0
 12 13  2  0  0  0  0
 14 13  1  0  0  0  0
 14 19  1  0  0  0  0
 15 22  1  0  0  0  0
 16 15  1  0  0  0  0
 16 18  1  0  0  0  0
 17 14  2  0  0  0  0
 18 21  1  0  0  0  0
 21 20  1  0  0  0  0
 22 19  2  0  0  0  0
 22 20  1  0  0  0  0
 23 17  1  0  0  0  0
 23 15  2  0  0  0  0
 24 25  1  0  0  0  0
 25 26  1  0  0  0  0
 25 29  1  0  0  0  0
 27 26  2  0  0  0  0
 28 24  2  0  0  0  0
 28 27  1  0  0  0  0
 29 31  3  0  0  0  0
 31 30  1  0  0  0  0
 32  3  1  0  0  0  0
 32 33  1  0  0  0  0
 34 33  1  0  0  0  0
 35 43  1  0  0  0  0
 35 41  1  0  0  0  0
 36 34  1  0  0  0  0
 37 42  1  0  0  0  0
 38 40  2  0  0  0  0
 39 42  1  0  0  0  0
 39 40  1  0  0  0  0
 40 36  1  0  0  0  0
 41 39  1  0  0  0  0
 43 37  1  0  0  0  0
M  END
>  <MODEL>
1

>  <REMARK>
 VINA RESULT:      -8.5      0.000      0.000
  Name = 
  9 active torsions:
  status: ('A' for Active; 'I' for Inactive)
    1  A    between atoms: C_3  and  C_21
    2  A    between atoms: C_4  and  O_32
    3  A    between atoms: N_7  and  C_8
    4  A    between atoms: N_9  and  N_12
    5  A    between atoms: N_9  and  N_18
    6  A    between atoms: C_10  and  N_37
    7  A    between atoms: C_16  and  C_25
    8  A    between atoms: N_18  and  O_32
    9  A    between atoms: C_27  and  C_30
                            x       y       z     vdW  Elec       q    Type
                         _______ _______ _______ _____ _____    ______ ____

>  <TORSDO>
F 9

$$$$
=
 OpenBabel11042412563D

 43 48  0  0  1  0  0  0  0  0999 V2000
  191.1120  177.2290  141.7960 C   0  0  0  0  0  3  0  0  0  0  0  0
  189.2210  177.4460  140.3570 N   0  0  0  0  0  0  0  0  0  0  0  0
  191.3910  177.1740  139.3870 C   0  0  0  0  0  0  0  0  0  0  0  0
  191.9370  177.1180  140.6760 C   0  0  0  0  0  3  0  0  0  0  0  0
  190.0050  177.3390  139.2470 C   0  0  0  0  0  0  0  0  0  0  0  0
  189.7350  177.3930  141.6180 C   0  0  0  0  0  0  0  0  0  0  0  0
  187.1010  177.5750  137.1230 C   0  0  2  0  0  3  0  0  0  0  0  0
  187.4300  176.1080  137.3030 C   0  0  0  0  0  2  0  0  0  0  0  0
  188.9440  176.0550  137.3800 C   0  0  0  0  0  2  0  0  0  0  0  0
  188.1680  178.3200  137.8960 C   0  0  0  0  0  2  0  0  0  0  0  0
  189.3940  177.4220  137.8800 C   0  0  1  0  0  3  0  0  0  0  0  0
  185.7550  177.8950  137.6740 C   0  0  0  0  0  3  0  0  0  0  0  0
  185.6160  178.1980  138.9250 N   0  0  0  0  0  0  0  0  0  0  0  0
  184.3520  178.4970  139.5250 C   0  0  0  0  0  0  0  0  0  0  0  0
  181.9010  179.0920  140.7580 C   0  0  0  0  0  0  0  0  0  0  0  0
  180.5740  179.3420  141.4110 C   0  0  0  0  0  2  0  0  0  0  0  0
  183.2150  178.7840  138.7470 C   0  0  0  0  0  3  0  0  0  0  0  0
  180.7570  179.8730  142.7620 N   0  0  0  0  0  2  0  0  0  0  0  0
  184.2510  178.5080  140.9210 C   0  0  0  0  0  3  0  0  0  0  0  0
  182.9630  178.8540  143.0440 C   0  0  0  0  0  2  0  0  0  0  0  0
  181.5180  178.8970  143.5370 C   0  0  0  0  0  2  0  0  0  0  0  0
  183.0290  178.7850  141.5440 C   0  0  0  0  0  0  0  0  0  0  0  0
  181.9930  179.0750  139.3620 C   0  0  0  0  0  3  0  0  0  0  0  0
  187.0970  177.6110  143.9810 C   0  0  0  0  0  3  0  0  0  0  0  0
  188.1690  177.5800  144.7890 N   0  0  0  0  0  0  0  0  0  0  0  0
  189.2680  177.5150  144.0600 N   0  0  0  0  0  0  0  0  0  0  0  0
  188.8390  177.4820  142.7830 C   0  0  0  0  0  0  0  0  0  0  0  0
  187.4900  177.5430  142.6880 N   0  0  0  0  0  0  0  0  0  0  0  0
  188.1570  177.7280  146.1800 C   0  0  0  0  0  0  0  0  0  0  0  0
  188.1720  178.0110  148.8310 C   0  0  0  0  0  1  0  0  0  0  0  0
  188.1590  177.8570  147.3780 C   0  0  0  0  0  0  0  0  0  0  0  0
  192.2030  177.0770  138.2540 O   0  0  0  0  0  0  0  0  0  0  0  0
  193.5480  176.7910  138.3530 N   0  0  0  0  0  2  0  0  0  0  0  0
  193.9530  176.2980  137.1050 N   0  0  0  0  0  2  0  0  0  0  0  0
  198.2140  172.0270  136.2410 C   0  0  0  0  0  2  0  0  0  0  0  0
  194.6460  175.1050  137.3580 N   0  0  0  0  0  2  0  0  0  0  0  0
  196.3580  171.2720  137.5140 C   0  0  0  0  0  2  0  0  0  0  0  0
  196.5640  175.8250  136.2520 O   0  0  0  0  0  0  0  0  0  0  0  0
  196.6560  173.6690  137.1470 N   0  0  0  0  0  0  0  0  0  0  0  0
  195.9810  174.9090  136.8950 C   0  0  0  0  0  0  0  0  0  0  0  0
  198.0360  173.4710  136.7080 C   0  0  0  0  0  2  0  0  0  0  0  0
  196.0560  172.6790  138.0360 C   0  0  0  0  0  2  0  0  0  0  0  0
  197.7980  171.1120  137.3010 N   0  0  0  0  0  2  0  0  0  0  0  0
  2  6  2  0  0  0  0
  3  4  1  0  0  0  0
  4  1  2  0  0  0  0
  5  3  2  0  0  0  0
  5  2  1  0  0  0  0
  6  1  1  0  0  0  0
  6 27  1  0  0  0  0
  7  8  1  0  0  0  0
  7 12  1  1  0  0  0
  7 10  1  0  0  0  0
  8  9  1  0  0  0  0
  9 11  1  0  0  0  0
 11 10  1  0  0  0  0
 11  5  1  1  0  0  0
 12 13  2  0  0  0  0
 13 14  1  0  0  0  0
 14 19  1  0  0  0  0
 15 16  1  0  0  0  0
 15 22  1  0  0  0  0
 16 18  1  0  0  0  0
 17 23  1  0  0  0  0
 17 14  2  0  0  0  0
 18 21  1  0  0  0  0
 19 22  2  0  0  0  0
 20 21  1  0  0  0  0
 22 20  1  0  0  0  0
 23 15  2  0  0  0  0
 24 25  1  0  0  0  0
 25 29  1  0  0  0  0
 26 25  1  0  0  0  0
 27 26  2  0  0  0  0
 28 27  1  0  0  0  0
 28 24  2  0  0  0  0
 29 31  3  0  0  0  0
 31 30  1  0  0  0  0
 32 33  1  0  0  0  0
 32  3  1  0  0  0  0
 34 36  1  0  0  0  0
 34 33  1  0  0  0  0
 35 41  1  0  0  0  0
 35 43  1  0  0  0  0
 37 42  1  0  0  0  0
 38 40  2  0  0  0  0
 39 42  1  0  0  0  0
 40 39  1  0  0  0  0
 40 36  1  0  0  0  0
 41 39  1  0  0  0  0
 43 37  1  0  0  0  0
M  END
>  <MODEL>
2

>  <REMARK>
 VINA RESULT:      -8.5      4.422     10.560
  Name = 
  9 active torsions:
  status: ('A' for Active; 'I' for Inactive)
    1  A    between atoms: C_3  and  C_21
    2  A    between atoms: C_4  and  O_32
    3  A    between atoms: N_7  and  C_8
    4  A    between atoms: N_9  and  N_12
    5  A    between atoms: N_9  and  N_18
    6  A    between atoms: C_10  and  N_37
    7  A    between atoms: C_16  and  C_25
    8  A    between atoms: N_18  and  O_32
    9  A    between atoms: C_27  and  C_30
                            x       y       z     vdW  Elec       q    Type
                         _______ _______ _______ _____ _____    ______ ____

>  <TORSDO>
F 9

$$$$
=
 OpenBabel11042412563D

 43 48  0  0  1  0  0  0  0  0999 V2000
  186.9610  177.1990  137.1310 C   0  0  0  0  0  3  0  0  0  0  0  0
  186.6090  178.1700  139.2810 N   0  0  0  0  0  0  0  0  0  0  0  0
  184.7570  177.9760  137.7790 C   0  0  0  0  0  0  0  0  0  0  0  0
  185.6100  177.3880  136.8360 C   0  0  0  0  0  3  0  0  0  0  0  0
  185.2860  178.3650  139.0190 C   0  0  0  0  0  0  0  0  0  0  0  0
  187.4520  177.5990  138.3770 C   0  0  0  0  0  0  0  0  0  0  0  0
  184.4110  178.9940  142.4600 C   0  0  2  0  0  3  0  0  0  0  0  0
  183.6270  177.7860  141.9920 C   0  0  0  0  0  2  0  0  0  0  0  0
  183.3170  178.0650  140.5340 C   0  0  0  0  0  2  0  0  0  0  0  0
  185.2100  179.4420  141.2540 C   0  0  0  0  0  2  0  0  0  0  0  0
  184.4010  179.0160  140.0400 C   0  0  1  0  0  3  0  0  0  0  0  0
  185.3310  178.6380  143.5760 C   0  0  0  0  0  3  0  0  0  0  0  0
  186.5340  178.2300  143.3270 N   0  0  0  0  0  0  0  0  0  0  0  0
  187.4630  177.8530  144.3490 C   0  0  0  0  0  0  0  0  0  0  0  0
  189.3310  177.1180  146.3100 C   0  0  0  0  0  0  0  0  0  0  0  0
  190.3050  176.6600  147.3550 C   0  0  0  0  0  2  0  0  0  0  0  0
  187.1040  177.8510  145.7090 C   0  0  0  0  0  3  0  0  0  0  0  0
  191.6810  176.8720  146.9050 N   0  0  0  0  0  2  0  0  0  0  0  0
  188.7610  177.4810  143.9790 C   0  0  0  0  0  3  0  0  0  0  0  0
  191.0990  176.7640  144.5310 C   0  0  0  0  0  2  0  0  0  0  0  0
  191.8800  176.1150  145.6710 C   0  0  0  0  0  2  0  0  0  0  0  0
  189.6930  177.0950  144.9490 C   0  0  0  0  0  0  0  0  0  0  0  0
  188.0340  177.4800  146.6850 C   0  0  0  0  0  3  0  0  0  0  0  0
  190.7210  177.4240  139.7480 C   0  0  0  0  0  3  0  0  0  0  0  0
  190.8730  176.7140  138.6190 N   0  0  0  0  0  0  0  0  0  0  0  0
  189.7310  176.6870  137.9570 N   0  0  0  0  0  0  0  0  0  0  0  0
  188.8670  177.3820  138.7230 C   0  0  0  0  0  0  0  0  0  0  0  0
  189.4450  177.8620  139.8490 N   0  0  0  0  0  0  0  0  0  0  0  0
  192.0750  176.1880  138.1320 C   0  0  0  0  0  0  0  0  0  0  0  0
  194.3500  175.1850  137.1700 C   0  0  0  0  0  1  0  0  0  0  0  0
  193.1060  175.7350  137.7010 C   0  0  0  0  0  0  0  0  0  0  0  0
  183.4050  178.1860  137.4970 O   0  0  0  0  0  0  0  0  0  0  0  0
  182.5880  177.1570  137.0780 N   0  0  0  0  0  2  0  0  0  0  0  0
  181.3000  177.6900  136.9370 N   0  0  0  0  0  2  0  0  0  0  0  0
  179.5530  180.4740  142.0700 C   0  0  0  0  0  2  0  0  0  0  0  0
  180.7660  177.7820  138.2320 N   0  0  0  0  0  2  0  0  0  0  0  0
  179.8820  178.1370  142.3220 C   0  0  0  0  0  2  0  0  0  0  0  0
  180.2750  180.0470  138.0150 O   0  0  0  0  0  0  0  0  0  0  0  0
  179.7420  179.0840  140.0760 N   0  0  0  0  0  0  0  0  0  0  0  0
  180.2580  179.0140  138.7390 C   0  0  0  0  0  0  0  0  0  0  0  0
  179.1860  180.3330  140.5940 C   0  0  0  0  0  2  0  0  0  0  0  0
  179.5590  177.8620  140.8520 C   0  0  0  0  0  2  0  0  0  0  0  0
  179.1140  179.2880  142.8010 N   0  0  0  0  0  2  0  0  0  0  0  0
  1  6  1  0  0  0  0
  3  5  2  0  0  0  0
  4  1  2  0  0  0  0
  4  3  1  0  0  0  0
  5  2  1  0  0  0  0
  6 27  1  0  0  0  0
  6  2  2  0  0  0  0
  7 12  1  1  0  0  0
  8  7  1  0  0  0  0
  9  8  1  0  0  0  0
 10  7  1  0  0  0  0
 11  5  1  6  0  0  0
 11  9  1  0  0  0  0
 11 10  1  0  0  0  0
 13 12  2  0  0  0  0
 13 14  1  0  0  0  0
 14 17  1  0  0  0  0
 15 23  1  0  0  0  0
 15 16  1  0  0  0  0
 17 23  2  0  0  0  0
 18 16  1  0  0  0  0
 19 14  2  0  0  0  0
 19 22  1  0  0  0  0
 20 22  1  0  0  0  0
 20 21  1  0  0  0  0
 21 18  1  0  0  0  0
 22 15  2  0  0  0  0
 24 28  2  0  0  0  0
 25 24  1  0  0  0  0
 26 25  1  0  0  0  0
 26 27  2  0  0  0  0
 27 28  1  0  0  0  0
 29 25  1  0  0  0  0
 30 31  1  0  0  0  0
 31 29  3  0  0  0  0
 32  3  1  0  0  0  0
 33 32  1  0  0  0  0
 34 33  1  0  0  0  0
 34 36  1  0  0  0  0
 35 43  1  0  0  0  0
 36 40  1  0  0  0  0
 37 43  1  0  0  0  0
 38 40  2  0  0  0  0
 39 41  1  0  0  0  0
 39 42  1  0  0  0  0
 40 39  1  0  0  0  0
 41 35  1  0  0  0  0
 42 37  1  0  0  0  0
M  END
>  <MODEL>
3

>  <REMARK>
 VINA RESULT:      -8.5      2.116      6.462
  Name = 
  9 active torsions:
  status: ('A' for Active; 'I' for Inactive)
    1  A    between atoms: C_3  and  C_21
    2  A    between atoms: C_4  and  O_32
    3  A    between atoms: N_7  and  C_8
    4  A    between atoms: N_9  and  N_12
    5  A    between atoms: N_9  and  N_18
    6  A    between atoms: C_10  and  N_37
    7  A    between atoms: C_16  and  C_25
    8  A    between atoms: N_18  and  O_32
    9  A    between atoms: C_27  and  C_30
                            x       y       z     vdW  Elec       q    Type
                         _______ _______ _______ _____ _____    ______ ____

>  <TORSDO>
F 9

$$$$
=
 OpenBabel11042412563D

 43 48  0  0  1  0  0  0  0  0999 V2000
  183.0980  178.7760  144.3930 C   0  0  0  0  0  3  0  0  0  0  0  0
  183.9820  178.4020  142.2090 N   0  0  0  0  0  0  0  0  0  0  0  0
  181.6780  179.0020  142.4400 C   0  0  0  0  0  0  0  0  0  0  0  0
  181.8520  179.0540  143.8280 C   0  0  0  0  0  3  0  0  0  0  0  0
  182.7770  178.6690  141.6330 C   0  0  0  0  0  0  0  0  0  0  0  0
  184.1700  178.4490  143.5580 C   0  0  0  0  0  0  0  0  0  0  0  0
  184.2070  178.3040  138.3430 C   0  0  2  0  0  3  0  0  0  0  0  0
  184.1190  179.7840  138.6530 C   0  0  0  0  0  2  0  0  0  0  0  0
  182.8540  179.9340  139.4750 C   0  0  0  0  0  2  0  0  0  0  0  0
  183.6180  177.6090  139.5520 C   0  0  0  0  0  2  0  0  0  0  0  0
  182.6160  178.5860  140.1440 C   0  0  1  0  0  3  0  0  0  0  0  0
  185.6220  177.8800  138.1500 C   0  0  0  0  0  3  0  0  0  0  0  0
  186.5050  178.1130  139.0670 N   0  0  0  0  0  0  0  0  0  0  0  0
  187.8840  177.7510  138.9400 C   0  0  0  0  0  0  0  0  0  0  0  0
  190.5780  177.0260  138.6300 C   0  0  0  0  0  0  0  0  0  0  0  0
  192.0040  176.5810  138.4990 C   0  0  0  0  0  2  0  0  0  0  0  0
  188.8250  178.0660  139.9370 C   0  0  0  0  0  3  0  0  0  0  0  0
  192.3710  176.4300  137.0910 N   0  0  0  0  0  2  0  0  0  0  0  0
  188.3010  177.0680  137.7910 C   0  0  0  0  0  3  0  0  0  0  0  0
  190.0720  176.0130  136.3650 C   0  0  0  0  0  2  0  0  0  0  0  0
  191.4810  175.4390  136.4910 C   0  0  0  0  0  2  0  0  0  0  0  0
  189.6380  176.6870  137.6370 C   0  0  0  0  0  0  0  0  0  0  0  0
  190.1660  177.7000  139.7840 C   0  0  0  0  0  3  0  0  0  0  0  0
  187.0860  177.9040  145.5050 C   0  0  0  0  0  3  0  0  0  0  0  0
  187.5600  177.7070  144.2650 N   0  0  0  0  0  0  0  0  0  0  0  0
  186.5900  177.8900  143.3880 N   0  0  0  0  0  0  0  0  0  0  0  0
  185.5010  178.1810  144.1270 C   0  0  0  0  0  0  0  0  0  0  0  0
  185.7670  178.2030  145.4540 N   0  0  0  0  0  0  0  0  0  0  0  0
  188.8970  177.4760  143.9200 C   0  0  0  0  0  0  0  0  0  0  0  0
  191.4320  177.0070  143.2430 C   0  0  0  0  0  1  0  0  0  0  0  0
  190.0440  177.2680  143.6160 C   0  0  0  0  0  0  0  0  0  0  0  0
  180.4360  179.2640  141.8560 O   0  0  0  0  0  0  0  0  0  0  0  0
  180.0290  180.5520  141.5770 N   0  0  0  0  0  2  0  0  0  0  0  0
  179.0470  180.4620  140.5800 N   0  0  0  0  0  2  0  0  0  0  0  0
  180.8910  184.1720  136.1100 C   0  0  0  0  0  2  0  0  0  0  0  0
  179.1160  181.6570  139.8490 N   0  0  0  0  0  2  0  0  0  0  0  0
  179.9920  185.3180  137.9840 C   0  0  0  0  0  2  0  0  0  0  0  0
  179.8630  180.5920  137.9190 O   0  0  0  0  0  0  0  0  0  0  0  0
  179.6300  182.9120  137.7730 N   0  0  0  0  0  0  0  0  0  0  0  0
  179.5450  181.6710  138.4880 C   0  0  0  0  0  0  0  0  0  0  0  0
  180.0350  182.9330  136.3680 C   0  0  0  0  0  2  0  0  0  0  0  0
  179.1000  184.1350  138.3670 C   0  0  0  0  0  2  0  0  0  0  0  0
  180.1650  185.3680  136.5320 N   0  0  0  0  0  2  0  0  0  0  0  0
  2  6  1  0  0  0  0
  3  4  2  0  0  0  0
  4  1  1  0  0  0  0
  5  2  2  0  0  0  0
  5  3  1  0  0  0  0
  6 27  1  0  0  0  0
  6  1  2  0  0  0  0
  7 12  1  1  0  0  0
  7  8  1  0  0  0  0
  7 10  1  0  0  0  0
  8  9  1  0  0  0  0
  9 11  1  0  0  0  0
 10 11  1  0  0  0  0
 11  5  1  1  0  0  0
 12 13  2  0  0  0  0
 14 13  1  0  0  0  0
 14 17  1  0  0  0  0
 15 23  1  0  0  0  0
 16 15  1  0  0  0  0
 18 16  1  0  0  0  0
 19 14  2  0  0  0  0
 20 21  1  0  0  0  0
 20 22  1  0  0  0  0
 21 18  1  0  0  0  0
 22 19  1  0  0  0  0
 22 15  2  0  0  0  0
 23 17  2  0  0  0  0
 25 24  1  0  0  0  0
 26 27  2  0  0  0  0
 26 25  1  0  0  0  0
 27 28  1  0  0  0  0
 28 24  2  0  0  0  0
 29 25  1  0  0  0  0
 30 31  1  0  0  0  0
 31 29  3  0  0  0  0
 32  3  1  0  0  0  0
 33 32  1  0  0  0  0
 34 33  1  0  0  0  0
 35 41  1  0  0  0  0
 35 43  1  0  0  0  0
 36 34  1  0  0  0  0
 37 42  1  0  0  0  0
 38 40  2  0  0  0  0
 39 42  1  0  0  0  0
 39 40  1  0  0  0  0
 40 36  1  0  0  0  0
 41 39  1  0  0  0  0
 43 37  1  0  0  0  0
M  END
>  <MODEL>
4

>  <REMARK>
 VINA RESULT:      -8.4      2.926      4.139
  Name = 
  9 active torsions:
  status: ('A' for Active; 'I' for Inactive)
    1  A    between atoms: C_3  and  C_21
    2  A    between atoms: C_4  and  O_32
    3  A    between atoms: N_7  and  C_8
    4  A    between atoms: N_9  and  N_12
    5  A    between atoms: N_9  and  N_18
    6  A    between atoms: C_10  and  N_37
    7  A    between atoms: C_16  and  C_25
    8  A    between atoms: N_18  and  O_32
    9  A    between atoms: C_27  and  C_30
                            x       y       z     vdW  Elec       q    Type
                         _______ _______ _______ _____ _____    ______ ____

>  <TORSDO>
F 9

$$$$
=
 OpenBabel11042412563D

 43 48  0  0  1  0  0  0  0  0999 V2000
  184.3820  175.9370  136.5690 C   0  0  0  0  0  3  0  0  0  0  0  0
  186.0400  177.2760  137.6390 N   0  0  0  0  0  0  0  0  0  0  0  0
  186.7280  175.6410  136.0340 C   0  0  0  0  0  0  0  0  0  0  0  0
  185.3860  175.2880  135.8490 C   0  0  0  0  0  3  0  0  0  0  0  0
  187.0400  176.6580  136.9490 C   0  0  0  0  0  0  0  0  0  0  0  0
  184.7290  176.9450  137.4720 C   0  0  0  0  0  0  0  0  0  0  0  0
  189.6970  177.6340  139.1820 C   0  0  2  0  0  3  0  0  0  0  0  0
  189.0440  178.8940  138.6540 C   0  0  0  0  0  2  0  0  0  0  0  0
  188.6440  178.5580  137.2310 C   0  0  0  0  0  2  0  0  0  0  0  0
  188.9630  176.4940  138.5090 C   0  0  0  0  0  2  0  0  0  0  0  0
  188.4700  177.0450  137.1820 C   0  0  1  0  0  3  0  0  0  0  0  0
  189.5500  177.5320  140.6610 C   0  0  0  0  0  3  0  0  0  0  0  0
  188.3960  177.7130  141.2170 N   0  0  0  0  0  0  0  0  0  0  0  0
  188.1860  177.6480  142.6320 C   0  0  0  0  0  0  0  0  0  0  0  0
  187.8390  177.5310  145.4140 C   0  0  0  0  0  0  0  0  0  0  0  0
  187.6420  177.4000  146.8960 C   0  0  0  0  0  2  0  0  0  0  0  0
  186.8990  177.7310  143.1920 C   0  0  0  0  0  3  0  0  0  0  0  0
  188.8420  177.8280  147.6150 N   0  0  0  0  0  2  0  0  0  0  0  0
  189.2950  177.5030  143.4740 C   0  0  0  0  0  3  0  0  0  0  0  0
  190.3420  177.3340  145.7460 C   0  0  0  0  0  2  0  0  0  0  0  0
  189.9570  176.9900  147.1830 C   0  0  0  0  0  2  0  0  0  0  0  0
  189.1290  177.4250  144.8600 C   0  0  0  0  0  0  0  0  0  0  0  0
  186.7260  177.6670  144.5780 C   0  0  0  0  0  3  0  0  0  0  0  0
  182.0600  178.9370  138.6940 C   0  0  0  0  0  3  0  0  0  0  0  0
  182.4690  178.3300  139.8200 N   0  0  0  0  0  0  0  0  0  0  0  0
  183.4930  177.5430  139.5480 N   0  0  0  0  0  0  0  0  0  0  0  0
  183.6860  177.6650  138.2200 C   0  0  0  0  0  0  0  0  0  0  0  0
  182.8140  178.5290  137.6480 N   0  0  0  0  0  0  0  0  0  0  0  0
  181.9890  178.5780  141.1110 C   0  0  0  0  0  0  0  0  0  0  0  0
  181.0810  179.0140  143.5790 C   0  0  0  0  0  1  0  0  0  0  0  0
  181.5780  178.7800  142.2260 C   0  0  0  0  0  0  0  0  0  0  0  0
  187.7490  174.9950  135.3320 O   0  0  0  0  0  0  0  0  0  0  0  0
  188.0010  173.6500  135.5020 N   0  0  0  0  0  2  0  0  0  0  0  0
  189.1940  173.3690  134.8220 N   0  0  0  0  0  2  0  0  0  0  0  0
  194.3290  174.3750  137.9460 C   0  0  0  0  0  2  0  0  0  0  0  0
  190.1920  174.1370  135.4410 N   0  0  0  0  0  2  0  0  0  0  0  0
  192.8480  176.2300  137.9320 C   0  0  0  0  0  2  0  0  0  0  0  0
  191.7550  172.4140  135.3630 O   0  0  0  0  0  0  0  0  0  0  0  0
  192.4800  174.4000  136.3570 N   0  0  0  0  0  0  0  0  0  0  0  0
  191.4880  173.5990  135.7000 C   0  0  0  0  0  0  0  0  0  0  0  0
  193.8220  173.8710  136.5960 C   0  0  0  0  0  2  0  0  0  0  0  0
  192.2360  175.8190  136.5910 C   0  0  0  0  0  2  0  0  0  0  0  0
  194.2560  175.8330  137.9850 N   0  0  0  0  0  2  0  0  0  0  0  0
  1  6  1  0  0  0  0
  3  5  2  0  0  0  0
  4  3  1  0  0  0  0
  4  1  2  0  0  0  0
  5  2  1  0  0  0  0
  6  2  2  0  0  0  0
  6 27  1  0  0  0  0
  7 12  1  1  0  0  0
  8  7  1  0  0  0  0
  9  8  1  0  0  0  0
 10  7  1  0  0  0  0
 11  5  1  1  0  0  0
 11  9  1  0  0  0  0
 11 10  1  0  0  0  0
 12 13  2  0  0  0  0
 13 14  1  0  0  0  0
 14 17  2  0  0  0  0
 14 19  1  0  0  0  0
 15 16  1  0  0  0  0
 16 18  1  0  0  0  0
 17 23  1  0  0  0  0
 19 22  2  0  0  0  0
 20 21  1  0  0  0  0
 21 18  1  0  0  0  0
 22 15  1  0  0  0  0
 22 20  1  0  0  0  0
 23 15  2  0  0  0  0
 24 25  1  0  0  0  0
 25 29  1  0  0  0  0
 26 25  1  0  0  0  0
 27 26  2  0  0  0  0
 28 27  1  0  0  0  0
 28 24  2  0  0  0  0
 29 31  3  0  0  0  0
 31 30  1  0  0  0  0
 32 33  1  0  0  0  0
 32  3  1  0  0  0  0
 34 36  1  0  0  0  0
 34 33  1  0  0  0  0
 35 43  1  0  0  0  0
 36 40  1  0  0  0  0
 37 43  1  0  0  0  0
 38 40  2  0  0  0  0
 39 42  1  0  0  0  0
 39 41  1  0  0  0  0
 40 39  1  0  0  0  0
 41 35  1  0  0  0  0
 42 37  1  0  0  0  0
M  END
>  <MODEL>
5

>  <REMARK>
 VINA RESULT:      -8.3      3.439      9.663
  Name = 
  9 active torsions:
  status: ('A' for Active; 'I' for Inactive)
    1  A    between atoms: C_3  and  C_21
    2  A    between atoms: C_4  and  O_32
    3  A    between atoms: N_7  and  C_8
    4  A    between atoms: N_9  and  N_12
    5  A    between atoms: N_9  and  N_18
    6  A    between atoms: C_10  and  N_37
    7  A    between atoms: C_16  and  C_25
    8  A    between atoms: N_18  and  O_32
    9  A    between atoms: C_27  and  C_30
                            x       y       z     vdW  Elec       q    Type
                         _______ _______ _______ _____ _____    ______ ____

>  <TORSDO>
F 9

$$$$
=
 OpenBabel11042412563D

 43 48  0  0  1  0  0  0  0  0999 V2000
  184.1310  178.6790  144.5720 C   0  0  0  0  0  3  0  0  0  0  0  0
  184.4110  178.2560  142.2420 N   0  0  0  0  0  0  0  0  0  0  0  0
  182.2610  178.9260  143.0480 C   0  0  0  0  0  0  0  0  0  0  0  0
  182.7890  178.9880  144.3440 C   0  0  0  0  0  3  0  0  0  0  0  0
  183.1050  178.5530  141.9910 C   0  0  0  0  0  0  0  0  0  0  0  0
  184.9420  178.3120  143.4950 C   0  0  0  0  0  0  0  0  0  0  0  0
  183.6120  178.0010  138.4640 C   0  0  2  0  0  3  0  0  0  0  0  0
  183.7310  179.4880  138.7260 C   0  0  0  0  0  2  0  0  0  0  0  0
  182.7350  179.7680  139.8350 C   0  0  0  0  0  2  0  0  0  0  0  0
  183.2950  177.3840  139.8100 C   0  0  0  0  0  2  0  0  0  0  0  0
  182.5630  178.4590  140.5960 C   0  0  1  0  0  3  0  0  0  0  0  0
  184.8890  177.4450  137.9370 C   0  0  0  0  0  3  0  0  0  0  0  0
  185.9330  178.2020  137.8210 N   0  0  0  0  0  0  0  0  0  0  0  0
  187.1850  177.7400  137.3050 C   0  0  0  0  0  0  0  0  0  0  0  0
  189.6560  176.8090  136.3510 C   0  0  0  0  0  0  0  0  0  0  0  0
  190.9990  176.3780  135.8400 C   0  0  0  0  0  2  0  0  0  0  0  0
  187.4410  177.6890  135.9230 C   0  0  0  0  0  3  0  0  0  0  0  0
  191.6490  175.4790  136.7940 N   0  0  0  0  0  2  0  0  0  0  0  0
  188.1760  177.3260  138.2040 C   0  0  0  0  0  3  0  0  0  0  0  0
  190.4390  176.3770  138.7210 C   0  0  0  0  0  2  0  0  0  0  0  0
  191.8020  176.1910  138.0600 C   0  0  0  0  0  2  0  0  0  0  0  0
  189.4160  176.8780  137.7380 C   0  0  0  0  0  0  0  0  0  0  0  0
  188.6740  177.2300  135.4490 C   0  0  0  0  0  3  0  0  0  0  0  0
  188.4140  177.5940  143.3500 C   0  0  0  0  0  3  0  0  0  0  0  0
  188.2080  177.6220  144.6770 N   0  0  0  0  0  0  0  0  0  0  0  0
  186.9340  177.8670  144.9200 N   0  0  0  0  0  0  0  0  0  0  0  0
  186.3670  178.0110  143.7060 C   0  0  0  0  0  0  0  0  0  0  0  0
  187.2550  177.8450  142.6980 N   0  0  0  0  0  0  0  0  0  0  0  0
  189.1510  177.3130  145.6640 C   0  0  0  0  0  0  0  0  0  0  0  0
  190.9680  176.7530  147.5320 C   0  0  0  0  0  1  0  0  0  0  0  0
  189.9690  177.0570  146.5110 C   0  0  0  0  0  0  0  0  0  0  0  0
  180.9170  179.2200  142.8000 O   0  0  0  0  0  0  0  0  0  0  0  0
  180.4270  180.5030  142.9160 N   0  0  0  0  0  2  0  0  0  0  0  0
  179.1870  180.5270  142.2620 N   0  0  0  0  0  2  0  0  0  0  0  0
  180.5990  181.1270  136.3640 C   0  0  0  0  0  2  0  0  0  0  0  0
  179.3910  181.2080  141.0530 N   0  0  0  0  0  2  0  0  0  0  0  0
  180.7290  183.1600  137.5820 C   0  0  0  0  0  2  0  0  0  0  0  0
  179.1320  179.2830  139.7690 O   0  0  0  0  0  0  0  0  0  0  0  0
  179.5940  181.2420  138.5820 N   0  0  0  0  0  0  0  0  0  0  0  0
  179.3570  180.5240  139.8010 C   0  0  0  0  0  0  0  0  0  0  0  0
  179.5270  180.5580  137.2920 C   0  0  0  0  0  2  0  0  0  0  0  0
  179.6810  182.6980  138.5980 C   0  0  0  0  0  2  0  0  0  0  0  0
  180.4480  182.5770  136.2690 N   0  0  0  0  0  2  0  0  0  0  0  0
  2  6  1  0  0  0  0
  3  4  2  0  0  0  0
  4  1  1  0  0  0  0
  5  2  2  0  0  0  0
  5  3  1  0  0  0  0
  6 27  1  0  0  0  0
  6  1  2  0  0  0  0
  7 12  1  1  0  0  0
  7  8  1  0  0  0  0
  7 10  1  0  0  0  0
  8  9  1  0  0  0  0
  9 11  1  0  0  0  0
 10 11  1  0  0  0  0
 11  5  1  1  0  0  0
 13 12  2  0  0  0  0
 14 13  1  0  0  0  0
 14 19  1  0  0  0  0
 15 22  1  0  0  0  0
 16 15  1  0  0  0  0
 16 18  1  0  0  0  0
 17 14  2  0  0  0  0
 18 21  1  0  0  0  0
 21 20  1  0  0  0  0
 22 19  2  0  0  0  0
 22 20  1  0  0  0  0
 23 17  1  0  0  0  0
 23 15  2  0  0  0  0
 24 25  1  0  0  0  0
 25 26  1  0  0  0  0
 25 29  1  0  0  0  0
 27 26  2  0  0  0  0
 28 24  2  0  0  0  0
 28 27  1  0  0  0  0
 29 31  3  0  0  0  0
 31 30  1  0  0  0  0
 32 33  1  0  0  0  0
 32  3  1  0  0  0  0
 34 33  1  0  0  0  0
 35 41  1  0  0  0  0
 36 34  1  0  0  0  0
 37 42  1  0  0  0  0
 38 40  2  0  0  0  0
 39 42  1  0  0  0  0
 39 40  1  0  0  0  0
 40 36  1  0  0  0  0
 41 39  1  0  0  0  0
 43 35  1  0  0  0  0
 43 37  1  0  0  0  0
M  END
>  <MODEL>
6

>  <REMARK>
 VINA RESULT:      -8.3      2.187      2.904
  Name = 
  9 active torsions:
  status: ('A' for Active; 'I' for Inactive)
    1  A    between atoms: C_3  and  C_21
    2  A    between atoms: C_4  and  O_32
    3  A    between atoms: N_7  and  C_8
    4  A    between atoms: N_9  and  N_12
    5  A    between atoms: N_9  and  N_18
    6  A    between atoms: C_10  and  N_37
    7  A    between atoms: C_16  and  C_25
    8  A    between atoms: N_18  and  O_32
    9  A    between atoms: C_27  and  C_30
                            x       y       z     vdW  Elec       q    Type
                         _______ _______ _______ _____ _____    ______ ____

>  <TORSDO>
F 9

$$$$
=
 OpenBabel11042412563D

 43 48  0  0  1  0  0  0  0  0999 V2000
  187.7880  178.6950  141.3510 C   0  0  0  0  0  3  0  0  0  0  0  0
  186.0720  178.6260  139.6960 N   0  0  0  0  0  0  0  0  0  0  0  0
  185.4770  179.0970  141.9650 C   0  0  0  0  0  0  0  0  0  0  0  0
  186.8270  178.9870  142.3200 C   0  0  0  0  0  3  0  0  0  0  0  0
  185.1130  178.9110  140.6230 C   0  0  0  0  0  0  0  0  0  0  0  0
  187.3890  178.5170  140.0240 C   0  0  0  0  0  0  0  0  0  0  0  0
  182.2450  177.5410  138.9210 C   0  0  2  0  0  3  0  0  0  0  0  0
  182.9710  178.4510  137.9540 C   0  0  0  0  0  2  0  0  0  0  0  0
  183.5180  179.5750  138.8130 C   0  0  0  0  0  2  0  0  0  0  0  0
  183.0300  177.6260  140.2130 C   0  0  0  0  0  2  0  0  0  0  0  0
  183.6730  179.0030  140.2170 C   0  0  1  0  0  3  0  0  0  0  0  0
  182.2290  176.1360  138.4270 C   0  0  0  0  0  3  0  0  0  0  0  0
  183.3180  175.5800  138.0000 N   0  0  0  0  0  0  0  0  0  0  0  0
  183.3710  174.2430  137.4940 C   0  0  0  0  0  0  0  0  0  0  0  0
  183.4200  171.6290  136.4710 C   0  0  0  0  0  0  0  0  0  0  0  0
  183.4300  170.2100  135.9870 C   0  0  0  0  0  2  0  0  0  0  0  0
  184.5370  173.4610  137.5930 C   0  0  0  0  0  3  0  0  0  0  0  0
  182.4460  170.0210  134.9210 N   0  0  0  0  0  2  0  0  0  0  0  0
  182.2320  173.7040  136.8830 C   0  0  0  0  0  3  0  0  0  0  0  0
  181.0270  171.8660  135.6770 C   0  0  0  0  0  2  0  0  0  0  0  0
  181.1280  170.3590  135.4520 C   0  0  0  0  0  2  0  0  0  0  0  0
  182.2420  172.3970  136.3870 C   0  0  0  0  0  0  0  0  0  0  0  0
  184.5590  172.1580  137.0880 C   0  0  0  0  0  3  0  0  0  0  0  0
  189.4310  178.2430  137.1340 C   0  0  0  0  0  3  0  0  0  0  0  0
  190.0960  177.4610  137.9980 N   0  0  0  0  0  0  0  0  0  0  0  0
  189.4540  177.4320  139.1510 N   0  0  0  0  0  0  0  0  0  0  0  0
  188.3880  178.2380  138.9780 C   0  0  0  0  0  0  0  0  0  0  0  0
  188.3330  178.7630  137.7310 N   0  0  0  0  0  0  0  0  0  0  0  0
  191.2220  176.6820  137.7070 C   0  0  0  0  0  0  0  0  0  0  0  0
  193.3570  175.2000  137.1150 C   0  0  0  0  0  1  0  0  0  0  0  0
  192.1880  176.0120  137.4440 C   0  0  0  0  0  0  0  0  0  0  0  0
  184.4990  179.3760  142.9230 O   0  0  0  0  0  0  0  0  0  0  0  0
  184.0900  178.4260  143.8340 N   0  0  0  0  0  2  0  0  0  0  0  0
  184.3920  178.9250  145.1080 N   0  0  0  0  0  2  0  0  0  0  0  0
  189.4320  178.2530  148.4680 C   0  0  0  0  0  2  0  0  0  0  0  0
  185.6450  178.3970  145.4540 N   0  0  0  0  0  2  0  0  0  0  0  0
  189.6650  177.4680  146.2410 C   0  0  0  0  0  2  0  0  0  0  0  0
  185.4340  179.0030  147.6910 O   0  0  0  0  0  0  0  0  0  0  0  0
  187.4320  177.9390  147.1100 N   0  0  0  0  0  0  0  0  0  0  0  0
  186.1360  178.4660  146.7910 C   0  0  0  0  0  0  0  0  0  0  0  0
  187.9300  177.9730  148.4840 C   0  0  0  0  0  2  0  0  0  0  0  0
  188.1700  177.1650  146.1180 C   0  0  0  0  0  2  0  0  0  0  0  0
  190.1060  177.2710  147.6220 N   0  0  0  0  0  2  0  0  0  0  0  0
  1  4  1  0  0  0  0
  2  6  1  0  0  0  0
  2  5  2  0  0  0  0
  3  4  2  0  0  0  0
  3 32  1  0  0  0  0
  5  3  1  0  0  0  0
  6  1  2  0  0  0  0
  7 12  1  6  0  0  0
  7 10  1  0  0  0  0
  8  9  1  0  0  0  0
  8  7  1  0  0  0  0
  9 11  1  0  0  0  0
 10 11  1  0  0  0  0
 11  5  1  6  0  0  0
 13 12  2  0  0  0  0
 14 17  1  0  0  0  0
 14 13  1  0  0  0  0
 15 23  1  0  0  0  0
 16 15  1  0  0  0  0
 18 21  1  0  0  0  0
 18 16  1  0  0  0  0
 19 14  2  0  0  0  0
 20 22  1  0  0  0  0
 21 20  1  0  0  0  0
 22 15  2  0  0  0  0
 22 19  1  0  0  0  0
 23 17  2  0  0  0  0
 24 28  2  0  0  0  0
 24 25  1  0  0  0  0
 25 26  1  0  0  0  0
 27 26  2  0  0  0  0
 27  6  1  0  0  0  0
 28 27  1  0  0  0  0
 29 25  1  0  0  0  0
 30 31  1  0  0  0  0
 31 29  3  0  0  0  0
 32 33  1  0  0  0  0
 33 34  1  0  0  0  0
 34 36  1  0  0  0  0
 35 41  1  0  0  0  0
 36 40  1  0  0  0  0
 37 43  1  0  0  0  0
 39 41  1  0  0  0  0
 40 39  1  0  0  0  0
 40 38  2  0  0  0  0
 42 37  1  0  0  0  0
 42 39  1  0  0  0  0
 43 35  1  0  0  0  0
M  END
>  <MODEL>
7

>  <REMARK>
 VINA RESULT:      -8.2      3.167      7.894
  Name = 
  9 active torsions:
  status: ('A' for Active; 'I' for Inactive)
    1  A    between atoms: C_3  and  C_21
    2  A    between atoms: C_4  and  O_32
    3  A    between atoms: N_7  and  C_8
    4  A    between atoms: N_9  and  N_12
    5  A    between atoms: N_9  and  N_18
    6  A    between atoms: C_10  and  N_37
    7  A    between atoms: C_16  and  C_25
    8  A    between atoms: N_18  and  O_32
    9  A    between atoms: C_27  and  C_30
                            x       y       z     vdW  Elec       q    Type
                         _______ _______ _______ _____ _____    ______ ____

>  <TORSDO>
F 9

$$$$
=
 OpenBabel11042412563D

 43 48  0  0  1  0  0  0  0  0999 V2000
  190.6160  177.3650  142.6530 C   0  0  0  0  0  3  0  0  0  0  0  0
  189.0960  177.5130  140.8210 N   0  0  0  0  0  0  0  0  0  0  0  0
  191.4310  177.2480  140.3730 C   0  0  0  0  0  0  0  0  0  0  0  0
  191.6730  177.2360  141.7520 C   0  0  0  0  0  3  0  0  0  0  0  0
  190.1110  177.3890  139.9190 C   0  0  0  0  0  0  0  0  0  0  0  0
  189.3130  177.5030  142.1650 C   0  0  0  0  0  0  0  0  0  0  0  0
  187.7570  177.4510  137.1880 C   0  0  2  0  0  3  0  0  0  0  0  0
  188.1060  176.0050  137.4710 C   0  0  0  0  0  2  0  0  0  0  0  0
  189.5630  176.0310  137.8890 C   0  0  0  0  0  2  0  0  0  0  0  0
  188.5840  178.2590  138.1660 C   0  0  0  0  0  2  0  0  0  0  0  0
  189.8230  177.4250  138.4470 C   0  0  1  0  0  3  0  0  0  0  0  0
  186.3080  177.7080  137.4130 C   0  0  0  0  0  3  0  0  0  0  0  0
  185.8980  178.2000  138.5390 N   0  0  0  0  0  0  0  0  0  0  0  0
  184.5200  178.4540  138.8290 C   0  0  0  0  0  0  0  0  0  0  0  0
  181.8110  178.8920  139.4230 C   0  0  0  0  0  0  0  0  0  0  0  0
  180.3500  179.1230  139.6720 C   0  0  0  0  0  2  0  0  0  0  0  0
  183.9870  179.7560  138.8050 C   0  0  0  0  0  3  0  0  0  0  0  0
  179.7970  178.0630  140.5150 N   0  0  0  0  0  2  0  0  0  0  0  0
  183.6860  177.3750  139.1490 C   0  0  0  0  0  3  0  0  0  0  0  0
  181.4720  176.4160  139.8320 C   0  0  0  0  0  2  0  0  0  0  0  0
  179.9920  176.7870  139.8310 C   0  0  0  0  0  2  0  0  0  0  0  0
  182.3310  177.5830  139.4280 C   0  0  0  0  0  0  0  0  0  0  0  0
  182.6370  179.9720  139.0960 C   0  0  0  0  0  3  0  0  0  0  0  0
  186.9890  177.5040  144.8460 C   0  0  0  0  0  3  0  0  0  0  0  0
  186.2490  178.0360  143.8600 N   0  0  0  0  0  0  0  0  0  0  0  0
  186.9690  178.0970  142.7540 N   0  0  0  0  0  0  0  0  0  0  0  0
  188.1770  177.6100  143.0960 C   0  0  0  0  0  0  0  0  0  0  0  0
  188.2320  177.2250  144.3930 N   0  0  0  0  0  0  0  0  0  0  0  0
  184.8890  178.3580  143.9310 C   0  0  0  0  0  0  0  0  0  0  0  0
  182.3040  178.9970  144.0390 C   0  0  0  0  0  1  0  0  0  0  0  0
  183.7200  178.6440  143.9820 C   0  0  0  0  0  0  0  0  0  0  0  0
  192.4780  177.1330  139.4540 O   0  0  0  0  0  0  0  0  0  0  0  0
  193.7660  177.5000  139.7800 N   0  0  0  0  0  2  0  0  0  0  0  0
  194.4900  176.3170  139.9780 N   0  0  0  0  0  2  0  0  0  0  0  0
  196.5550  172.5750  135.6330 C   0  0  0  0  0  2  0  0  0  0  0  0
  194.4630  175.6280  138.7560 N   0  0  0  0  0  2  0  0  0  0  0  0
  194.8790  174.0750  134.8760 C   0  0  0  0  0  2  0  0  0  0  0  0
  195.9960  174.0270  139.4700 O   0  0  0  0  0  0  0  0  0  0  0  0
  195.2270  173.7920  137.2760 N   0  0  0  0  0  0  0  0  0  0  0  0
  195.2570  174.4610  138.5440 C   0  0  0  0  0  0  0  0  0  0  0  0
  196.0100  172.5760  137.0600 C   0  0  0  0  0  2  0  0  0  0  0  0
  194.2500  174.1830  136.2660 C   0  0  0  0  0  2  0  0  0  0  0  0
  195.4560  172.7430  134.6860 N   0  0  0  0  0  2  0  0  0  0  0  0
  2  6  2  0  0  0  0
  3  4  1  0  0  0  0
  4  1  2  0  0  0  0
  5  3  2  0  0  0  0
  5  2  1  0  0  0  0
  6  1  1  0  0  0  0
  6 27  1  0  0  0  0
  7 12  1  1  0  0  0
  7  8  1  0  0  0  0
  7 10  1  0  0  0  0
  8  9  1  0  0  0  0
  9 11  1  0  0  0  0
 10 11  1  0  0  0  0
 11  5  1  1  0  0  0
 12 13  2  0  0  0  0
 13 14  1  0  0  0  0
 14 19  1  0  0  0  0
 15 22  1  0  0  0  0
 15 16  1  0  0  0  0
 16 18  1  0  0  0  0
 17 14  2  0  0  0  0
 17 23  1  0  0  0  0
 19 22  2  0  0  0  0
 21 20  1  0  0  0  0
 21 18  1  0  0  0  0
 22 20  1  0  0  0  0
 23 15  2  0  0  0  0
 25 29  1  0  0  0  0
 25 24  1  0  0  0  0
 26 27  2  0  0  0  0
 26 25  1  0  0  0  0
 27 28  1  0  0  0  0
 28 24  2  0  0  0  0
 29 31  3  0  0  0  0
 31 30  1  0  0  0  0
 32 33  1  0  0  0  0
 32  3  1  0  0  0  0
 33 34  1  0  0  0  0
 35 41  1  0  0  0  0
 36 34  1  0  0  0  0
 37 42  1  0  0  0  0
 39 40  1  0  0  0  0
 40 36  1  0  0  0  0
 40 38  2  0  0  0  0
 41 39  1  0  0  0  0
 42 39  1  0  0  0  0
 43 37  1  0  0  0  0
 43 35  1  0  0  0  0
M  END
>  <MODEL>
8

>  <REMARK>
 VINA RESULT:      -8.2      3.983     10.209
  Name = 
  9 active torsions:
  status: ('A' for Active; 'I' for Inactive)
    1  A    between atoms: C_3  and  C_21
    2  A    between atoms: C_4  and  O_32
    3  A    between atoms: N_7  and  C_8
    4  A    between atoms: N_9  and  N_12
    5  A    between atoms: N_9  and  N_18
    6  A    between atoms: C_10  and  N_37
    7  A    between atoms: C_16  and  C_25
    8  A    between atoms: N_18  and  O_32
    9  A    between atoms: C_27  and  C_30
                            x       y       z     vdW  Elec       q    Type
                         _______ _______ _______ _____ _____    ______ ____

>  <TORSDO>
F 9

$$$$
=
 OpenBabel11042412563D

 43 48  0  0  1  0  0  0  0  0999 V2000
  187.2080  178.4320  142.0890 C   0  0  0  0  0  3  0  0  0  0  0  0
  188.3500  177.8100  140.0890 N   0  0  0  0  0  0  0  0  0  0  0  0
  186.1070  178.6280  139.9370 C   0  0  0  0  0  0  0  0  0  0  0  0
  186.0880  178.7740  141.3300 C   0  0  0  0  0  3  0  0  0  0  0  0
  187.2700  178.1370  139.3240 C   0  0  0  0  0  0  0  0  0  0  0  0
  188.3490  177.9460  141.4440 C   0  0  0  0  0  0  0  0  0  0  0  0
  188.7710  176.6700  136.3920 C   0  0  2  0  0  3  0  0  0  0  0  0
  189.4210  178.0180  136.6260 C   0  0  0  0  0  2  0  0  0  0  0  0
  188.3140  178.8940  137.1790 C   0  0  0  0  0  2  0  0  0  0  0  0
  187.7340  176.5340  137.4870 C   0  0  0  0  0  2  0  0  0  0  0  0
  187.3130  177.9520  137.8370 C   0  0  1  0  0  3  0  0  0  0  0  0
  189.7670  175.5690  136.4940 C   0  0  0  0  0  3  0  0  0  0  0  0
  191.0290  175.8360  136.6100 N   0  0  0  0  0  0  0  0  0  0  0  0
  192.0410  174.8280  136.6930 C   0  0  0  0  0  0  0  0  0  0  0  0
  194.0520  172.8810  136.9080 C   0  0  0  0  0  0  0  0  0  0  0  0
  195.1560  171.8680  136.9670 C   0  0  0  0  0  2  0  0  0  0  0  0
  191.9490  173.6270  135.9680 C   0  0  0  0  0  3  0  0  0  0  0  0
  195.8800  171.9670  138.2340 N   0  0  0  0  0  2  0  0  0  0  0  0
  193.1480  175.0480  137.5220 C   0  0  0  0  0  3  0  0  0  0  0  0
  195.3080  174.3220  138.5690 C   0  0  0  0  0  2  0  0  0  0  0  0
  196.4320  173.3150  138.3400 C   0  0  0  0  0  2  0  0  0  0  0  0
  194.1630  174.0910  137.6210 C   0  0  0  0  0  0  0  0  0  0  0  0
  192.9530  172.6590  136.0710 C   0  0  0  0  0  3  0  0  0  0  0  0
  191.5640  177.1840  142.7390 C   0  0  0  0  0  3  0  0  0  0  0  0
  190.8130  177.1190  143.8500 N   0  0  0  0  0  0  0  0  0  0  0  0
  189.5530  177.3650  143.5450 N   0  0  0  0  0  0  0  0  0  0  0  0
  189.5550  177.6070  142.2190 C   0  0  0  0  0  0  0  0  0  0  0  0
  190.7900  177.5020  141.6760 N   0  0  0  0  0  0  0  0  0  0  0  0
  191.2510  176.7220  145.1180 C   0  0  0  0  0  0  0  0  0  0  0  0
  192.0770  176.0000  147.5480 C   0  0  0  0  0  1  0  0  0  0  0  0
  191.6240  176.3910  146.2150 C   0  0  0  0  0  0  0  0  0  0  0  0
  184.9910  178.9530  139.1610 O   0  0  0  0  0  0  0  0  0  0  0  0
  184.2870  180.1210  139.3650 N   0  0  0  0  0  2  0  0  0  0  0  0
  182.9320  179.8180  139.1840 N   0  0  0  0  0  2  0  0  0  0  0  0
  179.8810  183.0270  134.9960 C   0  0  0  0  0  2  0  0  0  0  0  0
  182.3430  180.9580  138.6170 N   0  0  0  0  0  2  0  0  0  0  0  0
  181.1760  184.3700  136.4630 C   0  0  0  0  0  2  0  0  0  0  0  0
  180.9310  179.7140  137.2460 O   0  0  0  0  0  0  0  0  0  0  0  0
  180.7590  182.0350  137.0420 N   0  0  0  0  0  0  0  0  0  0  0  0
  181.3250  180.8520  137.6230 C   0  0  0  0  0  0  0  0  0  0  0  0
  179.6900  181.9370  136.0490 C   0  0  0  0  0  2  0  0  0  0  0  0
  181.0820  183.3460  137.5950 C   0  0  0  0  0  2  0  0  0  0  0  0
  179.9610  184.3320  135.6470 N   0  0  0  0  0  2  0  0  0  0  0  0
  2  6  2  0  0  0  0
  3  4  1  0  0  0  0
  4  1  2  0  0  0  0
  5  3  2  0  0  0  0
  5  2  1  0  0  0  0
  6  1  1  0  0  0  0
  6 27  1  0  0  0  0
  7 12  1  1  0  0  0
  7  8  1  0  0  0  0
  7 10  1  0  0  0  0
  8  9  1  0  0  0  0
  9 11  1  0  0  0  0
 10 11  1  0  0  0  0
 11  5  1  1  0  0  0
 12 13  2  0  0  0  0
 13 14  1  0  0  0  0
 14 19  1  0  0  0  0
 15 16  1  0  0  0  0
 15 22  1  0  0  0  0
 16 18  1  0  0  0  0
 17 23  1  0  0  0  0
 17 14  2  0  0  0  0
 18 21  1  0  0  0  0
 19 22  2  0  0  0  0
 21 20  1  0  0  0  0
 22 20  1  0  0  0  0
 23 15  2  0  0  0  0
 24 25  1  0  0  0  0
 25 29  1  0  0  0  0
 26 25  1  0  0  0  0
 27 26  2  0  0  0  0
 28 27  1  0  0  0  0
 28 24  2  0  0  0  0
 29 31  3  0  0  0  0
 31 30  1  0  0  0  0
 32 33  1  0  0  0  0
 32  3  1  0  0  0  0
 34 33  1  0  0  0  0
 35 43  1  0  0  0  0
 35 41  1  0  0  0  0
 36 34  1  0  0  0  0
 37 42  1  0  0  0  0
 38 40  2  0  0  0  0
 39 42  1  0  0  0  0
 39 40  1  0  0  0  0
 40 36  1  0  0  0  0
 41 39  1  0  0  0  0
 43 37  1  0  0  0  0
M  END
>  <MODEL>
9

>  <REMARK>
 VINA RESULT:      -8.2      3.729      5.660
  Name = 
  9 active torsions:
  status: ('A' for Active; 'I' for Inactive)
    1  A    between atoms: C_3  and  C_21
    2  A    between atoms: C_4  and  O_32
    3  A    between atoms: N_7  and  C_8
    4  A    between atoms: N_9  and  N_12
    5  A    between atoms: N_9  and  N_18
    6  A    between atoms: C_10  and  N_37
    7  A    between atoms: C_16  and  C_25
    8  A    between atoms: N_18  and  O_32
    9  A    between atoms: C_27  and  C_30
                            x       y       z     vdW  Elec       q    Type
                         _______ _______ _______ _____ _____    ______ ____

>  <TORSDO>
F 9

$$$$
