=
 OpenBabel11042412273D

 26 30  0  0  1  0  0  0  0  0999 V2000
  187.6690  177.6400  141.3960 C   0  0  2  0  0  3  0  0  0  0  0  0
  189.7880  178.1820  144.4160 N   0  0  0  0  0  2  0  0  0  0  0  0
  189.0120  176.5220  137.4360 C   0  0  0  0  0  0  0  0  0  0  0  0
  188.5650  176.9270  138.7290 N   0  0  0  0  0  2  0  0  0  0  0  0
  186.0460  179.3860  141.8800 C   0  0  2  0  0  3  0  0  0  0  0  0
  190.4150  176.0100  137.2450 C   0  0  1  0  0  3  0  0  0  0  0  0
  187.4770  179.0660  141.7710 N   0  0  1  0  0  0  0  0  0  0  0  0
  185.3070  178.5800  142.9450 C   0  0  1  0  0  3  0  0  0  0  0  0
  190.9260  176.8280  139.5060 C   0  0  0  0  0  3  0  0  0  0  0  0
  187.8050  178.0610  142.7900 C   0  0  2  0  0  0  0  0  0  0  0  0
  184.0130  178.4880  140.9150 C   0  0  0  0  0  2  0  0  0  0  0  0
  189.5020  177.0410  139.8000 C   0  0  0  0  0  0  0  0  0  0  0  0
  189.9750  177.5370  142.1270 N   0  0  0  0  0  0  0  0  0  0  0  0
  189.0940  177.3860  141.0240 C   0  0  0  0  0  0  0  0  0  0  0  0
  191.3130  176.3960  138.3420 N   0  0  0  0  0  0  0  0  0  0  0  0
  188.2170  176.5560  136.4610 O   0  0  0  0  0  0  0  0  0  0  0  0
  189.2480  177.9020  143.1250 C   0  0  0  0  0  0  0  0  0  0  0  0
  184.2840  177.7440  142.2060 C   0  0  0  0  0  2  0  0  0  0  0  0
  185.3130  179.1800  140.5610 C   0  0  0  0  0  2  0  0  0  0  0  0
  186.4520  177.5120  143.8520 S   0  0  0  0  0  0  0  0  0  0  0  0
  190.3980  174.5490  137.1200 C   0  0  0  0  0  0  0  0  0  0  0  0
  190.3850  173.3960  137.0210 N   0  0  0  0  0  0  0  0  0  0  0  0
  191.2050  178.0410  144.7050 C   0  0  0  0  0  2  0  0  0  0  0  0
  191.4900  176.6210  145.1480 C   0  0  0  0  0  2  0  0  0  0  0  0
  191.9550  176.5830  147.7260 N   0  0  0  0  0  0  0  0  0  0  0  0
  191.7490  176.6000  146.5880 C   0  0  0  0  0  0  0  0  0  0  0  0
  1 14  1  6  0  0  0
  1  7  1  0  0  0  0
  1 10  1  0  0  0  0
  2 23  1  0  0  0  0
  3  4  1  0  0  0  0
  4 12  1  0  0  0  0
  5 19  1  6  0  0  0
  5  8  1  0  0  0  0
  6 21  1  1  0  0  0
  6  3  1  0  0  0  0
  6 15  1  0  0  0  0
  7  5  1  0  0  0  0
  7 10  1  0  0  0  0
  8 20  1  0  0  0  0
  9 12  1  0  0  0  0
 10 17  1  0  0  0  0
 10 20  1  0  0  0  0
 11 18  1  0  0  0  0
 12 14  2  0  0  0  0
 13 17  2  0  0  0  0
 14 13  1  0  0  0  0
 15  9  2  0  0  0  0
 16  3  2  0  0  0  0
 17  2  1  0  0  0  0
 18  8  1  0  0  0  0
 19 11  1  0  0  0  0
 22 21  3  0  0  0  0
 23 24  1  0  0  0  0
 24 26  1  0  0  0  0
 26 25  3  0  0  0  0
M  END
>  <MODEL>
1

>  <REMARK>
 VINA RESULT:      -6.6      0.000      0.000
  Name = 
  4 active torsions:
  status: ('A' for Active; 'I' for Inactive)
    1  A    between atoms: N_2  and  C_4
    2  A    between atoms: C_4  and  C_15
    3  A    between atoms: C_7  and  C_9
    4  A    between atoms: C_15  and  C_26
                            x       y       z     vdW  Elec       q    Type
                         _______ _______ _______ _____ _____    ______ ____

>  <TORSDO>
F 4

$$$$
=
 OpenBabel11042412273D

 26 30  0  0  1  0  0  0  0  0999 V2000
  189.1690  177.4730  142.5350 C   0  0  2  0  0  3  0  0  0  0  0  0
  191.7000  176.7710  139.8900 N   0  0  0  0  0  2  0  0  0  0  0  0
  185.1560  178.9940  141.9660 C   0  0  0  0  0  0  0  0  0  0  0  0
  186.4900  178.5290  142.1650 N   0  0  0  0  0  2  0  0  0  0  0  0
  190.7380  178.2660  144.2160 C   0  0  2  0  0  3  0  0  0  0  0  0
  184.5520  178.9980  140.5870 C   0  0  1  0  0  3  0  0  0  0  0  0
  190.3070  178.3870  142.8160 N   0  0  1  0  0  0  0  0  0  0  0  0
  191.2290  176.8720  144.5980 C   0  0  1  0  0  3  0  0  0  0  0  0
  186.8020  178.5640  139.6980 C   0  0  0  0  0  3  0  0  0  0  0  0
  190.5290  177.0970  142.1500 C   0  0  2  0  0  0  0  0  0  0  0  0
  189.6680  177.5940  146.2840 C   0  0  0  0  0  2  0  0  0  0  0  0
  187.3220  178.2580  141.0380 C   0  0  0  0  0  0  0  0  0  0  0  0
  189.4470  177.5180  140.1300 N   0  0  0  0  0  0  0  0  0  0  0  0
  188.5620  177.7890  141.2070 C   0  0  0  0  0  0  0  0  0  0  0  0
  185.5650  178.9250  139.5250 N   0  0  0  0  0  0  0  0  0  0  0  0
  184.4710  179.3650  142.9540 O   0  0  0  0  0  0  0  0  0  0  0  0
  190.5500  177.1150  140.6610 C   0  0  0  0  0  0  0  0  0  0  0  0
  190.2660  176.3580  145.6460 C   0  0  0  0  0  2  0  0  0  0  0  0
  189.6290  178.6410  145.1900 C   0  0  0  0  0  2  0  0  0  0  0  0
  191.2320  175.7760  143.1590 S   0  0  0  0  0  0  0  0  0  0  0  0
  183.6210  177.8740  140.4500 C   0  0  0  0  0  0  0  0  0  0  0  0
  182.8860  176.9870  140.3410 N   0  0  0  0  0  0  0  0  0  0  0  0
  191.6970  176.8210  138.4370 C   0  0  0  0  0  2  0  0  0  0  0  0
  192.2940  175.5430  137.8870 C   0  0  0  0  0  2  0  0  0  0  0  0
  190.3790  173.8290  137.3750 N   0  0  0  0  0  0  0  0  0  0  0  0
  191.2250  174.5860  137.6010 C   0  0  0  0  0  0  0  0  0  0  0  0
  1 14  1  6  0  0  0
  1  7  1  0  0  0  0
  2 17  1  0  0  0  0
  3  4  1  0  0  0  0
  3 16  2  0  0  0  0
  5  8  1  0  0  0  0
  5 19  1  1  0  0  0
  6 21  1  1  0  0  0
  6  3  1  0  0  0  0
  7  5  1  0  0  0  0
  8 18  1  0  0  0  0
  9 12  1  0  0  0  0
 10  1  1  0  0  0  0
 10  7  1  0  0  0  0
 10 20  1  0  0  0  0
 12 14  2  0  0  0  0
 12  4  1  0  0  0  0
 13 17  2  0  0  0  0
 13 14  1  0  0  0  0
 15  9  2  0  0  0  0
 15  6  1  0  0  0  0
 17 10  1  0  0  0  0
 18 11  1  0  0  0  0
 19 11  1  0  0  0  0
 20  8  1  0  0  0  0
 22 21  3  0  0  0  0
 23  2  1  0  0  0  0
 24 23  1  0  0  0  0
 25 26  3  0  0  0  0
 26 24  1  0  0  0  0
M  END
>  <MODEL>
2

>  <REMARK>
 VINA RESULT:      -6.4      2.521      6.208
  Name = 
  4 active torsions:
  status: ('A' for Active; 'I' for Inactive)
    1  A    between atoms: N_2  and  C_4
    2  A    between atoms: C_4  and  C_15
    3  A    between atoms: C_7  and  C_9
    4  A    between atoms: C_15  and  C_26
                            x       y       z     vdW  Elec       q    Type
                         _______ _______ _______ _____ _____    ______ ____

>  <TORSDO>
F 4

$$$$
=
 OpenBabel11042412273D

 26 30  0  0  1  0  0  0  0  0999 V2000
  187.9830  177.5120  138.2910 C   0  0  2  0  0  3  0  0  0  0  0  0
  184.5510  178.7460  139.0650 N   0  0  0  0  0  2  0  0  0  0  0  0
  191.4100  177.5100  140.9370 C   0  0  0  0  0  0  0  0  0  0  0  0
  190.2950  177.5420  140.0470 N   0  0  0  0  0  2  0  0  0  0  0  0
  188.0150  178.2220  135.9650 C   0  0  2  0  0  3  0  0  0  0  0  0
  191.2110  177.7490  142.4100 C   0  0  1  0  0  3  0  0  0  0  0  0
  187.7380  178.6350  137.3490 N   0  0  1  0  0  0  0  0  0  0  0  0
  187.1370  177.0740  135.4710 C   0  0  1  0  0  3  0  0  0  0  0  0
  188.9350  178.5190  141.8860 C   0  0  0  0  0  3  0  0  0  0  0  0
  186.6220  177.8280  137.8580 C   0  0  2  0  0  0  0  0  0  0  0  0
  189.4240  176.5450  134.9290 C   0  0  0  0  0  2  0  0  0  0  0  0
  189.0270  177.9990  140.5140 C   0  0  0  0  0  0  0  0  0  0  0  0
  186.6820  178.4640  140.0990 N   0  0  0  0  0  0  0  0  0  0  0  0
  187.9660  178.0030  139.7030 C   0  0  0  0  0  0  0  0  0  0  0  0
  189.9400  178.4240  142.7070 N   0  0  0  0  0  0  0  0  0  0  0  0
  192.5560  177.2410  140.4920 O   0  0  0  0  0  0  0  0  0  0  0  0
  185.9220  178.3510  139.0650 C   0  0  0  0  0  0  0  0  0  0  0  0
  188.0740  175.9170  135.1980 C   0  0  0  0  0  2  0  0  0  0  0  0
  189.4660  177.8020  135.7740 C   0  0  0  0  0  2  0  0  0  0  0  0
  185.9180  176.6120  136.7250 S   0  0  0  0  0  0  0  0  0  0  0  0
  191.2670  176.4750  143.1320 C   0  0  0  0  0  0  0  0  0  0  0  0
  191.3100  175.4680  143.7020 N   0  0  0  0  0  0  0  0  0  0  0  0
  183.9020  179.2750  140.2520 C   0  0  0  0  0  2  0  0  0  0  0  0
  183.4610  178.1310  141.1400 C   0  0  0  0  0  2  0  0  0  0  0  0
  184.4820  178.4350  143.5340 N   0  0  0  0  0  0  0  0  0  0  0  0
  184.0320  178.3010  142.4760 C   0  0  0  0  0  0  0  0  0  0  0  0
  1 14  1  1  0  0  0
  2 17  1  0  0  0  0
  2 23  1  0  0  0  0
  3  6  1  0  0  0  0
  4 12  1  0  0  0  0
  4  3  1  0  0  0  0
  5 19  1  1  0  0  0
  5  7  1  0  0  0  0
  6 15  1  0  0  0  0
  6 21  1  1  0  0  0
  7 10  1  0  0  0  0
  7  1  1  0  0  0  0
  8  5  1  0  0  0  0
  8 20  1  0  0  0  0
  9 15  2  0  0  0  0
 10  1  1  0  0  0  0
 10 17  1  0  0  0  0
 11 18  1  0  0  0  0
 11 19  1  0  0  0  0
 12  9  1  0  0  0  0
 14 13  1  0  0  0  0
 14 12  2  0  0  0  0
 16  3  2  0  0  0  0
 17 13  2  0  0  0  0
 18  8  1  0  0  0  0
 20 10  1  0  0  0  0
 21 22  3  0  0  0  0
 23 24  1  0  0  0  0
 24 26  1  0  0  0  0
 26 25  3  0  0  0  0
M  END
>  <MODEL>
3

>  <REMARK>
 VINA RESULT:      -6.2      2.859      6.273
  Name = 
  4 active torsions:
  status: ('A' for Active; 'I' for Inactive)
    1  A    between atoms: N_2  and  C_4
    2  A    between atoms: C_4  and  C_15
    3  A    between atoms: C_7  and  C_9
    4  A    between atoms: C_15  and  C_26
                            x       y       z     vdW  Elec       q    Type
                         _______ _______ _______ _____ _____    ______ ____

>  <TORSDO>
F 4

$$$$
=
 OpenBabel11042412273D

 26 30  0  0  1  0  0  0  0  0999 V2000
  184.7980  178.4770  141.9020 C   0  0  2  0  0  3  0  0  0  0  0  0
  188.2210  178.6190  140.4330 N   0  0  0  0  0  2  0  0  0  0  0  0
  181.0370  178.5220  139.7580 C   0  0  0  0  0  0  0  0  0  0  0  0
  182.2710  178.5450  140.4740 N   0  0  0  0  0  2  0  0  0  0  0  0
  185.2910  179.7980  143.8830 C   0  0  2  0  0  3  0  0  0  0  0  0
  181.0270  178.2860  138.2710 C   0  0  1  0  0  3  0  0  0  0  0  0
  185.4050  179.7320  142.4190 N   0  0  1  0  0  0  0  0  0  0  0  0
  186.0070  178.6660  144.6150 C   0  0  1  0  0  3  0  0  0  0  0  0
  183.4620  178.6260  138.2910 C   0  0  0  0  0  3  0  0  0  0  0  0
  186.2460  178.5790  142.0720 C   0  0  2  0  0  0  0  0  0  0  0  0
  183.7850  178.8510  145.5280 C   0  0  0  0  0  2  0  0  0  0  0  0
  183.5060  178.5480  139.7580 C   0  0  0  0  0  0  0  0  0  0  0  0
  185.9320  178.5570  139.7640 N   0  0  0  0  0  0  0  0  0  0  0  0
  184.6700  178.5340  140.4140 C   0  0  0  0  0  0  0  0  0  0  0  0
  182.3340  178.5380  137.6490 N   0  0  0  0  0  0  0  0  0  0  0  0
  179.9520  178.6600  140.3800 O   0  0  0  0  0  0  0  0  0  0  0  0
  186.8200  178.5670  140.6970 C   0  0  0  0  0  0  0  0  0  0  0  0
  184.9280  177.8790  145.3290 C   0  0  0  0  0  2  0  0  0  0  0  0
  183.8400  179.7950  144.3450 C   0  0  0  0  0  2  0  0  0  0  0  0
  186.8880  177.6020  143.4470 S   0  0  0  0  0  0  0  0  0  0  0  0
  180.6110  176.9090  137.9900 C   0  0  0  0  0  0  0  0  0  0  0  0
  180.2830  175.8210  137.7680 N   0  0  0  0  0  0  0  0  0  0  0  0
  188.7500  178.6300  139.0790 C   0  0  0  0  0  2  0  0  0  0  0  0
  189.6360  177.4190  138.8730 C   0  0  0  0  0  2  0  0  0  0  0  0
  191.6400  177.5030  140.5590 N   0  0  0  0  0  0  0  0  0  0  0  0
  190.7550  177.4660  139.8140 C   0  0  0  0  0  0  0  0  0  0  0  0
  1 14  1  6  0  0  0
  1 10  1  0  0  0  0
  1  7  1  0  0  0  0
  2 17  1  0  0  0  0
  3 16  2  0  0  0  0
  3  4  1  0  0  0  0
  5 19  1  6  0  0  0
  5  8  1  0  0  0  0
  6 21  1  1  0  0  0
  6  3  1  0  0  0  0
  7  5  1  0  0  0  0
  8 18  1  0  0  0  0
  9 12  1  0  0  0  0
 10  7  1  0  0  0  0
 10 20  1  0  0  0  0
 12 14  2  0  0  0  0
 12  4  1  0  0  0  0
 13 14  1  0  0  0  0
 13 17  2  0  0  0  0
 15  6  1  0  0  0  0
 15  9  2  0  0  0  0
 17 10  1  0  0  0  0
 18 11  1  0  0  0  0
 19 11  1  0  0  0  0
 20  8  1  0  0  0  0
 22 21  3  0  0  0  0
 23  2  1  0  0  0  0
 24 23  1  0  0  0  0
 24 26  1  0  0  0  0
 26 25  3  0  0  0  0
M  END
>  <MODEL>
4

>  <REMARK>
 VINA RESULT:      -5.8      3.679      6.283
  Name = 
  4 active torsions:
  status: ('A' for Active; 'I' for Inactive)
    1  A    between atoms: N_2  and  C_4
    2  A    between atoms: C_4  and  C_15
    3  A    between atoms: C_7  and  C_9
    4  A    between atoms: C_15  and  C_26
                            x       y       z     vdW  Elec       q    Type
                         _______ _______ _______ _____ _____    ______ ____

>  <TORSDO>
F 4

$$$$
=
 OpenBabel11042412273D

 26 30  0  0  1  0  0  0  0  0999 V2000
  187.5970  177.8010  141.3480 C   0  0  2  0  0  3  0  0  0  0  0  0
  189.4320  178.4080  138.1600 N   0  0  0  0  0  2  0  0  0  0  0  0
  183.4370  178.6760  142.1690 C   0  0  0  0  0  0  0  0  0  0  0  0
  184.8180  178.4190  141.9190 N   0  0  0  0  0  2  0  0  0  0  0  0
  189.4510  178.3110  142.8370 C   0  0  2  0  0  3  0  0  0  0  0  0
  182.5060  178.9920  141.0280 C   0  0  1  0  0  3  0  0  0  0  0  0
  188.6690  178.7750  141.6810 N   0  0  1  0  0  0  0  0  0  0  0  0
  190.1630  176.9790  142.6130 C   0  0  1  0  0  3  0  0  0  0  0  0
  184.4890  179.2620  139.6010 C   0  0  0  0  0  3  0  0  0  0  0  0
  188.8450  177.8110  140.5870 C   0  0  2  0  0  0  0  0  0  0  0  0
  189.0150  176.8590  144.7270 C   0  0  0  0  0  2  0  0  0  0  0  0
  185.3610  178.6600  140.6200 C   0  0  0  0  0  0  0  0  0  0  0  0
  187.2500  178.6280  139.0990 N   0  0  0  0  0  0  0  0  0  0  0  0
  186.6440  178.3930  140.3610 C   0  0  0  0  0  0  0  0  0  0  0  0
  183.2190  179.4300  139.8200 N   0  0  0  0  0  0  0  0  0  0  0  0
  182.9900  178.5980  143.3420 O   0  0  0  0  0  0  0  0  0  0  0  0
  188.4860  178.2870  139.2220 C   0  0  0  0  0  0  0  0  0  0  0  0
  189.5540  176.0050  143.5990 C   0  0  0  0  0  2  0  0  0  0  0  0
  188.5930  178.1640  144.0860 C   0  0  0  0  0  2  0  0  0  0  0  0
  189.9130  176.3940  140.9190 S   0  0  0  0  0  0  0  0  0  0  0  0
  181.6900  177.8150  140.7130 C   0  0  0  0  0  0  0  0  0  0  0  0
  181.0460  176.8860  140.4630 N   0  0  0  0  0  0  0  0  0  0  0  0
  189.0560  178.8970  136.8450 C   0  0  0  0  0  2  0  0  0  0  0  0
  188.8370  177.7240  135.9130 C   0  0  0  0  0  2  0  0  0  0  0  0
  186.2800  177.4790  135.3970 N   0  0  0  0  0  0  0  0  0  0  0  0
  187.4100  177.5870  135.6250 C   0  0  0  0  0  0  0  0  0  0  0  0
  1 14  1  6  0  0  0
  1  7  1  0  0  0  0
  2 17  1  0  0  0  0
  3 16  2  0  0  0  0
  4  3  1  0  0  0  0
  5 19  1  1  0  0  0
  6 21  1  6  0  0  0
  6  3  1  0  0  0  0
  7  5  1  0  0  0  0
  8  5  1  0  0  0  0
  8 18  1  0  0  0  0
  9 15  2  0  0  0  0
  9 12  1  0  0  0  0
 10 20  1  0  0  0  0
 10  1  1  0  0  0  0
 10  7  1  0  0  0  0
 12  4  1  0  0  0  0
 13 17  2  0  0  0  0
 13 14  1  0  0  0  0
 14 12  2  0  0  0  0
 15  6  1  0  0  0  0
 17 10  1  0  0  0  0
 18 11  1  0  0  0  0
 19 11  1  0  0  0  0
 20  8  1  0  0  0  0
 22 21  3  0  0  0  0
 23  2  1  0  0  0  0
 24 23  1  0  0  0  0
 25 26  3  0  0  0  0
 26 24  1  0  0  0  0
M  END
>  <MODEL>
5

>  <REMARK>
 VINA RESULT:      -5.7      3.253      7.177
  Name = 
  4 active torsions:
  status: ('A' for Active; 'I' for Inactive)
    1  A    between atoms: N_2  and  C_4
    2  A    between atoms: C_4  and  C_15
    3  A    between atoms: C_7  and  C_9
    4  A    between atoms: C_15  and  C_26
                            x       y       z     vdW  Elec       q    Type
                         _______ _______ _______ _____ _____    ______ ____

>  <TORSDO>
F 4

$$$$
=
 OpenBabel11042412273D

 26 30  0  0  1  0  0  0  0  0999 V2000
  190.5770  176.0350  137.8700 C   0  0  2  0  0  3  0  0  0  0  0  0
  188.3130  177.0600  135.0910 N   0  0  0  0  0  2  0  0  0  0  0  0
  190.4120  177.3560  141.9890 C   0  0  0  0  0  0  0  0  0  0  0  0
  190.4970  176.9450  140.6260 N   0  0  0  0  0  2  0  0  0  0  0  0
  192.6030  175.8790  136.5340 C   0  0  2  0  0  3  0  0  0  0  0  0
  189.1880  178.0750  142.4900 C   0  0  1  0  0  3  0  0  0  0  0  0
  191.4460  176.7180  136.8760 N   0  0  1  0  0  0  0  0  0  0  0  0
  192.2350  174.5380  135.9020 C   0  0  1  0  0  3  0  0  0  0  0  0
  188.4970  178.3440  140.1460 C   0  0  0  0  0  3  0  0  0  0  0  0
  190.2260  176.0190  136.4510 C   0  0  2  0  0  0  0  0  0  0  0  0
  193.8320  174.1180  137.6560 C   0  0  0  0  0  2  0  0  0  0  0  0
  189.5160  177.3890  139.6890 C   0  0  0  0  0  0  0  0  0  0  0  0
  188.6310  177.4060  137.4300 N   0  0  0  0  0  0  0  0  0  0  0  0
  189.5620  176.9850  138.4160 C   0  0  0  0  0  0  0  0  0  0  0  0
  188.3910  178.6600  141.4030 N   0  0  0  0  0  0  0  0  0  0  0  0
  191.3490  177.0820  142.7830 O   0  0  0  0  0  0  0  0  0  0  0  0
  188.9950  176.8500  136.3270 C   0  0  0  0  0  0  0  0  0  0  0  0
  192.7120  173.4740  136.8670 C   0  0  0  0  0  2  0  0  0  0  0  0
  193.4760  175.5870  137.7460 C   0  0  0  0  0  2  0  0  0  0  0  0
  190.4470  174.4100  135.6630 S   0  0  0  0  0  0  0  0  0  0  0  0
  188.3520  177.1510  143.2640 C   0  0  0  0  0  0  0  0  0  0  0  0
  187.6920  176.4220  143.8750 N   0  0  0  0  0  0  0  0  0  0  0  0
  187.1280  177.8950  134.9980 C   0  0  0  0  0  2  0  0  0  0  0  0
  185.8910  177.0220  135.0240 C   0  0  0  0  0  2  0  0  0  0  0  0
  184.6940  177.2650  137.3420 N   0  0  0  0  0  0  0  0  0  0  0  0
  185.2230  177.1570  136.3180 C   0  0  0  0  0  0  0  0  0  0  0  0
  1 14  1  1  0  0  0
  2 17  1  0  0  0  0
  3  6  1  0  0  0  0
  3 16  2  0  0  0  0
  4  3  1  0  0  0  0
  5  7  1  0  0  0  0
  5 19  1  1  0  0  0
  6 21  1  6  0  0  0
  7  1  1  0  0  0  0
  8  5  1  0  0  0  0
  8 18  1  0  0  0  0
  9 15  2  0  0  0  0
 10  7  1  0  0  0  0
 10  1  1  0  0  0  0
 11 19  1  0  0  0  0
 12  9  1  0  0  0  0
 12  4  1  0  0  0  0
 13 14  1  0  0  0  0
 14 12  2  0  0  0  0
 15  6  1  0  0  0  0
 17 10  1  0  0  0  0
 17 13  2  0  0  0  0
 18 11  1  0  0  0  0
 20  8  1  0  0  0  0
 20 10  1  0  0  0  0
 21 22  3  0  0  0  0
 23 24  1  0  0  0  0
 23  2  1  0  0  0  0
 24 26  1  0  0  0  0
 26 25  3  0  0  0  0
M  END
>  <MODEL>
6

>  <REMARK>
 VINA RESULT:      -5.7      3.571      8.138
  Name = 
  4 active torsions:
  status: ('A' for Active; 'I' for Inactive)
    1  A    between atoms: N_2  and  C_4
    2  A    between atoms: C_4  and  C_15
    3  A    between atoms: C_7  and  C_9
    4  A    between atoms: C_15  and  C_26
                            x       y       z     vdW  Elec       q    Type
                         _______ _______ _______ _____ _____    ______ ____

>  <TORSDO>
F 4

$$$$
=
 OpenBabel11042412273D

 26 30  0  0  1  0  0  0  0  0999 V2000
  189.4900  177.1300  138.3030 C   0  0  2  0  0  3  0  0  0  0  0  0
  192.4490  175.7770  136.4830 N   0  0  0  0  0  2  0  0  0  0  0  0
  189.0670  177.6340  142.5810 C   0  0  0  0  0  0  0  0  0  0  0  0
  189.1840  177.4360  141.1730 N   0  0  0  0  0  2  0  0  0  0  0  0
  187.8020  176.1740  136.8350 C   0  0  2  0  0  3  0  0  0  0  0  0
  190.2840  177.5440  143.4630 C   0  0  1  0  0  3  0  0  0  0  0  0
  189.0130  175.8980  137.6210 N   0  0  1  0  0  0  0  0  0  0  0  0
  188.0010  177.2050  135.7260 C   0  0  1  0  0  3  0  0  0  0  0  0
  191.4900  176.5820  141.5490 C   0  0  0  0  0  3  0  0  0  0  0  0
  190.1190  176.6850  137.0600 C   0  0  2  0  0  0  0  0  0  0  0  0
  186.0210  177.8130  136.9560 C   0  0  0  0  0  2  0  0  0  0  0  0
  190.4100  176.9540  140.6240 C   0  0  0  0  0  0  0  0  0  0  0  0
  191.7310  176.3020  138.6970 N   0  0  0  0  0  0  0  0  0  0  0  0
  190.5470  176.7960  139.3050 C   0  0  0  0  0  0  0  0  0  0  0  0
  191.3960  176.8280  142.8230 N   0  0  0  0  0  0  0  0  0  0  0  0
  187.9480  177.9230  143.0800 O   0  0  0  0  0  0  0  0  0  0  0  0
  191.4950  176.2530  137.4310 C   0  0  0  0  0  0  0  0  0  0  0  0
  187.1190  178.3820  136.0820 C   0  0  0  0  0  2  0  0  0  0  0  0
  186.6530  176.6610  137.7080 C   0  0  0  0  0  2  0  0  0  0  0  0
  189.7310  177.7240  135.6350 S   0  0  0  0  0  0  0  0  0  0  0  0
  190.7240  178.8910  143.8400 C   0  0  0  0  0  0  0  0  0  0  0  0
  191.0710  179.9540  144.1380 N   0  0  0  0  0  0  0  0  0  0  0  0
  193.7770  175.3400  136.8800 C   0  0  0  0  0  2  0  0  0  0  0  0
  193.7570  173.8520  137.1600 C   0  0  0  0  0  2  0  0  0  0  0  0
  195.5630  173.2770  138.9700 N   0  0  0  0  0  0  0  0  0  0  0  0
  194.7650  173.5310  138.1710 C   0  0  0  0  0  0  0  0  0  0  0  0
  1 14  1  1  0  0  0
  2 23  1  0  0  0  0
  2 17  1  0  0  0  0
  3 16  2  0  0  0  0
  3  6  1  0  0  0  0
  4  3  1  0  0  0  0
  5  7  1  0  0  0  0
  5 19  1  1  0  0  0
  6 21  1  6  0  0  0
  7  1  1  0  0  0  0
  8 18  1  0  0  0  0
  8  5  1  0  0  0  0
  9 15  2  0  0  0  0
 10 17  1  0  0  0  0
 10  7  1  0  0  0  0
 10  1  1  0  0  0  0
 11 19  1  0  0  0  0
 12  4  1  0  0  0  0
 12  9  1  0  0  0  0
 13 14  1  0  0  0  0
 14 12  2  0  0  0  0
 15  6  1  0  0  0  0
 17 13  2  0  0  0  0
 18 11  1  0  0  0  0
 20  8  1  0  0  0  0
 20 10  1  0  0  0  0
 21 22  3  0  0  0  0
 23 24  1  0  0  0  0
 24 26  1  0  0  0  0
 26 25  3  0  0  0  0
M  END
>  <MODEL>
7

>  <REMARK>
 VINA RESULT:      -5.6      3.360      6.589
  Name = 
  4 active torsions:
  status: ('A' for Active; 'I' for Inactive)
    1  A    between atoms: N_2  and  C_4
    2  A    between atoms: C_4  and  C_15
    3  A    between atoms: C_7  and  C_9
    4  A    between atoms: C_15  and  C_26
                            x       y       z     vdW  Elec       q    Type
                         _______ _______ _______ _____ _____    ______ ____

>  <TORSDO>
F 4

$$$$
=
 OpenBabel11042412273D

 26 30  0  0  1  0  0  0  0  0999 V2000
  184.9270  178.2620  142.7430 C   0  0  2  0  0  3  0  0  0  0  0  0
  187.8320  178.4460  140.4130 N   0  0  0  0  0  2  0  0  0  0  0  0
  180.7400  178.6930  141.7280 C   0  0  0  0  0  0  0  0  0  0  0  0
  182.1200  178.5870  142.0770 N   0  0  0  0  0  2  0  0  0  0  0  0
  186.0220  179.3260  144.6360 C   0  0  2  0  0  3  0  0  0  0  0  0
  180.3160  178.6310  140.2850 C   0  0  1  0  0  3  0  0  0  0  0  0
  185.7330  179.4250  143.1970 N   0  0  1  0  0  0  0  0  0  0  0  0
  186.8300  178.0900  145.0250 C   0  0  1  0  0  3  0  0  0  0  0  0
  182.6840  178.8760  139.6710 C   0  0  0  0  0  3  0  0  0  0  0  0
  186.3720  178.2900  142.5190 C   0  0  2  0  0  0  0  0  0  0  0  0
  184.9530  178.2510  146.5260 C   0  0  0  0  0  2  0  0  0  0  0  0
  183.1150  178.6270  141.0540 C   0  0  0  0  0  0  0  0  0  0  0  0
  185.4480  178.5460  140.3950 N   0  0  0  0  0  0  0  0  0  0  0  0
  184.4080  178.4950  141.3610 C   0  0  0  0  0  0  0  0  0  0  0  0
  181.4220  178.9050  139.3570 N   0  0  0  0  0  0  0  0  0  0  0  0
  179.8740  178.7980  142.6340 O   0  0  0  0  0  0  0  0  0  0  0  0
  186.5530  178.4160  141.0450 C   0  0  0  0  0  0  0  0  0  0  0  0
  185.9330  177.2670  145.9240 C   0  0  0  0  0  2  0  0  0  0  0  0
  184.7510  179.3220  145.4750 C   0  0  0  0  0  2  0  0  0  0  0  0
  187.2920  177.1370  143.5590 S   0  0  0  0  0  0  0  0  0  0  0  0
  179.7490  177.3110  139.9900 C   0  0  0  0  0  0  0  0  0  0  0  0
  179.3010  176.2700  139.7570 N   0  0  0  0  0  0  0  0  0  0  0  0
  187.9770  178.5940  138.9750 C   0  0  0  0  0  2  0  0  0  0  0  0
  189.4270  178.3890  138.5900 C   0  0  0  0  0  2  0  0  0  0  0  0
  190.4210  176.3820  139.9500 N   0  0  0  0  0  0  0  0  0  0  0  0
  189.9820  177.2680  139.3500 C   0  0  0  0  0  0  0  0  0  0  0  0
  1 14  1  6  0  0  0
  1  7  1  0  0  0  0
  2 17  1  0  0  0  0
  3  4  1  0  0  0  0
  3 16  2  0  0  0  0
  5  8  1  0  0  0  0
  5 19  1  1  0  0  0
  6 21  1  6  0  0  0
  6  3  1  0  0  0  0
  7  5  1  0  0  0  0
  8 18  1  0  0  0  0
  9 12  1  0  0  0  0
 10  1  1  0  0  0  0
 10  7  1  0  0  0  0
 10 20  1  0  0  0  0
 12 14  2  0  0  0  0
 12  4  1  0  0  0  0
 13 17  2  0  0  0  0
 13 14  1  0  0  0  0
 15  9  2  0  0  0  0
 15  6  1  0  0  0  0
 17 10  1  0  0  0  0
 18 11  1  0  0  0  0
 19 11  1  0  0  0  0
 20  8  1  0  0  0  0
 22 21  3  0  0  0  0
 23  2  1  0  0  0  0
 24 23  1  0  0  0  0
 24 26  1  0  0  0  0
 26 25  3  0  0  0  0
M  END
>  <MODEL>
8

>  <REMARK>
 VINA RESULT:      -5.6      3.851      6.979
  Name = 
  4 active torsions:
  status: ('A' for Active; 'I' for Inactive)
    1  A    between atoms: N_2  and  C_4
    2  A    between atoms: C_4  and  C_15
    3  A    between atoms: C_7  and  C_9
    4  A    between atoms: C_15  and  C_26
                            x       y       z     vdW  Elec       q    Type
                         _______ _______ _______ _____ _____    ______ ____

>  <TORSDO>
F 4

$$$$
=
 OpenBabel11042412273D

 26 30  0  0  1  0  0  0  0  0999 V2000
  188.6240  177.0530  139.7070 C   0  0  2  0  0  3  0  0  0  0  0  0
  192.3180  176.9380  139.2130 N   0  0  0  0  0  2  0  0  0  0  0  0
  185.5770  176.8560  136.6390 C   0  0  0  0  0  0  0  0  0  0  0  0
  186.5750  176.9600  137.6520 N   0  0  0  0  0  2  0  0  0  0  0  0
  188.6410  178.6290  141.5600 C   0  0  2  0  0  3  0  0  0  0  0  0
  185.9510  176.4160  135.2480 C   0  0  1  0  0  3  0  0  0  0  0  0
  189.1360  178.3580  140.2020 N   0  0  1  0  0  0  0  0  0  0  0  0
  189.0770  177.5980  142.5980 C   0  0  1  0  0  3  0  0  0  0  0  0
  188.3070  176.7180  135.8820 C   0  0  0  0  0  3  0  0  0  0  0  0
  189.9790  177.1560  140.2480 C   0  0  2  0  0  0  0  0  0  0  0  0
  186.7050  177.9420  142.8440 C   0  0  0  0  0  2  0  0  0  0  0  0
  187.9550  176.8450  137.3040 C   0  0  0  0  0  0  0  0  0  0  0  0
  190.2890  176.8180  137.9640 N   0  0  0  0  0  0  0  0  0  0  0  0
  188.9000  176.9050  138.2460 C   0  0  0  0  0  0  0  0  0  0  0  0
  187.3880  176.5600  134.9760 N   0  0  0  0  0  0  0  0  0  0  0  0
  184.3740  177.0960  136.9210 O   0  0  0  0  0  0  0  0  0  0  0  0
  190.8960  176.9440  139.0930 C   0  0  0  0  0  0  0  0  0  0  0  0
  187.8080  176.9340  143.0890 C   0  0  0  0  0  2  0  0  0  0  0  0
  187.1220  178.7110  141.6080 C   0  0  0  0  0  2  0  0  0  0  0  0
  190.1810  176.3690  141.8600 S   0  0  0  0  0  0  0  0  0  0  0  0
  185.5540  175.0190  135.0460 C   0  0  0  0  0  0  0  0  0  0  0  0
  185.2410  173.9160  134.8870 N   0  0  0  0  0  0  0  0  0  0  0  0
  193.1870  176.7530  138.0640 C   0  0  0  0  0  2  0  0  0  0  0  0
  193.5760  175.2930  137.9540 C   0  0  0  0  0  2  0  0  0  0  0  0
  195.8050  174.8780  139.2660 N   0  0  0  0  0  0  0  0  0  0  0  0
  194.8200  175.0620  138.6860 C   0  0  0  0  0  0  0  0  0  0  0  0
  1 14  1  6  0  0  0
  1  7  1  0  0  0  0
  1 10  1  0  0  0  0
  3 16  2  0  0  0  0
  3  4  1  0  0  0  0
  5 19  1  6  0  0  0
  5  8  1  0  0  0  0
  6 21  1  1  0  0  0
  6  3  1  0  0  0  0
  7 10  1  0  0  0  0
  7  5  1  0  0  0  0
  8 18  1  0  0  0  0
  9 12  1  0  0  0  0
 10 20  1  0  0  0  0
 11 18  1  0  0  0  0
 12  4  1  0  0  0  0
 12 14  2  0  0  0  0
 13 14  1  0  0  0  0
 13 17  2  0  0  0  0
 15  6  1  0  0  0  0
 15  9  2  0  0  0  0
 17  2  1  0  0  0  0
 17 10  1  0  0  0  0
 19 11  1  0  0  0  0
 20  8  1  0  0  0  0
 22 21  3  0  0  0  0
 23  2  1  0  0  0  0
 24 23  1  0  0  0  0
 24 26  1  0  0  0  0
 26 25  3  0  0  0  0
M  END
>  <MODEL>
9

>  <REMARK>
 VINA RESULT:      -5.5      3.035      4.872
  Name = 
  4 active torsions:
  status: ('A' for Active; 'I' for Inactive)
    1  A    between atoms: N_2  and  C_4
    2  A    between atoms: C_4  and  C_15
    3  A    between atoms: C_7  and  C_9
    4  A    between atoms: C_15  and  C_26
                            x       y       z     vdW  Elec       q    Type
                         _______ _______ _______ _____ _____    ______ ____

>  <TORSDO>
F 4

$$$$
