=
 OpenBabel11032419323D

 31 35  0  0  1  0  0  0  0  0999 V2000
  184.6370  179.3570  142.8300 C   0  0  0  0  0  2  0  0  0  0  0  0
  183.5950  177.7850  139.5370 C   0  0  0  0  0  2  0  0  0  0  0  0
  178.9310  180.3250  139.2660 C   0  0  0  0  0  1  0  0  0  0  0  0
  182.0260  179.2650  141.0750 C   0  0  2  0  0  3  0  0  0  0  0  0
  184.2570  178.6920  140.5570 C   0  0  1  0  0  0  0  0  0  0  0  0
  184.0410  178.3390  141.9720 N   0  0  0  0  0  0  0  0  0  0  0  0
  180.6210  179.1100  140.6660 N   0  0  0  0  0  0  0  0  0  0  0  0
  182.8030  180.1100  138.7890 C   0  0  0  0  0  2  0  0  0  0  0  0
  185.4130  179.3780  140.1710 O   0  0  0  0  0  1  0  0  0  0  0  0
  180.3920  180.1690  139.6470 C   0  0  1  0  0  3  0  0  0  0  0  0
  181.3140  180.0690  138.4030 C   0  0  0  0  0  2  0  0  0  0  0  0
  182.9780  179.1320  139.9280 C   0  0  1  0  0  0  0  0  0  0  0  0
  182.5830  178.3950  142.1880 C   0  0  0  0  0  2  0  0  0  0  0  0
  179.2780  176.8910  141.3650 N   0  0  0  0  0  1  0  0  0  0  0  0
  180.2950  177.4460  139.9910 P   0  0  1  0  0  0  0  0  0  0  0  0
  178.9310  177.8950  139.0160 O   0  0  0  0  0  1  0  0  0  0  0  0
  184.1750  179.1550  144.2350 C   0  0  0  0  0  3  0  0  0  0  0  0
  184.8910  178.5490  145.1860 C   0  0  0  0  0  3  0  0  0  0  0  0
  186.8520  178.0100  143.8880 N   0  0  0  0  0  0  0  0  0  0  0  0
  188.1390  176.0150  143.3720 C   0  0  0  0  0  1  0  0  0  0  0  0
  189.2780  178.2110  143.4450 C   0  0  0  0  0  3  0  0  0  0  0  0
  191.8260  177.3510  145.7880 O   0  0  0  0  0  0  0  0  0  0  0  0
  188.1580  177.3870  144.0260 C   0  0  1  0  0  0  0  0  0  0  0  0
  190.4800  178.2240  144.0390 C   0  0  0  0  0  3  0  0  0  0  0  0
  188.2820  177.2410  145.5060 C   0  0  1  0  0  3  0  0  0  0  0  0
  189.4560  177.2250  146.1480 C   0  0  1  0  0  3  0  0  0  0  0  0
  190.6640  177.5580  145.3470 C   0  0  0  0  0  0  0  0  0  0  0  0
  187.0440  177.5370  146.1310 N   0  0  0  0  0  2  0  0  0  0  0  0
  186.2610  178.0350  145.0440 C   0  0  0  0  0  0  0  0  0  0  0  0
  189.2170  178.1900  148.4990 C   0  0  0  0  0  1  0  0  0  0  0  0
  189.4850  177.1000  147.5760 N   0  0  0  0  0  2  0  0  0  0  0  0
  1 17  1  0  0  0  0
  2 12  1  0  0  0  0
  2  5  1  0  0  0  0
  4 13  1  1  0  0  0
  5  9  1  6  0  0  0
  5  6  1  0  0  0  0
  6 13  1  0  0  0  0
  6  1  1  0  0  0  0
  7  4  1  0  0  0  0
 10  3  1  6  0  0  0
 10  7  1  0  0  0  0
 11  8  1  0  0  0  0
 11 10  1  0  0  0  0
 12  8  1  6  0  0  0
 12  5  1  0  0  0  0
 12  4  1  0  0  0  0
 15 16  1  6  0  0  0
 15  7  1  0  0  0  0
 15 14  1  0  0  0  0
 17 18  2  0  0  0  0
 19 23  1  0  0  0  0
 19 29  2  0  0  0  0
 21 23  1  0  0  0  0
 21 24  2  0  0  0  0
 23 20  1  6  0  0  0
 23 25  1  0  0  0  0
 24 27  1  0  0  0  0
 25 28  1  1  0  0  0
 25 26  1  0  0  0  0
 26 31  1  1  0  0  0
 27 22  2  0  0  0  0
 27 26  1  0  0  0  0
 29 18  1  0  0  0  0
 29 28  1  0  0  0  0
 31 30  1  0  0  0  0
M  END
>  <MODEL>
1

>  <REMARK>
 VINA RESULT:      -8.5      0.000      0.000
  Name = 
  5 active torsions:
  status: ('A' for Active; 'I' for Inactive)
    1  A    between atoms: N_7  and  C_30
    2  A    between atoms: N_8  and  P_12
    3  A    between atoms: C_16  and  C_30
    4  A    between atoms: C_22  and  N_24
    5  A    between atoms: C_26  and  C_31
                            x       y       z     vdW  Elec       q    Type
                         _______ _______ _______ _____ _____    ______ ____

>  <TORSDO>
F 5

$$$$
=
 OpenBabel11032419323D

 31 35  0  0  1  0  0  0  0  0999 V2000
  191.0670  176.3820  138.7630 C   0  0  0  0  0  2  0  0  0  0  0  0
  192.5350  174.4450  135.8470 C   0  0  0  0  0  2  0  0  0  0  0  0
  197.3230  173.8150  138.0750 C   0  0  0  0  0  1  0  0  0  0  0  0
  193.9180  175.3510  137.9180 C   0  0  2  0  0  3  0  0  0  0  0  0
  191.7710  174.7900  137.1120 C   0  0  1  0  0  0  0  0  0  0  0  0
  191.7330  176.2190  137.4750 N   0  0  0  0  0  0  0  0  0  0  0  0
  195.3590  175.3090  137.6230 N   0  0  0  0  0  0  0  0  0  0  0  0
  193.5730  172.8410  137.5630 C   0  0  0  0  0  2  0  0  0  0  0  0
  190.7360  173.9360  137.5060 O   0  0  0  0  0  1  0  0  0  0  0  0
  195.8130  173.9680  138.0810 C   0  0  1  0  0  3  0  0  0  0  0  0
  195.1000  172.7800  137.3820 C   0  0  0  0  0  2  0  0  0  0  0  0
  193.1590  174.2560  137.2350 C   0  0  1  0  0  0  0  0  0  0  0  0
  193.1380  176.6280  137.6630 C   0  0  0  0  0  2  0  0  0  0  0  0
  195.0160  177.2250  135.7710 N   0  0  0  0  0  1  0  0  0  0  0  0
  195.6920  175.5610  135.8460 P   0  0  1  0  0  0  0  0  0  0  0  0
  197.3280  176.1130  136.0310 O   0  0  0  0  0  1  0  0  0  0  0  0
  189.9830  177.4010  138.6350 C   0  0  0  0  0  3  0  0  0  0  0  0
  189.2440  177.8490  139.6520 C   0  0  0  0  0  3  0  0  0  0  0  0
  190.5660  177.4730  141.6350 N   0  0  0  0  0  0  0  0  0  0  0  0
  191.0450  175.6070  143.1150 C   0  0  0  0  0  1  0  0  0  0  0  0
  191.0680  177.9110  144.0180 C   0  0  0  0  0  3  0  0  0  0  0  0
  188.7540  177.4050  146.6840 O   0  0  0  0  0  0  0  0  0  0  0  0
  190.4360  176.9950  143.0020 C   0  0  1  0  0  0  0  0  0  0  0  0
  190.5010  178.0700  145.2230 C   0  0  0  0  0  3  0  0  0  0  0  0
  188.9550  176.9150  143.1670 C   0  0  1  0  0  3  0  0  0  0  0  0
  188.3380  177.0440  144.3490 C   0  0  1  0  0  3  0  0  0  0  0  0
  189.1770  177.4730  145.5000 C   0  0  0  0  0  0  0  0  0  0  0  0
  188.3130  177.1010  141.9170 N   0  0  0  0  0  2  0  0  0  0  0  0
  189.3990  177.4760  141.0660 C   0  0  0  0  0  0  0  0  0  0  0  0
  186.0360  178.1270  144.5520 C   0  0  0  0  0  1  0  0  0  0  0  0
  186.9090  176.9720  144.4160 N   0  0  0  0  0  2  0  0  0  0  0  0
  2  5  1  0  0  0  0
  4 13  1  6  0  0  0
  5 12  1  0  0  0  0
  5  6  1  0  0  0  0
  5  9  1  1  0  0  0
  6 13  1  0  0  0  0
  6  1  1  0  0  0  0
  7  4  1  0  0  0  0
  7 10  1  0  0  0  0
 10  3  1  6  0  0  0
 11  8  1  0  0  0  0
 11 10  1  0  0  0  0
 12  2  1  6  0  0  0
 12  8  1  0  0  0  0
 12  4  1  0  0  0  0
 15 14  1  1  0  0  0
 15 16  1  0  0  0  0
 15  7  1  0  0  0  0
 17  1  1  0  0  0  0
 17 18  2  0  0  0  0
 18 29  1  0  0  0  0
 19 23  1  0  0  0  0
 21 24  2  0  0  0  0
 23 20  1  1  0  0  0
 23 25  1  0  0  0  0
 23 21  1  0  0  0  0
 24 27  1  0  0  0  0
 25 28  1  6  0  0  0
 25 26  1  0  0  0  0
 26 31  1  6  0  0  0
 26 27  1  0  0  0  0
 27 22  2  0  0  0  0
 29 19  2  0  0  0  0
 29 28  1  0  0  0  0
 31 30  1  0  0  0  0
M  END
>  <MODEL>
2

>  <REMARK>
 VINA RESULT:      -8.3      7.079     10.337
  Name = 
  5 active torsions:
  status: ('A' for Active; 'I' for Inactive)
    1  A    between atoms: N_7  and  C_30
    2  A    between atoms: N_8  and  P_12
    3  A    between atoms: C_16  and  C_30
    4  A    between atoms: C_22  and  N_24
    5  A    between atoms: C_26  and  C_31
                            x       y       z     vdW  Elec       q    Type
                         _______ _______ _______ _____ _____    ______ ____

>  <TORSDO>
F 5

$$$$
=
 OpenBabel11032419323D

 31 35  0  0  1  0  0  0  0  0999 V2000
  190.0230  176.7610  138.7430 C   0  0  0  0  0  2  0  0  0  0  0  0
  191.3180  175.6540  135.3510 C   0  0  0  0  0  2  0  0  0  0  0  0
  195.0610  172.4270  137.3140 C   0  0  0  0  0  1  0  0  0  0  0  0
  192.4740  175.1020  137.6700 C   0  0  2  0  0  3  0  0  0  0  0  0
  190.4740  175.7670  136.6060 C   0  0  1  0  0  0  0  0  0  0  0  0
  190.8430  176.8480  137.5390 N   0  0  0  0  0  0  0  0  0  0  0  0
  193.8450  174.6170  137.4510 N   0  0  0  0  0  0  0  0  0  0  0  0
  191.3880  173.2570  136.2690 C   0  0  0  0  0  2  0  0  0  0  0  0
  189.1550  175.3030  136.5540 O   0  0  0  0  0  1  0  0  0  0  0  0
  193.7210  173.1410  137.3160 C   0  0  1  0  0  3  0  0  0  0  0  0
  192.8100  172.6800  136.1480 C   0  0  0  0  0  2  0  0  0  0  0  0
  191.5470  174.7330  136.5540 C   0  0  1  0  0  0  0  0  0  0  0  0
  192.2350  176.5760  137.9460 C   0  0  0  0  0  2  0  0  0  0  0  0
  194.3730  177.0710  136.4920 N   0  0  0  0  0  1  0  0  0  0  0  0
  194.5970  175.3670  135.9650 P   0  0  1  0  0  0  0  0  0  0  0  0
  196.2400  175.2920  136.5200 O   0  0  0  0  0  1  0  0  0  0  0  0
  189.1640  177.9770  138.8460 C   0  0  0  0  0  3  0  0  0  0  0  0
  188.6310  178.4310  139.9830 C   0  0  0  0  0  3  0  0  0  0  0  0
  190.0340  177.6610  141.7880 N   0  0  0  0  0  0  0  0  0  0  0  0
  190.3890  175.5780  142.9890 C   0  0  0  0  0  1  0  0  0  0  0  0
  190.7500  177.7310  144.1560 C   0  0  0  0  0  3  0  0  0  0  0  0
  188.5840  177.1420  146.9280 O   0  0  0  0  0  0  0  0  0  0  0  0
  189.9440  177.0280  143.0940 C   0  0  1  0  0  0  0  0  0  0  0  0
  190.2910  177.7950  145.4140 C   0  0  0  0  0  3  0  0  0  0  0  0
  188.4790  177.0900  143.3730 C   0  0  1  0  0  3  0  0  0  0  0  0
  187.9660  177.1330  144.6090 C   0  0  1  0  0  3  0  0  0  0  0  0
  188.9280  177.3150  145.7290 C   0  0  0  0  0  0  0  0  0  0  0  0
  187.7780  177.5050  142.2120 N   0  0  0  0  0  2  0  0  0  0  0  0
  188.8390  177.8650  141.3250 C   0  0  0  0  0  0  0  0  0  0  0  0
  185.8370  178.4100  145.2000 C   0  0  0  0  0  1  0  0  0  0  0  0
  186.5460  177.2100  144.7870 N   0  0  0  0  0  2  0  0  0  0  0  0
  1 17  1  0  0  0  0
  2  5  1  0  0  0  0
  4 13  1  6  0  0  0
  5  9  1  6  0  0  0
  5  6  1  0  0  0  0
  6 13  1  0  0  0  0
  6  1  1  0  0  0  0
  7  4  1  0  0  0  0
  8 12  1  0  0  0  0
 10  3  1  6  0  0  0
 10  7  1  0  0  0  0
 11  8  1  0  0  0  0
 11 10  1  0  0  0  0
 12  2  1  6  0  0  0
 12  5  1  0  0  0  0
 12  4  1  0  0  0  0
 15 14  1  1  0  0  0
 15 16  1  0  0  0  0
 15  7  1  0  0  0  0
 17 18  2  0  0  0  0
 18 29  1  0  0  0  0
 19 23  1  0  0  0  0
 21 24  2  0  0  0  0
 23 20  1  6  0  0  0
 23 25  1  0  0  0  0
 23 21  1  0  0  0  0
 24 27  1  0  0  0  0
 25 28  1  6  0  0  0
 25 26  1  0  0  0  0
 26 31  1  6  0  0  0
 26 27  1  0  0  0  0
 27 22  2  0  0  0  0
 29 19  2  0  0  0  0
 29 28  1  0  0  0  0
 31 30  1  0  0  0  0
M  END
>  <MODEL>
3

>  <REMARK>
 VINA RESULT:      -8.2      6.628      9.441
  Name = 
  5 active torsions:
  status: ('A' for Active; 'I' for Inactive)
    1  A    between atoms: N_7  and  C_30
    2  A    between atoms: N_8  and  P_12
    3  A    between atoms: C_16  and  C_30
    4  A    between atoms: C_22  and  N_24
    5  A    between atoms: C_26  and  C_31
                            x       y       z     vdW  Elec       q    Type
                         _______ _______ _______ _____ _____    ______ ____

>  <TORSDO>
F 5

$$$$
=
 OpenBabel11032419323D

 31 35  0  0  1  0  0  0  0  0999 V2000
  183.5950  178.2530  143.4980 C   0  0  0  0  0  2  0  0  0  0  0  0
  181.6210  179.3750  140.4560 C   0  0  0  0  0  2  0  0  0  0  0  0
  182.8050  175.0930  137.5310 C   0  0  0  0  0  1  0  0  0  0  0  0
  183.2620  177.2960  140.5170 C   0  0  2  0  0  3  0  0  0  0  0  0
  181.9760  178.7940  141.8120 C   0  0  1  0  0  0  0  0  0  0  0  0
  183.3790  178.9550  142.2370 N   0  0  0  0  0  0  0  0  0  0  0  0
  183.5700  176.8510  139.1490 N   0  0  0  0  0  0  0  0  0  0  0  0
  180.7380  176.9710  140.2650 C   0  0  0  0  0  2  0  0  0  0  0  0
  180.9590  178.6880  142.7660 O   0  0  0  0  0  1  0  0  0  0  0  0
  182.5260  175.8440  138.8210 C   0  0  1  0  0  3  0  0  0  0  0  0
  181.0730  176.3870  138.8810 C   0  0  0  0  0  2  0  0  0  0  0  0
  181.8880  177.8770  140.6390 C   0  0  1  0  0  0  0  0  0  0  0  0
  184.1940  178.2690  141.2180 C   0  0  0  0  0  2  0  0  0  0  0  0
  184.9300  179.1280  138.7180 N   0  0  0  0  0  1  0  0  0  0  0  0
  183.5560  178.2440  137.9690 P   0  0  1  0  0  0  0  0  0  0  0  0
  184.5530  177.4880  136.7650 O   0  0  0  0  0  1  0  0  0  0  0  0
  183.7240  179.2470  144.6040 C   0  0  0  0  0  3  0  0  0  0  0  0
  184.8040  179.3790  145.3790 C   0  0  0  0  0  3  0  0  0  0  0  0
  186.6470  178.4940  144.0990 N   0  0  0  0  0  0  0  0  0  0  0  0
  187.5600  176.3000  143.5930 C   0  0  0  0  0  1  0  0  0  0  0  0
  189.0750  178.2550  143.6790 C   0  0  0  0  0  3  0  0  0  0  0  0
  191.4040  176.9530  146.0450 O   0  0  0  0  0  0  0  0  0  0  0  0
  187.8190  177.6470  144.2490 C   0  0  1  0  0  0  0  0  0  0  0  0
  190.2530  178.0520  144.2840 C   0  0  0  0  0  3  0  0  0  0  0  0
  187.9010  177.4830  145.7300 C   0  0  1  0  0  3  0  0  0  0  0  0
  189.0470  177.2560  146.3830 C   0  0  1  0  0  3  0  0  0  0  0  0
  190.3030  177.3650  145.5930 C   0  0  0  0  0  0  0  0  0  0  0  0
  186.7300  177.9970  146.3440 N   0  0  0  0  0  2  0  0  0  0  0  0
  186.0600  178.6260  145.2490 C   0  0  0  0  0  0  0  0  0  0  0  0
  189.0590  178.2530  148.7330 C   0  0  0  0  0  1  0  0  0  0  0  0
  189.0390  177.1290  147.8110 N   0  0  0  0  0  2  0  0  0  0  0  0
  1 17  1  0  0  0  0
  2 12  1  0  0  0  0
  2  5  1  0  0  0  0
  4 12  1  0  0  0  0
  4 13  1  6  0  0  0
  5  6  1  0  0  0  0
  5  9  1  1  0  0  0
  6  1  1  0  0  0  0
  7  4  1  0  0  0  0
 10  3  1  6  0  0  0
 10 11  1  0  0  0  0
 10  7  1  0  0  0  0
 11  8  1  0  0  0  0
 12  8  1  6  0  0  0
 12  5  1  0  0  0  0
 13  6  1  0  0  0  0
 15 16  1  6  0  0  0
 15 14  1  0  0  0  0
 15  7  1  0  0  0  0
 17 18  2  0  0  0  0
 19 23  1  0  0  0  0
 19 29  2  0  0  0  0
 21 23  1  0  0  0  0
 21 24  2  0  0  0  0
 23 20  1  6  0  0  0
 23 25  1  0  0  0  0
 24 27  1  0  0  0  0
 25 28  1  1  0  0  0
 25 26  1  0  0  0  0
 26 31  1  1  0  0  0
 27 22  2  0  0  0  0
 27 26  1  0  0  0  0
 29 18  1  0  0  0  0
 29 28  1  0  0  0  0
 31 30  1  0  0  0  0
M  END
>  <MODEL>
4

>  <REMARK>
 VINA RESULT:      -8.1      1.956      2.971
  Name = 
  5 active torsions:
  status: ('A' for Active; 'I' for Inactive)
    1  A    between atoms: N_7  and  C_30
    2  A    between atoms: N_8  and  P_12
    3  A    between atoms: C_16  and  C_30
    4  A    between atoms: C_22  and  N_24
    5  A    between atoms: C_26  and  C_31
                            x       y       z     vdW  Elec       q    Type
                         _______ _______ _______ _____ _____    ______ ____

>  <TORSDO>
F 5

$$$$
=
 OpenBabel11032419323D

 31 35  0  0  1  0  0  0  0  0999 V2000
  186.6680  177.7610  139.0010 C   0  0  0  0  0  2  0  0  0  0  0  0
  183.5130  179.8720  138.9740 C   0  0  0  0  0  2  0  0  0  0  0  0
  180.1840  175.7270  138.8310 C   0  0  0  0  0  1  0  0  0  0  0  0
  183.5890  177.2520  138.5880 C   0  0  2  0  0  3  0  0  0  0  0  0
  184.7440  179.1230  139.4500 C   0  0  1  0  0  0  0  0  0  0  0  0
  185.5940  178.5420  138.3940 N   0  0  0  0  0  0  0  0  0  0  0  0
  182.3120  176.7850  138.0270 N   0  0  0  0  0  0  0  0  0  0  0  0
  182.5250  178.2410  140.6940 C   0  0  0  0  0  2  0  0  0  0  0  0
  185.3000  179.4880  140.6800 O   0  0  0  0  0  1  0  0  0  0  0  0
  181.4670  176.4490  139.2040 C   0  0  1  0  0  3  0  0  0  0  0  0
  181.2110  177.6400  140.1660 C   0  0  0  0  0  2  0  0  0  0  0  0
  183.4220  178.4330  139.4930 C   0  0  1  0  0  0  0  0  0  0  0  0
  184.7380  177.5940  137.6560 C   0  0  0  0  0  2  0  0  0  0  0  0
  182.4890  177.6880  135.5030 N   0  0  0  0  0  1  0  0  0  0  0  0
  181.5310  178.0580  136.9770 P   0  0  1  0  0  0  0  0  0  0  0  0
  180.1770  177.0930  136.4760 O   0  0  0  0  0  1  0  0  0  0  0  0
  187.9770  178.4270  138.7340 C   0  0  0  0  0  3  0  0  0  0  0  0
  188.9570  178.5540  139.6330 C   0  0  0  0  0  3  0  0  0  0  0  0
  190.0600  177.7880  141.6370 N   0  0  0  0  0  0  0  0  0  0  0  0
  190.1640  175.7290  142.9240 C   0  0  0  0  0  1  0  0  0  0  0  0
  190.4340  177.9000  144.0810 C   0  0  0  0  0  3  0  0  0  0  0  0
  187.8760  177.4610  146.5270 O   0  0  0  0  0  0  0  0  0  0  0  0
  189.7610  177.1950  142.9310 C   0  0  1  0  0  0  0  0  0  0  0  0
  189.8040  178.0140  145.2590 C   0  0  0  0  0  3  0  0  0  0  0  0
  188.2760  177.3130  142.9960 C   0  0  1  0  0  3  0  0  0  0  0  0
  187.5940  177.4070  144.1440 C   0  0  1  0  0  3  0  0  0  0  0  0
  188.3930  177.5890  145.3860 C   0  0  0  0  0  0  0  0  0  0  0  0
  187.7630  177.7190  141.7370 N   0  0  0  0  0  2  0  0  0  0  0  0
  188.9510  178.0190  141.0030 C   0  0  0  0  0  0  0  0  0  0  0  0
  185.4500  178.7650  144.4160 C   0  0  0  0  0  1  0  0  0  0  0  0
  186.1670  177.5360  144.1160 N   0  0  0  0  0  2  0  0  0  0  0  0
  2  5  1  0  0  0  0
  4 13  1  6  0  0  0
  4 12  1  0  0  0  0
  5 12  1  0  0  0  0
  5  9  1  1  0  0  0
  6  1  1  0  0  0  0
  6  5  1  0  0  0  0
  7  4  1  0  0  0  0
  7 10  1  0  0  0  0
 10  3  1  6  0  0  0
 10 11  1  0  0  0  0
 11  8  1  0  0  0  0
 12  2  1  6  0  0  0
 12  8  1  0  0  0  0
 13  6  1  0  0  0  0
 15 14  1  6  0  0  0
 15  7  1  0  0  0  0
 16 15  1  0  0  0  0
 17  1  1  0  0  0  0
 17 18  2  0  0  0  0
 18 29  1  0  0  0  0
 19 23  1  0  0  0  0
 21 24  2  0  0  0  0
 23 20  1  6  0  0  0
 23 25  1  0  0  0  0
 23 21  1  0  0  0  0
 24 27  1  0  0  0  0
 25 28  1  6  0  0  0
 25 26  1  0  0  0  0
 26 31  1  6  0  0  0
 26 27  1  0  0  0  0
 27 22  2  0  0  0  0
 29 19  2  0  0  0  0
 29 28  1  0  0  0  0
 31 30  1  0  0  0  0
M  END
>  <MODEL>
5

>  <REMARK>
 VINA RESULT:      -7.9      2.629      3.894
  Name = 
  5 active torsions:
  status: ('A' for Active; 'I' for Inactive)
    1  A    between atoms: N_7  and  C_30
    2  A    between atoms: N_8  and  P_12
    3  A    between atoms: C_16  and  C_30
    4  A    between atoms: C_22  and  N_24
    5  A    between atoms: C_26  and  C_31
                            x       y       z     vdW  Elec       q    Type
                         _______ _______ _______ _____ _____    ______ ____

>  <TORSDO>
F 5

$$$$
=
 OpenBabel11032419323D

 31 35  0  0  1  0  0  0  0  0999 V2000
  189.9830  177.4140  141.7740 C   0  0  0  0  0  2  0  0  0  0  0  0
  189.4310  178.4290  138.1590 C   0  0  0  0  0  2  0  0  0  0  0  0
  189.8200  173.4900  136.2260 C   0  0  0  0  0  1  0  0  0  0  0  0
  190.1710  176.0150  138.9600 C   0  0  2  0  0  3  0  0  0  0  0  0
  189.1780  178.0560  139.6070 C   0  0  1  0  0  0  0  0  0  0  0  0
  190.3760  177.8770  140.4470 N   0  0  0  0  0  0  0  0  0  0  0  0
  190.6690  175.2310  137.8190 N   0  0  0  0  0  0  0  0  0  0  0  0
  187.8620  176.4090  137.9340 C   0  0  0  0  0  2  0  0  0  0  0  0
  187.9670  178.4520  140.1850 O   0  0  0  0  0  1  0  0  0  0  0  0
  189.4740  174.5340  137.2720 C   0  0  1  0  0  3  0  0  0  0  0  0
  188.3410  175.4830  136.8010 C   0  0  0  0  0  2  0  0  0  0  0  0
  189.1040  176.9890  138.5690 C   0  0  1  0  0  0  0  0  0  0  0  0
  191.1520  176.7890  139.8240 C   0  0  0  0  0  2  0  0  0  0  0  0
  193.0590  176.3780  137.3800 N   0  0  0  0  0  1  0  0  0  0  0  0
  191.4600  176.2960  136.5640 P   0  0  1  0  0  0  0  0  0  0  0  0
  191.9430  175.0140  135.4980 O   0  0  0  0  0  1  0  0  0  0  0  0
  191.0370  177.7880  142.7630 C   0  0  0  0  0  3  0  0  0  0  0  0
  190.8110  178.0110  144.0600 C   0  0  0  0  0  3  0  0  0  0  0  0
  189.4370  177.9780  146.0420 N   0  0  0  0  0  0  0  0  0  0  0  0
  187.9920  176.3810  147.1670 C   0  0  0  0  0  1  0  0  0  0  0  0
  187.5050  178.8000  147.3520 C   0  0  0  0  0  3  0  0  0  0  0  0
  184.1230  178.6960  146.2240 O   0  0  0  0  0  0  0  0  0  0  0  0
  188.0670  177.7240  146.4590 C   0  0  1  0  0  0  0  0  0  0  0  0
  186.2120  179.1430  147.2570 C   0  0  0  0  0  3  0  0  0  0  0  0
  187.3490  177.6500  145.1530 C   0  0  1  0  0  3  0  0  0  0  0  0
  186.0550  177.9590  145.0070 C   0  0  1  0  0  3  0  0  0  0  0  0
  185.3760  178.5790  146.1760 C   0  0  0  0  0  0  0  0  0  0  0  0
  188.2810  177.6240  144.0850 N   0  0  0  0  0  2  0  0  0  0  0  0
  189.5200  177.8720  144.7510 C   0  0  0  0  0  0  0  0  0  0  0  0
  185.2090  179.0220  142.8460 C   0  0  0  0  0  1  0  0  0  0  0  0
  185.4470  177.8780  143.7110 N   0  0  0  0  0  2  0  0  0  0  0  0
  1 17  1  0  0  0  0
  2 12  1  0  0  0  0
  2  5  1  0  0  0  0
  4 13  1  6  0  0  0
  5  9  1  1  0  0  0
  5  6  1  0  0  0  0
  6  1  1  0  0  0  0
  7  4  1  0  0  0  0
 10  3  1  6  0  0  0
 10  7  1  0  0  0  0
 11 10  1  0  0  0  0
 11  8  1  0  0  0  0
 12  8  1  6  0  0  0
 12  4  1  0  0  0  0
 12  5  1  0  0  0  0
 13  6  1  0  0  0  0
 15 16  1  6  0  0  0
 15 14  1  0  0  0  0
 15  7  1  0  0  0  0
 17 18  2  0  0  0  0
 18 29  1  0  0  0  0
 19 23  1  0  0  0  0
 23 20  1  1  0  0  0
 23 21  1  0  0  0  0
 24 21  2  0  0  0  0
 25 28  1  6  0  0  0
 25 23  1  0  0  0  0
 26 31  1  6  0  0  0
 26 25  1  0  0  0  0
 26 27  1  0  0  0  0
 27 22  2  0  0  0  0
 27 24  1  0  0  0  0
 28 29  1  0  0  0  0
 29 19  2  0  0  0  0
 30 31  1  0  0  0  0
M  END
>  <MODEL>
6

>  <REMARK>
 VINA RESULT:      -7.9      4.877      7.595
  Name = 
  5 active torsions:
  status: ('A' for Active; 'I' for Inactive)
    1  A    between atoms: N_7  and  C_30
    2  A    between atoms: N_8  and  P_12
    3  A    between atoms: C_16  and  C_30
    4  A    between atoms: C_22  and  N_24
    5  A    between atoms: C_26  and  C_31
                            x       y       z     vdW  Elec       q    Type
                         _______ _______ _______ _____ _____    ______ ____

>  <TORSDO>
F 5

$$$$
=
 OpenBabel11032419323D

 31 35  0  0  1  0  0  0  0  0999 V2000
  188.0770  177.1930  139.6780 C   0  0  0  0  0  2  0  0  0  0  0  0
  190.0000  177.6990  136.4450 C   0  0  0  0  0  2  0  0  0  0  0  0
  192.4550  172.9850  136.6240 C   0  0  0  0  0  1  0  0  0  0  0  0
  190.3860  175.7030  138.1440 C   0  0  2  0  0  3  0  0  0  0  0  0
  188.8890  177.3820  137.4290 C   0  0  1  0  0  0  0  0  0  0  0  0
  189.1870  177.6490  138.8480 N   0  0  0  0  0  0  0  0  0  0  0  0
  191.6580  175.0240  137.8490 N   0  0  0  0  0  0  0  0  0  0  0  0
  189.3970  175.2820  135.8230 C   0  0  0  0  0  2  0  0  0  0  0  0
  187.5700  177.4300  136.9650 O   0  0  0  0  0  1  0  0  0  0  0  0
  191.3120  173.9510  136.8780 C   0  0  1  0  0  3  0  0  0  0  0  0
  190.6740  174.4640  135.5600 C   0  0  0  0  0  2  0  0  0  0  0  0
  189.7360  176.2660  136.9180 C   0  0  1  0  0  0  0  0  0  0  0  0
  190.3500  176.8070  139.1850 C   0  0  0  0  0  2  0  0  0  0  0  0
  193.5720  176.6800  138.7510 N   0  0  0  0  0  1  0  0  0  0  0  0
  192.8950  176.1780  137.1630 P   0  0  1  0  0  0  0  0  0  0  0  0
  194.1320  174.9920  136.8840 O   0  0  0  0  0  1  0  0  0  0  0  0
  187.3890  178.3740  140.2800 C   0  0  0  0  0  3  0  0  0  0  0  0
  187.4570  178.7110  141.5700 C   0  0  0  0  0  3  0  0  0  0  0  0
  189.5180  177.7870  142.4200 N   0  0  0  0  0  0  0  0  0  0  0  0
  190.3130  175.6090  143.1480 C   0  0  0  0  0  1  0  0  0  0  0  0
  191.2790  177.6550  144.1530 C   0  0  0  0  0  3  0  0  0  0  0  0
  190.6750  176.8390  147.5720 O   0  0  0  0  0  0  0  0  0  0  0  0
  190.0340  177.0470  143.5600 C   0  0  1  0  0  0  0  0  0  0  0  0
  191.4800  177.6130  145.4780 C   0  0  0  0  0  3  0  0  0  0  0  0
  188.8850  177.0880  144.5090 C   0  0  1  0  0  3  0  0  0  0  0  0
  189.0260  177.0280  145.8390 C   0  0  1  0  0  3  0  0  0  0  0  0
  190.4130  177.1120  146.3710 C   0  0  0  0  0  0  0  0  0  0  0  0
  187.7330  177.6020  143.8600 N   0  0  0  0  0  2  0  0  0  0  0  0
  188.2560  178.0330  142.6020 C   0  0  0  0  0  0  0  0  0  0  0  0
  187.5270  178.2320  147.5170 C   0  0  0  0  0  1  0  0  0  0  0  0
  187.8680  177.0930  146.6810 N   0  0  0  0  0  2  0  0  0  0  0  0
  1 17  1  0  0  0  0
  2 12  1  0  0  0  0
  2  5  1  0  0  0  0
  4 13  1  1  0  0  0
  5  9  1  6  0  0  0
  5  6  1  0  0  0  0
  6 13  1  0  0  0  0
  6  1  1  0  0  0  0
  7  4  1  0  0  0  0
 10  3  1  6  0  0  0
 10  7  1  0  0  0  0
 11  8  1  0  0  0  0
 11 10  1  0  0  0  0
 12  8  1  6  0  0  0
 12  5  1  0  0  0  0
 12  4  1  0  0  0  0
 15 16  1  6  0  0  0
 15  7  1  0  0  0  0
 15 14  1  0  0  0  0
 17 18  2  0  0  0  0
 18 29  1  0  0  0  0
 19 29  2  0  0  0  0
 19 23  1  0  0  0  0
 21 24  2  0  0  0  0
 23 20  1  6  0  0  0
 23 21  1  0  0  0  0
 23 25  1  0  0  0  0
 24 27  1  0  0  0  0
 25 28  1  1  0  0  0
 25 26  1  0  0  0  0
 26 27  1  0  0  0  0
 26 31  1  1  0  0  0
 27 22  2  0  0  0  0
 29 28  1  0  0  0  0
 31 30  1  0  0  0  0
M  END
>  <MODEL>
7

>  <REMARK>
 VINA RESULT:      -7.8      5.531      7.781
  Name = 
  5 active torsions:
  status: ('A' for Active; 'I' for Inactive)
    1  A    between atoms: N_7  and  C_30
    2  A    between atoms: N_8  and  P_12
    3  A    between atoms: C_16  and  C_30
    4  A    between atoms: C_22  and  N_24
    5  A    between atoms: C_26  and  C_31
                            x       y       z     vdW  Elec       q    Type
                         _______ _______ _______ _____ _____    ______ ____

>  <TORSDO>
F 5

$$$$
=
 OpenBabel11032419323D

 31 35  0  0  1  0  0  0  0  0999 V2000
  184.7320  178.1610  142.0220 C   0  0  0  0  0  2  0  0  0  0  0  0
  184.1420  179.8540  138.6770 C   0  0  0  0  0  2  0  0  0  0  0  0
  186.4770  176.0350  135.8060 C   0  0  0  0  0  1  0  0  0  0  0  0
  185.6510  177.7080  139.0460 C   0  0  2  0  0  3  0  0  0  0  0  0
  183.9270  179.0480  139.9440 C   0  0  1  0  0  0  0  0  0  0  0  0
  185.0340  179.0650  140.9170 N   0  0  0  0  0  0  0  0  0  0  0  0
  186.4940  177.4700  137.8640 N   0  0  0  0  0  0  0  0  0  0  0  0
  183.4500  177.5620  137.7490 C   0  0  0  0  0  2  0  0  0  0  0  0
  182.6120  178.8460  140.3770 O   0  0  0  0  0  1  0  0  0  0  0  0
  185.6880  176.5850  136.9810 C   0  0  1  0  0  3  0  0  0  0  0  0
  184.3270  177.1880  136.5410 C   0  0  0  0  0  2  0  0  0  0  0  0
  184.3360  178.3340  138.6990 C   0  0  1  0  0  0  0  0  0  0  0  0
  186.2040  178.5060  140.2130 C   0  0  0  0  0  2  0  0  0  0  0  0
  188.5760  179.1640  137.7520 N   0  0  0  0  0  1  0  0  0  0  0  0
  186.9370  179.0310  137.0270 P   0  0  1  0  0  0  0  0  0  0  0  0
  187.5210  178.3070  135.5610 O   0  0  0  0  0  1  0  0  0  0  0  0
  184.4460  178.9580  143.2520 C   0  0  0  0  0  3  0  0  0  0  0  0
  185.2330  178.9930  144.3300 C   0  0  0  0  0  3  0  0  0  0  0  0
  187.3570  178.2230  143.4810 N   0  0  0  0  0  0  0  0  0  0  0  0
  188.4810  176.0880  143.1990 C   0  0  0  0  0  1  0  0  0  0  0  0
  189.8270  178.1280  143.5910 C   0  0  0  0  0  3  0  0  0  0  0  0
  191.6670  176.9530  146.4120 O   0  0  0  0  0  0  0  0  0  0  0  0
  188.5160  177.4450  143.8850 C   0  0  1  0  0  0  0  0  0  0  0  0
  190.8590  177.9910  144.4370 C   0  0  0  0  0  3  0  0  0  0  0  0
  188.2880  177.2780  145.3500 C   0  0  1  0  0  3  0  0  0  0  0  0
  189.2790  177.1160  146.2350 C   0  0  1  0  0  3  0  0  0  0  0  0
  190.6660  177.3010  145.7310 C   0  0  0  0  0  0  0  0  0  0  0  0
  186.9860  177.7210  145.6950 N   0  0  0  0  0  2  0  0  0  0  0  0
  186.5300  178.3150  144.4780 C   0  0  0  0  0  0  0  0  0  0  0  0
  188.8570  178.0980  148.5520 C   0  0  0  0  0  1  0  0  0  0  0  0
  188.9730  176.9820  147.6290 N   0  0  0  0  0  2  0  0  0  0  0  0
  1 17  1  0  0  0  0
  2 12  1  0  0  0  0
  2  5  1  0  0  0  0
  4 13  1  1  0  0  0
  5  9  1  1  0  0  0
  5  6  1  0  0  0  0
  6  1  1  0  0  0  0
  7  4  1  0  0  0  0
 10  3  1  6  0  0  0
 10  7  1  0  0  0  0
 11 10  1  0  0  0  0
 11  8  1  0  0  0  0
 12  8  1  6  0  0  0
 12  4  1  0  0  0  0
 12  5  1  0  0  0  0
 13  6  1  0  0  0  0
 15 16  1  6  0  0  0
 15 14  1  0  0  0  0
 15  7  1  0  0  0  0
 17 18  2  0  0  0  0
 18 29  1  0  0  0  0
 19 23  1  0  0  0  0
 19 29  2  0  0  0  0
 21 23  1  0  0  0  0
 21 24  2  0  0  0  0
 23 20  1  6  0  0  0
 23 25  1  0  0  0  0
 24 27  1  0  0  0  0
 25 28  1  1  0  0  0
 25 26  1  0  0  0  0
 26 31  1  1  0  0  0
 27 26  1  0  0  0  0
 27 22  2  0  0  0  0
 29 28  1  0  0  0  0
 31 30  1  0  0  0  0
M  END
>  <MODEL>
8

>  <REMARK>
 VINA RESULT:      -7.7      2.700      4.097
  Name = 
  5 active torsions:
  status: ('A' for Active; 'I' for Inactive)
    1  A    between atoms: N_7  and  C_30
    2  A    between atoms: N_8  and  P_12
    3  A    between atoms: C_16  and  C_30
    4  A    between atoms: C_22  and  N_24
    5  A    between atoms: C_26  and  C_31
                            x       y       z     vdW  Elec       q    Type
                         _______ _______ _______ _____ _____    ______ ____

>  <TORSDO>
F 5

$$$$
=
 OpenBabel11032419323D

 31 35  0  0  1  0  0  0  0  0999 V2000
  189.9940  177.3190  138.9640 C   0  0  0  0  0  2  0  0  0  0  0  0
  188.1830  177.8120  135.6650 C   0  0  0  0  0  2  0  0  0  0  0  0
  184.4530  174.1470  136.6320 C   0  0  0  0  0  1  0  0  0  0  0  0
  187.6820  175.8690  137.3950 C   0  0  2  0  0  3  0  0  0  0  0  0
  188.6520  178.0000  137.0950 C   0  0  1  0  0  0  0  0  0  0  0  0
  189.7290  177.0990  137.5460 N   0  0  0  0  0  0  0  0  0  0  0  0
  186.8650  174.8230  136.7610 N   0  0  0  0  0  0  0  0  0  0  0  0
  185.9770  177.7290  136.9760 C   0  0  0  0  0  2  0  0  0  0  0  0
  188.5070  179.2670  137.6720 O   0  0  0  0  0  1  0  0  0  0  0  0
  185.4540  175.2230  137.0100 C   0  0  1  0  0  3  0  0  0  0  0  0
  185.0720  176.6100  136.4290 C   0  0  0  0  0  2  0  0  0  0  0  0
  187.3980  177.2330  136.8470 C   0  0  1  0  0  0  0  0  0  0  0  0
  189.1940  175.7300  137.4170 C   0  0  0  0  0  2  0  0  0  0  0  0
  188.8420  173.9360  135.1720 N   0  0  0  0  0  1  0  0  0  0  0  0
  187.2190  174.6810  134.9760 P   0  0  1  0  0  0  0  0  0  0  0  0
  186.4230  173.1550  134.7400 O   0  0  0  0  0  1  0  0  0  0  0  0
  191.4590  177.5240  139.1690 C   0  0  0  0  0  3  0  0  0  0  0  0
  192.0720  177.4620  140.3530 C   0  0  0  0  0  3  0  0  0  0  0  0
  192.1240  177.1360  142.7430 N   0  0  0  0  0  0  0  0  0  0  0  0
  191.7080  175.3080  144.2900 C   0  0  0  0  0  1  0  0  0  0  0  0
  191.2820  177.6360  145.0160 C   0  0  0  0  0  3  0  0  0  0  0  0
  187.8940  177.2050  146.0430 O   0  0  0  0  0  0  0  0  0  0  0  0
  191.2760  176.6950  143.8390 C   0  0  1  0  0  0  0  0  0  0  0  0
  190.1620  177.8280  145.7270 C   0  0  0  0  0  3  0  0  0  0  0  0
  189.9350  176.6220  143.1890 C   0  0  1  0  0  3  0  0  0  0  0  0
  188.7850  176.7840  143.8550 C   0  0  1  0  0  3  0  0  0  0  0  0
  188.8850  177.2410  145.2660 C   0  0  0  0  0  0  0  0  0  0  0  0
  190.0630  176.7770  141.7850 N   0  0  0  0  0  2  0  0  0  0  0  0
  191.4410  177.1260  141.6390 C   0  0  0  0  0  0  0  0  0  0  0  0
  186.6600  177.8530  142.9300 C   0  0  0  0  0  1  0  0  0  0  0  0
  187.5390  176.7160  143.1490 N   0  0  0  0  0  2  0  0  0  0  0  0
  1 17  1  0  0  0  0
  2  5  1  0  0  0  0
  4 13  1  6  0  0  0
  5  6  1  0  0  0  0
  5  9  1  1  0  0  0
  6  1  1  0  0  0  0
  7 10  1  0  0  0  0
  7  4  1  0  0  0  0
 10  3  1  6  0  0  0
 11  8  1  0  0  0  0
 11 10  1  0  0  0  0
 12  2  1  6  0  0  0
 12  8  1  0  0  0  0
 12  5  1  0  0  0  0
 12  4  1  0  0  0  0
 13  6  1  0  0  0  0
 15 16  1  6  0  0  0
 15 14  1  0  0  0  0
 15  7  1  0  0  0  0
 17 18  2  0  0  0  0
 18 29  1  0  0  0  0
 19 23  1  0  0  0  0
 21 24  2  0  0  0  0
 23 20  1  1  0  0  0
 23 21  1  0  0  0  0
 25 28  1  6  0  0  0
 25 23  1  0  0  0  0
 25 26  1  0  0  0  0
 26 31  1  6  0  0  0
 26 27  1  0  0  0  0
 27 24  1  0  0  0  0
 27 22  2  0  0  0  0
 29 28  1  0  0  0  0
 29 19  2  0  0  0  0
 30 31  1  0  0  0  0
M  END
>  <MODEL>
9

>  <REMARK>
 VINA RESULT:      -7.4      4.819      6.482
  Name = 
  5 active torsions:
  status: ('A' for Active; 'I' for Inactive)
    1  A    between atoms: N_7  and  C_30
    2  A    between atoms: N_8  and  P_12
    3  A    between atoms: C_16  and  C_30
    4  A    between atoms: C_22  and  N_24
    5  A    between atoms: C_26  and  C_31
                            x       y       z     vdW  Elec       q    Type
                         _______ _______ _______ _____ _____    ______ ____

>  <TORSDO>
F 5

$$$$
