=
 OpenBabel11032419373D

 49 54  0  0  1  0  0  0  0  0999 V2000
  185.0600  178.1800  137.6010 N   0  0  0  0  0  0  0  0  0  0  0  0
  186.8660  175.7160  135.5830 F   0  0  0  0  0  0  0  0  0  0  0  0
  186.5580  176.6160  136.5510 C   0  0  0  0  0  0  0  0  0  0  0  0
  185.3890  177.2710  136.5330 C   0  0  0  0  0  0  0  0  0  0  0  0
  188.1720  179.1890  141.8590 O   0  0  0  0  0  0  0  0  0  0  0  0
  185.7680  178.2730  138.6860 C   0  0  0  0  0  0  0  0  0  0  0  0
  185.3490  179.1640  139.7180 N   0  0  0  0  0  2  0  0  0  0  0  0
  187.5870  176.9490  137.5910 C   0  0  0  0  0  2  0  0  0  0  0  0
  185.9700  179.1590  141.0410 C   0  0  2  0  0  3  0  0  0  0  0  0
  187.9990  177.9640  139.8420 C   0  0  2  0  0  3  0  0  0  0  0  0
  187.4280  178.7850  140.9810 C   0  0  0  0  0  0  0  0  0  0  0  0
  186.9370  177.3480  138.9210 C   0  0  1  0  0  3  0  0  0  0  0  0
  183.1140  177.3280  135.8670 C   0  0  0  0  0  2  0  0  0  0  0  0
  184.3340  173.2740  135.8510 S   0  0  0  0  0  0  0  0  0  0  0  0
  180.9630  172.0180  137.1330 F   0  0  0  0  0  0  0  0  0  0  0  0
  183.2460  172.0930  136.3530 C   0  0  0  0  0  0  0  0  0  0  0  0
  184.3880  177.0040  135.4460 C   0  0  2  0  0  3  0  0  0  0  0  0
  183.2090  174.5060  136.0680 C   0  0  0  0  0  0  0  0  0  0  0  0
  182.0410  172.7030  136.6780 C   0  0  0  0  0  0  0  0  0  0  0  0
  183.5430  170.6390  136.4540 C   0  0  0  0  0  1  0  0  0  0  0  0
  182.0220  174.0520  136.5220 N   0  0  0  0  0  0  0  0  0  0  0  0
  183.4830  175.8840  135.8440 N   0  0  0  0  0  0  0  0  0  0  0  0
  185.1760  178.3320  142.0600 C   0  0  2  0  0  3  0  0  0  0  0  0
  182.7160  178.7320  142.0330 C   0  0  0  0  0  1  0  0  0  0  0  0
  183.8350  177.8500  141.5190 C   0  0  0  0  0  2  0  0  0  0  0  0
  184.9600  179.1550  143.3230 C   0  0  0  0  0  2  0  0  0  0  0  0
  184.9210  178.2700  144.5580 C   0  0  0  0  0  2  0  0  0  0  0  0
  185.5290  178.9840  145.7550 C   0  0  0  0  0  2  0  0  0  0  0  0
  186.3120  178.0460  146.5470 N   0  0  0  0  0  2  0  0  0  0  0  0
  191.7860  177.9030  144.6370 C   0  0  0  0  0  3  0  0  0  0  0  0
  189.6320  177.4800  144.9170 C   0  0  1  0  0  3  0  0  0  0  0  0
  191.7600  177.1890  145.7180 N   0  0  0  0  0  0  0  0  0  0  0  0
  190.4420  178.1330  144.1080 C   0  0  0  0  0  2  0  0  0  0  0  0
  188.6200  177.6340  147.5000 C   0  0  0  0  0  0  0  0  0  0  0  0
  190.3900  176.7870  145.9890 C   0  0  1  0  0  3  0  0  0  0  0  0
  189.8970  177.2450  147.3370 C   0  0  0  0  0  3  0  0  0  0  0  0
  188.2030  177.7570  145.0740 C   0  0  0  0  0  3  0  0  0  0  0  0
  188.1550  178.0030  148.8660 C   0  0  0  0  0  1  0  0  0  0  0  0
  187.7030  177.7800  146.3250 C   0  0  0  0  0  0  0  0  0  0  0  0
  188.8470  176.9020  140.3680 N   0  0  0  0  0  2  0  0  0  0  0  0
  190.1650  177.3810  140.3620 N   0  0  0  0  0  2  0  0  0  0  0  0
  190.5800  177.4260  139.0240 N   0  0  0  0  0  2  0  0  0  0  0  0
  191.8930  176.8100  138.9670 C   0  0  0  0  0  2  0  0  0  0  0  0
  191.9380  175.8180  137.8200 C   0  0  0  0  0  2  0  0  0  0  0  0
  191.0040  176.2400  136.6980 C   0  0  0  0  0  2  0  0  0  0  0  0
  191.2140  174.6030  134.9720 O   0  0  0  0  0  1  0  0  0  0  0  0
  190.3830  175.0330  136.0080 C   0  0  1  0  0  3  0  0  0  0  0  0
  190.2110  173.9130  137.0150 C   0  0  0  0  0  2  0  0  0  0  0  0
  188.8840  173.4800  137.0230 O   0  0  0  0  0  1  0  0  0  0  0  0
  1  6  2  0  0  0  0
  2  3  1  0  0  0  0
  3  8  1  0  0  0  0
  4  3  2  0  0  0  0
  4  1  1  0  0  0  0
  6 12  1  0  0  0  0
  6  7  1  0  0  0  0
  7  9  1  0  0  0  0
  9 23  1  1  0  0  0
 10 40  1  1  0  0  0
 10 11  1  0  0  0  0
 11  9  1  0  0  0  0
 11  5  2  0  0  0  0
 12  8  1  6  0  0  0
 12 10  1  0  0  0  0
 14 18  1  0  0  0  0
 14 16  1  0  0  0  0
 16 20  1  0  0  0  0
 16 19  2  0  0  0  0
 17 22  1  0  0  0  0
 17 13  1  0  0  0  0
 17  4  1  1  0  0  0
 18 21  2  0  0  0  0
 19 15  1  0  0  0  0
 21 19  1  0  0  0  0
 22 13  1  0  0  0  0
 22 18  1  0  0  0  0
 23 25  1  6  0  0  0
 23 26  1  0  0  0  0
 25 24  1  0  0  0  0
 26 27  1  0  0  0  0
 27 28  1  0  0  0  0
 28 29  1  0  0  0  0
 30 32  2  0  0  0  0
 31 33  1  1  0  0  0
 31 37  1  0  0  0  0
 31 35  1  0  0  0  0
 32 35  1  0  0  0  0
 33 30  1  0  0  0  0
 34 38  1  0  0  0  0
 35 36  1  1  0  0  0
 36 34  2  0  0  0  0
 37 39  2  0  0  0  0
 39 29  1  0  0  0  0
 39 34  1  0  0  0  0
 41 40  1  0  0  0  0
 42 41  1  0  0  0  0
 43 42  1  0  0  0  0
 44 43  1  0  0  0  0
 45 44  1  0  0  0  0
 47 46  1  6  0  0  0
 47 45  1  0  0  0  0
 47 48  1  0  0  0  0
 48 49  1  0  0  0  0
M  END
>  <MODEL>
1

>  <REMARK>
 VINA RESULT:      -7.7      0.000      0.000
  Name = 
  16 active torsions:
  status: ('A' for Active; 'I' for Inactive)
    1  A    between atoms: N_2  and  N_38
    2  A    between atoms: N_2  and  C_42
    3  A    between atoms: C_6  and  C_19
    4  A    between atoms: C_9  and  C_22
    5  A    between atoms: C_9  and  C_39
    6  A    between atoms: C_11  and  N_30
    7  A    between atoms: C_11  and  C_43
    8  A    between atoms: C_14  and  C_31
    9  A    between atoms: C_19  and  C_26
   10  A    between atoms: C_22  and  C_47
   11  A    between atoms: N_24  and  C_39
   12  A    between atoms: N_24  and  C_48
   13  A    between atoms: C_26  and  C_43
   14  A    between atoms: N_30  and  N_38
   15  A    between atoms: C_32  and  C_47
   16  A    between atoms: C_45  and  C_47
                            x       y       z     vdW  Elec       q    Type
                         _______ _______ _______ _____ _____    ______ ____

>  <TORSDO>
F 16

$$$$
=
 OpenBabel11032419373D

 49 54  0  0  1  0  0  0  0  0999 V2000
  185.9680  177.0580  137.1480 N   0  0  0  0  0  0  0  0  0  0  0  0
  185.5910  173.8740  135.3830 F   0  0  0  0  0  0  0  0  0  0  0  0
  186.1380  174.9390  136.0210 C   0  0  0  0  0  0  0  0  0  0  0  0
  185.3740  175.9650  136.4230 C   0  0  0  0  0  0  0  0  0  0  0  0
  191.1510  177.4060  138.5090 O   0  0  0  0  0  0  0  0  0  0  0  0
  187.1880  177.0270  137.5920 C   0  0  0  0  0  0  0  0  0  0  0  0
  187.6870  178.1320  138.3430 N   0  0  0  0  0  2  0  0  0  0  0  0
  187.6280  175.0070  136.1830 C   0  0  0  0  0  2  0  0  0  0  0  0
  188.9630  178.0710  139.0510 C   0  0  2  0  0  3  0  0  0  0  0  0
  189.5290  176.0810  137.4070 C   0  0  2  0  0  3  0  0  0  0  0  0
  189.9610  177.1900  138.3450 C   0  0  0  0  0  0  0  0  0  0  0  0
  188.0240  175.7790  137.4460 C   0  0  1  0  0  3  0  0  0  0  0  0
  183.5040  177.0200  135.4180 C   0  0  0  0  0  2  0  0  0  0  0  0
  182.9210  177.1410  139.6100 S   0  0  0  0  0  0  0  0  0  0  0  0
  181.3220  180.6070  139.5170 F   0  0  0  0  0  0  0  0  0  0  0  0
  182.2140  178.5040  140.2960 C   0  0  0  0  0  0  0  0  0  0  0  0
  183.8920  175.9430  136.1890 C   0  0  2  0  0  3  0  0  0  0  0  0
  182.7800  177.7610  138.0530 C   0  0  0  0  0  0  0  0  0  0  0  0
  181.8950  179.4010  139.2840 C   0  0  0  0  0  0  0  0  0  0  0  0
  181.9940  178.7170  141.7520 C   0  0  0  0  0  1  0  0  0  0  0  0
  182.2150  178.9870  138.0300 N   0  0  0  0  0  0  0  0  0  0  0  0
  183.2430  177.0950  136.8840 N   0  0  0  0  0  0  0  0  0  0  0  0
  188.7970  177.7240  140.5360 C   0  0  2  0  0  3  0  0  0  0  0  0
  187.0990  177.7410  142.3610 C   0  0  0  0  0  1  0  0  0  0  0  0
  187.6960  178.5310  141.2140 C   0  0  0  0  0  2  0  0  0  0  0  0
  190.1190  177.9400  141.2590 C   0  0  0  0  0  2  0  0  0  0  0  0
  190.5880  176.6670  141.9440 C   0  0  0  0  0  2  0  0  0  0  0  0
  191.6620  176.9720  142.9760 C   0  0  0  0  0  2  0  0  0  0  0  0
  191.3860  176.2450  144.2080 N   0  0  0  0  0  2  0  0  0  0  0  0
  187.0800  177.8110  147.7630 C   0  0  0  0  0  3  0  0  0  0  0  0
  188.5960  177.8070  146.1510 C   0  0  1  0  0  3  0  0  0  0  0  0
  188.1830  178.0750  148.3900 N   0  0  0  0  0  0  0  0  0  0  0  0
  187.3060  177.6070  146.3330 C   0  0  0  0  0  2  0  0  0  0  0  0
  191.0370  176.5940  146.6900 C   0  0  0  0  0  0  0  0  0  0  0  0
  189.2670  178.1610  147.4270 C   0  0  1  0  0  3  0  0  0  0  0  0
  190.3810  177.1850  147.7040 C   0  0  0  0  0  3  0  0  0  0  0  0
  189.3710  177.3010  145.0180 C   0  0  0  0  0  3  0  0  0  0  0  0
  192.1830  175.6970  147.0080 C   0  0  0  0  0  1  0  0  0  0  0  0
  190.5780  176.7600  145.2740 C   0  0  0  0  0  0  0  0  0  0  0  0
  190.2670  174.8600  137.7040 N   0  0  0  0  0  2  0  0  0  0  0  0
  191.0390  174.5560  136.5740 N   0  0  0  0  0  2  0  0  0  0  0  0
  192.1080  173.7600  137.0080 N   0  0  0  0  0  2  0  0  0  0  0  0
  193.0080  174.6250  137.7490 C   0  0  0  0  0  2  0  0  0  0  0  0
  194.4360  174.1480  137.5650 C   0  0  0  0  0  2  0  0  0  0  0  0
  195.1540  174.9740  136.5110 C   0  0  0  0  0  2  0  0  0  0  0  0
  197.2960  175.9950  136.2400 O   0  0  0  0  0  1  0  0  0  0  0  0
  196.6640  174.8050  136.6070 C   0  0  1  0  0  3  0  0  0  0  0  0
  197.0390  174.4530  138.0330 C   0  0  0  0  0  2  0  0  0  0  0  0
  198.0770  175.2770  138.4700 O   0  0  0  0  0  1  0  0  0  0  0  0
  1  6  2  0  0  0  0
  2  3  1  0  0  0  0
  3  8  1  0  0  0  0
  3  4  2  0  0  0  0
  4  1  1  0  0  0  0
  6  7  1  0  0  0  0
  7  9  1  0  0  0  0
  9 23  1  1  0  0  0
 10 12  1  0  0  0  0
 10 40  1  1  0  0  0
 10 11  1  0  0  0  0
 11  5  2  0  0  0  0
 11  9  1  0  0  0  0
 12  8  1  6  0  0  0
 12  6  1  0  0  0  0
 13 17  1  0  0  0  0
 13 22  1  0  0  0  0
 14 16  1  0  0  0  0
 16 20  1  0  0  0  0
 17  4  1  1  0  0  0
 17 22  1  0  0  0  0
 18 14  1  0  0  0  0
 19 15  1  0  0  0  0
 19 16  2  0  0  0  0
 21 18  2  0  0  0  0
 21 19  1  0  0  0  0
 22 18  1  0  0  0  0
 23 25  1  1  0  0  0
 23 26  1  0  0  0  0
 25 24  1  0  0  0  0
 26 27  1  0  0  0  0
 27 28  1  0  0  0  0
 28 29  1  0  0  0  0
 29 39  1  0  0  0  0
 30 32  2  0  0  0  0
 31 37  1  1  0  0  0
 31 33  1  0  0  0  0
 31 35  1  0  0  0  0
 33 30  1  0  0  0  0
 34 38  1  0  0  0  0
 34 36  2  0  0  0  0
 35 36  1  1  0  0  0
 35 32  1  0  0  0  0
 37 39  2  0  0  0  0
 39 34  1  0  0  0  0
 41 42  1  0  0  0  0
 41 40  1  0  0  0  0
 42 43  1  0  0  0  0
 44 43  1  0  0  0  0
 45 47  1  0  0  0  0
 45 44  1  0  0  0  0
 47 46  1  1  0  0  0
 47 48  1  0  0  0  0
 48 49  1  0  0  0  0
M  END
>  <MODEL>
2

>  <REMARK>
 VINA RESULT:      -7.4      3.031      4.747
  Name = 
  16 active torsions:
  status: ('A' for Active; 'I' for Inactive)
    1  A    between atoms: N_2  and  N_38
    2  A    between atoms: N_2  and  C_42
    3  A    between atoms: C_6  and  C_19
    4  A    between atoms: C_9  and  C_22
    5  A    between atoms: C_9  and  C_39
    6  A    between atoms: C_11  and  N_30
    7  A    between atoms: C_11  and  C_43
    8  A    between atoms: C_14  and  C_31
    9  A    between atoms: C_19  and  C_26
   10  A    between atoms: C_22  and  C_47
   11  A    between atoms: N_24  and  C_39
   12  A    between atoms: N_24  and  C_48
   13  A    between atoms: C_26  and  C_43
   14  A    between atoms: N_30  and  N_38
   15  A    between atoms: C_32  and  C_47
   16  A    between atoms: C_45  and  C_47
                            x       y       z     vdW  Elec       q    Type
                         _______ _______ _______ _____ _____    ______ ____

>  <TORSDO>
F 16

$$$$
=
 OpenBabel11032419373D

 49 54  0  0  1  0  0  0  0  0999 V2000
  186.1590  177.1630  136.8940 N   0  0  0  0  0  0  0  0  0  0  0  0
  185.6550  173.7400  135.6970 F   0  0  0  0  0  0  0  0  0  0  0  0
  186.2410  174.8710  136.1640 C   0  0  0  0  0  0  0  0  0  0  0  0
  185.5270  175.9910  136.3450 C   0  0  0  0  0  0  0  0  0  0  0  0
  191.3010  177.4710  138.4090 O   0  0  0  0  0  0  0  0  0  0  0  0
  187.3580  177.1460  137.3920 C   0  0  0  0  0  0  0  0  0  0  0  0
  187.8950  178.3380  137.9600 N   0  0  0  0  0  2  0  0  0  0  0  0
  187.7250  174.8880  136.3790 C   0  0  0  0  0  2  0  0  0  0  0  0
  189.1400  178.3360  138.7250 C   0  0  2  0  0  3  0  0  0  0  0  0
  189.6430  176.0590  137.4820 C   0  0  2  0  0  3  0  0  0  0  0  0
  190.1070  177.2920  138.2310 C   0  0  0  0  0  0  0  0  0  0  0  0
  188.1220  175.8490  137.5050 C   0  0  1  0  0  3  0  0  0  0  0  0
  183.7180  177.1170  135.3030 C   0  0  0  0  0  2  0  0  0  0  0  0
  182.9670  177.1040  139.4700 S   0  0  0  0  0  0  0  0  0  0  0  0
  181.4370  180.6030  139.4350 F   0  0  0  0  0  0  0  0  0  0  0  0
  182.2570  178.4570  140.1750 C   0  0  0  0  0  0  0  0  0  0  0  0
  184.0550  176.0060  136.0500 C   0  0  2  0  0  3  0  0  0  0  0  0
  182.9010  177.7810  137.9310 C   0  0  0  0  0  0  0  0  0  0  0  0
  181.9960  179.3950  139.1830 C   0  0  0  0  0  0  0  0  0  0  0  0
  181.9820  178.6230  141.6270 C   0  0  0  0  0  1  0  0  0  0  0  0
  182.3600  179.0170  137.9290 N   0  0  0  0  0  0  0  0  0  0  0  0
  183.4000  177.1470  136.7590 N   0  0  0  0  0  0  0  0  0  0  0  0
  188.9000  178.2670  140.2390 C   0  0  2  0  0  3  0  0  0  0  0  0
  190.5110  177.4660  141.9640 C   0  0  0  0  0  1  0  0  0  0  0  0
  189.5360  177.0410  140.8860 C   0  0  0  0  0  2  0  0  0  0  0  0
  187.4030  178.2830  140.5170 C   0  0  0  0  0  2  0  0  0  0  0  0
  187.0810  179.1050  141.7540 C   0  0  0  0  0  2  0  0  0  0  0  0
  185.6540  178.8510  142.2150 C   0  0  0  0  0  2  0  0  0  0  0  0
  185.6270  177.7330  143.1470 N   0  0  0  0  0  2  0  0  0  0  0  0
  189.0830  178.1930  147.7810 C   0  0  0  0  0  3  0  0  0  0  0  0
  187.9580  177.3890  146.0540 C   0  0  1  0  0  3  0  0  0  0  0  0
  187.8760  178.0780  148.2390 N   0  0  0  0  0  0  0  0  0  0  0  0
  189.1720  177.7870  146.3800 C   0  0  0  0  0  2  0  0  0  0  0  0
  185.4310  178.4380  145.5700 C   0  0  0  0  0  0  0  0  0  0  0  0
  187.0320  177.4980  147.2090 C   0  0  1  0  0  3  0  0  0  0  0  0
  185.8620  178.3730  146.8430 C   0  0  0  0  0  3  0  0  0  0  0  0
  187.4390  177.3150  144.6870 C   0  0  0  0  0  3  0  0  0  0  0  0
  184.2220  179.2540  145.2670 C   0  0  0  0  0  1  0  0  0  0  0  0
  186.1930  177.7770  144.4640 C   0  0  0  0  0  0  0  0  0  0  0  0
  190.2950  174.8730  138.0210 N   0  0  0  0  0  2  0  0  0  0  0  0
  191.3640  174.5630  137.1690 N   0  0  0  0  0  2  0  0  0  0  0  0
  191.0830  173.3160  136.5940 N   0  0  0  0  0  2  0  0  0  0  0  0
  192.3390  172.7870  136.0930 C   0  0  0  0  0  2  0  0  0  0  0  0
  193.3820  173.8880  136.0780 C   0  0  0  0  0  2  0  0  0  0  0  0
  194.7700  173.3270  136.3430 C   0  0  0  0  0  2  0  0  0  0  0  0
  195.1830  175.5890  136.9900 O   0  0  0  0  0  1  0  0  0  0  0  0
  195.5970  174.2730  137.2020 C   0  0  1  0  0  3  0  0  0  0  0  0
  195.4110  173.9140  138.6630 C   0  0  0  0  0  2  0  0  0  0  0  0
  195.2800  172.5310  138.8010 O   0  0  0  0  0  1  0  0  0  0  0  0
  1  6  2  0  0  0  0
  2  3  1  0  0  0  0
  3  4  2  0  0  0  0
  3  8  1  0  0  0  0
  4  1  1  0  0  0  0
  6 12  1  0  0  0  0
  6  7  1  0  0  0  0
  7  9  1  0  0  0  0
  9 23  1  1  0  0  0
 10 12  1  0  0  0  0
 10 40  1  1  0  0  0
 10 11  1  0  0  0  0
 11  5  2  0  0  0  0
 11  9  1  0  0  0  0
 12  8  1  6  0  0  0
 13 17  1  0  0  0  0
 13 22  1  0  0  0  0
 14 16  1  0  0  0  0
 16 20  1  0  0  0  0
 17  4  1  1  0  0  0
 17 22  1  0  0  0  0
 18 14  1  0  0  0  0
 19 15  1  0  0  0  0
 19 16  2  0  0  0  0
 21 18  2  0  0  0  0
 21 19  1  0  0  0  0
 22 18  1  0  0  0  0
 23 26  1  6  0  0  0
 23 25  1  0  0  0  0
 25 24  1  0  0  0  0
 26 27  1  0  0  0  0
 27 28  1  0  0  0  0
 28 29  1  0  0  0  0
 29 39  1  0  0  0  0
 30 32  2  0  0  0  0
 31 37  1  6  0  0  0
 31 33  1  0  0  0  0
 31 35  1  0  0  0  0
 33 30  1  0  0  0  0
 34 36  2  0  0  0  0
 35 36  1  6  0  0  0
 35 32  1  0  0  0  0
 38 34  1  0  0  0  0
 39 37  2  0  0  0  0
 39 34  1  0  0  0  0
 41 40  1  0  0  0  0
 42 41  1  0  0  0  0
 43 42  1  0  0  0  0
 44 43  1  0  0  0  0
 44 45  1  0  0  0  0
 45 47  1  0  0  0  0
 47 46  1  1  0  0  0
 47 48  1  0  0  0  0
 48 49  1  0  0  0  0
M  END
>  <MODEL>
3

>  <REMARK>
 VINA RESULT:      -7.4      2.816      4.513
  Name = 
  16 active torsions:
  status: ('A' for Active; 'I' for Inactive)
    1  A    between atoms: N_2  and  N_38
    2  A    between atoms: N_2  and  C_42
    3  A    between atoms: C_6  and  C_19
    4  A    between atoms: C_9  and  C_22
    5  A    between atoms: C_9  and  C_39
    6  A    between atoms: C_11  and  N_30
    7  A    between atoms: C_11  and  C_43
    8  A    between atoms: C_14  and  C_31
    9  A    between atoms: C_19  and  C_26
   10  A    between atoms: C_22  and  C_47
   11  A    between atoms: N_24  and  C_39
   12  A    between atoms: N_24  and  C_48
   13  A    between atoms: C_26  and  C_43
   14  A    between atoms: N_30  and  N_38
   15  A    between atoms: C_32  and  C_47
   16  A    between atoms: C_45  and  C_47
                            x       y       z     vdW  Elec       q    Type
                         _______ _______ _______ _____ _____    ______ ____

>  <TORSDO>
F 16

$$$$
=
 OpenBabel11032419373D

 49 54  0  0  1  0  0  0  0  0999 V2000
  185.3090  177.7720  137.2520 N   0  0  0  0  0  0  0  0  0  0  0  0
  187.3820  175.3250  135.4880 F   0  0  0  0  0  0  0  0  0  0  0  0
  186.9630  176.2580  136.3800 C   0  0  0  0  0  0  0  0  0  0  0  0
  185.7550  176.8260  136.2630 C   0  0  0  0  0  0  0  0  0  0  0  0
  188.1160  179.2600  141.5820 O   0  0  0  0  0  0  0  0  0  0  0  0
  185.9510  177.9830  138.3620 C   0  0  0  0  0  0  0  0  0  0  0  0
  185.4190  178.9030  139.3130 N   0  0  0  0  0  2  0  0  0  0  0  0
  187.9100  176.7270  137.4440 C   0  0  0  0  0  2  0  0  0  0  0  0
  185.9680  179.0230  140.6610 C   0  0  2  0  0  3  0  0  0  0  0  0
  188.1340  177.9050  139.6420 C   0  0  2  0  0  3  0  0  0  0  0  0
  187.4490  178.7500  140.6960 C   0  0  0  0  0  0  0  0  0  0  0  0
  187.1660  177.1590  138.7130 C   0  0  1  0  0  3  0  0  0  0  0  0
  184.0780  177.4980  134.7270 C   0  0  0  0  0  2  0  0  0  0  0  0
  182.3470  174.6230  137.3090 S   0  0  0  0  0  0  0  0  0  0  0  0
  178.9650  176.3950  137.3860 F   0  0  0  0  0  0  0  0  0  0  0  0
  180.7470  174.8190  137.7910 C   0  0  0  0  0  0  0  0  0  0  0  0
  184.8330  176.4220  135.1490 C   0  0  2  0  0  3  0  0  0  0  0  0
  182.3010  176.0010  136.3440 C   0  0  0  0  0  0  0  0  0  0  0  0
  180.2320  175.9580  137.1850 C   0  0  0  0  0  0  0  0  0  0  0  0
  180.0200  173.9270  138.7330 C   0  0  0  0  0  1  0  0  0  0  0  0
  181.1030  176.6210  136.3790 N   0  0  0  0  0  0  0  0  0  0  0  0
  183.4120  176.4940  135.6050 N   0  0  0  0  0  0  0  0  0  0  0  0
  185.1800  178.2060  141.6930 C   0  0  2  0  0  3  0  0  0  0  0  0
  182.7370  178.7000  141.6410 C   0  0  0  0  0  1  0  0  0  0  0  0
  183.8210  177.7490  141.1760 C   0  0  0  0  0  2  0  0  0  0  0  0
  185.0020  179.0270  142.9620 C   0  0  0  0  0  2  0  0  0  0  0  0
  184.9100  178.1340  144.1890 C   0  0  0  0  0  2  0  0  0  0  0  0
  185.4360  178.8520  145.4220 C   0  0  0  0  0  2  0  0  0  0  0  0
  186.2320  177.9350  146.2270 N   0  0  0  0  0  2  0  0  0  0  0  0
  191.7720  178.0740  144.5190 C   0  0  0  0  0  3  0  0  0  0  0  0
  189.6310  177.5480  144.7130 C   0  0  1  0  0  3  0  0  0  0  0  0
  191.7400  177.3410  145.5880 N   0  0  0  0  0  0  0  0  0  0  0  0
  190.4390  178.2510  143.9440 C   0  0  0  0  0  2  0  0  0  0  0  0
  188.5200  177.6140  147.2580 C   0  0  0  0  0  0  0  0  0  0  0  0
  190.3810  176.8740  145.8010 C   0  0  1  0  0  3  0  0  0  0  0  0
  189.8190  177.2860  147.1370 C   0  0  0  0  0  3  0  0  0  0  0  0
  188.1870  177.7570  144.8210 C   0  0  0  0  0  3  0  0  0  0  0  0
  187.9900  177.9380  148.6120 C   0  0  0  0  0  1  0  0  0  0  0  0
  187.6410  177.7370  146.0530 C   0  0  0  0  0  0  0  0  0  0  0  0
  189.0230  176.9400  140.2760 N   0  0  0  0  0  2  0  0  0  0  0  0
  190.3310  177.2580  139.8820 N   0  0  0  0  0  2  0  0  0  0  0  0
  190.8700  176.1120  139.2820 N   0  0  0  0  0  2  0  0  0  0  0  0
  191.6430  176.5570  138.1370 C   0  0  0  0  0  2  0  0  0  0  0  0
  193.0720  176.0650  138.2670 C   0  0  0  0  0  2  0  0  0  0  0  0
  193.5630  175.4660  136.9600 C   0  0  0  0  0  2  0  0  0  0  0  0
  195.7160  175.2190  137.9630 O   0  0  0  0  0  1  0  0  0  0  0  0
  194.7660  174.5600  137.1810 C   0  0  1  0  0  3  0  0  0  0  0  0
  194.3180  173.2960  137.8880 C   0  0  0  0  0  2  0  0  0  0  0  0
  195.2890  172.8960  138.8070 O   0  0  0  0  0  1  0  0  0  0  0  0
  1  6  2  0  0  0  0
  2  3  1  0  0  0  0
  3  8  1  0  0  0  0
  4  3  2  0  0  0  0
  4  1  1  0  0  0  0
  6 12  1  0  0  0  0
  6  7  1  0  0  0  0
  7  9  1  0  0  0  0
  9 11  1  0  0  0  0
  9 23  1  1  0  0  0
 10 40  1  1  0  0  0
 10 11  1  0  0  0  0
 11  5  2  0  0  0  0
 12  8  1  6  0  0  0
 12 10  1  0  0  0  0
 13 17  1  0  0  0  0
 13 22  1  0  0  0  0
 14 16  1  0  0  0  0
 16 20  1  0  0  0  0
 17 22  1  0  0  0  0
 17  4  1  1  0  0  0
 18 21  2  0  0  0  0
 18 14  1  0  0  0  0
 19 15  1  0  0  0  0
 19 16  2  0  0  0  0
 21 19  1  0  0  0  0
 22 18  1  0  0  0  0
 23 25  1  6  0  0  0
 23 26  1  0  0  0  0
 25 24  1  0  0  0  0
 26 27  1  0  0  0  0
 27 28  1  0  0  0  0
 28 29  1  0  0  0  0
 30 32  2  0  0  0  0
 31 33  1  1  0  0  0
 31 37  1  0  0  0  0
 31 35  1  0  0  0  0
 32 35  1  0  0  0  0
 33 30  1  0  0  0  0
 34 38  1  0  0  0  0
 35 36  1  1  0  0  0
 36 34  2  0  0  0  0
 37 39  2  0  0  0  0
 39 29  1  0  0  0  0
 39 34  1  0  0  0  0
 41 40  1  0  0  0  0
 42 41  1  0  0  0  0
 43 44  1  0  0  0  0
 43 42  1  0  0  0  0
 45 47  1  0  0  0  0
 45 44  1  0  0  0  0
 47 48  1  0  0  0  0
 47 46  1  1  0  0  0
 48 49  1  0  0  0  0
M  END
>  <MODEL>
4

>  <REMARK>
 VINA RESULT:      -7.3      2.008      2.177
  Name = 
  16 active torsions:
  status: ('A' for Active; 'I' for Inactive)
    1  A    between atoms: N_2  and  N_38
    2  A    between atoms: N_2  and  C_42
    3  A    between atoms: C_6  and  C_19
    4  A    between atoms: C_9  and  C_22
    5  A    between atoms: C_9  and  C_39
    6  A    between atoms: C_11  and  N_30
    7  A    between atoms: C_11  and  C_43
    8  A    between atoms: C_14  and  C_31
    9  A    between atoms: C_19  and  C_26
   10  A    between atoms: C_22  and  C_47
   11  A    between atoms: N_24  and  C_39
   12  A    between atoms: N_24  and  C_48
   13  A    between atoms: C_26  and  C_43
   14  A    between atoms: N_30  and  N_38
   15  A    between atoms: C_32  and  C_47
   16  A    between atoms: C_45  and  C_47
                            x       y       z     vdW  Elec       q    Type
                         _______ _______ _______ _____ _____    ______ ____

>  <TORSDO>
F 16

$$$$
=
 OpenBabel11032419373D

 49 54  0  0  1  0  0  0  0  0999 V2000
  184.8010  177.4590  137.8940 N   0  0  0  0  0  0  0  0  0  0  0  0
  183.5200  174.1970  136.8380 F   0  0  0  0  0  0  0  0  0  0  0  0
  184.3200  175.2810  136.9900 C   0  0  0  0  0  0  0  0  0  0  0  0
  183.9120  176.3430  137.6990 C   0  0  0  0  0  0  0  0  0  0  0  0
  189.8270  177.7620  136.0270 O   0  0  0  0  0  0  0  0  0  0  0  0
  186.0560  177.4240  137.5620 C   0  0  0  0  0  0  0  0  0  0  0  0
  186.8830  178.5550  137.8310 N   0  0  0  0  0  2  0  0  0  0  0  0
  185.6340  175.3250  136.2670 C   0  0  0  0  0  2  0  0  0  0  0  0
  188.3350  178.5020  137.6840 C   0  0  2  0  0  3  0  0  0  0  0  0
  187.8820  176.4180  136.1240 C   0  0  2  0  0  3  0  0  0  0  0  0
  188.7600  177.5640  136.5850 C   0  0  0  0  0  0  0  0  0  0  0  0
  186.6730  176.1520  137.0320 C   0  0  1  0  0  3  0  0  0  0  0  0
  181.5790  176.0010  137.4480 C   0  0  0  0  0  2  0  0  0  0  0  0
  182.1580  180.0710  138.4650 S   0  0  0  0  0  0  0  0  0  0  0  0
  179.3360  181.2750  136.1920 F   0  0  0  0  0  0  0  0  0  0  0  0
  181.1750  181.2360  137.7540 C   0  0  0  0  0  0  0  0  0  0  0  0
  182.5620  176.3410  138.3560 C   0  0  2  0  0  3  0  0  0  0  0  0
  181.3620  178.8150  137.6780 C   0  0  0  0  0  0  0  0  0  0  0  0
  180.2600  180.6050  136.9220 C   0  0  0  0  0  0  0  0  0  0  0  0
  181.2920  182.7040  137.9680 C   0  0  0  0  0  1  0  0  0  0  0  0
  180.3670  179.2510  136.8770 N   0  0  0  0  0  0  0  0  0  0  0  0
  181.7190  177.4430  137.8020 N   0  0  0  0  0  0  0  0  0  0  0  0
  189.0520  178.2360  139.0140 C   0  0  2  0  0  3  0  0  0  0  0  0
  191.1720  177.3860  140.0130 C   0  0  0  0  0  1  0  0  0  0  0  0
  190.1700  177.2070  138.8910 C   0  0  0  0  0  2  0  0  0  0  0  0
  188.0380  177.7780  140.0540 C   0  0  0  0  0  2  0  0  0  0  0  0
  187.8760  178.8100  141.1580 C   0  0  0  0  0  2  0  0  0  0  0  0
  186.5730  178.5960  141.9120 C   0  0  0  0  0  2  0  0  0  0  0  0
  186.7100  177.4720  142.8270 N   0  0  0  0  0  2  0  0  0  0  0  0
  188.2970  177.4610  148.4050 C   0  0  0  0  0  3  0  0  0  0  0  0
  187.5870  178.1010  146.4100 C   0  0  1  0  0  3  0  0  0  0  0  0
  189.3910  177.5600  147.7170 N   0  0  0  0  0  0  0  0  0  0  0  0
  187.1190  177.7730  147.5980 C   0  0  0  0  0  2  0  0  0  0  0  0
  188.7730  176.9260  144.1890 C   0  0  0  0  0  0  0  0  0  0  0  0
  189.0690  178.0370  146.3820 C   0  0  1  0  0  3  0  0  0  0  0  0
  189.5180  177.0940  145.2960 C   0  0  0  0  0  3  0  0  0  0  0  0
  186.8160  178.0620  145.1660 C   0  0  0  0  0  3  0  0  0  0  0  0
  189.2930  176.0460  143.1050 C   0  0  0  0  0  1  0  0  0  0  0  0
  187.4110  177.5390  144.0760 C   0  0  0  0  0  0  0  0  0  0  0  0
  188.6710  175.1990  136.0120 N   0  0  0  0  0  2  0  0  0  0  0  0
  188.9170  174.7420  137.3150 N   0  0  0  0  0  2  0  0  0  0  0  0
  189.7730  173.6370  137.2080 N   0  0  0  0  0  2  0  0  0  0  0  0
  190.9480  174.0790  136.4800 C   0  0  0  0  0  2  0  0  0  0  0  0
  192.0660  174.3830  137.4600 C   0  0  0  0  0  2  0  0  0  0  0  0
  192.8430  175.6180  137.0340 C   0  0  0  0  0  2  0  0  0  0  0  0
  194.9400  176.4170  136.2170 O   0  0  0  0  0  1  0  0  0  0  0  0
  194.2520  175.2590  136.5830 C   0  0  1  0  0  3  0  0  0  0  0  0
  194.9840  174.5760  137.7220 C   0  0  0  0  0  2  0  0  0  0  0  0
  194.9900  175.4020  138.8470 O   0  0  0  0  0  1  0  0  0  0  0  0
  2  3  1  0  0  0  0
  3  4  2  0  0  0  0
  4  1  1  0  0  0  0
  5 11  2  0  0  0  0
  6  7  1  0  0  0  0
  6  1  2  0  0  0  0
  8  3  1  0  0  0  0
  9  7  1  0  0  0  0
  9 23  1  1  0  0  0
 10 40  1  1  0  0  0
 10 11  1  0  0  0  0
 10 12  1  0  0  0  0
 11  9  1  0  0  0  0
 12  8  1  6  0  0  0
 12  6  1  0  0  0  0
 13 22  1  0  0  0  0
 13 17  1  0  0  0  0
 15 19  1  0  0  0  0
 16 20  1  0  0  0  0
 16 14  1  0  0  0  0
 17  4  1  6  0  0  0
 18 22  1  0  0  0  0
 18 14  1  0  0  0  0
 19 16  2  0  0  0  0
 21 19  1  0  0  0  0
 21 18  2  0  0  0  0
 22 17  1  0  0  0  0
 23 25  1  6  0  0  0
 23 26  1  0  0  0  0
 25 24  1  0  0  0  0
 26 27  1  0  0  0  0
 27 28  1  0  0  0  0
 28 29  1  0  0  0  0
 29 39  1  0  0  0  0
 31 37  1  6  0  0  0
 31 33  1  0  0  0  0
 32 30  2  0  0  0  0
 33 30  1  0  0  0  0
 34 36  2  0  0  0  0
 35 36  1  6  0  0  0
 35 31  1  0  0  0  0
 35 32  1  0  0  0  0
 38 34  1  0  0  0  0
 39 34  1  0  0  0  0
 39 37  2  0  0  0  0
 40 41  1  0  0  0  0
 42 41  1  0  0  0  0
 43 42  1  0  0  0  0
 43 44  1  0  0  0  0
 45 44  1  0  0  0  0
 47 46  1  1  0  0  0
 47 45  1  0  0  0  0
 47 48  1  0  0  0  0
 48 49  1  0  0  0  0
M  END
>  <MODEL>
5

>  <REMARK>
 VINA RESULT:      -7.2      3.161      4.981
  Name = 
  16 active torsions:
  status: ('A' for Active; 'I' for Inactive)
    1  A    between atoms: N_2  and  N_38
    2  A    between atoms: N_2  and  C_42
    3  A    between atoms: C_6  and  C_19
    4  A    between atoms: C_9  and  C_22
    5  A    between atoms: C_9  and  C_39
    6  A    between atoms: C_11  and  N_30
    7  A    between atoms: C_11  and  C_43
    8  A    between atoms: C_14  and  C_31
    9  A    between atoms: C_19  and  C_26
   10  A    between atoms: C_22  and  C_47
   11  A    between atoms: N_24  and  C_39
   12  A    between atoms: N_24  and  C_48
   13  A    between atoms: C_26  and  C_43
   14  A    between atoms: N_30  and  N_38
   15  A    between atoms: C_32  and  C_47
   16  A    between atoms: C_45  and  C_47
                            x       y       z     vdW  Elec       q    Type
                         _______ _______ _______ _____ _____    ______ ____

>  <TORSDO>
F 16

$$$$
=
 OpenBabel11032419373D

 49 54  0  0  1  0  0  0  0  0999 V2000
  190.7960  175.6640  137.6510 N   0  0  0  0  0  0  0  0  0  0  0  0
  189.2790  176.9990  134.5990 F   0  0  0  0  0  0  0  0  0  0  0  0
  189.5050  176.6950  135.9020 C   0  0  0  0  0  0  0  0  0  0  0  0
  190.5450  175.9270  136.2580 C   0  0  0  0  0  0  0  0  0  0  0  0
  187.8890  177.5970  141.7310 O   0  0  0  0  0  0  0  0  0  0  0  0
  190.1670  176.2780  138.6080 C   0  0  0  0  0  0  0  0  0  0  0  0
  190.5080  175.9950  139.9630 N   0  0  0  0  0  2  0  0  0  0  0  0
  188.5170  177.1430  136.9380 C   0  0  0  0  0  2  0  0  0  0  0  0
  189.9970  176.7990  141.0710 C   0  0  2  0  0  3  0  0  0  0  0  0
  188.1110  177.5400  139.3760 C   0  0  2  0  0  3  0  0  0  0  0  0
  188.6220  177.3440  140.7890 C   0  0  0  0  0  0  0  0  0  0  0  0
  189.1890  177.3840  138.2940 C   0  0  1  0  0  3  0  0  0  0  0  0
  191.2420  174.0720  134.9570 C   0  0  0  0  0  2  0  0  0  0  0  0
  194.4730  175.1320  137.4800 S   0  0  0  0  0  0  0  0  0  0  0  0
  195.5260  171.5030  138.0360 F   0  0  0  0  0  0  0  0  0  0  0  0
  195.4280  173.9130  138.1370 C   0  0  0  0  0  0  0  0  0  0  0  0
  191.4910  175.4050  135.2170 C   0  0  2  0  0  3  0  0  0  0  0  0
  193.5240  174.0320  136.6310 C   0  0  0  0  0  0  0  0  0  0  0  0
  194.9710  172.6860  137.6740 C   0  0  0  0  0  0  0  0  0  0  0  0
  196.5600  174.1230  139.0790 C   0  0  0  0  0  1  0  0  0  0  0  0
  193.9040  172.7520  136.8350 N   0  0  0  0  0  0  0  0  0  0  0  0
  192.4130  174.3960  135.8200 N   0  0  0  0  0  0  0  0  0  0  0  0
  190.9920  177.8760  141.5240 C   0  0  2  0  0  3  0  0  0  0  0  0
  193.0860  177.7660  140.1770 C   0  0  0  0  0  1  0  0  0  0  0  0
  192.4390  177.3970  141.4960 C   0  0  0  0  0  2  0  0  0  0  0  0
  190.6270  178.3450  142.9260 C   0  0  0  0  0  2  0  0  0  0  0  0
  191.2180  177.4290  143.9850 C   0  0  0  0  0  2  0  0  0  0  0  0
  190.7160  177.8080  145.3690 C   0  0  0  0  0  2  0  0  0  0  0  0
  189.5320  177.0260  145.6980 N   0  0  0  0  0  2  0  0  0  0  0  0
  183.9420  178.4270  145.0530 C   0  0  0  0  0  3  0  0  0  0  0  0
  186.1480  178.3920  144.8770 C   0  0  1  0  0  3  0  0  0  0  0  0
  184.3380  179.0070  146.1430 N   0  0  0  0  0  0  0  0  0  0  0  0
  185.0700  177.9960  144.2290 C   0  0  0  0  0  2  0  0  0  0  0  0
  187.6070  177.7770  147.1590 C   0  0  0  0  0  0  0  0  0  0  0  0
  185.7880  179.1040  146.1290 C   0  0  1  0  0  3  0  0  0  0  0  0
  186.4360  178.4220  147.3050 C   0  0  0  0  0  3  0  0  0  0  0  0
  187.4860  177.8280  144.6990 C   0  0  0  0  0  3  0  0  0  0  0  0
  188.2510  177.1860  148.3650 C   0  0  0  0  0  1  0  0  0  0  0  0
  188.2140  177.5790  145.8050 C   0  0  0  0  0  0  0  0  0  0  0  0
  187.4940  178.8540  139.2460 N   0  0  0  0  0  2  0  0  0  0  0  0
  186.1600  178.6500  138.8620 N   0  0  0  0  0  2  0  0  0  0  0  0
  185.3610  178.9660  139.9680 N   0  0  0  0  0  2  0  0  0  0  0  0
  184.0680  179.3780  139.4530 C   0  0  0  0  0  2  0  0  0  0  0  0
  182.9800  178.5140  140.0630 C   0  0  0  0  0  2  0  0  0  0  0  0
  181.6480  179.2450  140.0790 C   0  0  0  0  0  2  0  0  0  0  0  0
  180.8740  177.0430  140.5850 O   0  0  0  0  0  1  0  0  0  0  0  0
  180.5560  178.3960  140.7140 C   0  0  1  0  0  3  0  0  0  0  0  0
  180.4380  178.7490  142.1840 C   0  0  0  0  0  2  0  0  0  0  0  0
  180.4910  180.1340  142.3460 O   0  0  0  0  0  1  0  0  0  0  0  0
  1  6  2  0  0  0  0
  2  3  1  0  0  0  0
  3  4  2  0  0  0  0
  3  8  1  0  0  0  0
  4  1  1  0  0  0  0
  6  7  1  0  0  0  0
  7  9  1  0  0  0  0
  9 23  1  6  0  0  0
 10 40  1  1  0  0  0
 10 11  1  0  0  0  0
 11  9  1  0  0  0  0
 11  5  2  0  0  0  0
 12  8  1  6  0  0  0
 12  6  1  0  0  0  0
 12 10  1  0  0  0  0
 13 17  1  0  0  0  0
 13 22  1  0  0  0  0
 14 16  1  0  0  0  0
 16 20  1  0  0  0  0
 17 22  1  0  0  0  0
 17  4  1  1  0  0  0
 18 21  2  0  0  0  0
 18 14  1  0  0  0  0
 19 15  1  0  0  0  0
 19 16  2  0  0  0  0
 21 19  1  0  0  0  0
 22 18  1  0  0  0  0
 23 25  1  1  0  0  0
 23 26  1  0  0  0  0
 24 25  1  0  0  0  0
 26 27  1  0  0  0  0
 27 28  1  0  0  0  0
 28 29  1  0  0  0  0
 29 39  1  0  0  0  0
 30 32  2  0  0  0  0
 31 33  1  1  0  0  0
 31 35  1  0  0  0  0
 33 30  1  0  0  0  0
 34 36  2  0  0  0  0
 34 38  1  0  0  0  0
 35 32  1  0  0  0  0
 35 36  1  1  0  0  0
 37 31  1  0  0  0  0
 37 39  2  0  0  0  0
 39 34  1  0  0  0  0
 41 40  1  0  0  0  0
 41 42  1  0  0  0  0
 43 42  1  0  0  0  0
 43 44  1  0  0  0  0
 44 45  1  0  0  0  0
 45 47  1  0  0  0  0
 47 46  1  1  0  0  0
 47 48  1  0  0  0  0
 48 49  1  0  0  0  0
M  END
>  <MODEL>
6

>  <REMARK>
 VINA RESULT:      -7.1      3.845      7.701
  Name = 
  16 active torsions:
  status: ('A' for Active; 'I' for Inactive)
    1  A    between atoms: N_2  and  N_38
    2  A    between atoms: N_2  and  C_42
    3  A    between atoms: C_6  and  C_19
    4  A    between atoms: C_9  and  C_22
    5  A    between atoms: C_9  and  C_39
    6  A    between atoms: C_11  and  N_30
    7  A    between atoms: C_11  and  C_43
    8  A    between atoms: C_14  and  C_31
    9  A    between atoms: C_19  and  C_26
   10  A    between atoms: C_22  and  C_47
   11  A    between atoms: N_24  and  C_39
   12  A    between atoms: N_24  and  C_48
   13  A    between atoms: C_26  and  C_43
   14  A    between atoms: N_30  and  N_38
   15  A    between atoms: C_32  and  C_47
   16  A    between atoms: C_45  and  C_47
                            x       y       z     vdW  Elec       q    Type
                         _______ _______ _______ _____ _____    ______ ____

>  <TORSDO>
F 16

$$$$
=
 OpenBabel11032419373D

 49 54  0  0  1  0  0  0  0  0999 V2000
  184.9710  177.6620  138.2070 N   0  0  0  0  0  0  0  0  0  0  0  0
  183.3590  174.4230  137.6470 F   0  0  0  0  0  0  0  0  0  0  0  0
  184.2310  175.4600  137.5770 C   0  0  0  0  0  0  0  0  0  0  0  0
  184.0040  176.5960  138.2510 C   0  0  0  0  0  0  0  0  0  0  0  0
  189.6280  177.4900  135.5390 O   0  0  0  0  0  0  0  0  0  0  0  0
  186.1510  177.5180  137.6820 C   0  0  0  0  0  0  0  0  0  0  0  0
  187.0690  178.6080  137.7190 N   0  0  0  0  0  2  0  0  0  0  0  0
  185.4080  175.3620  136.6520 C   0  0  0  0  0  2  0  0  0  0  0  0
  188.4730  178.4480  137.3460 C   0  0  2  0  0  3  0  0  0  0  0  0
  187.6560  176.2900  136.0580 C   0  0  2  0  0  3  0  0  0  0  0  0
  188.6590  177.4050  136.2750 C   0  0  0  0  0  0  0  0  0  0  0  0
  186.6020  176.1720  137.1680 C   0  0  1  0  0  3  0  0  0  0  0  0
  181.6600  176.2880  138.4440 C   0  0  0  0  0  2  0  0  0  0  0  0
  182.4150  180.4460  138.7120 S   0  0  0  0  0  0  0  0  0  0  0  0
  179.2550  181.3740  136.7780 F   0  0  0  0  0  0  0  0  0  0  0  0
  181.3300  181.5180  138.0030 C   0  0  0  0  0  0  0  0  0  0  0  0
  182.7830  176.7330  139.1140 C   0  0  2  0  0  3  0  0  0  0  0  0
  181.4940  179.1090  138.2710 C   0  0  0  0  0  0  0  0  0  0  0  0
  180.2860  180.7950  137.4400 C   0  0  0  0  0  0  0  0  0  0  0  0
  181.4860  182.9970  137.9660 C   0  0  0  0  0  1  0  0  0  0  0  0
  180.3800  179.4470  137.5870 N   0  0  0  0  0  0  0  0  0  0  0  0
  181.8620  177.7620  138.5440 N   0  0  0  0  0  0  0  0  0  0  0  0
  189.3840  178.2330  138.5610 C   0  0  2  0  0  3  0  0  0  0  0  0
  191.5700  177.0480  138.7340 C   0  0  0  0  0  1  0  0  0  0  0  0
  190.0760  176.8750  138.5510 C   0  0  0  0  0  2  0  0  0  0  0  0
  188.5720  178.3920  139.8390 C   0  0  0  0  0  2  0  0  0  0  0  0
  188.9360  177.3260  140.8600 C   0  0  0  0  0  2  0  0  0  0  0  0
  189.0880  177.9340  142.2450 C   0  0  0  0  0  2  0  0  0  0  0  0
  188.1870  177.2730  143.1780 N   0  0  0  0  0  2  0  0  0  0  0  0
  182.7110  178.9600  144.0720 C   0  0  0  0  0  3  0  0  0  0  0  0
  184.8050  178.8630  143.3650 C   0  0  1  0  0  3  0  0  0  0  0  0
  183.3900  179.3770  145.0940 N   0  0  0  0  0  0  0  0  0  0  0  0
  183.5810  178.5970  142.9550 C   0  0  0  0  0  2  0  0  0  0  0  0
  186.7140  177.9000  145.1390 C   0  0  0  0  0  0  0  0  0  0  0  0
  184.7990  179.4190  144.7410 C   0  0  1  0  0  3  0  0  0  0  0  0
  185.6570  178.5650  145.6380 C   0  0  0  0  0  3  0  0  0  0  0  0
  186.0230  178.2760  142.8040 C   0  0  0  0  0  3  0  0  0  0  0  0
  187.5810  177.1330  146.0750 C   0  0  0  0  0  1  0  0  0  0  0  0
  186.9710  177.8570  143.6640 C   0  0  0  0  0  0  0  0  0  0  0  0
  188.3490  175.0150  135.9240 N   0  0  0  0  0  2  0  0  0  0  0  0
  188.5750  174.5260  137.2180 N   0  0  0  0  0  2  0  0  0  0  0  0
  189.5640  173.5380  137.1170 N   0  0  0  0  0  2  0  0  0  0  0  0
  189.9760  173.4910  135.7260 C   0  0  0  0  0  2  0  0  0  0  0  0
  191.4810  173.3180  135.6490 C   0  0  0  0  0  2  0  0  0  0  0  0
  192.1700  174.0160  136.8090 C   0  0  0  0  0  2  0  0  0  0  0  0
  193.6230  175.7990  136.1660 O   0  0  0  0  0  1  0  0  0  0  0  0
  193.5880  174.4320  136.4460 C   0  0  1  0  0  3  0  0  0  0  0  0
  194.5120  174.1310  137.6100 C   0  0  0  0  0  2  0  0  0  0  0  0
  194.6950  175.2790  138.3810 O   0  0  0  0  0  1  0  0  0  0  0  0
  1  4  1  0  0  0  0
  3  2  1  0  0  0  0
  3  4  2  0  0  0  0
  5 11  2  0  0  0  0
  6  7  1  0  0  0  0
  6  1  2  0  0  0  0
  8  3  1  0  0  0  0
  9  7  1  0  0  0  0
  9 23  1  1  0  0  0
 10 40  1  1  0  0  0
 10 11  1  0  0  0  0
 10 12  1  0  0  0  0
 11  9  1  0  0  0  0
 12  8  1  6  0  0  0
 12  6  1  0  0  0  0
 13 22  1  0  0  0  0
 13 17  1  0  0  0  0
 15 19  1  0  0  0  0
 16 14  1  0  0  0  0
 17  4  1  6  0  0  0
 18 22  1  0  0  0  0
 18 14  1  0  0  0  0
 19 21  1  0  0  0  0
 19 16  2  0  0  0  0
 20 16  1  0  0  0  0
 21 18  2  0  0  0  0
 22 17  1  0  0  0  0
 23 25  1  6  0  0  0
 23 26  1  0  0  0  0
 25 24  1  0  0  0  0
 26 27  1  0  0  0  0
 27 28  1  0  0  0  0
 28 29  1  0  0  0  0
 29 39  1  0  0  0  0
 30 32  2  0  0  0  0
 31 37  1  1  0  0  0
 31 35  1  0  0  0  0
 33 31  1  0  0  0  0
 33 30  1  0  0  0  0
 34 36  2  0  0  0  0
 34 38  1  0  0  0  0
 35 32  1  0  0  0  0
 35 36  1  1  0  0  0
 37 39  2  0  0  0  0
 39 34  1  0  0  0  0
 40 41  1  0  0  0  0
 42 41  1  0  0  0  0
 43 42  1  0  0  0  0
 44 43  1  0  0  0  0
 44 45  1  0  0  0  0
 47 46  1  1  0  0  0
 47 45  1  0  0  0  0
 47 48  1  0  0  0  0
 48 49  1  0  0  0  0
M  END
>  <MODEL>
7

>  <REMARK>
 VINA RESULT:      -6.9      3.252      5.582
  Name = 
  16 active torsions:
  status: ('A' for Active; 'I' for Inactive)
    1  A    between atoms: N_2  and  N_38
    2  A    between atoms: N_2  and  C_42
    3  A    between atoms: C_6  and  C_19
    4  A    between atoms: C_9  and  C_22
    5  A    between atoms: C_9  and  C_39
    6  A    between atoms: C_11  and  N_30
    7  A    between atoms: C_11  and  C_43
    8  A    between atoms: C_14  and  C_31
    9  A    between atoms: C_19  and  C_26
   10  A    between atoms: C_22  and  C_47
   11  A    between atoms: N_24  and  C_39
   12  A    between atoms: N_24  and  C_48
   13  A    between atoms: C_26  and  C_43
   14  A    between atoms: N_30  and  N_38
   15  A    between atoms: C_32  and  C_47
   16  A    between atoms: C_45  and  C_47
                            x       y       z     vdW  Elec       q    Type
                         _______ _______ _______ _____ _____    ______ ____

>  <TORSDO>
F 16

$$$$
=
 OpenBabel11032419373D

 49 54  0  0  1  0  0  0  0  0999 V2000
  182.6960  177.8780  136.7510 N   0  0  0  0  0  0  0  0  0  0  0  0
  185.0130  175.8130  134.8110 F   0  0  0  0  0  0  0  0  0  0  0  0
  184.5090  176.6570  135.7450 C   0  0  0  0  0  0  0  0  0  0  0  0
  183.2210  177.0260  135.7160 C   0  0  0  0  0  0  0  0  0  0  0  0
  185.5060  179.7520  140.9260 O   0  0  0  0  0  0  0  0  0  0  0  0
  183.3660  178.1770  137.8230 C   0  0  0  0  0  0  0  0  0  0  0  0
  182.7580  178.9900  138.8240 N   0  0  0  0  0  2  0  0  0  0  0  0
  185.4370  177.2610  136.7580 C   0  0  0  0  0  2  0  0  0  0  0  0
  183.3670  179.1830  140.1370 C   0  0  2  0  0  3  0  0  0  0  0  0
  185.6130  178.4370  138.9610 C   0  0  2  0  0  3  0  0  0  0  0  0
  184.8720  179.1510  140.0740 C   0  0  0  0  0  0  0  0  0  0  0  0
  184.7180  177.5550  138.0790 C   0  0  1  0  0  3  0  0  0  0  0  0
  180.9960  176.4870  135.0950 C   0  0  0  0  0  2  0  0  0  0  0  0
  183.2110  172.8790  135.1160 S   0  0  0  0  0  0  0  0  0  0  0  0
  180.2930  170.8300  136.4840 F   0  0  0  0  0  0  0  0  0  0  0  0
  182.4690  171.4700  135.6570 C   0  0  0  0  0  0  0  0  0  0  0  0
  182.3050  176.4910  134.6540 C   0  0  2  0  0  3  0  0  0  0  0  0
  181.8130  173.7870  135.3370 C   0  0  0  0  0  0  0  0  0  0  0  0
  181.1530  171.7580  135.9980 C   0  0  0  0  0  0  0  0  0  0  0  0
  183.1290  170.1420  135.7740 C   0  0  0  0  0  1  0  0  0  0  0  0
  180.7880  173.0550  135.8210 N   0  0  0  0  0  0  0  0  0  0  0  0
  181.7220  175.1850  135.0870 N   0  0  0  0  0  0  0  0  0  0  0  0
  182.7880  178.2400  141.1990 C   0  0  2  0  0  3  0  0  0  0  0  0
  180.3040  178.0530  141.2840 C   0  0  0  0  0  1  0  0  0  0  0  0
  181.5730  177.4630  140.7050 C   0  0  0  0  0  2  0  0  0  0  0  0
  182.4230  179.0390  142.4420 C   0  0  0  0  0  2  0  0  0  0  0  0
  182.7200  178.2530  143.7100 C   0  0  0  0  0  2  0  0  0  0  0  0
  183.4120  179.1310  144.7400 C   0  0  0  0  0  2  0  0  0  0  0  0
  184.8050  179.3320  144.3650 N   0  0  0  0  0  2  0  0  0  0  0  0
  188.3470  176.8730  148.2430 C   0  0  0  0  0  3  0  0  0  0  0  0
  187.2040  178.3580  147.0650 C   0  0  1  0  0  3  0  0  0  0  0  0
  189.0220  176.9630  147.1400 N   0  0  0  0  0  0  0  0  0  0  0  0
  187.1630  177.7300  148.2240 C   0  0  0  0  0  2  0  0  0  0  0  0
  186.8580  177.8530  144.3560 C   0  0  0  0  0  0  0  0  0  0  0  0
  188.4050  177.9630  146.2870 C   0  0  1  0  0  3  0  0  0  0  0  0
  187.9850  177.4170  144.9470 C   0  0  0  0  0  3  0  0  0  0  0  0
  186.0510  178.9660  146.4000 C   0  0  0  0  0  3  0  0  0  0  0  0
  186.5230  177.3440  142.9960 C   0  0  0  0  0  1  0  0  0  0  0  0
  185.9130  178.7640  145.0760 C   0  0  0  0  0  0  0  0  0  0  0  0
  186.6830  177.6210  139.5180 N   0  0  0  0  0  2  0  0  0  0  0  0
  187.8970  178.1770  139.0880 N   0  0  0  0  0  2  0  0  0  0  0  0
  188.8400  177.1400  139.0680 N   0  0  0  0  0  2  0  0  0  0  0  0
  189.9920  177.6000  139.8220 C   0  0  0  0  0  2  0  0  0  0  0  0
  189.6920  177.5180  141.3060 C   0  0  0  0  0  2  0  0  0  0  0  0
  190.5830  176.4920  141.9860 C   0  0  0  0  0  2  0  0  0  0  0  0
  191.0850  178.4350  143.2820 O   0  0  0  0  0  1  0  0  0  0  0  0
  191.5380  177.1520  142.9710 C   0  0  1  0  0  3  0  0  0  0  0  0
  191.6060  176.3200  144.2370 C   0  0  0  0  0  2  0  0  0  0  0  0
  191.6810  177.1550  145.3520 O   0  0  0  0  0  1  0  0  0  0  0  0
  1  6  2  0  0  0  0
  2  3  1  0  0  0  0
  3  8  1  0  0  0  0
  4  3  2  0  0  0  0
  4  1  1  0  0  0  0
  6 12  1  0  0  0  0
  6  7  1  0  0  0  0
  7  9  1  0  0  0  0
  9 23  1  1  0  0  0
 10 40  1  1  0  0  0
 10 11  1  0  0  0  0
 11  9  1  0  0  0  0
 11  5  2  0  0  0  0
 12  8  1  6  0  0  0
 12 10  1  0  0  0  0
 14 18  1  0  0  0  0
 14 16  1  0  0  0  0
 16 20  1  0  0  0  0
 16 19  2  0  0  0  0
 17 22  1  0  0  0  0
 17 13  1  0  0  0  0
 17  4  1  1  0  0  0
 18 21  2  0  0  0  0
 19 15  1  0  0  0  0
 21 19  1  0  0  0  0
 22 13  1  0  0  0  0
 22 18  1  0  0  0  0
 23 25  1  6  0  0  0
 23 26  1  0  0  0  0
 25 24  1  0  0  0  0
 26 27  1  0  0  0  0
 27 28  1  0  0  0  0
 29 28  1  0  0  0  0
 29 39  1  0  0  0  0
 31 37  1  6  0  0  0
 31 33  1  0  0  0  0
 32 30  2  0  0  0  0
 33 30  1  0  0  0  0
 34 36  2  0  0  0  0
 34 39  1  0  0  0  0
 35 36  1  6  0  0  0
 35 31  1  0  0  0  0
 35 32  1  0  0  0  0
 38 34  1  0  0  0  0
 39 37  2  0  0  0  0
 41 40  1  0  0  0  0
 42 41  1  0  0  0  0
 42 43  1  0  0  0  0
 43 44  1  0  0  0  0
 44 45  1  0  0  0  0
 45 47  1  0  0  0  0
 47 46  1  1  0  0  0
 47 48  1  0  0  0  0
 48 49  1  0  0  0  0
M  END
>  <MODEL>
8

>  <REMARK>
 VINA RESULT:      -6.9      2.655      3.681
  Name = 
  16 active torsions:
  status: ('A' for Active; 'I' for Inactive)
    1  A    between atoms: N_2  and  N_38
    2  A    between atoms: N_2  and  C_42
    3  A    between atoms: C_6  and  C_19
    4  A    between atoms: C_9  and  C_22
    5  A    between atoms: C_9  and  C_39
    6  A    between atoms: C_11  and  N_30
    7  A    between atoms: C_11  and  C_43
    8  A    between atoms: C_14  and  C_31
    9  A    between atoms: C_19  and  C_26
   10  A    between atoms: C_22  and  C_47
   11  A    between atoms: N_24  and  C_39
   12  A    between atoms: N_24  and  C_48
   13  A    between atoms: C_26  and  C_43
   14  A    between atoms: N_30  and  N_38
   15  A    between atoms: C_32  and  C_47
   16  A    between atoms: C_45  and  C_47
                            x       y       z     vdW  Elec       q    Type
                         _______ _______ _______ _____ _____    ______ ____

>  <TORSDO>
F 16

$$$$
=
 OpenBabel11032419373D

 49 54  0  0  1  0  0  0  0  0999 V2000
  185.8220  178.2920  142.3870 N   0  0  0  0  0  0  0  0  0  0  0  0
  183.5000  178.0940  145.2100 F   0  0  0  0  0  0  0  0  0  0  0  0
  184.0260  178.3560  143.9870 C   0  0  0  0  0  0  0  0  0  0  0  0
  185.3020  178.0560  143.7090 C   0  0  0  0  0  0  0  0  0  0  0  0
  183.0030  180.2860  138.2740 O   0  0  0  0  0  0  0  0  0  0  0  0
  185.0670  178.6250  141.3840 C   0  0  0  0  0  0  0  0  0  0  0  0
  185.6520  178.7950  140.0950 N   0  0  0  0  0  2  0  0  0  0  0  0
  183.1910  179.0850  142.9750 C   0  0  0  0  0  2  0  0  0  0  0  0
  184.8370  178.9550  138.8930 C   0  0  2  0  0  3  0  0  0  0  0  0
  182.9130  179.6670  140.5570 C   0  0  2  0  0  3  0  0  0  0  0  0
  183.5400  179.6650  139.1770 C   0  0  0  0  0  0  0  0  0  0  0  0
  183.5670  178.6890  141.5430 C   0  0  1  0  0  3  0  0  0  0  0  0
  186.6080  178.3310  145.6690 C   0  0  0  0  0  2  0  0  0  0  0  0
  189.2170  177.0760  142.5800 S   0  0  0  0  0  0  0  0  0  0  0  0
  192.0870  179.2790  143.7990 F   0  0  0  0  0  0  0  0  0  0  0  0
  190.7700  177.7190  142.5130 C   0  0  0  0  0  0  0  0  0  0  0  0
  186.1690  177.4030  144.7460 C   0  0  2  0  0  3  0  0  0  0  0  0
  188.8410  177.9360  143.9760 C   0  0  0  0  0  0  0  0  0  0  0  0
  190.9420  178.5890  143.5820 C   0  0  0  0  0  0  0  0  0  0  0  0
  191.7780  177.4180  141.4620 C   0  0  0  0  0  1  0  0  0  0  0  0
  189.8620  178.7130  144.3980 N   0  0  0  0  0  0  0  0  0  0  0  0
  187.5750  177.8930  144.6240 N   0  0  0  0  0  0  0  0  0  0  0  0
  184.6490  177.6370  138.1300 C   0  0  2  0  0  3  0  0  0  0  0  0
  182.9650  175.8440  137.7250 C   0  0  0  0  0  1  0  0  0  0  0  0
  183.6160  176.7200  138.7750 C   0  0  0  0  0  2  0  0  0  0  0  0
  185.9860  176.9170  138.0230 C   0  0  0  0  0  2  0  0  0  0  0  0
  186.3210  176.5890  136.5770 C   0  0  0  0  0  2  0  0  0  0  0  0
  186.7020  177.8460  135.8110 C   0  0  0  0  0  2  0  0  0  0  0  0
  187.9970  178.3310  136.2680 N   0  0  0  0  0  2  0  0  0  0  0  0
  192.9660  175.3410  136.2600 C   0  0  0  0  0  3  0  0  0  0  0  0
  190.8570  175.9390  135.9580 C   0  0  1  0  0  3  0  0  0  0  0  0
  192.4340  175.1570  137.4280 N   0  0  0  0  0  0  0  0  0  0  0  0
  191.9970  175.8650  135.3000 C   0  0  0  0  0  2  0  0  0  0  0  0
  189.6490  177.4350  137.9630 C   0  0  0  0  0  0  0  0  0  0  0  0
  191.0150  175.4610  137.3550 C   0  0  1  0  0  3  0  0  0  0  0  0
  190.5940  176.5440  138.3130 C   0  0  0  0  0  3  0  0  0  0  0  0
  189.7280  176.7920  135.5860 C   0  0  0  0  0  3  0  0  0  0  0  0
  189.2070  178.4390  138.9710 C   0  0  0  0  0  1  0  0  0  0  0  0
  189.1090  177.4770  136.5670 C   0  0  0  0  0  0  0  0  0  0  0  0
  181.4910  179.3640  140.4590 N   0  0  0  0  0  2  0  0  0  0  0  0
  180.8000  180.5830  140.5210 N   0  0  0  0  0  2  0  0  0  0  0  0
  179.4810  180.3280  140.1230 N   0  0  0  0  0  2  0  0  0  0  0  0
  179.3420  180.8310  138.7690 C   0  0  0  0  0  2  0  0  0  0  0  0
  179.9310  182.2260  138.6830 C   0  0  0  0  0  2  0  0  0  0  0  0
  180.4540  182.5120  137.2850 C   0  0  0  0  0  2  0  0  0  0  0  0
  181.8880  184.4140  137.1050 O   0  0  0  0  0  1  0  0  0  0  0  0
  180.5540  184.0090  137.0240 C   0  0  1  0  0  3  0  0  0  0  0  0
  180.0160  184.3130  135.6400 C   0  0  0  0  0  2  0  0  0  0  0  0
  180.9850  184.9800  134.8890 O   0  0  0  0  0  1  0  0  0  0  0  0
  1  4  1  0  0  0  0
  3  2  1  0  0  0  0
  4  3  2  0  0  0  0
  5 11  2  0  0  0  0
  6 12  1  0  0  0  0
  6  1  2  0  0  0  0
  7  6  1  0  0  0  0
  8  3  1  0  0  0  0
  9 23  1  1  0  0  0
  9 11  1  0  0  0  0
  9  7  1  0  0  0  0
 10 40  1  6  0  0  0
 10 12  1  0  0  0  0
 11 10  1  0  0  0  0
 12  8  1  1  0  0  0
 14 18  1  0  0  0  0
 16 14  1  0  0  0  0
 16 19  2  0  0  0  0
 17  4  1  6  0  0  0
 17 13  1  0  0  0  0
 18 21  2  0  0  0  0
 18 22  1  0  0  0  0
 19 15  1  0  0  0  0
 19 21  1  0  0  0  0
 20 16  1  0  0  0  0
 22 17  1  0  0  0  0
 22 13  1  0  0  0  0
 23 26  1  1  0  0  0
 23 25  1  0  0  0  0
 24 25  1  0  0  0  0
 27 26  1  0  0  0  0
 28 29  1  0  0  0  0
 28 27  1  0  0  0  0
 29 39  1  0  0  0  0
 30 32  2  0  0  0  0
 31 33  1  1  0  0  0
 31 35  1  0  0  0  0
 33 30  1  0  0  0  0
 34 36  2  0  0  0  0
 34 38  1  0  0  0  0
 35 32  1  0  0  0  0
 35 36  1  1  0  0  0
 37 31  1  0  0  0  0
 37 39  2  0  0  0  0
 39 34  1  0  0  0  0
 40 41  1  0  0  0  0
 42 41  1  0  0  0  0
 43 42  1  0  0  0  0
 44 43  1  0  0  0  0
 45 44  1  0  0  0  0
 47 46  1  6  0  0  0
 47 45  1  0  0  0  0
 48 47  1  0  0  0  0
 49 48  1  0  0  0  0
M  END
>  <MODEL>
9

>  <REMARK>
 VINA RESULT:      -6.6      4.427      9.597
  Name = 
  16 active torsions:
  status: ('A' for Active; 'I' for Inactive)
    1  A    between atoms: N_2  and  N_38
    2  A    between atoms: N_2  and  C_42
    3  A    between atoms: C_6  and  C_19
    4  A    between atoms: C_9  and  C_22
    5  A    between atoms: C_9  and  C_39
    6  A    between atoms: C_11  and  N_30
    7  A    between atoms: C_11  and  C_43
    8  A    between atoms: C_14  and  C_31
    9  A    between atoms: C_19  and  C_26
   10  A    between atoms: C_22  and  C_47
   11  A    between atoms: N_24  and  C_39
   12  A    between atoms: N_24  and  C_48
   13  A    between atoms: C_26  and  C_43
   14  A    between atoms: N_30  and  N_38
   15  A    between atoms: C_32  and  C_47
   16  A    between atoms: C_45  and  C_47
                            x       y       z     vdW  Elec       q    Type
                         _______ _______ _______ _____ _____    ______ ____

>  <TORSDO>
F 16

$$$$
