=
 OpenBabel11032419153D

 30 36  0  0  1  0  0  0  0  0999 V2000
  189.5150  177.0750  143.6780 C   0  0  0  0  0  0  0  0  0  0  0  0
  191.3970  176.3060  145.1870 C   0  0  0  0  0  0  0  0  0  0  0  0
  187.2580  177.7480  147.4150 N   0  0  0  0  0  0  0  0  0  0  0  0
  188.1570  177.4720  143.5720 C   0  0  0  0  0  0  0  0  0  0  0  0
  190.2940  177.0400  142.5070 C   0  0  0  0  0  3  0  0  0  0  0  0
  187.9430  178.2150  139.5200 S   0  0  0  0  0  0  0  0  0  0  0  0
  185.1850  177.7240  142.9690 C   0  0  1  0  0  3  0  0  0  0  0  0
  188.4350  177.8290  141.1940 C   0  0  0  0  0  0  0  0  0  0  0  0
  190.4400  177.3630  140.0610 N   0  0  0  0  0  2  0  0  0  0  0  0
  185.0970  178.1600  144.4290 C   0  0  2  0  0  3  0  0  0  0  0  0
  186.3700  178.5120  146.5820 C   0  0  0  0  0  0  0  0  0  0  0  0
  189.7310  177.3940  141.2840 C   0  0  0  0  0  0  0  0  0  0  0  0
  187.6170  177.8920  142.3320 C   0  0  0  0  0  0  0  0  0  0  0  0
  192.0200  176.3780  146.4950 N   0  0  0  0  0  2  0  0  0  0  0  0
  184.1660  179.3510  144.4290 C   0  0  0  0  0  2  0  0  0  0  0  0
  183.8240  178.0660  142.3760 C   0  0  0  0  0  2  0  0  0  0  0  0
  189.5660  176.7100  137.8910 C   0  0  0  0  0  1  0  0  0  0  0  0
  192.0560  175.5910  144.1450 N   0  0  0  0  0  1  0  0  0  0  0  0
  188.4950  177.5060  147.1090 C   0  0  0  0  0  0  0  0  0  0  0  0
  191.2940  177.0110  147.6130 C   0  0  0  0  0  2  0  0  0  0  0  0
  189.6390  177.8110  138.9290 C   0  0  1  0  0  3  0  0  0  0  0  0
  190.1620  176.8660  145.0200 C   0  0  0  0  0  0  0  0  0  0  0  0
  187.3630  177.4280  144.7100 O   0  0  0  0  0  0  0  0  0  0  0  0
  185.4760  179.2110  147.1290 O   0  0  0  0  0  0  0  0  0  0  0  0
  186.4570  178.4560  145.0720 C   0  0  1  0  0  3  0  0  0  0  0  0
  183.1720  179.0720  143.3180 C   0  0  0  0  0  2  0  0  0  0  0  0
  186.0870  179.7530  141.7190 C   0  0  0  0  0  1  0  0  0  0  0  0
  189.8200  176.7530  147.3450 C   0  0  2  0  0  3  0  0  0  0  0  0
  189.7160  177.6730  146.2300 C   0  0  2  0  0  3  0  0  0  0  0  0
  186.2750  178.4050  142.2490 N   0  0  0  0  0  0  0  0  0  0  0  0
  1 22  1  0  0  0  0
  2 14  1  0  0  0  0
  4  1  1  0  0  0  0
  4 23  1  0  0  0  0
  5  1  2  0  0  0  0
  6  8  1  0  0  0  0
  7 16  1  6  0  0  0
  7 10  1  0  0  0  0
  8 12  2  0  0  0  0
  8 13  1  0  0  0  0
  9 12  1  0  0  0  0
 10 15  1  6  0  0  0
 10 25  1  0  0  0  0
 11 24  2  0  0  0  0
 11  3  1  0  0  0  0
 12  5  1  0  0  0  0
 13  4  2  0  0  0  0
 14 20  1  0  0  0  0
 16 26  1  0  0  0  0
 18  2  1  0  0  0  0
 19 28  1  0  0  0  0
 19  3  2  0  0  0  0
 21 17  1  6  0  0  0
 21  6  1  0  0  0  0
 21  9  1  0  0  0  0
 22  2  2  0  0  0  0
 25 23  1  1  0  0  0
 25 11  1  0  0  0  0
 26 15  1  0  0  0  0
 27 30  1  0  0  0  0
 28 20  1  1  0  0  0
 29 22  1  6  0  0  0
 29 19  1  0  0  0  0
 29 28  1  0  0  0  0
 30 13  1  0  0  0  0
 30  7  1  0  0  0  0
M  END
>  <MODEL>
1

>  <REMARK>
 VINA RESULT:     -11.6      0.000      0.000
  Name = 
  0 active torsions:
  status: ('A' for Active; 'I' for Inactive)
                            x       y       z     vdW  Elec       q    Type
                         _______ _______ _______ _____ _____    ______ ____

>  <TORSDO>
F 0

$$$$
=
 OpenBabel11032419153D

 30 36  0  0  1  0  0  0  0  0999 V2000
  186.3340  178.4300  141.5710 C   0  0  0  0  0  0  0  0  0  0  0  0
  183.9110  179.1560  141.4540 C   0  0  0  0  0  0  0  0  0  0  0  0
  185.8110  178.5970  145.9540 N   0  0  0  0  0  0  0  0  0  0  0  0
  187.4720  178.2010  142.3850 C   0  0  0  0  0  0  0  0  0  0  0  0
  186.4430  178.1950  140.1880 C   0  0  0  0  0  3  0  0  0  0  0  0
  190.1520  176.9190  139.5230 S   0  0  0  0  0  0  0  0  0  0  0  0
  190.1860  178.2520  143.7610 C   0  0  1  0  0  3  0  0  0  0  0  0
  188.7270  177.4740  140.4460 C   0  0  0  0  0  0  0  0  0  0  0  0
  187.8420  177.5080  138.2700 N   0  0  0  0  0  2  0  0  0  0  0  0
  189.3600  178.0450  145.0280 C   0  0  2  0  0  3  0  0  0  0  0  0
  187.0350  177.8430  145.9930 C   0  0  0  0  0  0  0  0  0  0  0  0
  187.6450  177.7450  139.6500 C   0  0  0  0  0  0  0  0  0  0  0  0
  188.6680  177.6800  141.8330 C   0  0  0  0  0  0  0  0  0  0  0  0
  182.6140  179.1930  142.1030 N   0  0  0  0  0  0  0  0  0  0  0  0
  190.1090  176.9970  145.8200 C   0  0  0  0  0  2  0  0  0  0  0  0
  191.6270  178.0070  144.1900 C   0  0  0  0  0  2  0  0  0  0  0  0
  189.8600  177.9510  136.9930 C   0  0  0  0  0  1  0  0  0  0  0  0
  184.0260  179.6230  140.1130 N   0  0  0  0  0  1  0  0  0  0  0  0
  185.0240  178.6310  144.9230 C   0  0  0  0  0  0  0  0  0  0  0  0
  182.5040  178.8260  143.5290 C   0  0  0  0  0  2  0  0  0  0  0  0
  189.1770  177.0110  137.9640 C   0  0  1  0  0  3  0  0  0  0  0  0
  184.9930  178.7430  142.1780 C   0  0  1  0  0  3  0  0  0  0  0  0
  187.3940  178.5100  143.7370 O   0  0  0  0  0  0  0  0  0  0  0  0
  187.4100  177.3520  147.0900 O   0  0  0  0  0  0  0  0  0  0  0  0
  187.8970  177.6700  144.7620 C   0  0  1  0  0  3  0  0  0  0  0  0
  191.5730  177.2400  145.5060 C   0  0  0  0  0  2  0  0  0  0  0  0
  190.2760  175.9650  142.6410 C   0  0  0  0  0  1  0  0  0  0  0  0
  183.8260  179.2320  144.1610 C   0  0  2  0  0  3  0  0  0  0  0  0
  184.6080  178.1830  143.5390 C   0  0  2  0  0  3  0  0  0  0  0  0
  189.7830  177.3390  142.6770 N   0  0  0  0  0  0  0  0  0  0  0  0
  1 22  1  0  0  0  0
  1  4  1  0  0  0  0
  2 14  2  0  0  0  0
  3 11  1  0  0  0  0
  4 23  1  0  0  0  0
  5  1  2  0  0  0  0
  6  8  1  0  0  0  0
  7 16  1  1  0  0  0
  7 10  1  0  0  0  0
  8 13  1  0  0  0  0
  9 12  1  0  0  0  0
 10 15  1  1  0  0  0
 11 24  2  0  0  0  0
 12  5  1  0  0  0  0
 12  8  2  0  0  0  0
 13  4  2  0  0  0  0
 13 30  1  0  0  0  0
 14 20  1  0  0  0  0
 16 26  1  0  0  0  0
 18  2  1  0  0  0  0
 19  3  2  0  0  0  0
 21 17  1  6  0  0  0
 21  9  1  0  0  0  0
 21  6  1  0  0  0  0
 22  2  1  6  0  0  0
 22 29  1  0  0  0  0
 25 23  1  6  0  0  0
 25 10  1  0  0  0  0
 25 11  1  0  0  0  0
 26 15  1  0  0  0  0
 27 30  1  0  0  0  0
 28 20  1  1  0  0  0
 28 19  1  0  0  0  0
 29 28  1  0  0  0  0
 29 19  1  1  0  0  0
 30  7  1  0  0  0  0
M  END
>  <MODEL>
2

>  <REMARK>
 VINA RESULT:     -10.3      1.829      5.463
  Name = 
  0 active torsions:
  status: ('A' for Active; 'I' for Inactive)
                            x       y       z     vdW  Elec       q    Type
                         _______ _______ _______ _____ _____    ______ ____

>  <TORSDO>
F 0

$$$$
=
 OpenBabel11032419153D

 30 36  0  0  1  0  0  0  0  0999 V2000
  188.8690  177.3970  144.2010 C   0  0  0  0  0  0  0  0  0  0  0  0
  190.2410  176.9760  146.2860 C   0  0  0  0  0  0  0  0  0  0  0  0
  185.5180  178.1500  146.9790 N   0  0  0  0  0  0  0  0  0  0  0  0
  187.5850  177.6320  143.6460 C   0  0  0  0  0  0  0  0  0  0  0  0
  189.9730  177.3430  143.3320 C   0  0  0  0  0  3  0  0  0  0  0  0
  188.5840  177.9820  139.6590 S   0  0  0  0  0  0  0  0  0  0  0  0
  184.9380  177.5030  142.1510 C   0  0  1  0  0  3  0  0  0  0  0  0
  188.5600  177.8030  141.4370 C   0  0  0  0  0  0  0  0  0  0  0  0
  190.8470  177.4610  141.0230 N   0  0  0  0  0  2  0  0  0  0  0  0
  184.3670  178.0550  143.4550 C   0  0  2  0  0  3  0  0  0  0  0  0
  184.8760  178.7350  145.8330 C   0  0  0  0  0  0  0  0  0  0  0  0
  189.7930  177.5230  141.9640 C   0  0  0  0  0  0  0  0  0  0  0  0
  187.4260  177.8790  142.2600 C   0  0  0  0  0  0  0  0  0  0  0  0
  190.4200  177.2320  147.7030 N   0  0  0  0  0  2  0  0  0  0  0  0
  183.3940  179.1320  143.0340 C   0  0  0  0  0  2  0  0  0  0  0  0
  183.8060  177.6400  141.1400 C   0  0  0  0  0  2  0  0  0  0  0  0
  190.7440  176.5250  138.7840 C   0  0  0  0  0  1  0  0  0  0  0  0
  191.2440  176.2480  145.5830 N   0  0  0  0  0  1  0  0  0  0  0  0
  186.8040  178.0180  147.0900 C   0  0  0  0  0  0  0  0  0  0  0  0
  189.3360  177.8790  148.4680 C   0  0  0  0  0  2  0  0  0  0  0  0
  190.4060  177.7150  139.6580 C   0  0  1  0  0  3  0  0  0  0  0  0
  189.0810  177.3810  145.6910 C   0  0  0  0  0  0  0  0  0  0  0  0
  186.4820  177.6030  144.4890 O   0  0  0  0  0  0  0  0  0  0  0  0
  183.8060  179.3780  145.9990 O   0  0  0  0  0  0  0  0  0  0  0  0
  185.4330  178.5540  144.4370 C   0  0  1  0  0  3  0  0  0  0  0  0
  182.8180  178.6480  141.7160 C   0  0  0  0  0  2  0  0  0  0  0  0
  186.0250  179.4980  140.9990 C   0  0  0  0  0  1  0  0  0  0  0  0
  188.0430  177.4380  147.8010 C   0  0  2  0  0  3  0  0  0  0  0  0
  188.2200  178.2390  146.6060 C   0  0  2  0  0  3  0  0  0  0  0  0
  186.1420  178.2320  141.7170 N   0  0  0  0  0  0  0  0  0  0  0  0
  1 22  1  0  0  0  0
  2 14  1  0  0  0  0
  3 19  2  0  0  0  0
  4  1  1  0  0  0  0
  4 23  1  0  0  0  0
  5  1  2  0  0  0  0
  6  8  1  0  0  0  0
  7 16  1  6  0  0  0
  7 10  1  0  0  0  0
  8 12  2  0  0  0  0
  8 13  1  0  0  0  0
  9 12  1  0  0  0  0
 10 15  1  6  0  0  0
 10 25  1  0  0  0  0
 11 24  2  0  0  0  0
 11  3  1  0  0  0  0
 12  5  1  0  0  0  0
 13  4  2  0  0  0  0
 14 20  1  0  0  0  0
 16 26  1  0  0  0  0
 18  2  1  0  0  0  0
 19 28  1  0  0  0  0
 21 17  1  6  0  0  0
 21  6  1  0  0  0  0
 21  9  1  0  0  0  0
 22  2  2  0  0  0  0
 25 23  1  1  0  0  0
 25 11  1  0  0  0  0
 26 15  1  0  0  0  0
 27 30  1  0  0  0  0
 28 20  1  1  0  0  0
 29 22  1  6  0  0  0
 29 19  1  0  0  0  0
 29 28  1  0  0  0  0
 30  7  1  0  0  0  0
 30 13  1  0  0  0  0
M  END
>  <MODEL>
3

>  <REMARK>
 VINA RESULT:      -9.6      1.129      1.394
  Name = 
  0 active torsions:
  status: ('A' for Active; 'I' for Inactive)
                            x       y       z     vdW  Elec       q    Type
                         _______ _______ _______ _____ _____    ______ ____

>  <TORSDO>
F 0

$$$$
=
 OpenBabel11032419153D

 30 36  0  0  1  0  0  0  0  0999 V2000
  185.7110  178.5680  142.6460 C   0  0  0  0  0  0  0  0  0  0  0  0
  185.2620  178.6690  145.1350 C   0  0  0  0  0  0  0  0  0  0  0  0
  189.7260  177.1190  143.7800 N   0  0  0  0  0  0  0  0  0  0  0  0
  186.6620  178.3680  141.6130 C   0  0  0  0  0  0  0  0  0  0  0  0
  184.3800  178.8470  142.2840 C   0  0  0  0  0  3  0  0  0  0  0  0
  184.2350  178.8270  138.3090 S   0  0  0  0  0  0  0  0  0  0  0  0
  188.5700  178.6240  139.2560 C   0  0  1  0  0  3  0  0  0  0  0  0
  184.9320  178.6690  139.9460 C   0  0  0  0  0  0  0  0  0  0  0  0
  182.7130  179.2130  140.4970 N   0  0  0  0  0  2  0  0  0  0  0  0
  189.5070  177.8060  140.1420 C   0  0  2  0  0  3  0  0  0  0  0  0
  189.8250  176.7230  142.4020 C   0  0  0  0  0  0  0  0  0  0  0  0
  184.0220  178.9160  140.9410 C   0  0  0  0  0  0  0  0  0  0  0  0
  186.2700  178.3760  140.2520 C   0  0  0  0  0  0  0  0  0  0  0  0
  185.5850  178.1630  146.4560 N   0  0  0  0  0  2  0  0  0  0  0  0
  190.1170  176.7720  139.2230 C   0  0  0  0  0  2  0  0  0  0  0  0
  189.2260  178.6130  137.8810 C   0  0  0  0  0  2  0  0  0  0  0  0
  182.1030  180.5430  138.5590 C   0  0  0  0  0  1  0  0  0  0  0  0
  184.1690  179.5720  144.9890 N   0  0  0  0  0  1  0  0  0  0  0  0
  188.5970  177.3010  144.3940 C   0  0  0  0  0  0  0  0  0  0  0  0
  186.7850  177.3230  146.6400 C   0  0  0  0  0  2  0  0  0  0  0  0
  182.5880  179.1930  139.0460 C   0  0  1  0  0  3  0  0  0  0  0  0
  186.0630  178.3170  144.0870 C   0  0  0  0  0  0  0  0  0  0  0  0
  187.9910  178.1760  141.9630 O   0  0  0  0  0  0  0  0  0  0  0  0
  190.7930  176.0000  142.0460 O   0  0  0  0  0  0  0  0  0  0  0  0
  188.8230  177.1930  141.3700 C   0  0  1  0  0  3  0  0  0  0  0  0
  190.2240  177.4610  137.8750 C   0  0  0  0  0  2  0  0  0  0  0  0
  186.8990  176.9440  138.3200 C   0  0  0  0  0  1  0  0  0  0  0  0
  187.7870  177.8070  145.6040 C   0  0  2  0  0  3  0  0  0  0  0  0
  187.0870  177.2560  144.4610 C   0  0  2  0  0  3  0  0  0  0  0  0
  187.2110  178.0580  139.2110 N   0  0  0  0  0  0  0  0  0  0  0  0
  1 22  1  0  0  0  0
  2 14  1  0  0  0  0
  3 19  2  0  0  0  0
  4 23  1  0  0  0  0
  4  1  2  0  0  0  0
  5  1  1  0  0  0  0
  6 21  1  0  0  0  0
  6  8  1  0  0  0  0
  7 16  1  6  0  0  0
  7 10  1  0  0  0  0
  8 13  2  0  0  0  0
  8 12  1  0  0  0  0
  9 12  1  0  0  0  0
 10 15  1  6  0  0  0
 10 25  1  0  0  0  0
 11  3  1  0  0  0  0
 12  5  2  0  0  0  0
 13  4  1  0  0  0  0
 14 20  1  0  0  0  0
 18  2  1  0  0  0  0
 19 29  1  0  0  0  0
 19 28  1  0  0  0  0
 21 17  1  6  0  0  0
 21  9  1  0  0  0  0
 22  2  2  0  0  0  0
 24 11  2  0  0  0  0
 25 23  1  1  0  0  0
 25 11  1  0  0  0  0
 26 16  1  0  0  0  0
 26 15  1  0  0  0  0
 27 30  1  0  0  0  0
 28 20  1  1  0  0  0
 29 22  1  6  0  0  0
 29 28  1  0  0  0  0
 30  7  1  0  0  0  0
 30 13  1  0  0  0  0
M  END
>  <MODEL>
4

>  <REMARK>
 VINA RESULT:      -9.6      2.417      5.760
  Name = 
  0 active torsions:
  status: ('A' for Active; 'I' for Inactive)
                            x       y       z     vdW  Elec       q    Type
                         _______ _______ _______ _____ _____    ______ ____

>  <TORSDO>
F 0

$$$$
=
 OpenBabel11032419153D

 30 36  0  0  1  0  0  0  0  0999 V2000
  187.1900  177.7980  144.7580 C   0  0  0  0  0  0  0  0  0  0  0  0
  184.9300  178.3120  145.7770 C   0  0  0  0  0  0  0  0  0  0  0  0
  185.2250  178.5560  140.8760 N   0  0  0  0  0  0  0  0  0  0  0  0
  187.9420  177.5720  143.5770 C   0  0  0  0  0  0  0  0  0  0  0  0
  187.8570  177.7430  145.9960 C   0  0  0  0  0  3  0  0  0  0  0  0
  191.6810  176.9720  145.2150 S   0  0  0  0  0  0  0  0  0  0  0  0
  189.6260  176.4330  141.3130 C   0  0  1  0  0  3  0  0  0  0  0  0
  189.9560  177.3120  144.8960 C   0  0  0  0  0  0  0  0  0  0  0  0
  189.9580  177.3820  147.2450 N   0  0  0  0  0  2  0  0  0  0  0  0
  188.6460  177.1960  140.4250 C   0  0  2  0  0  3  0  0  0  0  0  0
  186.5670  178.6280  140.3630 C   0  0  0  0  0  0  0  0  0  0  0  0
  189.2220  177.4760  146.0420 C   0  0  0  0  0  0  0  0  0  0  0  0
  189.3430  177.3680  143.6350 C   0  0  0  0  0  0  0  0  0  0  0  0
  183.6590  178.9990  145.6450 N   0  0  0  0  0  2  0  0  0  0  0  0
  189.5040  177.8620  139.3730 C   0  0  0  0  0  2  0  0  0  0  0  0
  190.7570  176.0180  140.3800 C   0  0  0  0  0  2  0  0  0  0  0  0
  191.7760  175.8430  147.7190 C   0  0  0  0  0  1  0  0  0  0  0  0
  185.2370  177.6540  147.0030 N   0  0  0  0  0  1  0  0  0  0  0  0
  184.9230  178.7500  142.1220 C   0  0  0  0  0  0  0  0  0  0  0  0
  183.2780  179.5810  144.3430 C   0  0  0  0  0  2  0  0  0  0  0  0
  191.3760  177.1280  147.0240 C   0  0  1  0  0  3  0  0  0  0  0  0
  185.7600  178.2600  144.6930 C   0  0  0  0  0  0  0  0  0  0  0  0
  187.2740  177.5430  142.3610 O   0  0  0  0  0  0  0  0  0  0  0  0
  186.7450  179.0370  139.1860 O   0  0  0  0  0  0  0  0  0  0  0  0
  187.7540  178.1810  141.1890 C   0  0  1  0  0  3  0  0  0  0  0  0
  190.6580  176.9030  139.1430 C   0  0  0  0  0  2  0  0  0  0  0  0
  191.2150  178.2010  142.2290 C   0  0  0  0  0  1  0  0  0  0  0  0
  183.9200  178.6910  143.2910 C   0  0  2  0  0  3  0  0  0  0  0  0
  185.2770  179.1310  143.5430 C   0  0  2  0  0  3  0  0  0  0  0  0
  190.1220  177.2550  142.4300 N   0  0  0  0  0  0  0  0  0  0  0  0
  1  5  1  0  0  0  0
  2 18  1  0  0  0  0
  3 19  2  0  0  0  0
  4 13  1  0  0  0  0
  4  1  2  0  0  0  0
  5 12  2  0  0  0  0
  6 21  1  0  0  0  0
  7 16  1  6  0  0  0
  7 30  1  0  0  0  0
  8  6  1  0  0  0  0
  8 12  1  0  0  0  0
 10 15  1  6  0  0  0
 10 25  1  0  0  0  0
 10  7  1  0  0  0  0
 11  3  1  0  0  0  0
 12  9  1  0  0  0  0
 13  8  2  0  0  0  0
 14  2  1  0  0  0  0
 19 28  1  0  0  0  0
 20 14  1  0  0  0  0
 21  9  1  0  0  0  0
 21 17  1  1  0  0  0
 22  1  1  0  0  0  0
 22  2  2  0  0  0  0
 23  4  1  0  0  0  0
 24 11  2  0  0  0  0
 25 11  1  6  0  0  0
 25 23  1  0  0  0  0
 26 15  1  0  0  0  0
 26 16  1  0  0  0  0
 27 30  1  0  0  0  0
 28 29  1  0  0  0  0
 28 20  1  6  0  0  0
 29 19  1  6  0  0  0
 29 22  1  0  0  0  0
 30 13  1  0  0  0  0
M  END
>  <MODEL>
5

>  <REMARK>
 VINA RESULT:      -9.4      2.239      6.358
  Name = 
  0 active torsions:
  status: ('A' for Active; 'I' for Inactive)
                            x       y       z     vdW  Elec       q    Type
                         _______ _______ _______ _____ _____    ______ ____

>  <TORSDO>
F 0

$$$$
=
 OpenBabel11032419153D

 30 36  0  0  1  0  0  0  0  0999 V2000
  186.5910  178.0360  142.9690 C   0  0  0  0  0  0  0  0  0  0  0  0
  187.3940  177.8780  145.3650 C   0  0  0  0  0  0  0  0  0  0  0  0
  182.5880  178.6870  144.7180 N   0  0  0  0  0  0  0  0  0  0  0  0
  185.4850  178.1210  142.0850 C   0  0  0  0  0  0  0  0  0  0  0  0
  187.8860  178.0170  142.4190 C   0  0  0  0  0  3  0  0  0  0  0  0
  187.4690  178.2830  138.4720 S   0  0  0  0  0  0  0  0  0  0  0  0
  183.3360  177.6640  139.9790 C   0  0  1  0  0  3  0  0  0  0  0  0
  186.9920  178.2240  140.1920 C   0  0  0  0  0  0  0  0  0  0  0  0
  189.3250  178.0510  140.4110 N   0  0  0  0  0  2  0  0  0  0  0  0
  182.4090  178.2530  141.0400 C   0  0  2  0  0  3  0  0  0  0  0  0
  182.2320  179.1350  143.4000 C   0  0  0  0  0  0  0  0  0  0  0  0
  188.0600  178.0870  141.0400 C   0  0  0  0  0  0  0  0  0  0  0  0
  185.6790  178.2580  140.6880 C   0  0  0  0  0  0  0  0  0  0  0  0
  187.1780  178.2440  146.7520 N   0  0  0  0  0  2  0  0  0  0  0  0
  181.5120  179.2120  140.2900 C   0  0  0  0  0  2  0  0  0  0  0  0
  182.5030  177.6340  138.7050 C   0  0  0  0  0  2  0  0  0  0  0  0
  189.8730  176.9600  138.3110 C   0  0  0  0  0  1  0  0  0  0  0  0
  188.5910  177.1920  145.0090 N   0  0  0  0  0  1  0  0  0  0  0  0
  183.8050  178.6740  145.1660 C   0  0  0  0  0  0  0  0  0  0  0  0
  185.8920  178.8470  147.1530 C   0  0  0  0  0  2  0  0  0  0  0  0
  189.2410  178.1730  138.9610 C   0  0  1  0  0  3  0  0  0  0  0  0
  186.4060  178.1400  144.4580 C   0  0  0  0  0  0  0  0  0  0  0  0
  184.2040  178.0560  142.6170 O   0  0  0  0  0  0  0  0  0  0  0  0
  181.1170  179.6940  143.2290 O   0  0  0  0  0  0  0  0  0  0  0  0
  183.1450  178.9080  142.2140 C   0  0  1  0  0  3  0  0  0  0  0  0
  181.3350  178.5910  138.9170 C   0  0  0  0  0  2  0  0  0  0  0  0
  184.5550  179.6620  138.9720 C   0  0  0  0  0  1  0  0  0  0  0  0
  184.8500  178.2530  146.2190 C   0  0  2  0  0  3  0  0  0  0  0  0
  185.2820  178.9810  145.0430 C   0  0  2  0  0  3  0  0  0  0  0  0
  184.5620  178.4630  139.8050 N   0  0  0  0  0  0  0  0  0  0  0  0
  1 22  1  0  0  0  0
  2 14  1  0  0  0  0
  3 19  2  0  0  0  0
  4 23  1  0  0  0  0
  4  1  2  0  0  0  0
  5  1  1  0  0  0  0
  6 21  1  0  0  0  0
  6  8  1  0  0  0  0
  7 16  1  6  0  0  0
  7 10  1  0  0  0  0
  8 13  2  0  0  0  0
  8 12  1  0  0  0  0
  9 12  1  0  0  0  0
 10 15  1  6  0  0  0
 10 25  1  0  0  0  0
 11  3  1  0  0  0  0
 12  5  2  0  0  0  0
 13  4  1  0  0  0  0
 14 20  1  0  0  0  0
 16 26  1  0  0  0  0
 18  2  1  0  0  0  0
 19 28  1  0  0  0  0
 21 17  1  6  0  0  0
 21  9  1  0  0  0  0
 22  2  2  0  0  0  0
 24 11  2  0  0  0  0
 25 23  1  1  0  0  0
 25 11  1  0  0  0  0
 26 15  1  0  0  0  0
 27 30  1  0  0  0  0
 28 20  1  1  0  0  0
 29 22  1  6  0  0  0
 29 19  1  0  0  0  0
 29 28  1  0  0  0  0
 30  7  1  0  0  0  0
 30 13  1  0  0  0  0
M  END
>  <MODEL>
6

>  <REMARK>
 VINA RESULT:      -9.3      2.438      3.957
  Name = 
  0 active torsions:
  status: ('A' for Active; 'I' for Inactive)
                            x       y       z     vdW  Elec       q    Type
                         _______ _______ _______ _____ _____    ______ ____

>  <TORSDO>
F 0

$$$$
=
 OpenBabel11032419153D

 30 36  0  0  1  0  0  0  0  0999 V2000
  189.8230  177.5240  142.6010 C   0  0  0  0  0  0  0  0  0  0  0  0
  191.2380  177.4200  140.5050 C   0  0  0  0  0  0  0  0  0  0  0  0
  186.5150  178.6420  139.8960 N   0  0  0  0  0  0  0  0  0  0  0  0
  188.5770  177.8710  143.1830 C   0  0  0  0  0  0  0  0  0  0  0  0
  190.8220  176.9880  143.4330 C   0  0  0  0  0  3  0  0  0  0  0  0
  189.2860  176.7810  147.0970 S   0  0  0  0  0  0  0  0  0  0  0  0
  186.2930  179.1000  144.7750 C   0  0  1  0  0  3  0  0  0  0  0  0
  189.3530  177.0910  145.3390 C   0  0  0  0  0  0  0  0  0  0  0  0
  191.5340  176.2940  145.6950 N   0  0  0  0  0  2  0  0  0  0  0  0
  185.5330  178.9830  143.4560 C   0  0  2  0  0  3  0  0  0  0  0  0
  185.6720  178.3350  141.0190 C   0  0  0  0  0  0  0  0  0  0  0  0
  190.5760  176.8050  144.7910 C   0  0  0  0  0  0  0  0  0  0  0  0
  188.3170  177.6180  144.5520 C   0  0  0  0  0  0  0  0  0  0  0  0
  191.2800  177.2240  139.0680 N   0  0  0  0  0  0  0  0  0  0  0  0
  184.1680  178.4540  143.8330 C   0  0  0  0  0  2  0  0  0  0  0  0
  185.2260  179.4260  145.8120 C   0  0  0  0  0  2  0  0  0  0  0  0
  191.8750  176.9890  147.9980 C   0  0  0  0  0  1  0  0  0  0  0  0
  192.4630  177.5390  141.2220 N   0  0  0  0  0  1  0  0  0  0  0  0
  187.7140  178.1680  139.7490 C   0  0  0  0  0  0  0  0  0  0  0  0
  190.0210  177.2190  138.2970 C   0  0  0  0  0  2  0  0  0  0  0  0
  191.0220  176.1670  147.0540 C   0  0  1  0  0  3  0  0  0  0  0  0
  190.0210  177.5570  141.1100 C   0  0  1  0  0  3  0  0  0  0  0  0
  187.6170  178.4780  142.3830 O   0  0  0  0  0  0  0  0  0  0  0  0
  184.4260  178.2800  140.8450 O   0  0  0  0  0  0  0  0  0  0  0  0
  186.2440  178.1240  142.4030 C   0  0  1  0  0  3  0  0  0  0  0  0
  183.8830  179.0440  145.2010 C   0  0  0  0  0  2  0  0  0  0  0  0
  186.3190  176.7440  145.7430 C   0  0  0  0  0  1  0  0  0  0  0  0
  189.0820  178.1570  139.0380 C   0  0  2  0  0  3  0  0  0  0  0  0
  188.8620  177.2750  140.1670 C   0  0  2  0  0  3  0  0  0  0  0  0
  187.0150  177.8620  145.1140 N   0  0  0  0  0  0  0  0  0  0  0  0
  1  4  2  0  0  0  0
  1  5  1  0  0  0  0
  2 18  1  0  0  0  0
  3 11  1  0  0  0  0
  4 13  1  0  0  0  0
  5 12  2  0  0  0  0
  7 30  1  0  0  0  0
  7 16  1  1  0  0  0
  8  6  1  0  0  0  0
  9 21  1  0  0  0  0
 10 15  1  1  0  0  0
 10  7  1  0  0  0  0
 12  8  1  0  0  0  0
 12  9  1  0  0  0  0
 13 30  1  0  0  0  0
 13  8  2  0  0  0  0
 14  2  2  0  0  0  0
 15 26  1  0  0  0  0
 19  3  2  0  0  0  0
 20 14  1  0  0  0  0
 21  6  1  0  0  0  0
 21 17  1  1  0  0  0
 22  2  1  1  0  0  0
 22  1  1  0  0  0  0
 23 25  1  0  0  0  0
 23  4  1  0  0  0  0
 24 11  2  0  0  0  0
 25 11  1  6  0  0  0
 25 10  1  0  0  0  0
 26 16  1  0  0  0  0
 28 20  1  6  0  0  0
 28 19  1  0  0  0  0
 28 29  1  0  0  0  0
 29 19  1  1  0  0  0
 29 22  1  0  0  0  0
 30 27  1  0  0  0  0
M  END
>  <MODEL>
7

>  <REMARK>
 VINA RESULT:      -9.0      2.173      5.425
  Name = 
  0 active torsions:
  status: ('A' for Active; 'I' for Inactive)
                            x       y       z     vdW  Elec       q    Type
                         _______ _______ _______ _____ _____    ______ ____

>  <TORSDO>
F 0

$$$$
=
 OpenBabel11032419153D

 30 36  0  0  1  0  0  0  0  0999 V2000
  186.0320  178.2240  141.2740 C   0  0  0  0  0  0  0  0  0  0  0  0
  186.6230  178.2080  138.8130 C   0  0  0  0  0  0  0  0  0  0  0  0
  190.3500  177.5980  141.9610 N   0  0  0  0  0  0  0  0  0  0  0  0
  186.4700  178.0180  142.6070 C   0  0  0  0  0  0  0  0  0  0  0  0
  184.6950  178.6090  141.0620 C   0  0  0  0  0  3  0  0  0  0  0  0
  182.9950  178.9060  144.6460 S   0  0  0  0  0  0  0  0  0  0  0  0
  186.9460  177.0390  145.4490 C   0  0  1  0  0  3  0  0  0  0  0  0
  184.2800  178.6380  143.4340 C   0  0  0  0  0  0  0  0  0  0  0  0
  182.4800  179.1480  142.0140 N   0  0  0  0  0  2  0  0  0  0  0  0
  188.4140  177.2840  145.1080 C   0  0  2  0  0  3  0  0  0  0  0  0
  190.0520  177.9760  143.3150 C   0  0  0  0  0  0  0  0  0  0  0  0
  183.8390  178.7850  142.1450 C   0  0  0  0  0  0  0  0  0  0  0  0
  185.6060  178.2640  143.7030 C   0  0  0  0  0  0  0  0  0  0  0  0
  187.6350  178.4370  137.7980 N   0  0  0  0  0  0  0  0  0  0  0  0
  188.9910  177.9680  146.3270 C   0  0  0  0  0  2  0  0  0  0  0  0
  186.9260  176.8190  146.9560 C   0  0  0  0  0  2  0  0  0  0  0  0
  180.6260  178.3540  143.3680 C   0  0  0  0  0  1  0  0  0  0  0  0
  185.2890  177.9190  138.4050 N   0  0  0  0  0  1  0  0  0  0  0  0
  189.6090  177.9240  140.9470 C   0  0  0  0  0  0  0  0  0  0  0  0
  189.0430  178.6180  138.2030 C   0  0  0  0  0  2  0  0  0  0  0  0
  181.8060  179.3010  143.2970 C   0  0  1  0  0  3  0  0  0  0  0  0
  187.0030  178.2070  140.1250 C   0  0  1  0  0  3  0  0  0  0  0  0
  187.7630  177.5570  142.8170 O   0  0  0  0  0  0  0  0  0  0  0  0
  191.0060  178.1900  144.1090 O   0  0  0  0  0  0  0  0  0  0  0  0
  188.6270  178.0770  143.8130 C   0  0  1  0  0  3  0  0  0  0  0  0
  188.2330  177.3810  147.5030 C   0  0  0  0  0  2  0  0  0  0  0  0
  185.9700  179.3470  145.9100 C   0  0  0  0  0  1  0  0  0  0  0  0
  189.2200  177.7840  139.4610 C   0  0  2  0  0  3  0  0  0  0  0  0
  188.4430  178.6560  140.3190 C   0  0  2  0  0  3  0  0  0  0  0  0
  186.0860  178.1680  145.0560 N   0  0  0  0  0  0  0  0  0  0  0  0
  1  4  1  0  0  0  0
  3 11  1  0  0  0  0
  4 23  1  0  0  0  0
  4 13  2  0  0  0  0
  5  1  2  0  0  0  0
  5 12  1  0  0  0  0
  7 16  1  1  0  0  0
  8 13  1  0  0  0  0
  8  6  1  0  0  0  0
  9 12  1  0  0  0  0
  9 21  1  0  0  0  0
 10  7  1  0  0  0  0
 10 15  1  1  0  0  0
 11 25  1  0  0  0  0
 11 24  2  0  0  0  0
 12  8  2  0  0  0  0
 13 30  1  0  0  0  0
 14 20  1  0  0  0  0
 14  2  2  0  0  0  0
 15 26  1  0  0  0  0
 16 26  1  0  0  0  0
 18  2  1  0  0  0  0
 19  3  2  0  0  0  0
 21 17  1  6  0  0  0
 21  6  1  0  0  0  0
 22  2  1  6  0  0  0
 22 29  1  0  0  0  0
 22  1  1  0  0  0  0
 25 23  1  6  0  0  0
 25 10  1  0  0  0  0
 28 20  1  6  0  0  0
 28 29  1  0  0  0  0
 28 19  1  0  0  0  0
 29 19  1  1  0  0  0
 30  7  1  0  0  0  0
 30 27  1  0  0  0  0
M  END
>  <MODEL>
8

>  <REMARK>
 VINA RESULT:      -8.9      2.461      6.415
  Name = 
  0 active torsions:
  status: ('A' for Active; 'I' for Inactive)
                            x       y       z     vdW  Elec       q    Type
                         _______ _______ _______ _____ _____    ______ ____

>  <TORSDO>
F 0

$$$$
=
 OpenBabel11032419153D

 30 36  0  0  1  0  0  0  0  0999 V2000
  185.8510  178.1960  143.6540 C   0  0  0  0  0  0  0  0  0  0  0  0
  183.4580  178.6280  142.9530 C   0  0  0  0  0  0  0  0  0  0  0  0
  186.7540  178.2060  139.3300 N   0  0  0  0  0  0  0  0  0  0  0  0
  187.1730  177.8790  143.2500 C   0  0  0  0  0  0  0  0  0  0  0  0
  185.5980  178.3800  145.0250 C   0  0  0  0  0  3  0  0  0  0  0  0
  189.0600  177.8780  146.9180 S   0  0  0  0  0  0  0  0  0  0  0  0
  189.8880  176.5990  142.7450 C   0  0  1  0  0  3  0  0  0  0  0  0
  187.9180  178.0020  145.5510 C   0  0  0  0  0  0  0  0  0  0  0  0
  186.4530  178.4020  147.3430 N   0  0  0  0  0  2  0  0  0  0  0  0
  189.6880  177.1320  141.3280 C   0  0  2  0  0  3  0  0  0  0  0  0
  188.1220  178.3340  139.7530 C   0  0  0  0  0  0  0  0  0  0  0  0
  186.6310  178.2550  145.9490 C   0  0  0  0  0  0  0  0  0  0  0  0
  188.2280  177.8200  144.1940 C   0  0  0  0  0  0  0  0  0  0  0  0
  182.5560  179.1630  141.9490 N   0  0  0  0  0  0  0  0  0  0  0  0
  191.0230  177.7230  140.9370 C   0  0  0  0  0  2  0  0  0  0  0  0
  191.3480  176.1680  142.7970 C   0  0  0  0  0  2  0  0  0  0  0  0
  187.5560  177.1270  149.0920 C   0  0  0  0  0  1  0  0  0  0  0  0
  182.9220  178.1810  144.1950 N   0  0  0  0  0  1  0  0  0  0  0  0
  185.7420  178.5440  140.0670 C   0  0  0  0  0  0  0  0  0  0  0  0
  183.0800  179.5170  140.6160 C   0  0  0  0  0  2  0  0  0  0  0  0
  187.6940  178.2570  148.0930 C   0  0  1  0  0  3  0  0  0  0  0  0
  184.7820  178.5040  142.6420 C   0  0  1  0  0  3  0  0  0  0  0  0
  187.4120  177.6140  141.9080 O   0  0  0  0  0  0  0  0  0  0  0  0
  189.0030  178.5880  138.8900 O   0  0  0  0  0  0  0  0  0  0  0  0
  188.5270  178.1240  141.1960 C   0  0  1  0  0  3  0  0  0  0  0  0
  192.0550  176.8570  141.6360 C   0  0  0  0  0  2  0  0  0  0  0  0
  190.5790  178.6240  144.1290 C   0  0  0  0  0  1  0  0  0  0  0  0
  184.2270  178.5540  140.3560 C   0  0  2  0  0  3  0  0  0  0  0  0
  185.1350  179.1540  141.3130 C   0  0  2  0  0  3  0  0  0  0  0  0
  189.5870  177.6150  143.7700 N   0  0  0  0  0  0  0  0  0  0  0  0
  1  5  1  0  0  0  0
  2 18  1  0  0  0  0
  3 11  1  0  0  0  0
  3 19  2  0  0  0  0
  4  1  2  0  0  0  0
  4 13  1  0  0  0  0
  5 12  2  0  0  0  0
  6 21  1  0  0  0  0
  7 16  1  6  0  0  0
  7 30  1  0  0  0  0
  8 12  1  0  0  0  0
  8  6  1  0  0  0  0
  9 21  1  0  0  0  0
 10 15  1  1  0  0  0
 10  7  1  0  0  0  0
 12  9  1  0  0  0  0
 13  8  2  0  0  0  0
 14  2  2  0  0  0  0
 15 26  1  0  0  0  0
 19 28  1  0  0  0  0
 20 14  1  0  0  0  0
 21 17  1  1  0  0  0
 22  2  1  1  0  0  0
 22  1  1  0  0  0  0
 23  4  1  0  0  0  0
 24 11  2  0  0  0  0
 25 11  1  6  0  0  0
 25 10  1  0  0  0  0
 25 23  1  0  0  0  0
 26 16  1  0  0  0  0
 28 20  1  6  0  0  0
 28 29  1  0  0  0  0
 29 19  1  6  0  0  0
 29 22  1  0  0  0  0
 30 27  1  0  0  0  0
 30 13  1  0  0  0  0
M  END
>  <MODEL>
9

>  <REMARK>
 VINA RESULT:      -8.7      2.636      7.313
  Name = 
  0 active torsions:
  status: ('A' for Active; 'I' for Inactive)
                            x       y       z     vdW  Elec       q    Type
                         _______ _______ _______ _____ _____    ______ ____

>  <TORSDO>
F 0

$$$$
