=
 OpenBabel11032420213D

 32 34  0  0  1  0  0  0  0  0999 V2000
  181.2520  175.4090  138.8760 C   0  0  0  0  0  0  0  0  0  0  0  0
  182.7280  175.6010  139.0830 C   0  0  0  0  0  2  0  0  0  0  0  0
  184.4950  178.4370  143.1380 N   0  0  0  0  0  0  0  0  0  0  0  0
  180.6830  175.7650  137.7630 N   0  0  0  0  0  0  0  0  0  0  0  0
  182.9850  178.1870  137.2490 N   0  0  0  0  0  0  0  0  0  0  0  0
  183.2230  178.8520  142.5410 C   0  0  0  0  0  2  0  0  0  0  0  0
  181.5840  177.8810  136.9750 C   0  0  0  0  0  2  0  0  0  0  0  0
  183.0490  177.0260  139.3910 C   0  0  0  0  0  0  0  0  0  0  0  0
  185.5180  178.7280  139.6200 N   0  0  0  0  0  0  0  0  0  0  0  0
  181.3890  176.4070  136.6610 C   0  0  0  0  0  2  0  0  0  0  0  0
  183.0240  177.4230  140.6220 N   0  0  0  0  0  0  0  0  0  0  0  0
  183.6270  177.8780  138.3390 C   0  0  0  0  0  0  0  0  0  0  0  0
  184.8340  179.1050  140.8660 C   0  0  2  0  0  3  0  0  0  0  0  0
  185.0310  178.2860  138.4950 C   0  0  0  0  0  0  0  0  0  0  0  0
  185.5080  178.5300  142.0860 C   0  0  0  0  0  2  0  0  0  0  0  0
  183.3630  178.7790  141.0370 C   0  0  2  0  0  3  0  0  0  0  0  0
  179.5290  175.5990  140.6360 C   0  0  0  0  0  1  0  0  0  0  0  0
  180.4610  174.8400  139.8780 O   0  0  0  0  0  0  0  0  0  0  0  0
  184.8260  179.4250  144.1520 C   0  0  0  0  0  2  0  0  0  0  0  0
  186.6710  177.5510  146.5980 C   0  0  0  0  0  3  0  0  0  0  0  0
  184.6750  178.8290  145.5070 C   0  0  0  0  0  3  0  0  0  0  0  0
  185.6700  178.1910  146.0530 C   0  0  0  0  0  0  0  0  0  0  0  0
  188.1440  177.6880  144.6120 C   0  0  0  0  0  1  0  0  0  0  0  0
  187.9960  177.5890  146.0510 N   0  0  0  0  0  0  0  0  0  0  0  0
  188.8540  178.1730  148.2620 C   0  0  0  0  0  1  0  0  0  0  0  0
  189.1940  177.6440  146.8800 C   0  0  0  0  0  2  0  0  0  0  0  0
  185.9600  178.1330  137.3330 C   0  0  0  0  0  2  0  0  0  0  0  0
  187.2300  177.3920  137.7320 C   0  0  0  0  0  2  0  0  0  0  0  0
  189.0090  178.5610  136.6700 O   0  0  0  0  0  0  0  0  0  0  0  0
  188.4100  178.3130  137.7480 C   0  0  0  0  0  0  0  0  0  0  0  0
  188.8480  178.9220  138.9270 O   0  0  0  0  0  0  0  0  0  0  0  0
  188.9820  178.2100  140.1470 C   0  0  0  0  0  1  0  0  0  0  0  0
  1  2  1  0  0  0  0
  1 18  1  0  0  0  0
  2  8  1  0  0  0  0
  3 19  1  0  0  0  0
  4  1  2  0  0  0  0
  5 12  2  0  0  0  0
  6  3  1  0  0  0  0
  7  5  1  0  0  0  0
  8 11  2  0  0  0  0
  9 13  1  0  0  0  0
 10  7  1  0  0  0  0
 10  4  1  0  0  0  0
 11 16  1  0  0  0  0
 12 14  1  0  0  0  0
 12  8  1  0  0  0  0
 13 16  1  0  0  0  0
 13 15  1  1  0  0  0
 14  9  2  0  0  0  0
 15  3  1  0  0  0  0
 16  6  1  1  0  0  0
 18 17  1  0  0  0  0
 19 21  1  0  0  0  0
 21 22  2  0  0  0  0
 22 20  2  0  0  0  0
 23 24  1  0  0  0  0
 24 20  1  0  0  0  0
 24 26  1  0  0  0  0
 26 25  1  0  0  0  0
 27 28  1  0  0  0  0
 27 14  1  0  0  0  0
 28 30  1  0  0  0  0
 29 30  2  0  0  0  0
 30 31  1  0  0  0  0
 31 32  1  0  0  0  0
M  END
>  <MODEL>
1

>  <REMARK>
 VINA RESULT:      -7.1      0.000      0.000
  Name = 
  9 active torsions:
  status: ('A' for Active; 'I' for Inactive)
    1  A    between atoms: C_3  and  O_15
    2  A    between atoms: C_5  and  N_28
    3  A    between atoms: N_6  and  C_13
    4  A    between atoms: C_9  and  N_28
    5  A    between atoms: C_13  and  C_17
    6  A    between atoms: C_14  and  C_25
    7  A    between atoms: C_14  and  C_31
    8  A    between atoms: O_18  and  C_31
    9  A    between atoms: C_25  and  C_29
                            x       y       z     vdW  Elec       q    Type
                         _______ _______ _______ _____ _____    ______ ____

>  <TORSDO>
F 9

$$$$
=
 OpenBabel11032420213D

 32 34  0  0  1  0  0  0  0  0999 V2000
  190.4970  177.4310  145.3930 C   0  0  0  0  0  0  0  0  0  0  0  0
  190.1090  178.3500  144.2680 C   0  0  0  0  0  2  0  0  0  0  0  0
  185.0470  179.3650  143.2910 N   0  0  0  0  0  0  0  0  0  0  0  0
  191.2180  176.3740  145.1710 N   0  0  0  0  0  0  0  0  0  0  0  0
  190.0230  176.1010  142.0210 N   0  0  0  0  0  0  0  0  0  0  0  0
  185.3710  178.0290  143.7960 C   0  0  0  0  0  2  0  0  0  0  0  0
  190.5260  175.2760  143.1140 C   0  0  0  0  0  2  0  0  0  0  0  0
  188.9930  177.7750  143.4610 C   0  0  0  0  0  0  0  0  0  0  0  0
  187.6180  178.3790  140.8560 N   0  0  0  0  0  0  0  0  0  0  0  0
  191.6680  175.9620  143.8470 C   0  0  0  0  0  2  0  0  0  0  0  0
  187.7720  178.0160  143.8180 N   0  0  0  0  0  0  0  0  0  0  0  0
  189.2860  177.1670  142.1540 C   0  0  0  0  0  0  0  0  0  0  0  0
  186.4460  178.2140  141.7280 C   0  0  2  0  0  3  0  0  0  0  0  0
  188.8170  177.8800  140.9560 C   0  0  0  0  0  0  0  0  0  0  0  0
  185.7610  179.5240  142.0230 C   0  0  0  0  0  2  0  0  0  0  0  0
  186.6090  177.5410  143.0770 C   0  0  2  0  0  3  0  0  0  0  0  0
  188.8890  177.1730  147.2500 C   0  0  0  0  0  1  0  0  0  0  0  0
  190.0900  177.6990  146.7020 O   0  0  0  0  0  0  0  0  0  0  0  0
  183.6240  179.3680  142.9940 C   0  0  0  0  0  2  0  0  0  0  0  0
  180.2730  178.5420  143.9930 C   0  0  0  0  0  3  0  0  0  0  0  0
  182.8670  178.7960  144.1400 C   0  0  0  0  0  3  0  0  0  0  0  0
  181.5730  178.6690  144.0670 C   0  0  0  0  0  0  0  0  0  0  0  0
  178.9320  179.9990  142.5050 C   0  0  0  0  0  1  0  0  0  0  0  0
  179.5560  178.7160  142.7640 N   0  0  0  0  0  0  0  0  0  0  0  0
  180.5720  177.9940  140.6630 C   0  0  0  0  0  1  0  0  0  0  0  0
  179.5200  177.7010  141.7180 C   0  0  0  0  0  2  0  0  0  0  0  0
  189.7720  178.0950  139.8250 C   0  0  0  0  0  2  0  0  0  0  0  0
  189.2800  177.4220  138.5490 C   0  0  0  0  0  2  0  0  0  0  0  0
  189.0180  179.5960  137.6180 O   0  0  0  0  0  0  0  0  0  0  0  0
  188.6060  178.4070  137.6450 C   0  0  0  0  0  0  0  0  0  0  0  0
  187.5470  178.0340  136.8130 O   0  0  0  0  0  0  0  0  0  0  0  0
  186.2870  177.6260  137.3220 C   0  0  0  0  0  1  0  0  0  0  0  0
  1 18  1  0  0  0  0
  2  1  1  0  0  0  0
  3  6  1  0  0  0  0
  4  1  2  0  0  0  0
  5 12  2  0  0  0  0
  5  7  1  0  0  0  0
  7 10  1  0  0  0  0
  8 11  2  0  0  0  0
  8  2  1  0  0  0  0
  9 14  2  0  0  0  0
  9 13  1  0  0  0  0
 10  4  1  0  0  0  0
 12  8  1  0  0  0  0
 13 15  1  1  0  0  0
 13 16  1  0  0  0  0
 14 12  1  0  0  0  0
 15  3  1  0  0  0  0
 16  6  1  1  0  0  0
 16 11  1  0  0  0  0
 18 17  1  0  0  0  0
 19  3  1  0  0  0  0
 19 21  1  0  0  0  0
 20 22  2  0  0  0  0
 22 21  2  0  0  0  0
 23 24  1  0  0  0  0
 24 20  1  0  0  0  0
 25 26  1  0  0  0  0
 26 24  1  0  0  0  0
 27 14  1  0  0  0  0
 28 27  1  0  0  0  0
 29 30  2  0  0  0  0
 30 28  1  0  0  0  0
 31 32  1  0  0  0  0
 31 30  1  0  0  0  0
M  END
>  <MODEL>
2

>  <REMARK>
 VINA RESULT:      -7.0      2.990      7.433
  Name = 
  9 active torsions:
  status: ('A' for Active; 'I' for Inactive)
    1  A    between atoms: C_3  and  O_15
    2  A    between atoms: C_5  and  N_28
    3  A    between atoms: N_6  and  C_13
    4  A    between atoms: C_9  and  N_28
    5  A    between atoms: C_13  and  C_17
    6  A    between atoms: C_14  and  C_25
    7  A    between atoms: C_14  and  C_31
    8  A    between atoms: O_18  and  C_31
    9  A    between atoms: C_25  and  C_29
                            x       y       z     vdW  Elec       q    Type
                         _______ _______ _______ _____ _____    ______ ____

>  <TORSDO>
F 9

$$$$
=
 OpenBabel11032420213D

 32 34  0  0  1  0  0  0  0  0999 V2000
  190.5530  177.4360  145.5660 C   0  0  0  0  0  0  0  0  0  0  0  0
  190.1950  178.3220  144.4050 C   0  0  0  0  0  2  0  0  0  0  0  0
  185.1610  179.3260  143.2820 N   0  0  0  0  0  0  0  0  0  0  0  0
  191.2740  176.3700  145.3920 N   0  0  0  0  0  0  0  0  0  0  0  0
  190.1500  176.0080  142.2240 N   0  0  0  0  0  0  0  0  0  0  0  0
  185.4680  178.0050  143.8340 C   0  0  0  0  0  2  0  0  0  0  0  0
  190.6250  175.2140  143.3530 C   0  0  0  0  0  2  0  0  0  0  0  0
  189.0950  177.7270  143.5900 C   0  0  0  0  0  0  0  0  0  0  0  0
  187.7830  178.2590  140.9370 N   0  0  0  0  0  0  0  0  0  0  0  0
  191.7520  175.9170  144.0910 C   0  0  0  0  0  2  0  0  0  0  0  0
  187.8680  177.9840  143.9110 N   0  0  0  0  0  0  0  0  0  0  0  0
  189.4150  177.0800  142.3090 C   0  0  0  0  0  0  0  0  0  0  0  0
  186.5900  178.1240  141.7870 C   0  0  2  0  0  3  0  0  0  0  0  0
  188.9770  177.7580  141.0800 C   0  0  0  0  0  0  0  0  0  0  0  0
  185.9040  179.4450  142.0270 C   0  0  0  0  0  2  0  0  0  0  0  0
  186.7190  177.4910  143.1590 C   0  0  2  0  0  3  0  0  0  0  0  0
  188.8660  177.3040  147.3650 C   0  0  0  0  0  1  0  0  0  0  0  0
  190.1170  177.7450  146.8560 O   0  0  0  0  0  0  0  0  0  0  0  0
  183.7450  179.3270  142.9530 C   0  0  0  0  0  2  0  0  0  0  0  0
  180.3590  178.6340  143.9350 C   0  0  0  0  0  3  0  0  0  0  0  0
  182.9590  178.8010  144.1020 C   0  0  0  0  0  3  0  0  0  0  0  0
  181.6620  178.7170  144.0200 C   0  0  0  0  0  0  0  0  0  0  0  0
  179.5800  177.6860  141.7840 C   0  0  0  0  0  1  0  0  0  0  0  0
  179.6590  178.8100  142.6970 N   0  0  0  0  0  0  0  0  0  0  0  0
  179.6280  180.7680  141.2370 C   0  0  0  0  0  1  0  0  0  0  0  0
  178.9310  180.0290  142.3650 C   0  0  0  0  0  2  0  0  0  0  0  0
  189.9580  177.9360  139.9650 C   0  0  0  0  0  2  0  0  0  0  0  0
  189.6740  176.9730  138.8190 C   0  0  0  0  0  2  0  0  0  0  0  0
  190.7450  174.9070  138.3220 O   0  0  0  0  0  0  0  0  0  0  0  0
  190.8800  176.1460  138.4970 C   0  0  0  0  0  0  0  0  0  0  0  0
  192.1470  176.7190  138.3650 O   0  0  0  0  0  0  0  0  0  0  0  0
  193.1420  176.1760  137.5100 C   0  0  0  0  0  1  0  0  0  0  0  0
  1 18  1  0  0  0  0
  2  1  1  0  0  0  0
  3  6  1  0  0  0  0
  4  1  2  0  0  0  0
  5 12  2  0  0  0  0
  5  7  1  0  0  0  0
  7 10  1  0  0  0  0
  8 11  2  0  0  0  0
  8  2  1  0  0  0  0
  9 14  2  0  0  0  0
  9 13  1  0  0  0  0
 10  4  1  0  0  0  0
 12  8  1  0  0  0  0
 13 15  1  1  0  0  0
 13 16  1  0  0  0  0
 14 12  1  0  0  0  0
 15  3  1  0  0  0  0
 16  6  1  1  0  0  0
 16 11  1  0  0  0  0
 18 17  1  0  0  0  0
 19  3  1  0  0  0  0
 19 21  1  0  0  0  0
 20 22  2  0  0  0  0
 22 21  2  0  0  0  0
 23 24  1  0  0  0  0
 24 20  1  0  0  0  0
 25 26  1  0  0  0  0
 26 24  1  0  0  0  0
 27 14  1  0  0  0  0
 28 27  1  0  0  0  0
 29 30  2  0  0  0  0
 30 28  1  0  0  0  0
 31 30  1  0  0  0  0
 32 31  1  0  0  0  0
M  END
>  <MODEL>
3

>  <REMARK>
 VINA RESULT:      -6.9      3.766      7.654
  Name = 
  9 active torsions:
  status: ('A' for Active; 'I' for Inactive)
    1  A    between atoms: C_3  and  O_15
    2  A    between atoms: C_5  and  N_28
    3  A    between atoms: N_6  and  C_13
    4  A    between atoms: C_9  and  N_28
    5  A    between atoms: C_13  and  C_17
    6  A    between atoms: C_14  and  C_25
    7  A    between atoms: C_14  and  C_31
    8  A    between atoms: O_18  and  C_31
    9  A    between atoms: C_25  and  C_29
                            x       y       z     vdW  Elec       q    Type
                         _______ _______ _______ _____ _____    ______ ____

>  <TORSDO>
F 9

$$$$
=
 OpenBabel11032420213D

 32 34  0  0  1  0  0  0  0  0999 V2000
  190.5360  176.6090  141.7840 C   0  0  0  0  0  0  0  0  0  0  0  0
  189.3460  176.2660  142.6360 C   0  0  0  0  0  2  0  0  0  0  0  0
  184.5890  178.1480  141.4380 N   0  0  0  0  0  0  0  0  0  0  0  0
  191.5810  177.1840  142.3000 N   0  0  0  0  0  0  0  0  0  0  0  0
  189.7060  178.6680  144.6890 N   0  0  0  0  0  0  0  0  0  0  0  0
  185.7380  179.0030  141.1320 C   0  0  0  0  0  2  0  0  0  0  0  0
  190.9230  178.8820  143.9110 C   0  0  0  0  0  2  0  0  0  0  0  0
  188.5220  177.4760  142.9250 C   0  0  0  0  0  0  0  0  0  0  0  0
  186.2270  178.2000  144.7280 N   0  0  0  0  0  0  0  0  0  0  0  0
  191.6810  177.5810  143.6990 C   0  0  0  0  0  2  0  0  0  0  0  0
  187.5850  177.8090  142.0960 N   0  0  0  0  0  0  0  0  0  0  0  0
  188.6140  178.1130  144.2480 C   0  0  0  0  0  0  0  0  0  0  0  0
  185.7290  178.7430  143.4550 C   0  0  2  0  0  3  0  0  0  0  0  0
  187.4470  177.9990  145.1360 C   0  0  0  0  0  0  0  0  0  0  0  0
  184.6010  177.9230  142.8830 C   0  0  0  0  0  2  0  0  0  0  0  0
  186.6940  178.9440  142.3030 C   0  0  2  0  0  3  0  0  0  0  0  0
  190.0690  177.2270  139.4390 C   0  0  0  0  0  1  0  0  0  0  0  0
  190.5420  176.3140  140.4190 O   0  0  0  0  0  0  0  0  0  0  0  0
  183.3970  178.9190  141.1250 C   0  0  0  0  0  2  0  0  0  0  0  0
  179.8620  178.3130  141.3320 C   0  0  0  0  0  3  0  0  0  0  0  0
  182.3440  178.0200  140.5790 C   0  0  0  0  0  3  0  0  0  0  0  0
  181.1050  178.1660  140.9540 C   0  0  0  0  0  0  0  0  0  0  0  0
  179.3460  180.7340  141.4040 C   0  0  0  0  0  1  0  0  0  0  0  0
  179.4180  179.4530  142.0790 N   0  0  0  0  0  0  0  0  0  0  0  0
  179.8720  178.5140  144.2880 C   0  0  0  0  0  1  0  0  0  0  0  0
  178.9310  179.3610  143.4500 C   0  0  0  0  0  2  0  0  0  0  0  0
  187.6600  177.5770  146.5550 C   0  0  0  0  0  2  0  0  0  0  0  0
  188.9480  176.7760  146.7080 C   0  0  0  0  0  2  0  0  0  0  0  0
  189.3700  178.0930  148.6440 O   0  0  0  0  0  0  0  0  0  0  0  0
  189.8630  177.4100  147.7080 C   0  0  0  0  0  0  0  0  0  0  0  0
  191.2490  177.2450  147.6420 O   0  0  0  0  0  0  0  0  0  0  0  0
  191.8510  176.0220  147.2470 C   0  0  0  0  0  1  0  0  0  0  0  0
  1  4  2  0  0  0  0
  1  2  1  0  0  0  0
  2  8  1  0  0  0  0
  3 15  1  0  0  0  0
  4 10  1  0  0  0  0
  6  3  1  0  0  0  0
  7  5  1  0  0  0  0
  8 12  1  0  0  0  0
  9 14  2  0  0  0  0
 10  7  1  0  0  0  0
 11 16  1  0  0  0  0
 11  8  2  0  0  0  0
 12  5  2  0  0  0  0
 12 14  1  0  0  0  0
 13 15  1  6  0  0  0
 13  9  1  0  0  0  0
 14 27  1  0  0  0  0
 16  6  1  6  0  0  0
 16 13  1  0  0  0  0
 17 18  1  0  0  0  0
 18  1  1  0  0  0  0
 19  3  1  0  0  0  0
 20 24  1  0  0  0  0
 21 22  2  0  0  0  0
 21 19  1  0  0  0  0
 22 20  2  0  0  0  0
 23 24  1  0  0  0  0
 24 26  1  0  0  0  0
 26 25  1  0  0  0  0
 27 28  1  0  0  0  0
 28 30  1  0  0  0  0
 30 29  2  0  0  0  0
 31 30  1  0  0  0  0
 32 31  1  0  0  0  0
M  END
>  <MODEL>
4

>  <REMARK>
 VINA RESULT:      -6.8      3.520      8.439
  Name = 
  9 active torsions:
  status: ('A' for Active; 'I' for Inactive)
    1  A    between atoms: C_3  and  O_15
    2  A    between atoms: C_5  and  N_28
    3  A    between atoms: N_6  and  C_13
    4  A    between atoms: C_9  and  N_28
    5  A    between atoms: C_13  and  C_17
    6  A    between atoms: C_14  and  C_25
    7  A    between atoms: C_14  and  C_31
    8  A    between atoms: O_18  and  C_31
    9  A    between atoms: C_25  and  C_29
                            x       y       z     vdW  Elec       q    Type
                         _______ _______ _______ _____ _____    ______ ____

>  <TORSDO>
F 9

$$$$
=
 OpenBabel11032420213D

 32 34  0  0  1  0  0  0  0  0999 V2000
  190.3880  176.5160  141.6630 C   0  0  0  0  0  0  0  0  0  0  0  0
  189.1390  176.1270  142.4040 C   0  0  0  0  0  2  0  0  0  0  0  0
  184.5040  178.2220  141.0850 N   0  0  0  0  0  0  0  0  0  0  0  0
  191.4070  177.0170  142.2940 N   0  0  0  0  0  0  0  0  0  0  0  0
  189.4080  178.3250  144.6860 N   0  0  0  0  0  0  0  0  0  0  0  0
  185.6860  179.0730  140.9320 C   0  0  0  0  0  2  0  0  0  0  0  0
  190.6760  178.5780  144.0090 C   0  0  0  0  0  2  0  0  0  0  0  0
  188.3190  177.3250  142.7490 C   0  0  0  0  0  0  0  0  0  0  0  0
  185.9250  177.9380  144.4630 N   0  0  0  0  0  0  0  0  0  0  0  0
  191.4230  177.2840  143.7270 C   0  0  0  0  0  2  0  0  0  0  0  0
  187.4440  177.7530  141.8970 N   0  0  0  0  0  0  0  0  0  0  0  0
  188.3370  177.8380  144.1280 C   0  0  0  0  0  0  0  0  0  0  0  0
  185.5210  178.6050  143.2170 C   0  0  2  0  0  3  0  0  0  0  0  0
  187.1130  177.6720  144.9270 C   0  0  0  0  0  0  0  0  0  0  0  0
  184.4180  177.8670  142.5020 C   0  0  0  0  0  2  0  0  0  0  0  0
  186.5620  178.8870  142.1500 C   0  0  2  0  0  3  0  0  0  0  0  0
  190.4310  177.4370  139.3720 C   0  0  0  0  0  1  0  0  0  0  0  0
  190.4770  176.3450  140.2800 O   0  0  0  0  0  0  0  0  0  0  0  0
  183.3490  179.0460  140.7700 C   0  0  0  0  0  2  0  0  0  0  0  0
  182.0610  176.4530  138.6420 C   0  0  0  0  0  3  0  0  0  0  0  0
  182.1480  178.1850  140.5940 C   0  0  0  0  0  3  0  0  0  0  0  0
  182.1030  177.3200  139.6200 C   0  0  0  0  0  0  0  0  0  0  0  0
  183.6620  174.7450  137.8370 C   0  0  0  0  0  1  0  0  0  0  0  0
  183.2150  176.1240  137.8590 N   0  0  0  0  0  0  0  0  0  0  0  0
  185.2650  177.4180  137.5560 C   0  0  0  0  0  1  0  0  0  0  0  0
  183.8910  177.0880  137.0000 C   0  0  0  0  0  2  0  0  0  0  0  0
  187.2260  177.1190  146.3120 C   0  0  0  0  0  2  0  0  0  0  0  0
  187.6520  178.1940  147.3050 C   0  0  0  0  0  2  0  0  0  0  0  0
  189.3550  178.5400  148.9300 O   0  0  0  0  0  0  0  0  0  0  0  0
  188.9350  177.8260  147.9820 C   0  0  0  0  0  0  0  0  0  0  0  0
  189.6650  176.6960  147.6040 O   0  0  0  0  0  0  0  0  0  0  0  0
  191.0740  176.7240  147.4310 C   0  0  0  0  0  1  0  0  0  0  0  0
  1  4  2  0  0  0  0
  1  2  1  0  0  0  0
  2  8  1  0  0  0  0
  3 15  1  0  0  0  0
  4 10  1  0  0  0  0
  6  3  1  0  0  0  0
  7  5  1  0  0  0  0
  8 12  1  0  0  0  0
  9 14  2  0  0  0  0
 10  7  1  0  0  0  0
 11 16  1  0  0  0  0
 11  8  2  0  0  0  0
 12  5  2  0  0  0  0
 12 14  1  0  0  0  0
 13 15  1  6  0  0  0
 13  9  1  0  0  0  0
 14 27  1  0  0  0  0
 16  6  1  6  0  0  0
 16 13  1  0  0  0  0
 17 18  1  0  0  0  0
 18  1  1  0  0  0  0
 19  3  1  0  0  0  0
 20 22  2  0  0  0  0
 21 19  1  0  0  0  0
 22 21  2  0  0  0  0
 23 24  1  0  0  0  0
 24 20  1  0  0  0  0
 26 25  1  0  0  0  0
 26 24  1  0  0  0  0
 27 28  1  0  0  0  0
 28 30  1  0  0  0  0
 30 29  2  0  0  0  0
 31 30  1  0  0  0  0
 32 31  1  0  0  0  0
M  END
>  <MODEL>
5

>  <REMARK>
 VINA RESULT:      -6.8      3.119      8.452
  Name = 
  9 active torsions:
  status: ('A' for Active; 'I' for Inactive)
    1  A    between atoms: C_3  and  O_15
    2  A    between atoms: C_5  and  N_28
    3  A    between atoms: N_6  and  C_13
    4  A    between atoms: C_9  and  N_28
    5  A    between atoms: C_13  and  C_17
    6  A    between atoms: C_14  and  C_25
    7  A    between atoms: C_14  and  C_31
    8  A    between atoms: O_18  and  C_31
    9  A    between atoms: C_25  and  C_29
                            x       y       z     vdW  Elec       q    Type
                         _______ _______ _______ _____ _____    ______ ____

>  <TORSDO>
F 9

$$$$
=
 OpenBabel11032420213D

 32 34  0  0  1  0  0  0  0  0999 V2000
  186.4970  176.2340  136.3630 C   0  0  0  0  0  0  0  0  0  0  0  0
  187.4870  175.5420  137.2570 C   0  0  0  0  0  2  0  0  0  0  0  0
  188.6060  177.5000  142.0020 N   0  0  0  0  0  0  0  0  0  0  0  0
  186.8350  176.6270  135.1720 N   0  0  0  0  0  0  0  0  0  0  0  0
  190.0580  177.0240  136.1120 N   0  0  0  0  0  0  0  0  0  0  0  0
  188.2960  178.4620  140.9430 C   0  0  0  0  0  2  0  0  0  0  0  0
  189.0760  177.5710  135.1800 C   0  0  0  0  0  2  0  0  0  0  0  0
  188.4410  176.5160  137.8630 C   0  0  0  0  0  0  0  0  0  0  0  0
  191.0010  176.4050  139.4370 N   0  0  0  0  0  0  0  0  0  0  0  0
  188.1770  176.4810  134.6200 C   0  0  0  0  0  2  0  0  0  0  0  0
  188.1280  177.0870  138.9820 N   0  0  0  0  0  0  0  0  0  0  0  0
  189.8060  176.6200  137.3250 C   0  0  0  0  0  0  0  0  0  0  0  0
  190.2390  177.3570  140.2600 C   0  0  2  0  0  3  0  0  0  0  0  0
  190.9050  176.1270  138.1690 C   0  0  0  0  0  0  0  0  0  0  0  0
  189.7870  176.7540  141.5650 C   0  0  0  0  0  2  0  0  0  0  0  0
  189.0030  178.0190  139.6820 C   0  0  2  0  0  3  0  0  0  0  0  0
  184.1690  175.4840  136.7060 C   0  0  0  0  0  1  0  0  0  0  0  0
  185.1900  176.4680  136.7960 O   0  0  0  0  0  0  0  0  0  0  0  0
  188.9860  178.2710  143.1740 C   0  0  0  0  0  2  0  0  0  0  0  0
  189.3100  177.1490  146.5710 C   0  0  0  0  0  3  0  0  0  0  0  0
  189.8820  177.4620  144.0440 C   0  0  0  0  0  3  0  0  0  0  0  0
  189.5980  177.3050  145.3050 C   0  0  0  0  0  0  0  0  0  0  0  0
  188.0110  178.0690  148.4680 C   0  0  0  0  0  1  0  0  0  0  0  0
  188.0430  177.5300  147.1220 N   0  0  0  0  0  0  0  0  0  0  0  0
  185.9820  178.7480  146.6370 C   0  0  0  0  0  1  0  0  0  0  0  0
  186.8050  177.5040  146.3530 C   0  0  0  0  0  2  0  0  0  0  0  0
  191.9280  175.2190  137.5630 C   0  0  0  0  0  2  0  0  0  0  0  0
  193.2070  175.9750  137.2220 C   0  0  0  0  0  2  0  0  0  0  0  0
  194.5090  174.1790  136.3620 O   0  0  0  0  0  0  0  0  0  0  0  0
  194.3950  175.0650  137.2490 C   0  0  0  0  0  0  0  0  0  0  0  0
  195.3920  175.1900  138.2200 O   0  0  0  0  0  0  0  0  0  0  0  0
  195.7410  174.1260  139.0930 C   0  0  0  0  0  1  0  0  0  0  0  0
  1 18  1  0  0  0  0
  1  2  1  0  0  0  0
  2  8  1  0  0  0  0
  3 19  1  0  0  0  0
  4  1  2  0  0  0  0
  5 12  2  0  0  0  0
  6  3  1  0  0  0  0
  7  5  1  0  0  0  0
  8 11  2  0  0  0  0
  9 13  1  0  0  0  0
 10  4  1  0  0  0  0
 10  7  1  0  0  0  0
 11 16  1  0  0  0  0
 12  8  1  0  0  0  0
 12 14  1  0  0  0  0
 13 15  1  1  0  0  0
 14  9  2  0  0  0  0
 15  3  1  0  0  0  0
 16 13  1  0  0  0  0
 16  6  1  1  0  0  0
 17 18  1  0  0  0  0
 19 21  1  0  0  0  0
 20 24  1  0  0  0  0
 21 22  2  0  0  0  0
 22 20  2  0  0  0  0
 24 23  1  0  0  0  0
 26 25  1  0  0  0  0
 26 24  1  0  0  0  0
 27 14  1  0  0  0  0
 28 30  1  0  0  0  0
 28 27  1  0  0  0  0
 29 30  2  0  0  0  0
 30 31  1  0  0  0  0
 31 32  1  0  0  0  0
M  END
>  <MODEL>
6

>  <REMARK>
 VINA RESULT:      -6.6      3.860      5.752
  Name = 
  9 active torsions:
  status: ('A' for Active; 'I' for Inactive)
    1  A    between atoms: C_3  and  O_15
    2  A    between atoms: C_5  and  N_28
    3  A    between atoms: N_6  and  C_13
    4  A    between atoms: C_9  and  N_28
    5  A    between atoms: C_13  and  C_17
    6  A    between atoms: C_14  and  C_25
    7  A    between atoms: C_14  and  C_31
    8  A    between atoms: O_18  and  C_31
    9  A    between atoms: C_25  and  C_29
                            x       y       z     vdW  Elec       q    Type
                         _______ _______ _______ _____ _____    ______ ____

>  <TORSDO>
F 9

$$$$
=
 OpenBabel11032420213D

 32 34  0  0  1  0  0  0  0  0999 V2000
  186.2470  178.9540  141.7010 C   0  0  0  0  0  0  0  0  0  0  0  0
  187.6850  179.2880  141.9820 C   0  0  0  0  0  2  0  0  0  0  0  0
  191.5150  177.2700  139.0040 N   0  0  0  0  0  0  0  0  0  0  0  0
  185.4980  178.4150  142.6150 N   0  0  0  0  0  0  0  0  0  0  0  0
  188.1680  176.9430  144.0750 N   0  0  0  0  0  0  0  0  0  0  0  0
  190.3320  176.4350  139.2210 C   0  0  0  0  0  2  0  0  0  0  0  0
  186.7370  176.7400  143.8690 C   0  0  0  0  0  2  0  0  0  0  0  0
  188.5420  178.0670  141.9460 C   0  0  0  0  0  0  0  0  0  0  0  0
  191.3650  177.3320  142.6760 N   0  0  0  0  0  0  0  0  0  0  0  0
  185.9740  178.0520  143.9450 C   0  0  0  0  0  2  0  0  0  0  0  0
  189.0540  177.6940  140.8170 N   0  0  0  0  0  0  0  0  0  0  0  0
  188.9910  177.4630  143.2100 C   0  0  0  0  0  0  0  0  0  0  0  0
  191.2930  176.7490  141.3290 C   0  0  2  0  0  3  0  0  0  0  0  0
  190.4200  177.5710  143.5410 C   0  0  0  0  0  0  0  0  0  0  0  0
  192.0980  177.5290  140.3210 C   0  0  0  0  0  2  0  0  0  0  0  0
  189.9390  176.5430  140.6770 C   0  0  2  0  0  3  0  0  0  0  0  0
  184.3210  178.9640  140.1560 C   0  0  0  0  0  1  0  0  0  0  0  0
  185.6880  179.2170  140.4490 O   0  0  0  0  0  0  0  0  0  0  0  0
  192.4670  176.4660  138.2560 C   0  0  0  0  0  2  0  0  0  0  0  0
  193.2220  173.3360  136.6610 C   0  0  0  0  0  3  0  0  0  0  0  0
  191.8000  175.2380  137.7450 C   0  0  0  0  0  3  0  0  0  0  0  0
  192.5080  174.2880  137.2040 C   0  0  0  0  0  0  0  0  0  0  0  0
  195.3640  172.2680  136.0260 C   0  0  0  0  0  1  0  0  0  0  0  0
  194.6530  173.3110  136.7390 N   0  0  0  0  0  0  0  0  0  0  0  0
  195.7350  173.9390  138.8370 C   0  0  0  0  0  1  0  0  0  0  0  0
  195.4270  174.3500  137.4080 C   0  0  0  0  0  2  0  0  0  0  0  0
  190.8110  178.0300  144.9090 C   0  0  0  0  0  2  0  0  0  0  0  0
  191.5940  176.9540  145.6530 C   0  0  0  0  0  2  0  0  0  0  0  0
  191.9550  176.8950  148.0030 O   0  0  0  0  0  0  0  0  0  0  0  0
  191.1190  176.8200  147.0660 C   0  0  0  0  0  0  0  0  0  0  0  0
  189.7670  176.6370  147.3710 O   0  0  0  0  0  0  0  0  0  0  0  0
  188.9750  177.6580  147.9570 C   0  0  0  0  0  1  0  0  0  0  0  0
  1  2  1  0  0  0  0
  1  4  2  0  0  0  0
  3  6  1  0  0  0  0
  3 15  1  0  0  0  0
  4 10  1  0  0  0  0
  7 10  1  0  0  0  0
  7  5  1  0  0  0  0
  8  2  1  0  0  0  0
  8 12  1  0  0  0  0
  9 14  2  0  0  0  0
 11  8  2  0  0  0  0
 12 14  1  0  0  0  0
 12  5  2  0  0  0  0
 13 15  1  6  0  0  0
 13  9  1  0  0  0  0
 14 27  1  0  0  0  0
 16  6  1  6  0  0  0
 16 11  1  0  0  0  0
 16 13  1  0  0  0  0
 17 18  1  0  0  0  0
 18  1  1  0  0  0  0
 19  3  1  0  0  0  0
 20 24  1  0  0  0  0
 20 22  2  0  0  0  0
 21 19  1  0  0  0  0
 22 21  2  0  0  0  0
 23 24  1  0  0  0  0
 24 26  1  0  0  0  0
 26 25  1  0  0  0  0
 27 28  1  0  0  0  0
 28 30  1  0  0  0  0
 30 31  1  0  0  0  0
 30 29  2  0  0  0  0
 31 32  1  0  0  0  0
M  END
>  <MODEL>
7

>  <REMARK>
 VINA RESULT:      -6.5      5.008      9.052
  Name = 
  9 active torsions:
  status: ('A' for Active; 'I' for Inactive)
    1  A    between atoms: C_3  and  O_15
    2  A    between atoms: C_5  and  N_28
    3  A    between atoms: N_6  and  C_13
    4  A    between atoms: C_9  and  N_28
    5  A    between atoms: C_13  and  C_17
    6  A    between atoms: C_14  and  C_25
    7  A    between atoms: C_14  and  C_31
    8  A    between atoms: O_18  and  C_31
    9  A    between atoms: C_25  and  C_29
                            x       y       z     vdW  Elec       q    Type
                         _______ _______ _______ _____ _____    ______ ____

>  <TORSDO>
F 9

$$$$
=
 OpenBabel11032420213D

 32 34  0  0  1  0  0  0  0  0999 V2000
  186.3220  176.8840  136.4590 C   0  0  0  0  0  0  0  0  0  0  0  0
  187.1840  175.9660  137.2790 C   0  0  0  0  0  2  0  0  0  0  0  0
  188.7900  177.4010  142.0720 N   0  0  0  0  0  0  0  0  0  0  0  0
  186.6970  177.2710  135.2780 N   0  0  0  0  0  0  0  0  0  0  0  0
  189.9600  176.9920  136.1140 N   0  0  0  0  0  0  0  0  0  0  0  0
  188.6420  178.4630  141.0750 C   0  0  0  0  0  2  0  0  0  0  0  0
  189.0770  177.7680  135.2490 C   0  0  0  0  0  2  0  0  0  0  0  0
  188.3250  176.7040  137.8980 C   0  0  0  0  0  0  0  0  0  0  0  0
  190.8580  176.0160  139.3660 N   0  0  0  0  0  0  0  0  0  0  0  0
  187.9690  176.9030  134.6690 C   0  0  0  0  0  2  0  0  0  0  0  0
  188.1580  177.2590  139.0550 N   0  0  0  0  0  0  0  0  0  0  0  0
  189.6690  176.5750  137.3130 C   0  0  0  0  0  0  0  0  0  0  0  0
  190.3170  177.0480  140.2630 C   0  0  2  0  0  3  0  0  0  0  0  0
  190.6750  175.8340  138.0890 C   0  0  0  0  0  0  0  0  0  0  0  0
  189.7930  176.4690  141.5530 C   0  0  0  0  0  2  0  0  0  0  0  0
  189.2160  177.9660  139.7670 C   0  0  2  0  0  3  0  0  0  0  0  0
  184.1670  176.4770  137.5950 C   0  0  0  0  0  1  0  0  0  0  0  0
  185.0970  177.3380  136.9540 O   0  0  0  0  0  0  0  0  0  0  0  0
  189.3440  178.0180  143.2660 C   0  0  0  0  0  2  0  0  0  0  0  0
  186.2240  177.8730  145.0400 C   0  0  0  0  0  3  0  0  0  0  0  0
  188.7310  177.4120  144.4780 C   0  0  0  0  0  3  0  0  0  0  0  0
  187.4800  177.6410  144.7600 C   0  0  0  0  0  0  0  0  0  0  0  0
  185.3780  178.0790  142.7220 C   0  0  0  0  0  1  0  0  0  0  0  0
  185.3340  178.5000  144.1080 N   0  0  0  0  0  0  0  0  0  0  0  0
  182.9330  178.8350  144.4120 C   0  0  0  0  0  1  0  0  0  0  0  0
  184.3130  179.4600  144.5120 C   0  0  0  0  0  2  0  0  0  0  0  0
  191.4870  174.7840  137.4000 C   0  0  0  0  0  2  0  0  0  0  0  0
  192.9740  174.9550  137.6860 C   0  0  0  0  0  2  0  0  0  0  0  0
  194.6330  173.2980  138.0860 O   0  0  0  0  0  0  0  0  0  0  0  0
  193.7420  173.7280  137.3080 C   0  0  0  0  0  0  0  0  0  0  0  0
  193.4780  173.0340  136.1240 O   0  0  0  0  0  0  0  0  0  0  0  0
  193.4020  171.6180  136.0730 C   0  0  0  0  0  1  0  0  0  0  0  0
  1 18  1  0  0  0  0
  1  2  1  0  0  0  0
  2  8  1  0  0  0  0
  3 19  1  0  0  0  0
  4  1  2  0  0  0  0
  5 12  2  0  0  0  0
  6  3  1  0  0  0  0
  7  5  1  0  0  0  0
  8 11  2  0  0  0  0
  9 13  1  0  0  0  0
 10  7  1  0  0  0  0
 10  4  1  0  0  0  0
 11 16  1  0  0  0  0
 12  8  1  0  0  0  0
 12 14  1  0  0  0  0
 13 15  1  1  0  0  0
 14  9  2  0  0  0  0
 15  3  1  0  0  0  0
 16 13  1  0  0  0  0
 16  6  1  1  0  0  0
 18 17  1  0  0  0  0
 19 21  1  0  0  0  0
 21 22  2  0  0  0  0
 22 20  2  0  0  0  0
 23 24  1  0  0  0  0
 24 26  1  0  0  0  0
 24 20  1  0  0  0  0
 25 26  1  0  0  0  0
 27 28  1  0  0  0  0
 27 14  1  0  0  0  0
 30 28  1  0  0  0  0
 30 29  2  0  0  0  0
 31 30  1  0  0  0  0
 32 31  1  0  0  0  0
M  END
>  <MODEL>
8

>  <REMARK>
 VINA RESULT:      -6.4      3.895      5.964
  Name = 
  9 active torsions:
  status: ('A' for Active; 'I' for Inactive)
    1  A    between atoms: C_3  and  O_15
    2  A    between atoms: C_5  and  N_28
    3  A    between atoms: N_6  and  C_13
    4  A    between atoms: C_9  and  N_28
    5  A    between atoms: C_13  and  C_17
    6  A    between atoms: C_14  and  C_25
    7  A    between atoms: C_14  and  C_31
    8  A    between atoms: O_18  and  C_31
    9  A    between atoms: C_25  and  C_29
                            x       y       z     vdW  Elec       q    Type
                         _______ _______ _______ _____ _____    ______ ____

>  <TORSDO>
F 9

$$$$
=
 OpenBabel11032420213D

 32 34  0  0  1  0  0  0  0  0999 V2000
  193.0500  175.6300  137.5630 C   0  0  0  0  0  0  0  0  0  0  0  0
  192.0920  176.7770  137.7240 C   0  0  0  0  0  2  0  0  0  0  0  0
  190.4660  178.2320  142.5040 N   0  0  0  0  0  0  0  0  0  0  0  0
  192.7440  174.6040  136.8290 N   0  0  0  0  0  0  0  0  0  0  0  0
  189.4450  175.0400  137.4250 N   0  0  0  0  0  0  0  0  0  0  0  0
  190.7300  176.8060  142.2970 C   0  0  0  0  0  2  0  0  0  0  0  0
  190.4130  173.9840  137.1440 C   0  0  0  0  0  2  0  0  0  0  0  0
  190.9980  176.4370  138.6800 C   0  0  0  0  0  0  0  0  0  0  0  0
  188.3750  177.6290  139.5420 N   0  0  0  0  0  0  0  0  0  0  0  0
  191.4640  174.4470  136.1480 C   0  0  0  0  0  2  0  0  0  0  0  0
  191.1740  176.6640  139.9420 N   0  0  0  0  0  0  0  0  0  0  0  0
  189.6650  176.0930  138.1590 C   0  0  0  0  0  0  0  0  0  0  0  0
  188.9710  177.3510  140.8570 C   0  0  2  0  0  3  0  0  0  0  0  0
  188.5800  177.0580  138.3890 C   0  0  0  0  0  0  0  0  0  0  0  0
  189.4070  178.6080  141.5670 C   0  0  0  0  0  2  0  0  0  0  0  0
  190.1560  176.4110  140.9550 C   0  0  2  0  0  3  0  0  0  0  0  0
  195.0830  174.4780  138.3640 C   0  0  0  0  0  1  0  0  0  0  0  0
  194.2930  175.6470  138.2010 O   0  0  0  0  0  0  0  0  0  0  0  0
  189.9290  178.3700  143.8480 C   0  0  0  0  0  2  0  0  0  0  0  0
  189.4010  176.8270  147.0490 C   0  0  0  0  0  3  0  0  0  0  0  0
  190.4960  177.3140  144.7300 C   0  0  0  0  0  3  0  0  0  0  0  0
  189.9510  177.0700  145.8870 C   0  0  0  0  0  0  0  0  0  0  0  0
  187.9820  177.9190  148.7600 C   0  0  0  0  0  1  0  0  0  0  0  0
  188.1300  177.3720  147.4250 N   0  0  0  0  0  0  0  0  0  0  0  0
  186.0570  178.5790  146.9650 C   0  0  0  0  0  1  0  0  0  0  0  0
  187.0170  177.5010  146.4920 C   0  0  0  0  0  2  0  0  0  0  0  0
  187.7060  177.4490  137.2400 C   0  0  0  0  0  2  0  0  0  0  0  0
  186.3090  176.8550  137.3780 C   0  0  0  0  0  2  0  0  0  0  0  0
  185.7240  179.0020  138.2170 O   0  0  0  0  0  0  0  0  0  0  0  0
  185.3130  177.9030  137.7630 C   0  0  0  0  0  0  0  0  0  0  0  0
  183.9390  177.7000  137.6090 O   0  0  0  0  0  0  0  0  0  0  0  0
  183.2370  176.6860  138.3100 C   0  0  0  0  0  1  0  0  0  0  0  0
  1  2  1  0  0  0  0
  1 18  1  0  0  0  0
  2  8  1  0  0  0  0
  3 19  1  0  0  0  0
  4  1  2  0  0  0  0
  5 12  2  0  0  0  0
  6  3  1  0  0  0  0
  7  5  1  0  0  0  0
  8 11  2  0  0  0  0
  9 13  1  0  0  0  0
 10  4  1  0  0  0  0
 10  7  1  0  0  0  0
 11 16  1  0  0  0  0
 12 14  1  0  0  0  0
 12  8  1  0  0  0  0
 13 16  1  0  0  0  0
 13 15  1  6  0  0  0
 14  9  2  0  0  0  0
 15  3  1  0  0  0  0
 16  6  1  1  0  0  0
 18 17  1  0  0  0  0
 19 21  1  0  0  0  0
 20 24  1  0  0  0  0
 21 22  2  0  0  0  0
 22 20  2  0  0  0  0
 24 23  1  0  0  0  0
 26 25  1  0  0  0  0
 26 24  1  0  0  0  0
 27 28  1  0  0  0  0
 27 14  1  0  0  0  0
 28 30  1  0  0  0  0
 30 29  2  0  0  0  0
 31 30  1  0  0  0  0
 31 32  1  0  0  0  0
M  END
>  <MODEL>
9

>  <REMARK>
 VINA RESULT:      -6.3      3.771      7.227
  Name = 
  9 active torsions:
  status: ('A' for Active; 'I' for Inactive)
    1  A    between atoms: C_3  and  O_15
    2  A    between atoms: C_5  and  N_28
    3  A    between atoms: N_6  and  C_13
    4  A    between atoms: C_9  and  N_28
    5  A    between atoms: C_13  and  C_17
    6  A    between atoms: C_14  and  C_25
    7  A    between atoms: C_14  and  C_31
    8  A    between atoms: O_18  and  C_31
    9  A    between atoms: C_25  and  C_29
                            x       y       z     vdW  Elec       q    Type
                         _______ _______ _______ _____ _____    ______ ____

>  <TORSDO>
F 9

$$$$
