=
 OpenBabel11042410443D

 38 42  0  0  1  0  0  0  0  0999 V2000
  189.9840  175.8250  135.7410 C   0  0  0  0  0  3  0  0  0  0  0  0
  191.3330  175.0610  137.6910 C   0  0  2  0  0  3  0  0  0  0  0  0
  190.6610  177.3210  141.6970 C   0  0  0  0  0  2  0  0  0  0  0  0
  190.5640  176.8940  140.2610 C   0  0  0  0  0  0  0  0  0  0  0  0
  189.2780  177.6520  142.2820 C   0  0  2  0  0  3  0  0  0  0  0  0
  185.3350  177.3030  136.0610 C   0  0  0  0  0  0  0  0  0  0  0  0
  186.3400  176.7390  135.3330 N   0  0  0  0  0  0  0  0  0  0  0  0
  191.6960  176.7310  139.5610 C   0  0  0  0  0  3  0  0  0  0  0  0
  193.7000  175.6660  136.9710 C   0  0  0  0  0  0  0  0  0  0  0  0
  187.8940  177.1900  137.0740 C   0  0  0  0  0  3  0  0  0  0  0  0
  183.9600  177.3650  135.5020 C   0  0  0  0  0  1  0  0  0  0  0  0
  188.4650  178.1280  139.8570 C   0  0  2  0  0  3  0  0  0  0  0  0
  191.7660  176.4810  138.0800 C   0  0  1  0  0  3  0  0  0  0  0  0
  186.8850  177.7350  137.8610 C   0  0  0  0  0  0  0  0  0  0  0  0
  187.1440  178.1350  139.2140 N   0  0  0  0  0  2  0  0  0  0  0  0
  192.6720  174.2240  136.7710 S   0  0  0  0  0  0  0  0  0  0  0  0
  189.2070  176.8060  139.6320 C   0  0  0  0  0  2  0  0  0  0  0  0
  188.3800  178.5110  141.3600 C   0  0  1  0  0  3  0  0  0  0  0  0
  187.0630  178.4630  141.8270 O   0  0  0  0  0  1  0  0  0  0  0  0
  190.0780  175.1070  136.8690 C   0  0  0  0  0  3  0  0  0  0  0  0
  188.6730  175.9500  135.0090 C   0  0  0  0  0  2  0  0  0  0  0  0
  185.5870  177.7930  137.3480 C   0  0  0  0  0  3  0  0  0  0  0  0
  187.6120  176.6650  135.8100 C   0  0  0  0  0  0  0  0  0  0  0  0
  193.1630  176.6790  137.6170 C   0  0  0  0  0  3  0  0  0  0  0  0
  195.0390  175.7350  136.4830 N   0  0  0  0  0  2  0  0  0  0  0  0
  195.9010  174.5650  136.4150 C   0  0  0  0  0  2  0  0  0  0  0  0
  196.8140  174.5180  137.6270 C   0  0  0  0  0  2  0  0  0  0  0  0
  195.9010  175.0490  139.7640 O   0  0  0  0  0  1  0  0  0  0  0  0
  195.4400  172.9420  138.9870 O   0  0  0  0  0  0  0  0  0  0  0  0
  196.0390  174.1870  138.8570 C   0  0  0  0  0  0  0  0  0  0  0  0
  189.3790  178.2080  143.6340 N   0  0  0  0  0  2  0  0  0  0  0  0
  190.5680  176.9000  145.2300 N   0  0  0  0  0  0  0  0  0  0  0  0
  188.3750  177.6230  145.7800 C   0  0  0  0  0  3  0  0  0  0  0  0
  189.2690  177.1510  144.6360 C   0  0  1  0  0  3  0  0  0  0  0  0
  190.5580  177.1270  146.4950 C   0  0  0  0  0  0  0  0  0  0  0  0
  189.2490  177.5820  147.0250 C   0  0  0  0  0  3  0  0  0  0  0  0
  192.3040  175.6750  147.4380 C   0  0  0  0  0  1  0  0  0  0  0  0
  191.7020  176.9500  147.2720 O   0  0  0  0  0  0  0  0  0  0  0  0
  1 20  2  0  0  0  0
  2 20  1  6  0  0  0
  2 13  1  0  0  0  0
  3  5  1  0  0  0  0
  4  3  1  0  0  0  0
  5 31  1  1  0  0  0
  6 22  1  0  0  0  0
  7 23  1  0  0  0  0
  7  6  2  0  0  0  0
  8  4  2  0  0  0  0
  9 24  2  0  0  0  0
 10 14  1  0  0  0  0
 11  6  1  0  0  0  0
 12 17  1  1  0  0  0
 12 18  1  0  0  0  0
 13 24  1  1  0  0  0
 13  8  1  0  0  0  0
 14 15  1  0  0  0  0
 15 12  1  0  0  0  0
 16  9  1  0  0  0  0
 16  2  1  0  0  0  0
 17  4  1  0  0  0  0
 18 19  1  1  0  0  0
 18  5  1  0  0  0  0
 21  1  1  0  0  0  0
 21 23  1  0  0  0  0
 22 14  2  0  0  0  0
 23 10  2  0  0  0  0
 25  9  1  0  0  0  0
 26 25  1  0  0  0  0
 26 27  1  0  0  0  0
 27 30  1  0  0  0  0
 30 29  2  0  0  0  0
 30 28  1  0  0  0  0
 32 35  2  0  0  0  0
 33 36  2  0  0  0  0
 34 31  1  6  0  0  0
 34 32  1  0  0  0  0
 34 33  1  0  0  0  0
 35 36  1  0  0  0  0
 35 38  1  0  0  0  0
 38 37  1  0  0  0  0
M  END
>  <MODEL>
1

>  <REMARK>
 VINA RESULT:      -9.1      0.000      0.000
  Name = 
  7 active torsions:
  status: ('A' for Active; 'I' for Inactive)
    1  A    between atoms: N_5  and  C_12
    2  A    between atoms: N_5  and  C_24
    3  A    between atoms: C_7  and  N_16
    4  A    between atoms: N_16  and  C_25
    5  A    between atoms: C_24  and  C_30
    6  A    between atoms: C_26  and  O_29
    7  A    between atoms: C_30  and  C_38
                            x       y       z     vdW  Elec       q    Type
                         _______ _______ _______ _____ _____    ______ ____

>  <TORSDO>
F 7

$$$$
=
 OpenBabel11042410443D

 38 42  0  0  1  0  0  0  0  0999 V2000
  191.5390  176.7160  142.8240 C   0  0  0  0  0  3  0  0  0  0  0  0
  191.0440  177.8570  140.6650 C   0  0  2  0  0  3  0  0  0  0  0  0
  186.5600  178.5860  139.6800 C   0  0  0  0  0  2  0  0  0  0  0  0
  187.8220  178.1610  140.3730 C   0  0  0  0  0  0  0  0  0  0  0  0
  185.5390  179.1660  140.6740 C   0  0  2  0  0  3  0  0  0  0  0  0
  189.0310  177.4910  146.9490 C   0  0  0  0  0  0  0  0  0  0  0  0
  190.1970  177.1490  146.3300 N   0  0  0  0  0  0  0  0  0  0  0  0
  188.7430  177.4850  139.6710 C   0  0  0  0  0  3  0  0  0  0  0  0
  191.8320  176.1360  138.9610 C   0  0  0  0  0  0  0  0  0  0  0  0
  189.1180  177.1850  144.2130 C   0  0  0  0  0  3  0  0  0  0  0  0
  188.9940  177.6470  148.4250 C   0  0  0  0  0  1  0  0  0  0  0  0
  186.7090  177.7850  142.5430 C   0  0  2  0  0  3  0  0  0  0  0  0
  189.9700  176.8400  140.2550 C   0  0  1  0  0  3  0  0  0  0  0  0
  187.9220  177.5760  144.8060 C   0  0  0  0  0  0  0  0  0  0  0  0
  186.7820  177.9170  144.0040 N   0  0  0  0  0  2  0  0  0  0  0  0
  192.6170  177.4920  139.8100 S   0  0  0  0  0  0  0  0  0  0  0  0
  187.9370  178.3850  141.8500 C   0  0  0  0  0  2  0  0  0  0  0  0
  185.3760  178.3490  141.9770 C   0  0  1  0  0  3  0  0  0  0  0  0
  184.7040  179.1250  142.9250 O   0  0  0  0  0  1  0  0  0  0  0  0
  191.2370  177.8360  142.1540 C   0  0  0  0  0  3  0  0  0  0  0  0
  191.6010  176.7050  144.3290 C   0  0  0  0  0  2  0  0  0  0  0  0
  187.8770  177.7310  146.1930 C   0  0  0  0  0  3  0  0  0  0  0  0
  190.2700  176.9950  144.9800 C   0  0  0  0  0  0  0  0  0  0  0  0
  190.5650  175.9230  139.2490 C   0  0  0  0  0  3  0  0  0  0  0  0
  192.5110  175.3240  138.0040 N   0  0  0  0  0  2  0  0  0  0  0  0
  193.7780  175.7210  137.4100 C   0  0  0  0  0  2  0  0  0  0  0  0
  194.7190  174.5300  137.3440 C   0  0  0  0  0  2  0  0  0  0  0  0
  195.4650  173.0220  139.0320 O   0  0  0  0  0  0  0  0  0  0  0  0
  195.5960  175.2470  139.5660 O   0  0  0  0  0  1  0  0  0  0  0  0
  195.2690  174.2180  138.6940 C   0  0  0  0  0  0  0  0  0  0  0  0
  184.2540  179.4470  140.0300 N   0  0  0  0  0  2  0  0  0  0  0  0
  182.2910  178.1510  140.4050 N   0  0  0  0  0  0  0  0  0  0  0  0
  183.2080  178.1930  138.2160 C   0  0  0  0  0  3  0  0  0  0  0  0
  183.5580  178.2050  139.7020 C   0  0  1  0  0  3  0  0  0  0  0  0
  181.3020  178.0910  139.5860 C   0  0  0  0  0  0  0  0  0  0  0  0
  181.6910  178.0960  138.1550 C   0  0  0  0  0  3  0  0  0  0  0  0
  179.6660  177.5580  141.3430 C   0  0  0  0  0  1  0  0  0  0  0  0
  179.9860  178.0310  140.0430 O   0  0  0  0  0  0  0  0  0  0  0  0
  1 21  1  0  0  0  0
  2 20  1  1  0  0  0
  3  4  1  0  0  0  0
  3  5  1  0  0  0  0
  4 17  1  0  0  0  0
  5 31  1  6  0  0  0
  5 18  1  0  0  0  0
  6 11  1  0  0  0  0
  7  6  1  0  0  0  0
  8 13  1  0  0  0  0
  8  4  2  0  0  0  0
  9 24  2  0  0  0  0
  9 16  1  0  0  0  0
 10 14  2  0  0  0  0
 10 23  1  0  0  0  0
 12 17  1  6  0  0  0
 12 15  1  0  0  0  0
 13 24  1  6  0  0  0
 13  2  1  0  0  0  0
 14 22  1  0  0  0  0
 15 14  1  0  0  0  0
 16  2  1  0  0  0  0
 18 12  1  0  0  0  0
 18 19  1  1  0  0  0
 20  1  2  0  0  0  0
 21 23  1  0  0  0  0
 22  6  2  0  0  0  0
 23  7  2  0  0  0  0
 25  9  1  0  0  0  0
 26 25  1  0  0  0  0
 27 26  1  0  0  0  0
 27 30  1  0  0  0  0
 30 28  2  0  0  0  0
 30 29  1  0  0  0  0
 33 34  1  0  0  0  0
 34 31  1  1  0  0  0
 34 32  1  0  0  0  0
 35 38  1  0  0  0  0
 35 32  2  0  0  0  0
 36 33  2  0  0  0  0
 36 35  1  0  0  0  0
 38 37  1  0  0  0  0
M  END
>  <MODEL>
2

>  <REMARK>
 VINA RESULT:      -8.4      2.755      7.388
  Name = 
  7 active torsions:
  status: ('A' for Active; 'I' for Inactive)
    1  A    between atoms: N_5  and  C_12
    2  A    between atoms: N_5  and  C_24
    3  A    between atoms: C_7  and  N_16
    4  A    between atoms: N_16  and  C_25
    5  A    between atoms: C_24  and  C_30
    6  A    between atoms: C_26  and  O_29
    7  A    between atoms: C_30  and  C_38
                            x       y       z     vdW  Elec       q    Type
                         _______ _______ _______ _____ _____    ______ ____

>  <TORSDO>
F 7

$$$$
=
 OpenBabel11042410443D

 38 42  0  0  1  0  0  0  0  0999 V2000
  183.8240  178.7610  142.2380 C   0  0  0  0  0  3  0  0  0  0  0  0
  183.4280  178.0950  139.8700 C   0  0  2  0  0  3  0  0  0  0  0  0
  187.1300  178.1110  137.0590 C   0  0  0  0  0  2  0  0  0  0  0  0
  186.2510  178.2460  138.2680 C   0  0  0  0  0  0  0  0  0  0  0  0
  188.4920  177.4920  137.4180 C   0  0  2  0  0  3  0  0  0  0  0  0
  187.8390  177.5730  144.7630 C   0  0  0  0  0  0  0  0  0  0  0  0
  186.5090  177.8750  144.7450 N   0  0  0  0  0  0  0  0  0  0  0  0
  185.0970  178.9190  138.1510 C   0  0  0  0  0  3  0  0  0  0  0  0
  181.9410  179.9830  139.0280 C   0  0  0  0  0  0  0  0  0  0  0  0
  186.6190  178.3510  142.4190 C   0  0  0  0  0  3  0  0  0  0  0  0
  188.4880  177.1610  146.0330 C   0  0  0  0  0  1  0  0  0  0  0  0
  188.1450  178.3610  139.8460 C   0  0  2  0  0  3  0  0  0  0  0  0
  184.1960  179.2930  139.2960 C   0  0  1  0  0  3  0  0  0  0  0  0
  187.9670  178.0110  142.3920 C   0  0  0  0  0  0  0  0  0  0  0  0
  188.6870  177.9620  141.1520 N   0  0  0  0  0  2  0  0  0  0  0  0
  181.6300  178.4110  139.8070 S   0  0  0  0  0  0  0  0  0  0  0  0
  186.7650  177.7500  139.5850 C   0  0  0  0  0  2  0  0  0  0  0  0
  189.1460  178.0770  138.6930 C   0  0  1  0  0  3  0  0  0  0  0  0
  190.1800  177.2320  139.1070 O   0  0  0  0  0  1  0  0  0  0  0  0
  183.8660  177.8240  141.2800 C   0  0  0  0  0  3  0  0  0  0  0  0
  184.3880  178.4940  143.6090 C   0  0  0  0  0  2  0  0  0  0  0  0
  188.5870  177.6160  143.5800 C   0  0  0  0  0  3  0  0  0  0  0  0
  185.8800  178.2580  143.6020 C   0  0  0  0  0  0  0  0  0  0  0  0
  183.2050  180.2950  138.8290 C   0  0  0  0  0  3  0  0  0  0  0  0
  180.8960  180.8630  138.6160 N   0  0  0  0  0  2  0  0  0  0  0  0
  180.9940  181.6720  137.4110 C   0  0  0  0  0  2  0  0  0  0  0  0
  180.4610  183.0700  137.6760 C   0  0  0  0  0  2  0  0  0  0  0  0
  182.3100  184.5690  137.5550 O   0  0  0  0  0  1  0  0  0  0  0  0
  180.9770  184.4920  135.6920 O   0  0  0  0  0  0  0  0  0  0  0  0
  181.2960  184.0910  136.9820 C   0  0  0  0  0  0  0  0  0  0  0  0
  189.4070  177.4910  136.2740 N   0  0  0  0  0  2  0  0  0  0  0  0
  190.9580  175.7170  135.9250 N   0  0  0  0  0  0  0  0  0  0  0  0
  188.7440  175.1630  136.5800 C   0  0  0  0  0  3  0  0  0  0  0  0
  189.5800  176.1370  135.7530 C   0  0  1  0  0  3  0  0  0  0  0  0
  191.0420  174.6790  136.6770 C   0  0  0  0  0  0  0  0  0  0  0  0
  189.7380  174.1780  137.1770 C   0  0  0  0  0  3  0  0  0  0  0  0
  193.3240  174.8430  137.5770 C   0  0  0  0  0  1  0  0  0  0  0  0
  192.2740  174.1000  136.9780 O   0  0  0  0  0  0  0  0  0  0  0  0
  1 21  1  0  0  0  0
  2 20  1  1  0  0  0
  3  5  1  0  0  0  0
  3  4  1  0  0  0  0
  4 17  1  0  0  0  0
  5 31  1  6  0  0  0
  5 18  1  0  0  0  0
  6 11  1  0  0  0  0
  7  6  1  0  0  0  0
  8  4  2  0  0  0  0
  9 16  1  0  0  0  0
 10 23  1  0  0  0  0
 12 17  1  6  0  0  0
 12 15  1  0  0  0  0
 13  8  1  6  0  0  0
 13  2  1  0  0  0  0
 14 10  2  0  0  0  0
 14 22  1  0  0  0  0
 15 14  1  0  0  0  0
 16  2  1  0  0  0  0
 18 19  1  1  0  0  0
 18 12  1  0  0  0  0
 20  1  2  0  0  0  0
 22  6  2  0  0  0  0
 23 21  1  0  0  0  0
 23  7  2  0  0  0  0
 24  9  2  0  0  0  0
 24 13  1  0  0  0  0
 25  9  1  0  0  0  0
 26 27  1  0  0  0  0
 26 25  1  0  0  0  0
 29 30  2  0  0  0  0
 30 28  1  0  0  0  0
 30 27  1  0  0  0  0
 32 35  2  0  0  0  0
 33 36  2  0  0  0  0
 34 32  1  0  0  0  0
 34 31  1  1  0  0  0
 34 33  1  0  0  0  0
 35 38  1  0  0  0  0
 35 36  1  0  0  0  0
 38 37  1  0  0  0  0
M  END
>  <MODEL>
3

>  <REMARK>
 VINA RESULT:      -8.1      4.436     10.260
  Name = 
  7 active torsions:
  status: ('A' for Active; 'I' for Inactive)
    1  A    between atoms: N_5  and  C_12
    2  A    between atoms: N_5  and  C_24
    3  A    between atoms: C_7  and  N_16
    4  A    between atoms: N_16  and  C_25
    5  A    between atoms: C_24  and  C_30
    6  A    between atoms: C_26  and  O_29
    7  A    between atoms: C_30  and  C_38
                            x       y       z     vdW  Elec       q    Type
                         _______ _______ _______ _____ _____    ______ ____

>  <TORSDO>
F 7

$$$$
=
 OpenBabel11042410443D

 38 42  0  0  1  0  0  0  0  0999 V2000
  183.4980  178.7580  144.2130 C   0  0  0  0  0  3  0  0  0  0  0  0
  185.9160  179.3080  144.4500 C   0  0  2  0  0  3  0  0  0  0  0  0
  188.6460  178.2870  140.8290 C   0  0  0  0  0  2  0  0  0  0  0  0
  187.4480  178.4360  141.7210 C   0  0  0  0  0  0  0  0  0  0  0  0
  188.3080  178.6270  139.3680 C   0  0  2  0  0  3  0  0  0  0  0  0
  180.9920  179.2550  140.0440 C   0  0  0  0  0  0  0  0  0  0  0  0
  181.0130  179.2430  141.4070 N   0  0  0  0  0  0  0  0  0  0  0  0
  187.5360  178.0180  142.9920 C   0  0  0  0  0  3  0  0  0  0  0  0
  186.6430  177.7210  146.3050 C   0  0  0  0  0  0  0  0  0  0  0  0
  183.2940  178.5760  141.3960 C   0  0  0  0  0  3  0  0  0  0  0  0
  179.7440  179.6160  139.3250 C   0  0  0  0  0  1  0  0  0  0  0  0
  185.8300  178.0420  139.8990 C   0  0  2  0  0  3  0  0  0  0  0  0
  186.3840  177.9330  143.9550 C   0  0  1  0  0  3  0  0  0  0  0  0
  183.3200  178.6180  140.0060 C   0  0  0  0  0  0  0  0  0  0  0  0
  184.5470  178.4170  139.2880 N   0  0  0  0  0  2  0  0  0  0  0  0
  185.9900  179.3790  146.2750 S   0  0  0  0  0  0  0  0  0  0  0  0
  186.1620  178.9120  141.1160 C   0  0  0  0  0  2  0  0  0  0  0  0
  186.9810  178.0170  138.8570 C   0  0  1  0  0  3  0  0  0  0  0  0
  186.6110  178.6520  137.6680 O   0  0  0  0  0  1  0  0  0  0  0  0
  184.5220  179.5870  143.9690 C   0  0  0  0  0  3  0  0  0  0  0  0
  182.1400  179.0040  143.6080 C   0  0  0  0  0  2  0  0  0  0  0  0
  182.1540  178.9620  139.3190 C   0  0  0  0  0  3  0  0  0  0  0  0
  182.1360  178.9150  142.1010 C   0  0  0  0  0  0  0  0  0  0  0  0
  186.7930  177.1330  145.1360 C   0  0  0  0  0  3  0  0  0  0  0  0
  187.0080  177.0540  147.5120 N   0  0  0  0  0  2  0  0  0  0  0  0
  188.3920  176.7520  147.8430 C   0  0  0  0  0  2  0  0  0  0  0  0
  189.3150  177.7890  147.2270 C   0  0  0  0  0  2  0  0  0  0  0  0
  190.2780  176.8910  145.2400 O   0  0  0  0  0  0  0  0  0  0  0  0
  191.6040  176.8050  147.1070 O   0  0  0  0  0  1  0  0  0  0  0  0
  190.4150  177.1280  146.4680 C   0  0  0  0  0  0  0  0  0  0  0  0
  189.4310  178.3450  138.4710 N   0  0  0  0  0  2  0  0  0  0  0  0
  189.7000  176.5960  136.8750 N   0  0  0  0  0  0  0  0  0  0  0  0
  190.9200  176.4610  138.9070 C   0  0  0  0  0  3  0  0  0  0  0  0
  189.5960  176.9040  138.2890 C   0  0  1  0  0  3  0  0  0  0  0  0
  190.8270  176.0460  136.5960 C   0  0  0  0  0  0  0  0  0  0  0  0
  191.7270  175.8680  137.7610 C   0  0  0  0  0  3  0  0  0  0  0  0
  192.4870  175.5160  134.8610 C   0  0  0  0  0  1  0  0  0  0  0  0
  191.1430  175.6630  135.2930 O   0  0  0  0  0  0  0  0  0  0  0  0
  2 20  1  1  0  0  0
  2 16  1  0  0  0  0
  3  4  1  0  0  0  0
  4  8  2  0  0  0  0
  5 31  1  6  0  0  0
  5  3  1  0  0  0  0
  6  7  1  0  0  0  0
  7 23  2  0  0  0  0
  9 25  1  0  0  0  0
 10 23  1  0  0  0  0
 11  6  1  0  0  0  0
 12 17  1  1  0  0  0
 13  8  1  6  0  0  0
 13  2  1  0  0  0  0
 13 24  1  0  0  0  0
 14 10  2  0  0  0  0
 15 12  1  0  0  0  0
 15 14  1  0  0  0  0
 16  9  1  0  0  0  0
 17  4  1  0  0  0  0
 18 19  1  6  0  0  0
 18  5  1  0  0  0  0
 18 12  1  0  0  0  0
 20  1  2  0  0  0  0
 21  1  1  0  0  0  0
 22 14  1  0  0  0  0
 22  6  2  0  0  0  0
 23 21  1  0  0  0  0
 24  9  2  0  0  0  0
 25 26  1  0  0  0  0
 27 26  1  0  0  0  0
 28 30  2  0  0  0  0
 30 29  1  0  0  0  0
 30 27  1  0  0  0  0
 32 34  1  0  0  0  0
 34 31  1  6  0  0  0
 34 33  1  0  0  0  0
 35 32  2  0  0  0  0
 35 36  1  0  0  0  0
 36 33  2  0  0  0  0
 37 38  1  0  0  0  0
 38 35  1  0  0  0  0
M  END
>  <MODEL>
4

>  <REMARK>
 VINA RESULT:      -8.0      4.030      8.603
  Name = 
  7 active torsions:
  status: ('A' for Active; 'I' for Inactive)
    1  A    between atoms: N_5  and  C_12
    2  A    between atoms: N_5  and  C_24
    3  A    between atoms: C_7  and  N_16
    4  A    between atoms: N_16  and  C_25
    5  A    between atoms: C_24  and  C_30
    6  A    between atoms: C_26  and  O_29
    7  A    between atoms: C_30  and  C_38
                            x       y       z     vdW  Elec       q    Type
                         _______ _______ _______ _____ _____    ______ ____

>  <TORSDO>
F 7

$$$$
=
 OpenBabel11042410443D

 38 42  0  0  1  0  0  0  0  0999 V2000
  188.7230  177.5180  141.3980 C   0  0  0  0  0  3  0  0  0  0  0  0
  188.1270  178.5470  139.2090 C   0  0  2  0  0  3  0  0  0  0  0  0
  183.5920  178.9420  138.2650 C   0  0  0  0  0  2  0  0  0  0  0  0
  184.8880  178.6270  138.9530 C   0  0  0  0  0  0  0  0  0  0  0  0
  182.5470  179.4880  139.2520 C   0  0  2  0  0  3  0  0  0  0  0  0
  186.2200  178.2700  145.5300 C   0  0  0  0  0  0  0  0  0  0  0  0
  187.3980  177.9840  144.9060 N   0  0  0  0  0  0  0  0  0  0  0  0
  185.8440  177.9890  138.2620 C   0  0  0  0  0  3  0  0  0  0  0  0
  189.0070  176.8220  137.5530 C   0  0  0  0  0  0  0  0  0  0  0  0
  186.2940  177.8740  142.8050 C   0  0  0  0  0  3  0  0  0  0  0  0
  186.1910  178.4750  147.0000 C   0  0  0  0  0  1  0  0  0  0  0  0
  183.8290  178.2540  141.1500 C   0  0  2  0  0  3  0  0  0  0  0  0
  187.1180  177.4470  138.8490 C   0  0  1  0  0  3  0  0  0  0  0  0
  185.0820  178.2050  143.4020 C   0  0  0  0  0  0  0  0  0  0  0  0
  183.9120  178.4420  142.6060 N   0  0  0  0  0  2  0  0  0  0  0  0
  189.7100  178.2570  138.3430 S   0  0  0  0  0  0  0  0  0  0  0  0
  185.0060  178.9090  140.4200 C   0  0  0  0  0  2  0  0  0  0  0  0
  182.4550  178.7080  140.5850 C   0  0  1  0  0  3  0  0  0  0  0  0
  181.7450  179.4700  141.5160 O   0  0  0  0  0  1  0  0  0  0  0  0
  188.3390  178.5910  140.6940 C   0  0  0  0  0  3  0  0  0  0  0  0
  188.8040  177.5640  142.9020 C   0  0  0  0  0  2  0  0  0  0  0  0
  185.0430  178.4060  144.7830 C   0  0  0  0  0  3  0  0  0  0  0  0
  187.4650  177.7880  143.5620 C   0  0  0  0  0  0  0  0  0  0  0  0
  187.7600  176.5370  137.8670 C   0  0  0  0  0  3  0  0  0  0  0  0
  189.7260  176.0250  136.6150 N   0  0  0  0  0  2  0  0  0  0  0  0
  191.1250  176.2710  136.2980 C   0  0  0  0  0  2  0  0  0  0  0  0
  192.0200  175.5160  137.2660 C   0  0  0  0  0  2  0  0  0  0  0  0
  194.0550  176.6860  136.8530 O   0  0  0  0  0  0  0  0  0  0  0  0
  193.2500  176.8280  138.9940 O   0  0  0  0  0  1  0  0  0  0  0  0
  193.1700  176.3640  137.6880 C   0  0  0  0  0  0  0  0  0  0  0  0
  181.2380  179.6610  138.6180 N   0  0  0  0  0  2  0  0  0  0  0  0
  181.5400  182.0130  138.4010 N   0  0  0  0  0  0  0  0  0  0  0  0
  179.3390  181.1420  138.2260 C   0  0  0  0  0  3  0  0  0  0  0  0
  180.6810  180.9740  138.9340 C   0  0  1  0  0  3  0  0  0  0  0  0
  180.9200  182.7410  137.5420 C   0  0  0  0  0  0  0  0  0  0  0  0
  179.5090  182.3450  137.3100 C   0  0  0  0  0  3  0  0  0  0  0  0
  180.8260  184.7770  136.1670 C   0  0  0  0  0  1  0  0  0  0  0  0
  181.5540  183.8050  136.9010 O   0  0  0  0  0  0  0  0  0  0  0  0
  1 21  1  0  0  0  0
  2 20  1  1  0  0  0
  3  4  1  0  0  0  0
  3  5  1  0  0  0  0
  4 17  1  0  0  0  0
  5 31  1  6  0  0  0
  5 18  1  0  0  0  0
  6 11  1  0  0  0  0
  7  6  1  0  0  0  0
  8 13  1  0  0  0  0
  8  4  2  0  0  0  0
  9 24  2  0  0  0  0
  9 16  1  0  0  0  0
 10 14  2  0  0  0  0
 10 23  1  0  0  0  0
 12 17  1  6  0  0  0
 12 15  1  0  0  0  0
 13 24  1  6  0  0  0
 13  2  1  0  0  0  0
 14 22  1  0  0  0  0
 15 14  1  0  0  0  0
 16  2  1  0  0  0  0
 18 12  1  0  0  0  0
 18 19  1  1  0  0  0
 20  1  2  0  0  0  0
 21 23  1  0  0  0  0
 22  6  2  0  0  0  0
 23  7  2  0  0  0  0
 25  9  1  0  0  0  0
 26 25  1  0  0  0  0
 26 27  1  0  0  0  0
 27 30  1  0  0  0  0
 28 30  2  0  0  0  0
 30 29  1  0  0  0  0
 32 34  1  0  0  0  0
 33 34  1  0  0  0  0
 34 31  1  6  0  0  0
 35 32  2  0  0  0  0
 36 35  1  0  0  0  0
 36 33  2  0  0  0  0
 37 38  1  0  0  0  0
 38 35  1  0  0  0  0
M  END
>  <MODEL>
5

>  <REMARK>
 VINA RESULT:      -7.9      4.177      8.527
  Name = 
  7 active torsions:
  status: ('A' for Active; 'I' for Inactive)
    1  A    between atoms: N_5  and  C_12
    2  A    between atoms: N_5  and  C_24
    3  A    between atoms: C_7  and  N_16
    4  A    between atoms: N_16  and  C_25
    5  A    between atoms: C_24  and  C_30
    6  A    between atoms: C_26  and  O_29
    7  A    between atoms: C_30  and  C_38
                            x       y       z     vdW  Elec       q    Type
                         _______ _______ _______ _____ _____    ______ ____

>  <TORSDO>
F 7

$$$$
=
 OpenBabel11042410443D

 38 42  0  0  1  0  0  0  0  0999 V2000
  191.5440  176.6830  142.8260 C   0  0  0  0  0  3  0  0  0  0  0  0
  191.0360  177.8710  140.6960 C   0  0  2  0  0  3  0  0  0  0  0  0
  186.5460  178.6250  139.7570 C   0  0  0  0  0  2  0  0  0  0  0  0
  187.8130  178.1840  140.4310 C   0  0  0  0  0  0  0  0  0  0  0  0
  185.5330  179.1840  140.7690 C   0  0  2  0  0  3  0  0  0  0  0  0
  189.0640  177.3690  146.9830 C   0  0  0  0  0  0  0  0  0  0  0  0
  190.2250  177.0400  146.3500 N   0  0  0  0  0  0  0  0  0  0  0  0
  188.7290  177.5230  139.7090 C   0  0  0  0  0  3  0  0  0  0  0  0
  191.8110  176.1870  138.9490 C   0  0  0  0  0  0  0  0  0  0  0  0
  189.1330  177.1230  144.2410 C   0  0  0  0  0  3  0  0  0  0  0  0
  189.0360  177.4930  148.4630 C   0  0  0  0  0  1  0  0  0  0  0  0
  186.7130  177.7620  142.6000 C   0  0  2  0  0  3  0  0  0  0  0  0
  189.9590  176.8640  140.2700 C   0  0  1  0  0  3  0  0  0  0  0  0
  187.9410  177.5020  144.8500 C   0  0  0  0  0  0  0  0  0  0  0  0
  186.7960  177.8610  144.0630 N   0  0  0  0  0  2  0  0  0  0  0  0
  192.6030  177.5240  139.8230 S   0  0  0  0  0  0  0  0  0  0  0  0
  187.9380  178.3750  141.9120 C   0  0  0  0  0  2  0  0  0  0  0  0
  185.3780  178.3380  142.0550 C   0  0  1  0  0  3  0  0  0  0  0  0
  184.7120  179.0930  143.0250 O   0  0  0  0  0  1  0  0  0  0  0  0
  191.2390  177.8180  142.1820 C   0  0  0  0  0  3  0  0  0  0  0  0
  191.6160  176.6390  144.3300 C   0  0  0  0  0  2  0  0  0  0  0  0
  187.9050  177.6270  146.2410 C   0  0  0  0  0  3  0  0  0  0  0  0
  190.2890  176.9150  144.9960 C   0  0  0  0  0  0  0  0  0  0  0  0
  190.5460  175.9690  139.2410 C   0  0  0  0  0  3  0  0  0  0  0  0
  192.4840  175.3960  137.9700 N   0  0  0  0  0  2  0  0  0  0  0  0
  192.4920  175.7500  136.5600 C   0  0  0  0  0  2  0  0  0  0  0  0
  191.5430  174.8480  135.7890 C   0  0  0  0  0  2  0  0  0  0  0  0
  190.1360  176.7720  135.8060 O   0  0  0  0  0  1  0  0  0  0  0  0
  189.2560  174.9130  134.7950 O   0  0  0  0  0  0  0  0  0  0  0  0
  190.2740  175.5650  135.4780 C   0  0  0  0  0  0  0  0  0  0  0  0
  184.2430  179.4800  140.1400 N   0  0  0  0  0  2  0  0  0  0  0  0
  182.1760  178.3860  140.5930 N   0  0  0  0  0  0  0  0  0  0  0  0
  183.1750  178.0650  138.4630 C   0  0  0  0  0  3  0  0  0  0  0  0
  183.4690  178.2550  139.9490 C   0  0  1  0  0  3  0  0  0  0  0  0
  181.2170  178.2840  139.7440 C   0  0  0  0  0  0  0  0  0  0  0  0
  181.6580  178.0660  138.3450 C   0  0  0  0  0  3  0  0  0  0  0  0
  179.4260  177.8140  141.3630 C   0  0  0  0  0  1  0  0  0  0  0  0
  179.8840  178.3780  140.1430 O   0  0  0  0  0  0  0  0  0  0  0  0
  1 21  1  0  0  0  0
  2 20  1  1  0  0  0
  3  4  1  0  0  0  0
  3  5  1  0  0  0  0
  4 17  1  0  0  0  0
  5 31  1  6  0  0  0
  5 18  1  0  0  0  0
  6 11  1  0  0  0  0
  7  6  1  0  0  0  0
  8 13  1  0  0  0  0
  8  4  2  0  0  0  0
  9 24  2  0  0  0  0
  9 16  1  0  0  0  0
 10 14  2  0  0  0  0
 10 23  1  0  0  0  0
 12 17  1  6  0  0  0
 12 15  1  0  0  0  0
 13 24  1  6  0  0  0
 13  2  1  0  0  0  0
 14 22  1  0  0  0  0
 15 14  1  0  0  0  0
 16  2  1  0  0  0  0
 18 12  1  0  0  0  0
 18 19  1  1  0  0  0
 20  1  2  0  0  0  0
 21 23  1  0  0  0  0
 22  6  2  0  0  0  0
 23  7  2  0  0  0  0
 25  9  1  0  0  0  0
 26 25  1  0  0  0  0
 27 26  1  0  0  0  0
 29 30  2  0  0  0  0
 30 27  1  0  0  0  0
 30 28  1  0  0  0  0
 33 34  1  0  0  0  0
 34 31  1  6  0  0  0
 34 32  1  0  0  0  0
 35 38  1  0  0  0  0
 35 32  2  0  0  0  0
 36 33  2  0  0  0  0
 36 35  1  0  0  0  0
 38 37  1  0  0  0  0
M  END
>  <MODEL>
6

>  <REMARK>
 VINA RESULT:      -7.6      3.283      7.717
  Name = 
  7 active torsions:
  status: ('A' for Active; 'I' for Inactive)
    1  A    between atoms: N_5  and  C_12
    2  A    between atoms: N_5  and  C_24
    3  A    between atoms: C_7  and  N_16
    4  A    between atoms: N_16  and  C_25
    5  A    between atoms: C_24  and  C_30
    6  A    between atoms: C_26  and  O_29
    7  A    between atoms: C_30  and  C_38
                            x       y       z     vdW  Elec       q    Type
                         _______ _______ _______ _____ _____    ______ ____

>  <TORSDO>
F 7

$$$$
=
 OpenBabel11042410443D

 38 42  0  0  1  0  0  0  0  0999 V2000
  187.4010  178.4520  142.5880 C   0  0  0  0  0  3  0  0  0  0  0  0
  189.8480  178.3570  142.1320 C   0  0  2  0  0  3  0  0  0  0  0  0
  191.1400  176.4070  138.1150 C   0  0  0  0  0  2  0  0  0  0  0  0
  190.3080  176.9270  139.2500 C   0  0  0  0  0  0  0  0  0  0  0  0
  190.4990  176.7240  136.7530 C   0  0  2  0  0  3  0  0  0  0  0  0
  184.0250  179.3100  139.1580 C   0  0  0  0  0  0  0  0  0  0  0  0
  184.4210  179.3860  140.4600 N   0  0  0  0  0  0  0  0  0  0  0  0
  190.6450  176.5880  140.5030 C   0  0  0  0  0  3  0  0  0  0  0  0
  190.6660  176.7630  143.9430 C   0  0  0  0  0  0  0  0  0  0  0  0
  186.3840  178.1390  139.9660 C   0  0  0  0  0  3  0  0  0  0  0  0
  182.7480  179.9390  138.7340 C   0  0  0  0  0  1  0  0  0  0  0  0
  188.2010  176.8540  137.9670 C   0  0  2  0  0  3  0  0  0  0  0  0
  189.8210  176.8770  141.7270 C   0  0  1  0  0  3  0  0  0  0  0  0
  186.0310  178.0790  138.6220 C   0  0  0  0  0  0  0  0  0  0  0  0
  186.9250  177.5120  137.6530 N   0  0  0  0  0  2  0  0  0  0  0  0
  190.4420  178.5290  143.8510 S   0  0  0  0  0  0  0  0  0  0  0  0
  189.0550  177.6850  138.9300 C   0  0  0  0  0  2  0  0  0  0  0  0
  188.9770  176.4540  136.6820 C   0  0  1  0  0  3  0  0  0  0  0  0
  188.4510  177.0820  135.5490 O   0  0  0  0  0  1  0  0  0  0  0  0
  188.4830  178.9620  141.9830 C   0  0  0  0  0  3  0  0  0  0  0  0
  186.0270  179.0060  142.3180 C   0  0  0  0  0  2  0  0  0  0  0  0
  184.8350  178.6720  138.2110 C   0  0  0  0  0  3  0  0  0  0  0  0
  185.5830  178.8200  140.8870 C   0  0  0  0  0  0  0  0  0  0  0  0
  190.3420  176.0790  142.8650 C   0  0  0  0  0  3  0  0  0  0  0  0
  191.1850  176.1070  145.0980 N   0  0  0  0  0  2  0  0  0  0  0  0
  191.3720  176.7990  146.3640 C   0  0  0  0  0  2  0  0  0  0  0  0
  190.2910  176.3870  147.3490 C   0  0  0  0  0  2  0  0  0  0  0  0
  188.3330  177.4840  146.5460 O   0  0  0  0  0  0  0  0  0  0  0  0
  189.2060  178.3200  148.4930 O   0  0  0  0  0  1  0  0  0  0  0  0
  189.2280  177.4300  147.4280 C   0  0  0  0  0  0  0  0  0  0  0  0
  191.2270  176.0950  135.6490 N   0  0  0  0  0  2  0  0  0  0  0  0
  192.4210  174.0410  135.8280 N   0  0  0  0  0  0  0  0  0  0  0  0
  193.6520  176.0210  135.3800 C   0  0  0  0  0  3  0  0  0  0  0  0
  192.4500  175.4580  136.1350 C   0  0  1  0  0  3  0  0  0  0  0  0
  193.3950  173.7070  135.0590 C   0  0  0  0  0  0  0  0  0  0  0  0
  194.2870  174.8290  134.6800 C   0  0  0  0  0  3  0  0  0  0  0  0
  193.0900  171.2900  135.4000 C   0  0  0  0  0  1  0  0  0  0  0  0
  193.5650  172.3890  134.6360 O   0  0  0  0  0  0  0  0  0  0  0  0
  2 20  1  1  0  0  0
  2 16  1  0  0  0  0
  3  4  1  0  0  0  0
  4  8  2  0  0  0  0
  5 31  1  6  0  0  0
  5  3  1  0  0  0  0
  6  7  1  0  0  0  0
  7 23  2  0  0  0  0
  9 25  1  0  0  0  0
 10 23  1  0  0  0  0
 11  6  1  0  0  0  0
 12 17  1  1  0  0  0
 13  8  1  6  0  0  0
 13  2  1  0  0  0  0
 13 24  1  0  0  0  0
 14 10  2  0  0  0  0
 15 12  1  0  0  0  0
 15 14  1  0  0  0  0
 16  9  1  0  0  0  0
 17  4  1  0  0  0  0
 18 19  1  6  0  0  0
 18  5  1  0  0  0  0
 18 12  1  0  0  0  0
 20  1  2  0  0  0  0
 21  1  1  0  0  0  0
 22 14  1  0  0  0  0
 22  6  2  0  0  0  0
 23 21  1  0  0  0  0
 24  9  2  0  0  0  0
 25 26  1  0  0  0  0
 26 27  1  0  0  0  0
 27 30  1  0  0  0  0
 28 30  2  0  0  0  0
 30 29  1  0  0  0  0
 32 34  1  0  0  0  0
 33 34  1  0  0  0  0
 34 31  1  6  0  0  0
 35 32  2  0  0  0  0
 36 35  1  0  0  0  0
 36 33  2  0  0  0  0
 38 35  1  0  0  0  0
 38 37  1  0  0  0  0
M  END
>  <MODEL>
7

>  <REMARK>
 VINA RESULT:      -7.2      2.834      8.069
  Name = 
  7 active torsions:
  status: ('A' for Active; 'I' for Inactive)
    1  A    between atoms: N_5  and  C_12
    2  A    between atoms: N_5  and  C_24
    3  A    between atoms: C_7  and  N_16
    4  A    between atoms: N_16  and  C_25
    5  A    between atoms: C_24  and  C_30
    6  A    between atoms: C_26  and  O_29
    7  A    between atoms: C_30  and  C_38
                            x       y       z     vdW  Elec       q    Type
                         _______ _______ _______ _____ _____    ______ ____

>  <TORSDO>
F 7

$$$$
=
 OpenBabel11042410443D

 38 42  0  0  1  0  0  0  0  0999 V2000
  188.6000  177.5330  143.0190 C   0  0  0  0  0  3  0  0  0  0  0  0
  186.4750  176.9880  144.1980 C   0  0  2  0  0  3  0  0  0  0  0  0
  182.5740  178.7310  142.3660 C   0  0  0  0  0  2  0  0  0  0  0  0
  184.0170  178.3940  142.6040 C   0  0  0  0  0  0  0  0  0  0  0  0
  182.2200  178.6730  140.8710 C   0  0  2  0  0  3  0  0  0  0  0  0
  189.0210  177.8080  138.1570 C   0  0  0  0  0  0  0  0  0  0  0  0
  189.5860  177.5580  139.3720 N   0  0  0  0  0  0  0  0  0  0  0  0
  184.5230  178.5610  143.8340 C   0  0  0  0  0  3  0  0  0  0  0  0
  186.7710  178.2000  146.4190 C   0  0  0  0  0  0  0  0  0  0  0  0
  187.5970  178.2520  140.4720 C   0  0  0  0  0  3  0  0  0  0  0  0
  189.8000  177.5720  136.9140 C   0  0  0  0  0  1  0  0  0  0  0  0
  184.7320  179.1050  140.3510 C   0  0  2  0  0  3  0  0  0  0  0  0
  185.9780  178.4400  144.1940 C   0  0  1  0  0  3  0  0  0  0  0  0
  186.9750  178.4780  139.2490 C   0  0  0  0  0  0  0  0  0  0  0  0
  185.5860  178.8340  139.1870 N   0  0  0  0  0  2  0  0  0  0  0  0
  187.1810  176.5680  145.8310 S   0  0  0  0  0  0  0  0  0  0  0  0
  184.8670  178.0220  141.4270 C   0  0  0  0  0  2  0  0  0  0  0  0
  183.2540  179.3490  139.9400 C   0  0  1  0  0  3  0  0  0  0  0  0
  183.0160  178.9490  138.6220 O   0  0  0  0  0  1  0  0  0  0  0  0
  187.4940  176.7840  143.1160 C   0  0  0  0  0  3  0  0  0  0  0  0
  189.5380  177.3870  141.8500 C   0  0  0  0  0  2  0  0  0  0  0  0
  187.6960  178.2540  138.0740 C   0  0  0  0  0  3  0  0  0  0  0  0
  188.9050  177.7640  140.5310 C   0  0  0  0  0  0  0  0  0  0  0  0
  186.1940  179.0040  145.5500 C   0  0  0  0  0  3  0  0  0  0  0  0
  187.0240  178.6280  147.7560 N   0  0  0  0  0  2  0  0  0  0  0  0
  187.9060  177.8950  148.6510 C   0  0  0  0  0  2  0  0  0  0  0  0
  189.3430  178.3470  148.4550 C   0  0  0  0  0  2  0  0  0  0  0  0
  190.3870  176.3340  147.7190 O   0  0  0  0  0  1  0  0  0  0  0  0
  190.2280  177.9980  146.1490 O   0  0  0  0  0  0  0  0  0  0  0  0
  190.0240  177.5050  147.4300 C   0  0  0  0  0  0  0  0  0  0  0  0
  180.8550  179.1420  140.6180 N   0  0  0  0  0  2  0  0  0  0  0  0
  179.4810  178.2100  138.9090 N   0  0  0  0  0  0  0  0  0  0  0  0
  180.8020  176.7350  140.2180 C   0  0  0  0  0  3  0  0  0  0  0  0
  179.9850  178.0250  140.2560 C   0  0  1  0  0  3  0  0  0  0  0  0
  179.8490  177.2540  138.1330 C   0  0  0  0  0  0  0  0  0  0  0  0
  180.6830  176.2190  138.7920 C   0  0  0  0  0  3  0  0  0  0  0  0
  180.1060  176.3610  135.8560 C   0  0  0  0  0  1  0  0  0  0  0  0
  179.4770  177.2260  136.7900 O   0  0  0  0  0  0  0  0  0  0  0  0
  1 20  2  0  0  0  0
  2 20  1  6  0  0  0
  2 16  1  0  0  0  0
  3  4  1  0  0  0  0
  4  8  2  0  0  0  0
  5 31  1  1  0  0  0
  5  3  1  0  0  0  0
  6  7  1  0  0  0  0
  7 23  2  0  0  0  0
  9 25  1  0  0  0  0
 10 23  1  0  0  0  0
 11  6  1  0  0  0  0
 12 17  1  1  0  0  0
 13  8  1  1  0  0  0
 13  2  1  0  0  0  0
 13 24  1  0  0  0  0
 14 10  2  0  0  0  0
 15 14  1  0  0  0  0
 15 12  1  0  0  0  0
 16  9  1  0  0  0  0
 17  4  1  0  0  0  0
 18 19  1  6  0  0  0
 18 12  1  0  0  0  0
 18  5  1  0  0  0  0
 21  1  1  0  0  0  0
 22  6  2  0  0  0  0
 22 14  1  0  0  0  0
 23 21  1  0  0  0  0
 24  9  2  0  0  0  0
 25 26  1  0  0  0  0
 27 26  1  0  0  0  0
 29 30  2  0  0  0  0
 30 28  1  0  0  0  0
 30 27  1  0  0  0  0
 32 34  1  0  0  0  0
 33 34  1  0  0  0  0
 34 31  1  6  0  0  0
 35 36  1  0  0  0  0
 35 32  2  0  0  0  0
 36 33  2  0  0  0  0
 37 38  1  0  0  0  0
 38 35  1  0  0  0  0
M  END
>  <MODEL>
8

>  <REMARK>
 VINA RESULT:      -7.2      4.413      9.449
  Name = 
  7 active torsions:
  status: ('A' for Active; 'I' for Inactive)
    1  A    between atoms: N_5  and  C_12
    2  A    between atoms: N_5  and  C_24
    3  A    between atoms: C_7  and  N_16
    4  A    between atoms: N_16  and  C_25
    5  A    between atoms: C_24  and  C_30
    6  A    between atoms: C_26  and  O_29
    7  A    between atoms: C_30  and  C_38
                            x       y       z     vdW  Elec       q    Type
                         _______ _______ _______ _____ _____    ______ ____

>  <TORSDO>
F 7

$$$$
=
 OpenBabel11042410443D

 38 42  0  0  1  0  0  0  0  0999 V2000
  188.6300  177.4630  143.0740 C   0  0  0  0  0  3  0  0  0  0  0  0
  186.4340  176.9560  144.1360 C   0  0  2  0  0  3  0  0  0  0  0  0
  182.6610  178.6760  142.0350 C   0  0  0  0  0  2  0  0  0  0  0  0
  184.0860  178.3370  142.3660 C   0  0  0  0  0  0  0  0  0  0  0  0
  182.3960  178.5840  140.5230 C   0  0  2  0  0  3  0  0  0  0  0  0
  189.3410  177.6200  138.2400 C   0  0  0  0  0  0  0  0  0  0  0  0
  189.8320  177.3960  139.4920 N   0  0  0  0  0  0  0  0  0  0  0  0
  184.5180  178.5300  143.6200 C   0  0  0  0  0  3  0  0  0  0  0  0
  186.6060  178.2190  146.3420 C   0  0  0  0  0  0  0  0  0  0  0  0
  187.7850  178.1260  140.4560 C   0  0  0  0  0  3  0  0  0  0  0  0
  190.1910  177.3510  137.0520 C   0  0  0  0  0  1  0  0  0  0  0  0
  184.9380  178.9900  140.1430 C   0  0  2  0  0  3  0  0  0  0  0  0
  185.9480  178.4100  144.0690 C   0  0  1  0  0  3  0  0  0  0  0  0
  187.2380  178.3270  139.1920 C   0  0  0  0  0  0  0  0  0  0  0  0
  185.8580  178.6880  139.0390 N   0  0  0  0  0  2  0  0  0  0  0  0
  187.0390  176.5720  145.8170 S   0  0  0  0  0  0  0  0  0  0  0  0
  185.0020  177.9330  141.2510 C   0  0  0  0  0  2  0  0  0  0  0  0
  183.4890  179.2320  139.6390 C   0  0  1  0  0  3  0  0  0  0  0  0
  183.3270  178.8030  138.3190 O   0  0  0  0  0  1  0  0  0  0  0  0
  187.5150  176.7210  143.1210 C   0  0  0  0  0  3  0  0  0  0  0  0
  189.6350  177.2840  141.9660 C   0  0  0  0  0  2  0  0  0  0  0  0
  188.0270  178.0710  138.0680 C   0  0  0  0  0  3  0  0  0  0  0  0
  189.0840  177.6330  140.6040 C   0  0  0  0  0  0  0  0  0  0  0  0
  186.0870  179.0050  145.4220 C   0  0  0  0  0  3  0  0  0  0  0  0
  186.7820  178.6770  147.6810 N   0  0  0  0  0  2  0  0  0  0  0  0
  187.6850  178.0190  148.6130 C   0  0  0  0  0  2  0  0  0  0  0  0
  189.1140  178.4680  148.3610 C   0  0  0  0  0  2  0  0  0  0  0  0
  190.0090  176.3530  147.7230 O   0  0  0  0  0  1  0  0  0  0  0  0
  190.1520  178.0050  146.1400 O   0  0  0  0  0  0  0  0  0  0  0  0
  189.7910  177.5500  147.4010 C   0  0  0  0  0  0  0  0  0  0  0  0
  181.0520  179.0530  140.1770 N   0  0  0  0  0  2  0  0  0  0  0  0
  181.0170  181.1430  139.0350 N   0  0  0  0  0  0  0  0  0  0  0  0
  179.5870  180.8630  140.9090 C   0  0  0  0  0  3  0  0  0  0  0  0
  180.9550  180.5030  140.3350 C   0  0  1  0  0  3  0  0  0  0  0  0
  179.9460  181.8090  138.7870 C   0  0  0  0  0  0  0  0  0  0  0  0
  178.9310  181.7570  139.8670 C   0  0  0  0  0  3  0  0  0  0  0  0
  180.4470  183.7420  137.3530 C   0  0  0  0  0  1  0  0  0  0  0  0
  179.7870  182.5080  137.5910 O   0  0  0  0  0  0  0  0  0  0  0  0
  1 20  2  0  0  0  0
  2 20  1  6  0  0  0
  2 16  1  0  0  0  0
  3  4  1  0  0  0  0
  4  8  2  0  0  0  0
  5 31  1  1  0  0  0
  5  3  1  0  0  0  0
  6  7  1  0  0  0  0
  7 23  2  0  0  0  0
  9 25  1  0  0  0  0
 10 23  1  0  0  0  0
 11  6  1  0  0  0  0
 12 17  1  1  0  0  0
 13  8  1  1  0  0  0
 13  2  1  0  0  0  0
 13 24  1  0  0  0  0
 14 10  2  0  0  0  0
 15 14  1  0  0  0  0
 15 12  1  0  0  0  0
 16  9  1  0  0  0  0
 17  4  1  0  0  0  0
 18 19  1  6  0  0  0
 18 12  1  0  0  0  0
 18  5  1  0  0  0  0
 21  1  1  0  0  0  0
 22  6  2  0  0  0  0
 22 14  1  0  0  0  0
 23 21  1  0  0  0  0
 24  9  2  0  0  0  0
 25 26  1  0  0  0  0
 27 26  1  0  0  0  0
 29 30  2  0  0  0  0
 30 28  1  0  0  0  0
 30 27  1  0  0  0  0
 32 34  1  0  0  0  0
 34 31  1  6  0  0  0
 34 33  1  0  0  0  0
 35 32  2  0  0  0  0
 35 36  1  0  0  0  0
 36 33  2  0  0  0  0
 37 38  1  0  0  0  0
 38 35  1  0  0  0  0
M  END
>  <MODEL>
9

>  <REMARK>
 VINA RESULT:      -7.1      4.591      9.568
  Name = 
  7 active torsions:
  status: ('A' for Active; 'I' for Inactive)
    1  A    between atoms: N_5  and  C_12
    2  A    between atoms: N_5  and  C_24
    3  A    between atoms: C_7  and  N_16
    4  A    between atoms: N_16  and  C_25
    5  A    between atoms: C_24  and  C_30
    6  A    between atoms: C_26  and  O_29
    7  A    between atoms: C_30  and  C_38
                            x       y       z     vdW  Elec       q    Type
                         _______ _______ _______ _____ _____    ______ ____

>  <TORSDO>
F 7

$$$$
