=
 OpenBabel11042410283D

 35 39  0  0  1  0  0  0  0  0999 V2000
  190.1410  176.7580  146.6830 C   0  0  0  0  0  0  0  0  0  0  0  0
  188.9940  177.2050  147.3320 C   0  0  0  0  0  3  0  0  0  0  0  0
  185.9540  177.7950  144.3350 C   0  0  1  0  0  3  0  0  0  0  0  0
  185.5670  177.9410  145.8230 C   0  0  2  0  0  3  0  0  0  0  0  0
  187.9810  177.5520  146.4310 C   0  0  0  0  0  0  0  0  0  0  0  0
  185.4600  179.1210  144.8760 C   0  0  2  0  0  3  0  0  0  0  0  0
  189.9250  176.8840  145.0140 S   0  0  0  0  0  0  0  0  0  0  0  0
  187.4520  177.8940  143.9900 C   0  0  1  0  0  3  0  0  0  0  0  0
  186.7010  178.2070  146.8260 C   0  0  0  0  0  2  0  0  0  0  0  0
  188.3280  177.4100  145.1050 C   0  0  0  0  0  0  0  0  0  0  0  0
  191.4280  176.4010  147.3540 C   0  0  0  0  0  0  0  0  0  0  0  0
  191.3370  175.1380  147.9080 F   0  0  0  0  0  0  0  0  0  0  0  0
  191.7100  177.3120  148.3560 F   0  0  0  0  0  0  0  0  0  0  0  0
  192.4500  176.4180  146.4240 F   0  0  0  0  0  0  0  0  0  0  0  0
  184.0110  179.3120  144.4760 C   0  0  0  0  0  2  0  0  0  0  0  0
  183.6900  178.4840  143.2420 C   0  0  0  0  0  2  0  0  0  0  0  0
  182.8780  179.2550  142.3120 N   0  0  0  0  0  0  0  0  0  0  0  0
  181.5010  178.8390  142.5140 C   0  0  0  0  0  1  0  0  0  0  0  0
  182.3180  179.3110  139.7090 O   0  0  0  0  0  0  0  0  0  0  0  0
  183.3290  178.7980  140.6980 S   0  0  0  0  0  0  0  0  0  0  0  0
  183.4030  177.3000  140.6010 O   0  0  0  0  0  0  0  0  0  0  0  0
  184.8790  179.4610  140.3220 N   0  0  0  0  0  1  0  0  0  0  0  0
  187.7610  177.2110  142.6520 C   0  0  0  0  0  2  0  0  0  0  0  0
  188.1010  178.6570  140.7220 O   0  0  0  0  0  0  0  0  0  0  0  0
  190.5340  176.1120  141.6870 O   0  0  0  0  0  1  0  0  0  0  0  0
  188.3990  178.1380  135.9640 O   0  0  0  0  0  0  0  0  0  0  0  0
  190.9940  175.5010  138.8270 O   0  0  0  0  0  0  0  0  0  0  0  0
  190.1360  176.4040  138.6450 C   0  0  0  0  0  0  0  0  0  0  0  0
  189.5090  177.1140  139.7600 C   0  0  0  0  0  0  0  0  0  0  0  0
  188.7680  177.9760  141.7910 C   0  0  2  0  0  3  0  0  0  0  0  0
  188.7480  177.8140  137.1280 C   0  0  0  0  0  0  0  0  0  0  0  0
  189.6630  177.0010  141.0680 C   0  0  0  0  0  0  0  0  0  0  0  0
  189.7320  176.7770  137.3200 N   0  0  0  0  0  2  0  0  0  0  0  0
  188.5380  178.1390  139.5180 C   0  0  0  0  0  0  0  0  0  0  0  0
  188.1480  178.5030  138.2960 C   0  0  0  0  0  3  0  0  0  0  0  0
  1  2  2  0  0  0  0
  1 11  1  0  0  0  0
  3  6  1  0  0  0  0
  3  4  1  0  0  0  0
  4  9  1  0  0  0  0
  5  9  1  0  0  0  0
  5  2  1  0  0  0  0
  6  4  1  0  0  0  0
  7 10  1  0  0  0  0
  7  1  1  0  0  0  0
  8  3  1  0  0  0  0
  8 10  1  0  0  0  0
 10  5  2  0  0  0  0
 11 12  1  0  0  0  0
 11 13  1  0  0  0  0
 14 11  1  0  0  0  0
 15  6  1  0  0  0  0
 16 15  1  0  0  0  0
 17 18  1  0  0  0  0
 17 16  1  0  0  0  0
 19 20  2  0  0  0  0
 20 17  1  0  0  0  0
 21 20  2  0  0  0  0
 22 20  1  0  0  0  0
 23  8  1  0  0  0  0
 24 30  1  0  0  0  0
 26 31  2  0  0  0  0
 28 27  2  0  0  0  0
 28 29  1  0  0  0  0
 29 32  2  0  0  0  0
 30 23  1  0  0  0  0
 31 33  1  0  0  0  0
 31 35  1  0  0  0  0
 32 25  1  0  0  0  0
 32 30  1  0  0  0  0
 33 28  1  0  0  0  0
 34 29  1  0  0  0  0
 34 24  1  0  0  0  0
 35 34  2  0  0  0  0
M  END
>  <MODEL>
1

>  <REMARK>
 VINA RESULT:     -10.3      0.000      0.000
  Name = 
  7 active torsions:
  status: ('A' for Active; 'I' for Inactive)
    1  A    between atoms: C_1  and  C_3
    2  A    between atoms: C_2  and  C_24
    3  A    between atoms: C_2  and  N_31
    4  A    between atoms: S_7  and  N_31
    5  A    between atoms: C_14  and  C_27
    6  A    between atoms: C_21  and  C_24
    7  A    between atoms: C_27  and  C_32
                            x       y       z     vdW  Elec       q    Type
                         _______ _______ _______ _____ _____    ______ ____

>  <TORSDO>
F 7

$$$$
=
 OpenBabel11042410283D

 35 39  0  0  1  0  0  0  0  0999 V2000
  187.5810  177.8500  147.0060 C   0  0  0  0  0  0  0  0  0  0  0  0
  186.2450  178.1840  147.2120 C   0  0  0  0  0  3  0  0  0  0  0  0
  184.3030  178.1890  143.3650 C   0  0  1  0  0  3  0  0  0  0  0  0
  183.4400  178.3770  144.6320 C   0  0  2  0  0  3  0  0  0  0  0  0
  185.5510  178.3410  146.0070 C   0  0  0  0  0  0  0  0  0  0  0  0
  183.5280  179.4720  143.5860 C   0  0  2  0  0  3  0  0  0  0  0  0
  187.9070  177.8420  145.3510 S   0  0  0  0  0  0  0  0  0  0  0  0
  185.8140  178.4590  143.5020 C   0  0  1  0  0  3  0  0  0  0  0  0
  184.1530  178.8490  145.9100 C   0  0  0  0  0  2  0  0  0  0  0  0
  186.3240  178.1630  144.8790 C   0  0  0  0  0  0  0  0  0  0  0  0
  188.6080  177.7040  148.0810 C   0  0  0  0  0  0  0  0  0  0  0  0
  188.0020  177.3330  149.2670 F   0  0  0  0  0  0  0  0  0  0  0  0
  189.2710  178.9040  148.2720 F   0  0  0  0  0  0  0  0  0  0  0  0
  189.5220  176.7340  147.7140 F   0  0  0  0  0  0  0  0  0  0  0  0
  182.2760  179.4500  142.7320 C   0  0  0  0  0  2  0  0  0  0  0  0
  182.5010  178.6070  141.4870 C   0  0  0  0  0  2  0  0  0  0  0  0
  181.9290  179.2640  140.3210 N   0  0  0  0  0  0  0  0  0  0  0  0
  180.7490  178.5020  139.9480 C   0  0  0  0  0  1  0  0  0  0  0  0
  184.1050  180.2180  139.1180 O   0  0  0  0  0  0  0  0  0  0  0  0
  183.0680  179.1330  139.0160 S   0  0  0  0  0  0  0  0  0  0  0  0
  182.3470  179.2570  137.7030 O   0  0  0  0  0  0  0  0  0  0  0  0
  183.8470  177.5920  139.0840 N   0  0  0  0  0  1  0  0  0  0  0  0
  186.6090  177.7400  142.4060 C   0  0  0  0  0  2  0  0  0  0  0  0
  186.9050  178.6340  140.1600 O   0  0  0  0  0  0  0  0  0  0  0  0
  189.7270  178.0670  142.4060 O   0  0  0  0  0  1  0  0  0  0  0  0
  188.9750  177.2220  136.0710 O   0  0  0  0  0  0  0  0  0  0  0  0
  191.3360  177.1220  140.1080 O   0  0  0  0  0  0  0  0  0  0  0  0
  190.2850  177.3630  139.4580 C   0  0  0  0  0  0  0  0  0  0  0  0
  189.0770  177.8830  140.1010 C   0  0  0  0  0  0  0  0  0  0  0  0
  187.4030  178.6860  141.5020 C   0  0  2  0  0  3  0  0  0  0  0  0
  189.0180  177.4210  137.3120 C   0  0  0  0  0  0  0  0  0  0  0  0
  188.8180  178.1860  141.3610 C   0  0  0  0  0  0  0  0  0  0  0  0
  190.2280  177.1370  138.0430 N   0  0  0  0  0  2  0  0  0  0  0  0
  187.9000  178.1510  139.3310 C   0  0  0  0  0  0  0  0  0  0  0  0
  187.8240  177.9490  138.0160 C   0  0  0  0  0  3  0  0  0  0  0  0
  1  2  2  0  0  0  0
  1 11  1  0  0  0  0
  3  8  1  0  0  0  0
  3  6  1  0  0  0  0
  3  4  1  0  0  0  0
  4  9  1  0  0  0  0
  5  2  1  0  0  0  0
  6  4  1  0  0  0  0
  7  1  1  0  0  0  0
  8 10  1  0  0  0  0
  9  5  1  0  0  0  0
 10  7  1  0  0  0  0
 10  5  2  0  0  0  0
 11 13  1  0  0  0  0
 11 12  1  0  0  0  0
 14 11  1  0  0  0  0
 15  6  1  0  0  0  0
 16 15  1  0  0  0  0
 17 16  1  0  0  0  0
 18 17  1  0  0  0  0
 20 22  1  0  0  0  0
 20 19  2  0  0  0  0
 20 17  1  0  0  0  0
 21 20  2  0  0  0  0
 23  8  1  0  0  0  0
 24 30  1  0  0  0  0
 26 31  2  0  0  0  0
 28 29  1  0  0  0  0
 28 27  2  0  0  0  0
 29 32  2  0  0  0  0
 30 23  1  0  0  0  0
 31 35  1  0  0  0  0
 31 33  1  0  0  0  0
 32 30  1  0  0  0  0
 32 25  1  0  0  0  0
 33 28  1  0  0  0  0
 34 29  1  0  0  0  0
 34 24  1  0  0  0  0
 35 34  2  0  0  0  0
M  END
>  <MODEL>
2

>  <REMARK>
 VINA RESULT:      -9.5      1.729      2.260
  Name = 
  7 active torsions:
  status: ('A' for Active; 'I' for Inactive)
    1  A    between atoms: C_1  and  C_3
    2  A    between atoms: C_2  and  C_24
    3  A    between atoms: C_2  and  N_31
    4  A    between atoms: S_7  and  N_31
    5  A    between atoms: C_14  and  C_27
    6  A    between atoms: C_21  and  C_24
    7  A    between atoms: C_27  and  C_32
                            x       y       z     vdW  Elec       q    Type
                         _______ _______ _______ _____ _____    ______ ____

>  <TORSDO>
F 7

$$$$
=
 OpenBabel11042410283D

 35 39  0  0  1  0  0  0  0  0999 V2000
  187.9150  177.8140  146.9410 C   0  0  0  0  0  0  0  0  0  0  0  0
  186.5910  178.2340  146.8470 C   0  0  0  0  0  3  0  0  0  0  0  0
  185.4010  177.8580  142.7220 C   0  0  1  0  0  3  0  0  0  0  0  0
  184.3330  178.2400  143.7700 C   0  0  2  0  0  3  0  0  0  0  0  0
  186.1450  178.2740  145.5210 C   0  0  0  0  0  0  0  0  0  0  0  0
  184.6900  179.1930  142.6450 C   0  0  2  0  0  3  0  0  0  0  0  0
  188.5420  177.5880  145.3910 S   0  0  0  0  0  0  0  0  0  0  0  0
  186.8760  178.0700  143.1170 C   0  0  1  0  0  3  0  0  0  0  0  0
  184.8280  178.8310  145.1000 C   0  0  0  0  0  2  0  0  0  0  0  0
  187.0990  177.9220  144.5910 C   0  0  0  0  0  0  0  0  0  0  0  0
  188.7120  177.7540  148.2030 C   0  0  0  0  0  0  0  0  0  0  0  0
  189.0380  179.0310  148.6180 F   0  0  0  0  0  0  0  0  0  0  0  0
  189.8780  177.0390  147.9960 F   0  0  0  0  0  0  0  0  0  0  0  0
  187.9670  177.1310  149.1870 F   0  0  0  0  0  0  0  0  0  0  0  0
  183.6200  179.1240  141.5730 C   0  0  0  0  0  2  0  0  0  0  0  0
  182.2520  178.9250  142.2060 C   0  0  0  0  0  2  0  0  0  0  0  0
  181.3140  178.3950  141.2260 N   0  0  0  0  0  0  0  0  0  0  0  0
  182.0990  177.9960  140.0700 C   0  0  0  0  0  1  0  0  0  0  0  0
  180.0870  180.6750  141.8480 O   0  0  0  0  0  0  0  0  0  0  0  0
  180.2700  179.6890  140.7260 S   0  0  0  0  0  0  0  0  0  0  0  0
  178.9310  179.1320  140.3320 O   0  0  0  0  0  0  0  0  0  0  0  0
  180.9640  180.4970  139.3660 N   0  0  0  0  0  1  0  0  0  0  0  0
  187.8090  177.1850  142.2820 C   0  0  0  0  0  2  0  0  0  0  0  0
  187.9880  178.5450  140.2690 O   0  0  0  0  0  0  0  0  0  0  0  0
  190.6300  176.2420  141.2920 O   0  0  0  0  0  1  0  0  0  0  0  0
  188.1990  177.7890  135.5380 O   0  0  0  0  0  0  0  0  0  0  0  0
  191.0590  175.5100  138.4560 O   0  0  0  0  0  0  0  0  0  0  0  0
  190.1300  176.3360  138.2520 C   0  0  0  0  0  0  0  0  0  0  0  0
  189.4820  177.0590  139.3470 C   0  0  0  0  0  0  0  0  0  0  0  0
  188.7330  177.9740  141.3510 C   0  0  2  0  0  3  0  0  0  0  0  0
  188.6020  177.5560  136.7060 C   0  0  0  0  0  0  0  0  0  0  0  0
  189.6780  177.0290  140.6540 C   0  0  0  0  0  0  0  0  0  0  0  0
  189.6650  176.6060  136.9220 N   0  0  0  0  0  2  0  0  0  0  0  0
  188.4310  177.9950  139.0810 C   0  0  0  0  0  0  0  0  0  0  0  0
  187.9820  178.2620  137.8540 C   0  0  0  0  0  3  0  0  0  0  0  0
  1 11  1  0  0  0  0
  2  1  2  0  0  0  0
  3  8  1  0  0  0  0
  3  4  1  0  0  0  0
  4  9  1  0  0  0  0
  5  2  1  0  0  0  0
  6  3  1  0  0  0  0
  6  4  1  0  0  0  0
  7  1  1  0  0  0  0
  8 10  1  0  0  0  0
  9  5  1  0  0  0  0
 10  7  1  0  0  0  0
 10  5  2  0  0  0  0
 11 12  1  0  0  0  0
 11 14  1  0  0  0  0
 13 11  1  0  0  0  0
 15 16  1  0  0  0  0
 15  6  1  0  0  0  0
 17 16  1  0  0  0  0
 18 17  1  0  0  0  0
 20 17  1  0  0  0  0
 20 19  2  0  0  0  0
 21 20  2  0  0  0  0
 22 20  1  0  0  0  0
 23  8  1  0  0  0  0
 24 30  1  0  0  0  0
 26 31  2  0  0  0  0
 28 27  2  0  0  0  0
 28 29  1  0  0  0  0
 29 32  2  0  0  0  0
 30 23  1  0  0  0  0
 31 33  1  0  0  0  0
 31 35  1  0  0  0  0
 32 25  1  0  0  0  0
 32 30  1  0  0  0  0
 33 28  1  0  0  0  0
 34 29  1  0  0  0  0
 34 24  1  0  0  0  0
 35 34  2  0  0  0  0
M  END
>  <MODEL>
3

>  <REMARK>
 VINA RESULT:      -9.2      1.787      2.366
  Name = 
  7 active torsions:
  status: ('A' for Active; 'I' for Inactive)
    1  A    between atoms: C_1  and  C_3
    2  A    between atoms: C_2  and  C_24
    3  A    between atoms: C_2  and  N_31
    4  A    between atoms: S_7  and  N_31
    5  A    between atoms: C_14  and  C_27
    6  A    between atoms: C_21  and  C_24
    7  A    between atoms: C_27  and  C_32
                            x       y       z     vdW  Elec       q    Type
                         _______ _______ _______ _____ _____    ______ ____

>  <TORSDO>
F 7

$$$$
=
 OpenBabel11042410283D

 35 39  0  0  1  0  0  0  0  0999 V2000
  188.8490  177.8870  147.0160 C   0  0  0  0  0  0  0  0  0  0  0  0
  190.1140  178.1880  146.5190 C   0  0  0  0  0  3  0  0  0  0  0  0
  189.9570  177.7550  142.2330 C   0  0  1  0  0  3  0  0  0  0  0  0
  191.2410  178.3260  142.8760 C   0  0  2  0  0  3  0  0  0  0  0  0
  190.2070  177.9520  145.1430 C   0  0  0  0  0  0  0  0  0  0  0  0
  191.2760  177.0200  142.1050 C   0  0  2  0  0  3  0  0  0  0  0  0
  187.8970  177.2500  145.7770 S   0  0  0  0  0  0  0  0  0  0  0  0
  189.0060  176.9690  143.1560 C   0  0  1  0  0  3  0  0  0  0  0  0
  191.4770  178.0340  144.3660 C   0  0  0  0  0  2  0  0  0  0  0  0
  189.0560  177.4510  144.5730 C   0  0  0  0  0  0  0  0  0  0  0  0
  188.4540  177.9410  148.4560 C   0  0  0  0  0  0  0  0  0  0  0  0
  187.4770  178.9020  148.6430 F   0  0  0  0  0  0  0  0  0  0  0  0
  189.5500  178.2590  149.2390 F   0  0  0  0  0  0  0  0  0  0  0  0
  187.9610  176.7100  148.8440 F   0  0  0  0  0  0  0  0  0  0  0  0
  191.8510  177.2680  140.7250 C   0  0  0  0  0  2  0  0  0  0  0  0
  190.8280  176.9170  139.6570 C   0  0  0  0  0  2  0  0  0  0  0  0
  191.3460  175.8740  138.7830 N   0  0  0  0  0  0  0  0  0  0  0  0
  192.5100  176.4290  138.1140 C   0  0  0  0  0  1  0  0  0  0  0  0
  190.5730  176.1430  136.2490 O   0  0  0  0  0  0  0  0  0  0  0  0
  190.1500  175.5500  137.5650 S   0  0  0  0  0  0  0  0  0  0  0  0
  188.8350  176.1470  137.9790 O   0  0  0  0  0  0  0  0  0  0  0  0
  189.9590  173.8420  137.3850 N   0  0  0  0  0  1  0  0  0  0  0  0
  187.5810  176.9370  142.5880 C   0  0  0  0  0  2  0  0  0  0  0  0
  185.6480  178.3090  143.1450 O   0  0  0  0  0  0  0  0  0  0  0  0
  187.5030  178.7480  140.0310 O   0  0  0  0  0  1  0  0  0  0  0  0
  181.2250  178.9930  141.4230 O   0  0  0  0  0  0  0  0  0  0  0  0
  184.9520  179.2240  138.6060 O   0  0  0  0  0  0  0  0  0  0  0  0
  184.4490  179.0470  139.7460 C   0  0  0  0  0  0  0  0  0  0  0  0
  185.2720  178.7560  140.9200 C   0  0  0  0  0  0  0  0  0  0  0  0
  186.9260  178.3160  142.4970 C   0  0  2  0  0  3  0  0  0  0  0  0
  182.4690  178.9220  141.2560 C   0  0  0  0  0  0  0  0  0  0  0  0
  186.5790  178.6200  141.0620 C   0  0  0  0  0  0  0  0  0  0  0  0
  183.0300  179.1260  139.9430 N   0  0  0  0  0  2  0  0  0  0  0  0
  184.6680  178.5650  142.2040 C   0  0  0  0  0  0  0  0  0  0  0  0
  183.3530  178.6330  142.4120 C   0  0  0  0  0  3  0  0  0  0  0  0
  1 11  1  0  0  0  0
  2  1  2  0  0  0  0
  3  4  1  0  0  0  0
  3  8  1  0  0  0  0
  4  9  1  0  0  0  0
  5  2  1  0  0  0  0
  6  3  1  0  0  0  0
  6  4  1  0  0  0  0
  7  1  1  0  0  0  0
  8 10  1  0  0  0  0
  9  5  1  0  0  0  0
 10  5  2  0  0  0  0
 10  7  1  0  0  0  0
 11 12  1  0  0  0  0
 11 14  1  0  0  0  0
 11 13  1  0  0  0  0
 15  6  1  0  0  0  0
 16 15  1  0  0  0  0
 17 16  1  0  0  0  0
 18 17  1  0  0  0  0
 19 20  2  0  0  0  0
 20 21  2  0  0  0  0
 20 17  1  0  0  0  0
 22 20  1  0  0  0  0
 23  8  1  0  0  0  0
 25 32  1  0  0  0  0
 27 28  2  0  0  0  0
 28 33  1  0  0  0  0
 28 29  1  0  0  0  0
 29 32  2  0  0  0  0
 29 34  1  0  0  0  0
 30 23  1  0  0  0  0
 30 24  1  0  0  0  0
 31 26  2  0  0  0  0
 31 35  1  0  0  0  0
 32 30  1  0  0  0  0
 33 31  1  0  0  0  0
 34 35  2  0  0  0  0
 34 24  1  0  0  0  0
M  END
>  <MODEL>
4

>  <REMARK>
 VINA RESULT:      -8.9      2.619      6.097
  Name = 
  7 active torsions:
  status: ('A' for Active; 'I' for Inactive)
    1  A    between atoms: C_1  and  C_3
    2  A    between atoms: C_2  and  C_24
    3  A    between atoms: C_2  and  N_31
    4  A    between atoms: S_7  and  N_31
    5  A    between atoms: C_14  and  C_27
    6  A    between atoms: C_21  and  C_24
    7  A    between atoms: C_27  and  C_32
                            x       y       z     vdW  Elec       q    Type
                         _______ _______ _______ _____ _____    ______ ____

>  <TORSDO>
F 7

$$$$
=
 OpenBabel11042410283D

 35 39  0  0  1  0  0  0  0  0999 V2000
  188.7050  177.9060  147.0600 C   0  0  0  0  0  0  0  0  0  0  0  0
  189.9210  178.1740  146.4370 C   0  0  0  0  0  3  0  0  0  0  0  0
  189.3350  177.7100  142.1930 C   0  0  1  0  0  3  0  0  0  0  0  0
  190.6890  178.2560  142.7000 C   0  0  2  0  0  3  0  0  0  0  0  0
  189.8730  177.9240  145.0610 C   0  0  0  0  0  0  0  0  0  0  0  0
  190.6180  176.9430  141.9440 C   0  0  2  0  0  3  0  0  0  0  0  0
  187.6220  177.2820  145.9260 S   0  0  0  0  0  0  0  0  0  0  0  0
  188.4610  176.9540  143.2120 C   0  0  1  0  0  3  0  0  0  0  0  0
  191.0620  177.9700  144.1630 C   0  0  0  0  0  2  0  0  0  0  0  0
  188.6610  177.4460  144.6130 C   0  0  0  0  0  0  0  0  0  0  0  0
  188.4540  177.9820  148.5310 C   0  0  0  0  0  0  0  0  0  0  0  0
  189.6330  178.2620  149.1970 F   0  0  0  0  0  0  0  0  0  0  0  0
  187.9540  176.7770  148.9910 F   0  0  0  0  0  0  0  0  0  0  0  0
  187.5370  178.9830  148.7890 F   0  0  0  0  0  0  0  0  0  0  0  0
  191.0600  177.1660  140.5110 C   0  0  0  0  0  2  0  0  0  0  0  0
  189.9250  177.7630  139.6960 C   0  0  0  0  0  2  0  0  0  0  0  0
  189.4300  176.7930  138.7300 N   0  0  0  0  0  0  0  0  0  0  0  0
  190.5780  176.0160  138.2930 C   0  0  0  0  0  1  0  0  0  0  0  0
  187.3920  177.3160  137.0990 O   0  0  0  0  0  0  0  0  0  0  0  0
  188.8340  177.6630  137.3500 S   0  0  0  0  0  0  0  0  0  0  0  0
  189.6490  177.3060  136.1390 O   0  0  0  0  0  0  0  0  0  0  0  0
  188.9700  179.3610  137.6360 N   0  0  0  0  0  1  0  0  0  0  0  0
  186.9880  176.9500  142.7870 C   0  0  0  0  0  2  0  0  0  0  0  0
  185.2250  178.4050  143.6280 O   0  0  0  0  0  0  0  0  0  0  0  0
  186.4630  178.6440  140.2020 O   0  0  0  0  0  1  0  0  0  0  0  0
  180.5700  179.1440  142.7410 O   0  0  0  0  0  0  0  0  0  0  0  0
  183.6980  179.1320  139.2620 O   0  0  0  0  0  0  0  0  0  0  0  0
  183.4170  179.0230  140.4840 C   0  0  0  0  0  0  0  0  0  0  0  0
  184.4430  178.7610  141.4950 C   0  0  0  0  0  0  0  0  0  0  0  0
  186.3560  178.3430  142.7510 C   0  0  2  0  0  3  0  0  0  0  0  0
  181.7590  179.0270  142.3460 C   0  0  0  0  0  0  0  0  0  0  0  0
  185.7500  178.5920  141.3940 C   0  0  0  0  0  0  0  0  0  0  0  0
  182.0640  179.1530  140.9420 N   0  0  0  0  0  2  0  0  0  0  0  0
  184.0890  178.6470  142.8790 C   0  0  0  0  0  0  0  0  0  0  0  0
  182.8400  178.7650  143.3270 C   0  0  0  0  0  3  0  0  0  0  0  0
  1 11  1  0  0  0  0
  2  1  2  0  0  0  0
  3  4  1  0  0  0  0
  3  8  1  0  0  0  0
  4  9  1  0  0  0  0
  5  2  1  0  0  0  0
  6  3  1  0  0  0  0
  6  4  1  0  0  0  0
  7  1  1  0  0  0  0
  8 10  1  0  0  0  0
  9  5  1  0  0  0  0
 10  5  2  0  0  0  0
 10  7  1  0  0  0  0
 11 14  1  0  0  0  0
 11 13  1  0  0  0  0
 11 12  1  0  0  0  0
 15  6  1  0  0  0  0
 16 15  1  0  0  0  0
 17 16  1  0  0  0  0
 18 17  1  0  0  0  0
 19 20  2  0  0  0  0
 20 22  1  0  0  0  0
 20 17  1  0  0  0  0
 21 20  2  0  0  0  0
 23  8  1  0  0  0  0
 25 32  1  0  0  0  0
 27 28  2  0  0  0  0
 28 33  1  0  0  0  0
 28 29  1  0  0  0  0
 29 34  1  0  0  0  0
 30 23  1  0  0  0  0
 30 24  1  0  0  0  0
 31 26  2  0  0  0  0
 31 35  1  0  0  0  0
 32 29  2  0  0  0  0
 32 30  1  0  0  0  0
 33 31  1  0  0  0  0
 34 35  2  0  0  0  0
 34 24  1  0  0  0  0
M  END
>  <MODEL>
5

>  <REMARK>
 VINA RESULT:      -8.8      2.452      5.953
  Name = 
  7 active torsions:
  status: ('A' for Active; 'I' for Inactive)
    1  A    between atoms: C_1  and  C_3
    2  A    between atoms: C_2  and  C_24
    3  A    between atoms: C_2  and  N_31
    4  A    between atoms: S_7  and  N_31
    5  A    between atoms: C_14  and  C_27
    6  A    between atoms: C_21  and  C_24
    7  A    between atoms: C_27  and  C_32
                            x       y       z     vdW  Elec       q    Type
                         _______ _______ _______ _____ _____    ______ ____

>  <TORSDO>
F 7

$$$$
=
 OpenBabel11042410283D

 35 39  0  0  1  0  0  0  0  0999 V2000
  188.2250  177.5270  146.5250 C   0  0  0  0  0  0  0  0  0  0  0  0
  186.9030  177.9120  146.3140 C   0  0  0  0  0  3  0  0  0  0  0  0
  186.2020  177.8680  142.0620 C   0  0  1  0  0  3  0  0  0  0  0  0
  185.0080  178.1210  143.0080 C   0  0  2  0  0  3  0  0  0  0  0  0
  186.6080  178.0560  144.9540 C   0  0  0  0  0  0  0  0  0  0  0  0
  185.4490  179.1810  142.0170 C   0  0  2  0  0  3  0  0  0  0  0  0
  189.0310  177.4600  145.0440 S   0  0  0  0  0  0  0  0  0  0  0  0
  187.6130  178.0910  142.6410 C   0  0  1  0  0  3  0  0  0  0  0  0
  185.3250  178.6060  144.4320 C   0  0  0  0  0  2  0  0  0  0  0  0
  187.6750  177.8190  144.1130 C   0  0  0  0  0  0  0  0  0  0  0  0
  188.8760  177.3790  147.8610 C   0  0  0  0  0  0  0  0  0  0  0  0
  190.0030  176.5870  147.7520 F   0  0  0  0  0  0  0  0  0  0  0  0
  187.9990  176.7920  148.7560 F   0  0  0  0  0  0  0  0  0  0  0  0
  189.2400  178.6260  148.3340 F   0  0  0  0  0  0  0  0  0  0  0  0
  184.5100  179.1750  140.8270 C   0  0  0  0  0  2  0  0  0  0  0  0
  183.4530  178.0960  140.9950 C   0  0  0  0  0  2  0  0  0  0  0  0
  182.2210  178.4870  140.3250 N   0  0  0  0  0  0  0  0  0  0  0  0
  181.2290  178.7000  141.3650 C   0  0  0  0  0  1  0  0  0  0  0  0
  182.5660  175.9490  139.5960 O   0  0  0  0  0  0  0  0  0  0  0  0
  181.6850  177.1460  139.3600 S   0  0  0  0  0  0  0  0  0  0  0  0
  181.7340  177.5200  137.9050 O   0  0  0  0  0  0  0  0  0  0  0  0
  180.0580  176.7460  139.7810 N   0  0  0  0  0  1  0  0  0  0  0  0
  188.6700  177.3140  141.8480 C   0  0  0  0  0  2  0  0  0  0  0  0
  188.3160  177.5320  139.4480 O   0  0  0  0  0  0  0  0  0  0  0  0
  191.6280  177.8360  140.9530 O   0  0  0  0  0  1  0  0  0  0  0  0
  189.5670  175.1310  135.4900 O   0  0  0  0  0  0  0  0  0  0  0  0
  192.7820  176.3710  138.6540 O   0  0  0  0  0  0  0  0  0  0  0  0
  191.5870  176.3420  138.2580 C   0  0  0  0  0  0  0  0  0  0  0  0
  190.5000  176.9440  139.0300 C   0  0  0  0  0  0  0  0  0  0  0  0
  189.0960  178.0060  140.5520 C   0  0  2  0  0  3  0  0  0  0  0  0
  189.8660  175.6860  136.5780 C   0  0  0  0  0  0  0  0  0  0  0  0
  190.4970  177.5830  140.1870 C   0  0  0  0  0  0  0  0  0  0  0  0
  191.2390  175.7100  137.0180 N   0  0  0  0  0  2  0  0  0  0  0  0
  189.1520  176.8960  138.5490 C   0  0  0  0  0  0  0  0  0  0  0  0
  188.8040  176.3150  137.4010 C   0  0  0  0  0  3  0  0  0  0  0  0
  1 11  1  0  0  0  0
  2  1  2  0  0  0  0
  3  8  1  0  0  0  0
  3  4  1  0  0  0  0
  4  9  1  0  0  0  0
  5  2  1  0  0  0  0
  6  3  1  0  0  0  0
  6  4  1  0  0  0  0
  7  1  1  0  0  0  0
  8 10  1  0  0  0  0
  9  5  1  0  0  0  0
 10  5  2  0  0  0  0
 10  7  1  0  0  0  0
 11 14  1  0  0  0  0
 11 13  1  0  0  0  0
 12 11  1  0  0  0  0
 15 16  1  0  0  0  0
 15  6  1  0  0  0  0
 17 16  1  0  0  0  0
 17 18  1  0  0  0  0
 20 19  2  0  0  0  0
 20 22  1  0  0  0  0
 20 17  1  0  0  0  0
 21 20  2  0  0  0  0
 23  8  1  0  0  0  0
 24 30  1  0  0  0  0
 26 31  2  0  0  0  0
 28 27  2  0  0  0  0
 28 29  1  0  0  0  0
 29 32  2  0  0  0  0
 30 23  1  0  0  0  0
 31 33  1  0  0  0  0
 31 35  1  0  0  0  0
 32 30  1  0  0  0  0
 32 25  1  0  0  0  0
 33 28  1  0  0  0  0
 34 29  1  0  0  0  0
 34 24  1  0  0  0  0
 35 34  2  0  0  0  0
M  END
>  <MODEL>
6

>  <REMARK>
 VINA RESULT:      -8.6      1.980      2.550
  Name = 
  7 active torsions:
  status: ('A' for Active; 'I' for Inactive)
    1  A    between atoms: C_1  and  C_3
    2  A    between atoms: C_2  and  C_24
    3  A    between atoms: C_2  and  N_31
    4  A    between atoms: S_7  and  N_31
    5  A    between atoms: C_14  and  C_27
    6  A    between atoms: C_21  and  C_24
    7  A    between atoms: C_27  and  C_32
                            x       y       z     vdW  Elec       q    Type
                         _______ _______ _______ _____ _____    ______ ____

>  <TORSDO>
F 7

$$$$
=
 OpenBabel11042410283D

 35 39  0  0  1  0  0  0  0  0999 V2000
  188.2870  177.6640  146.4080 C   0  0  0  0  0  0  0  0  0  0  0  0
  189.3800  177.4790  145.5650 C   0  0  0  0  0  3  0  0  0  0  0  0
  188.1060  178.4430  141.5620 C   0  0  1  0  0  3  0  0  0  0  0  0
  189.6000  178.1410  141.8130 C   0  0  2  0  0  3  0  0  0  0  0  0
  189.0370  177.6410  144.2180 C   0  0  0  0  0  0  0  0  0  0  0  0
  188.7740  177.2570  140.8990 C   0  0  2  0  0  3  0  0  0  0  0  0
  186.9040  177.9340  145.4810 S   0  0  0  0  0  0  0  0  0  0  0  0
  187.1060  177.9540  142.6280 C   0  0  1  0  0  3  0  0  0  0  0  0
  189.9580  177.3510  143.0820 C   0  0  0  0  0  2  0  0  0  0  0  0
  187.7050  177.9200  144.0010 C   0  0  0  0  0  0  0  0  0  0  0  0
  188.3000  177.4710  147.8900 C   0  0  0  0  0  0  0  0  0  0  0  0
  187.1810  178.0560  148.4530 F   0  0  0  0  0  0  0  0  0  0  0  0
  189.4320  178.0500  148.4360 F   0  0  0  0  0  0  0  0  0  0  0  0
  188.2990  176.1190  148.1760 F   0  0  0  0  0  0  0  0  0  0  0  0
  189.0820  177.6030  139.4560 C   0  0  0  0  0  2  0  0  0  0  0  0
  188.2940  176.7040  138.5170 C   0  0  0  0  0  2  0  0  0  0  0  0
  188.4680  177.1360  137.1380 N   0  0  0  0  0  0  0  0  0  0  0  0
  189.7140  177.8810  137.0870 C   0  0  0  0  0  1  0  0  0  0  0  0
  186.6720  177.9840  135.3630 O   0  0  0  0  0  0  0  0  0  0  0  0
  187.1840  178.2420  136.7550 S   0  0  0  0  0  0  0  0  0  0  0  0
  187.6910  179.6530  136.8440 O   0  0  0  0  0  0  0  0  0  0  0  0
  185.8910  178.0380  137.8830 N   0  0  0  0  0  1  0  0  0  0  0  0
  185.7970  178.7500  142.5700 C   0  0  0  0  0  2  0  0  0  0  0  0
  184.2070  177.7890  140.9960 O   0  0  0  0  0  0  0  0  0  0  0  0
  183.2140  178.8580  144.3430 O   0  0  0  0  0  1  0  0  0  0  0  0
  180.3130  179.2580  138.6120 O   0  0  0  0  0  0  0  0  0  0  0  0
  180.6730  179.8950  143.2320 O   0  0  0  0  0  0  0  0  0  0  0  0
  181.1450  179.4760  142.1430 C   0  0  0  0  0  0  0  0  0  0  0  0
  182.4560  178.8300  142.0640 C   0  0  0  0  0  0  0  0  0  0  0  0
  184.5540  177.8770  142.3830 C   0  0  2  0  0  3  0  0  0  0  0  0
  180.9640  179.1320  139.6810 C   0  0  0  0  0  0  0  0  0  0  0  0
  183.3560  178.5600  142.9930 C   0  0  0  0  0  0  0  0  0  0  0  0
  180.4090  179.6180  140.9200 N   0  0  0  0  0  2  0  0  0  0  0  0
  182.9620  178.3620  140.8090 C   0  0  0  0  0  0  0  0  0  0  0  0
  182.2970  178.4810  139.6600 C   0  0  0  0  0  3  0  0  0  0  0  0
  1 11  1  0  0  0  0
  2  1  2  0  0  0  0
  3  4  1  0  0  0  0
  3  8  1  0  0  0  0
  4  9  1  0  0  0  0
  5  2  1  0  0  0  0
  6  3  1  0  0  0  0
  6  4  1  0  0  0  0
  7  1  1  0  0  0  0
  8 10  1  0  0  0  0
  9  5  1  0  0  0  0
 10  5  2  0  0  0  0
 10  7  1  0  0  0  0
 11 14  1  0  0  0  0
 11 13  1  0  0  0  0
 11 12  1  0  0  0  0
 15  6  1  0  0  0  0
 16 15  1  0  0  0  0
 17 16  1  0  0  0  0
 18 17  1  0  0  0  0
 19 20  2  0  0  0  0
 20 21  2  0  0  0  0
 20 17  1  0  0  0  0
 20 22  1  0  0  0  0
 23  8  1  0  0  0  0
 24 30  1  0  0  0  0
 26 31  2  0  0  0  0
 28 27  2  0  0  0  0
 29 28  1  0  0  0  0
 29 32  2  0  0  0  0
 30 23  1  0  0  0  0
 30 32  1  0  0  0  0
 31 33  1  0  0  0  0
 32 25  1  0  0  0  0
 33 28  1  0  0  0  0
 34 24  1  0  0  0  0
 34 29  1  0  0  0  0
 35 31  1  0  0  0  0
 35 34  2  0  0  0  0
M  END
>  <MODEL>
7

>  <REMARK>
 VINA RESULT:      -8.4      2.622      6.210
  Name = 
  7 active torsions:
  status: ('A' for Active; 'I' for Inactive)
    1  A    between atoms: C_1  and  C_3
    2  A    between atoms: C_2  and  C_24
    3  A    between atoms: C_2  and  N_31
    4  A    between atoms: S_7  and  N_31
    5  A    between atoms: C_14  and  C_27
    6  A    between atoms: C_21  and  C_24
    7  A    between atoms: C_27  and  C_32
                            x       y       z     vdW  Elec       q    Type
                         _______ _______ _______ _____ _____    ______ ____

>  <TORSDO>
F 7

$$$$
=
 OpenBabel11042410283D

 35 39  0  0  1  0  0  0  0  0999 V2000
  188.2450  177.5850  146.4220 C   0  0  0  0  0  0  0  0  0  0  0  0
  189.3200  177.4610  145.5450 C   0  0  0  0  0  3  0  0  0  0  0  0
  187.9370  178.6150  141.6300 C   0  0  1  0  0  3  0  0  0  0  0  0
  189.4410  178.3240  141.8300 C   0  0  2  0  0  3  0  0  0  0  0  0
  188.9430  177.6890  144.2180 C   0  0  0  0  0  0  0  0  0  0  0  0
  188.6070  177.4760  140.8890 C   0  0  2  0  0  3  0  0  0  0  0  0
  186.8370  177.8810  145.5430 S   0  0  0  0  0  0  0  0  0  0  0  0
  186.9700  178.0550  142.6910 C   0  0  1  0  0  3  0  0  0  0  0  0
  189.8410  177.4740  143.0470 C   0  0  0  0  0  2  0  0  0  0  0  0
  187.6020  177.9580  144.0460 C   0  0  0  0  0  0  0  0  0  0  0  0
  188.2960  177.3130  147.8910 C   0  0  0  0  0  0  0  0  0  0  0  0
  189.4330  177.8790  148.4370 F   0  0  0  0  0  0  0  0  0  0  0  0
  188.3190  175.9490  148.1220 F   0  0  0  0  0  0  0  0  0  0  0  0
  187.1800  177.8580  148.4970 F   0  0  0  0  0  0  0  0  0  0  0  0
  188.8750  177.9030  139.4600 C   0  0  0  0  0  2  0  0  0  0  0  0
  190.2820  177.5060  139.0460 C   0  0  0  0  0  2  0  0  0  0  0  0
  190.3090  177.1330  137.6390 N   0  0  0  0  0  0  0  0  0  0  0  0
  189.0820  176.4020  137.3760 C   0  0  0  0  0  1  0  0  0  0  0  0
  191.7940  175.7230  135.9350 O   0  0  0  0  0  0  0  0  0  0  0  0
  191.6320  176.0330  137.3990 S   0  0  0  0  0  0  0  0  0  0  0  0
  191.3690  174.7580  138.1500 O   0  0  0  0  0  0  0  0  0  0  0  0
  193.0890  176.7440  137.9940 N   0  0  0  0  0  1  0  0  0  0  0  0
  185.6490  178.8330  142.7050 C   0  0  0  0  0  2  0  0  0  0  0  0
  184.1140  177.8750  141.0750 O   0  0  0  0  0  0  0  0  0  0  0  0
  183.0100  178.9160  144.3960 O   0  0  0  0  0  1  0  0  0  0  0  0
  180.2910  179.3410  138.5780 O   0  0  0  0  0  0  0  0  0  0  0  0
  180.5010  179.9490  143.2120 O   0  0  0  0  0  0  0  0  0  0  0  0
  181.0100  179.5400  142.1360 C   0  0  0  0  0  0  0  0  0  0  0  0
  182.3250  178.9000  142.0940 C   0  0  0  0  0  0  0  0  0  0  0  0
  184.4170  177.9550  142.4730 C   0  0  2  0  0  3  0  0  0  0  0  0
  180.9080  179.2110  139.6670 C   0  0  0  0  0  0  0  0  0  0  0  0
  183.1970  178.6280  143.0490 C   0  0  0  0  0  0  0  0  0  0  0  0
  180.3120  179.6870  140.8910 N   0  0  0  0  0  2  0  0  0  0  0  0
  182.8730  178.4420  140.8530 C   0  0  0  0  0  0  0  0  0  0  0  0
  182.2440  178.5670  139.6840 C   0  0  0  0  0  3  0  0  0  0  0  0
  1 11  1  0  0  0  0
  2  1  2  0  0  0  0
  3  4  1  0  0  0  0
  3  8  1  0  0  0  0
  4  9  1  0  0  0  0
  5  2  1  0  0  0  0
  6  3  1  0  0  0  0
  6  4  1  0  0  0  0
  7  1  1  0  0  0  0
  8 23  1  0  0  0  0
  8 10  1  0  0  0  0
  9  5  1  0  0  0  0
 10  5  2  0  0  0  0
 10  7  1  0  0  0  0
 11 13  1  0  0  0  0
 11 12  1  0  0  0  0
 11 14  1  0  0  0  0
 15  6  1  0  0  0  0
 16 15  1  0  0  0  0
 17 16  1  0  0  0  0
 18 17  1  0  0  0  0
 19 20  2  0  0  0  0
 20 17  1  0  0  0  0
 20 22  1  0  0  0  0
 20 21  2  0  0  0  0
 24 30  1  0  0  0  0
 26 31  2  0  0  0  0
 28 27  2  0  0  0  0
 29 28  1  0  0  0  0
 29 32  2  0  0  0  0
 30 23  1  0  0  0  0
 30 32  1  0  0  0  0
 31 35  1  0  0  0  0
 31 33  1  0  0  0  0
 32 25  1  0  0  0  0
 33 28  1  0  0  0  0
 34 24  1  0  0  0  0
 34 29  1  0  0  0  0
 35 34  2  0  0  0  0
M  END
>  <MODEL>
8

>  <REMARK>
 VINA RESULT:      -8.3      2.523      6.849
  Name = 
  7 active torsions:
  status: ('A' for Active; 'I' for Inactive)
    1  A    between atoms: C_1  and  C_3
    2  A    between atoms: C_2  and  C_24
    3  A    between atoms: C_2  and  N_31
    4  A    between atoms: S_7  and  N_31
    5  A    between atoms: C_14  and  C_27
    6  A    between atoms: C_21  and  C_24
    7  A    between atoms: C_27  and  C_32
                            x       y       z     vdW  Elec       q    Type
                         _______ _______ _______ _____ _____    ______ ____

>  <TORSDO>
F 7

$$$$
=
 OpenBabel11042410283D

 35 39  0  0  1  0  0  0  0  0999 V2000
  191.9310  176.3910  137.9710 C   0  0  0  0  0  0  0  0  0  0  0  0
  190.8190  176.8340  137.2600 C   0  0  0  0  0  3  0  0  0  0  0  0
  188.0330  178.4790  140.1070 C   0  0  1  0  0  3  0  0  0  0  0  0
  187.7250  178.6210  138.6000 C   0  0  2  0  0  3  0  0  0  0  0  0
  189.7940  177.2700  138.1070 C   0  0  0  0  0  0  0  0  0  0  0  0
  186.8010  177.8320  139.5080 C   0  0  2  0  0  3  0  0  0  0  0  0
  191.6020  176.4580  139.6240 S   0  0  0  0  0  0  0  0  0  0  0  0
  189.0510  177.3950  140.5130 C   0  0  1  0  0  3  0  0  0  0  0  0
  188.4310  177.6510  137.6400 C   0  0  0  0  0  2  0  0  0  0  0  0
  190.0780  177.1500  139.4510 C   0  0  0  0  0  0  0  0  0  0  0  0
  193.1530  175.7780  137.3660 C   0  0  0  0  0  0  0  0  0  0  0  0
  192.7900  174.8080  136.4510 F   0  0  0  0  0  0  0  0  0  0  0  0
  193.9320  175.1980  138.3510 F   0  0  0  0  0  0  0  0  0  0  0  0
  193.8870  176.7570  136.7240 F   0  0  0  0  0  0  0  0  0  0  0  0
  185.5860  178.6750  139.8410 C   0  0  0  0  0  2  0  0  0  0  0  0
  185.5450  178.9780  141.3290 C   0  0  0  0  0  2  0  0  0  0  0  0
  184.5160  178.1790  141.9800 N   0  0  0  0  0  0  0  0  0  0  0  0
  183.2760  178.4350  141.2680 C   0  0  0  0  0  1  0  0  0  0  0  0
  184.7870  180.1990  143.6940 O   0  0  0  0  0  0  0  0  0  0  0  0
  184.3180  178.7720  143.6000 S   0  0  0  0  0  0  0  0  0  0  0  0
  185.1180  177.9240  144.5480 O   0  0  0  0  0  0  0  0  0  0  0  0
  182.6510  178.6900  144.0450 N   0  0  0  0  0  1  0  0  0  0  0  0
  189.6710  177.7000  141.8820 C   0  0  0  0  0  2  0  0  0  0  0  0
  188.2830  177.0910  143.7880 O   0  0  0  0  0  0  0  0  0  0  0  0
  191.7910  176.1100  143.5570 O   0  0  0  0  0  1  0  0  0  0  0  0
  188.1430  178.0790  148.4790 O   0  0  0  0  0  0  0  0  0  0  0  0
  192.1000  176.6160  146.4570 O   0  0  0  0  0  0  0  0  0  0  0  0
  190.8820  176.9280  146.3860 C   0  0  0  0  0  0  0  0  0  0  0  0
  190.1400  176.8720  145.1250 C   0  0  0  0  0  0  0  0  0  0  0  0
  189.3540  176.6480  142.9470 C   0  0  2  0  0  3  0  0  0  0  0  0
  188.7680  177.7070  147.4530 C   0  0  0  0  0  0  0  0  0  0  0  0
  190.5130  176.5290  143.9040 C   0  0  0  0  0  0  0  0  0  0  0  0
  190.1630  177.3550  147.5510 N   0  0  0  0  0  2  0  0  0  0  0  0
  188.7540  177.2290  145.0800 C   0  0  0  0  0  0  0  0  0  0  0  0
  188.0650  177.6290  146.1490 C   0  0  0  0  0  3  0  0  0  0  0  0
  1  7  1  0  0  0  0
  2  1  2  0  0  0  0
  2  5  1  0  0  0  0
  3  8  1  0  0  0  0
  4  6  1  0  0  0  0
  4  3  1  0  0  0  0
  5 10  2  0  0  0  0
  6 15  1  0  0  0  0
  6  3  1  0  0  0  0
  8 23  1  0  0  0  0
  9  5  1  0  0  0  0
  9  4  1  0  0  0  0
 10  7  1  0  0  0  0
 10  8  1  0  0  0  0
 11  1  1  0  0  0  0
 11 13  1  0  0  0  0
 12 11  1  0  0  0  0
 14 11  1  0  0  0  0
 15 16  1  0  0  0  0
 16 17  1  0  0  0  0
 17 20  1  0  0  0  0
 18 17  1  0  0  0  0
 20 19  2  0  0  0  0
 20 22  1  0  0  0  0
 20 21  2  0  0  0  0
 23 30  1  0  0  0  0
 24 34  1  0  0  0  0
 25 32  1  0  0  0  0
 28 27  2  0  0  0  0
 28 33  1  0  0  0  0
 29 28  1  0  0  0  0
 30 24  1  0  0  0  0
 30 32  1  0  0  0  0
 31 33  1  0  0  0  0
 31 26  2  0  0  0  0
 32 29  2  0  0  0  0
 34 29  1  0  0  0  0
 34 35  2  0  0  0  0
 35 31  1  0  0  0  0
M  END
>  <MODEL>
9

>  <REMARK>
 VINA RESULT:      -8.2      4.123      7.050
  Name = 
  7 active torsions:
  status: ('A' for Active; 'I' for Inactive)
    1  A    between atoms: C_1  and  C_3
    2  A    between atoms: C_2  and  C_24
    3  A    between atoms: C_2  and  N_31
    4  A    between atoms: S_7  and  N_31
    5  A    between atoms: C_14  and  C_27
    6  A    between atoms: C_21  and  C_24
    7  A    between atoms: C_27  and  C_32
                            x       y       z     vdW  Elec       q    Type
                         _______ _______ _______ _____ _____    ______ ____

>  <TORSDO>
F 7

$$$$
