=
 OpenBabel11032420163D

 28 32  0  0  1  0  0  0  0  0999 V2000
  183.0930  179.5410  144.0290 C   0  0  0  0  0  2  0  0  0  0  0  0
  185.3560  177.7860  144.6110 C   0  0  1  0  0  3  0  0  0  0  0  0
  184.7320  178.6930  145.6410 C   0  0  0  0  0  0  0  0  0  0  0  0
  191.6970  176.2070  144.3590 C   0  0  0  0  0  3  0  0  0  0  0  0
  189.4430  177.5700  147.6060 C   0  0  0  0  0  0  0  0  0  0  0  0
  187.6280  177.0930  143.8240 O   0  0  0  0  0  0  0  0  0  0  0  0
  188.7440  178.0220  148.7620 N   0  0  0  0  0  1  0  0  0  0  0  0
  183.5620  178.4470  143.0640 C   0  0  2  0  0  3  0  0  0  0  0  0
  191.1010  176.0490  143.1030 C   0  0  0  0  0  3  0  0  0  0  0  0
  183.6720  179.3980  145.3700 N   0  0  0  0  0  0  0  0  0  0  0  0
  185.2820  178.7160  146.9580 N   0  0  0  0  0  0  0  0  0  0  0  0
  189.7470  176.3450  142.9260 C   0  0  0  0  0  3  0  0  0  0  0  0
  186.4800  178.2740  147.1920 C   0  0  0  0  0  3  0  0  0  0  0  0
  185.0660  178.2710  143.1970 C   0  0  0  0  0  2  0  0  0  0  0  0
  187.3480  177.7440  146.1110 C   0  0  0  0  0  0  0  0  0  0  0  0
  191.5140  176.8240  146.6920 C   0  0  0  0  0  3  0  0  0  0  0  0
  190.7640  177.2660  147.7330 N   0  0  0  0  0  0  0  0  0  0  0  0
  189.5700  176.9660  145.2670 C   0  0  0  0  0  0  0  0  0  0  0  0
  190.9360  176.6630  145.4380 C   0  0  0  0  0  0  0  0  0  0  0  0
  188.7960  177.4280  146.3510 C   0  0  0  0  0  0  0  0  0  0  0  0
  188.9810  176.8020  144.0030 C   0  0  0  0  0  0  0  0  0  0  0  0
  186.8250  177.5650  144.8720 C   0  0  0  0  0  0  0  0  0  0  0  0
  183.2220  178.8290  141.6350 C   0  0  0  0  0  2  0  0  0  0  0  0
  184.4150  178.7630  140.8050 N   0  0  0  0  0  2  0  0  0  0  0  0
  184.4170  179.1500  139.4310 C   0  0  0  0  0  0  0  0  0  0  0  0
  185.4800  179.0610  138.7640 O   0  0  0  0  0  0  0  0  0  0  0  0
  183.1720  179.6240  138.7590 C   0  0  0  0  0  2  0  0  0  0  0  0
  183.1080  181.0160  138.8180 O   0  0  0  0  0  1  0  0  0  0  0  0
  1 10  1  0  0  0  0
  2 14  1  6  0  0  0
  2 22  1  0  0  0  0
  2  3  1  0  0  0  0
  3 11  1  0  0  0  0
  4 19  1  0  0  0  0
  5 17  1  0  0  0  0
  5  7  1  0  0  0  0
  6 21  1  0  0  0  0
  6 22  1  0  0  0  0
  8 23  1  6  0  0  0
  8 14  1  0  0  0  0
  8  1  1  0  0  0  0
  9  4  2  0  0  0  0
 10  3  2  0  0  0  0
 11 13  2  0  0  0  0
 12  9  1  0  0  0  0
 12 21  2  0  0  0  0
 15 20  1  0  0  0  0
 15 13  1  0  0  0  0
 16 17  2  0  0  0  0
 18 19  2  0  0  0  0
 18 20  1  0  0  0  0
 19 16  1  0  0  0  0
 20  5  2  0  0  0  0
 21 18  1  0  0  0  0
 22 15  2  0  0  0  0
 24 23  1  0  0  0  0
 25 24  1  0  0  0  0
 26 25  2  0  0  0  0
 27 28  1  0  0  0  0
 27 25  1  0  0  0  0
M  END
>  <MODEL>
1

>  <REMARK>
 VINA RESULT:     -10.7      0.000      0.000
  Name = 
  3 active torsions:
  status: ('A' for Active; 'I' for Inactive)
    1  A    between atoms: C_8  and  C_22
    2  A    between atoms: N_10  and  C_22
    3  A    between atoms: C_11  and  C_24
                            x       y       z     vdW  Elec       q    Type
                         _______ _______ _______ _____ _____    ______ ____

>  <TORSDO>
F 3

$$$$
=
 OpenBabel11032420163D

 28 32  0  0  1  0  0  0  0  0999 V2000
  183.1040  179.5710  143.6900 C   0  0  0  0  0  2  0  0  0  0  0  0
  185.3310  177.8230  144.4130 C   0  0  1  0  0  3  0  0  0  0  0  0
  184.6490  178.7380  145.3980 C   0  0  0  0  0  0  0  0  0  0  0  0
  191.6760  176.2460  144.5320 C   0  0  0  0  0  3  0  0  0  0  0  0
  189.2420  177.6330  147.6360 C   0  0  0  0  0  0  0  0  0  0  0  0
  187.6440  177.1250  143.7610 O   0  0  0  0  0  0  0  0  0  0  0  0
  188.4790  178.0950  148.7470 N   0  0  0  0  0  1  0  0  0  0  0  0
  183.6260  178.4700  142.7620 C   0  0  2  0  0  3  0  0  0  0  0  0
  191.1520  176.0770  143.2460 C   0  0  0  0  0  3  0  0  0  0  0  0
  183.6060  179.4400  145.0620 N   0  0  0  0  0  0  0  0  0  0  0  0
  185.1240  178.7720  146.7450 N   0  0  0  0  0  0  0  0  0  0  0  0
  189.8090  176.3710  142.9900 C   0  0  0  0  0  3  0  0  0  0  0  0
  186.3070  178.3320  147.0490 C   0  0  0  0  0  3  0  0  0  0  0  0
  185.1200  178.2960  142.9810 C   0  0  0  0  0  2  0  0  0  0  0  0
  187.2350  177.7940  146.0230 C   0  0  0  0  0  0  0  0  0  0  0  0
  191.3620  176.8810  146.8460 C   0  0  0  0  0  3  0  0  0  0  0  0
  190.5540  177.3310  147.8390 N   0  0  0  0  0  0  0  0  0  0  0  0
  189.5010  177.0110  145.3120 C   0  0  0  0  0  0  0  0  0  0  0  0
  190.8550  176.7100  145.5630 C   0  0  0  0  0  0  0  0  0  0  0  0
  188.6670  177.4810  146.3470 C   0  0  0  0  0  0  0  0  0  0  0  0
  188.9850  176.8360  144.0180 C   0  0  0  0  0  0  0  0  0  0  0  0
  186.7830  177.6050  144.7580 C   0  0  0  0  0  0  0  0  0  0  0  0
  183.3670  178.8410  141.3130 C   0  0  0  0  0  2  0  0  0  0  0  0
  182.7080  177.7390  140.6280 N   0  0  0  0  0  2  0  0  0  0  0  0
  181.2910  177.6710  140.4700 C   0  0  0  0  0  0  0  0  0  0  0  0
  180.7810  176.6870  139.8740 O   0  0  0  0  0  0  0  0  0  0  0  0
  180.3990  178.7290  141.0280 C   0  0  0  0  0  2  0  0  0  0  0  0
  179.8070  178.2700  142.2040 O   0  0  0  0  0  1  0  0  0  0  0  0
  1 10  1  0  0  0  0
  2 14  1  6  0  0  0
  2 22  1  0  0  0  0
  2  3  1  0  0  0  0
  3 11  1  0  0  0  0
  4 19  1  0  0  0  0
  5 17  1  0  0  0  0
  5  7  1  0  0  0  0
  6 21  1  0  0  0  0
  6 22  1  0  0  0  0
  8 23  1  6  0  0  0
  8 14  1  0  0  0  0
  8  1  1  0  0  0  0
  9  4  2  0  0  0  0
 10  3  2  0  0  0  0
 11 13  2  0  0  0  0
 12  9  1  0  0  0  0
 12 21  2  0  0  0  0
 15 20  1  0  0  0  0
 15 13  1  0  0  0  0
 16 17  2  0  0  0  0
 18 19  2  0  0  0  0
 18 20  1  0  0  0  0
 19 16  1  0  0  0  0
 20  5  2  0  0  0  0
 21 18  1  0  0  0  0
 22 15  2  0  0  0  0
 24 23  1  0  0  0  0
 25 24  1  0  0  0  0
 25 27  1  0  0  0  0
 26 25  2  0  0  0  0
 27 28  1  0  0  0  0
M  END
>  <MODEL>
2

>  <REMARK>
 VINA RESULT:     -10.1      1.637      1.799
  Name = 
  3 active torsions:
  status: ('A' for Active; 'I' for Inactive)
    1  A    between atoms: C_8  and  C_22
    2  A    between atoms: N_10  and  C_22
    3  A    between atoms: C_11  and  C_24
                            x       y       z     vdW  Elec       q    Type
                         _______ _______ _______ _____ _____    ______ ____

>  <TORSDO>
F 3

$$$$
=
 OpenBabel11032420163D

 28 32  0  0  1  0  0  0  0  0999 V2000
  188.4100  178.3170  138.9080 C   0  0  0  0  0  2  0  0  0  0  0  0
  188.5560  177.1290  141.5740 C   0  0  1  0  0  3  0  0  0  0  0  0
  187.4380  178.0430  141.1410 C   0  0  0  0  0  0  0  0  0  0  0  0
  190.9560  176.7600  147.6460 C   0  0  0  0  0  3  0  0  0  0  0  0
  187.2210  178.1360  146.3620 C   0  0  0  0  0  0  0  0  0  0  0  0
  190.0550  176.7690  143.5450 O   0  0  0  0  0  0  0  0  0  0  0  0
  185.9270  178.6130  146.0070 N   0  0  0  0  0  1  0  0  0  0  0  0
  189.3980  177.2010  139.2640 C   0  0  2  0  0  3  0  0  0  0  0  0
  191.8980  176.3080  146.7170 C   0  0  0  0  0  3  0  0  0  0  0  0
  187.3600  178.4870  139.9200 N   0  0  0  0  0  0  0  0  0  0  0  0
  186.4110  178.3640  142.0790 N   0  0  0  0  0  0  0  0  0  0  0  0
  191.5980  176.3120  145.3520 C   0  0  0  0  0  3  0  0  0  0  0  0
  186.5920  178.1970  143.3540 C   0  0  0  0  0  3  0  0  0  0  0  0
  189.8010  177.3350  140.7240 C   0  0  0  0  0  2  0  0  0  0  0  0
  187.8720  177.6870  143.9070 C   0  0  0  0  0  0  0  0  0  0  0  0
  188.7630  177.6690  148.1190 C   0  0  0  0  0  3  0  0  0  0  0  0
  187.5570  178.1100  147.6810 N   0  0  0  0  0  0  0  0  0  0  0  0
  189.4010  177.2280  145.8330 C   0  0  0  0  0  0  0  0  0  0  0  0
  189.7100  177.2180  147.2070 C   0  0  0  0  0  0  0  0  0  0  0  0
  188.1470  177.6900  145.3830 C   0  0  0  0  0  0  0  0  0  0  0  0
  190.3540  176.7700  144.9080 C   0  0  0  0  0  0  0  0  0  0  0  0
  188.8250  177.2310  143.0550 C   0  0  0  0  0  0  0  0  0  0  0  0
  190.6320  177.2970  138.3870 C   0  0  0  0  0  2  0  0  0  0  0  0
  191.8320  177.1660  139.2000 N   0  0  0  0  0  2  0  0  0  0  0  0
  193.0610  176.6610  138.6790 C   0  0  0  0  0  0  0  0  0  0  0  0
  194.0620  176.5650  139.4370 O   0  0  0  0  0  0  0  0  0  0  0  0
  193.1740  176.2110  137.2610 C   0  0  0  0  0  2  0  0  0  0  0  0
  194.1850  176.9260  136.6210 O   0  0  0  0  0  1  0  0  0  0  0  0
  1  8  1  0  0  0  0
  1 10  1  0  0  0  0
  2 14  1  6  0  0  0
  2 22  1  0  0  0  0
  3  2  1  0  0  0  0
  3 11  1  0  0  0  0
  5 17  1  0  0  0  0
  6 21  1  0  0  0  0
  7  5  1  0  0  0  0
  8 23  1  6  0  0  0
  8 14  1  0  0  0  0
  9  4  2  0  0  0  0
 10  3  2  0  0  0  0
 11 13  2  0  0  0  0
 12  9  1  0  0  0  0
 13 15  1  0  0  0  0
 15 20  1  0  0  0  0
 17 16  2  0  0  0  0
 18 19  2  0  0  0  0
 19  4  1  0  0  0  0
 19 16  1  0  0  0  0
 20 18  1  0  0  0  0
 20  5  2  0  0  0  0
 21 12  2  0  0  0  0
 21 18  1  0  0  0  0
 22  6  1  0  0  0  0
 22 15  2  0  0  0  0
 23 24  1  0  0  0  0
 25 24  1  0  0  0  0
 25 26  2  0  0  0  0
 27 25  1  0  0  0  0
 28 27  1  0  0  0  0
M  END
>  <MODEL>
3

>  <REMARK>
 VINA RESULT:      -9.8      3.673      5.739
  Name = 
  3 active torsions:
  status: ('A' for Active; 'I' for Inactive)
    1  A    between atoms: C_8  and  C_22
    2  A    between atoms: N_10  and  C_22
    3  A    between atoms: C_11  and  C_24
                            x       y       z     vdW  Elec       q    Type
                         _______ _______ _______ _____ _____    ______ ____

>  <TORSDO>
F 3

$$$$
=
 OpenBabel11032420163D

 28 32  0  0  1  0  0  0  0  0999 V2000
  189.3930  178.1890  138.7100 C   0  0  0  0  0  2  0  0  0  0  0  0
  188.2960  177.3360  141.2800 C   0  0  1  0  0  3  0  0  0  0  0  0
  187.5610  178.2520  140.3350 C   0  0  0  0  0  0  0  0  0  0  0  0
  187.9110  177.5870  147.8030 C   0  0  0  0  0  3  0  0  0  0  0  0
  185.2120  179.0060  144.9430 C   0  0  0  0  0  0  0  0  0  0  0  0
  188.7970  177.1380  143.7240 O   0  0  0  0  0  0  0  0  0  0  0  0
  184.2390  179.5100  144.0320 N   0  0  0  0  0  1  0  0  0  0  0  0
  190.0220  177.0720  139.5470 C   0  0  2  0  0  3  0  0  0  0  0  0
  189.1010  176.9690  147.4050 C   0  0  0  0  0  3  0  0  0  0  0  0
  188.0430  178.5440  139.1620 N   0  0  0  0  0  0  0  0  0  0  0  0
  186.2780  178.7470  140.7180 N   0  0  0  0  0  0  0  0  0  0  0  0
  189.3950  176.8210  146.0460 C   0  0  0  0  0  3  0  0  0  0  0  0
  185.8960  178.7290  141.9590 C   0  0  0  0  0  3  0  0  0  0  0  0
  189.7960  177.3620  141.0220 C   0  0  0  0  0  2  0  0  0  0  0  0
  186.7700  178.2180  143.0440 C   0  0  0  0  0  0  0  0  0  0  0  0
  185.8280  178.6730  147.2210 C   0  0  0  0  0  3  0  0  0  0  0  0
  184.9650  179.1250  146.2760 N   0  0  0  0  0  0  0  0  0  0  0  0
  187.3060  177.9140  145.4690 C   0  0  0  0  0  0  0  0  0  0  0  0
  187.0150  178.0580  146.8400 C   0  0  0  0  0  0  0  0  0  0  0  0
  186.4070  178.3890  144.4910 C   0  0  0  0  0  0  0  0  0  0  0  0
  188.5020  177.2910  145.0790 C   0  0  0  0  0  0  0  0  0  0  0  0
  187.9360  177.6050  142.7200 C   0  0  0  0  0  0  0  0  0  0  0  0
  191.5120  176.9850  139.2710 C   0  0  0  0  0  2  0  0  0  0  0  0
  191.7450  176.8550  137.8400 N   0  0  0  0  0  2  0  0  0  0  0  0
  192.8490  176.1240  137.3060 C   0  0  0  0  0  0  0  0  0  0  0  0
  193.0010  176.0560  136.0590 O   0  0  0  0  0  0  0  0  0  0  0  0
  193.8490  175.4690  138.2000 C   0  0  0  0  0  2  0  0  0  0  0  0
  195.0690  175.3580  137.5360 O   0  0  0  0  0  1  0  0  0  0  0  0
  1 10  1  0  0  0  0
  1  8  1  0  0  0  0
  2 14  1  1  0  0  0
  2 22  1  0  0  0  0
  3 11  1  0  0  0  0
  3  2  1  0  0  0  0
  5 17  1  0  0  0  0
  6 21  1  0  0  0  0
  7  5  1  0  0  0  0
  8 23  1  1  0  0  0
  8 14  1  0  0  0  0
  9  4  1  0  0  0  0
 10  3  2  0  0  0  0
 11 13  2  0  0  0  0
 12  9  2  0  0  0  0
 13 15  1  0  0  0  0
 15 20  1  0  0  0  0
 17 16  2  0  0  0  0
 18 19  1  0  0  0  0
 19 16  1  0  0  0  0
 19  4  2  0  0  0  0
 20  5  2  0  0  0  0
 20 18  1  0  0  0  0
 21 18  2  0  0  0  0
 21 12  1  0  0  0  0
 22 15  2  0  0  0  0
 22  6  1  0  0  0  0
 24 23  1  0  0  0  0
 25 24  1  0  0  0  0
 25 27  1  0  0  0  0
 26 25  2  0  0  0  0
 28 27  1  0  0  0  0
M  END
>  <MODEL>
4

>  <REMARK>
 VINA RESULT:      -9.8      3.860      6.571
  Name = 
  3 active torsions:
  status: ('A' for Active; 'I' for Inactive)
    1  A    between atoms: C_8  and  C_22
    2  A    between atoms: N_10  and  C_22
    3  A    between atoms: C_11  and  C_24
                            x       y       z     vdW  Elec       q    Type
                         _______ _______ _______ _____ _____    ______ ____

>  <TORSDO>
F 3

$$$$
=
 OpenBabel11032420163D

 28 32  0  0  1  0  0  0  0  0999 V2000
  190.0780  176.7700  138.9710 C   0  0  0  0  0  2  0  0  0  0  0  0
  189.3300  177.9670  141.5300 C   0  0  1  0  0  3  0  0  0  0  0  0
  190.5770  177.1400  141.3410 C   0  0  0  0  0  0  0  0  0  0  0  0
  185.7830  178.1980  147.0180 C   0  0  0  0  0  3  0  0  0  0  0  0
  189.7880  177.1110  146.5080 C   0  0  0  0  0  0  0  0  0  0  0  0
  187.4570  178.2240  143.1680 O   0  0  0  0  0  0  0  0  0  0  0  0
  191.1590  176.7340  146.4190 N   0  0  0  0  0  1  0  0  0  0  0  0
  188.9590  177.8070  139.1040 C   0  0  2  0  0  3  0  0  0  0  0  0
  185.0060  178.5660  145.9160 C   0  0  0  0  0  3  0  0  0  0  0  0
  190.9230  176.6930  140.1690 N   0  0  0  0  0  0  0  0  0  0  0  0
  191.4250  176.9090  142.4670 N   0  0  0  0  0  0  0  0  0  0  0  0
  185.5640  178.5730  144.6340 C   0  0  0  0  0  3  0  0  0  0  0  0
  190.9890  177.0730  143.6790 C   0  0  0  0  0  3  0  0  0  0  0  0
  188.2920  177.6550  140.4620 C   0  0  0  0  0  2  0  0  0  0  0  0
  189.5910  177.4850  143.9630 C   0  0  0  0  0  0  0  0  0  0  0  0
  187.9050  177.4700  147.9250 C   0  0  0  0  0  3  0  0  0  0  0  0
  189.2030  177.1220  147.7370 N   0  0  0  0  0  0  0  0  0  0  0  0
  187.6890  177.8390  145.5490 C   0  0  0  0  0  0  0  0  0  0  0  0
  187.1210  177.8360  146.8380 C   0  0  0  0  0  0  0  0  0  0  0  0
  189.0380  177.4730  145.3590 C   0  0  0  0  0  0  0  0  0  0  0  0
  186.9010  178.2120  144.4480 C   0  0  0  0  0  0  0  0  0  0  0  0
  188.7900  177.8570  142.9340 C   0  0  0  0  0  0  0  0  0  0  0  0
  187.9270  177.6070  138.0090 C   0  0  0  0  0  2  0  0  0  0  0  0
  186.7010  178.3140  138.3450 N   0  0  0  0  0  2  0  0  0  0  0  0
  185.4100  177.8370  137.9630 C   0  0  0  0  0  0  0  0  0  0  0  0
  184.3870  178.4980  138.2770 O   0  0  0  0  0  0  0  0  0  0  0  0
  185.2530  176.5860  137.1640 C   0  0  0  0  0  2  0  0  0  0  0  0
  184.0870  175.9270  137.5500 O   0  0  0  0  0  1  0  0  0  0  0  0
  1  8  1  0  0  0  0
  1 10  1  0  0  0  0
  2 14  1  6  0  0  0
  2 22  1  0  0  0  0
  3  2  1  0  0  0  0
  3 11  1  0  0  0  0
  5 17  1  0  0  0  0
  6 21  1  0  0  0  0
  7  5  1  0  0  0  0
  8 23  1  6  0  0  0
  8 14  1  0  0  0  0
  9  4  2  0  0  0  0
 10  3  2  0  0  0  0
 11 13  2  0  0  0  0
 12  9  1  0  0  0  0
 13 15  1  0  0  0  0
 15 20  1  0  0  0  0
 17 16  2  0  0  0  0
 18 19  2  0  0  0  0
 19  4  1  0  0  0  0
 19 16  1  0  0  0  0
 20 18  1  0  0  0  0
 20  5  2  0  0  0  0
 21 12  2  0  0  0  0
 21 18  1  0  0  0  0
 22  6  1  0  0  0  0
 22 15  2  0  0  0  0
 23 24  1  0  0  0  0
 25 26  2  0  0  0  0
 25 24  1  0  0  0  0
 27 28  1  0  0  0  0
 27 25  1  0  0  0  0
M  END
>  <MODEL>
5

>  <REMARK>
 VINA RESULT:      -9.7      2.707      5.040
  Name = 
  3 active torsions:
  status: ('A' for Active; 'I' for Inactive)
    1  A    between atoms: C_8  and  C_22
    2  A    between atoms: N_10  and  C_22
    3  A    between atoms: C_11  and  C_24
                            x       y       z     vdW  Elec       q    Type
                         _______ _______ _______ _____ _____    ______ ____

>  <TORSDO>
F 3

$$$$
=
 OpenBabel11032420163D

 28 32  0  0  1  0  0  0  0  0999 V2000
  183.6510  178.2110  139.1480 C   0  0  0  0  0  2  0  0  0  0  0  0
  185.5980  178.7850  141.2500 C   0  0  1  0  0  3  0  0  0  0  0  0
  185.9910  178.4470  139.8340 C   0  0  0  0  0  0  0  0  0  0  0  0
  189.0370  177.1850  146.5760 C   0  0  0  0  0  3  0  0  0  0  0  0
  190.3250  177.5580  142.6160 C   0  0  0  0  0  0  0  0  0  0  0  0
  186.2700  178.2130  143.5910 O   0  0  0  0  0  0  0  0  0  0  0  0
  190.8440  177.6710  141.2940 N   0  0  0  0  0  1  0  0  0  0  0  0
  183.2530  178.7940  140.5070 C   0  0  2  0  0  3  0  0  0  0  0  0
  187.6950  177.4000  146.9050 C   0  0  0  0  0  3  0  0  0  0  0  0
  185.0960  178.2800  138.9040 N   0  0  0  0  0  0  0  0  0  0  0  0
  187.3780  178.3820  139.5040 N   0  0  0  0  0  0  0  0  0  0  0  0
  186.7740  177.7410  145.9100 C   0  0  0  0  0  3  0  0  0  0  0  0
  188.2820  178.2500  140.4270 C   0  0  0  0  0  3  0  0  0  0  0  0
  184.2020  178.2730  141.5740 C   0  0  0  0  0  2  0  0  0  0  0  0
  187.9270  178.1380  141.8640 C   0  0  0  0  0  0  0  0  0  0  0  0
  190.7900  177.1030  144.9090 C   0  0  0  0  0  3  0  0  0  0  0  0
  191.1870  177.2310  143.6180 N   0  0  0  0  0  0  0  0  0  0  0  0
  188.5350  177.6530  144.2410 C   0  0  0  0  0  0  0  0  0  0  0  0
  189.4590  177.3120  145.2500 C   0  0  0  0  0  0  0  0  0  0  0  0
  188.9530  177.7810  142.9010 C   0  0  0  0  0  0  0  0  0  0  0  0
  187.1900  177.8680  144.5820 C   0  0  0  0  0  0  0  0  0  0  0  0
  186.6410  178.3390  142.2450 C   0  0  0  0  0  0  0  0  0  0  0  0
  181.8320  178.3910  140.8540 C   0  0  0  0  0  2  0  0  0  0  0  0
  181.0630  179.5640  141.2440 N   0  0  0  0  0  2  0  0  0  0  0  0
  180.5660  179.7490  142.5700 C   0  0  0  0  0  0  0  0  0  0  0  0
  179.9010  180.7820  142.8430 O   0  0  0  0  0  0  0  0  0  0  0  0
  180.7900  178.7240  143.6310 C   0  0  0  0  0  2  0  0  0  0  0  0
  179.6840  177.8780  143.7060 O   0  0  0  0  0  1  0  0  0  0  0  0
  1  8  1  0  0  0  0
  2 14  1  1  0  0  0
  2 22  1  0  0  0  0
  3  2  1  0  0  0  0
  4  9  1  0  0  0  0
  5 20  2  0  0  0  0
  5 17  1  0  0  0  0
  6 21  1  0  0  0  0
  7  5  1  0  0  0  0
  8 23  1  1  0  0  0
  8 14  1  0  0  0  0
 10  1  1  0  0  0  0
 10  3  2  0  0  0  0
 11  3  1  0  0  0  0
 11 13  2  0  0  0  0
 12  9  2  0  0  0  0
 13 15  1  0  0  0  0
 15 22  2  0  0  0  0
 15 20  1  0  0  0  0
 16 19  1  0  0  0  0
 17 16  2  0  0  0  0
 18 21  2  0  0  0  0
 18 19  1  0  0  0  0
 19  4  2  0  0  0  0
 20 18  1  0  0  0  0
 21 12  1  0  0  0  0
 22  6  1  0  0  0  0
 23 24  1  0  0  0  0
 24 25  1  0  0  0  0
 25 26  2  0  0  0  0
 25 27  1  0  0  0  0
 27 28  1  0  0  0  0
M  END
>  <MODEL>
6

>  <REMARK>
 VINA RESULT:      -9.5      2.824      4.716
  Name = 
  3 active torsions:
  status: ('A' for Active; 'I' for Inactive)
    1  A    between atoms: C_8  and  C_22
    2  A    between atoms: N_10  and  C_22
    3  A    between atoms: C_11  and  C_24
                            x       y       z     vdW  Elec       q    Type
                         _______ _______ _______ _____ _____    ______ ____

>  <TORSDO>
F 3

$$$$
=
 OpenBabel11032420163D

 28 32  0  0  1  0  0  0  0  0999 V2000
  190.1420  176.6200  139.1090 C   0  0  0  0  0  2  0  0  0  0  0  0
  189.2850  177.8850  141.6000 C   0  0  1  0  0  3  0  0  0  0  0  0
  190.5310  177.0420  141.4900 C   0  0  0  0  0  0  0  0  0  0  0  0
  185.4830  178.2790  146.9050 C   0  0  0  0  0  3  0  0  0  0  0  0
  189.4970  177.1450  146.6130 C   0  0  0  0  0  0  0  0  0  0  0  0
  187.3380  178.1970  143.1400 O   0  0  0  0  0  0  0  0  0  0  0  0
  190.8660  176.7530  146.5990 N   0  0  0  0  0  1  0  0  0  0  0  0
  189.0280  177.6700  139.1630 C   0  0  2  0  0  3  0  0  0  0  0  0
  184.7630  178.6280  145.7590 C   0  0  0  0  0  3  0  0  0  0  0  0
  190.9280  176.5640  140.3470 N   0  0  0  0  0  0  0  0  0  0  0  0
  191.3220  176.8310  142.6600 N   0  0  0  0  0  0  0  0  0  0  0  0
  185.3810  178.5990  144.5050 C   0  0  0  0  0  3  0  0  0  0  0  0
  190.8300  177.0280  143.8460 C   0  0  0  0  0  3  0  0  0  0  0  0
  188.2960  177.5570  140.4910 C   0  0  0  0  0  2  0  0  0  0  0  0
  189.4250  177.4590  144.0540 C   0  0  0  0  0  0  0  0  0  0  0  0
  187.5520  177.5540  147.9300 C   0  0  0  0  0  3  0  0  0  0  0  0
  188.8540  177.1900  147.8120 N   0  0  0  0  0  0  0  0  0  0  0  0
  187.4530  177.8680  145.5380 C   0  0  0  0  0  0  0  0  0  0  0  0
  186.8240  177.9010  146.7980 C   0  0  0  0  0  0  0  0  0  0  0  0
  188.8060  177.4860  145.4210 C   0  0  0  0  0  0  0  0  0  0  0  0
  186.7220  178.2210  144.3920 C   0  0  0  0  0  0  0  0  0  0  0  0
  188.6770  177.8130  142.9790 C   0  0  0  0  0  0  0  0  0  0  0  0
  188.0480  177.4530  138.0250 C   0  0  0  0  0  2  0  0  0  0  0  0
  188.5930  177.9930  136.7890 N   0  0  0  0  0  2  0  0  0  0  0  0
  188.9440  177.1670  135.6790 C   0  0  0  0  0  0  0  0  0  0  0  0
  189.4190  177.6950  134.6400 O   0  0  0  0  0  0  0  0  0  0  0  0
  188.7900  175.6840  135.7390 C   0  0  0  0  0  2  0  0  0  0  0  0
  190.0470  175.0860  135.8200 O   0  0  0  0  0  1  0  0  0  0  0  0
  1  8  1  0  0  0  0
  1 10  1  0  0  0  0
  2 14  1  6  0  0  0
  2 22  1  0  0  0  0
  3  2  1  0  0  0  0
  3 11  1  0  0  0  0
  5 17  1  0  0  0  0
  6 21  1  0  0  0  0
  7  5  1  0  0  0  0
  8 23  1  6  0  0  0
  8 14  1  0  0  0  0
  9  4  2  0  0  0  0
 10  3  2  0  0  0  0
 11 13  2  0  0  0  0
 12  9  1  0  0  0  0
 13 15  1  0  0  0  0
 15 20  1  0  0  0  0
 17 16  2  0  0  0  0
 18 19  2  0  0  0  0
 19  4  1  0  0  0  0
 19 16  1  0  0  0  0
 20 18  1  0  0  0  0
 20  5  2  0  0  0  0
 21 12  2  0  0  0  0
 21 18  1  0  0  0  0
 22  6  1  0  0  0  0
 22 15  2  0  0  0  0
 24 23  1  0  0  0  0
 25 27  1  0  0  0  0
 25 24  1  0  0  0  0
 26 25  2  0  0  0  0
 27 28  1  0  0  0  0
M  END
>  <MODEL>
7

>  <REMARK>
 VINA RESULT:      -9.3      3.552      5.697
  Name = 
  3 active torsions:
  status: ('A' for Active; 'I' for Inactive)
    1  A    between atoms: C_8  and  C_22
    2  A    between atoms: N_10  and  C_22
    3  A    between atoms: C_11  and  C_24
                            x       y       z     vdW  Elec       q    Type
                         _______ _______ _______ _____ _____    ______ ____

>  <TORSDO>
F 3

$$$$
=
 OpenBabel11032420163D

 28 32  0  0  1  0  0  0  0  0999 V2000
  190.3970  176.4580  138.8200 C   0  0  0  0  0  2  0  0  0  0  0  0
  189.0050  177.9170  140.9340 C   0  0  1  0  0  3  0  0  0  0  0  0
  190.2000  177.0350  141.1930 C   0  0  0  0  0  0  0  0  0  0  0  0
  184.0240  178.7880  145.0800 C   0  0  0  0  0  3  0  0  0  0  0  0
  187.9290  177.5250  145.8750 C   0  0  0  0  0  0  0  0  0  0  0  0
  186.7520  178.3910  141.9140 O   0  0  0  0  0  0  0  0  0  0  0  0
  189.2410  177.0950  146.2290 N   0  0  0  0  0  1  0  0  0  0  0  0
  189.3520  177.5400  138.5290 C   0  0  2  0  0  3  0  0  0  0  0  0
  183.6280  179.0760  143.7700 C   0  0  0  0  0  3  0  0  0  0  0  0
  190.8470  176.4670  140.2170 N   0  0  0  0  0  0  0  0  0  0  0  0
  190.6640  176.8840  142.5340 N   0  0  0  0  0  0  0  0  0  0  0  0
  184.5370  178.9420  142.7160 C   0  0  0  0  0  3  0  0  0  0  0  0
  189.9030  177.1770  143.5440 C   0  0  0  0  0  3  0  0  0  0  0  0
  188.3090  177.5400  139.6340 C   0  0  0  0  0  2  0  0  0  0  0  0
  188.5110  177.6610  143.3650 C   0  0  0  0  0  0  0  0  0  0  0  0
  185.7380  178.0790  146.6330 C   0  0  0  0  0  3  0  0  0  0  0  0
  187.0110  177.6720  146.8690 N   0  0  0  0  0  0  0  0  0  0  0  0
  186.2520  178.2280  144.2790 C   0  0  0  0  0  0  0  0  0  0  0  0
  185.3310  178.3660  145.3360 C   0  0  0  0  0  0  0  0  0  0  0  0
  187.5720  177.8010  144.5290 C   0  0  0  0  0  0  0  0  0  0  0  0
  185.8450  178.5200  142.9670 C   0  0  0  0  0  0  0  0  0  0  0  0
  188.0700  177.9590  142.1180 C   0  0  0  0  0  0  0  0  0  0  0  0
  188.6780  177.2700  137.1960 C   0  0  0  0  0  2  0  0  0  0  0  0
  187.4810  176.4670  137.3980 N   0  0  0  0  0  2  0  0  0  0  0  0
  187.3870  175.1100  136.9660 C   0  0  0  0  0  0  0  0  0  0  0  0
  186.3200  174.4700  137.1620 O   0  0  0  0  0  0  0  0  0  0  0  0
  188.5160  174.4440  136.2530 C   0  0  0  0  0  2  0  0  0  0  0  0
  188.3580  173.0600  136.3160 O   0  0  0  0  0  1  0  0  0  0  0  0
  1 10  1  0  0  0  0
  2 14  1  6  0  0  0
  2  3  1  0  0  0  0
  2 22  1  0  0  0  0
  3 11  1  0  0  0  0
  4 19  1  0  0  0  0
  5  7  1  0  0  0  0
  5 17  1  0  0  0  0
  6 22  1  0  0  0  0
  6 21  1  0  0  0  0
  8 23  1  6  0  0  0
  8  1  1  0  0  0  0
  8 14  1  0  0  0  0
  9  4  2  0  0  0  0
 10  3  2  0  0  0  0
 11 13  2  0  0  0  0
 12 21  2  0  0  0  0
 12  9  1  0  0  0  0
 15 13  1  0  0  0  0
 15 20  1  0  0  0  0
 16 17  2  0  0  0  0
 18 20  1  0  0  0  0
 18 19  2  0  0  0  0
 19 16  1  0  0  0  0
 20  5  2  0  0  0  0
 21 18  1  0  0  0  0
 22 15  2  0  0  0  0
 23 24  1  0  0  0  0
 25 26  2  0  0  0  0
 25 24  1  0  0  0  0
 27 28  1  0  0  0  0
 27 25  1  0  0  0  0
M  END
>  <MODEL>
8

>  <REMARK>
 VINA RESULT:      -9.3      3.660      6.049
  Name = 
  3 active torsions:
  status: ('A' for Active; 'I' for Inactive)
    1  A    between atoms: C_8  and  C_22
    2  A    between atoms: N_10  and  C_22
    3  A    between atoms: C_11  and  C_24
                            x       y       z     vdW  Elec       q    Type
                         _______ _______ _______ _____ _____    ______ ____

>  <TORSDO>
F 3

$$$$
=
 OpenBabel11032420163D

 28 32  0  0  1  0  0  0  0  0999 V2000
  191.2050  176.5870  140.3880 C   0  0  0  0  0  2  0  0  0  0  0  0
  189.2860  178.0350  142.0490 C   0  0  1  0  0  3  0  0  0  0  0  0
  190.4800  177.3090  142.6140 C   0  0  0  0  0  0  0  0  0  0  0  0
  183.5110  178.6590  145.0520 C   0  0  0  0  0  3  0  0  0  0  0  0
  187.2740  177.8860  146.7020 C   0  0  0  0  0  0  0  0  0  0  0  0
  186.8470  178.3320  142.5250 O   0  0  0  0  0  0  0  0  0  0  0  0
  188.5210  177.6280  147.3420 N   0  0  0  0  0  1  0  0  0  0  0  0
  190.1450  177.5250  139.8020 C   0  0  2  0  0  3  0  0  0  0  0  0
  183.3630  178.8060  143.6700 C   0  0  0  0  0  3  0  0  0  0  0  0
  191.3600  176.7450  141.8390 N   0  0  0  0  0  0  0  0  0  0  0  0
  190.6750  177.3060  144.0290 N   0  0  0  0  0  0  0  0  0  0  0  0
  184.4750  178.6960  142.8290 C   0  0  0  0  0  3  0  0  0  0  0  0
  189.7010  177.5870  144.8410 C   0  0  0  0  0  3  0  0  0  0  0  0
  188.9050  177.4920  140.6800 C   0  0  0  0  0  2  0  0  0  0  0  0
  188.3360  177.9030  144.3510 C   0  0  0  0  0  0  0  0  0  0  0  0
  184.9340  178.2540  146.9670 C   0  0  0  0  0  3  0  0  0  0  0  0
  186.1650  178.0050  147.4820 N   0  0  0  0  0  0  0  0  0  0  0  0
  185.8970  178.2860  144.7530 C   0  0  0  0  0  0  0  0  0  0  0  0
  184.7730  178.4000  145.5950 C   0  0  0  0  0  0  0  0  0  0  0  0
  187.1730  178.0240  145.2930 C   0  0  0  0  0  0  0  0  0  0  0  0
  185.7390  178.4370  143.3670 C   0  0  0  0  0  0  0  0  0  0  0  0
  188.1310  178.0610  143.0200 C   0  0  0  0  0  0  0  0  0  0  0  0
  189.7820  177.0890  138.3950 C   0  0  0  0  0  2  0  0  0  0  0  0
  189.4410  178.2500  137.5870 N   0  0  0  0  0  2  0  0  0  0  0  0
  188.0900  178.6300  137.3210 C   0  0  0  0  0  0  0  0  0  0  0  0
  187.8610  179.6410  136.6080 O   0  0  0  0  0  0  0  0  0  0  0  0
  186.9440  177.8310  137.8440 C   0  0  0  0  0  2  0  0  0  0  0  0
  186.1570  178.6270  138.6740 O   0  0  0  0  0  1  0  0  0  0  0  0
  1 10  1  0  0  0  0
  2 14  1  6  0  0  0
  2  3  1  0  0  0  0
  2 22  1  0  0  0  0
  3 11  1  0  0  0  0
  4 19  1  0  0  0  0
  5  7  1  0  0  0  0
  5 17  1  0  0  0  0
  6 22  1  0  0  0  0
  6 21  1  0  0  0  0
  8 23  1  6  0  0  0
  8  1  1  0  0  0  0
  8 14  1  0  0  0  0
  9  4  2  0  0  0  0
 10  3  2  0  0  0  0
 11 13  2  0  0  0  0
 12 21  2  0  0  0  0
 12  9  1  0  0  0  0
 15 13  1  0  0  0  0
 15 20  1  0  0  0  0
 16 17  2  0  0  0  0
 18 20  1  0  0  0  0
 18 19  2  0  0  0  0
 19 16  1  0  0  0  0
 20  5  2  0  0  0  0
 21 18  1  0  0  0  0
 22 15  2  0  0  0  0
 24 23  1  0  0  0  0
 25 24  1  0  0  0  0
 25 27  1  0  0  0  0
 26 25  2  0  0  0  0
 27 28  1  0  0  0  0
M  END
>  <MODEL>
9

>  <REMARK>
 VINA RESULT:      -9.2      2.659      5.532
  Name = 
  3 active torsions:
  status: ('A' for Active; 'I' for Inactive)
    1  A    between atoms: C_8  and  C_22
    2  A    between atoms: N_10  and  C_22
    3  A    between atoms: C_11  and  C_24
                            x       y       z     vdW  Elec       q    Type
                         _______ _______ _______ _____ _____    ______ ____

>  <TORSDO>
F 3

$$$$
