=
 OpenBabel11042410023D

 38 44  0  0  1  0  0  0  0  0999 V2000
  190.9360  178.1130  145.6960 C   0  0  0  0  0  2  0  0  0  0  0  0
  188.0370  177.3820  142.6360 C   0  0  1  0  0  3  0  0  0  0  0  0
  188.5820  177.5220  140.1960 C   0  0  0  0  0  3  0  0  0  0  0  0
  190.1380  176.8160  145.8330 C   0  0  2  0  0  3  0  0  0  0  0  0
  188.1610  177.5130  135.5910 C   0  0  0  0  0  3  0  0  0  0  0  0
  189.4770  177.9630  139.0880 C   0  0  0  0  0  0  0  0  0  0  0  0
  188.7140  177.9610  137.7910 C   0  0  0  0  0  0  0  0  0  0  0  0
  190.2100  178.1310  143.3560 N   0  0  0  0  0  0  0  0  0  0  0  0
  191.4560  177.6750  141.3340 C   0  0  0  0  0  3  0  0  0  0  0  0
  190.2900  177.8800  141.9610 C   0  0  0  0  0  0  0  0  0  0  0  0
  187.5120  178.6750  137.5740 N   0  0  0  0  0  0  0  0  0  0  0  0
  188.9690  177.5390  141.4710 C   0  0  0  0  0  0  0  0  0  0  0  0
  191.1300  176.4520  137.7550 C   0  0  0  0  0  0  0  0  0  0  0  0
  188.8930  176.7610  144.9290 C   0  0  0  0  0  2  0  0  0  0  0  0
  187.0930  178.4340  136.1990 C   0  0  0  0  0  3  0  0  0  0  0  0
  190.3430  176.5280  136.6770 C   0  0  0  0  0  3  0  0  0  0  0  0
  189.7600  176.6320  147.1620 O   0  0  0  0  0  1  0  0  0  0  0  0
  188.8610  177.8490  143.8500 C   0  0  2  0  0  3  0  0  0  0  0  0
  191.3590  178.3060  144.2430 C   0  0  0  0  0  2  0  0  0  0  0  0
  190.7600  177.1530  139.0180 C   0  0  0  0  0  0  0  0  0  0  0  0
  189.1070  177.3130  136.7180 C   0  0  0  0  0  0  0  0  0  0  0  0
  191.6090  177.1380  140.0080 N   0  0  0  0  0  0  0  0  0  0  0  0
  186.8020  178.2250  142.4860 C   0  0  0  0  0  0  0  0  0  0  0  0
  186.7310  179.0740  141.6060 O   0  0  0  0  0  0  0  0  0  0  0  0
  185.4330  179.1480  144.3410 C   0  0  0  0  0  2  0  0  0  0  0  0
  184.3600  177.8520  142.6170 C   0  0  0  0  0  2  0  0  0  0  0  0
  185.6460  177.9830  143.4050 C   0  0  1  0  0  3  0  0  0  0  0  0
  183.3260  178.5890  143.3310 N   0  0  0  0  0  0  0  0  0  0  0  0
  184.0270  179.6350  144.0620 C   0  0  0  0  0  2  0  0  0  0  0  0
  182.5000  179.2530  142.3360 C   0  0  0  0  0  2  0  0  0  0  0  0
  182.6870  178.5970  140.9780 C   0  0  0  0  0  2  0  0  0  0  0  0
  181.7450  179.1030  140.0760 O   0  0  0  0  0  0  0  0  0  0  0  0
  181.8620  179.5540  137.8190 O   0  0  0  0  0  0  0  0  0  0  0  0
  182.4730  179.7520  139.0690 C   0  0  1  0  0  0  0  0  0  0  0  0
  181.8210  180.8630  138.3410 C   0  0  0  0  0  2  0  0  0  0  0  0
  183.9730  179.5330  138.9740 C   0  0  0  0  0  1  0  0  0  0  0  0
  193.3090  175.0480  137.5990 N   0  0  0  0  0  0  0  0  0  0  0  0
  192.3380  175.6730  137.6680 C   0  0  0  0  0  0  0  0  0  0  0  0
  1  4  1  0  0  0  0
  2 23  1  6  0  0  0
  2 18  1  0  0  0  0
  3 12  1  0  0  0  0
  4 17  1  1  0  0  0
  5 15  2  0  0  0  0
  5 21  1  0  0  0  0
  6  3  2  0  0  0  0
  7  6  1  0  0  0  0
  8 18  1  0  0  0  0
  8 19  1  0  0  0  0
  9 10  1  0  0  0  0
 10  8  1  0  0  0  0
 11  7  2  0  0  0  0
 12 10  2  0  0  0  0
 12  2  1  0  0  0  0
 13 20  2  0  0  0  0
 14  4  1  0  0  0  0
 15 11  1  0  0  0  0
 16 21  2  0  0  0  0
 16 13  1  0  0  0  0
 18 14  1  1  0  0  0
 19  1  1  0  0  0  0
 20  6  1  0  0  0  0
 20 22  1  0  0  0  0
 21  7  1  0  0  0  0
 22  9  2  0  0  0  0
 24 23  2  0  0  0  0
 26 28  1  0  0  0  0
 26 27  1  0  0  0  0
 27 23  1  6  0  0  0
 27 25  1  0  0  0  0
 28 29  1  0  0  0  0
 29 25  1  0  0  0  0
 30 28  1  0  0  0  0
 31 30  1  0  0  0  0
 32 31  1  0  0  0  0
 33 35  1  0  0  0  0
 33 34  1  0  0  0  0
 34 36  1  1  0  0  0
 34 32  1  0  0  0  0
 35 34  1  0  0  0  0
 37 38  3  0  0  0  0
 38 13  1  0  0  0  0
M  END
>  <MODEL>
1

>  <REMARK>
 VINA RESULT:      -8.1      0.000      0.000
  Name = 
  7 active torsions:
  status: ('A' for Active; 'I' for Inactive)
    1  A    between atoms: C_3  and  C_14
    2  A    between atoms: C_13  and  O_34
    3  A    between atoms: C_14  and  C_17
    4  A    between atoms: C_15  and  C_29
    5  A    between atoms: C_15  and  N_36
    6  A    between atoms: C_21  and  C_33
    7  A    between atoms: C_29  and  O_34
                            x       y       z     vdW  Elec       q    Type
                         _______ _______ _______ _____ _____    ______ ____

>  <TORSDO>
F 7

$$$$
=
 OpenBabel11042410023D

 38 44  0  0  1  0  0  0  0  0999 V2000
  190.8800  178.1350  145.7070 C   0  0  0  0  0  2  0  0  0  0  0  0
  187.9950  177.3580  142.6460 C   0  0  1  0  0  3  0  0  0  0  0  0
  188.5400  177.5020  140.2070 C   0  0  0  0  0  3  0  0  0  0  0  0
  190.1000  176.8270  145.8450 C   0  0  2  0  0  3  0  0  0  0  0  0
  188.1230  177.4810  135.6010 C   0  0  0  0  0  3  0  0  0  0  0  0
  189.4290  177.9550  139.0990 C   0  0  0  0  0  0  0  0  0  0  0  0
  188.6680  177.9390  137.8010 C   0  0  0  0  0  0  0  0  0  0  0  0
  190.1560  178.1390  143.3670 N   0  0  0  0  0  0  0  0  0  0  0  0
  191.4110  177.6970  141.3470 C   0  0  0  0  0  3  0  0  0  0  0  0
  190.2410  177.8870  141.9730 C   0  0  0  0  0  0  0  0  0  0  0  0
  187.4570  178.6370  137.5820 N   0  0  0  0  0  0  0  0  0  0  0  0
  188.9250  177.5270  141.4810 C   0  0  0  0  0  0  0  0  0  0  0  0
  191.1040  176.4650  137.7690 C   0  0  0  0  0  0  0  0  0  0  0  0
  188.8570  176.7520  144.9410 C   0  0  0  0  0  2  0  0  0  0  0  0
  187.0420  178.3880  136.2070 C   0  0  0  0  0  3  0  0  0  0  0  0
  190.3180  176.5290  136.6900 C   0  0  0  0  0  3  0  0  0  0  0  0
  189.7240  176.6390  147.1740 O   0  0  0  0  0  1  0  0  0  0  0  0
  188.8110  177.8390  143.8600 C   0  0  2  0  0  3  0  0  0  0  0  0
  191.3020  178.3310  144.2540 C   0  0  0  0  0  2  0  0  0  0  0  0
  190.7240  177.1620  139.0310 C   0  0  0  0  0  0  0  0  0  0  0  0
  189.0710  177.2960  136.7300 C   0  0  0  0  0  0  0  0  0  0  0  0
  191.5720  177.1610  140.0210 N   0  0  0  0  0  0  0  0  0  0  0  0
  186.7480  178.1830  142.4940 C   0  0  0  0  0  0  0  0  0  0  0  0
  186.7100  179.1120  141.6960 O   0  0  0  0  0  0  0  0  0  0  0  0
  185.3110  178.8240  144.4150 C   0  0  0  0  0  2  0  0  0  0  0  0
  184.2940  177.8720  142.4490 C   0  0  0  0  0  2  0  0  0  0  0  0
  185.5420  177.8280  143.3050 C   0  0  1  0  0  3  0  0  0  0  0  0
  183.2440  178.5110  143.2300 N   0  0  0  0  0  0  0  0  0  0  0  0
  183.9330  179.3960  144.1590 C   0  0  0  0  0  2  0  0  0  0  0  0
  182.4850  179.3600  142.3260 C   0  0  0  0  0  2  0  0  0  0  0  0
  181.0110  179.3300  142.6940 C   0  0  0  0  0  2  0  0  0  0  0  0
  180.3830  180.4880  142.2220 O   0  0  0  0  0  0  0  0  0  0  0  0
  179.0120  181.1960  140.5100 O   0  0  0  0  0  0  0  0  0  0  0  0
  179.8490  180.1640  140.9670 C   0  0  1  0  0  0  0  0  0  0  0  0
  180.2210  181.0070  139.8100 C   0  0  0  0  0  2  0  0  0  0  0  0
  179.1920  178.8090  140.7640 C   0  0  0  0  0  1  0  0  0  0  0  0
  193.3030  175.0910  137.6170 N   0  0  0  0  0  0  0  0  0  0  0  0
  192.3240  175.7030  137.6850 C   0  0  0  0  0  0  0  0  0  0  0  0
  1  4  1  0  0  0  0
  2 23  1  6  0  0  0
  2 18  1  0  0  0  0
  3 12  1  0  0  0  0
  4 17  1  1  0  0  0
  5 15  2  0  0  0  0
  5 21  1  0  0  0  0
  6  3  2  0  0  0  0
  7  6  1  0  0  0  0
  8 18  1  0  0  0  0
  8 19  1  0  0  0  0
  9 10  1  0  0  0  0
 10  8  1  0  0  0  0
 11  7  2  0  0  0  0
 12 10  2  0  0  0  0
 12  2  1  0  0  0  0
 13 20  2  0  0  0  0
 14  4  1  0  0  0  0
 15 11  1  0  0  0  0
 16 21  2  0  0  0  0
 16 13  1  0  0  0  0
 18 14  1  1  0  0  0
 19  1  1  0  0  0  0
 20  6  1  0  0  0  0
 20 22  1  0  0  0  0
 21  7  1  0  0  0  0
 22  9  2  0  0  0  0
 24 23  2  0  0  0  0
 26 28  1  0  0  0  0
 26 27  1  0  0  0  0
 27 23  1  6  0  0  0
 27 25  1  0  0  0  0
 28 29  1  0  0  0  0
 29 25  1  0  0  0  0
 30 31  1  0  0  0  0
 30 28  1  0  0  0  0
 32 31  1  0  0  0  0
 33 34  1  0  0  0  0
 34 36  1  6  0  0  0
 34 32  1  0  0  0  0
 35 33  1  0  0  0  0
 35 34  1  0  0  0  0
 37 38  3  0  0  0  0
 38 13  1  0  0  0  0
M  END
>  <MODEL>
2

>  <REMARK>
 VINA RESULT:      -7.8      1.200      1.406
  Name = 
  7 active torsions:
  status: ('A' for Active; 'I' for Inactive)
    1  A    between atoms: C_3  and  C_14
    2  A    between atoms: C_13  and  O_34
    3  A    between atoms: C_14  and  C_17
    4  A    between atoms: C_15  and  C_29
    5  A    between atoms: C_15  and  N_36
    6  A    between atoms: C_21  and  C_33
    7  A    between atoms: C_29  and  O_34
                            x       y       z     vdW  Elec       q    Type
                         _______ _______ _______ _____ _____    ______ ____

>  <TORSDO>
F 7

$$$$
=
 OpenBabel11042410023D

 38 44  0  0  1  0  0  0  0  0999 V2000
  189.3640  178.2210  140.9990 C   0  0  0  0  0  2  0  0  0  0  0  0
  185.7420  178.0100  143.2660 C   0  0  1  0  0  3  0  0  0  0  0  0
  183.4910  178.4480  142.2610 C   0  0  0  0  0  3  0  0  0  0  0  0
  189.1700  176.9490  141.8260 C   0  0  2  0  0  3  0  0  0  0  0  0
  178.9320  179.0610  141.7900 C   0  0  0  0  0  3  0  0  0  0  0  0
  182.6420  178.9960  141.1640 C   0  0  0  0  0  0  0  0  0  0  0  0
  181.2370  179.1940  141.6640 C   0  0  0  0  0  0  0  0  0  0  0  0
  186.9540  178.5740  141.2620 N   0  0  0  0  0  0  0  0  0  0  0  0
  185.1600  178.3390  139.6560 C   0  0  0  0  0  3  0  0  0  0  0  0
  185.5780  178.5050  140.9190 C   0  0  0  0  0  0  0  0  0  0  0  0
  180.8970  179.9770  142.7920 N   0  0  0  0  0  0  0  0  0  0  0  0
  184.8060  178.2830  142.1260 C   0  0  0  0  0  0  0  0  0  0  0  0
  181.4510  177.6110  139.3060 C   0  0  0  0  0  0  0  0  0  0  0  0
  188.0490  177.0610  142.8740 C   0  0  0  0  0  2  0  0  0  0  0  0
  179.4470  179.9350  142.9420 C   0  0  0  0  0  3  0  0  0  0  0  0
  180.2650  177.8580  139.8690 C   0  0  0  0  0  3  0  0  0  0  0  0
  190.3660  176.6060  142.4540 O   0  0  0  0  0  1  0  0  0  0  0  0
  187.1420  178.2820  142.6840 C   0  0  2  0  0  3  0  0  0  0  0  0
  188.0570  178.5860  140.3020 C   0  0  0  0  0  2  0  0  0  0  0  0
  182.7060  178.1530  139.9020 C   0  0  0  0  0  0  0  0  0  0  0  0
  180.1790  178.6780  141.0810 C   0  0  0  0  0  0  0  0  0  0  0  0
  183.8260  177.9760  139.2590 N   0  0  0  0  0  0  0  0  0  0  0  0
  185.4780  178.9130  144.4380 C   0  0  0  0  0  0  0  0  0  0  0  0
  185.2810  180.1100  144.2690 O   0  0  0  0  0  0  0  0  0  0  0  0
  185.9870  176.9190  145.8290 C   0  0  0  0  0  2  0  0  0  0  0  0
  186.2780  179.1170  146.7700 C   0  0  0  0  0  2  0  0  0  0  0  0
  185.4230  178.3190  145.8100 C   0  0  1  0  0  3  0  0  0  0  0  0
  187.0020  178.1720  147.6100 N   0  0  0  0  0  0  0  0  0  0  0  0
  187.1410  176.9650  146.8070 C   0  0  0  0  0  2  0  0  0  0  0  0
  188.3410  178.7020  147.8070 C   0  0  0  0  0  2  0  0  0  0  0  0
  189.3430  177.9160  146.9780 C   0  0  0  0  0  2  0  0  0  0  0  0
  190.0340  177.0190  147.8000 O   0  0  0  0  0  0  0  0  0  0  0  0
  192.3320  176.8700  147.8990 O   0  0  0  0  0  0  0  0  0  0  0  0
  191.1940  176.6570  147.1020 C   0  0  1  0  0  0  0  0  0  0  0  0
  191.9990  175.5290  147.6190 C   0  0  0  0  0  2  0  0  0  0  0  0
  191.4150  177.1910  145.6960 C   0  0  0  0  0  1  0  0  0  0  0  0
  181.5180  176.1550  137.1560 N   0  0  0  0  0  0  0  0  0  0  0  0
  181.4880  176.8040  138.1140 C   0  0  0  0  0  0  0  0  0  0  0  0
  1  4  1  0  0  0  0
  2 23  1  1  0  0  0
  4 17  1  1  0  0  0
  4 14  1  0  0  0  0
  5 15  2  0  0  0  0
  6  7  1  0  0  0  0
  6  3  2  0  0  0  0
  7 11  2  0  0  0  0
  8 18  1  0  0  0  0
  9 10  1  0  0  0  0
 10  8  1  0  0  0  0
 10 12  2  0  0  0  0
 11 15  1  0  0  0  0
 12  3  1  0  0  0  0
 12  2  1  0  0  0  0
 13 16  1  0  0  0  0
 13 20  2  0  0  0  0
 16 21  2  0  0  0  0
 18 14  1  6  0  0  0
 18  2  1  0  0  0  0
 19  1  1  0  0  0  0
 19  8  1  0  0  0  0
 20  6  1  0  0  0  0
 21  7  1  0  0  0  0
 21  5  1  0  0  0  0
 22  9  2  0  0  0  0
 22 20  1  0  0  0  0
 24 23  2  0  0  0  0
 25 29  1  0  0  0  0
 26 28  1  0  0  0  0
 27 23  1  6  0  0  0
 27 25  1  0  0  0  0
 27 26  1  0  0  0  0
 28 30  1  0  0  0  0
 29 28  1  0  0  0  0
 31 32  1  0  0  0  0
 31 30  1  0  0  0  0
 34 36  1  6  0  0  0
 34 35  1  0  0  0  0
 34 32  1  0  0  0  0
 34 33  1  0  0  0  0
 35 33  1  0  0  0  0
 37 38  3  0  0  0  0
 38 13  1  0  0  0  0
M  END
>  <MODEL>
3

>  <REMARK>
 VINA RESULT:      -7.6      3.274      8.022
  Name = 
  7 active torsions:
  status: ('A' for Active; 'I' for Inactive)
    1  A    between atoms: C_3  and  C_14
    2  A    between atoms: C_13  and  O_34
    3  A    between atoms: C_14  and  C_17
    4  A    between atoms: C_15  and  C_29
    5  A    between atoms: C_15  and  N_36
    6  A    between atoms: C_21  and  C_33
    7  A    between atoms: C_29  and  O_34
                            x       y       z     vdW  Elec       q    Type
                         _______ _______ _______ _____ _____    ______ ____

>  <TORSDO>
F 7

$$$$
=
 OpenBabel11042410023D

 38 44  0  0  1  0  0  0  0  0999 V2000
  189.6560  178.0220  136.1930 C   0  0  0  0  0  2  0  0  0  0  0  0
  188.4860  177.2230  140.2300 C   0  0  1  0  0  3  0  0  0  0  0  0
  186.3440  178.0700  141.2090 C   0  0  0  0  0  3  0  0  0  0  0  0
  189.7190  176.5560  136.6260 C   0  0  2  0  0  3  0  0  0  0  0  0
  182.9450  179.0020  144.2030 C   0  0  0  0  0  3  0  0  0  0  0  0
  185.1700  178.9890  141.1680 C   0  0  0  0  0  0  0  0  0  0  0  0
  184.5440  179.0690  142.5330 C   0  0  0  0  0  0  0  0  0  0  0  0
  188.2000  178.3710  138.1320 N   0  0  0  0  0  0  0  0  0  0  0  0
  185.8160  178.7650  138.2390 C   0  0  0  0  0  3  0  0  0  0  0  0
  186.9780  178.4810  138.8440 C   0  0  0  0  0  0  0  0  0  0  0  0
  185.2390  179.4440  143.7070 N   0  0  0  0  0  0  0  0  0  0  0  0
  187.1510  177.9020  140.1630 C   0  0  0  0  0  0  0  0  0  0  0  0
  182.7490  178.3580  140.4390 C   0  0  0  0  0  0  0  0  0  0  0  0
  189.6290  176.3600  138.1500 C   0  0  0  0  0  2  0  0  0  0  0  0
  184.2910  179.4170  144.8140 C   0  0  0  0  0  3  0  0  0  0  0  0
  182.3330  178.4550  141.7050 C   0  0  0  0  0  3  0  0  0  0  0  0
  190.8900  175.9720  136.1470 O   0  0  0  0  0  1  0  0  0  0  0  0
  189.1800  177.6120  138.9110 C   0  0  2  0  0  3  0  0  0  0  0  0
  188.3670  178.6550  136.7070 C   0  0  0  0  0  2  0  0  0  0  0  0
  184.1740  178.6150  140.0830 C   0  0  0  0  0  0  0  0  0  0  0  0
  183.2740  178.8250  142.7660 C   0  0  0  0  0  0  0  0  0  0  0  0
  184.5100  178.6140  138.8240 N   0  0  0  0  0  0  0  0  0  0  0  0
  189.2970  177.6920  141.4050 C   0  0  0  0  0  0  0  0  0  0  0  0
  189.0370  178.7550  141.9560 O   0  0  0  0  0  0  0  0  0  0  0  0
  191.6810  177.6030  142.0960 C   0  0  0  0  0  2  0  0  0  0  0  0
  190.0590  176.2760  143.2850 C   0  0  0  0  0  2  0  0  0  0  0  0
  190.4020  176.8210  141.9150 C   0  0  1  0  0  3  0  0  0  0  0  0
  191.2590  176.3580  144.1070 N   0  0  0  0  0  0  0  0  0  0  0  0
  192.0300  177.4670  143.5620 C   0  0  0  0  0  2  0  0  0  0  0  0
  190.8440  176.7520  145.4440 C   0  0  0  0  0  2  0  0  0  0  0  0
  189.4510  177.3590  145.4020 C   0  0  0  0  0  2  0  0  0  0  0  0
  189.2760  178.2120  146.4970 O   0  0  0  0  0  0  0  0  0  0  0  0
  188.3130  176.7970  148.0400 O   0  0  0  0  0  0  0  0  0  0  0  0
  188.0770  177.8240  147.1110 C   0  0  1  0  0  0  0  0  0  0  0  0
  187.9330  178.0480  148.5660 C   0  0  0  0  0  2  0  0  0  0  0  0
  186.8680  177.5020  146.2490 C   0  0  0  0  0  1  0  0  0  0  0  0
  181.0180  177.7040  138.6170 N   0  0  0  0  0  0  0  0  0  0  0  0
  181.7890  177.9960  139.4280 C   0  0  0  0  0  0  0  0  0  0  0  0
  1  4  1  0  0  0  0
  1 19  1  0  0  0  0
  2 23  1  1  0  0  0
  4 17  1  1  0  0  0
  4 14  1  0  0  0  0
  5 15  1  0  0  0  0
  6  3  1  0  0  0  0
  6  7  2  0  0  0  0
  7 21  1  0  0  0  0
  7 11  1  0  0  0  0
  8 10  1  0  0  0  0
  8 18  1  0  0  0  0
  9 22  1  0  0  0  0
  9 10  2  0  0  0  0
 10 12  1  0  0  0  0
 11 15  2  0  0  0  0
 12  2  1  0  0  0  0
 12  3  2  0  0  0  0
 13 16  2  0  0  0  0
 16 21  1  0  0  0  0
 18 14  1  6  0  0  0
 18  2  1  0  0  0  0
 19  8  1  0  0  0  0
 20 13  1  0  0  0  0
 20  6  1  0  0  0  0
 21  5  2  0  0  0  0
 22 20  2  0  0  0  0
 23 24  2  0  0  0  0
 25 29  1  0  0  0  0
 26 28  1  0  0  0  0
 27 23  1  1  0  0  0
 27 25  1  0  0  0  0
 27 26  1  0  0  0  0
 28 30  1  0  0  0  0
 29 28  1  0  0  0  0
 31 30  1  0  0  0  0
 31 32  1  0  0  0  0
 32 34  1  0  0  0  0
 33 35  1  0  0  0  0
 34 36  1  6  0  0  0
 34 33  1  0  0  0  0
 34 35  1  0  0  0  0
 37 38  3  0  0  0  0
 38 13  1  0  0  0  0
M  END
>  <MODEL>
4

>  <REMARK>
 VINA RESULT:      -7.6      2.607      8.029
  Name = 
  7 active torsions:
  status: ('A' for Active; 'I' for Inactive)
    1  A    between atoms: C_3  and  C_14
    2  A    between atoms: C_13  and  O_34
    3  A    between atoms: C_14  and  C_17
    4  A    between atoms: C_15  and  C_29
    5  A    between atoms: C_15  and  N_36
    6  A    between atoms: C_21  and  C_33
    7  A    between atoms: C_29  and  O_34
                            x       y       z     vdW  Elec       q    Type
                         _______ _______ _______ _____ _____    ______ ____

>  <TORSDO>
F 7

$$$$
=
 OpenBabel11042410023D

 38 44  0  0  1  0  0  0  0  0999 V2000
  189.2840  176.7260  137.6580 C   0  0  0  0  0  2  0  0  0  0  0  0
  187.1150  178.9060  140.6320 C   0  0  1  0  0  3  0  0  0  0  0  0
  187.1620  178.2940  143.0590 C   0  0  0  0  0  3  0  0  0  0  0  0
  189.4790  178.2430  137.6450 C   0  0  2  0  0  3  0  0  0  0  0  0
  186.2910  178.2580  147.6000 C   0  0  0  0  0  3  0  0  0  0  0  0
  187.4540  177.3170  144.1470 C   0  0  0  0  0  0  0  0  0  0  0  0
  186.7070  177.7100  145.3930 C   0  0  0  0  0  0  0  0  0  0  0  0
  188.4300  177.0110  139.9360 N   0  0  0  0  0  0  0  0  0  0  0  0
  189.4400  176.4510  142.0610 C   0  0  0  0  0  3  0  0  0  0  0  0
  188.4800  177.0640  141.3530 C   0  0  0  0  0  0  0  0  0  0  0  0
  185.3060  177.8930  145.4550 N   0  0  0  0  0  0  0  0  0  0  0  0
  187.6040  178.1230  141.8140 C   0  0  0  0  0  0  0  0  0  0  0  0
  189.5130  177.3680  145.7440 C   0  0  0  0  0  0  0  0  0  0  0  0
  188.4370  179.0050  138.4830 C   0  0  0  0  0  2  0  0  0  0  0  0
  184.9640  178.2510  146.8270 C   0  0  0  0  0  3  0  0  0  0  0  0
  188.7260  177.7290  146.7620 C   0  0  0  0  0  3  0  0  0  0  0  0
  189.4570  178.7110  136.3320 O   0  0  0  0  0  1  0  0  0  0  0  0
  187.6130  178.1070  139.4130 C   0  0  2  0  0  3  0  0  0  0  0  0
  189.3220  176.2150  139.0950 C   0  0  0  0  0  2  0  0  0  0  0  0
  188.9450  177.1390  144.3850 C   0  0  0  0  0  0  0  0  0  0  0  0
  187.2850  177.8960  146.5580 C   0  0  0  0  0  0  0  0  0  0  0  0
  189.7320  176.6850  143.4500 N   0  0  0  0  0  0  0  0  0  0  0  0
  185.6160  179.0130  140.6100 C   0  0  0  0  0  0  0  0  0  0  0  0
  185.0020  179.3510  141.6140 O   0  0  0  0  0  0  0  0  0  0  0  0
  184.1680  177.4150  139.3780 C   0  0  0  0  0  2  0  0  0  0  0  0
  183.8180  179.7820  139.0950 C   0  0  0  0  0  2  0  0  0  0  0  0
  184.8900  178.7400  139.3300 C   0  0  1  0  0  3  0  0  0  0  0  0
  182.6300  179.0920  138.6080 N   0  0  0  0  0  0  0  0  0  0  0  0
  182.7080  177.7460  139.1580 C   0  0  0  0  0  2  0  0  0  0  0  0
  181.4760  179.7310  139.2200 C   0  0  0  0  0  2  0  0  0  0  0  0
  180.8710  178.8190  140.2740 C   0  0  0  0  0  2  0  0  0  0  0  0
  179.8390  179.4880  140.9410 O   0  0  0  0  0  0  0  0  0  0  0  0
  180.0570  180.8720  142.7710 O   0  0  0  0  0  0  0  0  0  0  0  0
  180.2230  179.5630  142.2870 C   0  0  1  0  0  0  0  0  0  0  0  0
  179.1880  179.8920  143.2920 C   0  0  0  0  0  2  0  0  0  0  0  0
  181.5690  179.0000  142.7110 C   0  0  0  0  0  1  0  0  0  0  0  0
  192.0560  177.0860  146.1890 N   0  0  0  0  0  0  0  0  0  0  0  0
  190.9230  177.2120  145.9910 C   0  0  0  0  0  0  0  0  0  0  0  0
  1 19  1  0  0  0  0
  2 23  1  1  0  0  0
  2 12  1  0  0  0  0
  3  6  1  0  0  0  0
  4 17  1  6  0  0  0
  4  1  1  0  0  0  0
  4 14  1  0  0  0  0
  6 20  1  0  0  0  0
  6  7  2  0  0  0  0
  7 11  1  0  0  0  0
  7 21  1  0  0  0  0
  8 10  1  0  0  0  0
  9 22  1  0  0  0  0
 10 12  1  0  0  0  0
 10  9  2  0  0  0  0
 11 15  2  0  0  0  0
 12  3  2  0  0  0  0
 13 38  1  0  0  0  0
 13 16  2  0  0  0  0
 15  5  1  0  0  0  0
 18 14  1  6  0  0  0
 18  8  1  0  0  0  0
 18  2  1  0  0  0  0
 19  8  1  0  0  0  0
 20 13  1  0  0  0  0
 21 16  1  0  0  0  0
 21  5  2  0  0  0  0
 22 20  2  0  0  0  0
 23 24  2  0  0  0  0
 26 27  1  0  0  0  0
 27 25  1  0  0  0  0
 27 23  1  1  0  0  0
 28 26  1  0  0  0  0
 28 29  1  0  0  0  0
 28 30  1  0  0  0  0
 29 25  1  0  0  0  0
 30 31  1  0  0  0  0
 31 32  1  0  0  0  0
 32 34  1  0  0  0  0
 33 35  1  0  0  0  0
 34 36  1  1  0  0  0
 34 33  1  0  0  0  0
 34 35  1  0  0  0  0
 38 37  3  0  0  0  0
M  END
>  <MODEL>
5

>  <REMARK>
 VINA RESULT:      -7.5      2.478      6.389
  Name = 
  7 active torsions:
  status: ('A' for Active; 'I' for Inactive)
    1  A    between atoms: C_3  and  C_14
    2  A    between atoms: C_13  and  O_34
    3  A    between atoms: C_14  and  C_17
    4  A    between atoms: C_15  and  C_29
    5  A    between atoms: C_15  and  N_36
    6  A    between atoms: C_21  and  C_33
    7  A    between atoms: C_29  and  O_34
                            x       y       z     vdW  Elec       q    Type
                         _______ _______ _______ _____ _____    ______ ____

>  <TORSDO>
F 7

$$$$
=
 OpenBabel11042410023D

 38 44  0  0  1  0  0  0  0  0999 V2000
  189.3190  176.6540  137.7620 C   0  0  0  0  0  2  0  0  0  0  0  0
  187.2050  178.8860  140.7360 C   0  0  1  0  0  3  0  0  0  0  0  0
  187.2240  178.2640  143.1610 C   0  0  0  0  0  3  0  0  0  0  0  0
  189.5600  178.1640  137.7550 C   0  0  2  0  0  3  0  0  0  0  0  0
  186.3340  178.2380  147.6990 C   0  0  0  0  0  3  0  0  0  0  0  0
  187.4820  177.2750  144.2460 C   0  0  0  0  0  0  0  0  0  0  0  0
  186.7430  177.6860  145.4900 C   0  0  0  0  0  0  0  0  0  0  0  0
  188.4650  176.9560  140.0380 N   0  0  0  0  0  0  0  0  0  0  0  0
  189.4490  176.3570  142.1640 C   0  0  0  0  0  3  0  0  0  0  0  0
  188.5110  177.0010  141.4550 C   0  0  0  0  0  0  0  0  0  0  0  0
  185.3470  177.9100  145.5490 N   0  0  0  0  0  0  0  0  0  0  0  0
  187.6650  178.0850  141.9170 C   0  0  0  0  0  0  0  0  0  0  0  0
  189.5350  177.2580  145.8510 C   0  0  0  0  0  0  0  0  0  0  0  0
  188.5380  178.9540  138.5920 C   0  0  0  0  0  2  0  0  0  0  0  0
  185.0110  178.2730  146.9200 C   0  0  0  0  0  3  0  0  0  0  0  0
  188.7550  177.6380  146.8670 C   0  0  0  0  0  3  0  0  0  0  0  0
  189.5580  178.6370  136.4440 O   0  0  0  0  0  1  0  0  0  0  0  0
  187.6830  178.0780  139.5150 C   0  0  2  0  0  3  0  0  0  0  0  0
  189.3360  176.1360  139.1970 C   0  0  0  0  0  2  0  0  0  0  0  0
  188.9660  177.0510  144.4890 C   0  0  0  0  0  0  0  0  0  0  0  0
  187.3210  177.8500  146.6580 C   0  0  0  0  0  0  0  0  0  0  0  0
  189.7420  176.5770  143.5560 N   0  0  0  0  0  0  0  0  0  0  0  0
  185.7110  179.0400  140.7090 C   0  0  0  0  0  0  0  0  0  0  0  0
  185.1190  179.5430  141.6560 O   0  0  0  0  0  0  0  0  0  0  0  0
  184.0140  177.4700  139.8000 C   0  0  0  0  0  2  0  0  0  0  0  0
  184.0940  179.7290  138.9680 C   0  0  0  0  0  2  0  0  0  0  0  0
  184.9610  178.6030  139.4890 C   0  0  1  0  0  3  0  0  0  0  0  0
  182.8080  179.1590  138.5900 N   0  0  0  0  0  0  0  0  0  0  0  0
  182.6380  177.9850  139.4350 C   0  0  0  0  0  2  0  0  0  0  0  0
  181.7790  180.1100  138.9800 C   0  0  0  0  0  2  0  0  0  0  0  0
  181.3970  180.9820  137.7970 C   0  0  0  0  0  2  0  0  0  0  0  0
  181.0850  182.2720  138.2420 O   0  0  0  0  0  0  0  0  0  0  0  0
  180.0490  184.1230  137.3420 O   0  0  0  0  0  0  0  0  0  0  0  0
  180.9340  183.0600  137.0930 C   0  0  1  0  0  0  0  0  0  0  0  0
  181.4030  184.4620  137.1400 C   0  0  0  0  0  2  0  0  0  0  0  0
  180.6100  182.3910  135.7670 C   0  0  0  0  0  1  0  0  0  0  0  0
  192.0670  176.8960  146.3050 N   0  0  0  0  0  0  0  0  0  0  0  0
  190.9390  177.0570  146.1030 C   0  0  0  0  0  0  0  0  0  0  0  0
  1 19  1  0  0  0  0
  2 23  1  6  0  0  0
  2 12  1  0  0  0  0
  3  6  1  0  0  0  0
  4 17  1  6  0  0  0
  4  1  1  0  0  0  0
  4 14  1  0  0  0  0
  6 20  1  0  0  0  0
  6  7  2  0  0  0  0
  7 11  1  0  0  0  0
  7 21  1  0  0  0  0
  8 10  1  0  0  0  0
  9 22  1  0  0  0  0
 10 12  1  0  0  0  0
 10  9  2  0  0  0  0
 11 15  2  0  0  0  0
 12  3  2  0  0  0  0
 13 38  1  0  0  0  0
 13 16  2  0  0  0  0
 15  5  1  0  0  0  0
 18 14  1  6  0  0  0
 18  8  1  0  0  0  0
 18  2  1  0  0  0  0
 19  8  1  0  0  0  0
 20 13  1  0  0  0  0
 21 16  1  0  0  0  0
 21  5  2  0  0  0  0
 22 20  2  0  0  0  0
 23 24  2  0  0  0  0
 26 27  1  0  0  0  0
 27 25  1  0  0  0  0
 27 23  1  1  0  0  0
 28 26  1  0  0  0  0
 28 30  1  0  0  0  0
 28 29  1  0  0  0  0
 29 25  1  0  0  0  0
 31 32  1  0  0  0  0
 31 30  1  0  0  0  0
 34 36  1  6  0  0  0
 34 35  1  0  0  0  0
 34 33  1  0  0  0  0
 34 32  1  0  0  0  0
 35 33  1  0  0  0  0
 38 37  3  0  0  0  0
M  END
>  <MODEL>
6

>  <REMARK>
 VINA RESULT:      -7.5      2.562      6.411
  Name = 
  7 active torsions:
  status: ('A' for Active; 'I' for Inactive)
    1  A    between atoms: C_3  and  C_14
    2  A    between atoms: C_13  and  O_34
    3  A    between atoms: C_14  and  C_17
    4  A    between atoms: C_15  and  C_29
    5  A    between atoms: C_15  and  N_36
    6  A    between atoms: C_21  and  C_33
    7  A    between atoms: C_29  and  O_34
                            x       y       z     vdW  Elec       q    Type
                         _______ _______ _______ _____ _____    ______ ____

>  <TORSDO>
F 7

$$$$
=
 OpenBabel11042410023D

 38 44  0  0  1  0  0  0  0  0999 V2000
  190.3000  177.1080  144.5710 C   0  0  0  0  0  2  0  0  0  0  0  0
  188.5050  178.7560  141.0540 C   0  0  1  0  0  3  0  0  0  0  0  0
  186.0680  178.5120  140.5390 C   0  0  0  0  0  3  0  0  0  0  0  0
  190.5990  178.5830  144.3000 C   0  0  2  0  0  3  0  0  0  0  0  0
  181.9860  178.7530  138.3790 C   0  0  0  0  0  3  0  0  0  0  0  0
  184.7530  177.8450  140.7630 C   0  0  0  0  0  0  0  0  0  0  0  0
  183.8470  178.1090  139.5910 C   0  0  0  0  0  0  0  0  0  0  0  0
  188.4210  177.3650  143.0190 N   0  0  0  0  0  0  0  0  0  0  0  0
  186.0440  177.4670  143.4530 C   0  0  0  0  0  3  0  0  0  0  0  0
  187.0830  177.6120  142.6180 C   0  0  0  0  0  0  0  0  0  0  0  0
  184.1710  177.7990  138.2490 N   0  0  0  0  0  0  0  0  0  0  0  0
  187.0960  178.3490  141.3690 C   0  0  0  0  0  0  0  0  0  0  0  0
  182.7520  178.8120  142.1240 C   0  0  0  0  0  0  0  0  0  0  0  0
  190.2320  179.0350  142.8760 C   0  0  0  0  0  2  0  0  0  0  0  0
  183.0400  178.1860  137.4160 C   0  0  0  0  0  3  0  0  0  0  0  0
  182.0640  179.0020  140.9950 C   0  0  0  0  0  3  0  0  0  0  0  0
  191.9470  178.8440  144.5410 O   0  0  0  0  0  1  0  0  0  0  0  0
  189.3580  178.0330  142.1130 C   0  0  2  0  0  3  0  0  0  0  0  0
  188.8210  176.8290  144.3190 C   0  0  0  0  0  2  0  0  0  0  0  0
  184.1240  178.2280  142.0920 C   0  0  0  0  0  0  0  0  0  0  0  0
  182.6470  178.6300  139.7030 C   0  0  0  0  0  0  0  0  0  0  0  0
  184.7130  177.9620  143.2240 N   0  0  0  0  0  0  0  0  0  0  0  0
  188.9170  178.3320  139.6730 C   0  0  0  0  0  0  0  0  0  0  0  0
  189.0620  179.1630  138.7840 O   0  0  0  0  0  0  0  0  0  0  0  0
  188.6540  176.4600  138.0620 C   0  0  0  0  0  2  0  0  0  0  0  0
  190.6740  176.6180  139.3650 C   0  0  0  0  0  2  0  0  0  0  0  0
  189.1850  176.8830  139.4100 C   0  0  1  0  0  3  0  0  0  0  0  0
  190.9280  175.7110  138.2530 N   0  0  0  0  0  0  0  0  0  0  0  0
  189.8590  175.9570  137.2960 C   0  0  0  0  0  2  0  0  0  0  0  0
  192.1660  176.1370  137.6190 C   0  0  0  0  0  2  0  0  0  0  0  0
  193.2190  175.0480  137.7430 C   0  0  0  0  0  2  0  0  0  0  0  0
  194.3490  175.5570  138.3940 O   0  0  0  0  0  0  0  0  0  0  0  0
  196.5310  174.8380  138.2120 O   0  0  0  0  0  0  0  0  0  0  0  0
  195.2220  174.4740  138.5710 C   0  0  1  0  0  0  0  0  0  0  0  0
  196.2950  174.6010  139.5810 C   0  0  0  0  0  2  0  0  0  0  0  0
  194.8600  173.1210  137.9840 C   0  0  0  0  0  1  0  0  0  0  0  0
  181.6460  179.4900  144.3740 N   0  0  0  0  0  0  0  0  0  0  0  0
  182.1390  179.1880  143.3720 C   0  0  0  0  0  0  0  0  0  0  0  0
  2 23  1  6  0  0  0
  2 12  1  0  0  0  0
  2 18  1  0  0  0  0
  3  6  2  0  0  0  0
  3 12  1  0  0  0  0
  4 17  1  6  0  0  0
  4  1  1  0  0  0  0
  5 21  1  0  0  0  0
  6 20  1  0  0  0  0
  7 21  1  0  0  0  0
  7  6  1  0  0  0  0
  8 19  1  0  0  0  0
 10  8  1  0  0  0  0
 10  9  1  0  0  0  0
 11  7  2  0  0  0  0
 12 10  2  0  0  0  0
 13 38  1  0  0  0  0
 14  4  1  0  0  0  0
 15 11  1  0  0  0  0
 15  5  2  0  0  0  0
 16 13  1  0  0  0  0
 18 14  1  1  0  0  0
 18  8  1  0  0  0  0
 19  1  1  0  0  0  0
 20 13  2  0  0  0  0
 20 22  1  0  0  0  0
 21 16  2  0  0  0  0
 22  9  2  0  0  0  0
 24 23  2  0  0  0  0
 25 27  1  0  0  0  0
 26 27  1  0  0  0  0
 27 23  1  6  0  0  0
 28 26  1  0  0  0  0
 29 25  1  0  0  0  0
 29 28  1  0  0  0  0
 30 31  1  0  0  0  0
 30 28  1  0  0  0  0
 31 32  1  0  0  0  0
 32 34  1  0  0  0  0
 33 34  1  0  0  0  0
 33 35  1  0  0  0  0
 34 36  1  6  0  0  0
 34 35  1  0  0  0  0
 38 37  3  0  0  0  0
M  END
>  <MODEL>
7

>  <REMARK>
 VINA RESULT:      -7.2      3.024      8.223
  Name = 
  7 active torsions:
  status: ('A' for Active; 'I' for Inactive)
    1  A    between atoms: C_3  and  C_14
    2  A    between atoms: C_13  and  O_34
    3  A    between atoms: C_14  and  C_17
    4  A    between atoms: C_15  and  C_29
    5  A    between atoms: C_15  and  N_36
    6  A    between atoms: C_21  and  C_33
    7  A    between atoms: C_29  and  O_34
                            x       y       z     vdW  Elec       q    Type
                         _______ _______ _______ _____ _____    ______ ____

>  <TORSDO>
F 7

$$$$
=
 OpenBabel11042410023D

 38 44  0  0  1  0  0  0  0  0999 V2000
  192.7070  176.1040  136.4590 C   0  0  0  0  0  2  0  0  0  0  0  0
  189.2240  177.1230  138.7250 C   0  0  1  0  0  3  0  0  0  0  0  0
  186.9040  176.5940  137.9470 C   0  0  0  0  0  3  0  0  0  0  0  0
  192.7220  175.6790  137.9280 C   0  0  2  0  0  3  0  0  0  0  0  0
  182.2910  176.3470  137.7280 C   0  0  0  0  0  3  0  0  0  0  0  0
  185.9520  176.2100  136.8660 C   0  0  0  0  0  0  0  0  0  0  0  0
  184.5490  176.5640  137.2780 C   0  0  0  0  0  0  0  0  0  0  0  0
  190.2810  176.3320  136.7100 N   0  0  0  0  0  0  0  0  0  0  0  0
  188.4900  174.9450  135.8630 C   0  0  0  0  0  3  0  0  0  0  0  0
  188.9190  175.9360  136.6570 C   0  0  0  0  0  0  0  0  0  0  0  0
  184.1360  177.8620  137.6600 N   0  0  0  0  0  0  0  0  0  0  0  0
  188.2240  176.4960  137.7990 C   0  0  0  0  0  0  0  0  0  0  0  0
  184.9130  173.8470  136.5040 C   0  0  0  0  0  0  0  0  0  0  0  0
  191.6290  176.3550  138.7760 C   0  0  0  0  0  2  0  0  0  0  0  0
  182.7130  177.8040  137.9690 C   0  0  0  0  0  3  0  0  0  0  0  0
  183.7210  174.3000  136.9060 C   0  0  0  0  0  3  0  0  0  0  0  0
  193.9740  175.9400  138.4830 O   0  0  0  0  0  1  0  0  0  0  0  0
  190.5520  177.0650  137.9480 C   0  0  2  0  0  3  0  0  0  0  0  0
  191.3400  175.8060  135.8510 C   0  0  0  0  0  2  0  0  0  0  0  0
  186.0960  174.7530  136.4550 C   0  0  0  0  0  0  0  0  0  0  0  0
  183.5580  175.7020  137.2970 C   0  0  0  0  0  0  0  0  0  0  0  0
  187.2090  174.2960  135.9550 N   0  0  0  0  0  0  0  0  0  0  0  0
  188.8720  178.5460  139.0530 C   0  0  0  0  0  0  0  0  0  0  0  0
  188.7260  179.3720  138.1610 O   0  0  0  0  0  0  0  0  0  0  0  0
  187.2550  178.6270  140.9370 C   0  0  0  0  0  2  0  0  0  0  0  0
  189.5650  178.1140  141.3880 C   0  0  0  0  0  2  0  0  0  0  0  0
  188.6630  178.9280  140.4850 C   0  0  1  0  0  3  0  0  0  0  0  0
  188.7820  177.7140  142.5500 N   0  0  0  0  0  0  0  0  0  0  0  0
  187.4020  177.6590  142.0910 C   0  0  0  0  0  2  0  0  0  0  0  0
  189.1680  176.3530  142.8870 C   0  0  0  0  0  2  0  0  0  0  0  0
  190.6780  176.2580  143.0350 C   0  0  0  0  0  2  0  0  0  0  0  0
  190.9970  175.7930  144.3150 O   0  0  0  0  0  0  0  0  0  0  0  0
  190.2230  177.1770  145.9880 O   0  0  0  0  0  0  0  0  0  0  0  0
  191.2750  176.9280  145.0900 C   0  0  1  0  0  0  0  0  0  0  0  0
  191.4450  176.7540  146.5490 C   0  0  0  0  0  2  0  0  0  0  0  0
  191.7090  178.2110  144.4020 C   0  0  0  0  0  1  0  0  0  0  0  0
  185.1190  171.3500  135.8200 N   0  0  0  0  0  0  0  0  0  0  0  0
  185.0270  172.4620  136.1250 C   0  0  0  0  0  0  0  0  0  0  0  0
  1  4  1  0  0  0  0
  2 23  1  6  0  0  0
  4 17  1  1  0  0  0
  4 14  1  0  0  0  0
  5 15  2  0  0  0  0
  6  7  1  0  0  0  0
  6  3  2  0  0  0  0
  7 21  1  0  0  0  0
  7 11  2  0  0  0  0
  8 18  1  0  0  0  0
  9 22  2  0  0  0  0
  9 10  1  0  0  0  0
 10  8  1  0  0  0  0
 10 12  2  0  0  0  0
 11 15  1  0  0  0  0
 12  3  1  0  0  0  0
 12  2  1  0  0  0  0
 13 16  1  0  0  0  0
 16 21  2  0  0  0  0
 18  2  1  0  0  0  0
 18 14  1  1  0  0  0
 19  1  1  0  0  0  0
 19  8  1  0  0  0  0
 20 13  2  0  0  0  0
 20  6  1  0  0  0  0
 21  5  1  0  0  0  0
 22 20  1  0  0  0  0
 24 23  2  0  0  0  0
 25 29  1  0  0  0  0
 26 28  1  0  0  0  0
 27 23  1  6  0  0  0
 27 25  1  0  0  0  0
 27 26  1  0  0  0  0
 28 30  1  0  0  0  0
 29 28  1  0  0  0  0
 30 31  1  0  0  0  0
 31 32  1  0  0  0  0
 32 34  1  0  0  0  0
 33 35  1  0  0  0  0
 34 36  1  6  0  0  0
 34 33  1  0  0  0  0
 34 35  1  0  0  0  0
 37 38  3  0  0  0  0
 38 13  1  0  0  0  0
M  END
>  <MODEL>
8

>  <REMARK>
 VINA RESULT:      -7.0      3.276      7.211
  Name = 
  7 active torsions:
  status: ('A' for Active; 'I' for Inactive)
    1  A    between atoms: C_3  and  C_14
    2  A    between atoms: C_13  and  O_34
    3  A    between atoms: C_14  and  C_17
    4  A    between atoms: C_15  and  C_29
    5  A    between atoms: C_15  and  N_36
    6  A    between atoms: C_21  and  C_33
    7  A    between atoms: C_29  and  O_34
                            x       y       z     vdW  Elec       q    Type
                         _______ _______ _______ _____ _____    ______ ____

>  <TORSDO>
F 7

$$$$
=
 OpenBabel11042410023D

 38 44  0  0  1  0  0  0  0  0999 V2000
  181.0480  179.3170  140.3000 C   0  0  0  0  0  2  0  0  0  0  0  0
  184.3590  177.9890  137.9390 C   0  0  1  0  0  3  0  0  0  0  0  0
  184.7310  175.5810  137.3650 C   0  0  0  0  0  3  0  0  0  0  0  0
  181.2640  180.0590  138.9800 C   0  0  2  0  0  3  0  0  0  0  0  0
  186.6170  171.6990  135.7030 C   0  0  0  0  0  3  0  0  0  0  0  0
  184.4600  174.1340  137.5960 C   0  0  0  0  0  0  0  0  0  0  0  0
  185.5580  173.3090  136.9820 C   0  0  0  0  0  0  0  0  0  0  0  0
  182.4640  177.5530  139.3600 N   0  0  0  0  0  0  0  0  0  0  0  0
  181.8780  175.3530  138.5420 C   0  0  0  0  0  3  0  0  0  0  0  0
  182.7680  176.3460  138.6770 C   0  0  0  0  0  0  0  0  0  0  0  0
  186.9300  173.4580  137.2880 N   0  0  0  0  0  0  0  0  0  0  0  0
  183.9770  176.5400  137.9000 C   0  0  0  0  0  0  0  0  0  0  0  0
  182.9290  172.6070  136.1400 C   0  0  0  0  0  0  0  0  0  0  0  0
  182.6380  179.7930  138.3410 C   0  0  0  0  0  2  0  0  0  0  0  0
  187.6710  172.4740  136.5080 C   0  0  0  0  0  3  0  0  0  0  0  0
  184.0020  171.9670  135.6670 C   0  0  0  0  0  3  0  0  0  0  0  0
  181.0950  181.4290  139.1760 O   0  0  0  0  0  1  0  0  0  0  0  0
  183.3930  178.6120  138.9630 C   0  0  2  0  0  3  0  0  0  0  0  0
  181.2200  177.8170  140.0800 C   0  0  0  0  0  2  0  0  0  0  0  0
  183.0760  173.7180  137.1240 C   0  0  0  0  0  0  0  0  0  0  0  0
  185.3450  172.3440  136.1170 C   0  0  0  0  0  0  0  0  0  0  0  0
  181.9980  174.2400  137.6370 N   0  0  0  0  0  0  0  0  0  0  0  0
  185.7830  178.1840  138.3770 C   0  0  0  0  0  0  0  0  0  0  0  0
  186.0360  178.6310  139.4890 O   0  0  0  0  0  0  0  0  0  0  0  0
  187.5470  178.9910  136.8260 C   0  0  0  0  0  2  0  0  0  0  0  0
  187.9830  177.0650  138.2060 C   0  0  0  0  0  2  0  0  0  0  0  0
  186.8870  177.7840  137.4490 C   0  0  1  0  0  3  0  0  0  0  0  0
  189.2610  177.5590  137.7100 N   0  0  0  0  0  0  0  0  0  0  0  0
  189.0000  178.9120  137.2400 C   0  0  0  0  0  2  0  0  0  0  0  0
  190.1540  177.6750  138.8520 C   0  0  0  0  0  2  0  0  0  0  0  0
  189.4850  177.1240  140.0990 C   0  0  0  0  0  2  0  0  0  0  0  0
  190.4080  176.3790  140.8410 O   0  0  0  0  0  0  0  0  0  0  0  0
  190.2120  175.2540  142.8430 O   0  0  0  0  0  0  0  0  0  0  0  0
  190.0070  176.4770  142.1810 C   0  0  1  0  0  0  0  0  0  0  0  0
  191.0380  176.3280  143.2310 C   0  0  0  0  0  2  0  0  0  0  0  0
  188.6370  177.0430  142.5100 C   0  0  0  0  0  1  0  0  0  0  0  0
  180.5830  171.8760  135.2990 N   0  0  0  0  0  0  0  0  0  0  0  0
  181.6280  172.2010  135.6740 C   0  0  0  0  0  0  0  0  0  0  0  0
  2 23  1  1  0  0  0
  2 18  1  0  0  0  0
  3  6  2  0  0  0  0
  3 12  1  0  0  0  0
  4 17  1  1  0  0  0
  4  1  1  0  0  0  0
  5 21  1  0  0  0  0
  5 15  2  0  0  0  0
  7 11  2  0  0  0  0
  7  6  1  0  0  0  0
  8 19  1  0  0  0  0
  9 10  1  0  0  0  0
 10  8  1  0  0  0  0
 12  2  1  0  0  0  0
 12 10  2  0  0  0  0
 13 20  2  0  0  0  0
 14  4  1  0  0  0  0
 15 11  1  0  0  0  0
 16 21  2  0  0  0  0
 16 13  1  0  0  0  0
 18 14  1  6  0  0  0
 18  8  1  0  0  0  0
 19  1  1  0  0  0  0
 20  6  1  0  0  0  0
 20 22  1  0  0  0  0
 21  7  1  0  0  0  0
 22  9  2  0  0  0  0
 23 24  2  0  0  0  0
 25 29  1  0  0  0  0
 25 27  1  0  0  0  0
 27 26  1  0  0  0  0
 27 23  1  1  0  0  0
 28 26  1  0  0  0  0
 28 30  1  0  0  0  0
 29 28  1  0  0  0  0
 30 31  1  0  0  0  0
 31 32  1  0  0  0  0
 32 34  1  0  0  0  0
 33 35  1  0  0  0  0
 34 36  1  1  0  0  0
 34 33  1  0  0  0  0
 34 35  1  0  0  0  0
 37 38  3  0  0  0  0
 38 13  1  0  0  0  0
M  END
>  <MODEL>
9

>  <REMARK>
 VINA RESULT:      -6.9      4.273      8.513
  Name = 
  7 active torsions:
  status: ('A' for Active; 'I' for Inactive)
    1  A    between atoms: C_3  and  C_14
    2  A    between atoms: C_13  and  O_34
    3  A    between atoms: C_14  and  C_17
    4  A    between atoms: C_15  and  C_29
    5  A    between atoms: C_15  and  N_36
    6  A    between atoms: C_21  and  C_33
    7  A    between atoms: C_29  and  O_34
                            x       y       z     vdW  Elec       q    Type
                         _______ _______ _______ _____ _____    ______ ____

>  <TORSDO>
F 7

$$$$
