=
 OpenBabel11042413143D

 63 68  0  0  1  0  0  0  0  0999 V2000
  183.1700  178.2730  138.7970 C   0  0  2  0  0  3  0  0  0  0  0  0
  185.4580  178.5040  139.7790 C   0  0  0  0  0  3  0  0  0  0  0  0
  185.7980  178.8420  142.1530 C   0  0  0  0  0  3  0  0  0  0  0  0
  183.5590  178.5970  141.2760 C   0  0  0  0  0  3  0  0  0  0  0  0
  184.4190  178.7860  142.3680 C   0  0  0  0  0  0  0  0  0  0  0  0
  186.3210  178.6960  140.8640 C   0  0  0  0  0  0  0  0  0  0  0  0
  184.0760  178.4520  139.9800 C   0  0  0  0  0  0  0  0  0  0  0  0
  183.9070  178.9440  143.7350 C   0  0  0  0  0  3  0  0  0  0  0  0
  184.6240  178.6410  144.8120 C   0  0  0  0  0  2  0  0  0  0  0  0
  187.7960  178.7920  140.6480 C   0  0  0  0  0  2  0  0  0  0  0  0
  188.5690  178.1280  141.7820 C   0  0  0  0  0  2  0  0  0  0  0  0
  189.8240  178.8260  142.0180 N   0  0  0  0  0  2  0  0  0  0  0  0
  190.2090  178.5960  143.4020 C   0  0  1  0  0  3  0  0  0  0  0  0
  190.6280  175.4380  145.1070 C   0  0  0  0  0  2  0  0  0  0  0  0
  189.1480  177.7440  144.1050 C   0  0  0  0  0  2  0  0  0  0  0  0
  190.4170  176.6340  146.0550 C   0  0  2  0  0  3  0  0  0  0  0  0
  191.5710  176.4990  142.9910 C   0  0  0  0  0  2  0  0  0  0  0  0
  189.3600  177.6680  145.6170 C   0  0  2  0  0  3  0  0  0  0  0  0
  191.5960  177.9550  143.4410 C   0  0  0  0  0  2  0  0  0  0  0  0
  191.8360  175.5730  144.1720 C   0  0  0  0  0  2  0  0  0  0  0  0
  191.7110  177.2700  146.5610 C   0  0  0  0  0  2  0  0  0  0  0  0
  192.4300  177.2990  148.9800 N   0  0  0  0  0  1  0  0  0  0  0  0
  192.2140  176.5700  147.7760 C   0  0  0  0  0  0  0  0  0  0  0  0
  192.4430  175.3340  147.7420 O   0  0  0  0  0  0  0  0  0  0  0  0
  188.0250  177.3450  146.2730 C   0  0  0  0  0  2  0  0  0  0  0  0
  186.2970  178.4460  147.6920 C   0  0  0  0  0  1  0  0  0  0  0  0
  188.2990  177.5730  148.6250 O   0  0  0  0  0  1  0  0  0  0  0  0
  187.7830  178.2120  147.4990 C   0  0  1  0  0  3  0  0  0  0  0  0
  181.0450  179.2370  137.8990 C   0  0  1  0  0  3  0  0  0  0  0  0
  181.5050  180.2270  138.9520 C   0  0  2  0  0  3  0  0  0  0  0  0
  182.6370  180.9020  138.4860 O   0  0  0  0  0  1  0  0  0  0  0  0
  181.7500  178.7270  139.1400 C   0  0  2  0  0  3  0  0  0  0  0  0
  178.9310  179.0860  136.7850 O   0  0  0  0  0  0  0  0  0  0  0  0
  179.0070  177.7960  137.3470 C   0  0  2  0  0  3  0  0  0  0  0  0
  179.5470  179.0010  138.0490 C   0  0  1  0  0  3  0  0  0  0  0  0
  180.0270  176.9680  136.5730 C   0  0  0  0  0  2  0  0  0  0  0  0
  179.4550  174.8340  137.4490 O   0  0  0  0  0  1  0  0  0  0  0  0
  179.4510  175.5970  136.2850 C   0  0  0  0  0  2  0  0  0  0  0  0
  183.1470  176.8230  138.3150 C   0  0  0  0  0  2  0  0  0  0  0  0
  183.5410  176.7160  136.8740 C   0  0  0  0  0  0  0  0  0  0  0  0
  184.0290  174.2210  136.9860 C   0  0  0  0  0  0  0  0  0  0  0  0
  183.4490  177.7440  136.1500 O   0  0  0  0  0  0  0  0  0  0  0  0
  184.4770  175.5240  135.0190 O   0  0  0  0  0  1  0  0  0  0  0  0
  184.0280  175.4880  136.2980 N   0  0  0  0  0  0  0  0  0  0  0  0
  183.6280  174.1220  138.1750 O   0  0  0  0  0  0  0  0  0  0  0  0
  184.5010  172.9910  136.2830 C   0  0  0  0  0  2  0  0  0  0  0  0
  185.8460  173.2040  135.7780 N   0  0  0  0  0  2  0  0  0  0  0  0
  186.7550  173.0390  136.8990 C   0  0  0  0  0  2  0  0  0  0  0  0
  188.1680  172.8720  136.3720 C   0  0  0  0  0  2  0  0  0  0  0  0
  189.9450  174.3580  137.2370 C   0  0  0  0  0  2  0  0  0  0  0  0
  190.8360  176.7290  137.4380 N   0  0  2  0  0  0  0  0  0  0  0  0
  188.7320  177.5180  136.3890 C   0  0  1  0  0  3  0  0  0  0  0  0
  191.5120  176.7170  138.7340 C   0  0  0  0  0  2  0  0  0  0  0  0
  193.0290  176.5980  138.5500 C   0  0  0  0  0  2  0  0  0  0  0  0
  189.4450  177.1140  137.6810 C   0  0  0  0  0  2  0  0  0  0  0  0
  192.3850  174.8140  136.8990 C   0  0  0  0  0  2  0  0  0  0  0  0
  187.8980  175.2510  136.3270 O   0  0  0  0  0  0  0  0  0  0  0  0
  188.8410  174.2210  136.1920 C   0  0  2  0  0  3  0  0  0  0  0  0
  190.9690  175.4010  136.7800 C   0  0  1  0  0  3  0  0  0  0  0  0
  188.3770  176.3010  135.5320 C   0  0  0  0  0  2  0  0  0  0  0  0
  193.4060  175.8930  137.2430 C   0  0  0  0  0  2  0  0  0  0  0  0
  187.4850  178.2820  136.7080 C   0  0  0  0  0  3  0  0  0  0  0  0
  187.5470  179.4380  137.0880 O   0  0  0  0  0  0  0  0  0  0  0  0
  1 39  1  1  0  0  0
  1  7  1  0  0  0  0
  2  7  2  0  0  0  0
  2  6  1  0  0  0  0
  3  5  1  0  0  0  0
  4  5  2  0  0  0  0
  5  8  1  0  0  0  0
  6  3  2  0  0  0  0
  7  4  1  0  0  0  0
  8  9  2  0  0  0  0
 10  6  1  0  0  0  0
 10 11  1  0  0  0  0
 11 12  1  0  0  0  0
 13 12  1  6  0  0  0
 13 19  1  0  0  0  0
 13 15  1  0  0  0  0
 14 16  1  0  0  0  0
 15 18  1  0  0  0  0
 16 21  1  6  0  0  0
 17 19  1  0  0  0  0
 17 20  1  0  0  0  0
 18 16  1  0  0  0  0
 18 25  1  1  0  0  0
 20 14  1  0  0  0  0
 21 23  1  0  0  0  0
 23 22  1  0  0  0  0
 24 23  2  0  0  0  0
 25 28  1  0  0  0  0
 28 26  1  1  0  0  0
 28 27  1  0  0  0  0
 29 35  1  1  0  0  0
 29 30  1  0  0  0  0
 29 32  1  0  0  0  0
 30 31  1  6  0  0  0
 30 32  1  0  0  0  0
 32  1  1  6  0  0  0
 33 34  1  0  0  0  0
 34 36  1  6  0  0  0
 34 35  1  0  0  0  0
 35 33  1  6  0  0  0
 38 36  1  0  0  0  0
 38 37  1  0  0  0  0
 40 39  1  0  0  0  0
 41 45  2  0  0  0  0
 42 40  2  0  0  0  0
 43 44  1  0  0  0  0
 44 40  1  0  0  0  0
 44 41  1  0  0  0  0
 46 41  1  0  0  0  0
 47 46  1  0  0  0  0
 47 48  1  0  0  0  0
 49 48  1  0  0  0  0
 51 55  1  1  0  0  0
 51 53  1  0  0  0  0
 52 62  1  1  0  0  0
 52 55  1  0  0  0  0
 54 53  1  0  0  0  0
 56 61  1  0  0  0  0
 58 57  1  0  0  0  0
 58 49  1  1  0  0  0
 58 50  1  0  0  0  0
 59 56  1  1  0  0  0
 59 50  1  0  0  0  0
 59 51  1  0  0  0  0
 60 57  1  0  0  0  0
 60 52  1  0  0  0  0
 61 54  1  0  0  0  0
 62 63  2  0  0  0  0
M  END
>  <MODEL>
1

>  <REMARK>
 VINA RESULT:      -6.3      0.000      0.000
  Name = 
  22 active torsions:
  status: ('A' for Active; 'I' for Inactive)
    1  A    between atoms: C_1  and  C_50
    2  A    between atoms: C_2  and  N_8
    3  A    between atoms: C_4  and  C_17
    4  A    between atoms: C_4  and  C_54
    5  A    between atoms: C_6  and  C_43
    6  A    between atoms: C_7  and  C_31
    7  A    between atoms: N_8  and  C_59
    8  A    between atoms: C_12  and  C_48
    9  A    between atoms: C_14  and  C_46
   10  A    between atoms: C_14  and  C_61
   11  A    between atoms: C_16  and  C_40
   12  A    between atoms: C_19  and  C_42
   13  A    between atoms: C_24  and  C_27
   14  A    between atoms: C_24  and  C_38
   15  A    between atoms: C_27  and  N_53
   16  A    between atoms: C_33  and  C_51
   17  A    between atoms: C_33  and  C_59
   18  A    between atoms: C_35  and  C_42
   19  A    between atoms: C_43  and  N_53
   20  A    between atoms: C_50  and  C_60
   21  A    between atoms: C_55  and  C_60
   22  A    between atoms: C_58  and  C_60
                            x       y       z     vdW  Elec       q    Type
                         _______ _______ _______ _____ _____    ______ ____

>  <TORSDO>
F 22

$$$$
=
 OpenBabel11042413143D

 63 68  0  0  1  0  0  0  0  0999 V2000
  186.1660  177.8120  143.9360 C   0  0  2  0  0  3  0  0  0  0  0  0
  184.9530  178.3450  141.8140 C   0  0  0  0  0  3  0  0  0  0  0  0
  182.6100  178.9570  141.8050 C   0  0  0  0  0  3  0  0  0  0  0  0
  183.7270  178.4840  143.8970 C   0  0  0  0  0  3  0  0  0  0  0  0
  182.5680  178.8530  143.1980 C   0  0  0  0  0  0  0  0  0  0  0  0
  183.7990  178.7090  141.1120 C   0  0  0  0  0  0  0  0  0  0  0  0
  184.9230  178.2320  143.2070 C   0  0  0  0  0  0  0  0  0  0  0  0
  181.3020  179.1210  143.8920 C   0  0  0  0  0  3  0  0  0  0  0  0
  180.3590  178.1980  144.0510 C   0  0  0  0  0  2  0  0  0  0  0  0
  183.8170  178.7910  139.6200 C   0  0  0  0  0  2  0  0  0  0  0  0
  182.6090  179.5550  139.0910 C   0  0  0  0  0  2  0  0  0  0  0  0
  182.2220  179.0500  137.7820 N   0  0  0  0  0  2  0  0  0  0  0  0
  182.0600  177.6090  137.8900 C   0  0  1  0  0  3  0  0  0  0  0  0
  180.1710  175.4070  135.7350 C   0  0  0  0  0  2  0  0  0  0  0  0
  180.5720  177.2550  137.9580 C   0  0  0  0  0  2  0  0  0  0  0  0
  180.4620  174.8170  137.1270 C   0  0  2  0  0  3  0  0  0  0  0  0
  182.0270  177.1230  135.4030 C   0  0  0  0  0  2  0  0  0  0  0  0
  180.3310  175.7890  138.3180 C   0  0  2  0  0  3  0  0  0  0  0  0
  182.7710  176.9310  136.7200 C   0  0  0  0  0  2  0  0  0  0  0  0
  181.4210  175.8040  134.9390 C   0  0  0  0  0  2  0  0  0  0  0  0
  181.7190  173.9490  137.1920 C   0  0  0  0  0  2  0  0  0  0  0  0
  180.1990  172.0190  137.7670 N   0  0  0  0  0  1  0  0  0  0  0  0
  181.3770  172.5010  137.1280 C   0  0  0  0  0  0  0  0  0  0  0  0
  182.1230  171.7030  136.5050 O   0  0  0  0  0  0  0  0  0  0  0  0
  178.9410  175.6660  138.9280 C   0  0  0  0  0  2  0  0  0  0  0  0
  179.6220  174.1100  140.7520 C   0  0  0  0  0  1  0  0  0  0  0  0
  179.7920  176.4660  141.0000 O   0  0  0  0  0  1  0  0  0  0  0  0
  179.0100  175.4610  140.4330 C   0  0  1  0  0  3  0  0  0  0  0  0
  187.1770  177.8800  146.2210 C   0  0  1  0  0  3  0  0  0  0  0  0
  185.6870  178.0350  146.4520 C   0  0  2  0  0  3  0  0  0  0  0  0
  185.0510  176.8190  146.1840 O   0  0  0  0  0  1  0  0  0  0  0  0
  186.3440  178.6410  145.2090 C   0  0  2  0  0  3  0  0  0  0  0  0
  187.9480  178.4160  148.4240 O   0  0  0  0  0  0  0  0  0  0  0  0
  189.1770  178.3670  147.7370 C   0  0  2  0  0  3  0  0  0  0  0  0
  187.9290  178.8800  147.0930 C   0  0  1  0  0  3  0  0  0  0  0  0
  189.5290  176.9140  147.4370 C   0  0  0  0  0  2  0  0  0  0  0  0
  191.8760  176.6490  147.1710 O   0  0  0  0  0  1  0  0  0  0  0  0
  190.6940  176.8660  146.4690 C   0  0  0  0  0  2  0  0  0  0  0  0
  187.4090  177.9430  143.0560 C   0  0  0  0  0  2  0  0  0  0  0  0
  188.3410  176.7860  143.2460 C   0  0  0  0  0  0  0  0  0  0  0  0
  189.9230  177.4970  141.3830 C   0  0  0  0  0  0  0  0  0  0  0  0
  188.1110  175.9790  144.1870 O   0  0  0  0  0  0  0  0  0  0  0  0
  190.1870  175.4200  142.5600 O   0  0  0  0  0  1  0  0  0  0  0  0
  189.4770  176.5620  142.3860 N   0  0  0  0  0  0  0  0  0  0  0  0
  189.3050  178.5730  141.1700 O   0  0  0  0  0  0  0  0  0  0  0  0
  191.1460  177.2010  140.5790 C   0  0  0  0  0  2  0  0  0  0  0  0
  190.7740  176.4910  139.3680 N   0  0  0  0  0  2  0  0  0  0  0  0
  191.9710  176.3770  138.5540 C   0  0  0  0  0  2  0  0  0  0  0  0
  191.5740  176.3160  137.0910 C   0  0  0  0  0  2  0  0  0  0  0  0
  192.3850  174.0270  136.6260 C   0  0  0  0  0  2  0  0  0  0  0  0
  194.2890  172.5640  135.7960 N   0  0  2  0  0  0  0  0  0  0  0  0
  195.7000  174.6020  135.6990 C   0  0  1  0  0  3  0  0  0  0  0  0
  194.1310  171.3410  136.5820 C   0  0  0  0  0  2  0  0  0  0  0  0
  193.4650  170.2440  135.7430 C   0  0  0  0  0  2  0  0  0  0  0  0
  195.1630  173.4560  136.5600 C   0  0  0  0  0  2  0  0  0  0  0  0
  191.9140  172.1110  135.0830 C   0  0  0  0  0  2  0  0  0  0  0  0
  193.8830  175.9180  136.5950 O   0  0  0  0  0  0  0  0  0  0  0  0
  192.5760  175.5050  136.2910 C   0  0  2  0  0  3  0  0  0  0  0  0
  192.9580  173.1590  135.5020 C   0  0  1  0  0  3  0  0  0  0  0  0
  194.6310  175.6650  135.4370 C   0  0  0  0  0  2  0  0  0  0  0  0
  192.5790  170.8160  134.6310 C   0  0  0  0  0  2  0  0  0  0  0  0
  196.8800  175.2360  136.3670 C   0  0  0  0  0  3  0  0  0  0  0  0
  197.2230  176.3680  136.0740 O   0  0  0  0  0  0  0  0  0  0  0  0
  1 39  1  6  0  0  0
  2  7  1  0  0  0  0
  3  5  2  0  0  0  0
  5  8  1  0  0  0  0
  5  4  1  0  0  0  0
  6  3  1  0  0  0  0
  6  2  2  0  0  0  0
  7  4  2  0  0  0  0
  7  1  1  0  0  0  0
  8  9  2  0  0  0  0
 10  6  1  0  0  0  0
 11 10  1  0  0  0  0
 12 11  1  0  0  0  0
 13 12  1  6  0  0  0
 13 15  1  0  0  0  0
 14 16  1  0  0  0  0
 15 18  1  0  0  0  0
 16 21  1  6  0  0  0
 16 18  1  0  0  0  0
 17 19  1  0  0  0  0
 18 25  1  6  0  0  0
 19 13  1  0  0  0  0
 20 17  1  0  0  0  0
 20 14  1  0  0  0  0
 23 21  1  0  0  0  0
 23 22  1  0  0  0  0
 24 23  2  0  0  0  0
 25 28  1  0  0  0  0
 28 26  1  6  0  0  0
 28 27  1  0  0  0  0
 29 30  1  0  0  0  0
 29 35  1  1  0  0  0
 30 31  1  6  0  0  0
 32  1  1  6  0  0  0
 32 29  1  0  0  0  0
 32 30  1  0  0  0  0
 34 36  1  6  0  0  0
 34 33  1  0  0  0  0
 35 34  1  0  0  0  0
 35 33  1  1  0  0  0
 38 37  1  0  0  0  0
 38 36  1  0  0  0  0
 39 40  1  0  0  0  0
 40 42  2  0  0  0  0
 41 44  1  0  0  0  0
 44 43  1  0  0  0  0
 44 40  1  0  0  0  0
 45 41  2  0  0  0  0
 46 41  1  0  0  0  0
 47 46  1  0  0  0  0
 48 47  1  0  0  0  0
 49 48  1  0  0  0  0
 51 55  1  1  0  0  0
 51 53  1  0  0  0  0
 52 62  1  1  0  0  0
 52 55  1  0  0  0  0
 54 53  1  0  0  0  0
 58 57  1  0  0  0  0
 58 50  1  0  0  0  0
 58 49  1  1  0  0  0
 59 56  1  1  0  0  0
 59 51  1  0  0  0  0
 59 50  1  0  0  0  0
 60 52  1  0  0  0  0
 60 57  1  0  0  0  0
 61 56  1  0  0  0  0
 61 54  1  0  0  0  0
 63 62  2  0  0  0  0
M  END
>  <MODEL>
2

>  <REMARK>
 VINA RESULT:      -6.1      3.054      9.595
  Name = 
  22 active torsions:
  status: ('A' for Active; 'I' for Inactive)
    1  A    between atoms: C_1  and  C_50
    2  A    between atoms: C_2  and  N_8
    3  A    between atoms: C_4  and  C_17
    4  A    between atoms: C_4  and  C_54
    5  A    between atoms: C_6  and  C_43
    6  A    between atoms: C_7  and  C_31
    7  A    between atoms: N_8  and  C_59
    8  A    between atoms: C_12  and  C_48
    9  A    between atoms: C_14  and  C_46
   10  A    between atoms: C_14  and  C_61
   11  A    between atoms: C_16  and  C_40
   12  A    between atoms: C_19  and  C_42
   13  A    between atoms: C_24  and  C_27
   14  A    between atoms: C_24  and  C_38
   15  A    between atoms: C_27  and  N_53
   16  A    between atoms: C_33  and  C_51
   17  A    between atoms: C_33  and  C_59
   18  A    between atoms: C_35  and  C_42
   19  A    between atoms: C_43  and  N_53
   20  A    between atoms: C_50  and  C_60
   21  A    between atoms: C_55  and  C_60
   22  A    between atoms: C_58  and  C_60
                            x       y       z     vdW  Elec       q    Type
                         _______ _______ _______ _____ _____    ______ ____

>  <TORSDO>
F 22

$$$$
=
 OpenBabel11042413143D

 63 68  0  0  1  0  0  0  0  0999 V2000
  184.6120  177.2500  137.6350 C   0  0  2  0  0  3  0  0  0  0  0  0
  186.8330  177.0750  136.4990 C   0  0  0  0  0  3  0  0  0  0  0  0
  187.5070  175.0710  135.3210 C   0  0  0  0  0  3  0  0  0  0  0  0
  185.3330  175.1810  136.3720 C   0  0  0  0  0  3  0  0  0  0  0  0
  186.2810  174.4710  135.6200 C   0  0  0  0  0  0  0  0  0  0  0  0
  187.7840  176.3710  135.7530 C   0  0  0  0  0  0  0  0  0  0  0  0
  185.6040  176.4850  136.8100 C   0  0  0  0  0  0  0  0  0  0  0  0
  186.0260  173.1040  135.1490 C   0  0  0  0  0  3  0  0  0  0  0  0
  186.2160  172.0330  135.9120 C   0  0  0  0  0  2  0  0  0  0  0  0
  189.1130  176.9840  135.4540 C   0  0  0  0  0  2  0  0  0  0  0  0
  190.2360  175.9590  135.5650 C   0  0  0  0  0  2  0  0  0  0  0  0
  191.1010  176.2720  136.6930 N   0  0  0  0  0  2  0  0  0  0  0  0
  191.8910  175.0870  136.9910 C   0  0  1  0  0  3  0  0  0  0  0  0
  194.9700  174.0090  135.4360 C   0  0  0  0  0  2  0  0  0  0  0  0
  192.0760  174.2500  135.7230 C   0  0  0  0  0  2  0  0  0  0  0  0
  194.2160  172.8840  136.1710 C   0  0  2  0  0  3  0  0  0  0  0  0
  194.1640  176.1340  136.5890 C   0  0  0  0  0  2  0  0  0  0  0  0
  192.6820  172.8760  136.0070 C   0  0  2  0  0  3  0  0  0  0  0  0
  193.2210  175.5120  137.6120 C   0  0  0  0  0  2  0  0  0  0  0  0
  195.3420  175.2070  136.3180 C   0  0  0  0  0  2  0  0  0  0  0  0
  194.6700  172.6620  137.6130 C   0  0  0  0  0  2  0  0  0  0  0  0
  196.8830  171.4560  137.4680 N   0  0  0  0  0  1  0  0  0  0  0  0
  195.4840  171.4210  137.7350 C   0  0  0  0  0  0  0  0  0  0  0  0
  194.9400  170.3400  138.0790 O   0  0  0  0  0  0  0  0  0  0  0  0
  192.2940  171.9350  134.8740 C   0  0  0  0  0  2  0  0  0  0  0  0
  191.2330  169.6810  134.9200 C   0  0  0  0  0  1  0  0  0  0  0  0
  193.5710  169.9470  134.6000 O   0  0  0  0  0  1  0  0  0  0  0  0
  192.4730  170.4790  135.2740 C   0  0  1  0  0  3  0  0  0  0  0  0
  182.3930  178.4020  137.6110 C   0  0  1  0  0  3  0  0  0  0  0  0
  182.0660  176.9270  137.4750 C   0  0  2  0  0  3  0  0  0  0  0  0
  182.3220  176.2850  138.6910 O   0  0  0  0  0  1  0  0  0  0  0  0
  183.3330  177.5010  136.8350 C   0  0  2  0  0  3  0  0  0  0  0  0
  180.2640  179.4060  137.1710 O   0  0  0  0  0  0  0  0  0  0  0  0
  181.0930  180.5420  137.0990 C   0  0  2  0  0  3  0  0  0  0  0  0
  181.5460  179.1980  136.6250 C   0  0  1  0  0  3  0  0  0  0  0  0
  181.5360  180.9340  138.5040 C   0  0  0  0  0  2  0  0  0  0  0  0
  179.8420  182.5510  138.1020 O   0  0  0  0  0  1  0  0  0  0  0  0
  180.5150  181.8730  139.1130 C   0  0  0  0  0  2  0  0  0  0  0  0
  185.1850  178.5800  138.1220 C   0  0  0  0  0  2  0  0  0  0  0  0
  185.2820  178.6220  139.6170 C   0  0  0  0  0  0  0  0  0  0  0  0
  187.8260  178.5530  139.6530 C   0  0  0  0  0  0  0  0  0  0  0  0
  184.2180  178.7350  140.2830 O   0  0  0  0  0  0  0  0  0  0  0  0
  186.5170  178.4500  141.6630 O   0  0  0  0  0  1  0  0  0  0  0  0
  186.5430  178.5280  140.3100 N   0  0  0  0  0  0  0  0  0  0  0  0
  187.9180  178.6210  138.3990 O   0  0  0  0  0  0  0  0  0  0  0  0
  189.0800  178.5080  140.4630 C   0  0  0  0  0  2  0  0  0  0  0  0
  189.8060  177.2840  140.1690 N   0  0  0  0  0  2  0  0  0  0  0  0
  190.3220  176.7810  141.4300 C   0  0  0  0  0  2  0  0  0  0  0  0
  190.1300  177.8360  142.5030 C   0  0  0  0  0  2  0  0  0  0  0  0
  188.9160  178.1180  144.6390 C   0  0  0  0  0  2  0  0  0  0  0  0
  188.7320  177.4780  147.0900 N   0  0  2  0  0  0  0  0  0  0  0  0
  190.8660  176.2400  146.8400 C   0  0  1  0  0  3  0  0  0  0  0  0
  188.2000  178.6930  147.7080 C   0  0  0  0  0  2  0  0  0  0  0  0
  186.6990  178.5480  147.9790 C   0  0  0  0  0  2  0  0  0  0  0  0
  190.1910  177.5860  147.1150 C   0  0  0  0  0  2  0  0  0  0  0  0
  186.6740  177.6210  145.6400 C   0  0  0  0  0  2  0  0  0  0  0  0
  191.0370  176.9730  144.5450 O   0  0  0  0  0  0  0  0  0  0  0  0
  189.8390  177.1950  143.8470 C   0  0  2  0  0  3  0  0  0  0  0  0
  188.1800  177.3200  145.7180 C   0  0  1  0  0  3  0  0  0  0  0  0
  190.7920  175.8600  145.3600 C   0  0  0  0  0  2  0  0  0  0  0  0
  186.0250  177.5620  147.0190 C   0  0  0  0  0  2  0  0  0  0  0  0
  192.2980  176.2860  147.2710 C   0  0  0  0  0  3  0  0  0  0  0  0
  192.6610  175.7070  148.2810 O   0  0  0  0  0  0  0  0  0  0  0  0
  1 39  1  6  0  0  0
  2  7  1  0  0  0  0
  3  5  2  0  0  0  0
  3  6  1  0  0  0  0
  4  7  2  0  0  0  0
  5  4  1  0  0  0  0
  6  2  2  0  0  0  0
  7  1  1  0  0  0  0
  8  5  1  0  0  0  0
  8  9  2  0  0  0  0
 10 11  1  0  0  0  0
 10  6  1  0  0  0  0
 11 12  1  0  0  0  0
 13 12  1  6  0  0  0
 13 19  1  0  0  0  0
 14 16  1  0  0  0  0
 14 20  1  0  0  0  0
 15 18  1  0  0  0  0
 15 13  1  0  0  0  0
 16 21  1  1  0  0  0
 17 19  1  0  0  0  0
 18 25  1  6  0  0  0
 18 16  1  0  0  0  0
 20 17  1  0  0  0  0
 21 23  1  0  0  0  0
 22 23  1  0  0  0  0
 23 24  2  0  0  0  0
 25 28  1  0  0  0  0
 27 28  1  0  0  0  0
 28 26  1  6  0  0  0
 29 35  1  6  0  0  0
 30 29  1  0  0  0  0
 30 31  1  1  0  0  0
 32 30  1  0  0  0  0
 32 29  1  0  0  0  0
 32  1  1  1  0  0  0
 34 33  1  0  0  0  0
 34 36  1  1  0  0  0
 35 34  1  0  0  0  0
 35 33  1  1  0  0  0
 36 38  1  0  0  0  0
 37 38  1  0  0  0  0
 39 40  1  0  0  0  0
 40 42  2  0  0  0  0
 40 44  1  0  0  0  0
 41 44  1  0  0  0  0
 41 46  1  0  0  0  0
 44 43  1  0  0  0  0
 45 41  2  0  0  0  0
 47 46  1  0  0  0  0
 47 48  1  0  0  0  0
 48 49  1  0  0  0  0
 51 55  1  6  0  0  0
 51 53  1  0  0  0  0
 52 55  1  0  0  0  0
 52 62  1  6  0  0  0
 53 54  1  0  0  0  0
 56 59  1  0  0  0  0
 56 61  1  0  0  0  0
 57 60  1  0  0  0  0
 58 49  1  6  0  0  0
 58 57  1  0  0  0  0
 58 50  1  0  0  0  0
 59 50  1  6  0  0  0
 59 51  1  0  0  0  0
 60 52  1  0  0  0  0
 61 54  1  0  0  0  0
 62 63  2  0  0  0  0
M  END
>  <MODEL>
3

>  <REMARK>
 VINA RESULT:      -5.7      2.794      8.857
  Name = 
  22 active torsions:
  status: ('A' for Active; 'I' for Inactive)
    1  A    between atoms: C_1  and  C_50
    2  A    between atoms: C_2  and  N_8
    3  A    between atoms: C_4  and  C_17
    4  A    between atoms: C_4  and  C_54
    5  A    between atoms: C_6  and  C_43
    6  A    between atoms: C_7  and  C_31
    7  A    between atoms: N_8  and  C_59
    8  A    between atoms: C_12  and  C_48
    9  A    between atoms: C_14  and  C_46
   10  A    between atoms: C_14  and  C_61
   11  A    between atoms: C_16  and  C_40
   12  A    between atoms: C_19  and  C_42
   13  A    between atoms: C_24  and  C_27
   14  A    between atoms: C_24  and  C_38
   15  A    between atoms: C_27  and  N_53
   16  A    between atoms: C_33  and  C_51
   17  A    between atoms: C_33  and  C_59
   18  A    between atoms: C_35  and  C_42
   19  A    between atoms: C_43  and  N_53
   20  A    between atoms: C_50  and  C_60
   21  A    between atoms: C_55  and  C_60
   22  A    between atoms: C_58  and  C_60
                            x       y       z     vdW  Elec       q    Type
                         _______ _______ _______ _____ _____    ______ ____

>  <TORSDO>
F 22

$$$$
=
 OpenBabel11042413143D

 63 68  0  0  1  0  0  0  0  0999 V2000
  186.5740  177.7940  143.5750 C   0  0  2  0  0  3  0  0  0  0  0  0
  185.5650  178.5590  141.4180 C   0  0  0  0  0  3  0  0  0  0  0  0
  183.1890  178.9680  141.1970 C   0  0  0  0  0  3  0  0  0  0  0  0
  184.1000  178.2580  143.3200 C   0  0  0  0  0  3  0  0  0  0  0  0
  182.9970  178.6380  142.5410 C   0  0  0  0  0  0  0  0  0  0  0  0
  184.4680  178.9350  140.6340 C   0  0  0  0  0  0  0  0  0  0  0  0
  185.3860  178.2210  142.7620 C   0  0  0  0  0  0  0  0  0  0  0  0
  181.6390  178.6830  143.0970 C   0  0  0  0  0  3  0  0  0  0  0  0
  181.3890  179.0080  144.3610 C   0  0  0  0  0  2  0  0  0  0  0  0
  184.6500  179.2590  139.1870 C   0  0  0  0  0  2  0  0  0  0  0  0
  184.0130  178.1980  138.2960 C   0  0  0  0  0  2  0  0  0  0  0  0
  182.7900  178.7070  137.6940 N   0  0  0  0  0  2  0  0  0  0  0  0
  181.9080  177.5760  137.4510 C   0  0  1  0  0  3  0  0  0  0  0  0
  180.6060  175.2050  139.8460 C   0  0  0  0  0  2  0  0  0  0  0  0
  182.5560  176.2880  137.9650 C   0  0  0  0  0  2  0  0  0  0  0  0
  180.5670  174.7040  138.3900 C   0  0  2  0  0  3  0  0  0  0  0  0
  180.6020  177.7430  139.6160 C   0  0  0  0  0  2  0  0  0  0  0  0
  181.8020  175.0330  137.5260 C   0  0  2  0  0  3  0  0  0  0  0  0
  180.5500  177.8480  138.0960 C   0  0  0  0  0  2  0  0  0  0  0  0
  179.8410  176.5110  140.0910 C   0  0  0  0  0  2  0  0  0  0  0  0
  179.2430  174.9610  137.6730 C   0  0  0  0  0  2  0  0  0  0  0  0
  178.9310  172.9510  136.1790 N   0  0  0  0  0  1  0  0  0  0  0  0
  179.2330  174.3350  136.3210 C   0  0  0  0  0  0  0  0  0  0  0  0
  179.4860  175.0290  135.3030 O   0  0  0  0  0  0  0  0  0  0  0  0
  182.7700  173.8580  137.5480 C   0  0  0  0  0  2  0  0  0  0  0  0
  185.2040  173.3270  137.6210 C   0  0  0  0  0  1  0  0  0  0  0  0
  184.1840  174.2170  135.6700 O   0  0  0  0  0  1  0  0  0  0  0  0
  184.1520  174.2660  137.0620 C   0  0  1  0  0  3  0  0  0  0  0  0
  187.4940  177.7280  145.8980 C   0  0  1  0  0  3  0  0  0  0  0  0
  186.0050  177.4940  146.0640 C   0  0  2  0  0  3  0  0  0  0  0  0
  185.6820  176.2220  145.5800 O   0  0  0  0  0  1  0  0  0  0  0  0
  186.5240  178.4260  144.9660 C   0  0  2  0  0  3  0  0  0  0  0  0
  187.7820  178.1670  148.2340 O   0  0  0  0  0  0  0  0  0  0  0  0
  189.1170  178.2710  147.7970 C   0  0  2  0  0  3  0  0  0  0  0  0
  187.9680  178.7220  146.9530 C   0  0  1  0  0  3  0  0  0  0  0  0
  189.6580  176.8790  147.4910 C   0  0  0  0  0  2  0  0  0  0  0  0
  191.5140  176.0890  146.2340 O   0  0  0  0  0  1  0  0  0  0  0  0
  191.1540  176.9570  147.2610 C   0  0  0  0  0  2  0  0  0  0  0  0
  187.8900  178.1580  142.8880 C   0  0  0  0  0  2  0  0  0  0  0  0
  188.8960  177.0550  143.0070 C   0  0  0  0  0  0  0  0  0  0  0  0
  189.9440  177.4950  140.7300 C   0  0  0  0  0  0  0  0  0  0  0  0
  188.9400  176.3970  144.0810 O   0  0  0  0  0  0  0  0  0  0  0  0
  190.5860  175.6240  142.0910 O   0  0  0  0  0  1  0  0  0  0  0  0
  189.8000  176.7180  141.9350 N   0  0  0  0  0  0  0  0  0  0  0  0
  189.2410  178.5190  140.5240 O   0  0  0  0  0  0  0  0  0  0  0  0
  190.9500  177.0970  139.7010 C   0  0  0  0  0  2  0  0  0  0  0  0
  190.3100  176.2830  138.6830 N   0  0  0  0  0  2  0  0  0  0  0  0
  191.2520  176.1520  137.5850 C   0  0  0  0  0  2  0  0  0  0  0  0
  191.8010  174.7370  137.5680 C   0  0  0  0  0  2  0  0  0  0  0  0
  193.9930  173.7010  137.0840 C   0  0  0  0  0  2  0  0  0  0  0  0
  196.1230  173.7570  135.7000 N   0  0  2  0  0  0  0  0  0  0  0  0
  195.3500  175.9150  134.7520 C   0  0  1  0  0  3  0  0  0  0  0  0
  197.1280  173.2270  136.6210 C   0  0  0  0  0  2  0  0  0  0  0  0
  197.4400  171.7620  136.2950 C   0  0  0  0  0  2  0  0  0  0  0  0
  196.0820  175.2070  135.8950 C   0  0  0  0  0  2  0  0  0  0  0  0
  194.9360  171.5780  136.1450 C   0  0  0  0  0  2  0  0  0  0  0  0
  193.3980  175.8550  136.1760 O   0  0  0  0  0  0  0  0  0  0  0  0
  192.8900  174.5930  136.5200 C   0  0  2  0  0  3  0  0  0  0  0  0
  194.8120  173.0960  135.9390 C   0  0  1  0  0  3  0  0  0  0  0  0
  193.8340  175.7310  134.8490 C   0  0  0  0  0  2  0  0  0  0  0  0
  196.2650  171.0530  135.6140 C   0  0  0  0  0  2  0  0  0  0  0  0
  195.6750  177.3750  134.7610 C   0  0  0  0  0  3  0  0  0  0  0  0
  195.2760  178.0940  135.6610 O   0  0  0  0  0  0  0  0  0  0  0  0
  1 39  1  6  0  0  0
  2  7  1  0  0  0  0
  3  5  2  0  0  0  0
  5  8  1  0  0  0  0
  5  4  1  0  0  0  0
  6  3  1  0  0  0  0
  6  2  2  0  0  0  0
  7  4  2  0  0  0  0
  7  1  1  0  0  0  0
  8  9  2  0  0  0  0
 10  6  1  0  0  0  0
 11 10  1  0  0  0  0
 12 11  1  0  0  0  0
 13 12  1  1  0  0  0
 13 15  1  0  0  0  0
 13 19  1  0  0  0  0
 14 20  1  0  0  0  0
 16 21  1  6  0  0  0
 16 14  1  0  0  0  0
 17 20  1  0  0  0  0
 18 25  1  1  0  0  0
 18 15  1  0  0  0  0
 18 16  1  0  0  0  0
 19 17  1  0  0  0  0
 22 23  1  0  0  0  0
 23 21  1  0  0  0  0
 24 23  2  0  0  0  0
 27 28  1  0  0  0  0
 28 25  1  0  0  0  0
 28 26  1  1  0  0  0
 29 30  1  0  0  0  0
 29 35  1  1  0  0  0
 30 31  1  6  0  0  0
 32  1  1  6  0  0  0
 32 29  1  0  0  0  0
 32 30  1  0  0  0  0
 34 36  1  6  0  0  0
 34 33  1  0  0  0  0
 35 34  1  0  0  0  0
 35 33  1  1  0  0  0
 37 38  1  0  0  0  0
 38 36  1  0  0  0  0
 39 40  1  0  0  0  0
 40 42  2  0  0  0  0
 41 44  1  0  0  0  0
 44 43  1  0  0  0  0
 44 40  1  0  0  0  0
 45 41  2  0  0  0  0
 46 41  1  0  0  0  0
 47 46  1  0  0  0  0
 48 47  1  0  0  0  0
 49 48  1  0  0  0  0
 51 55  1  1  0  0  0
 51 59  1  0  0  0  0
 51 53  1  0  0  0  0
 52 62  1  1  0  0  0
 52 60  1  0  0  0  0
 52 55  1  0  0  0  0
 54 53  1  0  0  0  0
 57 58  1  0  0  0  0
 58 50  1  0  0  0  0
 58 49  1  1  0  0  0
 59 56  1  1  0  0  0
 59 50  1  0  0  0  0
 60 57  1  0  0  0  0
 61 56  1  0  0  0  0
 61 54  1  0  0  0  0
 62 63  2  0  0  0  0
M  END
>  <MODEL>
4

>  <REMARK>
 VINA RESULT:      -5.7      2.938      9.611
  Name = 
  22 active torsions:
  status: ('A' for Active; 'I' for Inactive)
    1  A    between atoms: C_1  and  C_50
    2  A    between atoms: C_2  and  N_8
    3  A    between atoms: C_4  and  C_17
    4  A    between atoms: C_4  and  C_54
    5  A    between atoms: C_6  and  C_43
    6  A    between atoms: C_7  and  C_31
    7  A    between atoms: N_8  and  C_59
    8  A    between atoms: C_12  and  C_48
    9  A    between atoms: C_14  and  C_46
   10  A    between atoms: C_14  and  C_61
   11  A    between atoms: C_16  and  C_40
   12  A    between atoms: C_19  and  C_42
   13  A    between atoms: C_24  and  C_27
   14  A    between atoms: C_24  and  C_38
   15  A    between atoms: C_27  and  N_53
   16  A    between atoms: C_33  and  C_51
   17  A    between atoms: C_33  and  C_59
   18  A    between atoms: C_35  and  C_42
   19  A    between atoms: C_43  and  N_53
   20  A    between atoms: C_50  and  C_60
   21  A    between atoms: C_55  and  C_60
   22  A    between atoms: C_58  and  C_60
                            x       y       z     vdW  Elec       q    Type
                         _______ _______ _______ _____ _____    ______ ____

>  <TORSDO>
F 22

$$$$
=
 OpenBabel11042413143D

 63 68  0  0  1  0  0  0  0  0999 V2000
  182.5000  178.6580  139.2670 C   0  0  2  0  0  3  0  0  0  0  0  0
  182.1140  177.9120  136.9120 C   0  0  0  0  0  3  0  0  0  0  0  0
  181.0830  179.3610  135.2690 C   0  0  0  0  0  3  0  0  0  0  0  0
  181.4520  180.1590  137.5210 C   0  0  0  0  0  3  0  0  0  0  0  0
  180.9870  180.3840  136.2170 C   0  0  0  0  0  0  0  0  0  0  0  0
  181.6490  178.1290  135.6100 C   0  0  0  0  0  0  0  0  0  0  0  0
  182.0200  178.9250  137.8710 C   0  0  0  0  0  0  0  0  0  0  0  0
  180.3870  181.6640  135.8220 C   0  0  0  0  0  3  0  0  0  0  0  0
  180.7830  182.8300  136.3220 C   0  0  0  0  0  2  0  0  0  0  0  0
  181.7120  177.0360  134.5940 C   0  0  0  0  0  2  0  0  0  0  0  0
  182.8180  176.0380  134.9180 C   0  0  0  0  0  2  0  0  0  0  0  0
  184.1100  176.7050  134.9550 N   0  0  0  0  0  2  0  0  0  0  0  0
  185.1360  175.7030  134.7100 C   0  0  1  0  0  3  0  0  0  0  0  0
  186.3560  173.1590  136.9680 C   0  0  0  0  0  2  0  0  0  0  0  0
  186.2390  175.8150  135.7660 C   0  0  0  0  0  2  0  0  0  0  0  0
  187.3180  173.4740  135.8070 C   0  0  2  0  0  3  0  0  0  0  0  0
  184.0730  173.8470  136.0680 C   0  0  0  0  0  2  0  0  0  0  0  0
  187.4640  174.9640  135.4320 C   0  0  2  0  0  3  0  0  0  0  0  0
  184.4920  174.3180  134.6800 C   0  0  0  0  0  2  0  0  0  0  0  0
  184.9600  172.6970  136.5300 C   0  0  0  0  0  2  0  0  0  0  0  0
  187.1600  172.5590  134.5940 C   0  0  0  0  0  2  0  0  0  0  0  0
  186.3120  170.1860  134.7320 N   0  0  0  0  0  1  0  0  0  0  0  0
  187.3510  171.1310  134.9700 C   0  0  0  0  0  0  0  0  0  0  0  0
  188.4330  170.7550  135.4900 O   0  0  0  0  0  0  0  0  0  0  0  0
  188.6710  175.5560  136.1470 C   0  0  0  0  0  2  0  0  0  0  0  0
  190.7750  174.3140  135.6600 C   0  0  0  0  0  1  0  0  0  0  0  0
  190.1150  174.8160  137.8860 O   0  0  0  0  0  1  0  0  0  0  0  0
  189.6190  174.4700  136.6300 C   0  0  1  0  0  3  0  0  0  0  0  0
  181.7880  178.5860  141.6630 C   0  0  1  0  0  3  0  0  0  0  0  0
  180.6150  178.0130  140.8920 C   0  0  2  0  0  3  0  0  0  0  0  0
  180.9610  176.7510  140.3980 O   0  0  0  0  0  1  0  0  0  0  0  0
  181.4650  179.1340  140.2870 C   0  0  2  0  0  3  0  0  0  0  0  0
  180.7920  178.8350  143.8260 O   0  0  0  0  0  0  0  0  0  0  0  0
  181.9960  179.5390  144.0260 C   0  0  2  0  0  3  0  0  0  0  0  0
  181.2730  179.5590  142.7170 C   0  0  1  0  0  3  0  0  0  0  0  0
  183.1490  178.5480  144.1310 C   0  0  0  0  0  2  0  0  0  0  0  0
  183.9770  178.8070  146.3440 O   0  0  0  0  0  1  0  0  0  0  0  0
  184.2350  179.1280  145.0140 C   0  0  0  0  0  2  0  0  0  0  0  0
  183.8440  179.3330  139.5430 C   0  0  0  0  0  2  0  0  0  0  0  0
  184.9680  178.6200  138.8550 C   0  0  0  0  0  0  0  0  0  0  0  0
  186.3830  178.4030  140.9580 C   0  0  0  0  0  0  0  0  0  0  0  0
  184.8380  178.3340  137.6340 O   0  0  0  0  0  0  0  0  0  0  0  0
  187.1940  177.7360  138.7990 O   0  0  0  0  0  1  0  0  0  0  0  0
  186.1870  178.2650  139.5370 N   0  0  0  0  0  0  0  0  0  0  0  0
  185.4880  178.8900  141.6980 O   0  0  0  0  0  0  0  0  0  0  0  0
  187.6630  177.9530  141.5830 C   0  0  0  0  0  2  0  0  0  0  0  0
  188.7030  178.9330  141.3220 N   0  0  0  0  0  2  0  0  0  0  0  0
  189.4940  179.0490  142.5350 C   0  0  0  0  0  2  0  0  0  0  0  0
  190.4060  177.8420  142.6510 C   0  0  0  0  0  2  0  0  0  0  0  0
  189.3740  177.9990  144.8930 C   0  0  0  0  0  2  0  0  0  0  0  0
  189.2860  177.1060  147.2700 N   0  0  2  0  0  0  0  0  0  0  0  0
  191.2520  175.6970  146.7240 C   0  0  1  0  0  3  0  0  0  0  0  0
  188.9320  178.2900  148.0530 C   0  0  0  0  0  2  0  0  0  0  0  0
  187.4440  178.2660  148.4230 C   0  0  0  0  0  2  0  0  0  0  0  0
  190.7460  177.0630  147.1920 C   0  0  0  0  0  2  0  0  0  0  0  0
  187.1640  177.6190  146.0090 C   0  0  0  0  0  2  0  0  0  0  0  0
  191.3480  176.6650  144.5130 O   0  0  0  0  0  0  0  0  0  0  0  0
  190.1370  177.0840  143.9390 C   0  0  2  0  0  3  0  0  0  0  0  0
  188.6290  177.1610  145.9360 C   0  0  1  0  0  3  0  0  0  0  0  0
  191.0390  175.4970  145.2220 C   0  0  0  0  0  2  0  0  0  0  0  0
  186.6050  177.4690  147.4200 C   0  0  0  0  0  2  0  0  0  0  0  0
  192.7060  175.5490  147.0440 C   0  0  0  0  0  3  0  0  0  0  0  0
  193.2570  176.3310  147.7990 O   0  0  0  0  0  0  0  0  0  0  0  0
  1 39  1  1  0  0  0
  2  7  1  0  0  0  0
  3  6  1  0  0  0  0
  3  5  2  0  0  0  0
  4  7  2  0  0  0  0
  5  4  1  0  0  0  0
  6  2  2  0  0  0  0
  7  1  1  0  0  0  0
  8  5  1  0  0  0  0
  8  9  2  0  0  0  0
 10 11  1  0  0  0  0
 10  6  1  0  0  0  0
 11 12  1  0  0  0  0
 13 12  1  1  0  0  0
 13 15  1  0  0  0  0
 16 21  1  6  0  0  0
 16 14  1  0  0  0  0
 17 20  1  0  0  0  0
 18 15  1  0  0  0  0
 18 16  1  0  0  0  0
 18 25  1  1  0  0  0
 19 13  1  0  0  0  0
 19 17  1  0  0  0  0
 20 14  1  0  0  0  0
 21 23  1  0  0  0  0
 22 23  1  0  0  0  0
 23 24  2  0  0  0  0
 25 28  1  0  0  0  0
 28 26  1  6  0  0  0
 28 27  1  0  0  0  0
 29 35  1  1  0  0  0
 30 31  1  6  0  0  0
 30 29  1  0  0  0  0
 32  1  1  6  0  0  0
 32 30  1  0  0  0  0
 32 29  1  0  0  0  0
 33 34  1  0  0  0  0
 34 36  1  6  0  0  0
 35 33  1  1  0  0  0
 35 34  1  0  0  0  0
 36 38  1  0  0  0  0
 38 37  1  0  0  0  0
 40 44  1  0  0  0  0
 40 39  1  0  0  0  0
 41 46  1  0  0  0  0
 41 45  2  0  0  0  0
 42 40  2  0  0  0  0
 43 44  1  0  0  0  0
 44 41  1  0  0  0  0
 47 46  1  0  0  0  0
 47 48  1  0  0  0  0
 48 49  1  0  0  0  0
 51 55  1  6  0  0  0
 51 53  1  0  0  0  0
 52 62  1  6  0  0  0
 52 55  1  0  0  0  0
 53 54  1  0  0  0  0
 56 61  1  0  0  0  0
 57 60  1  0  0  0  0
 58 49  1  6  0  0  0
 58 57  1  0  0  0  0
 58 50  1  0  0  0  0
 59 50  1  6  0  0  0
 59 56  1  0  0  0  0
 59 51  1  0  0  0  0
 60 52  1  0  0  0  0
 61 54  1  0  0  0  0
 62 63  2  0  0  0  0
M  END
>  <MODEL>
5

>  <REMARK>
 VINA RESULT:      -5.0      2.317      9.262
  Name = 
  22 active torsions:
  status: ('A' for Active; 'I' for Inactive)
    1  A    between atoms: C_1  and  C_50
    2  A    between atoms: C_2  and  N_8
    3  A    between atoms: C_4  and  C_17
    4  A    between atoms: C_4  and  C_54
    5  A    between atoms: C_6  and  C_43
    6  A    between atoms: C_7  and  C_31
    7  A    between atoms: N_8  and  C_59
    8  A    between atoms: C_12  and  C_48
    9  A    between atoms: C_14  and  C_46
   10  A    between atoms: C_14  and  C_61
   11  A    between atoms: C_16  and  C_40
   12  A    between atoms: C_19  and  C_42
   13  A    between atoms: C_24  and  C_27
   14  A    between atoms: C_24  and  C_38
   15  A    between atoms: C_27  and  N_53
   16  A    between atoms: C_33  and  C_51
   17  A    between atoms: C_33  and  C_59
   18  A    between atoms: C_35  and  C_42
   19  A    between atoms: C_43  and  N_53
   20  A    between atoms: C_50  and  C_60
   21  A    between atoms: C_55  and  C_60
   22  A    between atoms: C_58  and  C_60
                            x       y       z     vdW  Elec       q    Type
                         _______ _______ _______ _____ _____    ______ ____

>  <TORSDO>
F 22

$$$$
=
 OpenBabel11042413143D

 63 68  0  0  1  0  0  0  0  0999 V2000
  184.1910  178.4070  138.9980 C   0  0  2  0  0  3  0  0  0  0  0  0
  186.2900  178.2490  140.3490 C   0  0  0  0  0  3  0  0  0  0  0  0
  186.3420  178.8470  142.6950 C   0  0  0  0  0  3  0  0  0  0  0  0
  184.2710  178.9950  141.4560 C   0  0  0  0  0  3  0  0  0  0  0  0
  184.9770  179.1410  142.6600 C   0  0  0  0  0  0  0  0  0  0  0  0
  187.0000  178.3960  141.5460 C   0  0  0  0  0  0  0  0  0  0  0  0
  184.9250  178.5460  140.3000 C   0  0  0  0  0  0  0  0  0  0  0  0
  184.3200  179.6120  143.8870 C   0  0  0  0  0  3  0  0  0  0  0  0
  183.2940  178.9770  144.4430 C   0  0  0  0  0  2  0  0  0  0  0  0
  188.4670  178.1190  141.5930 C   0  0  0  0  0  2  0  0  0  0  0  0
  189.0290  178.3320  142.9940 C   0  0  0  0  0  2  0  0  0  0  0  0
  190.2400  177.5470  143.1810 N   0  0  0  0  0  2  0  0  0  0  0  0
  190.6640  177.7040  144.5640 C   0  0  1  0  0  3  0  0  0  0  0  0
  191.0620  175.1420  147.0800 C   0  0  0  0  0  2  0  0  0  0  0  0
  189.6060  177.1190  145.5040 C   0  0  0  0  0  2  0  0  0  0  0  0
  190.9110  176.5620  147.6560 C   0  0  2  0  0  3  0  0  0  0  0  0
  191.9600  175.5330  144.7280 C   0  0  0  0  0  2  0  0  0  0  0  0
  189.8650  177.4650  146.9700 C   0  0  2  0  0  3  0  0  0  0  0  0
  192.0350  177.0550  144.7470 C   0  0  0  0  0  2  0  0  0  0  0  0
  192.2410  174.9690  146.1150 C   0  0  0  0  0  2  0  0  0  0  0  0
  192.2360  177.2730  147.9310 C   0  0  0  0  0  2  0  0  0  0  0  0
  193.3930  177.5860  150.1510 N   0  0  0  0  0  1  0  0  0  0  0  0
  192.9060  176.7130  149.1370 C   0  0  0  0  0  0  0  0  0  0  0  0
  193.0370  175.4690  149.2650 O   0  0  0  0  0  0  0  0  0  0  0  0
  188.5450  177.3840  147.7240 C   0  0  0  0  0  2  0  0  0  0  0  0
  186.6300  177.4530  146.1310 C   0  0  0  0  0  1  0  0  0  0  0  0
  186.6740  178.8080  148.0800 O   0  0  0  0  0  1  0  0  0  0  0  0
  187.4840  178.2660  147.0850 C   0  0  1  0  0  3  0  0  0  0  0  0
  182.0460  177.6870  137.9350 C   0  0  1  0  0  3  0  0  0  0  0  0
  181.7100  178.9820  138.6480 C   0  0  2  0  0  3  0  0  0  0  0  0
  182.3100  180.0490  137.9720 O   0  0  0  0  0  1  0  0  0  0  0  0
  182.7340  178.0130  139.2450 C   0  0  2  0  0  3  0  0  0  0  0  0
  180.3260  176.3240  136.9770 O   0  0  0  0  0  0  0  0  0  0  0  0
  181.1370  175.3280  137.5580 C   0  0  2  0  0  3  0  0  0  0  0  0
  180.9440  176.6660  138.1960 C   0  0  1  0  0  3  0  0  0  0  0  0
  182.4060  175.1640  136.7300 C   0  0  0  0  0  2  0  0  0  0  0  0
  182.2360  172.8500  136.2180 O   0  0  0  0  0  1  0  0  0  0  0  0
  182.9760  173.7770  136.9460 C   0  0  0  0  0  2  0  0  0  0  0  0
  184.8550  177.3800  138.0800 C   0  0  0  0  0  2  0  0  0  0  0  0
  185.7950  178.0330  137.1130 C   0  0  0  0  0  0  0  0  0  0  0  0
  186.8880  175.8510  136.3930 C   0  0  0  0  0  0  0  0  0  0  0  0
  185.7050  179.2790  136.9390 O   0  0  0  0  0  0  0  0  0  0  0  0
  187.6790  177.9870  135.6340 O   0  0  0  0  0  1  0  0  0  0  0  0
  186.7960  177.2890  136.3900 N   0  0  0  0  0  0  0  0  0  0  0  0
  186.1000  175.1460  137.0770 O   0  0  0  0  0  0  0  0  0  0  0  0
  187.9270  175.1680  135.5660 C   0  0  0  0  0  2  0  0  0  0  0  0
  189.1310  174.9780  136.3550 N   0  0  0  0  0  2  0  0  0  0  0  0
  189.1230  173.6040  136.8240 C   0  0  0  0  0  2  0  0  0  0  0  0
  190.5460  173.0760  136.8420 C   0  0  0  0  0  2  0  0  0  0  0  0
  192.9540  173.6350  136.7650 C   0  0  0  0  0  2  0  0  0  0  0  0
  194.7710  175.3260  137.3050 N   0  0  2  0  0  0  0  0  0  0  0  0
  193.0560  176.6630  138.4980 C   0  0  1  0  0  3  0  0  0  0  0  0
  195.9340  174.4830  137.5800 C   0  0  0  0  0  2  0  0  0  0  0  0
  196.8810  174.4600  136.3750 C   0  0  0  0  0  2  0  0  0  0  0  0
  194.0670  175.5160  138.5730 C   0  0  0  0  0  2  0  0  0  0  0  0
  194.7460  174.1280  135.0860 C   0  0  0  0  0  2  0  0  0  0  0  0
  191.3990  174.9640  138.0450 O   0  0  0  0  0  0  0  0  0  0  0  0
  191.5460  174.2180  136.8650 C   0  0  2  0  0  3  0  0  0  0  0  0
  193.9250  174.7020  136.2520 C   0  0  1  0  0  3  0  0  0  0  0  0
  191.8030  176.2650  137.7150 C   0  0  0  0  0  2  0  0  0  0  0  0
  196.1510  174.7200  135.0530 C   0  0  0  0  0  2  0  0  0  0  0  0
  192.6660  177.0940  139.8770 C   0  0  0  0  0  3  0  0  0  0  0  0
  191.5770  177.6040  140.0810 O   0  0  0  0  0  0  0  0  0  0  0  0
  1 39  1  6  0  0  0
  1  7  1  0  0  0  0
  2  6  1  0  0  0  0
  4  5  2  0  0  0  0
  5  3  1  0  0  0  0
  5  8  1  0  0  0  0
  6 10  1  0  0  0  0
  6  3  2  0  0  0  0
  7  2  2  0  0  0  0
  7  4  1  0  0  0  0
  8  9  2  0  0  0  0
 10 11  1  0  0  0  0
 11 12  1  0  0  0  0
 13 12  1  6  0  0  0
 13 19  1  0  0  0  0
 13 15  1  0  0  0  0
 14 16  1  0  0  0  0
 15 18  1  0  0  0  0
 16 21  1  6  0  0  0
 17 19  1  0  0  0  0
 17 20  1  0  0  0  0
 18 16  1  0  0  0  0
 18 25  1  1  0  0  0
 20 14  1  0  0  0  0
 21 23  1  0  0  0  0
 23 24  2  0  0  0  0
 23 22  1  0  0  0  0
 28 26  1  6  0  0  0
 28 25  1  0  0  0  0
 28 27  1  0  0  0  0
 29 35  1  1  0  0  0
 29 30  1  0  0  0  0
 29 32  1  0  0  0  0
 30 31  1  6  0  0  0
 30 32  1  0  0  0  0
 32  1  1  6  0  0  0
 33 34  1  0  0  0  0
 34 36  1  6  0  0  0
 34 35  1  0  0  0  0
 35 33  1  6  0  0  0
 36 38  1  0  0  0  0
 37 38  1  0  0  0  0
 40 39  1  0  0  0  0
 41 45  2  0  0  0  0
 42 40  2  0  0  0  0
 43 44  1  0  0  0  0
 44 41  1  0  0  0  0
 44 40  1  0  0  0  0
 46 47  1  0  0  0  0
 46 41  1  0  0  0  0
 47 48  1  0  0  0  0
 48 49  1  0  0  0  0
 50 58  1  0  0  0  0
 51 53  1  1  0  0  0
 51 55  1  0  0  0  0
 52 55  1  0  0  0  0
 52 62  1  1  0  0  0
 54 53  1  0  0  0  0
 58 49  1  1  0  0  0
 58 57  1  0  0  0  0
 59 56  1  6  0  0  0
 59 50  1  0  0  0  0
 59 51  1  0  0  0  0
 60 57  1  0  0  0  0
 60 52  1  0  0  0  0
 61 56  1  0  0  0  0
 61 54  1  0  0  0  0
 62 63  2  0  0  0  0
M  END
>  <MODEL>
6

>  <REMARK>
 VINA RESULT:      -4.8      1.926      2.838
  Name = 
  22 active torsions:
  status: ('A' for Active; 'I' for Inactive)
    1  A    between atoms: C_1  and  C_50
    2  A    between atoms: C_2  and  N_8
    3  A    between atoms: C_4  and  C_17
    4  A    between atoms: C_4  and  C_54
    5  A    between atoms: C_6  and  C_43
    6  A    between atoms: C_7  and  C_31
    7  A    between atoms: N_8  and  C_59
    8  A    between atoms: C_12  and  C_48
    9  A    between atoms: C_14  and  C_46
   10  A    between atoms: C_14  and  C_61
   11  A    between atoms: C_16  and  C_40
   12  A    between atoms: C_19  and  C_42
   13  A    between atoms: C_24  and  C_27
   14  A    between atoms: C_24  and  C_38
   15  A    between atoms: C_27  and  N_53
   16  A    between atoms: C_33  and  C_51
   17  A    between atoms: C_33  and  C_59
   18  A    between atoms: C_35  and  C_42
   19  A    between atoms: C_43  and  N_53
   20  A    between atoms: C_50  and  C_60
   21  A    between atoms: C_55  and  C_60
   22  A    between atoms: C_58  and  C_60
                            x       y       z     vdW  Elec       q    Type
                         _______ _______ _______ _____ _____    ______ ____

>  <TORSDO>
F 22

$$$$
=
 OpenBabel11042413143D

 63 68  0  0  1  0  0  0  0  0999 V2000
  189.5000  175.5660  136.6890 C   0  0  2  0  0  3  0  0  0  0  0  0
  190.5820  173.3860  136.1130 C   0  0  0  0  0  3  0  0  0  0  0  0
  192.7880  173.2810  135.1210 C   0  0  0  0  0  3  0  0  0  0  0  0
  191.8150  175.4230  135.6800 C   0  0  0  0  0  3  0  0  0  0  0  0
  192.8850  174.6740  135.1660 C   0  0  0  0  0  0  0  0  0  0  0  0
  191.6430  172.6340  135.5980 C   0  0  0  0  0  0  0  0  0  0  0  0
  190.6630  174.7810  136.1580 C   0  0  0  0  0  0  0  0  0  0  0  0
  194.1020  175.3190  134.6560 C   0  0  0  0  0  3  0  0  0  0  0  0
  194.7010  176.3240  135.2860 C   0  0  0  0  0  2  0  0  0  0  0  0
  191.5430  171.1470  135.5110 C   0  0  0  0  0  2  0  0  0  0  0  0
  192.6180  170.5690  134.5960 C   0  0  0  0  0  2  0  0  0  0  0  0
  193.7440  170.0820  135.3790 N   0  0  0  0  0  2  0  0  0  0  0  0
  194.6940  171.1750  135.5210 C   0  0  1  0  0  3  0  0  0  0  0  0
  197.8290  171.1880  137.3170 C   0  0  0  0  0  2  0  0  0  0  0  0
  194.9410  171.4630  137.0040 C   0  0  0  0  0  2  0  0  0  0  0  0
  197.2570  172.5940  137.0520 C   0  0  2  0  0  3  0  0  0  0  0  0
  196.7920  169.7550  135.4820 C   0  0  0  0  0  2  0  0  0  0  0  0
  195.7330  172.7510  137.2300 C   0  0  2  0  0  3  0  0  0  0  0  0
  195.9780  170.8280  134.7690 C   0  0  0  0  0  2  0  0  0  0  0  0
  198.0720  170.3520  136.0540 C   0  0  0  0  0  2  0  0  0  0  0  0
  197.7890  173.2590  135.7830 C   0  0  0  0  0  2  0  0  0  0  0  0
  199.0350  175.3300  135.0540 N   0  0  0  0  0  1  0  0  0  0  0  0
  198.5420  174.5040  136.1040 C   0  0  0  0  0  0  0  0  0  0  0  0
  198.7370  174.8310  137.3030 O   0  0  0  0  0  0  0  0  0  0  0  0
  195.4310  173.2610  138.6330 C   0  0  0  0  0  2  0  0  0  0  0  0
  194.7430  175.6480  138.8320 C   0  0  0  0  0  1  0  0  0  0  0  0
  196.6020  174.7860  140.0330 O   0  0  0  0  0  1  0  0  0  0  0  0
  195.9180  174.6890  138.8220 C   0  0  1  0  0  3  0  0  0  0  0  0
  187.1290  176.1690  136.1690 C   0  0  1  0  0  3  0  0  0  0  0  0
  187.3380  174.8170  135.5160 C   0  0  2  0  0  3  0  0  0  0  0  0
  187.4350  173.8360  136.5080 O   0  0  0  0  0  1  0  0  0  0  0  0
  188.4830  175.8310  135.5770 C   0  0  2  0  0  3  0  0  0  0  0  0
  185.1460  176.5010  134.8700 O   0  0  0  0  0  0  0  0  0  0  0  0
  185.0850  177.6320  135.7080 C   0  0  2  0  0  3  0  0  0  0  0  0
  186.3830  177.0850  135.2060 C   0  0  1  0  0  3  0  0  0  0  0  0
  184.6820  177.2000  137.1120 C   0  0  0  0  0  2  0  0  0  0  0  0
  182.5550  177.9510  136.3640 O   0  0  0  0  0  1  0  0  0  0  0  0
  183.1800  177.0040  137.1700 C   0  0  0  0  0  2  0  0  0  0  0  0
  189.9460  176.8910  137.3070 C   0  0  0  0  0  2  0  0  0  0  0  0
  188.9330  177.4120  138.2800 C   0  0  0  0  0  0  0  0  0  0  0  0
  190.2600  176.7200  140.3390 C   0  0  0  0  0  0  0  0  0  0  0  0
  187.9190  178.0080  137.8280 O   0  0  0  0  0  0  0  0  0  0  0  0
  188.0470  177.6390  140.4950 O   0  0  0  0  0  1  0  0  0  0  0  0
  189.0760  177.2440  139.7050 N   0  0  0  0  0  0  0  0  0  0  0  0
  191.2490  176.3330  139.6610 O   0  0  0  0  0  0  0  0  0  0  0  0
  190.3360  176.6380  141.8280 C   0  0  0  0  0  2  0  0  0  0  0  0
  191.7220  176.4980  142.2380 N   0  0  0  0  0  2  0  0  0  0  0  0
  192.2740  177.8380  142.3440 C   0  0  0  0  0  2  0  0  0  0  0  0
  191.4770  178.6230  143.3700 C   0  0  0  0  0  2  0  0  0  0  0  0
  189.8780  178.4630  145.2490 C   0  0  0  0  0  2  0  0  0  0  0  0
  189.2340  177.2950  147.4120 N   0  0  2  0  0  0  0  0  0  0  0  0
  191.3830  176.0630  147.2870 C   0  0  1  0  0  3  0  0  0  0  0  0
  188.5890  178.3590  148.1800 C   0  0  0  0  0  2  0  0  0  0  0  0
  187.0640  178.2150  148.1260 C   0  0  0  0  0  2  0  0  0  0  0  0
  190.6610  177.3370  147.7320 C   0  0  0  0  0  2  0  0  0  0  0  0
  187.4890  177.8410  145.6750 C   0  0  0  0  0  2  0  0  0  0  0  0
  191.9840  177.2880  145.2930 O   0  0  0  0  0  0  0  0  0  0  0  0
  190.9390  177.7070  144.4540 C   0  0  2  0  0  3  0  0  0  0  0  0
  188.9540  177.4710  145.9610 C   0  0  1  0  0  3  0  0  0  0  0  0
  191.5940  176.0290  145.7720 C   0  0  0  0  0  2  0  0  0  0  0  0
  186.5900  177.4980  146.8580 C   0  0  0  0  0  2  0  0  0  0  0  0
  192.7070  175.9550  147.9760 C   0  0  0  0  0  3  0  0  0  0  0  0
  193.1050  176.8530  148.6980 O   0  0  0  0  0  0  0  0  0  0  0  0
  1 39  1  6  0  0  0
  2  7  1  0  0  0  0
  3  5  2  0  0  0  0
  3  6  1  0  0  0  0
  4  7  2  0  0  0  0
  5  4  1  0  0  0  0
  6  2  2  0  0  0  0
  7  1  1  0  0  0  0
  8  5  1  0  0  0  0
  8  9  2  0  0  0  0
 10  6  1  0  0  0  0
 11 12  1  0  0  0  0
 11 10  1  0  0  0  0
 13 12  1  1  0  0  0
 13 15  1  0  0  0  0
 15 18  1  0  0  0  0
 16 21  1  6  0  0  0
 16 18  1  0  0  0  0
 16 14  1  0  0  0  0
 17 20  1  0  0  0  0
 18 25  1  1  0  0  0
 19 17  1  0  0  0  0
 19 13  1  0  0  0  0
 20 14  1  0  0  0  0
 21 23  1  0  0  0  0
 22 23  1  0  0  0  0
 23 24  2  0  0  0  0
 25 28  1  0  0  0  0
 28 26  1  1  0  0  0
 28 27  1  0  0  0  0
 29 35  1  6  0  0  0
 30 32  1  0  0  0  0
 30 29  1  0  0  0  0
 30 31  1  1  0  0  0
 32 29  1  0  0  0  0
 32  1  1  1  0  0  0
 33 34  1  0  0  0  0
 34 36  1  1  0  0  0
 35 33  1  6  0  0  0
 35 34  1  0  0  0  0
 36 38  1  0  0  0  0
 37 38  1  0  0  0  0
 39 40  1  0  0  0  0
 40 44  1  0  0  0  0
 41 46  1  0  0  0  0
 42 40  2  0  0  0  0
 44 41  1  0  0  0  0
 44 43  1  0  0  0  0
 45 41  2  0  0  0  0
 46 47  1  0  0  0  0
 47 48  1  0  0  0  0
 48 49  1  0  0  0  0
 51 55  1  6  0  0  0
 51 53  1  0  0  0  0
 52 55  1  0  0  0  0
 52 62  1  1  0  0  0
 54 53  1  0  0  0  0
 56 59  1  0  0  0  0
 56 61  1  0  0  0  0
 57 60  1  0  0  0  0
 58 49  1  6  0  0  0
 58 50  1  0  0  0  0
 58 57  1  0  0  0  0
 59 50  1  1  0  0  0
 59 51  1  0  0  0  0
 60 52  1  0  0  0  0
 61 54  1  0  0  0  0
 62 63  2  0  0  0  0
M  END
>  <MODEL>
7

>  <REMARK>
 VINA RESULT:      -4.8      3.720     10.216
  Name = 
  22 active torsions:
  status: ('A' for Active; 'I' for Inactive)
    1  A    between atoms: C_1  and  C_50
    2  A    between atoms: C_2  and  N_8
    3  A    between atoms: C_4  and  C_17
    4  A    between atoms: C_4  and  C_54
    5  A    between atoms: C_6  and  C_43
    6  A    between atoms: C_7  and  C_31
    7  A    between atoms: N_8  and  C_59
    8  A    between atoms: C_12  and  C_48
    9  A    between atoms: C_14  and  C_46
   10  A    between atoms: C_14  and  C_61
   11  A    between atoms: C_16  and  C_40
   12  A    between atoms: C_19  and  C_42
   13  A    between atoms: C_24  and  C_27
   14  A    between atoms: C_24  and  C_38
   15  A    between atoms: C_27  and  N_53
   16  A    between atoms: C_33  and  C_51
   17  A    between atoms: C_33  and  C_59
   18  A    between atoms: C_35  and  C_42
   19  A    between atoms: C_43  and  N_53
   20  A    between atoms: C_50  and  C_60
   21  A    between atoms: C_55  and  C_60
   22  A    between atoms: C_58  and  C_60
                            x       y       z     vdW  Elec       q    Type
                         _______ _______ _______ _____ _____    ______ ____

>  <TORSDO>
F 22

$$$$
=
 OpenBabel11042413143D

 63 68  0  0  1  0  0  0  0  0999 V2000
  183.2630  178.5290  140.1840 C   0  0  2  0  0  3  0  0  0  0  0  0
  184.1520  178.3660  142.5160 C   0  0  0  0  0  3  0  0  0  0  0  0
  186.5240  178.4910  142.9870 C   0  0  0  0  0  3  0  0  0  0  0  0
  185.7320  178.6850  140.7110 C   0  0  0  0  0  3  0  0  0  0  0  0
  186.7940  178.6680  141.6270 C   0  0  0  0  0  0  0  0  0  0  0  0
  185.2070  178.3450  143.4350 C   0  0  0  0  0  0  0  0  0  0  0  0
  184.4090  178.5380  141.1530 C   0  0  0  0  0  0  0  0  0  0  0  0
  188.1890  178.8180  141.1940 C   0  0  0  0  0  3  0  0  0  0  0  0
  188.8900  177.8200  140.6660 C   0  0  0  0  0  2  0  0  0  0  0  0
  184.9390  178.1230  144.8870 C   0  0  0  0  0  2  0  0  0  0  0  0
  185.7900  179.0410  145.7570 C   0  0  0  0  0  2  0  0  0  0  0  0
  186.0720  178.4110  147.0380 N   0  0  0  0  0  2  0  0  0  0  0  0
  187.3190  177.6730  146.9070 C   0  0  1  0  0  3  0  0  0  0  0  0
  190.5600  178.5100  148.2670 C   0  0  0  0  0  2  0  0  0  0  0  0
  188.4000  178.5760  146.3070 C   0  0  0  0  0  2  0  0  0  0  0  0
  190.6160  177.5180  147.0910 C   0  0  2  0  0  3  0  0  0  0  0  0
  188.2180  178.1920  149.2190 C   0  0  0  0  0  2  0  0  0  0  0  0
  189.6600  177.8060  145.9140 C   0  0  2  0  0  3  0  0  0  0  0  0
  187.7170  177.1090  148.2710 C   0  0  0  0  0  2  0  0  0  0  0  0
  189.7150  178.0390  149.4570 C   0  0  0  0  0  2  0  0  0  0  0  0
  190.6340  176.0480  147.5080 C   0  0  0  0  0  2  0  0  0  0  0  0
  192.8310  175.1140  148.3270 N   0  0  0  0  0  1  0  0  0  0  0  0
  191.9640  175.4310  147.2430 C   0  0  0  0  0  0  0  0  0  0  0  0
  192.3200  175.1820  146.0620 O   0  0  0  0  0  0  0  0  0  0  0  0
  190.3930  178.5990  144.8410 C   0  0  0  0  0  2  0  0  0  0  0  0
  190.4650  176.4150  143.6430 C   0  0  0  0  0  1  0  0  0  0  0  0
  191.5130  178.3530  142.7570 O   0  0  0  0  0  1  0  0  0  0  0  0
  191.2250  177.6910  143.9490 C   0  0  1  0  0  3  0  0  0  0  0  0
  181.0620  177.4670  139.6520 C   0  0  1  0  0  3  0  0  0  0  0  0
  181.0180  177.7260  141.1460 C   0  0  2  0  0  3  0  0  0  0  0  0
  180.9070  179.1010  141.3720 O   0  0  0  0  0  1  0  0  0  0  0  0
  182.3360  177.3450  140.4660 C   0  0  2  0  0  3  0  0  0  0  0  0
  179.1600  176.0150  139.7140 O   0  0  0  0  0  0  0  0  0  0  0  0
  179.4430  175.9920  138.3350 C   0  0  2  0  0  3  0  0  0  0  0  0
  180.5240  176.0700  139.3660 C   0  0  1  0  0  3  0  0  0  0  0  0
  179.0250  177.3180  137.7100 C   0  0  0  0  0  2  0  0  0  0  0  0
  179.1830  178.4080  135.6050 O   0  0  0  0  0  1  0  0  0  0  0  0
  178.9650  177.1710  136.2040 C   0  0  0  0  0  2  0  0  0  0  0  0
  183.7460  178.4730  138.7350 C   0  0  0  0  0  2  0  0  0  0  0  0
  182.6220  178.7000  137.7710 C   0  0  0  0  0  0  0  0  0  0  0  0
  183.2320  176.7250  136.2860 C   0  0  0  0  0  0  0  0  0  0  0  0
  181.8050  179.6280  138.0120 O   0  0  0  0  0  0  0  0  0  0  0  0
  181.4830  178.2650  135.7090 O   0  0  0  0  0  1  0  0  0  0  0  0
  182.4550  177.9030  136.5810 N   0  0  0  0  0  0  0  0  0  0  0  0
  184.1520  176.3380  137.0540 O   0  0  0  0  0  0  0  0  0  0  0  0
  182.9460  175.9310  135.0540 C   0  0  0  0  0  2  0  0  0  0  0  0
  183.1300  174.5170  135.3320 N   0  0  0  0  0  2  0  0  0  0  0  0
  184.3340  174.0980  134.6360 C   0  0  0  0  0  2  0  0  0  0  0  0
  185.0070  172.9930  135.4280 C   0  0  0  0  0  2  0  0  0  0  0  0
  186.5820  174.8960  135.5480 C   0  0  0  0  0  2  0  0  0  0  0  0
  188.9960  175.6600  135.7490 N   0  0  2  0  0  0  0  0  0  0  0  0
  189.6770  173.2850  135.5370 C   0  0  1  0  0  3  0  0  0  0  0  0
  189.0110  176.9080  134.9860 C   0  0  0  0  0  2  0  0  0  0  0  0
  188.9770  178.1160  135.9290 C   0  0  0  0  0  2  0  0  0  0  0  0
  189.3020  174.5790  134.8120 C   0  0  0  0  0  2  0  0  0  0  0  0
  187.1740  176.7900  137.0760 C   0  0  0  0  0  2  0  0  0  0  0  0
  187.3680  172.6360  135.2420 O   0  0  0  0  0  0  0  0  0  0  0  0
  186.3920  173.4180  135.8800 C   0  0  2  0  0  3  0  0  0  0  0  0
  187.6840  175.4920  136.4290 C   0  0  1  0  0  3  0  0  0  0  0  0
  188.4500  172.5920  136.1330 C   0  0  0  0  0  2  0  0  0  0  0  0
  188.3050  177.7950  137.2670 C   0  0  0  0  0  2  0  0  0  0  0  0
  190.3680  172.3490  134.5950 C   0  0  0  0  0  3  0  0  0  0  0  0
  191.4320  171.8390  134.8980 O   0  0  0  0  0  0  0  0  0  0  0  0
  1 39  1  6  0  0  0
  1  7  1  0  0  0  0
  2  6  1  0  0  0  0
  3  6  2  0  0  0  0
  4  7  1  0  0  0  0
  4  5  2  0  0  0  0
  5  3  1  0  0  0  0
  6 10  1  0  0  0  0
  7  2  2  0  0  0  0
  8  5  1  0  0  0  0
  9  8  2  0  0  0  0
 10 11  1  0  0  0  0
 11 12  1  0  0  0  0
 13 12  1  1  0  0  0
 13 19  1  0  0  0  0
 14 20  1  0  0  0  0
 15 13  1  0  0  0  0
 16 21  1  1  0  0  0
 16 14  1  0  0  0  0
 17 20  1  0  0  0  0
 18 25  1  6  0  0  0
 18 15  1  0  0  0  0
 18 16  1  0  0  0  0
 19 17  1  0  0  0  0
 23 21  1  0  0  0  0
 23 22  1  0  0  0  0
 24 23  2  0  0  0  0
 27 28  1  0  0  0  0
 28 26  1  6  0  0  0
 28 25  1  0  0  0  0
 29 35  1  1  0  0  0
 29 32  1  0  0  0  0
 29 30  1  0  0  0  0
 30 31  1  6  0  0  0
 32  1  1  6  0  0  0
 32 30  1  0  0  0  0
 34 36  1  6  0  0  0
 34 35  1  0  0  0  0
 34 33  1  0  0  0  0
 35 33  1  1  0  0  0
 37 38  1  0  0  0  0
 38 36  1  0  0  0  0
 40 42  2  0  0  0  0
 40 39  1  0  0  0  0
 41 44  1  0  0  0  0
 41 45  2  0  0  0  0
 43 44  1  0  0  0  0
 44 40  1  0  0  0  0
 46 47  1  0  0  0  0
 46 41  1  0  0  0  0
 48 47  1  0  0  0  0
 48 49  1  0  0  0  0
 50 58  1  0  0  0  0
 51 55  1  6  0  0  0
 51 59  1  0  0  0  0
 52 62  1  6  0  0  0
 52 60  1  0  0  0  0
 53 51  1  0  0  0  0
 53 54  1  0  0  0  0
 54 61  1  0  0  0  0
 55 52  1  0  0  0  0
 56 61  1  0  0  0  0
 57 58  1  0  0  0  0
 57 60  1  0  0  0  0
 58 49  1  6  0  0  0
 59 50  1  6  0  0  0
 59 56  1  0  0  0  0
 62 63  2  0  0  0  0
M  END
>  <MODEL>
8

>  <REMARK>
 VINA RESULT:      -4.7      2.177      4.018
  Name = 
  22 active torsions:
  status: ('A' for Active; 'I' for Inactive)
    1  A    between atoms: C_1  and  C_50
    2  A    between atoms: C_2  and  N_8
    3  A    between atoms: C_4  and  C_17
    4  A    between atoms: C_4  and  C_54
    5  A    between atoms: C_6  and  C_43
    6  A    between atoms: C_7  and  C_31
    7  A    between atoms: N_8  and  C_59
    8  A    between atoms: C_12  and  C_48
    9  A    between atoms: C_14  and  C_46
   10  A    between atoms: C_14  and  C_61
   11  A    between atoms: C_16  and  C_40
   12  A    between atoms: C_19  and  C_42
   13  A    between atoms: C_24  and  C_27
   14  A    between atoms: C_24  and  C_38
   15  A    between atoms: C_27  and  N_53
   16  A    between atoms: C_33  and  C_51
   17  A    between atoms: C_33  and  C_59
   18  A    between atoms: C_35  and  C_42
   19  A    between atoms: C_43  and  N_53
   20  A    between atoms: C_50  and  C_60
   21  A    between atoms: C_55  and  C_60
   22  A    between atoms: C_58  and  C_60
                            x       y       z     vdW  Elec       q    Type
                         _______ _______ _______ _____ _____    ______ ____

>  <TORSDO>
F 22

$$$$
=
 OpenBabel11042413143D

 63 68  0  0  1  0  0  0  0  0999 V2000
  191.7500  176.2120  136.0850 C   0  0  2  0  0  3  0  0  0  0  0  0
  189.9300  174.6820  135.3100 C   0  0  0  0  0  3  0  0  0  0  0  0
  187.7210  175.5060  134.7620 C   0  0  0  0  0  3  0  0  0  0  0  0
  189.4410  177.0460  135.4760 C   0  0  0  0  0  3  0  0  0  0  0  0
  188.1260  176.8120  135.0480 C   0  0  0  0  0  0  0  0  0  0  0  0
  188.6190  174.4410  134.8860 C   0  0  0  0  0  0  0  0  0  0  0  0
  190.3470  175.9830  135.6050 C   0  0  0  0  0  0  0  0  0  0  0  0
  187.1550  177.9040  134.9060 C   0  0  0  0  0  3  0  0  0  0  0  0
  186.8130  178.6990  135.9150 C   0  0  0  0  0  2  0  0  0  0  0  0
  188.1590  173.0470  134.6080 C   0  0  0  0  0  2  0  0  0  0  0  0
  186.6960  172.8580  134.9930 C   0  0  0  0  0  2  0  0  0  0  0  0
  186.5720  172.6240  136.4230 N   0  0  0  0  0  2  0  0  0  0  0  0
  185.2210  172.9890  136.8190 C   0  0  1  0  0  3  0  0  0  0  0  0
  182.2620  173.1740  134.7530 C   0  0  0  0  0  2  0  0  0  0  0  0
  184.7250  174.1600  135.9690 C   0  0  0  0  0  2  0  0  0  0  0  0
  182.1550  173.9720  136.0660 C   0  0  2  0  0  3  0  0  0  0  0  0
  184.0120  171.3930  135.2660 C   0  0  0  0  0  2  0  0  0  0  0  0
  183.4160  174.7550  136.4890 C   0  0  2  0  0  3  0  0  0  0  0  0
  184.3160  171.7620  136.7130 C   0  0  0  0  0  2  0  0  0  0  0  0
  182.5510  171.6790  134.9390 C   0  0  0  0  0  2  0  0  0  0  0  0
  181.5070  173.2040  137.2180 C   0  0  0  0  0  2  0  0  0  0  0  0
  179.9680  174.5270  138.7170 N   0  0  0  0  0  1  0  0  0  0  0  0
  180.1600  173.7520  137.5380 C   0  0  0  0  0  0  0  0  0  0  0  0
  179.1910  173.5380  136.7640 O   0  0  0  0  0  0  0  0  0  0  0  0
  183.3130  176.1930  136.0000 C   0  0  0  0  0  2  0  0  0  0  0  0
  182.2260  178.1260  137.1370 C   0  0  0  0  0  1  0  0  0  0  0  0
  183.4290  176.4830  138.3580 O   0  0  0  0  0  1  0  0  0  0  0  0
  183.4120  177.1800  137.1520 C   0  0  1  0  0  3  0  0  0  0  0  0
  193.8810  175.0660  136.7140 C   0  0  1  0  0  3  0  0  0  0  0  0
  193.8900  175.0970  135.1980 C   0  0  2  0  0  3  0  0  0  0  0  0
  194.0970  176.4110  134.7660 O   0  0  0  0  0  1  0  0  0  0  0  0
  192.5730  174.9290  135.9600 C   0  0  2  0  0  3  0  0  0  0  0  0
  195.7290  173.6300  137.2180 O   0  0  0  0  0  0  0  0  0  0  0  0
  195.0920  173.6630  138.4740 C   0  0  2  0  0  3  0  0  0  0  0  0
  194.3220  173.6870  137.1930 C   0  0  1  0  0  3  0  0  0  0  0  0
  195.3350  175.0180  139.1280 C   0  0  0  0  0  2  0  0  0  0  0  0
  197.3240  175.9060  140.0780 O   0  0  0  0  0  1  0  0  0  0  0  0
  196.3940  174.8790  140.2030 C   0  0  0  0  0  2  0  0  0  0  0  0
  191.7800  176.7070  137.5310 C   0  0  0  0  0  2  0  0  0  0  0  0
  190.8570  175.9130  138.4030 C   0  0  0  0  0  0  0  0  0  0  0  0
  189.2730  177.8560  138.8390 C   0  0  0  0  0  0  0  0  0  0  0  0
  191.0920  174.6840  138.5620 O   0  0  0  0  0  0  0  0  0  0  0  0
  189.0230  175.7340  139.9350 O   0  0  0  0  0  1  0  0  0  0  0  0
  189.7250  176.5070  139.0690 N   0  0  0  0  0  0  0  0  0  0  0  0
  189.8830  178.6250  138.0490 O   0  0  0  0  0  0  0  0  0  0  0  0
  188.0530  178.3640  139.5340 C   0  0  0  0  0  2  0  0  0  0  0  0
  188.2730  178.3570  140.9700 N   0  0  0  0  0  2  0  0  0  0  0  0
  187.0880  178.9300  141.5860 C   0  0  0  0  0  2  0  0  0  0  0  0
  186.4160  177.8740  142.4450 C   0  0  0  0  0  2  0  0  0  0  0  0
  187.4950  178.0400  144.6640 C   0  0  0  0  0  2  0  0  0  0  0  0
  189.4740  177.4110  146.1280 N   0  0  2  0  0  0  0  0  0  0  0  0
  190.5380  176.4210  144.1190 C   0  0  1  0  0  3  0  0  0  0  0  0
  189.6040  178.5640  147.0180 C   0  0  0  0  0  2  0  0  0  0  0  0
  189.0070  178.2520  148.3950 C   0  0  0  0  0  2  0  0  0  0  0  0
  190.2950  177.6840  144.9480 C   0  0  0  0  0  2  0  0  0  0  0  0
  187.1210  177.3030  147.0290 C   0  0  0  0  0  2  0  0  0  0  0  0
  188.6750  177.1430  142.7600 O   0  0  0  0  0  0  0  0  0  0  0  0
  187.4170  177.2190  143.3790 C   0  0  2  0  0  3  0  0  0  0  0  0
  188.0410  177.1750  145.8040 C   0  0  1  0  0  3  0  0  0  0  0  0
  189.2970  176.0180  143.3190 C   0  0  0  0  0  2  0  0  0  0  0  0
  187.9090  177.1860  148.3280 C   0  0  0  0  0  2  0  0  0  0  0  0
  191.6850  176.6340  143.1820 C   0  0  0  0  0  3  0  0  0  0  0  0
  191.5010  177.1060  142.0730 O   0  0  0  0  0  0  0  0  0  0  0  0
  1 39  1  1  0  0  0
  2  7  1  0  0  0  0
  3  6  1  0  0  0  0
  3  5  2  0  0  0  0
  4  7  2  0  0  0  0
  5  4  1  0  0  0  0
  6  2  2  0  0  0  0
  7  1  1  0  0  0  0
  8  5  1  0  0  0  0
  8  9  2  0  0  0  0
 10  6  1  0  0  0  0
 10 11  1  0  0  0  0
 11 12  1  0  0  0  0
 13 12  1  6  0  0  0
 14 20  1  0  0  0  0
 14 16  1  0  0  0  0
 15 18  1  0  0  0  0
 15 13  1  0  0  0  0
 16 18  1  0  0  0  0
 16 21  1  1  0  0  0
 17 19  1  0  0  0  0
 18 25  1  6  0  0  0
 19 13  1  0  0  0  0
 20 17  1  0  0  0  0
 21 23  1  0  0  0  0
 23 22  1  0  0  0  0
 24 23  2  0  0  0  0
 25 28  1  0  0  0  0
 28 26  1  1  0  0  0
 28 27  1  0  0  0  0
 29 35  1  6  0  0  0
 30 31  1  1  0  0  0
 30 32  1  0  0  0  0
 30 29  1  0  0  0  0
 32  1  1  1  0  0  0
 32 29  1  0  0  0  0
 33 34  1  0  0  0  0
 34 36  1  6  0  0  0
 35 33  1  6  0  0  0
 35 34  1  0  0  0  0
 36 38  1  0  0  0  0
 37 38  1  0  0  0  0
 39 40  1  0  0  0  0
 40 42  2  0  0  0  0
 40 44  1  0  0  0  0
 41 44  1  0  0  0  0
 41 46  1  0  0  0  0
 44 43  1  0  0  0  0
 45 41  2  0  0  0  0
 46 47  1  0  0  0  0
 47 48  1  0  0  0  0
 48 49  1  0  0  0  0
 51 55  1  6  0  0  0
 51 53  1  0  0  0  0
 52 62  1  6  0  0  0
 52 55  1  0  0  0  0
 53 54  1  0  0  0  0
 56 61  1  0  0  0  0
 57 60  1  0  0  0  0
 57 58  1  0  0  0  0
 58 49  1  6  0  0  0
 58 50  1  0  0  0  0
 59 50  1  6  0  0  0
 59 51  1  0  0  0  0
 59 56  1  0  0  0  0
 60 52  1  0  0  0  0
 61 54  1  0  0  0  0
 63 62  2  0  0  0  0
M  END
>  <MODEL>
9

>  <REMARK>
 VINA RESULT:      -4.7      2.821     11.071
  Name = 
  22 active torsions:
  status: ('A' for Active; 'I' for Inactive)
    1  A    between atoms: C_1  and  C_50
    2  A    between atoms: C_2  and  N_8
    3  A    between atoms: C_4  and  C_17
    4  A    between atoms: C_4  and  C_54
    5  A    between atoms: C_6  and  C_43
    6  A    between atoms: C_7  and  C_31
    7  A    between atoms: N_8  and  C_59
    8  A    between atoms: C_12  and  C_48
    9  A    between atoms: C_14  and  C_46
   10  A    between atoms: C_14  and  C_61
   11  A    between atoms: C_16  and  C_40
   12  A    between atoms: C_19  and  C_42
   13  A    between atoms: C_24  and  C_27
   14  A    between atoms: C_24  and  C_38
   15  A    between atoms: C_27  and  N_53
   16  A    between atoms: C_33  and  C_51
   17  A    between atoms: C_33  and  C_59
   18  A    between atoms: C_35  and  C_42
   19  A    between atoms: C_43  and  N_53
   20  A    between atoms: C_50  and  C_60
   21  A    between atoms: C_55  and  C_60
   22  A    between atoms: C_58  and  C_60
                            x       y       z     vdW  Elec       q    Type
                         _______ _______ _______ _____ _____    ______ ____

>  <TORSDO>
F 22

$$$$
