=
 OpenBabel11032420273D

 39 42  0  0  1  0  0  0  0  0999 V2000
  188.9120  176.5870  135.2650 C   0  0  0  0  0  2  0  0  0  0  0  0
  192.1950  176.6590  137.7330 N   0  0  0  0  0  0  0  0  0  0  0  0
  189.9270  175.4700  135.1250 C   0  0  0  0  0  2  0  0  0  0  0  0
  189.8140  177.0950  137.5810 C   0  0  1  0  0  3  0  0  0  0  0  0
  191.0970  176.4850  137.0570 C   0  0  0  0  0  0  0  0  0  0  0  0
  188.5690  176.7380  136.7450 C   0  0  1  0  0  3  0  0  0  0  0  0
  191.1160  175.8020  135.8320 O   0  0  0  0  0  0  0  0  0  0  0  0
  193.9910  174.9920  138.0050 N   0  0  0  0  0  2  0  0  0  0  0  0
  193.4970  176.1760  137.3760 C   0  0  0  0  0  0  0  0  0  0  0  0
  194.2040  176.7770  136.5220 O   0  0  0  0  0  0  0  0  0  0  0  0
  196.0240  174.1350  138.9990 C   0  0  0  0  0  2  0  0  0  0  0  0
  195.3760  173.0200  138.2060 C   0  0  0  0  0  2  0  0  0  0  0  0
  195.3040  174.4470  137.7040 C   0  0  0  0  0  3  0  0  0  0  0  0
  189.4310  178.8610  139.7860 O   0  0  0  0  0  0  0  0  0  0  0  0
  189.5970  176.6850  138.9630 N   0  0  0  0  0  2  0  0  0  0  0  0
  189.4340  177.6230  140.0310 C   0  0  0  0  0  0  0  0  0  0  0  0
  189.2550  177.1360  141.4130 C   0  0  0  0  0  0  0  0  0  0  0  0
  190.1960  176.3500  141.9540 C   0  0  0  0  0  3  0  0  0  0  0  0
  188.0940  178.0350  143.4630 C   0  0  0  0  0  2  0  0  0  0  0  0
  187.9410  177.3960  142.0950 C   0  0  0  0  0  2  0  0  0  0  0  0
  188.4860  176.9770  144.4770 C   0  0  2  0  0  3  0  0  0  0  0  0
  188.1530  177.4770  145.8660 C   0  0  0  0  0  1  0  0  0  0  0  0
  189.9150  176.7230  144.3920 N   0  0  0  0  0  2  0  0  0  0  0  0
  190.1570  175.8690  143.3030 N   0  0  0  0  0  2  0  0  0  0  0  0
  187.9940  179.0570  137.1570 O   0  0  0  0  0  1  0  0  0  0  0  0
  187.4600  177.7870  136.9180 C   0  0  2  0  0  3  0  0  0  0  0  0
  186.4860  177.4220  138.0380 C   0  0  0  0  0  2  0  0  0  0  0  0
  185.5110  178.5550  138.3330 C   0  0  0  0  0  2  0  0  0  0  0  0
  185.4510  178.7940  139.7640 N   0  0  0  0  0  2  0  0  0  0  0  0
  184.2400  178.9300  143.8230 C   0  0  0  0  0  0  0  0  0  0  0  0
  182.8050  178.9140  144.2590 C   0  0  0  0  0  2  0  0  0  0  0  0
  184.0970  178.7790  140.1250 N   0  0  0  0  0  2  0  0  0  0  0  0
  181.8510  178.8500  143.1000 C   0  0  0  0  0  3  0  0  0  0  0  0
  182.2510  178.8070  141.8200 C   0  0  0  0  0  0  0  0  0  0  0  0
  183.6910  178.8250  141.4940 C   0  0  0  0  0  0  0  0  0  0  0  0
  184.5860  178.8820  142.4340 N   0  0  0  0  0  0  0  0  0  0  0  0
  185.1500  178.9860  144.6890 O   0  0  0  0  0  0  0  0  0  0  0  0
  179.9480  178.4380  140.9700 C   0  0  0  0  0  1  0  0  0  0  0  0
  181.3210  178.7480  140.7740 O   0  0  0  0  0  0  0  0  0  0  0  0
  1  6  1  0  0  0  0
  3  1  1  0  0  0  0
  3  7  1  0  0  0  0
  4 15  1  1  0  0  0
  5  4  1  0  0  0  0
  5  2  2  0  0  0  0
  6 26  1  6  0  0  0
  6  4  1  0  0  0  0
  7  5  1  0  0  0  0
  9  2  1  0  0  0  0
  9  8  1  0  0  0  0
 10  9  2  0  0  0  0
 12 11  1  0  0  0  0
 13  8  1  0  0  0  0
 13 12  1  0  0  0  0
 13 11  1  0  0  0  0
 14 16  2  0  0  0  0
 15 16  1  0  0  0  0
 16 17  1  0  0  0  0
 17 18  2  0  0  0  0
 17 20  1  0  0  0  0
 18 24  1  0  0  0  0
 19 21  1  0  0  0  0
 20 19  1  0  0  0  0
 21 22  1  1  0  0  0
 23 21  1  0  0  0  0
 24 23  1  0  0  0  0
 26 25  1  1  0  0  0
 26 27  1  0  0  0  0
 27 28  1  0  0  0  0
 28 29  1  0  0  0  0
 29 32  1  0  0  0  0
 30 31  1  0  0  0  0
 30 37  2  0  0  0  0
 32 35  1  0  0  0  0
 33 31  1  0  0  0  0
 34 33  2  0  0  0  0
 35 34  1  0  0  0  0
 35 36  2  0  0  0  0
 36 30  1  0  0  0  0
 39 38  1  0  0  0  0
 39 34  1  0  0  0  0
M  END
>  <MODEL>
1

>  <REMARK>
 VINA RESULT:      -7.8      0.000      0.000
  Name = 
  10 active torsions:
  status: ('A' for Active; 'I' for Inactive)
    1  A    between atoms: N_1  and  C_26
    2  A    between atoms: C_3  and  C_21
    3  A    between atoms: C_6  and  C_22
    4  A    between atoms: C_6  and  C_33
    5  A    between atoms: N_9  and  C_19
    6  A    between atoms: N_12  and  N_36
    7  A    between atoms: C_14  and  N_16
    8  A    between atoms: C_22  and  N_36
    9  A    between atoms: C_24  and  C_33
   10  A    between atoms: C_25  and  O_37
                            x       y       z     vdW  Elec       q    Type
                         _______ _______ _______ _____ _____    ______ ____

>  <TORSDO>
F 10

$$$$
=
 OpenBabel11032420273D

 39 42  0  0  1  0  0  0  0  0999 V2000
  189.3210  174.9490  135.9630 C   0  0  0  0  0  2  0  0  0  0  0  0
  192.8220  176.2310  137.6850 N   0  0  0  0  0  0  0  0  0  0  0  0
  190.5270  174.0340  135.8780 C   0  0  0  0  0  2  0  0  0  0  0  0
  190.4080  176.1780  137.8970 C   0  0  1  0  0  3  0  0  0  0  0  0
  191.7060  175.6970  137.2840 C   0  0  0  0  0  0  0  0  0  0  0  0
  189.1660  175.4030  137.4120 C   0  0  1  0  0  3  0  0  0  0  0  0
  191.7010  174.7430  136.2560 O   0  0  0  0  0  0  0  0  0  0  0  0
  194.8950  174.9090  137.8680 N   0  0  0  0  0  2  0  0  0  0  0  0
  194.1350  175.9170  137.2000 C   0  0  0  0  0  0  0  0  0  0  0  0
  194.6210  176.5140  136.2000 O   0  0  0  0  0  0  0  0  0  0  0  0
  197.0760  174.2220  138.6620 C   0  0  0  0  0  2  0  0  0  0  0  0
  196.5000  173.1010  137.8240 C   0  0  0  0  0  2  0  0  0  0  0  0
  196.2350  174.5420  137.4420 C   0  0  0  0  0  3  0  0  0  0  0  0
  189.8160  178.3030  139.7040 O   0  0  0  0  0  0  0  0  0  0  0  0
  190.4850  176.0970  139.3510 N   0  0  0  0  0  2  0  0  0  0  0  0
  190.1970  177.2090  140.2040 C   0  0  0  0  0  0  0  0  0  0  0  0
  190.3310  177.0640  141.6660 C   0  0  0  0  0  0  0  0  0  0  0  0
  191.5240  177.2870  142.2370 C   0  0  0  0  0  3  0  0  0  0  0  0
  188.7650  177.3630  143.6200 C   0  0  0  0  0  2  0  0  0  0  0  0
  189.1700  176.5020  142.4370 C   0  0  0  0  0  2  0  0  0  0  0  0
  189.7260  177.1290  144.7700 C   0  0  2  0  0  3  0  0  0  0  0  0
  189.0660  177.5660  146.0610 C   0  0  0  0  0  1  0  0  0  0  0  0
  190.9350  177.9110  144.5660 N   0  0  0  0  0  2  0  0  0  0  0  0
  191.7570  177.2350  143.6490 N   0  0  0  0  0  2  0  0  0  0  0  0
  186.7700  175.5580  137.0780 O   0  0  0  0  0  1  0  0  0  0  0  0
  187.8890  176.2440  137.5610 C   0  0  2  0  0  3  0  0  0  0  0  0
  188.0010  177.5980  136.8610 C   0  0  0  0  0  2  0  0  0  0  0  0
  186.7640  178.4570  137.0870 C   0  0  0  0  0  2  0  0  0  0  0  0
  186.5490  178.6460  138.5100 N   0  0  0  0  0  2  0  0  0  0  0  0
  184.8930  178.7140  142.4110 C   0  0  0  0  0  0  0  0  0  0  0  0
  183.4190  178.7110  142.6850 C   0  0  0  0  0  2  0  0  0  0  0  0
  185.1620  178.6460  138.7180 N   0  0  0  0  0  2  0  0  0  0  0  0
  182.6000  178.6870  141.4250 C   0  0  0  0  0  3  0  0  0  0  0  0
  183.1390  178.6660  140.1970 C   0  0  0  0  0  0  0  0  0  0  0  0
  184.6070  178.6680  140.0330 C   0  0  0  0  0  0  0  0  0  0  0  0
  185.3920  178.6900  141.0690 N   0  0  0  0  0  0  0  0  0  0  0  0
  185.7020  178.7360  143.3740 O   0  0  0  0  0  0  0  0  0  0  0  0
  180.9290  178.8740  139.0860 C   0  0  0  0  0  1  0  0  0  0  0  0
  182.3320  178.6440  139.0530 O   0  0  0  0  0  0  0  0  0  0  0  0
  1  6  1  0  0  0  0
  3  1  1  0  0  0  0
  3  7  1  0  0  0  0
  4 15  1  1  0  0  0
  5  2  2  0  0  0  0
  5  4  1  0  0  0  0
  6 26  1  6  0  0  0
  6  4  1  0  0  0  0
  7  5  1  0  0  0  0
  9  2  1  0  0  0  0
  9  8  1  0  0  0  0
 10  9  2  0  0  0  0
 12 11  1  0  0  0  0
 13 12  1  0  0  0  0
 13  8  1  0  0  0  0
 13 11  1  0  0  0  0
 14 16  2  0  0  0  0
 15 16  1  0  0  0  0
 16 17  1  0  0  0  0
 17 18  2  0  0  0  0
 17 20  1  0  0  0  0
 18 24  1  0  0  0  0
 19 21  1  0  0  0  0
 20 19  1  0  0  0  0
 21 22  1  1  0  0  0
 23 21  1  0  0  0  0
 24 23  1  0  0  0  0
 26 25  1  6  0  0  0
 27 28  1  0  0  0  0
 27 26  1  0  0  0  0
 28 29  1  0  0  0  0
 29 32  1  0  0  0  0
 30 31  1  0  0  0  0
 30 37  2  0  0  0  0
 32 35  1  0  0  0  0
 33 31  1  0  0  0  0
 34 33  2  0  0  0  0
 35 34  1  0  0  0  0
 35 36  2  0  0  0  0
 36 30  1  0  0  0  0
 39 38  1  0  0  0  0
 39 34  1  0  0  0  0
M  END
>  <MODEL>
2

>  <REMARK>
 VINA RESULT:      -7.6      1.397      1.570
  Name = 
  10 active torsions:
  status: ('A' for Active; 'I' for Inactive)
    1  A    between atoms: N_1  and  C_26
    2  A    between atoms: C_3  and  C_21
    3  A    between atoms: C_6  and  C_22
    4  A    between atoms: C_6  and  C_33
    5  A    between atoms: N_9  and  C_19
    6  A    between atoms: N_12  and  N_36
    7  A    between atoms: C_14  and  N_16
    8  A    between atoms: C_22  and  N_36
    9  A    between atoms: C_24  and  C_33
   10  A    between atoms: C_25  and  O_37
                            x       y       z     vdW  Elec       q    Type
                         _______ _______ _______ _____ _____    ______ ____

>  <TORSDO>
F 10

$$$$
=
 OpenBabel11032420273D

 39 42  0  0  1  0  0  0  0  0999 V2000
  181.8770  179.2380  142.2750 C   0  0  0  0  0  2  0  0  0  0  0  0
  182.1800  180.1700  138.2860 N   0  0  0  0  0  0  0  0  0  0  0  0
  180.6010  179.2640  141.4550 C   0  0  0  0  0  2  0  0  0  0  0  0
  183.2260  179.0070  140.1390 C   0  0  1  0  0  3  0  0  0  0  0  0
  182.0440  179.6960  139.4890 C   0  0  0  0  0  0  0  0  0  0  0  0
  182.9110  178.4040  141.5220 C   0  0  1  0  0  3  0  0  0  0  0  0
  180.8460  179.8780  140.1960 O   0  0  0  0  0  0  0  0  0  0  0  0
  181.2310  182.2950  137.4710 N   0  0  0  0  0  2  0  0  0  0  0  0
  181.1800  180.8690  137.5310 C   0  0  0  0  0  0  0  0  0  0  0  0
  180.2670  180.2440  136.9260 O   0  0  0  0  0  0  0  0  0  0  0  0
  180.8400  184.4250  136.3910 C   0  0  0  0  0  2  0  0  0  0  0  0
  180.7720  183.3390  135.3390 C   0  0  0  0  0  2  0  0  0  0  0  0
  180.2490  183.0730  136.7340 C   0  0  0  0  0  3  0  0  0  0  0  0
  185.5720  179.1900  138.5290 O   0  0  0  0  0  0  0  0  0  0  0  0
  183.7330  177.9580  139.2630 N   0  0  0  0  0  2  0  0  0  0  0  0
  184.9060  178.1200  138.4610 C   0  0  0  0  0  0  0  0  0  0  0  0
  185.3400  177.0280  137.5690 C   0  0  0  0  0  0  0  0  0  0  0  0
  186.6010  177.0190  137.1140 C   0  0  0  0  0  3  0  0  0  0  0  0
  184.6780  174.6110  137.2890 C   0  0  0  0  0  2  0  0  0  0  0  0
  184.3020  176.0650  137.0650 C   0  0  0  0  0  2  0  0  0  0  0  0
  185.6840  174.1790  136.2390 C   0  0  2  0  0  3  0  0  0  0  0  0
  185.6740  172.6680  136.1380 C   0  0  0  0  0  1  0  0  0  0  0  0
  187.0140  174.6210  136.6230 N   0  0  0  0  0  2  0  0  0  0  0  0
  187.1490  175.9810  136.2940 N   0  0  0  0  0  2  0  0  0  0  0  0
  183.8960  178.3590  143.7380 O   0  0  0  0  0  1  0  0  0  0  0  0
  184.1830  178.2610  142.3730 C   0  0  2  0  0  3  0  0  0  0  0  0
  185.2490  179.2910  141.9980 C   0  0  0  0  0  2  0  0  0  0  0  0
  186.6470  178.6850  141.9980 C   0  0  0  0  0  2  0  0  0  0  0  0
  186.6280  177.4030  142.6800 N   0  0  0  0  0  2  0  0  0  0  0  0
  186.3320  178.2510  146.8210 C   0  0  0  0  0  0  0  0  0  0  0  0
  187.5050  178.2300  147.7560 C   0  0  0  0  0  2  0  0  0  0  0  0
  187.7520  177.3680  143.5170 N   0  0  0  0  0  2  0  0  0  0  0  0
  188.7880  177.8710  147.0620 C   0  0  0  0  0  3  0  0  0  0  0  0
  188.8650  177.6050  145.7490 C   0  0  0  0  0  0  0  0  0  0  0  0
  187.6500  177.6550  144.9120 C   0  0  0  0  0  0  0  0  0  0  0  0
  186.4960  177.9550  145.4300 N   0  0  0  0  0  0  0  0  0  0  0  0
  185.1900  178.5340  147.2660 O   0  0  0  0  0  0  0  0  0  0  0  0
  191.2360  176.8830  145.8890 C   0  0  0  0  0  1  0  0  0  0  0  0
  190.0870  177.2740  145.1490 O   0  0  0  0  0  0  0  0  0  0  0  0
  2  5  2  0  0  0  0
  3  1  1  0  0  0  0
  4 15  1  6  0  0  0
  4  6  1  0  0  0  0
  5  4  1  0  0  0  0
  5  7  1  0  0  0  0
  6  1  1  0  0  0  0
  6 26  1  1  0  0  0
  7  3  1  0  0  0  0
  8  9  1  0  0  0  0
  9  2  1  0  0  0  0
 10  9  2  0  0  0  0
 11 13  1  0  0  0  0
 12 11  1  0  0  0  0
 12 13  1  0  0  0  0
 13  8  1  0  0  0  0
 16 14  2  0  0  0  0
 16 15  1  0  0  0  0
 17 16  1  0  0  0  0
 18 17  2  0  0  0  0
 20 19  1  0  0  0  0
 20 17  1  0  0  0  0
 21 22  1  1  0  0  0
 21 23  1  0  0  0  0
 21 19  1  0  0  0  0
 24 23  1  0  0  0  0
 24 18  1  0  0  0  0
 26 25  1  1  0  0  0
 27 26  1  0  0  0  0
 28 27  1  0  0  0  0
 28 29  1  0  0  0  0
 29 32  1  0  0  0  0
 30 37  2  0  0  0  0
 30 31  1  0  0  0  0
 32 35  1  0  0  0  0
 33 31  1  0  0  0  0
 34 33  2  0  0  0  0
 35 36  2  0  0  0  0
 35 34  1  0  0  0  0
 36 30  1  0  0  0  0
 39 34  1  0  0  0  0
 39 38  1  0  0  0  0
M  END
>  <MODEL>
3

>  <REMARK>
 VINA RESULT:      -7.6      4.247      9.493
  Name = 
  10 active torsions:
  status: ('A' for Active; 'I' for Inactive)
    1  A    between atoms: N_1  and  C_26
    2  A    between atoms: C_3  and  C_21
    3  A    between atoms: C_6  and  C_22
    4  A    between atoms: C_6  and  C_33
    5  A    between atoms: N_9  and  C_19
    6  A    between atoms: N_12  and  N_36
    7  A    between atoms: C_14  and  N_16
    8  A    between atoms: C_22  and  N_36
    9  A    between atoms: C_24  and  C_33
   10  A    between atoms: C_25  and  O_37
                            x       y       z     vdW  Elec       q    Type
                         _______ _______ _______ _____ _____    ______ ____

>  <TORSDO>
F 10

$$$$
=
 OpenBabel11032420273D

 39 42  0  0  1  0  0  0  0  0999 V2000
  184.6840  178.8940  146.1760 C   0  0  0  0  0  2  0  0  0  0  0  0
  188.3780  177.1270  145.8570 N   0  0  0  0  0  0  0  0  0  0  0  0
  185.8170  179.4690  147.0040 C   0  0  0  0  0  2  0  0  0  0  0  0
  186.3810  177.7870  144.6510 C   0  0  1  0  0  3  0  0  0  0  0  0
  187.2870  177.8350  145.8630 C   0  0  0  0  0  0  0  0  0  0  0  0
  185.1730  178.7410  144.7380 C   0  0  1  0  0  3  0  0  0  0  0  0
  186.9240  178.5760  146.9970 O   0  0  0  0  0  0  0  0  0  0  0  0
  190.6760  176.6520  146.6130 N   0  0  0  0  0  2  0  0  0  0  0  0
  189.3350  177.0350  146.9220 C   0  0  0  0  0  0  0  0  0  0  0  0
  189.0090  177.2850  148.1150 O   0  0  0  0  0  0  0  0  0  0  0  0
  191.7750  175.0840  148.0940 C   0  0  0  0  0  2  0  0  0  0  0  0
  192.8050  175.6280  147.1270 C   0  0  0  0  0  2  0  0  0  0  0  0
  191.7000  176.5270  147.6370 C   0  0  0  0  0  3  0  0  0  0  0  0
  187.9300  175.9130  143.1600 O   0  0  0  0  0  0  0  0  0  0  0  0
  187.1450  178.0910  143.4470 N   0  0  0  0  0  2  0  0  0  0  0  0
  187.9230  177.1090  142.7560 C   0  0  0  0  0  0  0  0  0  0  0  0
  188.7020  177.4970  141.5640 C   0  0  0  0  0  0  0  0  0  0  0  0
  189.9430  177.0160  141.4100 C   0  0  0  0  0  3  0  0  0  0  0  0
  188.1040  178.1390  139.1990 C   0  0  0  0  0  2  0  0  0  0  0  0
  188.1380  178.5560  140.6580 C   0  0  0  0  0  2  0  0  0  0  0  0
  189.4920  178.2730  138.6010 C   0  0  2  0  0  3  0  0  0  0  0  0
  189.3740  178.3530  137.0940 C   0  0  0  0  0  1  0  0  0  0  0  0
  190.2930  177.1120  138.9550 N   0  0  0  0  0  2  0  0  0  0  0  0
  190.7660  177.2760  140.2680 N   0  0  0  0  0  2  0  0  0  0  0  0
  184.4800  177.8790  142.5810 O   0  0  0  0  0  1  0  0  0  0  0  0
  184.0190  178.2650  143.8430 C   0  0  2  0  0  3  0  0  0  0  0  0
  182.9290  179.3260  143.6890 C   0  0  0  0  0  2  0  0  0  0  0  0
  181.5500  178.7010  143.5170 C   0  0  0  0  0  2  0  0  0  0  0  0
  180.9230  179.2150  142.3120 N   0  0  0  0  0  2  0  0  0  0  0  0
  183.7390  179.1710  139.1450 C   0  0  0  0  0  0  0  0  0  0  0  0
  183.8020  178.0890  138.1080 C   0  0  0  0  0  2  0  0  0  0  0  0
  180.9470  178.1800  141.3660 N   0  0  0  0  0  2  0  0  0  0  0  0
  182.7620  177.0260  138.3220 C   0  0  0  0  0  3  0  0  0  0  0  0
  181.8770  177.0540  139.3300 C   0  0  0  0  0  0  0  0  0  0  0  0
  181.8960  178.1680  140.3000 C   0  0  0  0  0  0  0  0  0  0  0  0
  182.7630  179.1300  140.1920 N   0  0  0  0  0  0  0  0  0  0  0  0
  184.5550  180.1270  139.0930 O   0  0  0  0  0  0  0  0  0  0  0  0
  180.8170  174.9320  138.6000 C   0  0  0  0  0  1  0  0  0  0  0  0
  180.9260  176.0380  139.4860 O   0  0  0  0  0  0  0  0  0  0  0  0
  1  3  1  0  0  0  0
  2  5  2  0  0  0  0
  2  9  1  0  0  0  0
  4 15  1  6  0  0  0
  4  6  1  0  0  0  0
  4  5  1  0  0  0  0
  5  7  1  0  0  0  0
  6 26  1  6  0  0  0
  6  1  1  0  0  0  0
  7  3  1  0  0  0  0
  8  9  1  0  0  0  0
  8 13  1  0  0  0  0
  9 10  2  0  0  0  0
 12 13  1  0  0  0  0
 12 11  1  0  0  0  0
 13 11  1  0  0  0  0
 16 14  2  0  0  0  0
 16 15  1  0  0  0  0
 17 16  1  0  0  0  0
 18 17  2  0  0  0  0
 19 20  1  0  0  0  0
 20 17  1  0  0  0  0
 21 22  1  6  0  0  0
 21 23  1  0  0  0  0
 21 19  1  0  0  0  0
 23 24  1  0  0  0  0
 24 18  1  0  0  0  0
 26 25  1  6  0  0  0
 27 26  1  0  0  0  0
 28 27  1  0  0  0  0
 29 28  1  0  0  0  0
 30 36  1  0  0  0  0
 31 33  1  0  0  0  0
 31 30  1  0  0  0  0
 32 29  1  0  0  0  0
 33 34  2  0  0  0  0
 34 39  1  0  0  0  0
 34 35  1  0  0  0  0
 35 32  1  0  0  0  0
 36 35  2  0  0  0  0
 37 30  2  0  0  0  0
 38 39  1  0  0  0  0
M  END
>  <MODEL>
4

>  <REMARK>
 VINA RESULT:      -7.5      3.598      7.335
  Name = 
  10 active torsions:
  status: ('A' for Active; 'I' for Inactive)
    1  A    between atoms: N_1  and  C_26
    2  A    between atoms: C_3  and  C_21
    3  A    between atoms: C_6  and  C_22
    4  A    between atoms: C_6  and  C_33
    5  A    between atoms: N_9  and  C_19
    6  A    between atoms: N_12  and  N_36
    7  A    between atoms: C_14  and  N_16
    8  A    between atoms: C_22  and  N_36
    9  A    between atoms: C_24  and  C_33
   10  A    between atoms: C_25  and  O_37
                            x       y       z     vdW  Elec       q    Type
                         _______ _______ _______ _____ _____    ______ ____

>  <TORSDO>
F 10

$$$$
=
 OpenBabel11032420273D

 39 42  0  0  1  0  0  0  0  0999 V2000
  189.7980  178.1610  137.9790 C   0  0  0  0  0  2  0  0  0  0  0  0
  186.0460  178.1790  139.6510 N   0  0  0  0  0  0  0  0  0  0  0  0
  188.8660  179.3000  137.6130 C   0  0  0  0  0  2  0  0  0  0  0  0
  188.3900  177.6900  140.0360 C   0  0  1  0  0  3  0  0  0  0  0  0
  187.2710  178.3240  139.2370 C   0  0  0  0  0  0  0  0  0  0  0  0
  189.7980  178.0140  139.4990 C   0  0  1  0  0  3  0  0  0  0  0  0
  187.5420  178.9980  138.0370 O   0  0  0  0  0  0  0  0  0  0  0  0
  184.0400  177.7880  138.2730 N   0  0  0  0  0  2  0  0  0  0  0  0
  184.8680  178.6880  139.0110 C   0  0  0  0  0  0  0  0  0  0  0  0
  184.5580  179.9080  139.0910 O   0  0  0  0  0  0  0  0  0  0  0  0
  181.8170  177.1080  137.5970 C   0  0  0  0  0  2  0  0  0  0  0  0
  181.6870  178.2560  138.5740 C   0  0  0  0  0  2  0  0  0  0  0  0
  182.8360  178.2290  137.5890 C   0  0  0  0  0  3  0  0  0  0  0  0
  188.6820  175.9710  142.2920 O   0  0  0  0  0  0  0  0  0  0  0  0
  188.3010  178.1050  141.4310 N   0  0  0  0  0  2  0  0  0  0  0  0
  188.4340  177.1880  142.5200 C   0  0  0  0  0  0  0  0  0  0  0  0
  188.2970  177.6730  143.9070 C   0  0  0  0  0  0  0  0  0  0  0  0
  187.0700  177.8470  144.4190 C   0  0  0  0  0  3  0  0  0  0  0  0
  189.6990  177.4710  145.9930 C   0  0  0  0  0  2  0  0  0  0  0  0
  189.5360  178.1210  144.6310 C   0  0  0  0  0  2  0  0  0  0  0  0
  188.7870  178.1540  146.9950 C   0  0  2  0  0  3  0  0  0  0  0  0
  189.2930  177.8760  148.3940 C   0  0  0  0  0  1  0  0  0  0  0  0
  187.4370  177.6320  146.8650 N   0  0  0  0  0  2  0  0  0  0  0  0
  186.8170  178.2550  145.7680 N   0  0  0  0  0  2  0  0  0  0  0  0
  191.7300  177.4460  140.8490 O   0  0  0  0  0  1  0  0  0  0  0  0
  190.8160  176.9420  139.9180 C   0  0  2  0  0  3  0  0  0  0  0  0
  191.5700  176.3600  138.7230 C   0  0  0  0  0  2  0  0  0  0  0  0
  193.0450  176.7420  138.7420 C   0  0  0  0  0  2  0  0  0  0  0  0
  193.6240  176.5360  137.4260 N   0  0  0  0  0  2  0  0  0  0  0  0
  197.3600  174.5420  137.5870 C   0  0  0  0  0  0  0  0  0  0  0  0
  197.5190  173.0640  137.3870 C   0  0  0  0  0  2  0  0  0  0  0  0
  193.7240  175.1500  137.2350 N   0  0  0  0  0  2  0  0  0  0  0  0
  196.2090  172.3740  137.1290 C   0  0  0  0  0  3  0  0  0  0  0  0
  195.0340  173.0200  137.0810 C   0  0  0  0  0  0  0  0  0  0  0  0
  194.9840  174.4810  137.2900 C   0  0  0  0  0  0  0  0  0  0  0  0
  196.0690  175.1580  137.5210 N   0  0  0  0  0  0  0  0  0  0  0  0
  198.3750  175.2490  137.8160 O   0  0  0  0  0  0  0  0  0  0  0  0
  193.4390  171.9020  135.5430 C   0  0  0  0  0  1  0  0  0  0  0  0
  193.8390  172.3310  136.8380 O   0  0  0  0  0  0  0  0  0  0  0  0
  1  6  1  0  0  0  0
  3  1  1  0  0  0  0
  3  7  1  0  0  0  0
  4 15  1  1  0  0  0
  5  2  2  0  0  0  0
  5  4  1  0  0  0  0
  6 26  1  6  0  0  0
  6  4  1  0  0  0  0
  7  5  1  0  0  0  0
  8  9  1  0  0  0  0
  9 10  2  0  0  0  0
  9  2  1  0  0  0  0
 11 12  1  0  0  0  0
 13 11  1  0  0  0  0
 13  8  1  0  0  0  0
 13 12  1  0  0  0  0
 14 16  2  0  0  0  0
 15 16  1  0  0  0  0
 16 17  1  0  0  0  0
 17 18  2  0  0  0  0
 17 20  1  0  0  0  0
 18 24  1  0  0  0  0
 19 21  1  0  0  0  0
 20 19  1  0  0  0  0
 21 22  1  1  0  0  0
 23 21  1  0  0  0  0
 24 23  1  0  0  0  0
 26 25  1  1  0  0  0
 27 28  1  0  0  0  0
 27 26  1  0  0  0  0
 29 28  1  0  0  0  0
 30 37  2  0  0  0  0
 31 30  1  0  0  0  0
 32 35  1  0  0  0  0
 32 29  1  0  0  0  0
 33 31  1  0  0  0  0
 34 33  2  0  0  0  0
 34 35  1  0  0  0  0
 35 36  2  0  0  0  0
 36 30  1  0  0  0  0
 38 39  1  0  0  0  0
 39 34  1  0  0  0  0
M  END
>  <MODEL>
5

>  <REMARK>
 VINA RESULT:      -7.5      2.693      9.569
  Name = 
  10 active torsions:
  status: ('A' for Active; 'I' for Inactive)
    1  A    between atoms: N_1  and  C_26
    2  A    between atoms: C_3  and  C_21
    3  A    between atoms: C_6  and  C_22
    4  A    between atoms: C_6  and  C_33
    5  A    between atoms: N_9  and  C_19
    6  A    between atoms: N_12  and  N_36
    7  A    between atoms: C_14  and  N_16
    8  A    between atoms: C_22  and  N_36
    9  A    between atoms: C_24  and  C_33
   10  A    between atoms: C_25  and  O_37
                            x       y       z     vdW  Elec       q    Type
                         _______ _______ _______ _____ _____    ______ ____

>  <TORSDO>
F 10

$$$$
=
 OpenBabel11032420273D

 39 42  0  0  1  0  0  0  0  0999 V2000
  181.0480  179.5480  141.8520 C   0  0  0  0  0  2  0  0  0  0  0  0
  181.6360  180.6960  137.9530 N   0  0  0  0  0  0  0  0  0  0  0  0
  179.8470  179.5480  140.9260 C   0  0  0  0  0  2  0  0  0  0  0  0
  182.5850  179.4980  139.8350 C   0  0  1  0  0  3  0  0  0  0  0  0
  181.4250  180.1550  139.1160 C   0  0  0  0  0  0  0  0  0  0  0  0
  182.1880  178.8090  141.1560 C   0  0  1  0  0  3  0  0  0  0  0  0
  180.1630  180.2370  139.7220 O   0  0  0  0  0  0  0  0  0  0  0  0
  180.6330  182.8050  137.1640 N   0  0  0  0  0  2  0  0  0  0  0  0
  180.6660  181.3780  137.1460 C   0  0  0  0  0  0  0  0  0  0  0  0
  179.8500  180.7370  136.4270 O   0  0  0  0  0  0  0  0  0  0  0  0
  180.0460  185.0350  136.4260 C   0  0  0  0  0  2  0  0  0  0  0  0
  180.3860  184.2050  135.2070 C   0  0  0  0  0  2  0  0  0  0  0  0
  179.6740  183.5670  136.3810 C   0  0  0  0  0  3  0  0  0  0  0  0
  185.3790  179.3530  139.2840 O   0  0  0  0  0  0  0  0  0  0  0  0
  183.2230  178.5220  138.9600 N   0  0  0  0  0  2  0  0  0  0  0  0
  184.6310  178.5160  138.7050 C   0  0  0  0  0  0  0  0  0  0  0  0
  185.2040  177.5210  137.7780 C   0  0  0  0  0  0  0  0  0  0  0  0
  186.5000  177.6070  137.4490 C   0  0  0  0  0  3  0  0  0  0  0  0
  184.6990  175.1080  137.2490 C   0  0  0  0  0  2  0  0  0  0  0  0
  184.2700  176.5570  137.1020 C   0  0  0  0  0  2  0  0  0  0  0  0
  185.8210  174.8090  136.2720 C   0  0  2  0  0  3  0  0  0  0  0  0
  185.9000  173.3130  136.0550 C   0  0  0  0  0  1  0  0  0  0  0  0
  187.0840  175.2790  136.8170 N   0  0  0  0  0  2  0  0  0  0  0  0
  187.1760  176.6650  136.6080 N   0  0  0  0  0  2  0  0  0  0  0  0
  184.0960  177.5040  141.8890 O   0  0  0  0  0  1  0  0  0  0  0  0
  183.3890  178.6910  142.1070 C   0  0  2  0  0  3  0  0  0  0  0  0
  182.9770  178.7790  143.5770 C   0  0  0  0  0  2  0  0  0  0  0  0
  183.9720  179.5890  144.3980 C   0  0  0  0  0  2  0  0  0  0  0  0
  184.6210  178.7290  145.3720 N   0  0  0  0  0  2  0  0  0  0  0  0
  188.0040  177.8190  147.7550 C   0  0  0  0  0  0  0  0  0  0  0  0
  189.3150  177.3580  147.1900 C   0  0  0  0  0  2  0  0  0  0  0  0
  185.8260  178.2980  144.7990 N   0  0  0  0  0  2  0  0  0  0  0  0
  189.2900  177.2510  145.6920 C   0  0  0  0  0  3  0  0  0  0  0  0
  188.2100  177.5430  144.9510 C   0  0  0  0  0  0  0  0  0  0  0  0
  186.9650  177.9930  145.6050 C   0  0  0  0  0  0  0  0  0  0  0  0
  186.8960  178.1110  146.8970 N   0  0  0  0  0  0  0  0  0  0  0  0
  187.8780  177.9500  149.0000 O   0  0  0  0  0  0  0  0  0  0  0  0
  188.7820  176.3010  142.8790 C   0  0  0  0  0  1  0  0  0  0  0  0
  188.2370  177.4270  143.5560 O   0  0  0  0  0  0  0  0  0  0  0  0
  2  5  2  0  0  0  0
  3  1  1  0  0  0  0
  4 15  1  6  0  0  0
  4  6  1  0  0  0  0
  5  7  1  0  0  0  0
  5  4  1  0  0  0  0
  6  1  1  0  0  0  0
  6 26  1  1  0  0  0
  7  3  1  0  0  0  0
  9  8  1  0  0  0  0
  9  2  1  0  0  0  0
 10  9  2  0  0  0  0
 12 13  1  0  0  0  0
 12 11  1  0  0  0  0
 13 11  1  0  0  0  0
 13  8  1  0  0  0  0
 16 15  1  0  0  0  0
 16 14  2  0  0  0  0
 17 16  1  0  0  0  0
 18 17  2  0  0  0  0
 20 19  1  0  0  0  0
 20 17  1  0  0  0  0
 21 22  1  1  0  0  0
 21 23  1  0  0  0  0
 21 19  1  0  0  0  0
 24 23  1  0  0  0  0
 24 18  1  0  0  0  0
 26 25  1  1  0  0  0
 26 27  1  0  0  0  0
 27 28  1  0  0  0  0
 28 29  1  0  0  0  0
 30 37  2  0  0  0  0
 31 30  1  0  0  0  0
 32 29  1  0  0  0  0
 32 35  1  0  0  0  0
 33 31  1  0  0  0  0
 34 35  1  0  0  0  0
 34 33  2  0  0  0  0
 35 36  2  0  0  0  0
 36 30  1  0  0  0  0
 38 39  1  0  0  0  0
 39 34  1  0  0  0  0
M  END
>  <MODEL>
6

>  <REMARK>
 VINA RESULT:      -7.5      4.254      9.775
  Name = 
  10 active torsions:
  status: ('A' for Active; 'I' for Inactive)
    1  A    between atoms: N_1  and  C_26
    2  A    between atoms: C_3  and  C_21
    3  A    between atoms: C_6  and  C_22
    4  A    between atoms: C_6  and  C_33
    5  A    between atoms: N_9  and  C_19
    6  A    between atoms: N_12  and  N_36
    7  A    between atoms: C_14  and  N_16
    8  A    between atoms: C_22  and  N_36
    9  A    between atoms: C_24  and  C_33
   10  A    between atoms: C_25  and  O_37
                            x       y       z     vdW  Elec       q    Type
                         _______ _______ _______ _____ _____    ______ ____

>  <TORSDO>
F 10

$$$$
=
 OpenBabel11032420273D

 39 42  0  0  1  0  0  0  0  0999 V2000
  188.6650  176.5670  135.2670 C   0  0  0  0  0  2  0  0  0  0  0  0
  192.0010  176.5980  137.6620 N   0  0  0  0  0  0  0  0  0  0  0  0
  189.6520  175.4250  135.1210 C   0  0  0  0  0  2  0  0  0  0  0  0
  189.6290  177.0850  137.5560 C   0  0  1  0  0  3  0  0  0  0  0  0
  190.8860  176.4400  137.0130 C   0  0  0  0  0  0  0  0  0  0  0  0
  188.3580  176.7450  136.7520 C   0  0  1  0  0  3  0  0  0  0  0  0
  190.8620  175.7400  135.7970 O   0  0  0  0  0  0  0  0  0  0  0  0
  193.6250  174.7430  137.6500 N   0  0  0  0  0  2  0  0  0  0  0  0
  193.2850  176.0810  137.2840 C   0  0  0  0  0  0  0  0  0  0  0  0
  194.1070  176.7870  136.6380 O   0  0  0  0  0  0  0  0  0  0  0  0
  195.7710  174.0830  138.5560 C   0  0  0  0  0  2  0  0  0  0  0  0
  195.0640  172.8420  138.0550 C   0  0  0  0  0  2  0  0  0  0  0  0
  194.9090  174.1520  137.3110 C   0  0  0  0  0  3  0  0  0  0  0  0
  189.4550  178.8860  139.7600 O   0  0  0  0  0  0  0  0  0  0  0  0
  189.4330  176.6990  138.9480 N   0  0  0  0  0  2  0  0  0  0  0  0
  189.3770  177.6520  140.0140 C   0  0  0  0  0  0  0  0  0  0  0  0
  189.2140  177.1860  141.4050 C   0  0  0  0  0  0  0  0  0  0  0  0
  190.1380  176.3710  141.9320 C   0  0  0  0  0  3  0  0  0  0  0  0
  188.1380  178.1480  143.4720 C   0  0  0  0  0  2  0  0  0  0  0  0
  187.9270  177.5010  142.1150 C   0  0  0  0  0  2  0  0  0  0  0  0
  188.5150  177.0870  144.4880 C   0  0  2  0  0  3  0  0  0  0  0  0
  188.2340  177.6130  145.8790 C   0  0  0  0  0  1  0  0  0  0  0  0
  189.9310  176.7780  144.3720 N   0  0  0  0  0  2  0  0  0  0  0  0
  190.1140  175.9050  143.2870 N   0  0  0  0  0  2  0  0  0  0  0  0
  187.8410  179.0610  137.2500 O   0  0  0  0  0  1  0  0  0  0  0  0
  187.2760  177.8210  136.9350 C   0  0  2  0  0  3  0  0  0  0  0  0
  186.2510  177.4380  138.0020 C   0  0  0  0  0  2  0  0  0  0  0  0
  186.1560  178.4910  139.1000 C   0  0  0  0  0  2  0  0  0  0  0  0
  184.7680  178.6790  139.4820 N   0  0  0  0  0  2  0  0  0  0  0  0
  181.1080  178.6770  141.6190 C   0  0  0  0  0  0  0  0  0  0  0  0
  181.0220  178.7620  143.1140 C   0  0  0  0  0  2  0  0  0  0  0  0
  184.7360  178.7570  140.8820 N   0  0  0  0  0  2  0  0  0  0  0  0
  182.3740  178.8430  143.7640 C   0  0  0  0  0  3  0  0  0  0  0  0
  183.5240  178.8420  143.0740 C   0  0  0  0  0  0  0  0  0  0  0  0
  183.5020  178.7570  141.6000 C   0  0  0  0  0  0  0  0  0  0  0  0
  182.3760  178.6820  140.9540 N   0  0  0  0  0  0  0  0  0  0  0  0
  180.0510  178.6000  140.9410 O   0  0  0  0  0  0  0  0  0  0  0  0
  184.8890  179.0130  145.1400 C   0  0  0  0  0  1  0  0  0  0  0  0
  184.7600  178.9190  143.7270 O   0  0  0  0  0  0  0  0  0  0  0  0
  1  6  1  0  0  0  0
  3  1  1  0  0  0  0
  3  7  1  0  0  0  0
  4 15  1  1  0  0  0
  5  4  1  0  0  0  0
  5  2  2  0  0  0  0
  6 26  1  6  0  0  0
  6  4  1  0  0  0  0
  7  5  1  0  0  0  0
  9  8  1  0  0  0  0
  9  2  1  0  0  0  0
 10  9  2  0  0  0  0
 12 11  1  0  0  0  0
 13  8  1  0  0  0  0
 13 12  1  0  0  0  0
 13 11  1  0  0  0  0
 14 16  2  0  0  0  0
 15 16  1  0  0  0  0
 16 17  1  0  0  0  0
 17 18  2  0  0  0  0
 17 20  1  0  0  0  0
 18 24  1  0  0  0  0
 19 21  1  0  0  0  0
 20 19  1  0  0  0  0
 21 22  1  1  0  0  0
 23 21  1  0  0  0  0
 24 23  1  0  0  0  0
 26 25  1  1  0  0  0
 26 27  1  0  0  0  0
 27 28  1  0  0  0  0
 28 29  1  0  0  0  0
 29 32  1  0  0  0  0
 30 31  1  0  0  0  0
 31 33  1  0  0  0  0
 32 35  1  0  0  0  0
 34 39  1  0  0  0  0
 34 33  2  0  0  0  0
 35 34  1  0  0  0  0
 36 35  2  0  0  0  0
 36 30  1  0  0  0  0
 37 30  2  0  0  0  0
 39 38  1  0  0  0  0
M  END
>  <MODEL>
7

>  <REMARK>
 VINA RESULT:      -7.4      0.652      1.879
  Name = 
  10 active torsions:
  status: ('A' for Active; 'I' for Inactive)
    1  A    between atoms: N_1  and  C_26
    2  A    between atoms: C_3  and  C_21
    3  A    between atoms: C_6  and  C_22
    4  A    between atoms: C_6  and  C_33
    5  A    between atoms: N_9  and  C_19
    6  A    between atoms: N_12  and  N_36
    7  A    between atoms: C_14  and  N_16
    8  A    between atoms: C_22  and  N_36
    9  A    between atoms: C_24  and  C_33
   10  A    between atoms: C_25  and  O_37
                            x       y       z     vdW  Elec       q    Type
                         _______ _______ _______ _____ _____    ______ ____

>  <TORSDO>
F 10

$$$$
=
 OpenBabel11032420273D

 39 42  0  0  1  0  0  0  0  0999 V2000
  188.6730  176.1710  135.9550 C   0  0  0  0  0  2  0  0  0  0  0  0
  192.3770  177.0560  137.4950 N   0  0  0  0  0  0  0  0  0  0  0  0
  189.6420  175.0240  136.1700 C   0  0  0  0  0  2  0  0  0  0  0  0
  190.0130  177.5870  137.5780 C   0  0  1  0  0  3  0  0  0  0  0  0
  191.1680  176.6940  137.1790 C   0  0  0  0  0  0  0  0  0  0  0  0
  188.6280  177.0040  137.2340 C   0  0  1  0  0  3  0  0  0  0  0  0
  190.9460  175.5330  136.4250 O   0  0  0  0  0  0  0  0  0  0  0  0
  193.9740  175.2480  138.0000 N   0  0  0  0  0  2  0  0  0  0  0  0
  193.5840  176.3490  137.1790 C   0  0  0  0  0  0  0  0  0  0  0  0
  194.2980  176.6860  136.1940 O   0  0  0  0  0  0  0  0  0  0  0  0
  195.8510  174.1570  139.0710 C   0  0  0  0  0  2  0  0  0  0  0  0
  195.0410  173.1050  138.3450 C   0  0  0  0  0  2  0  0  0  0  0  0
  195.1880  174.4890  137.7490 C   0  0  0  0  0  3  0  0  0  0  0  0
  190.3150  175.6340  139.6340 O   0  0  0  0  0  0  0  0  0  0  0  0
  190.0720  177.8680  139.0080 N   0  0  0  0  0  2  0  0  0  0  0  0
  190.2020  176.8390  139.9930 C   0  0  0  0  0  0  0  0  0  0  0  0
  190.2190  177.1940  141.4250 C   0  0  0  0  0  0  0  0  0  0  0  0
  189.0660  177.5090  142.0330 C   0  0  0  0  0  3  0  0  0  0  0  0
  191.6730  176.5540  143.3840 C   0  0  0  0  0  2  0  0  0  0  0  0
  191.5510  177.3590  142.1030 C   0  0  0  0  0  2  0  0  0  0  0  0
  190.9400  177.2680  144.5040 C   0  0  2  0  0  3  0  0  0  0  0  0
  191.4640  176.7690  145.8340 C   0  0  0  0  0  1  0  0  0  0  0  0
  189.5170  176.9860  144.4170 N   0  0  0  0  0  2  0  0  0  0  0  0
  188.9540  177.8110  143.4280 N   0  0  0  0  0  2  0  0  0  0  0  0
  188.1270  179.3740  137.3340 O   0  0  0  0  0  1  0  0  0  0  0  0
  187.5730  178.1130  137.0950 C   0  0  2  0  0  3  0  0  0  0  0  0
  186.3770  177.8950  138.0220 C   0  0  0  0  0  2  0  0  0  0  0  0
  186.7060  178.2510  139.4660 C   0  0  0  0  0  2  0  0  0  0  0  0
  185.6570  179.0900  140.0170 N   0  0  0  0  0  2  0  0  0  0  0  0
  182.1000  178.9640  142.3170 C   0  0  0  0  0  0  0  0  0  0  0  0
  182.0830  178.7920  143.8070 C   0  0  0  0  0  2  0  0  0  0  0  0
  185.6900  178.9240  141.4090 N   0  0  0  0  0  2  0  0  0  0  0  0
  183.4630  178.6640  144.3870 C   0  0  0  0  0  3  0  0  0  0  0  0
  184.5800  178.7060  143.6450 C   0  0  0  0  0  0  0  0  0  0  0  0
  184.4900  178.8830  142.1820 C   0  0  0  0  0  0  0  0  0  0  0  0
  183.3360  178.9990  141.5950 N   0  0  0  0  0  0  0  0  0  0  0  0
  181.0130  179.0810  141.6940 O   0  0  0  0  0  0  0  0  0  0  0  0
  186.0530  178.6080  145.6410 C   0  0  0  0  0  1  0  0  0  0  0  0
  185.8440  178.5820  144.2350 O   0  0  0  0  0  0  0  0  0  0  0  0
  1  3  1  0  0  0  0
  1  6  1  0  0  0  0
  3  7  1  0  0  0  0
  4 15  1  1  0  0  0
  5  2  2  0  0  0  0
  5  4  1  0  0  0  0
  6 26  1  6  0  0  0
  6  4  1  0  0  0  0
  7  5  1  0  0  0  0
  9  2  1  0  0  0  0
  9  8  1  0  0  0  0
 10  9  2  0  0  0  0
 12 11  1  0  0  0  0
 13  8  1  0  0  0  0
 13 12  1  0  0  0  0
 13 11  1  0  0  0  0
 14 16  2  0  0  0  0
 15 16  1  0  0  0  0
 16 17  1  0  0  0  0
 17 18  2  0  0  0  0
 17 20  1  0  0  0  0
 18 24  1  0  0  0  0
 19 21  1  0  0  0  0
 20 19  1  0  0  0  0
 21 22  1  1  0  0  0
 23 21  1  0  0  0  0
 24 23  1  0  0  0  0
 26 25  1  1  0  0  0
 26 27  1  0  0  0  0
 27 28  1  0  0  0  0
 28 29  1  0  0  0  0
 29 32  1  0  0  0  0
 30 31  1  0  0  0  0
 31 33  1  0  0  0  0
 32 35  1  0  0  0  0
 34 39  1  0  0  0  0
 34 33  2  0  0  0  0
 35 34  1  0  0  0  0
 36 35  2  0  0  0  0
 36 30  1  0  0  0  0
 37 30  2  0  0  0  0
 39 38  1  0  0  0  0
M  END
>  <MODEL>
8

>  <REMARK>
 VINA RESULT:      -7.3      1.292      2.386
  Name = 
  10 active torsions:
  status: ('A' for Active; 'I' for Inactive)
    1  A    between atoms: N_1  and  C_26
    2  A    between atoms: C_3  and  C_21
    3  A    between atoms: C_6  and  C_22
    4  A    between atoms: C_6  and  C_33
    5  A    between atoms: N_9  and  C_19
    6  A    between atoms: N_12  and  N_36
    7  A    between atoms: C_14  and  N_16
    8  A    between atoms: C_22  and  N_36
    9  A    between atoms: C_24  and  C_33
   10  A    between atoms: C_25  and  O_37
                            x       y       z     vdW  Elec       q    Type
                         _______ _______ _______ _____ _____    ______ ____

>  <TORSDO>
F 10

$$$$
=
 OpenBabel11032420273D

 39 42  0  0  1  0  0  0  0  0999 V2000
  189.9490  177.0870  141.2840 C   0  0  0  0  0  2  0  0  0  0  0  0
  188.0810  177.8780  144.8550 N   0  0  0  0  0  0  0  0  0  0  0  0
  190.0770  176.0600  142.3920 C   0  0  0  0  0  2  0  0  0  0  0  0
  187.9140  178.0610  142.4440 C   0  0  1  0  0  3  0  0  0  0  0  0
  188.5370  177.4920  143.7000 C   0  0  0  0  0  0  0  0  0  0  0  0
  188.4740  177.4550  141.1410 C   0  0  1  0  0  3  0  0  0  0  0  0
  189.6290  176.6160  143.6230 O   0  0  0  0  0  0  0  0  0  0  0  0
  189.8430  176.8340  146.2270 N   0  0  0  0  0  2  0  0  0  0  0  0
  188.5640  177.4630  146.1410 C   0  0  0  0  0  0  0  0  0  0  0  0
  187.8790  177.6450  147.1840 O   0  0  0  0  0  0  0  0  0  0  0  0
  191.7340  175.7120  147.2400 C   0  0  0  0  0  2  0  0  0  0  0  0
  191.6810  177.1280  147.7720 C   0  0  0  0  0  2  0  0  0  0  0  0
  190.3960  176.3770  147.4910 C   0  0  0  0  0  3  0  0  0  0  0  0
  185.9730  180.1210  142.0940 O   0  0  0  0  0  0  0  0  0  0  0  0
  186.4680  177.8740  142.4770 N   0  0  0  0  0  2  0  0  0  0  0  0
  185.5440  178.9540  142.3170 C   0  0  0  0  0  0  0  0  0  0  0  0
  184.0940  178.6960  142.3980 C   0  0  0  0  0  0  0  0  0  0  0  0
  183.4430  178.9850  143.5340 C   0  0  0  0  0  3  0  0  0  0  0  0
  182.2110  178.6650  140.7210 C   0  0  0  0  0  2  0  0  0  0  0  0
  183.4370  177.9560  141.2670 C   0  0  0  0  0  2  0  0  0  0  0  0
  181.0330  178.4280  141.6470 C   0  0  2  0  0  3  0  0  0  0  0  0
  179.7490  178.6810  140.8870 C   0  0  0  0  0  1  0  0  0  0  0  0
  181.1060  179.3400  142.7770 N   0  0  0  0  0  2  0  0  0  0  0  0
  182.0290  178.8330  143.7060 N   0  0  0  0  0  2  0  0  0  0  0  0
  187.0250  178.2620  139.3720 O   0  0  0  0  0  1  0  0  0  0  0  0
  188.2880  178.4120  139.9540 C   0  0  2  0  0  3  0  0  0  0  0  0
  189.3680  178.2290  138.8870 C   0  0  0  0  0  2  0  0  0  0  0  0
  189.0560  179.0190  137.6230 C   0  0  0  0  0  2  0  0  0  0  0  0
  189.0610  178.1320  136.4740 N   0  0  0  0  0  2  0  0  0  0  0  0
  187.1920  174.4150  135.6700 C   0  0  0  0  0  0  0  0  0  0  0  0
  187.7560  173.0940  136.1030 C   0  0  0  0  0  2  0  0  0  0  0  0
  189.6280  176.9210  136.8950 N   0  0  0  0  0  2  0  0  0  0  0  0
  189.0550  173.2380  136.8440 C   0  0  0  0  0  3  0  0  0  0  0  0
  189.6350  174.4220  137.0900 C   0  0  0  0  0  0  0  0  0  0  0  0
  188.9960  175.6690  136.6240 C   0  0  0  0  0  0  0  0  0  0  0  0
  187.8720  175.6380  135.9720 N   0  0  0  0  0  0  0  0  0  0  0  0
  186.1070  174.4470  135.0350 O   0  0  0  0  0  0  0  0  0  0  0  0
  192.0970  174.1320  137.2190 C   0  0  0  0  0  1  0  0  0  0  0  0
  190.8470  174.5030  137.7860 O   0  0  0  0  0  0  0  0  0  0  0  0
  1  3  1  0  0  0  0
  2  9  1  0  0  0  0
  3  7  1  0  0  0  0
  4 15  1  1  0  0  0
  4  5  1  0  0  0  0
  5  2  2  0  0  0  0
  6 26  1  6  0  0  0
  6  1  1  0  0  0  0
  6  4  1  0  0  0  0
  7  5  1  0  0  0  0
  8 13  1  0  0  0  0
  9  8  1  0  0  0  0
  9 10  2  0  0  0  0
 11 13  1  0  0  0  0
 11 12  1  0  0  0  0
 13 12  1  0  0  0  0
 14 16  2  0  0  0  0
 16 17  1  0  0  0  0
 16 15  1  0  0  0  0
 17 18  2  0  0  0  0
 18 24  1  0  0  0  0
 19 20  1  0  0  0  0
 19 21  1  0  0  0  0
 20 17  1  0  0  0  0
 21 22  1  6  0  0  0
 21 23  1  0  0  0  0
 23 24  1  0  0  0  0
 26 25  1  6  0  0  0
 27 26  1  0  0  0  0
 28 27  1  0  0  0  0
 29 32  1  0  0  0  0
 29 28  1  0  0  0  0
 30 36  1  0  0  0  0
 30 31  1  0  0  0  0
 31 33  1  0  0  0  0
 33 34  2  0  0  0  0
 34 39  1  0  0  0  0
 35 32  1  0  0  0  0
 35 34  1  0  0  0  0
 36 35  2  0  0  0  0
 37 30  2  0  0  0  0
 38 39  1  0  0  0  0
M  END
>  <MODEL>
9

>  <REMARK>
 VINA RESULT:      -7.3      2.514      8.206
  Name = 
  10 active torsions:
  status: ('A' for Active; 'I' for Inactive)
    1  A    between atoms: N_1  and  C_26
    2  A    between atoms: C_3  and  C_21
    3  A    between atoms: C_6  and  C_22
    4  A    between atoms: C_6  and  C_33
    5  A    between atoms: N_9  and  C_19
    6  A    between atoms: N_12  and  N_36
    7  A    between atoms: C_14  and  N_16
    8  A    between atoms: C_22  and  N_36
    9  A    between atoms: C_24  and  C_33
   10  A    between atoms: C_25  and  O_37
                            x       y       z     vdW  Elec       q    Type
                         _______ _______ _______ _____ _____    ______ ____

>  <TORSDO>
F 10

$$$$
