=
 OpenBabel11042410043D

 69 73  0  0  1  0  0  0  0  0999 V2000
  184.3740  178.2870  139.7070 C   0  0  2  0  0  3  0  0  0  0  0  0
  186.7550  177.8260  135.6830 C   0  0  0  0  0  3  0  0  0  0  0  0
  185.6370  177.0780  135.7220 C   0  0  0  0  0  0  0  0  0  0  0  0
  183.9120  173.1880  135.3280 C   0  0  0  0  0  2  0  0  0  0  0  0
  180.1370  175.0050  137.8610 C   0  0  0  0  0  0  0  0  0  0  0  0
  180.2270  177.6730  140.1230 C   0  0  0  0  0  1  0  0  0  0  0  0
  188.3230  179.2120  136.8950 N   0  0  0  0  0  1  0  0  0  0  0  0
  182.5360  176.6000  139.9890 C   0  0  0  0  0  0  0  0  0  0  0  0
  182.7080  172.7980  136.1620 C   0  0  0  0  0  2  0  0  0  0  0  0
  180.8220  173.7360  137.4620 C   0  0  0  0  0  2  0  0  0  0  0  0
  186.2210  178.7920  137.8220 O   0  0  0  0  0  0  0  0  0  0  0  0
  185.4900  175.9470  134.7300 C   0  0  0  0  0  2  0  0  0  0  0  0
  186.9140  179.0030  136.6160 C   0  0  2  0  0  3  0  0  0  0  0  0
  181.7750  173.9850  136.3090 C   0  0  0  0  0  2  0  0  0  0  0  0
  185.8710  174.6170  135.2350 N   0  0  0  0  0  0  0  0  0  0  0  0
  184.8590  178.6640  137.4710 C   0  0  2  0  0  3  0  0  0  0  0  0
  183.9680  178.9530  138.5330 O   0  0  0  0  0  0  0  0  0  0  0  0
  180.9380  176.2540  138.0790 C   0  0  2  0  0  3  0  0  0  0  0  0
  178.9310  175.0000  138.0720 O   0  0  0  0  0  0  0  0  0  0  0  0
  184.8190  174.1270  136.1100 C   0  0  0  0  0  2  0  0  0  0  0  0
  183.2020  175.5780  139.9630 O   0  0  0  0  0  0  0  0  0  0  0  0
  181.0890  176.5340  139.5810 C   0  0  2  0  0  3  0  0  0  0  0  0
  183.1540  177.8590  140.5170 C   0  0  0  0  0  2  0  0  0  0  0  0
  184.5980  177.3100  136.7970 C   0  0  0  0  0  2  0  0  0  0  0  0
  180.3780  177.4020  137.2340 C   0  0  0  0  0  2  0  0  0  0  0  0
  181.4500  178.4220  136.9080 C   0  0  0  0  0  2  0  0  0  0  0  0
  181.1380  179.0960  135.5890 C   0  0  0  0  0  2  0  0  0  0  0  0
  179.7310  179.6680  135.6270 C   0  0  0  0  0  2  0  0  0  0  0  0
  179.5580  180.4010  136.8010 O   0  0  0  0  0  0  0  0  0  0  0  0
  180.1490  181.6480  136.5480 C   0  0  2  0  0  3  0  0  0  0  0  0
  181.3860  183.4190  137.5990 O   0  0  0  0  0  1  0  0  0  0  0  0
  179.2800  182.8840  138.5730 C   0  0  0  0  0  1  0  0  0  0  0  0
  181.2220  181.3780  138.7900 C   0  0  0  0  0  1  0  0  0  0  0  0
  180.5180  182.3540  137.8630 C   0  0  0  0  0  0  0  0  0  0  0  0
  179.9970  183.2230  134.6100 C   0  0  0  0  0  1  0  0  0  0  0  0
  179.2140  182.5000  135.6920 C   0  0  0  0  0  2  0  0  0  0  0  0
  185.2620  179.2000  140.5610 C   0  0  0  0  0  2  0  0  0  0  0  0
  189.0700  178.2590  140.8190 C   0  0  1  0  0  3  0  0  0  0  0  0
  186.4460  178.0920  142.3640 C   0  0  0  0  0  3  0  0  0  0  0  0
  187.6860  178.3890  140.1720 C   0  0  2  0  0  3  0  0  0  0  0  0
  189.1300  178.3120  142.6660 S   0  0  0  0  0  0  0  0  0  0  0  0
  186.4820  178.5130  141.0940 C   0  0  0  0  0  0  0  0  0  0  0  0
  188.3600  177.0280  140.2660 C   0  0  0  0  0  2  0  0  0  0  0  0
  187.5950  177.3960  143.0050 C   0  0  1  0  0  3  0  0  0  0  0  0
  187.3720  177.2580  144.4730 C   0  0  0  0  0  0  0  0  0  0  0  0
  188.3990  176.7860  145.2780 O   0  0  0  0  0  1  0  0  0  0  0  0
  186.2580  177.5440  144.9840 O   0  0  0  0  0  0  0  0  0  0  0  0
  187.1260  174.6720  135.9820 C   0  0  0  0  0  2  0  0  0  0  0  0
  188.2870  174.9770  135.0530 C   0  0  0  0  0  2  0  0  0  0  0  0
  189.5330  174.2200  135.4760 C   0  0  2  0  0  3  0  0  0  0  0  0
  195.4150  171.5360  135.9950 C   0  0  0  0  0  2  0  0  0  0  0  0
  189.4090  172.8400  135.0340 N   0  0  0  0  0  2  0  0  0  0  0  0
  190.3400  170.7650  134.5990 O   0  0  0  0  0  0  0  0  0  0  0  0
  194.4440  169.6280  134.7810 C   0  0  0  0  0  2  0  0  0  0  0  0
  193.0290  171.6270  135.4220 C   0  0  0  0  0  0  0  0  0  0  0  0
  190.5230  171.9480  134.9810 C   0  0  0  0  0  0  0  0  0  0  0  0
  191.8230  172.4010  135.3870 N   0  0  0  0  0  2  0  0  0  0  0  0
  194.0980  172.1760  135.9310 N   0  0  0  0  0  0  0  0  0  0  0  0
  193.0360  170.1820  134.9760 C   0  0  0  0  0  2  0  0  0  0  0  0
  195.3030  170.0160  135.9690 C   0  0  0  0  0  2  0  0  0  0  0  0
  190.5420  175.1530  137.6150 C   0  0  0  0  0  0  0  0  0  0  0  0
  189.6650  174.2550  136.9290 N   0  0  0  0  0  2  0  0  0  0  0  0
  190.6080  175.1090  138.8710 O   0  0  0  0  0  0  0  0  0  0  0  0
  191.3660  176.1600  136.8550 C   0  0  2  0  0  3  0  0  0  0  0  0
  192.4750  175.5130  136.0120 C   0  0  2  0  0  3  0  0  0  0  0  0
  193.8250  176.1280  136.3410 C   0  0  0  0  0  1  0  0  0  0  0  0
  192.2200  175.7040  134.6530 O   0  0  0  0  0  1  0  0  0  0  0  0
  191.8740  177.2830  137.7670 C   0  0  0  0  0  2  0  0  0  0  0  0
  192.6790  176.7610  138.9450 C   0  0  0  0  0  1  0  0  0  0  0  0
  1 23  1  0  0  0  0
  1 37  1  1  0  0  0
  2  3  2  0  0  0  0
  2 13  1  0  0  0  0
  3 24  1  0  0  0  0
  4 20  1  0  0  0  0
  4  9  1  0  0  0  0
  5 19  2  0  0  0  0
  5 18  1  0  0  0  0
  8 23  1  0  0  0  0
  9 14  1  0  0  0  0
 10  5  1  0  0  0  0
 12 15  1  0  0  0  0
 12  3  1  0  0  0  0
 13  7  1  1  0  0  0
 13 11  1  0  0  0  0
 14 10  1  0  0  0  0
 15 48  1  0  0  0  0
 15 20  1  0  0  0  0
 16 24  1  1  0  0  0
 16 11  1  0  0  0  0
 16 17  1  0  0  0  0
 17  1  1  0  0  0  0
 18 25  1  6  0  0  0
 18 22  1  0  0  0  0
 21  8  2  0  0  0  0
 22  8  1  0  0  0  0
 22  6  1  6  0  0  0
 26 25  1  0  0  0  0
 27 28  1  0  0  0  0
 27 26  1  0  0  0  0
 28 29  1  0  0  0  0
 30 36  1  1  0  0  0
 30 29  1  0  0  0  0
 30 34  1  0  0  0  0
 31 34  1  0  0  0  0
 34 32  1  0  0  0  0
 34 33  1  0  0  0  0
 35 36  1  0  0  0  0
 37 42  1  0  0  0  0
 38 43  1  1  0  0  0
 38 41  1  0  0  0  0
 39 44  1  0  0  0  0
 40 43  1  1  0  0  0
 40 38  1  0  0  0  0
 40 42  1  0  0  0  0
 41 44  1  0  0  0  0
 42 39  2  0  0  0  0
 44 45  1  1  0  0  0
 45 47  2  0  0  0  0
 45 46  1  0  0  0  0
 49 48  1  0  0  0  0
 50 49  1  1  0  0  0
 50 62  1  0  0  0  0
 52 50  1  0  0  0  0
 53 56  2  0  0  0  0
 54 59  1  0  0  0  0
 54 60  1  0  0  0  0
 55 58  2  0  0  0  0
 56 52  1  0  0  0  0
 56 57  1  0  0  0  0
 57 55  1  0  0  0  0
 58 51  1  0  0  0  0
 59 55  1  0  0  0  0
 60 51  1  0  0  0  0
 61 63  2  0  0  0  0
 62 61  1  0  0  0  0
 64 61  1  0  0  0  0
 64 68  1  1  0  0  0
 65 66  1  1  0  0  0
 65 64  1  0  0  0  0
 67 65  1  0  0  0  0
 68 69  1  0  0  0  0
M  END
>  <MODEL>
1

>  <REMARK>
 VINA RESULT:      -4.9      0.000      0.000
  Name = 
  19 active torsions:
  status: ('A' for Active; 'I' for Inactive)
    1  A    between atoms: C_2  and  C_43
    2  A    between atoms: C_3  and  C_51
    3  A    between atoms: C_10  and  C_64
    4  A    between atoms: N_17  and  C_69
    5  A    between atoms: C_18  and  C_43
    6  A    between atoms: C_26  and  C_51
    7  A    between atoms: N_33  and  C_46
    8  A    between atoms: C_37  and  C_43
    9  A    between atoms: C_39  and  C_67
   10  A    between atoms: O_41  and  C_47
   11  A    between atoms: O_41  and  C_67
   12  A    between atoms: C_42  and  C_47
   13  A    between atoms: C_42  and  C_65
   14  A    between atoms: C_46  and  C_61
   15  A    between atoms: C_50  and  C_55
   16  A    between atoms: N_52  and  C_69
   17  A    between atoms: C_55  and  C_65
   18  A    between atoms: C_60  and  C_67
   19  A    between atoms: C_61  and  C_69
                            x       y       z     vdW  Elec       q    Type
                         _______ _______ _______ _____ _____    ______ ____

>  <TORSDO>
F 19

$$$$
=
 OpenBabel11042410043D

 69 73  0  0  1  0  0  0  0  0999 V2000
  184.4740  178.0040  139.7510 C   0  0  2  0  0  3  0  0  0  0  0  0
  187.1050  177.9030  135.8600 C   0  0  0  0  0  3  0  0  0  0  0  0
  185.9480  177.2270  135.7310 C   0  0  0  0  0  0  0  0  0  0  0  0
  184.0490  173.5310  134.7300 C   0  0  0  0  0  2  0  0  0  0  0  0
  180.2080  175.2480  137.2340 C   0  0  0  0  0  0  0  0  0  0  0  0
  180.2820  177.6010  139.8230 C   0  0  0  0  0  1  0  0  0  0  0  0
  188.6560  179.0260  137.3360 N   0  0  0  0  0  1  0  0  0  0  0  0
  182.5340  176.4120  139.6970 C   0  0  0  0  0  0  0  0  0  0  0  0
  182.7700  173.1150  135.4300 C   0  0  0  0  0  2  0  0  0  0  0  0
  180.8510  173.9990  136.7190 C   0  0  0  0  0  2  0  0  0  0  0  0
  186.4740  178.6250  138.0680 O   0  0  0  0  0  0  0  0  0  0  0  0
  185.8110  176.2400  134.5940 C   0  0  0  0  0  2  0  0  0  0  0  0
  187.2600  178.9420  136.9450 C   0  0  2  0  0  3  0  0  0  0  0  0
  181.8940  174.3300  135.6700 C   0  0  0  0  0  2  0  0  0  0  0  0
  186.0830  174.8360  134.9460 N   0  0  0  0  0  0  0  0  0  0  0  0
  185.1350  178.6260  137.6180 C   0  0  2  0  0  3  0  0  0  0  0  0
  184.1890  178.8350  138.6500 O   0  0  0  0  0  0  0  0  0  0  0  0
  181.0570  176.4080  137.6620 C   0  0  2  0  0  3  0  0  0  0  0  0
  178.9920  175.2920  137.3660 O   0  0  0  0  0  0  0  0  0  0  0  0
  184.9470  174.3070  135.6830 C   0  0  0  0  0  2  0  0  0  0  0  0
  183.1440  175.3620  139.5820 O   0  0  0  0  0  0  0  0  0  0  0  0
  181.1180  176.4880  139.1930 C   0  0  2  0  0  3  0  0  0  0  0  0
  183.1790  177.5550  140.4200 C   0  0  0  0  0  2  0  0  0  0  0  0
  184.8500  177.3860  136.7590 C   0  0  0  0  0  2  0  0  0  0  0  0
  180.6210  177.6850  136.9380 C   0  0  0  0  0  2  0  0  0  0  0  0
  181.5810  178.0440  135.8220 C   0  0  0  0  0  2  0  0  0  0  0  0
  181.2740  179.4330  135.3040 C   0  0  0  0  0  2  0  0  0  0  0  0
  179.7700  179.6310  135.2300 C   0  0  0  0  0  2  0  0  0  0  0  0
  179.3520  180.4250  136.2980 O   0  0  0  0  0  0  0  0  0  0  0  0
  180.1140  181.5980  136.2070 C   0  0  2  0  0  3  0  0  0  0  0  0
  181.5880  181.2060  138.0630 O   0  0  0  0  0  1  0  0  0  0  0  0
  181.1060  183.4850  137.5650 C   0  0  0  0  0  1  0  0  0  0  0  0
  179.4150  181.9970  138.5740 C   0  0  0  0  0  1  0  0  0  0  0  0
  180.5790  182.0570  137.5990 C   0  0  0  0  0  0  0  0  0  0  0  0
  180.2290  183.5620  134.6600 C   0  0  0  0  0  1  0  0  0  0  0  0
  179.3110  182.6850  135.4940 C   0  0  0  0  0  2  0  0  0  0  0  0
  185.3480  178.7460  140.7700 C   0  0  0  0  0  2  0  0  0  0  0  0
  185.4020  179.0890  144.6860 C   0  0  1  0  0  3  0  0  0  0  0  0
  183.4950  178.7200  142.3350 C   0  0  0  0  0  3  0  0  0  0  0  0
  185.8350  178.5840  143.3040 C   0  0  2  0  0  3  0  0  0  0  0  0
  183.6980  179.7930  144.8150 S   0  0  0  0  0  0  0  0  0  0  0  0
  184.8230  178.6670  142.1720 C   0  0  0  0  0  0  0  0  0  0  0  0
  185.4250  177.5940  144.3850 C   0  0  0  0  0  2  0  0  0  0  0  0
  182.8550  178.6500  143.6770 C   0  0  1  0  0  3  0  0  0  0  0  0
  181.4010  178.9700  143.5820 C   0  0  0  0  0  0  0  0  0  0  0  0
  181.0060  180.2370  143.1780 O   0  0  0  0  0  0  0  0  0  0  0  0
  180.5330  178.1110  143.8840 O   0  0  0  0  0  1  0  0  0  0  0  0
  187.2840  174.7190  135.7720 C   0  0  0  0  0  2  0  0  0  0  0  0
  188.3890  174.0120  135.0080 C   0  0  0  0  0  2  0  0  0  0  0  0
  189.6760  173.9930  135.8120 C   0  0  2  0  0  3  0  0  0  0  0  0
  196.0700  174.2610  134.7540 C   0  0  0  0  0  2  0  0  0  0  0  0
  190.1710  172.6260  135.8610 N   0  0  0  0  0  2  0  0  0  0  0  0
  191.9020  171.0960  135.7040 O   0  0  0  0  0  0  0  0  0  0  0  0
  195.9570  171.8080  134.6000 C   0  0  0  0  0  2  0  0  0  0  0  0
  193.9010  173.1800  135.1460 C   0  0  0  0  0  0  0  0  0  0  0  0
  191.5430  172.2980  135.6360 C   0  0  0  0  0  0  0  0  0  0  0  0
  192.4930  173.3390  135.3630 N   0  0  0  0  0  2  0  0  0  0  0  0
  194.6300  174.2560  135.0260 N   0  0  0  0  0  0  0  0  0  0  0  0
  194.5370  171.8080  135.1590 C   0  0  0  0  0  2  0  0  0  0  0  0
  196.7320  172.9640  135.2030 C   0  0  0  0  0  2  0  0  0  0  0  0
  190.3690  175.2270  137.9250 C   0  0  0  0  0  0  0  0  0  0  0  0
  189.4210  174.4660  137.1690 N   0  0  0  0  0  2  0  0  0  0  0  0
  190.0750  175.5840  139.0960 O   0  0  0  0  0  0  0  0  0  0  0  0
  191.6950  175.6210  137.3290 C   0  0  2  0  0  3  0  0  0  0  0  0
  192.8010  175.7820  138.3820 C   0  0  2  0  0  3  0  0  0  0  0  0
  193.2510  177.2310  138.4680 C   0  0  0  0  0  1  0  0  0  0  0  0
  193.9030  174.9950  138.0470 O   0  0  0  0  0  1  0  0  0  0  0  0
  191.5620  176.8320  136.3980 C   0  0  0  0  0  2  0  0  0  0  0  0
  191.4570  176.4360  134.9350 C   0  0  0  0  0  1  0  0  0  0  0  0
  1 23  1  0  0  0  0
  1 37  1  1  0  0  0
  2 13  1  0  0  0  0
  3  2  2  0  0  0  0
  3 24  1  0  0  0  0
  4  9  1  0  0  0  0
  4 20  1  0  0  0  0
  5 19  2  0  0  0  0
  5 18  1  0  0  0  0
  8 23  1  0  0  0  0
  9 14  1  0  0  0  0
 10  5  1  0  0  0  0
 12 15  1  0  0  0  0
 12  3  1  0  0  0  0
 13  7  1  1  0  0  0
 13 11  1  0  0  0  0
 14 10  1  0  0  0  0
 15 20  1  0  0  0  0
 15 48  1  0  0  0  0
 16 24  1  1  0  0  0
 16 11  1  0  0  0  0
 16 17  1  0  0  0  0
 17  1  1  0  0  0  0
 18 25  1  1  0  0  0
 18 22  1  0  0  0  0
 21  8  2  0  0  0  0
 22  8  1  0  0  0  0
 22  6  1  6  0  0  0
 26 25  1  0  0  0  0
 27 26  1  0  0  0  0
 28 27  1  0  0  0  0
 28 29  1  0  0  0  0
 30 36  1  1  0  0  0
 30 29  1  0  0  0  0
 30 34  1  0  0  0  0
 32 34  1  0  0  0  0
 34 31  1  0  0  0  0
 34 33  1  0  0  0  0
 35 36  1  0  0  0  0
 37 42  1  0  0  0  0
 38 43  1  1  0  0  0
 38 41  1  0  0  0  0
 39 44  1  0  0  0  0
 40 43  1  1  0  0  0
 40 38  1  0  0  0  0
 42 39  2  0  0  0  0
 42 40  1  0  0  0  0
 44 45  1  6  0  0  0
 44 41  1  0  0  0  0
 45 47  1  0  0  0  0
 46 45  2  0  0  0  0
 49 48  1  0  0  0  0
 50 49  1  6  0  0  0
 50 52  1  0  0  0  0
 50 62  1  0  0  0  0
 51 58  1  0  0  0  0
 51 60  1  0  0  0  0
 54 59  1  0  0  0  0
 54 60  1  0  0  0  0
 55 59  1  0  0  0  0
 55 57  1  0  0  0  0
 56 53  2  0  0  0  0
 56 52  1  0  0  0  0
 57 56  1  0  0  0  0
 58 55  2  0  0  0  0
 61 63  2  0  0  0  0
 62 61  1  0  0  0  0
 64 68  1  1  0  0  0
 64 61  1  0  0  0  0
 64 65  1  0  0  0  0
 65 66  1  6  0  0  0
 67 65  1  0  0  0  0
 69 68  1  0  0  0  0
M  END
>  <MODEL>
2

>  <REMARK>
 VINA RESULT:      -4.5      1.837      2.432
  Name = 
  19 active torsions:
  status: ('A' for Active; 'I' for Inactive)
    1  A    between atoms: C_2  and  C_43
    2  A    between atoms: C_3  and  C_51
    3  A    between atoms: C_10  and  C_64
    4  A    between atoms: N_17  and  C_69
    5  A    between atoms: C_18  and  C_43
    6  A    between atoms: C_26  and  C_51
    7  A    between atoms: N_33  and  C_46
    8  A    between atoms: C_37  and  C_43
    9  A    between atoms: C_39  and  C_67
   10  A    between atoms: O_41  and  C_47
   11  A    between atoms: O_41  and  C_67
   12  A    between atoms: C_42  and  C_47
   13  A    between atoms: C_42  and  C_65
   14  A    between atoms: C_46  and  C_61
   15  A    between atoms: C_50  and  C_55
   16  A    between atoms: N_52  and  C_69
   17  A    between atoms: C_55  and  C_65
   18  A    between atoms: C_60  and  C_67
   19  A    between atoms: C_61  and  C_69
                            x       y       z     vdW  Elec       q    Type
                         _______ _______ _______ _____ _____    ______ ____

>  <TORSDO>
F 19

$$$$
=
 OpenBabel11042410043D

 69 73  0  0  1  0  0  0  0  0999 V2000
  188.3550  178.5690  140.9170 C   0  0  2  0  0  3  0  0  0  0  0  0
  183.6820  178.1440  141.1460 C   0  0  0  0  0  3  0  0  0  0  0  0
  184.1870  177.7690  139.9570 C   0  0  0  0  0  0  0  0  0  0  0  0
  184.0920  178.2420  135.7100 C   0  0  0  0  0  2  0  0  0  0  0  0
  188.5590  176.2400  135.7530 C   0  0  0  0  0  0  0  0  0  0  0  0
  190.8490  176.2920  138.3980 C   0  0  0  0  0  1  0  0  0  0  0  0
  184.0690  179.2210  143.2760 N   0  0  0  0  0  1  0  0  0  0  0  0
  189.2800  178.2920  138.5990 C   0  0  0  0  0  0  0  0  0  0  0  0
  185.3600  178.0830  134.8950 C   0  0  0  0  0  2  0  0  0  0  0  0
  187.6250  177.0870  134.9470 C   0  0  0  0  0  2  0  0  0  0  0  0
  185.8990  178.5200  142.0050 O   0  0  0  0  0  0  0  0  0  0  0  0
  183.2490  177.6540  138.7770 C   0  0  0  0  0  2  0  0  0  0  0  0
  184.5740  178.2120  142.3630 C   0  0  2  0  0  3  0  0  0  0  0  0
  186.2080  176.9660  135.4740 C   0  0  0  0  0  2  0  0  0  0  0  0
  183.2080  178.8310  137.8920 N   0  0  0  0  0  0  0  0  0  0  0  0
  186.3330  177.4640  141.1740 C   0  0  2  0  0  3  0  0  0  0  0  0
  187.7400  177.3180  141.1270 O   0  0  0  0  0  0  0  0  0  0  0  0
  188.5300  176.3060  137.2510 C   0  0  2  0  0  3  0  0  0  0  0  0
  189.3900  175.5450  135.1830 O   0  0  0  0  0  0  0  0  0  0  0  0
  184.4080  178.8440  137.0720 C   0  0  0  0  0  2  0  0  0  0  0  0
  188.7060  179.2160  138.0470 O   0  0  0  0  0  0  0  0  0  0  0  0
  189.7250  177.1160  137.7720 C   0  0  2  0  0  3  0  0  0  0  0  0
  189.6050  178.4020  140.0580 C   0  0  0  0  0  2  0  0  0  0  0  0
  185.6760  177.5570  139.7900 C   0  0  0  0  0  2  0  0  0  0  0  0
  188.3570  174.9050  137.8450 C   0  0  0  0  0  2  0  0  0  0  0  0
  189.2710  173.9020  137.1710 C   0  0  0  0  0  2  0  0  0  0  0  0
  188.4620  172.9870  136.2760 C   0  0  0  0  0  2  0  0  0  0  0  0
  186.9840  173.1380  136.5910 C   0  0  0  0  0  2  0  0  0  0  0  0
  186.2790  173.3830  135.4120 O   0  0  0  0  0  0  0  0  0  0  0  0
  184.9610  173.6350  135.8160 C   0  0  2  0  0  3  0  0  0  0  0  0
  183.0140  172.3810  136.4560 O   0  0  0  0  0  1  0  0  0  0  0  0
  185.0250  171.1360  136.1820 C   0  0  0  0  0  1  0  0  0  0  0  0
  184.6970  172.6530  138.1010 C   0  0  0  0  0  1  0  0  0  0  0  0
  184.4010  172.4520  136.6240 C   0  0  0  0  0  0  0  0  0  0  0  0
  182.9490  174.8670  134.9800 C   0  0  0  0  0  1  0  0  0  0  0  0
  184.0950  173.9460  134.5960 C   0  0  0  0  0  2  0  0  0  0  0  0
  188.7360  179.2110  142.2570 C   0  0  0  0  0  2  0  0  0  0  0  0
  191.6360  177.1550  143.9330 C   0  0  1  0  0  3  0  0  0  0  0  0
  188.7550  178.0470  144.3840 C   0  0  0  0  0  3  0  0  0  0  0  0
  190.7010  177.6260  142.8130 C   0  0  2  0  0  3  0  0  0  0  0  0
  191.0640  177.4430  145.6670 S   0  0  0  0  0  0  0  0  0  0  0  0
  189.3750  178.2530  143.2150 C   0  0  0  0  0  0  0  0  0  0  0  0
  190.7830  176.1490  143.1670 C   0  0  0  0  0  2  0  0  0  0  0  0
  189.2910  177.1180  145.4160 C   0  0  1  0  0  3  0  0  0  0  0  0
  188.5380  177.2640  146.6950 C   0  0  0  0  0  0  0  0  0  0  0  0
  187.5050  178.1860  146.7780 O   0  0  0  0  0  0  0  0  0  0  0  0
  188.8430  176.5750  147.7030 O   0  0  0  0  0  1  0  0  0  0  0  0
  183.1420  180.0720  138.6620 C   0  0  0  0  0  2  0  0  0  0  0  0
  182.0440  180.9730  138.1270 C   0  0  0  0  0  2  0  0  0  0  0  0
  180.6900  180.5590  138.6720 C   0  0  2  0  0  3  0  0  0  0  0  0
  180.0470  174.6040  141.1600 C   0  0  0  0  0  2  0  0  0  0  0  0
  180.0150  179.7520  137.6680 N   0  0  0  0  0  2  0  0  0  0  0  0
  179.1370  177.7310  136.9550 O   0  0  0  0  0  0  0  0  0  0  0  0
  179.3140  173.9460  138.9050 C   0  0  0  0  0  2  0  0  0  0  0  0
  179.8720  176.3540  139.4480 C   0  0  0  0  0  0  0  0  0  0  0  0
  179.7340  178.3640  137.8610 C   0  0  0  0  0  0  0  0  0  0  0  0
  180.1080  177.7220  139.0890 N   0  0  0  0  0  2  0  0  0  0  0  0
  180.1820  175.9740  140.6570 N   0  0  0  0  0  0  0  0  0  0  0  0
  179.1900  175.4070  138.4860 C   0  0  0  0  0  2  0  0  0  0  0  0
  178.9960  173.8200  140.3830 C   0  0  0  0  0  2  0  0  0  0  0  0
  179.8030  182.8670  138.0800 C   0  0  0  0  0  0  0  0  0  0  0  0
  179.8880  181.7430  138.9620 N   0  0  0  0  0  2  0  0  0  0  0  0
  179.1000  183.8570  138.4130 O   0  0  0  0  0  0  0  0  0  0  0  0
  180.5240  182.8680  136.7580 C   0  0  2  0  0  3  0  0  0  0  0  0
  181.4440  184.0840  136.5770 C   0  0  2  0  0  3  0  0  0  0  0  0
  181.8630  184.6440  137.9260 C   0  0  0  0  0  1  0  0  0  0  0  0
  180.7830  185.0870  135.8660 O   0  0  0  0  0  1  0  0  0  0  0  0
  179.5580  182.6590  135.5840 C   0  0  0  0  0  2  0  0  0  0  0  0
  180.0380  181.5900  134.6160 C   0  0  0  0  0  1  0  0  0  0  0  0
  1 17  1  0  0  0  0
  1 37  1  1  0  0  0
  2 13  1  0  0  0  0
  3  2  2  0  0  0  0
  4 20  1  0  0  0  0
  5 18  1  0  0  0  0
  8 23  1  0  0  0  0
  9 14  1  0  0  0  0
  9  4  1  0  0  0  0
 10 14  1  0  0  0  0
 10  5  1  0  0  0  0
 11 13  1  0  0  0  0
 12  3  1  0  0  0  0
 13  7  1  1  0  0  0
 15 48  1  0  0  0  0
 15 12  1  0  0  0  0
 16 24  1  6  0  0  0
 16 11  1  0  0  0  0
 17 16  1  0  0  0  0
 18 22  1  0  0  0  0
 18 25  1  1  0  0  0
 19  5  2  0  0  0  0
 20 15  1  0  0  0  0
 21  8  2  0  0  0  0
 22  6  1  1  0  0  0
 22  8  1  0  0  0  0
 23  1  1  0  0  0  0
 24  3  1  0  0  0  0
 26 25  1  0  0  0  0
 27 28  1  0  0  0  0
 27 26  1  0  0  0  0
 29 30  1  0  0  0  0
 29 28  1  0  0  0  0
 30 36  1  6  0  0  0
 30 34  1  0  0  0  0
 31 34  1  0  0  0  0
 32 34  1  0  0  0  0
 34 33  1  0  0  0  0
 36 35  1  0  0  0  0
 37 42  1  0  0  0  0
 38 43  1  6  0  0  0
 38 41  1  0  0  0  0
 39 44  1  0  0  0  0
 40 43  1  6  0  0  0
 40 42  1  0  0  0  0
 40 38  1  0  0  0  0
 42 39  2  0  0  0  0
 44 41  1  0  0  0  0
 44 45  1  1  0  0  0
 45 46  2  0  0  0  0
 45 47  1  0  0  0  0
 49 48  1  0  0  0  0
 50 49  1  6  0  0  0
 50 62  1  0  0  0  0
 52 56  1  0  0  0  0
 52 50  1  0  0  0  0
 53 56  2  0  0  0  0
 54 60  1  0  0  0  0
 55 58  2  0  0  0  0
 56 57  1  0  0  0  0
 57 55  1  0  0  0  0
 58 51  1  0  0  0  0
 59 54  1  0  0  0  0
 59 55  1  0  0  0  0
 60 51  1  0  0  0  0
 61 63  2  0  0  0  0
 61 62  1  0  0  0  0
 64 68  1  6  0  0  0
 64 61  1  0  0  0  0
 65 64  1  0  0  0  0
 65 66  1  1  0  0  0
 67 65  1  0  0  0  0
 69 68  1  0  0  0  0
M  END
>  <MODEL>
3

>  <REMARK>
 VINA RESULT:      -2.2      3.722      9.762
  Name = 
  19 active torsions:
  status: ('A' for Active; 'I' for Inactive)
    1  A    between atoms: C_2  and  C_43
    2  A    between atoms: C_3  and  C_51
    3  A    between atoms: C_10  and  C_64
    4  A    between atoms: N_17  and  C_69
    5  A    between atoms: C_18  and  C_43
    6  A    between atoms: C_26  and  C_51
    7  A    between atoms: N_33  and  C_46
    8  A    between atoms: C_37  and  C_43
    9  A    between atoms: C_39  and  C_67
   10  A    between atoms: O_41  and  C_47
   11  A    between atoms: O_41  and  C_67
   12  A    between atoms: C_42  and  C_47
   13  A    between atoms: C_42  and  C_65
   14  A    between atoms: C_46  and  C_61
   15  A    between atoms: C_50  and  C_55
   16  A    between atoms: N_52  and  C_69
   17  A    between atoms: C_55  and  C_65
   18  A    between atoms: C_60  and  C_67
   19  A    between atoms: C_61  and  C_69
                            x       y       z     vdW  Elec       q    Type
                         _______ _______ _______ _____ _____    ______ ____

>  <TORSDO>
F 19

$$$$
