=
 OpenBabel11032421023D

 46 48  0  0  1  0  0  0  0  0999 V2000
  189.2650  177.1660  139.4450 N   0  0  0  0  0  2  0  0  0  0  0  0
  189.2880  177.9880  138.2420 C   0  0  2  0  0  3  0  0  0  0  0  0
  187.2190  178.3170  140.1170 C   0  0  0  0  0  3  0  0  0  0  0  0
  188.6330  177.9590  140.4970 C   0  0  1  0  0  3  0  0  0  0  0  0
  187.8570  178.1850  137.7230 C   0  0  0  0  0  2  0  0  0  0  0  0
  186.8730  178.4880  138.8370 C   0  0  0  0  0  0  0  0  0  0  0  0
  187.7040  177.2650  142.6010 N   0  0  0  0  0  0  0  0  0  0  0  0
  189.2370  177.2390  145.5640 N   0  0  0  0  0  0  0  0  0  0  0  0
  187.0730  177.4840  144.9600 C   0  0  0  0  0  0  0  0  0  0  0  0
  188.7360  177.2390  141.8050 C   0  0  0  0  0  0  0  0  0  0  0  0
  187.7080  176.6280  143.9200 C   0  0  2  0  0  3  0  0  0  0  0  0
  187.9650  177.7790  145.9000 C   0  0  0  0  0  3  0  0  0  0  0  0
  189.1000  176.6000  144.4510 C   0  0  0  0  0  0  0  0  0  0  0  0
  190.1970  176.4080  143.5590 N   0  0  0  0  0  0  0  0  0  0  0  0
  190.0360  176.6960  142.2990 C   0  0  0  0  0  3  0  0  0  0  0  0
  185.6710  178.0180  144.8890 C   0  0  1  0  0  3  0  0  0  0  0  0
  185.5420  179.3650  145.5790 C   0  0  0  0  0  1  0  0  0  0  0  0
  185.2590  178.1270  143.5110 N   0  0  0  0  0  0  0  0  0  0  0  0
  184.1090  178.6160  143.2220 C   0  0  0  0  0  3  0  0  0  0  0  0
  183.6380  178.6730  141.8050 C   0  0  0  0  0  2  0  0  0  0  0  0
  182.2580  178.4710  141.7390 O   0  0  0  0  0  0  0  0  0  0  0  0
  181.7800  178.9440  142.9650 C   0  0  0  0  0  2  0  0  0  0  0  0
  180.3470  179.3290  142.8350 C   0  0  0  0  0  0  0  0  0  0  0  0
  180.0040  180.6440  142.5440 O   0  0  0  0  0  0  0  0  0  0  0  0
  179.4450  178.4690  143.0110 O   0  0  0  0  0  1  0  0  0  0  0  0
  185.5100  178.8210  138.5450 N   0  0  0  0  0  2  0  0  0  0  0  0
  184.4500  177.8960  138.2690 C   0  0  0  0  0  0  0  0  0  0  0  0
  184.6980  176.6740  138.0880 O   0  0  0  0  0  0  0  0  0  0  0  0
  183.4180  180.5320  138.9510 O   0  0  0  0  0  0  0  0  0  0  0  0
  182.6340  179.6730  138.4600 C   0  0  0  0  0  0  0  0  0  0  0  0
  183.0970  178.3490  138.1570 N   0  0  0  0  0  2  0  0  0  0  0  0
  181.2280  180.0290  138.2030 C   0  0  0  0  0  0  0  0  0  0  0  0
  180.3260  179.7790  139.0950 N   0  0  0  0  0  2  0  0  0  0  0  0
  180.8100  180.6030  136.8860 C   0  0  0  0  0  2  0  0  0  0  0  0
  180.3740  182.0670  137.0120 C   0  0  0  0  0  2  0  0  0  0  0  0
  179.3770  182.9330  134.8560 C   0  0  0  0  0  1  0  0  0  0  0  0
  180.6070  182.9050  135.7500 C   0  0  1  0  0  3  0  0  0  0  0  0
  181.5470  184.5860  137.2870 C   0  0  0  0  0  2  0  0  0  0  0  0
  181.0840  184.2880  136.0760 C   0  0  0  0  0  3  0  0  0  0  0  0
  190.1410  177.3290  137.2140 C   0  0  0  0  0  3  0  0  0  0  0  0
  191.1570  176.5510  137.5640 C   0  0  0  0  0  3  0  0  0  0  0  0
  194.0720  175.0940  135.6390 N   0  0  0  0  0  2  0  0  0  0  0  0
  193.9740  176.3110  137.6290 O   0  0  0  0  0  0  0  0  0  0  0  0
  195.5170  174.9420  135.6750 C   0  0  0  0  0  1  0  0  0  0  0  0
  191.9390  175.9170  136.5560 N   0  0  0  0  0  2  0  0  0  0  0  0
  193.3580  175.7980  136.6540 C   0  0  0  0  0  0  0  0  0  0  0  0
  1  4  1  0  0  0  0
  2 40  1  6  0  0  0
  2  1  1  0  0  0  0
  3  4  1  0  0  0  0
  4 10  1  1  0  0  0
  5  2  1  0  0  0  0
  5  6  1  0  0  0  0
  6  3  2  0  0  0  0
  8 12  1  0  0  0  0
  9 12  2  0  0  0  0
 10 15  1  0  0  0  0
 10  7  2  0  0  0  0
 11  7  1  6  0  0  0
 11 13  1  0  0  0  0
 11  9  1  0  0  0  0
 13  8  2  0  0  0  0
 14 13  1  0  0  0  0
 15 14  2  0  0  0  0
 16  9  1  0  0  0  0
 16 17  1  6  0  0  0
 18 16  1  0  0  0  0
 19 18  2  0  0  0  0
 20 19  1  0  0  0  0
 21 20  1  0  0  0  0
 21 22  1  0  0  0  0
 23 22  1  0  0  0  0
 23 25  1  0  0  0  0
 24 23  2  0  0  0  0
 26  6  1  0  0  0  0
 27 26  1  0  0  0  0
 28 27  2  0  0  0  0
 30 29  2  0  0  0  0
 31 27  1  0  0  0  0
 31 30  1  0  0  0  0
 32 30  1  0  0  0  0
 32 33  2  0  0  0  0
 34 35  1  0  0  0  0
 34 32  1  0  0  0  0
 37 36  1  1  0  0  0
 37 39  1  0  0  0  0
 37 35  1  0  0  0  0
 39 38  2  0  0  0  0
 40 41  2  0  0  0  0
 42 44  1  0  0  0  0
 42 46  1  0  0  0  0
 45 46  1  0  0  0  0
 45 41  1  0  0  0  0
 46 43  2  0  0  0  0
M  END
>  <MODEL>
1

>  <REMARK>
 VINA RESULT:      -8.0      0.000      0.000
  Name = 
  15 active torsions:
  status: ('A' for Active; 'I' for Inactive)
    1  A    between atoms: N_1  and  C_15
    2  A    between atoms: C_2  and  C_17
    3  A    between atoms: C_3  and  C_36
    4  A    between atoms: C_3  and  C_42
    5  A    between atoms: C_7  and  C_20
    6  A    between atoms: N_8  and  C_30
    7  A    between atoms: C_9  and  C_41
    8  A    between atoms: O_13  and  C_17
    9  A    between atoms: O_13  and  C_41
   10  A    between atoms: C_15  and  C_16
   11  A    between atoms: C_18  and  C_19
   12  A    between atoms: C_24  and  C_28
   13  A    between atoms: C_28  and  C_39
   14  A    between atoms: N_34  and  C_38
   15  A    between atoms: C_36  and  C_39
                            x       y       z     vdW  Elec       q    Type
                         _______ _______ _______ _____ _____    ______ ____

>  <TORSDO>
F 15

$$$$
=
 OpenBabel11032421023D

 46 48  0  0  1  0  0  0  0  0999 V2000
  188.3820  177.8230  140.9440 N   0  0  0  0  0  2  0  0  0  0  0  0
  189.7990  177.8500  141.2840 C   0  0  2  0  0  3  0  0  0  0  0  0
  189.0090  177.3290  138.6350 C   0  0  0  0  0  3  0  0  0  0  0  0
  188.2640  178.2620  139.5550 C   0  0  1  0  0  3  0  0  0  0  0  0
  190.5370  176.7540  140.5030 C   0  0  0  0  0  2  0  0  0  0  0  0
  190.1020  176.6810  139.0520 C   0  0  0  0  0  0  0  0  0  0  0  0
  185.9970  178.8150  140.1310 N   0  0  0  0  0  0  0  0  0  0  0  0
  183.2340  177.1910  139.2020 N   0  0  0  0  0  0  0  0  0  0  0  0
  183.7480  178.4250  141.0250 C   0  0  0  0  0  0  0  0  0  0  0  0
  186.8190  178.4270  139.1960 C   0  0  0  0  0  0  0  0  0  0  0  0
  184.5590  178.9720  139.9020 C   0  0  2  0  0  3  0  0  0  0  0  0
  182.9770  177.4390  140.5790 C   0  0  0  0  0  3  0  0  0  0  0  0
  184.1270  178.0430  138.8210 C   0  0  0  0  0  0  0  0  0  0  0  0
  185.0010  177.7700  137.7260 N   0  0  0  0  0  0  0  0  0  0  0  0
  186.2800  177.9590  137.8860 C   0  0  0  0  0  3  0  0  0  0  0  0
  183.8720  178.8560  142.4580 C   0  0  1  0  0  3  0  0  0  0  0  0
  182.5190  178.9390  143.1440 C   0  0  0  0  0  1  0  0  0  0  0  0
  184.7320  177.9430  143.1700 N   0  0  0  0  0  0  0  0  0  0  0  0
  185.6320  178.3950  143.9650 C   0  0  0  0  0  3  0  0  0  0  0  0
  186.5750  177.4670  144.6570 C   0  0  0  0  0  2  0  0  0  0  0  0
  186.6000  177.7270  146.0300 O   0  0  0  0  0  0  0  0  0  0  0  0
  187.9580  177.8740  146.3280 C   0  0  0  0  0  2  0  0  0  0  0  0
  188.2110  177.4730  147.7400 C   0  0  0  0  0  0  0  0  0  0  0  0
  188.0860  178.4070  148.7620 O   0  0  0  0  0  1  0  0  0  0  0  0
  188.5630  176.2940  148.0060 O   0  0  0  0  0  0  0  0  0  0  0  0
  190.7580  175.8030  138.1290 N   0  0  0  0  0  2  0  0  0  0  0  0
  192.1600  175.7740  137.8330 C   0  0  0  0  0  0  0  0  0  0  0  0
  192.9230  176.6800  138.2610 O   0  0  0  0  0  0  0  0  0  0  0  0
  190.8310  173.3390  136.9480 O   0  0  0  0  0  0  0  0  0  0  0  0
  192.0090  173.5720  136.5600 C   0  0  0  0  0  0  0  0  0  0  0  0
  192.7120  174.7380  137.0150 N   0  0  0  0  0  2  0  0  0  0  0  0
  192.6740  172.6340  135.6400 C   0  0  0  0  0  0  0  0  0  0  0  0
  192.0460  171.5810  135.2260 N   0  0  0  0  0  2  0  0  0  0  0  0
  194.1020  172.8340  135.2390 C   0  0  0  0  0  2  0  0  0  0  0  0
  195.0520  171.9350  136.0380 C   0  0  0  0  0  2  0  0  0  0  0  0
  196.5410  173.9570  136.3320 C   0  0  0  0  0  1  0  0  0  0  0  0
  195.9950  172.6930  136.9790 C   0  0  1  0  0  3  0  0  0  0  0  0
  195.6840  174.0640  139.0020 C   0  0  0  0  0  2  0  0  0  0  0  0
  195.3540  172.9820  138.3020 C   0  0  0  0  0  3  0  0  0  0  0  0
  189.9540  177.6550  142.7520 C   0  0  0  0  0  3  0  0  0  0  0  0
  190.9330  178.2480  143.4210 C   0  0  0  0  0  3  0  0  0  0  0  0
  191.6970  176.7640  146.8180 N   0  0  0  0  0  2  0  0  0  0  0  0
  191.8940  175.8940  144.6610 O   0  0  0  0  0  0  0  0  0  0  0  0
  192.2140  175.5690  147.4650 C   0  0  0  0  0  1  0  0  0  0  0  0
  191.0390  178.0600  144.8300 N   0  0  0  0  0  2  0  0  0  0  0  0
  191.5600  176.8600  145.4010 C   0  0  0  0  0  0  0  0  0  0  0  0
  1  2  1  0  0  0  0
  2 40  1  1  0  0  0
  3  6  2  0  0  0  0
  3  4  1  0  0  0  0
  4 10  1  6  0  0  0
  4  1  1  0  0  0  0
  5  2  1  0  0  0  0
  6  5  1  0  0  0  0
  8 12  1  0  0  0  0
  9 16  1  0  0  0  0
 10  7  2  0  0  0  0
 11 13  1  6  0  0  0
 11  7  1  0  0  0  0
 11  9  1  0  0  0  0
 12  9  2  0  0  0  0
 13  8  2  0  0  0  0
 14 15  2  0  0  0  0
 14 13  1  0  0  0  0
 15 10  1  0  0  0  0
 16 17  1  1  0  0  0
 16 18  1  0  0  0  0
 18 19  2  0  0  0  0
 19 20  1  0  0  0  0
 20 21  1  0  0  0  0
 21 22  1  0  0  0  0
 22 23  1  0  0  0  0
 23 25  2  0  0  0  0
 23 24  1  0  0  0  0
 26  6  1  0  0  0  0
 27 26  1  0  0  0  0
 27 28  2  0  0  0  0
 30 29  2  0  0  0  0
 30 31  1  0  0  0  0
 31 27  1  0  0  0  0
 32 30  1  0  0  0  0
 33 32  2  0  0  0  0
 34 32  1  0  0  0  0
 34 35  1  0  0  0  0
 35 37  1  0  0  0  0
 37 36  1  6  0  0  0
 37 39  1  0  0  0  0
 39 38  2  0  0  0  0
 40 41  2  0  0  0  0
 41 45  1  0  0  0  0
 42 44  1  0  0  0  0
 43 46  2  0  0  0  0
 45 46  1  0  0  0  0
 46 42  1  0  0  0  0
M  END
>  <MODEL>
2

>  <REMARK>
 VINA RESULT:      -8.0      3.748      9.648
  Name = 
  15 active torsions:
  status: ('A' for Active; 'I' for Inactive)
    1  A    between atoms: N_1  and  C_15
    2  A    between atoms: C_2  and  C_17
    3  A    between atoms: C_3  and  C_36
    4  A    between atoms: C_3  and  C_42
    5  A    between atoms: C_7  and  C_20
    6  A    between atoms: N_8  and  C_30
    7  A    between atoms: C_9  and  C_41
    8  A    between atoms: O_13  and  C_17
    9  A    between atoms: O_13  and  C_41
   10  A    between atoms: C_15  and  C_16
   11  A    between atoms: C_18  and  C_19
   12  A    between atoms: C_24  and  C_28
   13  A    between atoms: C_28  and  C_39
   14  A    between atoms: N_34  and  C_38
   15  A    between atoms: C_36  and  C_39
                            x       y       z     vdW  Elec       q    Type
                         _______ _______ _______ _____ _____    ______ ____

>  <TORSDO>
F 15

$$$$
=
 OpenBabel11032421023D

 46 48  0  0  1  0  0  0  0  0999 V2000
  188.3600  177.5190  140.0320 N   0  0  0  0  0  2  0  0  0  0  0  0
  189.5080  178.0840  140.7280 C   0  0  2  0  0  3  0  0  0  0  0  0
  189.7760  177.2220  138.0650 C   0  0  0  0  0  3  0  0  0  0  0  0
  188.5150  177.8370  138.6140 C   0  0  1  0  0  3  0  0  0  0  0  0
  190.7790  177.3200  140.3320 C   0  0  0  0  0  2  0  0  0  0  0  0
  190.8490  177.0430  138.8420 C   0  0  0  0  0  0  0  0  0  0  0  0
  186.2160  178.1780  138.0050 N   0  0  0  0  0  0  0  0  0  0  0  0
  183.8390  175.8500  137.7460 N   0  0  0  0  0  0  0  0  0  0  0  0
  183.7810  178.0510  138.2630 C   0  0  0  0  0  0  0  0  0  0  0  0
  187.2810  177.4390  137.8670 C   0  0  0  0  0  0  0  0  0  0  0  0
  184.9440  177.8610  137.3510 C   0  0  2  0  0  3  0  0  0  0  0  0
  183.1540  176.8910  138.4320 C   0  0  0  0  0  3  0  0  0  0  0  0
  184.8480  176.3880  137.1460 C   0  0  0  0  0  0  0  0  0  0  0  0
  186.0210  175.6360  136.8360 N   0  0  0  0  0  0  0  0  0  0  0  0
  187.1820  176.1270  137.1610 C   0  0  0  0  0  3  0  0  0  0  0  0
  183.4460  179.3350  138.9640 C   0  0  1  0  0  3  0  0  0  0  0  0
  182.1110  179.2550  139.6850 C   0  0  0  0  0  1  0  0  0  0  0  0
  184.4920  179.6700  139.8980 N   0  0  0  0  0  0  0  0  0  0  0  0
  184.6770  178.9470  140.9420 C   0  0  0  0  0  3  0  0  0  0  0  0
  185.7110  179.3200  141.9540 C   0  0  0  0  0  2  0  0  0  0  0  0
  185.7530  178.3740  142.9810 O   0  0  0  0  0  0  0  0  0  0  0  0
  184.5910  178.6150  143.7200 C   0  0  0  0  0  2  0  0  0  0  0  0
  184.9120  178.6450  145.1740 C   0  0  0  0  0  0  0  0  0  0  0  0
  186.1640  178.2390  145.6180 O   0  0  0  0  0  0  0  0  0  0  0  0
  184.0410  179.0180  146.0030 O   0  0  0  0  0  1  0  0  0  0  0  0
  192.0130  176.4450  138.2580 N   0  0  0  0  0  2  0  0  0  0  0  0
  192.1150  175.1130  137.7390 C   0  0  0  0  0  0  0  0  0  0  0  0
  191.1880  174.2810  137.9260 O   0  0  0  0  0  0  0  0  0  0  0  0
  194.2980  176.7950  136.7990 O   0  0  0  0  0  0  0  0  0  0  0  0
  194.3650  175.5470  136.6250 C   0  0  0  0  0  0  0  0  0  0  0  0
  193.2860  174.6930  137.0310 N   0  0  0  0  0  2  0  0  0  0  0  0
  195.5570  174.9610  135.9880 C   0  0  0  0  0  0  0  0  0  0  0  0
  196.7310  175.4320  136.2600 N   0  0  0  0  0  2  0  0  0  0  0  0
  195.4260  173.8800  134.9620 C   0  0  0  0  0  2  0  0  0  0  0  0
  196.1120  172.5830  135.4070 C   0  0  0  0  0  2  0  0  0  0  0  0
  194.3350  171.1560  136.5010 C   0  0  0  0  0  1  0  0  0  0  0  0
  195.5760  172.0060  136.7220 C   0  0  1  0  0  3  0  0  0  0  0  0
  197.6570  170.6920  136.8420 C   0  0  0  0  0  2  0  0  0  0  0  0
  196.6320  171.2560  137.4760 C   0  0  0  0  0  3  0  0  0  0  0  0
  189.2770  178.0090  142.1970 C   0  0  0  0  0  3  0  0  0  0  0  0
  189.6810  176.9590  142.9000 C   0  0  0  0  0  3  0  0  0  0  0  0
  190.2570  176.8670  146.6400 N   0  0  0  0  0  2  0  0  0  0  0  0
  191.7290  176.7070  144.8350 O   0  0  0  0  0  0  0  0  0  0  0  0
  191.3040  176.7640  147.6430 C   0  0  0  0  0  1  0  0  0  0  0  0
  189.4660  176.9290  144.3080 N   0  0  0  0  0  2  0  0  0  0  0  0
  190.5410  176.8290  145.2420 C   0  0  0  0  0  0  0  0  0  0  0  0
  1  2  1  0  0  0  0
  2 40  1  1  0  0  0
  3  4  1  0  0  0  0
  3  6  2  0  0  0  0
  4 10  1  6  0  0  0
  4  1  1  0  0  0  0
  5  2  1  0  0  0  0
  6  5  1  0  0  0  0
  8 12  1  0  0  0  0
  9 12  2  0  0  0  0
  9 16  1  0  0  0  0
 10  7  2  0  0  0  0
 11 13  1  1  0  0  0
 11  7  1  0  0  0  0
 11  9  1  0  0  0  0
 13  8  2  0  0  0  0
 14 13  1  0  0  0  0
 14 15  2  0  0  0  0
 15 10  1  0  0  0  0
 16 17  1  1  0  0  0
 16 18  1  0  0  0  0
 18 19  2  0  0  0  0
 19 20  1  0  0  0  0
 20 21  1  0  0  0  0
 21 22  1  0  0  0  0
 22 23  1  0  0  0  0
 23 24  2  0  0  0  0
 23 25  1  0  0  0  0
 26  6  1  0  0  0  0
 27 28  2  0  0  0  0
 27 26  1  0  0  0  0
 30 29  2  0  0  0  0
 30 31  1  0  0  0  0
 31 27  1  0  0  0  0
 32 33  2  0  0  0  0
 32 30  1  0  0  0  0
 34 35  1  0  0  0  0
 34 32  1  0  0  0  0
 35 37  1  0  0  0  0
 37 36  1  6  0  0  0
 37 39  1  0  0  0  0
 38 39  2  0  0  0  0
 40 41  2  0  0  0  0
 41 45  1  0  0  0  0
 42 44  1  0  0  0  0
 43 46  2  0  0  0  0
 45 46  1  0  0  0  0
 46 42  1  0  0  0  0
M  END
>  <MODEL>
3

>  <REMARK>
 VINA RESULT:      -7.6      3.070     10.053
  Name = 
  15 active torsions:
  status: ('A' for Active; 'I' for Inactive)
    1  A    between atoms: N_1  and  C_15
    2  A    between atoms: C_2  and  C_17
    3  A    between atoms: C_3  and  C_36
    4  A    between atoms: C_3  and  C_42
    5  A    between atoms: C_7  and  C_20
    6  A    between atoms: N_8  and  C_30
    7  A    between atoms: C_9  and  C_41
    8  A    between atoms: O_13  and  C_17
    9  A    between atoms: O_13  and  C_41
   10  A    between atoms: C_15  and  C_16
   11  A    between atoms: C_18  and  C_19
   12  A    between atoms: C_24  and  C_28
   13  A    between atoms: C_28  and  C_39
   14  A    between atoms: N_34  and  C_38
   15  A    between atoms: C_36  and  C_39
                            x       y       z     vdW  Elec       q    Type
                         _______ _______ _______ _____ _____    ______ ____

>  <TORSDO>
F 15

$$$$
=
 OpenBabel11032421023D

 46 48  0  0  1  0  0  0  0  0999 V2000
  191.1430  176.2890  139.2560 N   0  0  0  0  0  2  0  0  0  0  0  0
  191.0230  176.6890  137.8600 C   0  0  2  0  0  3  0  0  0  0  0  0
  188.8940  177.1640  139.6350 C   0  0  0  0  0  3  0  0  0  0  0  0
  190.3440  177.2260  140.0430 C   0  0  1  0  0  3  0  0  0  0  0  0
  189.5920  176.4300  137.3700 C   0  0  0  0  0  2  0  0  0  0  0  0
  188.5450  176.8610  138.3810 C   0  0  0  0  0  0  0  0  0  0  0  0
  189.5240  176.7240  142.2460 N   0  0  0  0  0  0  0  0  0  0  0  0
  190.4820  178.1320  145.1150 N   0  0  0  0  0  0  0  0  0  0  0  0
  188.5360  177.2020  144.4370 C   0  0  0  0  0  0  0  0  0  0  0  0
  190.5650  176.9800  141.5030 C   0  0  0  0  0  0  0  0  0  0  0  0
  189.6200  176.5060  143.6900 C   0  0  2  0  0  3  0  0  0  0  0  0
  189.0690  178.0930  145.2670 C   0  0  0  0  0  3  0  0  0  0  0  0
  190.7950  177.2500  144.2260 C   0  0  0  0  0  0  0  0  0  0  0  0
  191.9800  177.3690  143.4390 N   0  0  0  0  0  0  0  0  0  0  0  0
  191.8880  177.2320  142.1470 C   0  0  0  0  0  3  0  0  0  0  0  0
  187.0680  176.9990  144.2000 C   0  0  1  0  0  3  0  0  0  0  0  0
  186.2580  177.1750  145.4730 C   0  0  0  0  0  1  0  0  0  0  0  0
  186.6040  177.9170  143.1900 N   0  0  0  0  0  0  0  0  0  0  0  0
  185.4080  178.3780  143.2400 C   0  0  0  0  0  3  0  0  0  0  0  0
  184.8890  179.2750  142.1650 C   0  0  0  0  0  2  0  0  0  0  0  0
  183.7680  178.7100  141.5520 O   0  0  0  0  0  0  0  0  0  0  0  0
  184.1670  178.5000  140.2290 C   0  0  0  0  0  2  0  0  0  0  0  0
  183.5490  179.5270  139.3450 C   0  0  0  0  0  0  0  0  0  0  0  0
  182.2230  179.3970  138.9500 O   0  0  0  0  0  1  0  0  0  0  0  0
  184.2340  180.5000  138.9350 O   0  0  0  0  0  0  0  0  0  0  0  0
  187.1490  176.8120  138.0620 N   0  0  0  0  0  2  0  0  0  0  0  0
  186.4020  177.8120  137.3580 C   0  0  0  0  0  0  0  0  0  0  0  0
  186.9140  178.9360  137.1090 O   0  0  0  0  0  0  0  0  0  0  0  0
  184.9840  175.2690  137.4280 O   0  0  0  0  0  0  0  0  0  0  0  0
  184.3690  176.3060  137.0520 C   0  0  0  0  0  0  0  0  0  0  0  0
  185.0490  177.5660  136.9590 N   0  0  0  0  0  2  0  0  0  0  0  0
  182.9430  176.2200  136.6960 C   0  0  0  0  0  0  0  0  0  0  0  0
  182.4740  176.9400  135.7300 N   0  0  0  0  0  2  0  0  0  0  0  0
  182.0030  175.3710  137.4930 C   0  0  0  0  0  2  0  0  0  0  0  0
  181.9500  175.8030  138.9630 C   0  0  0  0  0  2  0  0  0  0  0  0
  179.6610  176.8450  138.7050 C   0  0  0  0  0  1  0  0  0  0  0  0
  180.5330  175.9170  139.5370 C   0  0  1  0  0  3  0  0  0  0  0  0
  179.4810  174.1690  140.9180 C   0  0  0  0  0  2  0  0  0  0  0  0
  179.8930  174.5740  139.7190 C   0  0  0  0  0  3  0  0  0  0  0  0
  192.0100  175.9280  137.0460 C   0  0  0  0  0  3  0  0  0  0  0  0
  193.2750  176.3180  136.9620 C   0  0  0  0  0  3  0  0  0  0  0  0
  196.1330  174.0450  135.9700 N   0  0  0  0  0  2  0  0  0  0  0  0
  195.4840  174.9160  138.0360 O   0  0  0  0  0  0  0  0  0  0  0  0
  197.2560  173.2990  136.5150 C   0  0  0  0  0  1  0  0  0  0  0  0
  194.2000  175.5540  136.1940 N   0  0  0  0  0  2  0  0  0  0  0  0
  195.2820  174.8410  136.7930 C   0  0  0  0  0  0  0  0  0  0  0  0
  1  4  1  0  0  0  0
  2 40  1  6  0  0  0
  2  1  1  0  0  0  0
  3  4  1  0  0  0  0
  4 10  1  1  0  0  0
  5  2  1  0  0  0  0
  5  6  1  0  0  0  0
  6  3  2  0  0  0  0
  8 12  1  0  0  0  0
  9 12  2  0  0  0  0
 10 15  1  0  0  0  0
 10  7  2  0  0  0  0
 11  7  1  6  0  0  0
 11 13  1  0  0  0  0
 11  9  1  0  0  0  0
 13  8  2  0  0  0  0
 14 13  1  0  0  0  0
 15 14  2  0  0  0  0
 16  9  1  0  0  0  0
 16 17  1  1  0  0  0
 18 19  2  0  0  0  0
 18 16  1  0  0  0  0
 20 19  1  0  0  0  0
 21 20  1  0  0  0  0
 22 21  1  0  0  0  0
 23 22  1  0  0  0  0
 24 23  1  0  0  0  0
 25 23  2  0  0  0  0
 26  6  1  0  0  0  0
 27 26  1  0  0  0  0
 28 27  2  0  0  0  0
 30 29  2  0  0  0  0
 31 30  1  0  0  0  0
 31 27  1  0  0  0  0
 32 30  1  0  0  0  0
 32 34  1  0  0  0  0
 33 32  2  0  0  0  0
 34 35  1  0  0  0  0
 35 37  1  0  0  0  0
 37 36  1  6  0  0  0
 37 39  1  0  0  0  0
 39 38  2  0  0  0  0
 41 40  2  0  0  0  0
 42 44  1  0  0  0  0
 42 46  1  0  0  0  0
 45 46  1  0  0  0  0
 45 41  1  0  0  0  0
 46 43  2  0  0  0  0
M  END
>  <MODEL>
4

>  <REMARK>
 VINA RESULT:      -7.5      2.850      4.055
  Name = 
  15 active torsions:
  status: ('A' for Active; 'I' for Inactive)
    1  A    between atoms: N_1  and  C_15
    2  A    between atoms: C_2  and  C_17
    3  A    between atoms: C_3  and  C_36
    4  A    between atoms: C_3  and  C_42
    5  A    between atoms: C_7  and  C_20
    6  A    between atoms: N_8  and  C_30
    7  A    between atoms: C_9  and  C_41
    8  A    between atoms: O_13  and  C_17
    9  A    between atoms: O_13  and  C_41
   10  A    between atoms: C_15  and  C_16
   11  A    between atoms: C_18  and  C_19
   12  A    between atoms: C_24  and  C_28
   13  A    between atoms: C_28  and  C_39
   14  A    between atoms: N_34  and  C_38
   15  A    between atoms: C_36  and  C_39
                            x       y       z     vdW  Elec       q    Type
                         _______ _______ _______ _____ _____    ______ ____

>  <TORSDO>
F 15

$$$$
=
 OpenBabel11032421023D

 46 48  0  0  1  0  0  0  0  0999 V2000
  190.4390  176.9370  137.2210 N   0  0  0  0  0  2  0  0  0  0  0  0
  191.5010  176.2230  137.9180 C   0  0  2  0  0  3  0  0  0  0  0  0
  189.0650  176.7250  139.2290 C   0  0  0  0  0  3  0  0  0  0  0  0
  189.1690  176.4460  137.7510 C   0  0  1  0  0  3  0  0  0  0  0  0
  191.5400  176.6620  139.3880 C   0  0  0  0  0  2  0  0  0  0  0  0
  190.1560  176.7590  140.0010 C   0  0  0  0  0  0  0  0  0  0  0  0
  187.0090  177.4870  137.6030 N   0  0  0  0  0  0  0  0  0  0  0  0
  184.5550  176.7300  135.4730 N   0  0  0  0  0  0  0  0  0  0  0  0
  184.5600  177.5840  137.5660 C   0  0  0  0  0  0  0  0  0  0  0  0
  188.0340  177.0100  136.9550 C   0  0  0  0  0  0  0  0  0  0  0  0
  185.8290  178.0280  136.9250 C   0  0  2  0  0  3  0  0  0  0  0  0
  183.8430  176.8810  136.6950 C   0  0  0  0  0  3  0  0  0  0  0  0
  185.6720  177.3640  135.6010 C   0  0  0  0  0  0  0  0  0  0  0  0
  186.8280  177.0010  134.8460 N   0  0  0  0  0  0  0  0  0  0  0  0
  187.9580  176.8410  135.4740 C   0  0  0  0  0  3  0  0  0  0  0  0
  184.2070  177.8080  139.0080 C   0  0  1  0  0  3  0  0  0  0  0  0
  184.0960  179.2870  139.3410 C   0  0  0  0  0  1  0  0  0  0  0  0
  182.9680  177.1390  139.3180 N   0  0  0  0  0  0  0  0  0  0  0  0
  182.0000  177.7920  139.8490 C   0  0  0  0  0  3  0  0  0  0  0  0
  180.7350  177.0990  140.2390 C   0  0  0  0  0  2  0  0  0  0  0  0
  180.2040  177.6660  141.4000 O   0  0  0  0  0  0  0  0  0  0  0  0
  180.8740  178.8860  141.5260 C   0  0  0  0  0  2  0  0  0  0  0  0
  180.5710  179.4960  142.8510 C   0  0  0  0  0  0  0  0  0  0  0  0
  180.7120  178.7440  144.0110 O   0  0  0  0  0  1  0  0  0  0  0  0
  180.1650  180.6850  142.9190 O   0  0  0  0  0  0  0  0  0  0  0  0
  189.9860  177.0380  141.3960 N   0  0  0  0  0  2  0  0  0  0  0  0
  189.1400  178.0470  141.9640 C   0  0  0  0  0  0  0  0  0  0  0  0
  188.5920  178.9110  141.2300 O   0  0  0  0  0  0  0  0  0  0  0  0
  189.9250  176.0660  143.9490 O   0  0  0  0  0  0  0  0  0  0  0  0
  189.3770  177.1370  144.3330 C   0  0  0  0  0  0  0  0  0  0  0  0
  188.9340  178.1130  143.3790 N   0  0  0  0  0  2  0  0  0  0  0  0
  189.1820  177.3820  145.7720 C   0  0  0  0  0  0  0  0  0  0  0  0
  190.1870  177.3090  146.5820 N   0  0  0  0  0  2  0  0  0  0  0  0
  187.8150  177.6340  146.3280 C   0  0  0  0  0  2  0  0  0  0  0  0
  186.7200  177.4070  145.2790 C   0  0  0  0  0  2  0  0  0  0  0  0
  185.5080  179.0030  146.8200 C   0  0  0  0  0  1  0  0  0  0  0  0
  185.4190  178.1700  145.5510 C   0  0  1  0  0  3  0  0  0  0  0  0
  184.3360  178.4560  143.3560 C   0  0  0  0  0  2  0  0  0  0  0  0
  184.9990  178.9980  144.3750 C   0  0  0  0  0  3  0  0  0  0  0  0
  192.8010  176.5000  137.2450 C   0  0  0  0  0  2  0  0  0  0  0  0
  193.8110  175.6450  137.3290 C   0  0  0  0  0  3  0  0  0  0  0  0
  197.2410  175.2880  135.7700 N   0  0  0  0  0  2  0  0  0  0  0  0
  195.9510  173.8170  137.0430 O   0  0  0  0  0  0  0  0  0  0  0  0
  198.3360  174.3480  135.5950 C   0  0  0  0  0  1  0  0  0  0  0  0
  195.0330  175.9280  136.6530 N   0  0  0  0  0  0  0  0  0  0  0  0
  196.0700  174.9560  136.5140 C   0  0  0  0  0  0  0  0  0  0  0  0
  1  4  1  0  0  0  0
  1  2  1  0  0  0  0
  2 40  1  6  0  0  0
  2  5  1  0  0  0  0
  3  6  2  0  0  0  0
  4 10  1  6  0  0  0
  4  3  1  0  0  0  0
  5  6  1  0  0  0  0
  6 26  1  0  0  0  0
  8 13  2  0  0  0  0
  8 12  1  0  0  0  0
  9 16  1  0  0  0  0
 10  7  2  0  0  0  0
 11 13  1  6  0  0  0
 11  9  1  0  0  0  0
 11  7  1  0  0  0  0
 12  9  2  0  0  0  0
 14 15  2  0  0  0  0
 14 13  1  0  0  0  0
 15 10  1  0  0  0  0
 16 18  1  0  0  0  0
 16 17  1  6  0  0  0
 18 19  2  0  0  0  0
 19 20  1  0  0  0  0
 20 21  1  0  0  0  0
 21 22  1  0  0  0  0
 22 23  1  0  0  0  0
 23 25  2  0  0  0  0
 23 24  1  0  0  0  0
 26 27  1  0  0  0  0
 27 31  1  0  0  0  0
 28 27  2  0  0  0  0
 29 30  2  0  0  0  0
 30 32  1  0  0  0  0
 31 30  1  0  0  0  0
 32 34  1  0  0  0  0
 32 33  2  0  0  0  0
 35 37  1  0  0  0  0
 35 34  1  0  0  0  0
 37 36  1  1  0  0  0
 38 39  2  0  0  0  0
 39 37  1  0  0  0  0
 40 41  1  0  0  0  0
 42 46  1  0  0  0  0
 44 42  1  0  0  0  0
 45 41  2  0  0  0  0
 46 45  1  0  0  0  0
 46 43  2  0  0  0  0
M  END
>  <MODEL>
5

>  <REMARK>
 VINA RESULT:      -7.3      2.949      7.114
  Name = 
  15 active torsions:
  status: ('A' for Active; 'I' for Inactive)
    1  A    between atoms: N_1  and  C_15
    2  A    between atoms: C_2  and  C_17
    3  A    between atoms: C_3  and  C_36
    4  A    between atoms: C_3  and  C_42
    5  A    between atoms: C_7  and  C_20
    6  A    between atoms: N_8  and  C_30
    7  A    between atoms: C_9  and  C_41
    8  A    between atoms: O_13  and  C_17
    9  A    between atoms: O_13  and  C_41
   10  A    between atoms: C_15  and  C_16
   11  A    between atoms: C_18  and  C_19
   12  A    between atoms: C_24  and  C_28
   13  A    between atoms: C_28  and  C_39
   14  A    between atoms: N_34  and  C_38
   15  A    between atoms: C_36  and  C_39
                            x       y       z     vdW  Elec       q    Type
                         _______ _______ _______ _____ _____    ______ ____

>  <TORSDO>
F 15

$$$$
=
 OpenBabel11032421023D

 46 48  0  0  1  0  0  0  0  0999 V2000
  189.0420  177.7630  144.0410 N   0  0  0  0  0  2  0  0  0  0  0  0
  188.3090  177.2240  145.1800 C   0  0  2  0  0  3  0  0  0  0  0  0
  187.0260  177.4810  142.6910 C   0  0  0  0  0  3  0  0  0  0  0  0
  188.4880  177.1430  142.8400 C   0  0  1  0  0  3  0  0  0  0  0  0
  186.8640  177.7370  145.1530 C   0  0  0  0  0  2  0  0  0  0  0  0
  186.2570  177.6910  143.7640 C   0  0  0  0  0  0  0  0  0  0  0  0
  188.6890  177.8810  140.5620 N   0  0  0  0  0  0  0  0  0  0  0  0
  190.8000  176.7210  138.2530 N   0  0  0  0  0  0  0  0  0  0  0  0
  188.7430  177.6500  138.1220 C   0  0  0  0  0  0  0  0  0  0  0  0
  189.3120  177.5200  141.6480 C   0  0  0  0  0  0  0  0  0  0  0  0
  189.3950  178.2330  139.3280 C   0  0  2  0  0  3  0  0  0  0  0  0
  189.5890  176.8240  137.5150 C   0  0  0  0  0  3  0  0  0  0  0  0
  190.6920  177.5030  139.2750 C   0  0  0  0  0  0  0  0  0  0  0  0
  191.4250  177.2680  140.4760 N   0  0  0  0  0  0  0  0  0  0  0  0
  190.7860  177.2840  141.6110 C   0  0  0  0  0  3  0  0  0  0  0  0
  187.3130  177.8810  137.7270 C   0  0  1  0  0  3  0  0  0  0  0  0
  187.2030  178.6700  136.4330 C   0  0  0  0  0  1  0  0  0  0  0  0
  186.6320  176.6170  137.5940 N   0  0  0  0  0  0  0  0  0  0  0  0
  185.9940  176.3410  136.5150 C   0  0  0  0  0  3  0  0  0  0  0  0
  185.2260  175.0670  136.3870 C   0  0  0  0  0  2  0  0  0  0  0  0
  184.6480  174.7180  137.6100 O   0  0  0  0  0  0  0  0  0  0  0  0
  183.3330  175.1830  137.5150 C   0  0  0  0  0  2  0  0  0  0  0  0
  183.0290  176.0820  138.6620 C   0  0  0  0  0  0  0  0  0  0  0  0
  182.2380  175.6290  139.7110 O   0  0  0  0  0  1  0  0  0  0  0  0
  183.4710  177.2610  138.6730 O   0  0  0  0  0  0  0  0  0  0  0  0
  184.8770  178.0160  143.5510 N   0  0  0  0  0  2  0  0  0  0  0  0
  184.0370  178.7740  144.4320 C   0  0  0  0  0  0  0  0  0  0  0  0
  184.4300  179.0750  145.5900 O   0  0  0  0  0  0  0  0  0  0  0  0
  182.8960  178.5900  141.7590 O   0  0  0  0  0  0  0  0  0  0  0  0
  182.1790  179.0200  142.7050 C   0  0  0  0  0  0  0  0  0  0  0  0
  182.7230  179.1700  144.0250 N   0  0  0  0  0  2  0  0  0  0  0  0
  180.7740  179.3820  142.4510 C   0  0  0  0  0  0  0  0  0  0  0  0
  180.2890  180.4730  142.9470 N   0  0  0  0  0  2  0  0  0  0  0  0
  179.8700  178.4600  141.6950 C   0  0  0  0  0  2  0  0  0  0  0  0
  179.4340  179.0610  140.3530 C   0  0  0  0  0  2  0  0  0  0  0  0
  179.5230  177.4910  138.3730 C   0  0  0  0  0  1  0  0  0  0  0  0
  180.2520  178.5760  139.1510 C   0  0  1  0  0  3  0  0  0  0  0  0
  181.1820  179.4820  137.0570 C   0  0  0  0  0  2  0  0  0  0  0  0
  180.6660  179.7100  138.2620 C   0  0  0  0  0  3  0  0  0  0  0  0
  188.9950  177.6270  146.4390 C   0  0  0  0  0  3  0  0  0  0  0  0
  190.1620  177.0980  146.7830 C   0  0  0  0  0  3  0  0  0  0  0  0
  192.6710  177.5040  149.5870 N   0  0  0  0  0  2  0  0  0  0  0  0
  192.6110  176.0660  147.7490 O   0  0  0  0  0  0  0  0  0  0  0  0
  193.9430  176.9990  150.0790 C   0  0  0  0  0  1  0  0  0  0  0  0
  190.8030  177.5230  147.9820 N   0  0  0  0  0  2  0  0  0  0  0  0
  192.0550  176.9870  148.4080 C   0  0  0  0  0  0  0  0  0  0  0  0
  1  2  1  0  0  0  0
  2 40  1  1  0  0  0
  3  4  1  0  0  0  0
  3  6  2  0  0  0  0
  4 10  1  6  0  0  0
  4  1  1  0  0  0  0
  5  2  1  0  0  0  0
  6  5  1  0  0  0  0
  7 10  2  0  0  0  0
  8 13  2  0  0  0  0
 11  9  1  6  0  0  0
 11  7  1  0  0  0  0
 12  9  2  0  0  0  0
 12  8  1  0  0  0  0
 13 11  1  0  0  0  0
 13 14  1  0  0  0  0
 14 15  2  0  0  0  0
 15 10  1  0  0  0  0
 16 17  1  6  0  0  0
 16  9  1  0  0  0  0
 18 16  1  0  0  0  0
 19 18  2  0  0  0  0
 20 19  1  0  0  0  0
 20 21  1  0  0  0  0
 22 21  1  0  0  0  0
 22 23  1  0  0  0  0
 23 25  2  0  0  0  0
 23 24  1  0  0  0  0
 26  6  1  0  0  0  0
 26 27  1  0  0  0  0
 27 28  2  0  0  0  0
 29 30  2  0  0  0  0
 30 31  1  0  0  0  0
 31 27  1  0  0  0  0
 32 30  1  0  0  0  0
 32 33  2  0  0  0  0
 34 32  1  0  0  0  0
 35 34  1  0  0  0  0
 37 36  1  6  0  0  0
 37 35  1  0  0  0  0
 38 39  2  0  0  0  0
 39 37  1  0  0  0  0
 40 41  2  0  0  0  0
 41 45  1  0  0  0  0
 42 44  1  0  0  0  0
 43 46  2  0  0  0  0
 45 46  1  0  0  0  0
 46 42  1  0  0  0  0
M  END
>  <MODEL>
6

>  <REMARK>
 VINA RESULT:      -7.3      2.931      7.015
  Name = 
  15 active torsions:
  status: ('A' for Active; 'I' for Inactive)
    1  A    between atoms: N_1  and  C_15
    2  A    between atoms: C_2  and  C_17
    3  A    between atoms: C_3  and  C_36
    4  A    between atoms: C_3  and  C_42
    5  A    between atoms: C_7  and  C_20
    6  A    between atoms: N_8  and  C_30
    7  A    between atoms: C_9  and  C_41
    8  A    between atoms: O_13  and  C_17
    9  A    between atoms: O_13  and  C_41
   10  A    between atoms: C_15  and  C_16
   11  A    between atoms: C_18  and  C_19
   12  A    between atoms: C_24  and  C_28
   13  A    between atoms: C_28  and  C_39
   14  A    between atoms: N_34  and  C_38
   15  A    between atoms: C_36  and  C_39
                            x       y       z     vdW  Elec       q    Type
                         _______ _______ _______ _____ _____    ______ ____

>  <TORSDO>
F 15

$$$$
=
 OpenBabel11032421023D

 46 48  0  0  1  0  0  0  0  0999 V2000
  189.0660  177.8020  144.0490 N   0  0  0  0  0  2  0  0  0  0  0  0
  188.3520  177.2670  145.2010 C   0  0  2  0  0  3  0  0  0  0  0  0
  187.0370  177.4900  142.7250 C   0  0  0  0  0  3  0  0  0  0  0  0
  188.5030  177.1670  142.8590 C   0  0  1  0  0  3  0  0  0  0  0  0
  186.9010  177.7670  145.1870 C   0  0  0  0  0  2  0  0  0  0  0  0
  186.2780  177.7020  143.8060 C   0  0  0  0  0  0  0  0  0  0  0  0
  188.6720  177.8050  140.5490 N   0  0  0  0  0  0  0  0  0  0  0  0
  190.8750  176.6800  138.3100 N   0  0  0  0  0  0  0  0  0  0  0  0
  188.7610  177.4590  138.1240 C   0  0  0  0  0  0  0  0  0  0  0  0
  189.3100  177.5400  141.6550 C   0  0  0  0  0  0  0  0  0  0  0  0
  189.3620  178.1440  139.3020 C   0  0  2  0  0  3  0  0  0  0  0  0
  189.6660  176.6630  137.5620 C   0  0  0  0  0  3  0  0  0  0  0  0
  190.7070  177.5010  139.2910 C   0  0  0  0  0  0  0  0  0  0  0  0
  191.4440  177.3760  140.5070 N   0  0  0  0  0  0  0  0  0  0  0  0
  190.7960  177.4040  141.6360 C   0  0  0  0  0  3  0  0  0  0  0  0
  187.3230  177.5720  137.7110 C   0  0  1  0  0  3  0  0  0  0  0  0
  187.1250  178.6180  136.6270 C   0  0  0  0  0  1  0  0  0  0  0  0
  186.8420  176.2920  137.2550 N   0  0  0  0  0  0  0  0  0  0  0  0
  185.9150  176.2310  136.3700 C   0  0  0  0  0  3  0  0  0  0  0  0
  185.3580  174.9150  135.9370 C   0  0  0  0  0  2  0  0  0  0  0  0
  185.0600  174.1200  137.0460 O   0  0  0  0  0  0  0  0  0  0  0  0
  183.7480  173.6930  136.8230 C   0  0  0  0  0  2  0  0  0  0  0  0
  182.8010  174.5470  137.5910 C   0  0  0  0  0  0  0  0  0  0  0  0
  181.4410  174.5080  137.3070 O   0  0  0  0  0  0  0  0  0  0  0  0
  183.2340  175.3230  138.4830 O   0  0  0  0  0  1  0  0  0  0  0  0
  184.8930  178.0130  143.6060 N   0  0  0  0  0  2  0  0  0  0  0  0
  184.0480  178.7420  144.5060 C   0  0  0  0  0  0  0  0  0  0  0  0
  184.4440  179.0250  145.6680 O   0  0  0  0  0  0  0  0  0  0  0  0
  182.8940  178.5960  141.8370 O   0  0  0  0  0  0  0  0  0  0  0  0
  182.1780  178.9980  142.7950 C   0  0  0  0  0  0  0  0  0  0  0  0
  182.7270  179.1280  144.1140 N   0  0  0  0  0  2  0  0  0  0  0  0
  180.7660  179.3460  142.5550 C   0  0  0  0  0  0  0  0  0  0  0  0
  180.3360  180.5310  142.8430 N   0  0  0  0  0  2  0  0  0  0  0  0
  179.7970  178.3190  142.0610 C   0  0  0  0  0  2  0  0  0  0  0  0
  179.3930  178.5690  140.6030 C   0  0  0  0  0  2  0  0  0  0  0  0
  181.1950  178.2520  138.8580 C   0  0  0  0  0  1  0  0  0  0  0  0
  180.0330  177.6060  139.5970 C   0  0  1  0  0  3  0  0  0  0  0  0
  179.6050  175.2760  140.2760 C   0  0  0  0  0  2  0  0  0  0  0  0
  180.4380  176.3130  140.2390 C   0  0  0  0  0  3  0  0  0  0  0  0
  189.0490  177.6870  146.4480 C   0  0  0  0  0  3  0  0  0  0  0  0
  190.1410  177.0620  146.8660 C   0  0  0  0  0  3  0  0  0  0  0  0
  192.6880  177.5120  149.6290 N   0  0  0  0  0  2  0  0  0  0  0  0
  192.6060  176.0490  147.8120 O   0  0  0  0  0  0  0  0  0  0  0  0
  193.9670  177.0170  150.1100 C   0  0  0  0  0  1  0  0  0  0  0  0
  190.7980  177.5050  148.0500 N   0  0  0  0  0  2  0  0  0  0  0  0
  192.0570  176.9780  148.4660 C   0  0  0  0  0  0  0  0  0  0  0  0
  1  2  1  0  0  0  0
  2 40  1  1  0  0  0
  3  4  1  0  0  0  0
  3  6  2  0  0  0  0
  4 10  1  6  0  0  0
  4  1  1  0  0  0  0
  5  2  1  0  0  0  0
  6  5  1  0  0  0  0
  7 10  2  0  0  0  0
  8 13  2  0  0  0  0
 11  9  1  6  0  0  0
 11  7  1  0  0  0  0
 12  9  2  0  0  0  0
 12  8  1  0  0  0  0
 13 11  1  0  0  0  0
 13 14  1  0  0  0  0
 14 15  2  0  0  0  0
 15 10  1  0  0  0  0
 16 17  1  6  0  0  0
 16  9  1  0  0  0  0
 18 16  1  0  0  0  0
 19 18  2  0  0  0  0
 20 19  1  0  0  0  0
 20 21  1  0  0  0  0
 22 21  1  0  0  0  0
 22 23  1  0  0  0  0
 23 25  1  0  0  0  0
 24 23  2  0  0  0  0
 26  6  1  0  0  0  0
 26 27  1  0  0  0  0
 27 28  2  0  0  0  0
 29 30  2  0  0  0  0
 30 31  1  0  0  0  0
 31 27  1  0  0  0  0
 32 30  1  0  0  0  0
 32 33  2  0  0  0  0
 34 32  1  0  0  0  0
 35 34  1  0  0  0  0
 37 36  1  1  0  0  0
 37 39  1  0  0  0  0
 37 35  1  0  0  0  0
 39 38  2  0  0  0  0
 40 41  2  0  0  0  0
 41 45  1  0  0  0  0
 42 44  1  0  0  0  0
 43 46  2  0  0  0  0
 45 46  1  0  0  0  0
 46 42  1  0  0  0  0
M  END
>  <MODEL>
7

>  <REMARK>
 VINA RESULT:      -7.2      3.297      7.419
  Name = 
  15 active torsions:
  status: ('A' for Active; 'I' for Inactive)
    1  A    between atoms: N_1  and  C_15
    2  A    between atoms: C_2  and  C_17
    3  A    between atoms: C_3  and  C_36
    4  A    between atoms: C_3  and  C_42
    5  A    between atoms: C_7  and  C_20
    6  A    between atoms: N_8  and  C_30
    7  A    between atoms: C_9  and  C_41
    8  A    between atoms: O_13  and  C_17
    9  A    between atoms: O_13  and  C_41
   10  A    between atoms: C_15  and  C_16
   11  A    between atoms: C_18  and  C_19
   12  A    between atoms: C_24  and  C_28
   13  A    between atoms: C_28  and  C_39
   14  A    between atoms: N_34  and  C_38
   15  A    between atoms: C_36  and  C_39
                            x       y       z     vdW  Elec       q    Type
                         _______ _______ _______ _____ _____    ______ ____

>  <TORSDO>
F 15

$$$$
=
 OpenBabel11032421023D

 46 48  0  0  1  0  0  0  0  0999 V2000
  191.1990  176.3250  139.5400 N   0  0  0  0  0  2  0  0  0  0  0  0
  191.2350  176.8180  138.1690 C   0  0  2  0  0  3  0  0  0  0  0  0
  188.9270  177.2000  139.7300 C   0  0  0  0  0  3  0  0  0  0  0  0
  190.3240  177.2180  140.2960 C   0  0  1  0  0  3  0  0  0  0  0  0
  189.8640  176.6090  137.5100 C   0  0  0  0  0  2  0  0  0  0  0  0
  188.7160  176.9850  138.4270 C   0  0  0  0  0  0  0  0  0  0  0  0
  189.2580  176.7660  142.4020 N   0  0  0  0  0  0  0  0  0  0  0  0
  190.2040  177.8610  145.4090 N   0  0  0  0  0  0  0  0  0  0  0  0
  188.1910  177.3090  144.5410 C   0  0  0  0  0  0  0  0  0  0  0  0
  190.3830  176.8730  141.7520 C   0  0  0  0  0  0  0  0  0  0  0  0
  189.2000  176.4710  143.8350 C   0  0  2  0  0  3  0  0  0  0  0  0
  188.7970  178.0580  145.4570 C   0  0  0  0  0  3  0  0  0  0  0  0
  190.4350  176.9780  144.4950 C   0  0  0  0  0  0  0  0  0  0  0  0
  191.6820  176.9270  143.8040 N   0  0  0  0  0  0  0  0  0  0  0  0
  191.6730  176.8660  142.5020 C   0  0  0  0  0  3  0  0  0  0  0  0
  186.7330  177.3710  144.1880 C   0  0  1  0  0  3  0  0  0  0  0  0
  185.9500  178.2370  145.1610 C   0  0  0  0  0  1  0  0  0  0  0  0
  186.5760  177.8720  142.8450 N   0  0  0  0  0  0  0  0  0  0  0  0
  185.5260  178.5380  142.5260 C   0  0  0  0  0  3  0  0  0  0  0  0
  185.3160  179.0040  141.1230 C   0  0  0  0  0  2  0  0  0  0  0  0
  184.3070  178.2620  140.5060 O   0  0  0  0  0  0  0  0  0  0  0  0
  183.5430  179.2150  139.8260 C   0  0  0  0  0  2  0  0  0  0  0  0
  182.1120  178.8010  139.8130 C   0  0  0  0  0  0  0  0  0  0  0  0
  181.7270  177.6100  140.4160 O   0  0  0  0  0  1  0  0  0  0  0  0
  181.2550  179.5190  139.2350 O   0  0  0  0  0  0  0  0  0  0  0  0
  187.3630  176.9730  137.9560 N   0  0  0  0  0  2  0  0  0  0  0  0
  186.7000  178.0290  137.2480 C   0  0  0  0  0  0  0  0  0  0  0  0
  187.2400  179.1620  137.1360 O   0  0  0  0  0  0  0  0  0  0  0  0
  185.2750  175.5040  136.9820 O   0  0  0  0  0  0  0  0  0  0  0  0
  184.7080  176.5710  136.6160 C   0  0  0  0  0  0  0  0  0  0  0  0
  185.3980  177.8270  136.6880 N   0  0  0  0  0  2  0  0  0  0  0  0
  183.3290  176.5260  136.1020 C   0  0  0  0  0  0  0  0  0  0  0  0
  182.4820  177.4410  136.4430 N   0  0  0  0  0  2  0  0  0  0  0  0
  182.8640  175.3840  135.2530 C   0  0  0  0  0  2  0  0  0  0  0  0
  181.6200  174.7060  135.8380 C   0  0  0  0  0  2  0  0  0  0  0  0
  180.6270  173.7820  137.9730 C   0  0  0  0  0  1  0  0  0  0  0  0
  181.8810  173.9080  137.1200 C   0  0  1  0  0  3  0  0  0  0  0  0
  183.7570  172.3100  137.1430 C   0  0  0  0  0  2  0  0  0  0  0  0
  182.4890  172.5690  136.8320 C   0  0  0  0  0  3  0  0  0  0  0  0
  192.3020  176.1000  137.4180 C   0  0  0  0  0  3  0  0  0  0  0  0
  193.5280  175.9880  137.9100 C   0  0  0  0  0  3  0  0  0  0  0  0
  196.5930  173.9540  137.0190 N   0  0  0  0  0  2  0  0  0  0  0  0
  195.8730  174.8790  139.0370 O   0  0  0  0  0  0  0  0  0  0  0  0
  197.7880  173.3570  137.5930 C   0  0  0  0  0  1  0  0  0  0  0  0
  194.5200  175.2740  137.1770 N   0  0  0  0  0  2  0  0  0  0  0  0
  195.6720  174.7100  137.8030 C   0  0  0  0  0  0  0  0  0  0  0  0
  1  4  1  0  0  0  0
  2 40  1  6  0  0  0
  2  1  1  0  0  0  0
  3  4  1  0  0  0  0
  4 10  1  1  0  0  0
  5  2  1  0  0  0  0
  5  6  1  0  0  0  0
  6  3  2  0  0  0  0
  8 12  1  0  0  0  0
  9 12  2  0  0  0  0
 10  7  2  0  0  0  0
 10 15  1  0  0  0  0
 11  7  1  6  0  0  0
 11 13  1  0  0  0  0
 11  9  1  0  0  0  0
 13  8  2  0  0  0  0
 14 13  1  0  0  0  0
 15 14  2  0  0  0  0
 16  9  1  0  0  0  0
 16 17  1  1  0  0  0
 18 16  1  0  0  0  0
 19 18  2  0  0  0  0
 20 19  1  0  0  0  0
 21 20  1  0  0  0  0
 22 21  1  0  0  0  0
 23 22  1  0  0  0  0
 23 24  1  0  0  0  0
 25 23  2  0  0  0  0
 26  6  1  0  0  0  0
 27 26  1  0  0  0  0
 28 27  2  0  0  0  0
 30 31  1  0  0  0  0
 30 29  2  0  0  0  0
 31 27  1  0  0  0  0
 32 33  2  0  0  0  0
 32 30  1  0  0  0  0
 34 35  1  0  0  0  0
 34 32  1  0  0  0  0
 35 37  1  0  0  0  0
 37 36  1  6  0  0  0
 39 37  1  0  0  0  0
 39 38  2  0  0  0  0
 40 41  2  0  0  0  0
 42 44  1  0  0  0  0
 42 46  1  0  0  0  0
 45 46  1  0  0  0  0
 45 41  1  0  0  0  0
 46 43  2  0  0  0  0
M  END
>  <MODEL>
8

>  <REMARK>
 VINA RESULT:      -7.1      2.818      4.354
  Name = 
  15 active torsions:
  status: ('A' for Active; 'I' for Inactive)
    1  A    between atoms: N_1  and  C_15
    2  A    between atoms: C_2  and  C_17
    3  A    between atoms: C_3  and  C_36
    4  A    between atoms: C_3  and  C_42
    5  A    between atoms: C_7  and  C_20
    6  A    between atoms: N_8  and  C_30
    7  A    between atoms: C_9  and  C_41
    8  A    between atoms: O_13  and  C_17
    9  A    between atoms: O_13  and  C_41
   10  A    between atoms: C_15  and  C_16
   11  A    between atoms: C_18  and  C_19
   12  A    between atoms: C_24  and  C_28
   13  A    between atoms: C_28  and  C_39
   14  A    between atoms: N_34  and  C_38
   15  A    between atoms: C_36  and  C_39
                            x       y       z     vdW  Elec       q    Type
                         _______ _______ _______ _____ _____    ______ ____

>  <TORSDO>
F 15

$$$$
=
 OpenBabel11032421023D

 46 48  0  0  1  0  0  0  0  0999 V2000
  188.2910  177.6010  140.0210 N   0  0  0  0  0  2  0  0  0  0  0  0
  189.5070  177.9780  140.7300 C   0  0  2  0  0  3  0  0  0  0  0  0
  189.6480  177.2130  138.0280 C   0  0  0  0  0  3  0  0  0  0  0  0
  188.4810  177.9620  138.6180 C   0  0  1  0  0  3  0  0  0  0  0  0
  190.6640  177.0730  140.2870 C   0  0  0  0  0  2  0  0  0  0  0  0
  190.6910  176.8590  138.7850 C   0  0  0  0  0  0  0  0  0  0  0  0
  186.1410  178.3970  138.2840 N   0  0  0  0  0  0  0  0  0  0  0  0
  183.7770  176.1780  137.4980 N   0  0  0  0  0  0  0  0  0  0  0  0
  183.7320  178.1250  138.6460 C   0  0  0  0  0  0  0  0  0  0  0  0
  187.2010  177.7640  137.8660 C   0  0  0  0  0  0  0  0  0  0  0  0
  184.8310  178.2480  137.6480 C   0  0  2  0  0  3  0  0  0  0  0  0
  183.1300  176.9480  138.5030 C   0  0  0  0  0  3  0  0  0  0  0  0
  184.7360  176.8990  137.0220 C   0  0  0  0  0  0  0  0  0  0  0  0
  185.8920  176.3080  136.4290 N   0  0  0  0  0  0  0  0  0  0  0  0
  187.0680  176.7170  136.8110 C   0  0  0  0  0  3  0  0  0  0  0  0
  183.4330  179.1340  139.7160 C   0  0  1  0  0  3  0  0  0  0  0  0
  182.1010  178.8620  140.3960 C   0  0  0  0  0  1  0  0  0  0  0  0
  184.4930  179.1410  140.6930 N   0  0  0  0  0  0  0  0  0  0  0  0
  184.2450  178.8320  141.9130 C   0  0  0  0  0  3  0  0  0  0  0  0
  185.3170  178.9000  142.9510 C   0  0  0  0  0  2  0  0  0  0  0  0
  184.8070  178.5590  144.2060 O   0  0  0  0  0  0  0  0  0  0  0  0
  185.9300  178.1640  144.9390 C   0  0  0  0  0  2  0  0  0  0  0  0
  185.6980  178.4090  146.3900 C   0  0  0  0  0  0  0  0  0  0  0  0
  186.7650  178.3740  147.2800 O   0  0  0  0  0  1  0  0  0  0  0  0
  184.5330  178.6250  146.8140 O   0  0  0  0  0  0  0  0  0  0  0  0
  191.7640  176.1420  138.1620 N   0  0  0  0  0  2  0  0  0  0  0  0
  193.1650  176.3830  138.3420 C   0  0  0  0  0  0  0  0  0  0  0  0
  193.5640  177.4050  138.9610 O   0  0  0  0  0  0  0  0  0  0  0  0
  192.6740  173.7650  137.1670 O   0  0  0  0  0  0  0  0  0  0  0  0
  193.8500  174.2230  137.1770 C   0  0  0  0  0  0  0  0  0  0  0  0
  194.1370  175.4880  137.7910 N   0  0  0  0  0  2  0  0  0  0  0  0
  194.9410  173.4480  136.5620 C   0  0  0  0  0  0  0  0  0  0  0  0
  195.4170  172.4100  137.1680 N   0  0  0  0  0  2  0  0  0  0  0  0
  195.5690  173.8940  135.2780 C   0  0  0  0  0  2  0  0  0  0  0  0
  196.9920  173.3470  135.1190 C   0  0  0  0  0  2  0  0  0  0  0  0
  197.6240  175.7950  135.0740 C   0  0  0  0  0  1  0  0  0  0  0  0
  198.0960  174.3800  135.3710 C   0  0  1  0  0  3  0  0  0  0  0  0
  199.1750  173.1190  137.1920 C   0  0  0  0  0  2  0  0  0  0  0  0
  198.6640  174.2660  136.7530 C   0  0  0  0  0  3  0  0  0  0  0  0
  189.2740  177.8650  142.1970 C   0  0  0  0  0  3  0  0  0  0  0  0
  190.2680  178.0130  143.0610 C   0  0  0  0  0  3  0  0  0  0  0  0
  190.5320  177.1400  146.7350 N   0  0  0  0  0  2  0  0  0  0  0  0
  191.7620  176.4410  144.8780 O   0  0  0  0  0  0  0  0  0  0  0  0
  191.3090  176.3560  147.6810 C   0  0  0  0  0  1  0  0  0  0  0  0
  190.0070  177.9230  144.4590 N   0  0  0  0  0  2  0  0  0  0  0  0
  190.8120  177.1350  145.3360 C   0  0  0  0  0  0  0  0  0  0  0  0
  1  2  1  0  0  0  0
  2 40  1  1  0  0  0
  3  4  1  0  0  0  0
  3  6  2  0  0  0  0
  4 10  1  6  0  0  0
  4  1  1  0  0  0  0
  5  2  1  0  0  0  0
  6  5  1  0  0  0  0
  8 12  1  0  0  0  0
  9 16  1  0  0  0  0
 10  7  2  0  0  0  0
 11 13  1  1  0  0  0
 11  7  1  0  0  0  0
 11  9  1  0  0  0  0
 12  9  2  0  0  0  0
 13  8  2  0  0  0  0
 14 15  2  0  0  0  0
 14 13  1  0  0  0  0
 15 10  1  0  0  0  0
 16 17  1  1  0  0  0
 16 18  1  0  0  0  0
 18 19  2  0  0  0  0
 19 20  1  0  0  0  0
 20 21  1  0  0  0  0
 21 22  1  0  0  0  0
 22 23  1  0  0  0  0
 23 25  2  0  0  0  0
 23 24  1  0  0  0  0
 26 27  1  0  0  0  0
 26  6  1  0  0  0  0
 27 28  2  0  0  0  0
 29 30  2  0  0  0  0
 30 31  1  0  0  0  0
 31 27  1  0  0  0  0
 32 33  2  0  0  0  0
 32 30  1  0  0  0  0
 34 32  1  0  0  0  0
 35 34  1  0  0  0  0
 35 37  1  0  0  0  0
 37 36  1  1  0  0  0
 37 39  1  0  0  0  0
 39 38  2  0  0  0  0
 40 41  2  0  0  0  0
 41 45  1  0  0  0  0
 42 44  1  0  0  0  0
 43 46  2  0  0  0  0
 45 46  1  0  0  0  0
 46 42  1  0  0  0  0
M  END
>  <MODEL>
9

>  <REMARK>
 VINA RESULT:      -7.1      3.269     10.204
  Name = 
  15 active torsions:
  status: ('A' for Active; 'I' for Inactive)
    1  A    between atoms: N_1  and  C_15
    2  A    between atoms: C_2  and  C_17
    3  A    between atoms: C_3  and  C_36
    4  A    between atoms: C_3  and  C_42
    5  A    between atoms: C_7  and  C_20
    6  A    between atoms: N_8  and  C_30
    7  A    between atoms: C_9  and  C_41
    8  A    between atoms: O_13  and  C_17
    9  A    between atoms: O_13  and  C_41
   10  A    between atoms: C_15  and  C_16
   11  A    between atoms: C_18  and  C_19
   12  A    between atoms: C_24  and  C_28
   13  A    between atoms: C_28  and  C_39
   14  A    between atoms: N_34  and  C_38
   15  A    between atoms: C_36  and  C_39
                            x       y       z     vdW  Elec       q    Type
                         _______ _______ _______ _____ _____    ______ ____

>  <TORSDO>
F 15

$$$$
