=
 OpenBabel11032421043D

 46 50  0  0  1  0  0  0  0  0999 V2000
  185.9760  178.2370  145.6110 C   0  0  0  0  0  0  0  0  0  0  0  0
  188.3030  177.5680  145.6880 C   0  0  0  0  0  3  0  0  0  0  0  0
  186.8190  177.6220  143.6520 C   0  0  0  0  0  0  0  0  0  0  0  0
  185.4790  177.9810  143.5160 C   0  0  0  0  0  0  0  0  0  0  0  0
  187.1340  178.2850  147.7130 C   0  0  0  0  0  3  0  0  0  0  0  0
  187.1170  177.7900  144.9890 C   0  0  0  0  0  0  0  0  0  0  0  0
  185.9510  178.4980  146.9830 C   0  0  0  0  0  3  0  0  0  0  0  0
  184.9730  178.3550  144.7140 N   0  0  0  0  0  0  0  0  0  0  0  0
  188.3020  177.8170  147.0730 C   0  0  0  0  0  0  0  0  0  0  0  0
  190.3150  176.6060  147.2810 O   0  0  0  0  0  1  0  0  0  0  0  0
  189.5470  177.6130  147.8610 C   0  0  0  0  0  2  0  0  0  0  0  0
  183.6430  178.7560  144.9370 N   0  0  0  0  0  2  0  0  0  0  0  0
  182.7840  179.2950  143.8930 C   0  0  0  0  0  2  0  0  0  0  0  0
  181.4100  178.6450  143.9540 C   0  0  0  0  0  2  0  0  0  0  0  0
  180.4680  179.2890  142.9870 C   0  0  0  0  0  0  0  0  0  0  0  0
  180.4150  180.5060  142.9010 O   0  0  0  0  0  0  0  0  0  0  0  0
  179.5500  178.4320  142.1630 C   0  0  0  0  0  2  0  0  0  0  0  0
  181.9270  177.1850  140.0740 O   0  0  0  0  0  0  0  0  0  0  0  0
  179.7770  176.8830  138.5780 C   0  0  0  0  0  2  0  0  0  0  0  0
  179.2950  179.6060  139.9790 C   0  0  0  0  0  1  0  0  0  0  0  0
  179.4510  175.8540  140.8310 C   0  0  0  0  0  1  0  0  0  0  0  0
  181.4250  178.4330  140.4610 C   0  0  0  0  0  2  0  0  0  0  0  0
  181.5950  177.0850  138.3840 S   0  0  0  0  0  0  0  0  0  0  0  0
  179.8980  178.3880  140.6620 C   0  0  1  0  0  0  0  0  0  0  0  0
  179.2740  177.1260  140.0080 C   0  0  1  0  0  3  0  0  0  0  0  0
  184.6780  177.9030  142.2540 C   0  0  0  0  0  2  0  0  0  0  0  0
  185.5470  178.7220  140.0620 C   0  0  0  0  0  1  0  0  0  0  0  0
  185.7650  180.0090  142.0460 O   0  0  0  0  0  1  0  0  0  0  0  0
  184.9140  179.1260  141.3820 C   0  0  2  0  0  3  0  0  0  0  0  0
  187.7370  177.1190  142.5880 C   0  0  0  0  0  2  0  0  0  0  0  0
  188.6780  178.2240  142.1450 C   0  0  0  0  0  2  0  0  0  0  0  0
  191.5660  176.9250  140.1720 N   0  0  0  0  0  0  0  0  0  0  0  0
  190.8300  177.1150  138.9340 C   0  0  2  0  0  3  0  0  0  0  0  0
  189.1580  177.7330  139.3530 S   0  0  0  0  0  0  0  0  0  0  0  0
  191.4370  177.2320  142.6830 C   0  0  0  0  0  1  0  0  0  0  0  0
  190.8300  177.2920  141.3240 C   0  0  0  0  0  0  0  0  0  0  0  0
  189.6030  177.7220  141.0850 C   0  0  1  0  0  3  0  0  0  0  0  0
  191.8400  175.3540  137.3930 N   0  0  0  0  0  0  0  0  0  0  0  0
  195.3260  173.5280  136.0960 C   0  0  0  0  0  1  0  0  0  0  0  0
  193.0040  176.2090  137.1660 C   0  0  0  0  0  2  0  0  0  0  0  0
  191.7040  174.1370  136.5940 C   0  0  0  0  0  2  0  0  0  0  0  0
  190.7330  175.8260  138.1760 C   0  0  0  0  0  0  0  0  0  0  0  0
  194.0970  174.2990  136.1000 N   0  0  0  0  0  0  0  0  0  0  0  0
  193.0390  173.3990  136.5580 C   0  0  0  0  0  2  0  0  0  0  0  0
  194.2660  175.3530  137.0980 C   0  0  0  0  0  2  0  0  0  0  0  0
  189.6590  175.1640  138.2130 O   0  0  0  0  0  0  0  0  0  0  0  0
  1  7  1  0  0  0  0
  2  9  2  0  0  0  0
  3  6  1  0  0  0  0
  4  3  2  0  0  0  0
  4  8  1  0  0  0  0
  6  1  2  0  0  0  0
  6  2  1  0  0  0  0
  7  5  2  0  0  0  0
  8 12  1  0  0  0  0
  8  1  1  0  0  0  0
  9  5  1  0  0  0  0
  9 11  1  0  0  0  0
 10 11  1  0  0  0  0
 13 14  1  0  0  0  0
 13 12  1  0  0  0  0
 15 14  1  0  0  0  0
 16 15  2  0  0  0  0
 17 15  1  0  0  0  0
 18 22  1  0  0  0  0
 19 25  1  0  0  0  0
 22 24  1  0  0  0  0
 23 19  1  0  0  0  0
 23 18  1  0  0  0  0
 24 20  1  6  0  0  0
 24 17  1  0  0  0  0
 25 24  1  0  0  0  0
 25 21  1  1  0  0  0
 26  4  1  0  0  0  0
 29 27  1  6  0  0  0
 29 28  1  0  0  0  0
 29 26  1  0  0  0  0
 30  3  1  0  0  0  0
 31 30  1  0  0  0  0
 32 36  2  0  0  0  0
 33 42  1  1  0  0  0
 33 34  1  0  0  0  0
 33 32  1  0  0  0  0
 34 37  1  0  0  0  0
 36 35  1  0  0  0  0
 37 36  1  0  0  0  0
 37 31  1  6  0  0  0
 38 42  1  0  0  0  0
 39 43  1  0  0  0  0
 40 38  1  0  0  0  0
 41 38  1  0  0  0  0
 42 46  2  0  0  0  0
 43 44  1  0  0  0  0
 43 45  1  0  0  0  0
 44 41  1  0  0  0  0
 45 40  1  0  0  0  0
M  END
>  <MODEL>
1

>  <REMARK>
 VINA RESULT:      -8.8      0.000      0.000
  Name = 
  13 active torsions:
  status: ('A' for Active; 'I' for Inactive)
    1  A    between atoms: N_9  and  N_34
    2  A    between atoms: N_9  and  C_36
    3  A    between atoms: C_10  and  C_29
    4  A    between atoms: C_12  and  C_40
    5  A    between atoms: C_15  and  C_17
    6  A    between atoms: C_15  and  C_32
    7  A    between atoms: C_23  and  C_27
    8  A    between atoms: C_23  and  C_36
    9  A    between atoms: C_24  and  C_38
   10  A    between atoms: C_27  and  C_45
   11  A    between atoms: C_39  and  C_43
   12  A    between atoms: C_40  and  C_43
   13  A    between atoms: C_44  and  C_45
                            x       y       z     vdW  Elec       q    Type
                         _______ _______ _______ _____ _____    ______ ____

>  <TORSDO>
F 13

$$$$
=
 OpenBabel11032421043D

 46 50  0  0  1  0  0  0  0  0999 V2000
  185.4930  178.6150  145.4330 C   0  0  0  0  0  0  0  0  0  0  0  0
  187.7250  177.7670  145.8470 C   0  0  0  0  0  3  0  0  0  0  0  0
  186.4950  177.7570  143.6480 C   0  0  0  0  0  0  0  0  0  0  0  0
  185.2180  178.2110  143.3200 C   0  0  0  0  0  0  0  0  0  0  0  0
  186.4020  178.7590  147.6500 C   0  0  0  0  0  3  0  0  0  0  0  0
  186.6530  178.0210  144.9930 C   0  0  0  0  0  0  0  0  0  0  0  0
  185.3350  179.0010  146.7660 C   0  0  0  0  0  3  0  0  0  0  0  0
  184.6160  178.7330  144.4140 N   0  0  0  0  0  0  0  0  0  0  0  0
  187.5870  178.1400  147.1970 C   0  0  0  0  0  0  0  0  0  0  0  0
  189.4110  176.7610  147.7780 O   0  0  0  0  0  1  0  0  0  0  0  0
  188.7090  177.9080  148.1460 C   0  0  0  0  0  2  0  0  0  0  0  0
  183.3120  179.2600  144.4380 N   0  0  0  0  0  2  0  0  0  0  0  0
  182.1300  178.4910  144.0760 C   0  0  0  0  0  2  0  0  0  0  0  0
  181.1960  179.3330  143.2200 C   0  0  0  0  0  2  0  0  0  0  0  0
  180.0390  178.5220  142.7300 C   0  0  0  0  0  0  0  0  0  0  0  0
  179.7100  177.5050  143.3210 O   0  0  0  0  0  0  0  0  0  0  0  0
  179.3220  178.9340  141.4760 C   0  0  0  0  0  2  0  0  0  0  0  0
  178.9330  179.1340  138.1030 O   0  0  0  0  0  0  0  0  0  0  0  0
  181.4590  179.8520  138.3310 C   0  0  0  0  0  2  0  0  0  0  0  0
  181.1620  177.6040  140.4460 C   0  0  0  0  0  1  0  0  0  0  0  0
  180.0020  181.2240  139.8240 C   0  0  0  0  0  1  0  0  0  0  0  0
  179.1730  178.1530  139.0720 C   0  0  0  0  0  2  0  0  0  0  0  0
  180.3290  179.0990  137.0900 S   0  0  0  0  0  0  0  0  0  0  0  0
  180.1110  178.6720  140.1780 C   0  0  1  0  0  0  0  0  0  0  0  0
  180.8540  179.9620  139.7370 C   0  0  1  0  0  3  0  0  0  0  0  0
  184.5640  178.0840  141.9800 C   0  0  0  0  0  2  0  0  0  0  0  0
  184.9410  178.8420  139.6310 C   0  0  0  0  0  1  0  0  0  0  0  0
  186.1650  179.7620  141.4480 O   0  0  0  0  0  1  0  0  0  0  0  0
  184.9110  179.2670  141.0900 C   0  0  2  0  0  3  0  0  0  0  0  0
  187.4790  177.0860  142.7480 C   0  0  0  0  0  2  0  0  0  0  0  0
  188.8060  177.8210  142.7830 C   0  0  0  0  0  2  0  0  0  0  0  0
  191.3880  177.1300  140.1800 N   0  0  0  0  0  0  0  0  0  0  0  0
  190.4350  177.4370  139.1260 C   0  0  2  0  0  3  0  0  0  0  0  0
  188.8230  177.8170  139.9080 S   0  0  0  0  0  0  0  0  0  0  0  0
  191.6790  177.0320  142.6930 C   0  0  0  0  0  1  0  0  0  0  0  0
  190.8410  177.2420  141.4810 C   0  0  0  0  0  0  0  0  0  0  0  0
  189.5630  177.5820  141.5180 C   0  0  1  0  0  3  0  0  0  0  0  0
  191.4500  175.7320  137.5280 N   0  0  0  0  0  0  0  0  0  0  0  0
  194.8270  173.5430  136.5430 C   0  0  0  0  0  1  0  0  0  0  0  0
  192.7410  176.4130  137.6080 C   0  0  0  0  0  2  0  0  0  0  0  0
  191.2920  174.6540  136.5520 C   0  0  0  0  0  2  0  0  0  0  0  0
  190.2980  176.2770  138.1870 C   0  0  0  0  0  0  0  0  0  0  0  0
  193.7330  174.4930  136.4650 N   0  0  0  0  0  0  0  0  0  0  0  0
  192.4990  173.7240  136.6200 C   0  0  0  0  0  2  0  0  0  0  0  0
  193.8670  175.3820  137.6170 C   0  0  0  0  0  2  0  0  0  0  0  0
  189.1540  175.7940  137.9620 O   0  0  0  0  0  0  0  0  0  0  0  0
  1  7  1  0  0  0  0
  2  9  2  0  0  0  0
  3  6  1  0  0  0  0
  4  3  2  0  0  0  0
  4  8  1  0  0  0  0
  6  1  2  0  0  0  0
  6  2  1  0  0  0  0
  7  5  2  0  0  0  0
  8 12  1  0  0  0  0
  8  1  1  0  0  0  0
  9  5  1  0  0  0  0
  9 11  1  0  0  0  0
 10 11  1  0  0  0  0
 13 12  1  0  0  0  0
 14 13  1  0  0  0  0
 15 14  1  0  0  0  0
 15 16  2  0  0  0  0
 17 15  1  0  0  0  0
 18 22  1  0  0  0  0
 19 25  1  0  0  0  0
 22 24  1  0  0  0  0
 23 18  1  0  0  0  0
 23 19  1  0  0  0  0
 24 20  1  1  0  0  0
 24 17  1  0  0  0  0
 25 21  1  6  0  0  0
 25 24  1  0  0  0  0
 26  4  1  0  0  0  0
 29 27  1  6  0  0  0
 29 28  1  0  0  0  0
 29 26  1  0  0  0  0
 30 31  1  0  0  0  0
 30  3  1  0  0  0  0
 32 36  2  0  0  0  0
 33 42  1  6  0  0  0
 33 34  1  0  0  0  0
 33 32  1  0  0  0  0
 34 37  1  0  0  0  0
 36 37  1  0  0  0  0
 36 35  1  0  0  0  0
 37 31  1  1  0  0  0
 38 40  1  0  0  0  0
 38 42  1  0  0  0  0
 40 45  1  0  0  0  0
 41 44  1  0  0  0  0
 41 38  1  0  0  0  0
 43 39  1  0  0  0  0
 43 44  1  0  0  0  0
 43 45  1  0  0  0  0
 46 42  2  0  0  0  0
M  END
>  <MODEL>
2

>  <REMARK>
 VINA RESULT:      -8.6      1.185      1.604
  Name = 
  13 active torsions:
  status: ('A' for Active; 'I' for Inactive)
    1  A    between atoms: N_9  and  N_34
    2  A    between atoms: N_9  and  C_36
    3  A    between atoms: C_10  and  C_29
    4  A    between atoms: C_12  and  C_40
    5  A    between atoms: C_15  and  C_17
    6  A    between atoms: C_15  and  C_32
    7  A    between atoms: C_23  and  C_27
    8  A    between atoms: C_23  and  C_36
    9  A    between atoms: C_24  and  C_38
   10  A    between atoms: C_27  and  C_45
   11  A    between atoms: C_39  and  C_43
   12  A    between atoms: C_40  and  C_43
   13  A    between atoms: C_44  and  C_45
                            x       y       z     vdW  Elec       q    Type
                         _______ _______ _______ _____ _____    ______ ____

>  <TORSDO>
F 13

$$$$
=
 OpenBabel11032421043D

 46 50  0  0  1  0  0  0  0  0999 V2000
  183.4300  178.8010  143.2570 C   0  0  0  0  0  0  0  0  0  0  0  0
  185.7130  178.6520  144.0540 C   0  0  0  0  0  3  0  0  0  0  0  0
  184.9590  178.7230  141.6510 C   0  0  0  0  0  0  0  0  0  0  0  0
  183.6800  178.7990  141.1030 C   0  0  0  0  0  0  0  0  0  0  0  0
  183.8380  178.7460  145.6220 C   0  0  0  0  0  3  0  0  0  0  0  0
  184.7820  178.7240  143.0190 C   0  0  0  0  0  0  0  0  0  0  0  0
  182.9210  178.8150  144.5580 C   0  0  0  0  0  3  0  0  0  0  0  0
  182.7540  178.8470  142.0890 N   0  0  0  0  0  0  0  0  0  0  0  0
  185.2250  178.6580  145.3740 C   0  0  0  0  0  0  0  0  0  0  0  0
  187.3840  178.0430  146.0960 O   0  0  0  0  0  1  0  0  0  0  0  0
  186.1780  178.6010  146.5150 C   0  0  0  0  0  2  0  0  0  0  0  0
  181.3640  178.9040  141.8840 N   0  0  0  0  0  2  0  0  0  0  0  0
  180.5310  177.7240  141.7040 C   0  0  0  0  0  2  0  0  0  0  0  0
  179.9090  177.7250  140.3160 C   0  0  0  0  0  2  0  0  0  0  0  0
  179.6660  176.3290  139.8360 C   0  0  0  0  0  0  0  0  0  0  0  0
  180.0020  175.3770  140.5230 O   0  0  0  0  0  0  0  0  0  0  0  0
  179.0590  176.1070  138.4800 C   0  0  0  0  0  2  0  0  0  0  0  0
  182.0720  174.6740  137.8190 O   0  0  0  0  0  0  0  0  0  0  0  0
  180.8970  174.4080  135.4740 C   0  0  0  0  0  2  0  0  0  0  0  0
  179.9580  177.2040  136.4300 C   0  0  0  0  0  1  0  0  0  0  0  0
  179.4660  173.4850  137.3000 C   0  0  0  0  0  1  0  0  0  0  0  0
  181.5190  175.9580  137.8980 C   0  0  0  0  0  2  0  0  0  0  0  0
  182.5920  174.5220  136.1810 S   0  0  0  0  0  0  0  0  0  0  0  0
  180.0850  175.9880  137.3360 C   0  0  1  0  0  0  0  0  0  0  0  0
  179.7820  174.7300  136.4780 C   0  0  1  0  0  3  0  0  0  0  0  0
  183.3510  178.7610  139.6430 C   0  0  0  0  0  2  0  0  0  0  0  0
  181.9690  179.9840  137.9620 C   0  0  0  0  0  1  0  0  0  0  0  0
  184.0220  180.8680  138.7640 O   0  0  0  0  0  1  0  0  0  0  0  0
  182.9040  180.1280  139.1500 C   0  0  2  0  0  3  0  0  0  0  0  0
  186.2560  178.6190  140.9170 C   0  0  0  0  0  2  0  0  0  0  0  0
  187.3710  178.2470  141.8770 C   0  0  0  0  0  2  0  0  0  0  0  0
  190.4450  176.4390  140.7820 N   0  0  0  0  0  0  0  0  0  0  0  0
  190.4320  177.1470  139.5130 C   0  0  2  0  0  3  0  0  0  0  0  0
  188.9540  178.2280  139.4780 S   0  0  0  0  0  0  0  0  0  0  0  0
  189.2480  176.2240  143.0030 C   0  0  0  0  0  1  0  0  0  0  0  0
  189.3700  176.7930  141.6330 C   0  0  0  0  0  0  0  0  0  0  0  0
  188.5320  177.6830  141.1280 C   0  0  1  0  0  3  0  0  0  0  0  0
  191.6120  175.7300  137.7540 N   0  0  0  0  0  0  0  0  0  0  0  0
  195.0660  173.6680  136.7670 C   0  0  0  0  0  1  0  0  0  0  0  0
  192.8890  176.3530  138.0980 C   0  0  0  0  0  2  0  0  0  0  0  0
  191.5590  174.8490  136.5870 C   0  0  0  0  0  2  0  0  0  0  0  0
  190.3950  176.1780  138.3700 C   0  0  0  0  0  0  0  0  0  0  0  0
  193.9930  174.6430  136.7420 N   0  0  0  0  0  0  0  0  0  0  0  0
  192.7460  173.8910  136.6180 C   0  0  0  0  0  2  0  0  0  0  0  0
  194.0010  175.3080  138.0430 C   0  0  0  0  0  2  0  0  0  0  0  0
  189.2820  175.7730  137.9370 O   0  0  0  0  0  0  0  0  0  0  0  0
  1  7  1  0  0  0  0
  2  9  2  0  0  0  0
  3  6  1  0  0  0  0
  4  3  2  0  0  0  0
  4  8  1  0  0  0  0
  6  1  2  0  0  0  0
  6  2  1  0  0  0  0
  7  5  2  0  0  0  0
  8  1  1  0  0  0  0
  9  5  1  0  0  0  0
  9 11  1  0  0  0  0
 10 11  1  0  0  0  0
 12  8  1  0  0  0  0
 13 12  1  0  0  0  0
 14 13  1  0  0  0  0
 15 14  1  0  0  0  0
 15 16  2  0  0  0  0
 17 15  1  0  0  0  0
 18 22  1  0  0  0  0
 19 23  1  0  0  0  0
 19 25  1  0  0  0  0
 23 18  1  0  0  0  0
 24 20  1  6  0  0  0
 24 22  1  0  0  0  0
 24 17  1  0  0  0  0
 25 21  1  1  0  0  0
 25 24  1  0  0  0  0
 26  4  1  0  0  0  0
 28 29  1  0  0  0  0
 29 27  1  6  0  0  0
 29 26  1  0  0  0  0
 30  3  1  0  0  0  0
 30 31  1  0  0  0  0
 32 36  2  0  0  0  0
 33 42  1  6  0  0  0
 33 32  1  0  0  0  0
 34 33  1  0  0  0  0
 34 37  1  0  0  0  0
 36 35  1  0  0  0  0
 37 36  1  0  0  0  0
 37 31  1  1  0  0  0
 38 40  1  0  0  0  0
 38 42  1  0  0  0  0
 41 44  1  0  0  0  0
 41 38  1  0  0  0  0
 43 39  1  0  0  0  0
 43 45  1  0  0  0  0
 44 43  1  0  0  0  0
 45 40  1  0  0  0  0
 46 42  2  0  0  0  0
M  END
>  <MODEL>
3

>  <REMARK>
 VINA RESULT:      -7.6      1.999      3.135
  Name = 
  13 active torsions:
  status: ('A' for Active; 'I' for Inactive)
    1  A    between atoms: N_9  and  N_34
    2  A    between atoms: N_9  and  C_36
    3  A    between atoms: C_10  and  C_29
    4  A    between atoms: C_12  and  C_40
    5  A    between atoms: C_15  and  C_17
    6  A    between atoms: C_15  and  C_32
    7  A    between atoms: C_23  and  C_27
    8  A    between atoms: C_23  and  C_36
    9  A    between atoms: C_24  and  C_38
   10  A    between atoms: C_27  and  C_45
   11  A    between atoms: C_39  and  C_43
   12  A    between atoms: C_40  and  C_43
   13  A    between atoms: C_44  and  C_45
                            x       y       z     vdW  Elec       q    Type
                         _______ _______ _______ _____ _____    ______ ____

>  <TORSDO>
F 13

$$$$
=
 OpenBabel11032421043D

 46 50  0  0  1  0  0  0  0  0999 V2000
  189.6530  177.3980  142.2070 C   0  0  0  0  0  0  0  0  0  0  0  0
  188.0150  177.7960  143.9470 C   0  0  0  0  0  3  0  0  0  0  0  0
  187.7680  178.3310  141.4980 C   0  0  0  0  0  0  0  0  0  0  0  0
  188.6510  178.1470  140.4350 C   0  0  0  0  0  0  0  0  0  0  0  0
  190.1810  176.7830  144.4660 C   0  0  0  0  0  3  0  0  0  0  0  0
  188.4200  177.8510  142.6150 C   0  0  0  0  0  0  0  0  0  0  0  0
  190.5630  176.8530  143.1140 C   0  0  0  0  0  3  0  0  0  0  0  0
  189.7970  177.5780  140.8760 N   0  0  0  0  0  0  0  0  0  0  0  0
  188.9180  177.2570  144.8830 C   0  0  0  0  0  0  0  0  0  0  0  0
  189.5660  177.6210  147.1210 O   0  0  0  0  0  1  0  0  0  0  0  0
  188.5280  177.1590  146.3150 C   0  0  0  0  0  2  0  0  0  0  0  0
  190.9080  177.2760  140.0680 N   0  0  0  0  0  2  0  0  0  0  0  0
  190.8980  176.2380  139.0470 C   0  0  0  0  0  2  0  0  0  0  0  0
  192.1450  176.3380  138.1820 C   0  0  0  0  0  2  0  0  0  0  0  0
  192.0980  175.3540  137.0560 C   0  0  0  0  0  0  0  0  0  0  0  0
  191.4450  175.6000  136.0540 O   0  0  0  0  0  0  0  0  0  0  0  0
  192.8110  174.0390  137.1900 C   0  0  0  0  0  2  0  0  0  0  0  0
  195.7170  175.7290  136.6680 O   0  0  0  0  0  0  0  0  0  0  0  0
  196.5820  173.2430  136.5180 C   0  0  0  0  0  2  0  0  0  0  0  0
  193.8250  173.1270  135.1040 C   0  0  0  0  0  1  0  0  0  0  0  0
  195.2990  173.6180  138.6280 C   0  0  0  0  0  1  0  0  0  0  0  0
  194.5910  175.3320  135.9360 C   0  0  0  0  0  2  0  0  0  0  0  0
  197.0390  174.9190  135.9110 S   0  0  0  0  0  0  0  0  0  0  0  0
  194.1080  173.9330  136.3630 C   0  0  1  0  0  0  0  0  0  0  0  0
  195.1950  173.1760  137.1720 C   0  0  1  0  0  3  0  0  0  0  0  0
  188.4170  178.5760  139.0200 C   0  0  0  0  0  2  0  0  0  0  0  0
  187.8490  176.9570  137.2070 C   0  0  0  0  0  1  0  0  0  0  0  0
  186.3040  178.6110  137.9260 O   0  0  0  0  0  1  0  0  0  0  0  0
  187.3070  177.7560  138.3800 C   0  0  2  0  0  3  0  0  0  0  0  0
  186.4120  178.9550  141.4540 C   0  0  0  0  0  2  0  0  0  0  0  0
  185.4580  178.1960  142.3570 C   0  0  0  0  0  2  0  0  0  0  0  0
  181.7780  178.7470  142.0780 N   0  0  0  0  0  2  0  0  0  0  0  0
  181.8230  178.4490  140.6550 C   0  0  2  0  0  3  0  0  0  0  0  0
  183.5670  178.1390  140.1920 S   0  0  0  0  0  0  0  0  0  0  0  0
  183.1960  178.8890  144.1710 C   0  0  0  0  0  1  0  0  0  0  0  0
  183.0460  178.6810  142.7040 C   0  0  0  0  0  0  0  0  0  0  0  0
  184.0500  178.3830  141.8960 C   0  0  0  0  0  0  0  0  0  0  0  0
  181.1020  179.4820  138.4400 N   0  0  0  0  0  0  0  0  0  0  0  0
  179.6370  178.7530  134.6340 C   0  0  0  0  0  1  0  0  0  0  0  0
  181.6450  178.3320  137.7180 C   0  0  0  0  0  2  0  0  0  0  0  0
  180.6380  180.6330  137.6660 C   0  0  0  0  0  2  0  0  0  0  0  0
  181.2690  179.5930  139.8620 C   0  0  0  0  0  0  0  0  0  0  0  0
  180.5150  179.1610  135.7140 N   0  0  0  0  0  0  0  0  0  0  0  0
  179.7810  180.1510  136.5000 C   0  0  0  0  0  2  0  0  0  0  0  0
  180.7290  177.9810  136.5480 C   0  0  0  0  0  2  0  0  0  0  0  0
  180.9680  180.6680  140.4500 O   0  0  0  0  0  0  0  0  0  0  0  0
  1  6  2  0  0  0  0
  1  7  1  0  0  0  0
  2  9  2  0  0  0  0
  3  6  1  0  0  0  0
  4  8  1  0  0  0  0
  4  3  2  0  0  0  0
  5  9  1  0  0  0  0
  6  2  1  0  0  0  0
  7  5  2  0  0  0  0
  8  1  1  0  0  0  0
  9 11  1  0  0  0  0
 11 10  1  0  0  0  0
 12  8  1  0  0  0  0
 13 12  1  0  0  0  0
 14 13  1  0  0  0  0
 15 17  1  0  0  0  0
 15 14  1  0  0  0  0
 16 15  2  0  0  0  0
 19 25  1  0  0  0  0
 22 24  1  0  0  0  0
 22 18  1  0  0  0  0
 23 19  1  0  0  0  0
 23 18  1  0  0  0  0
 24 20  1  6  0  0  0
 24 25  1  0  0  0  0
 24 17  1  0  0  0  0
 25 21  1  1  0  0  0
 26  4  1  0  0  0  0
 28 29  1  0  0  0  0
 29 27  1  6  0  0  0
 29 26  1  0  0  0  0
 30  3  1  0  0  0  0
 30 31  1  0  0  0  0
 32 36  1  0  0  0  0
 33 42  1  6  0  0  0
 33 32  1  0  0  0  0
 34 33  1  0  0  0  0
 34 37  1  0  0  0  0
 36 35  1  0  0  0  0
 37 31  1  0  0  0  0
 37 36  2  0  0  0  0
 38 42  1  0  0  0  0
 39 43  1  0  0  0  0
 40 38  1  0  0  0  0
 41 38  1  0  0  0  0
 42 46  2  0  0  0  0
 43 44  1  0  0  0  0
 43 45  1  0  0  0  0
 44 41  1  0  0  0  0
 45 40  1  0  0  0  0
M  END
>  <MODEL>
4

>  <REMARK>
 VINA RESULT:      -7.4      3.105     10.575
  Name = 
  13 active torsions:
  status: ('A' for Active; 'I' for Inactive)
    1  A    between atoms: N_9  and  N_34
    2  A    between atoms: N_9  and  C_36
    3  A    between atoms: C_10  and  C_29
    4  A    between atoms: C_12  and  C_40
    5  A    between atoms: C_15  and  C_17
    6  A    between atoms: C_15  and  C_32
    7  A    between atoms: C_23  and  C_27
    8  A    between atoms: C_23  and  C_36
    9  A    between atoms: C_24  and  C_38
   10  A    between atoms: C_27  and  C_45
   11  A    between atoms: C_39  and  C_43
   12  A    between atoms: C_40  and  C_43
   13  A    between atoms: C_44  and  C_45
                            x       y       z     vdW  Elec       q    Type
                         _______ _______ _______ _____ _____    ______ ____

>  <TORSDO>
F 13

$$$$
=
 OpenBabel11032421043D

 46 50  0  0  1  0  0  0  0  0999 V2000
  186.4440  178.6150  141.0380 C   0  0  0  0  0  0  0  0  0  0  0  0
  188.0940  177.9380  139.3990 C   0  0  0  0  0  3  0  0  0  0  0  0
  185.6740  178.4830  138.9600 C   0  0  0  0  0  0  0  0  0  0  0  0
  184.6580  178.8700  139.8340 C   0  0  0  0  0  0  0  0  0  0  0  0
  188.6850  178.1550  141.7630 C   0  0  0  0  0  3  0  0  0  0  0  0
  186.8000  178.3250  139.7420 C   0  0  0  0  0  0  0  0  0  0  0  0
  187.3700  178.5410  142.0800 C   0  0  0  0  0  3  0  0  0  0  0  0
  185.1360  178.9480  141.0970 N   0  0  0  0  0  0  0  0  0  0  0  0
  189.0450  177.8480  140.4330 C   0  0  0  0  0  0  0  0  0  0  0  0
  190.4610  176.2050  139.5070 O   0  0  0  0  0  1  0  0  0  0  0  0
  190.4450  177.4570  140.1170 C   0  0  0  0  0  2  0  0  0  0  0  0
  184.3700  179.2890  142.2270 N   0  0  0  0  0  2  0  0  0  0  0  0
  184.9470  179.5420  143.5390 C   0  0  0  0  0  2  0  0  0  0  0  0
  184.2990  178.6430  144.5810 C   0  0  0  0  0  2  0  0  0  0  0  0
  185.0860  178.6420  145.8530 C   0  0  0  0  0  0  0  0  0  0  0  0
  184.5350  178.3990  146.9150 O   0  0  0  0  0  0  0  0  0  0  0  0
  186.5460  178.9980  145.8220 C   0  0  0  0  0  2  0  0  0  0  0  0
  189.8490  178.3220  146.2690 O   0  0  0  0  0  0  0  0  0  0  0  0
  188.7730  176.3960  147.7120 C   0  0  0  0  0  2  0  0  0  0  0  0
  186.8840  176.5930  145.2610 C   0  0  0  0  0  1  0  0  0  0  0  0
  187.8680  178.6260  148.3810 C   0  0  0  0  0  1  0  0  0  0  0  0
  188.8550  178.0950  145.3100 C   0  0  0  0  0  2  0  0  0  0  0  0
  190.3250  176.7470  146.7880 S   0  0  0  0  0  0  0  0  0  0  0  0
  187.4960  177.7930  145.9690 C   0  0  1  0  0  0  0  0  0  0  0  0
  187.6580  177.4220  147.4680 C   0  0  1  0  0  3  0  0  0  0  0  0
  183.2270  179.0980  139.4610 C   0  0  0  0  0  2  0  0  0  0  0  0
  181.5990  177.4800  138.4780 C   0  0  0  0  0  1  0  0  0  0  0  0
  181.5080  178.0990  140.7690 O   0  0  0  0  0  1  0  0  0  0  0  0
  182.3920  177.8530  139.7190 C   0  0  2  0  0  3  0  0  0  0  0  0
  185.5660  178.2460  137.4900 C   0  0  0  0  0  2  0  0  0  0  0  0
  185.5450  176.7560  137.2010 C   0  0  0  0  0  2  0  0  0  0  0  0
  188.3620  176.2790  134.8020 N   0  0  0  0  0  0  0  0  0  0  0  0
  188.9160  175.2230  135.6340 C   0  0  2  0  0  3  0  0  0  0  0  0
  187.8670  175.0620  137.1260 S   0  0  0  0  0  0  0  0  0  0  0  0
  186.4290  177.9020  134.5950 C   0  0  0  0  0  1  0  0  0  0  0  0
  187.1810  176.8510  135.3350 C   0  0  0  0  0  0  0  0  0  0  0  0
  186.7960  176.3490  136.4960 C   0  0  1  0  0  3  0  0  0  0  0  0
  191.3100  174.5040  136.1290 N   0  0  0  0  0  0  0  0  0  0  0  0
  194.2810  171.7200  135.3650 C   0  0  0  0  0  1  0  0  0  0  0  0
  190.9120  173.0990  136.0530 C   0  0  0  0  0  2  0  0  0  0  0  0
  192.6620  174.8210  136.5890 C   0  0  0  0  0  2  0  0  0  0  0  0
  190.3270  175.5450  136.0210 C   0  0  0  0  0  0  0  0  0  0  0  0
  193.2860  172.5130  136.0630 N   0  0  0  0  0  0  0  0  0  0  0  0
  193.6650  173.9130  135.8830 C   0  0  0  0  0  2  0  0  0  0  0  0
  192.0160  172.2890  135.3760 C   0  0  0  0  0  2  0  0  0  0  0  0
  190.6430  176.7400  136.2750 O   0  0  0  0  0  0  0  0  0  0  0  0
  1  8  1  0  0  0  0
  1  7  1  0  0  0  0
  2  6  1  0  0  0  0
  2  9  2  0  0  0  0
  3  6  1  0  0  0  0
  3  4  2  0  0  0  0
  4  8  1  0  0  0  0
  5  7  2  0  0  0  0
  6  1  2  0  0  0  0
  8 12  1  0  0  0  0
  9  5  1  0  0  0  0
 10 11  1  0  0  0  0
 11  9  1  0  0  0  0
 12 13  1  0  0  0  0
 13 14  1  0  0  0  0
 14 15  1  0  0  0  0
 15 16  2  0  0  0  0
 17 15  1  0  0  0  0
 17 24  1  0  0  0  0
 18 23  1  0  0  0  0
 22 24  1  0  0  0  0
 22 18  1  0  0  0  0
 23 19  1  0  0  0  0
 24 20  1  6  0  0  0
 24 25  1  0  0  0  0
 25 19  1  0  0  0  0
 25 21  1  1  0  0  0
 26 29  1  0  0  0  0
 26  4  1  0  0  0  0
 29 27  1  6  0  0  0
 29 28  1  0  0  0  0
 30  3  1  0  0  0  0
 31 30  1  0  0  0  0
 32 36  2  0  0  0  0
 32 33  1  0  0  0  0
 33 42  1  1  0  0  0
 33 34  1  0  0  0  0
 35 36  1  0  0  0  0
 36 37  1  0  0  0  0
 37 34  1  0  0  0  0
 37 31  1  6  0  0  0
 38 41  1  0  0  0  0
 39 43  1  0  0  0  0
 40 38  1  0  0  0  0
 42 38  1  0  0  0  0
 42 46  2  0  0  0  0
 44 43  1  0  0  0  0
 44 41  1  0  0  0  0
 45 40  1  0  0  0  0
 45 43  1  0  0  0  0
M  END
>  <MODEL>
5

>  <REMARK>
 VINA RESULT:      -7.3      2.639      6.415
  Name = 
  13 active torsions:
  status: ('A' for Active; 'I' for Inactive)
    1  A    between atoms: N_9  and  N_34
    2  A    between atoms: N_9  and  C_36
    3  A    between atoms: C_10  and  C_29
    4  A    between atoms: C_12  and  C_40
    5  A    between atoms: C_15  and  C_17
    6  A    between atoms: C_15  and  C_32
    7  A    between atoms: C_23  and  C_27
    8  A    between atoms: C_23  and  C_36
    9  A    between atoms: C_24  and  C_38
   10  A    between atoms: C_27  and  C_45
   11  A    between atoms: C_39  and  C_43
   12  A    between atoms: C_40  and  C_43
   13  A    between atoms: C_44  and  C_45
                            x       y       z     vdW  Elec       q    Type
                         _______ _______ _______ _____ _____    ______ ____

>  <TORSDO>
F 13

$$$$
=
 OpenBabel11032421043D

 46 50  0  0  1  0  0  0  0  0999 V2000
  184.5300  178.6190  141.3300 C   0  0  0  0  0  0  0  0  0  0  0  0
  185.3420  178.6290  139.0480 C   0  0  0  0  0  3  0  0  0  0  0  0
  182.9630  178.9760  139.8000 C   0  0  0  0  0  0  0  0  0  0  0  0
  182.4070  178.9790  141.0790 C   0  0  0  0  0  0  0  0  0  0  0  0
  186.8670  178.2510  140.9230 C   0  0  0  0  0  3  0  0  0  0  0  0
  184.3120  178.7460  139.9790 C   0  0  0  0  0  0  0  0  0  0  0  0
  185.8070  178.3710  141.8390 C   0  0  0  0  0  3  0  0  0  0  0  0
  183.3690  178.7610  142.0050 N   0  0  0  0  0  0  0  0  0  0  0  0
  186.6370  178.3720  139.5350 C   0  0  0  0  0  0  0  0  0  0  0  0
  188.8670  178.9800  139.0630 O   0  0  0  0  0  1  0  0  0  0  0  0
  187.7760  178.2580  138.5840 C   0  0  0  0  0  2  0  0  0  0  0  0
  183.1470  178.6790  143.3910 N   0  0  0  0  0  2  0  0  0  0  0  0
  183.5800  179.7000  144.3330 C   0  0  0  0  0  2  0  0  0  0  0  0
  185.0410  179.4900  144.7040 C   0  0  0  0  0  2  0  0  0  0  0  0
  185.1680  178.8820  146.0640 C   0  0  0  0  0  0  0  0  0  0  0  0
  184.1890  178.4040  146.6160 O   0  0  0  0  0  0  0  0  0  0  0  0
  186.4930  178.9130  146.7700 C   0  0  0  0  0  2  0  0  0  0  0  0
  189.6730  178.4920  145.6360 O   0  0  0  0  0  0  0  0  0  0  0  0
  189.4430  176.3790  147.1970 C   0  0  0  0  0  2  0  0  0  0  0  0
  186.6500  176.5930  145.8690 C   0  0  0  0  0  1  0  0  0  0  0  0
  188.8380  178.4680  148.4250 C   0  0  0  0  0  1  0  0  0  0  0  0
  188.3650  178.2510  145.1970 C   0  0  0  0  0  2  0  0  0  0  0  0
  190.3990  176.9290  145.7240 S   0  0  0  0  0  0  0  0  0  0  0  0
  187.4610  177.7860  146.3540 C   0  0  1  0  0  0  0  0  0  0  0  0
  188.2940  177.3210  147.5790 C   0  0  1  0  0  3  0  0  0  0  0  0
  180.9520  179.1260  141.3980 C   0  0  0  0  0  2  0  0  0  0  0  0
  179.1990  177.4880  140.7050 C   0  0  0  0  0  1  0  0  0  0  0  0
  179.8010  177.7770  142.9850 O   0  0  0  0  0  1  0  0  0  0  0  0
  180.3200  177.7730  141.6900 C   0  0  2  0  0  3  0  0  0  0  0  0
  182.2500  179.1450  138.5000 C   0  0  0  0  0  2  0  0  0  0  0  0
  181.5310  177.8620  138.1270 C   0  0  0  0  0  2  0  0  0  0  0  0
  183.4330  176.1050  135.4410 N   0  0  0  0  0  0  0  0  0  0  0  0
  183.9490  175.1490  136.4070 C   0  0  2  0  0  3  0  0  0  0  0  0
  183.3280  175.6190  138.0640 S   0  0  0  0  0  0  0  0  0  0  0  0
  181.9100  178.1120  135.1810 C   0  0  0  0  0  1  0  0  0  0  0  0
  182.5890  177.0840  136.0190 C   0  0  0  0  0  0  0  0  0  0  0  0
  182.4300  176.9780  137.3270 C   0  0  1  0  0  3  0  0  0  0  0  0
  186.1750  173.9070  136.3720 N   0  0  0  0  0  0  0  0  0  0  0  0
  188.1590  170.4600  135.2150 C   0  0  0  0  0  1  0  0  0  0  0  0
  185.4770  172.6360  136.5550 C   0  0  0  0  0  2  0  0  0  0  0  0
  187.6350  173.9170  136.4430 C   0  0  0  0  0  2  0  0  0  0  0  0
  185.4470  175.1450  136.3940 C   0  0  0  0  0  0  0  0  0  0  0  0
  187.5820  171.5020  136.0440 N   0  0  0  0  0  0  0  0  0  0  0  0
  188.1930  172.7610  135.6180 C   0  0  0  0  0  2  0  0  0  0  0  0
  186.1580  171.5520  135.7230 C   0  0  0  0  0  2  0  0  0  0  0  0
  186.0700  176.2420  136.4250 O   0  0  0  0  0  0  0  0  0  0  0  0
  1  7  1  0  0  0  0
  1  8  1  0  0  0  0
  2  9  2  0  0  0  0
  2  6  1  0  0  0  0
  3  6  1  0  0  0  0
  3  4  2  0  0  0  0
  4 26  1  0  0  0  0
  4  8  1  0  0  0  0
  5  7  2  0  0  0  0
  6  1  2  0  0  0  0
  8 12  1  0  0  0  0
  9  5  1  0  0  0  0
 11 10  1  0  0  0  0
 11  9  1  0  0  0  0
 12 13  1  0  0  0  0
 13 14  1  0  0  0  0
 14 15  1  0  0  0  0
 15 16  2  0  0  0  0
 15 17  1  0  0  0  0
 18 23  1  0  0  0  0
 19 25  1  0  0  0  0
 22 18  1  0  0  0  0
 22 24  1  0  0  0  0
 23 19  1  0  0  0  0
 24 20  1  6  0  0  0
 24 17  1  0  0  0  0
 24 25  1  0  0  0  0
 25 21  1  6  0  0  0
 26 29  1  0  0  0  0
 29 27  1  6  0  0  0
 29 28  1  0  0  0  0
 30  3  1  0  0  0  0
 31 30  1  0  0  0  0
 32 36  2  0  0  0  0
 32 33  1  0  0  0  0
 33 42  1  1  0  0  0
 33 34  1  0  0  0  0
 35 36  1  0  0  0  0
 36 37  1  0  0  0  0
 37 34  1  0  0  0  0
 37 31  1  6  0  0  0
 38 42  1  0  0  0  0
 38 41  1  0  0  0  0
 38 40  1  0  0  0  0
 39 43  1  0  0  0  0
 42 46  2  0  0  0  0
 44 43  1  0  0  0  0
 44 41  1  0  0  0  0
 45 43  1  0  0  0  0
 45 40  1  0  0  0  0
M  END
>  <MODEL>
6

>  <REMARK>
 VINA RESULT:      -7.1      3.478      7.640
  Name = 
  13 active torsions:
  status: ('A' for Active; 'I' for Inactive)
    1  A    between atoms: N_9  and  N_34
    2  A    between atoms: N_9  and  C_36
    3  A    between atoms: C_10  and  C_29
    4  A    between atoms: C_12  and  C_40
    5  A    between atoms: C_15  and  C_17
    6  A    between atoms: C_15  and  C_32
    7  A    between atoms: C_23  and  C_27
    8  A    between atoms: C_23  and  C_36
    9  A    between atoms: C_24  and  C_38
   10  A    between atoms: C_27  and  C_45
   11  A    between atoms: C_39  and  C_43
   12  A    between atoms: C_40  and  C_43
   13  A    between atoms: C_44  and  C_45
                            x       y       z     vdW  Elec       q    Type
                         _______ _______ _______ _____ _____    ______ ____

>  <TORSDO>
F 13

$$$$
=
 OpenBabel11032421043D

 46 50  0  0  1  0  0  0  0  0999 V2000
  186.0230  178.1530  143.0520 C   0  0  0  0  0  0  0  0  0  0  0  0
  188.4010  177.8500  143.3960 C   0  0  0  0  0  3  0  0  0  0  0  0
  187.2600  178.4610  141.2350 C   0  0  0  0  0  0  0  0  0  0  0  0
  185.9090  178.6470  140.9430 C   0  0  0  0  0  0  0  0  0  0  0  0
  186.8180  177.5630  145.2380 C   0  0  0  0  0  3  0  0  0  0  0  0
  187.3130  178.1480  142.5780 C   0  0  0  0  0  0  0  0  0  0  0  0
  185.7380  177.8640  144.3880 C   0  0  0  0  0  3  0  0  0  0  0  0
  185.1630  178.4580  142.0560 N   0  0  0  0  0  0  0  0  0  0  0  0
  188.1410  177.5480  144.7460 C   0  0  0  0  0  0  0  0  0  0  0  0
  190.4380  177.8380  145.1970 O   0  0  0  0  0  1  0  0  0  0  0  0
  189.2690  177.2420  145.6660 C   0  0  0  0  0  2  0  0  0  0  0  0
  183.7600  178.5460  142.1080 N   0  0  0  0  0  2  0  0  0  0  0  0
  183.0470  179.4870  142.9600 C   0  0  0  0  0  2  0  0  0  0  0  0
  181.7910  178.8390  143.5240 C   0  0  0  0  0  2  0  0  0  0  0  0
  180.6060  179.1200  142.6560 C   0  0  0  0  0  0  0  0  0  0  0  0
  180.2820  180.2720  142.4160 O   0  0  0  0  0  0  0  0  0  0  0  0
  179.7850  177.9780  142.1290 C   0  0  0  0  0  2  0  0  0  0  0  0
  181.6360  176.2890  139.8280 O   0  0  0  0  0  0  0  0  0  0  0  0
  179.2520  176.1520  138.7100 C   0  0  0  0  0  2  0  0  0  0  0  0
  179.3160  179.0110  139.9090 C   0  0  0  0  0  1  0  0  0  0  0  0
  179.1800  175.3420  141.0710 C   0  0  0  0  0  1  0  0  0  0  0  0
  181.3480  177.6160  140.1690 C   0  0  0  0  0  2  0  0  0  0  0  0
  181.0260  176.1080  138.2240 S   0  0  0  0  0  0  0  0  0  0  0  0
  179.8790  177.7790  140.6030 C   0  0  1  0  0  0  0  0  0  0  0  0
  179.0180  176.5620  140.1700 C   0  0  1  0  0  3  0  0  0  0  0  0
  185.3410  178.9410  139.5900 C   0  0  0  0  0  2  0  0  0  0  0  0
  186.2090  178.2470  137.3540 C   0  0  0  0  0  1  0  0  0  0  0  0
  184.3310  177.1830  138.3450 O   0  0  0  0  0  1  0  0  0  0  0  0
  185.5590  177.7710  138.6420 C   0  0  2  0  0  3  0  0  0  0  0  0
  188.4120  178.5420  140.2890 C   0  0  0  0  0  2  0  0  0  0  0  0
  189.5520  177.6690  140.7800 C   0  0  0  0  0  2  0  0  0  0  0  0
  192.0980  176.4740  138.3270 N   0  0  0  0  0  0  0  0  0  0  0  0
  191.0500  176.1100  137.3880 C   0  0  2  0  0  3  0  0  0  0  0  0
  189.4330  176.4540  138.1760 S   0  0  0  0  0  0  0  0  0  0  0  0
  192.5230  177.5060  140.6000 C   0  0  0  0  0  1  0  0  0  0  0  0
  191.6020  177.0130  139.5390 C   0  0  0  0  0  0  0  0  0  0  0  0
  190.2840  177.0750  139.6220 C   0  0  1  0  0  3  0  0  0  0  0  0
  192.2190  174.1940  136.1810 N   0  0  0  0  0  0  0  0  0  0  0  0
  195.8180  172.7470  134.7270 C   0  0  0  0  0  1  0  0  0  0  0  0
  193.1070  175.1450  135.5150 C   0  0  0  0  0  2  0  0  0  0  0  0
  192.2600  172.7930  135.7640 C   0  0  0  0  0  2  0  0  0  0  0  0
  191.1520  174.6610  137.0210 C   0  0  0  0  0  0  0  0  0  0  0  0
  194.4560  173.2430  134.7780 N   0  0  0  0  0  0  0  0  0  0  0  0
  193.7120  172.3380  135.6530 C   0  0  0  0  0  2  0  0  0  0  0  0
  194.5120  174.5560  135.4180 C   0  0  0  0  0  2  0  0  0  0  0  0
  190.2780  173.8530  137.4400 O   0  0  0  0  0  0  0  0  0  0  0  0
  1  7  1  0  0  0  0
  2  9  2  0  0  0  0
  3  6  1  0  0  0  0
  4  3  2  0  0  0  0
  4  8  1  0  0  0  0
  6  1  2  0  0  0  0
  6  2  1  0  0  0  0
  7  5  2  0  0  0  0
  8 12  1  0  0  0  0
  8  1  1  0  0  0  0
  9  5  1  0  0  0  0
  9 11  1  0  0  0  0
 10 11  1  0  0  0  0
 12 13  1  0  0  0  0
 13 14  1  0  0  0  0
 15 14  1  0  0  0  0
 16 15  2  0  0  0  0
 17 15  1  0  0  0  0
 18 22  1  0  0  0  0
 19 25  1  0  0  0  0
 22 24  1  0  0  0  0
 23 19  1  0  0  0  0
 23 18  1  0  0  0  0
 24 20  1  6  0  0  0
 24 17  1  0  0  0  0
 25 24  1  0  0  0  0
 25 21  1  1  0  0  0
 26  4  1  0  0  0  0
 28 29  1  0  0  0  0
 29 27  1  6  0  0  0
 29 26  1  0  0  0  0
 30 31  1  0  0  0  0
 30  3  1  0  0  0  0
 32 36  2  0  0  0  0
 33 42  1  1  0  0  0
 33 34  1  0  0  0  0
 33 32  1  0  0  0  0
 34 37  1  0  0  0  0
 36 37  1  0  0  0  0
 36 35  1  0  0  0  0
 37 31  1  6  0  0  0
 38 42  1  0  0  0  0
 39 43  1  0  0  0  0
 40 38  1  0  0  0  0
 41 38  1  0  0  0  0
 42 46  2  0  0  0  0
 43 45  1  0  0  0  0
 43 44  1  0  0  0  0
 44 41  1  0  0  0  0
 45 40  1  0  0  0  0
M  END
>  <MODEL>
7

>  <REMARK>
 VINA RESULT:      -6.9      1.612      2.061
  Name = 
  13 active torsions:
  status: ('A' for Active; 'I' for Inactive)
    1  A    between atoms: N_9  and  N_34
    2  A    between atoms: N_9  and  C_36
    3  A    between atoms: C_10  and  C_29
    4  A    between atoms: C_12  and  C_40
    5  A    between atoms: C_15  and  C_17
    6  A    between atoms: C_15  and  C_32
    7  A    between atoms: C_23  and  C_27
    8  A    between atoms: C_23  and  C_36
    9  A    between atoms: C_24  and  C_38
   10  A    between atoms: C_27  and  C_45
   11  A    between atoms: C_39  and  C_43
   12  A    between atoms: C_40  and  C_43
   13  A    between atoms: C_44  and  C_45
                            x       y       z     vdW  Elec       q    Type
                         _______ _______ _______ _____ _____    ______ ____

>  <TORSDO>
F 13

$$$$
=
 OpenBabel11032421043D

 46 50  0  0  1  0  0  0  0  0999 V2000
  186.2370  178.3470  140.8260 C   0  0  0  0  0  0  0  0  0  0  0  0
  188.2500  177.9290  142.1090 C   0  0  0  0  0  3  0  0  0  0  0  0
  188.0980  178.2760  139.6190 C   0  0  0  0  0  0  0  0  0  0  0  0
  186.9940  178.5120  138.8010 C   0  0  0  0  0  0  0  0  0  0  0  0
  186.0640  178.0490  143.2020 C   0  0  0  0  0  3  0  0  0  0  0  0
  187.5990  178.1730  140.9010 C   0  0  0  0  0  0  0  0  0  0  0  0
  185.4350  178.2930  141.9680 C   0  0  0  0  0  3  0  0  0  0  0  0
  185.8640  178.5550  139.5450 N   0  0  0  0  0  0  0  0  0  0  0  0
  187.4620  177.8620  143.2740 C   0  0  0  0  0  0  0  0  0  0  0  0
  187.2470  178.0010  145.6180 O   0  0  0  0  0  1  0  0  0  0  0  0
  188.1090  177.6210  144.5910 C   0  0  0  0  0  2  0  0  0  0  0  0
  184.5700  178.7520  139.0320 N   0  0  0  0  0  2  0  0  0  0  0  0
  183.5890  177.6850  138.9020 C   0  0  0  0  0  2  0  0  0  0  0  0
  182.5880  178.0210  137.8060 C   0  0  0  0  0  2  0  0  0  0  0  0
  181.3640  178.6660  138.3750 C   0  0  0  0  0  0  0  0  0  0  0  0
  180.3100  178.6300  137.7600 O   0  0  0  0  0  0  0  0  0  0  0  0
  181.4550  179.4050  139.6790 C   0  0  0  0  0  2  0  0  0  0  0  0
  181.4390  179.4830  143.0800 O   0  0  0  0  0  0  0  0  0  0  0  0
  178.9310  178.8170  142.6100 C   0  0  0  0  0  2  0  0  0  0  0  0
  180.5060  177.2350  140.4580 C   0  0  0  0  0  1  0  0  0  0  0  0
  179.5660  180.8660  141.3320 C   0  0  0  0  0  1  0  0  0  0  0  0
  181.8150  178.6070  142.0550 C   0  0  0  0  0  2  0  0  0  0  0  0
  180.1950  178.6480  143.9360 S   0  0  0  0  0  0  0  0  0  0  0  0
  180.8260  178.6630  140.8760 C   0  0  1  0  0  0  0  0  0  0  0  0
  179.4910  179.3440  141.2820 C   0  0  1  0  0  3  0  0  0  0  0  0
  187.0210  178.6320  137.3090 C   0  0  0  0  0  2  0  0  0  0  0  0
  188.2910  177.0780  135.8220 C   0  0  0  0  0  1  0  0  0  0  0  0
  185.9160  177.1340  135.8270 O   0  0  0  0  0  1  0  0  0  0  0  0
  187.0320  177.2590  136.6530 C   0  0  2  0  0  3  0  0  0  0  0  0
  189.5220  178.1230  139.1980 C   0  0  0  0  0  2  0  0  0  0  0  0
  189.8990  176.6540  139.1540 C   0  0  0  0  0  2  0  0  0  0  0  0
  193.5640  176.6980  138.4550 N   0  0  0  0  0  0  0  0  0  0  0  0
  193.3390  176.1190  137.1410 C   0  0  2  0  0  3  0  0  0  0  0  0
  191.5460  175.7980  136.9580 S   0  0  0  0  0  0  0  0  0  0  0  0
  192.3890  177.5280  140.5400 C   0  0  0  0  0  1  0  0  0  0  0  0
  192.3720  176.8860  139.1960 C   0  0  0  0  0  0  0  0  0  0  0  0
  191.2690  176.4880  138.5850 C   0  0  1  0  0  3  0  0  0  0  0  0
  195.2920  174.8020  136.1690 N   0  0  0  0  0  0  0  0  0  0  0  0
  199.1800  174.9830  134.7510 C   0  0  0  0  0  1  0  0  0  0  0  0
  195.6480  175.9390  135.3210 C   0  0  0  0  0  2  0  0  0  0  0  0
  195.9920  173.5340  135.9620 C   0  0  0  0  0  2  0  0  0  0  0  0
  194.1140  174.8460  136.9880 C   0  0  0  0  0  0  0  0  0  0  0  0
  197.7430  174.7910  134.8020 N   0  0  0  0  0  0  0  0  0  0  0  0
  197.4910  173.7940  135.8410 C   0  0  0  0  0  2  0  0  0  0  0  0
  197.1670  176.0620  135.2360 C   0  0  0  0  0  2  0  0  0  0  0  0
  193.7100  173.8010  137.5690 O   0  0  0  0  0  0  0  0  0  0  0  0
  1  6  2  0  0  0  0
  1  7  1  0  0  0  0
  2  9  2  0  0  0  0
  3  6  1  0  0  0  0
  4  8  1  0  0  0  0
  4  3  2  0  0  0  0
  5  9  1  0  0  0  0
  6  2  1  0  0  0  0
  7  5  2  0  0  0  0
  8  1  1  0  0  0  0
  9 11  1  0  0  0  0
 11 10  1  0  0  0  0
 12  8  1  0  0  0  0
 13 12  1  0  0  0  0
 14 15  1  0  0  0  0
 14 13  1  0  0  0  0
 15 17  1  0  0  0  0
 16 15  2  0  0  0  0
 17 24  1  0  0  0  0
 18 23  1  0  0  0  0
 19 23  1  0  0  0  0
 22 18  1  0  0  0  0
 24 20  1  6  0  0  0
 24 25  1  0  0  0  0
 24 22  1  0  0  0  0
 25 21  1  1  0  0  0
 25 19  1  0  0  0  0
 26  4  1  0  0  0  0
 28 29  1  0  0  0  0
 29 27  1  6  0  0  0
 29 26  1  0  0  0  0
 30  3  1  0  0  0  0
 31 30  1  0  0  0  0
 32 36  2  0  0  0  0
 33 42  1  1  0  0  0
 33 32  1  0  0  0  0
 34 33  1  0  0  0  0
 34 37  1  0  0  0  0
 36 35  1  0  0  0  0
 37 31  1  6  0  0  0
 37 36  1  0  0  0  0
 38 42  1  0  0  0  0
 39 43  1  0  0  0  0
 40 38  1  0  0  0  0
 41 38  1  0  0  0  0
 42 46  2  0  0  0  0
 43 45  1  0  0  0  0
 43 44  1  0  0  0  0
 44 41  1  0  0  0  0
 45 40  1  0  0  0  0
M  END
>  <MODEL>
8

>  <REMARK>
 VINA RESULT:      -6.8      2.713      4.314
  Name = 
  13 active torsions:
  status: ('A' for Active; 'I' for Inactive)
    1  A    between atoms: N_9  and  N_34
    2  A    between atoms: N_9  and  C_36
    3  A    between atoms: C_10  and  C_29
    4  A    between atoms: C_12  and  C_40
    5  A    between atoms: C_15  and  C_17
    6  A    between atoms: C_15  and  C_32
    7  A    between atoms: C_23  and  C_27
    8  A    between atoms: C_23  and  C_36
    9  A    between atoms: C_24  and  C_38
   10  A    between atoms: C_27  and  C_45
   11  A    between atoms: C_39  and  C_43
   12  A    between atoms: C_40  and  C_43
   13  A    between atoms: C_44  and  C_45
                            x       y       z     vdW  Elec       q    Type
                         _______ _______ _______ _____ _____    ______ ____

>  <TORSDO>
F 13

$$$$
=
 OpenBabel11032421043D

 46 50  0  0  1  0  0  0  0  0999 V2000
  183.6320  178.6870  142.1470 C   0  0  0  0  0  0  0  0  0  0  0  0
  185.5530  178.9530  143.5990 C   0  0  0  0  0  3  0  0  0  0  0  0
  185.5680  178.8800  141.0810 C   0  0  0  0  0  0  0  0  0  0  0  0
  184.5240  178.7230  140.1710 C   0  0  0  0  0  0  0  0  0  0  0  0
  183.3010  178.7130  144.5250 C   0  0  0  0  0  3  0  0  0  0  0  0
  184.9840  178.8540  142.3310 C   0  0  0  0  0  0  0  0  0  0  0  0
  182.7550  178.6140  143.2320 C   0  0  0  0  0  3  0  0  0  0  0  0
  183.3470  178.6070  140.8300 N   0  0  0  0  0  0  0  0  0  0  0  0
  184.6910  178.8750  144.7100 C   0  0  0  0  0  0  0  0  0  0  0  0
  185.4570  177.7250  146.6210 O   0  0  0  0  0  1  0  0  0  0  0  0
  185.2460  178.9930  146.0850 C   0  0  0  0  0  2  0  0  0  0  0  0
  182.0970  178.4140  140.2140 N   0  0  0  0  0  2  0  0  0  0  0  0
  181.1010  179.4650  140.0780 C   0  0  0  0  0  2  0  0  0  0  0  0
  179.7080  178.8610  139.9790 C   0  0  0  0  0  2  0  0  0  0  0  0
  179.5970  177.9580  138.7920 C   0  0  0  0  0  0  0  0  0  0  0  0
  179.9860  178.3340  137.6970 O   0  0  0  0  0  0  0  0  0  0  0  0
  178.9530  176.6100  138.9430 C   0  0  0  0  0  2  0  0  0  0  0  0
  178.9330  173.2810  138.2400 O   0  0  0  0  0  0  0  0  0  0  0  0
  181.1990  173.9940  137.0940 C   0  0  0  0  0  2  0  0  0  0  0  0
  181.1470  175.6890  139.6900 C   0  0  0  0  0  1  0  0  0  0  0  0
  179.3120  175.4310  136.3140 C   0  0  0  0  0  1  0  0  0  0  0  0
  179.2640  174.1230  139.3090 C   0  0  0  0  0  2  0  0  0  0  0  0
  180.4140  172.4990  137.8250 S   0  0  0  0  0  0  0  0  0  0  0  0
  179.9290  175.4220  138.8170 C   0  0  1  0  0  0  0  0  0  0  0  0
  180.4220  175.2920  137.3510 C   0  0  1  0  0  3  0  0  0  0  0  0
  184.6680  178.6220  138.6850 C   0  0  0  0  0  2  0  0  0  0  0  0
  186.0160  176.9830  137.3700 C   0  0  0  0  0  1  0  0  0  0  0  0
  183.6520  176.8080  137.5270 O   0  0  0  0  0  1  0  0  0  0  0  0
  184.7900  177.1710  138.2470 C   0  0  2  0  0  3  0  0  0  0  0  0
  187.0250  179.0080  140.7780 C   0  0  0  0  0  2  0  0  0  0  0  0
  187.8220  178.0280  141.6190 C   0  0  0  0  0  2  0  0  0  0  0  0
  190.9410  176.3510  140.4450 N   0  0  0  0  0  0  0  0  0  0  0  0
  190.7760  176.9300  139.1220 C   0  0  2  0  0  3  0  0  0  0  0  0
  189.2180  177.8920  139.1100 S   0  0  0  0  0  0  0  0  0  0  0  0
  189.9350  176.2670  142.7670 C   0  0  0  0  0  1  0  0  0  0  0  0
  189.9080  176.7070  141.3450 C   0  0  0  0  0  0  0  0  0  0  0  0
  188.9660  177.4800  140.8320 C   0  0  1  0  0  3  0  0  0  0  0  0
  191.9450  175.3380  137.5120 N   0  0  0  0  0  0  0  0  0  0  0  0
  195.3830  173.1600  136.7370 C   0  0  0  0  0  1  0  0  0  0  0  0
  193.2280  175.9800  137.7950 C   0  0  0  0  0  2  0  0  0  0  0  0
  191.8860  174.3480  136.4370 C   0  0  0  0  0  2  0  0  0  0  0  0
  190.7320  175.8550  138.0790 C   0  0  0  0  0  0  0  0  0  0  0  0
  194.3180  174.1380  136.6150 N   0  0  0  0  0  0  0  0  0  0  0  0
  193.0640  173.3880  136.5630 C   0  0  0  0  0  2  0  0  0  0  0  0
  194.3310  174.9260  137.8450 C   0  0  0  0  0  2  0  0  0  0  0  0
  189.6150  175.4180  137.6860 O   0  0  0  0  0  0  0  0  0  0  0  0
  1  6  2  0  0  0  0
  1  7  1  0  0  0  0
  2  9  2  0  0  0  0
  3  6  1  0  0  0  0
  4  8  1  0  0  0  0
  4  3  2  0  0  0  0
  5  9  1  0  0  0  0
  6  2  1  0  0  0  0
  7  5  2  0  0  0  0
  8  1  1  0  0  0  0
  9 11  1  0  0  0  0
 11 10  1  0  0  0  0
 12  8  1  0  0  0  0
 13 12  1  0  0  0  0
 14 13  1  0  0  0  0
 15 17  1  0  0  0  0
 15 14  1  0  0  0  0
 16 15  2  0  0  0  0
 18 22  1  0  0  0  0
 19 25  1  0  0  0  0
 19 23  1  0  0  0  0
 23 18  1  0  0  0  0
 24 17  1  0  0  0  0
 24 22  1  0  0  0  0
 24 20  1  1  0  0  0
 25 21  1  6  0  0  0
 25 24  1  0  0  0  0
 26  4  1  0  0  0  0
 28 29  1  0  0  0  0
 29 27  1  6  0  0  0
 29 26  1  0  0  0  0
 30  3  1  0  0  0  0
 30 31  1  0  0  0  0
 32 36  2  0  0  0  0
 33 42  1  6  0  0  0
 33 32  1  0  0  0  0
 34 33  1  0  0  0  0
 34 37  1  0  0  0  0
 36 35  1  0  0  0  0
 37 36  1  0  0  0  0
 37 31  1  1  0  0  0
 38 40  1  0  0  0  0
 38 42  1  0  0  0  0
 40 45  1  0  0  0  0
 41 44  1  0  0  0  0
 41 38  1  0  0  0  0
 43 39  1  0  0  0  0
 43 45  1  0  0  0  0
 44 43  1  0  0  0  0
 46 42  2  0  0  0  0
M  END
>  <MODEL>
9

>  <REMARK>
 VINA RESULT:      -6.8      2.352      3.520
  Name = 
  13 active torsions:
  status: ('A' for Active; 'I' for Inactive)
    1  A    between atoms: N_9  and  N_34
    2  A    between atoms: N_9  and  C_36
    3  A    between atoms: C_10  and  C_29
    4  A    between atoms: C_12  and  C_40
    5  A    between atoms: C_15  and  C_17
    6  A    between atoms: C_15  and  C_32
    7  A    between atoms: C_23  and  C_27
    8  A    between atoms: C_23  and  C_36
    9  A    between atoms: C_24  and  C_38
   10  A    between atoms: C_27  and  C_45
   11  A    between atoms: C_39  and  C_43
   12  A    between atoms: C_40  and  C_43
   13  A    between atoms: C_44  and  C_45
                            x       y       z     vdW  Elec       q    Type
                         _______ _______ _______ _____ _____    ______ ____

>  <TORSDO>
F 13

$$$$
