=
 OpenBabel11042412233D

 60 66  0  0  1  0  0  0  0  0999 V2000
  189.0560  176.7100  142.9200 C   0  0  1  0  0  3  0  0  0  0  0  0
  188.0890  177.5180  143.7910 C   0  0  1  0  0  0  0  0  0  0  0  0
  187.7590  176.0840  143.4350 C   0  0  0  0  0  2  0  0  0  0  0  0
  188.9310  177.1370  141.5820 O   0  0  0  0  0  0  0  0  0  0  0  0
  190.1760  177.0210  140.9420 C   0  0  0  0  0  0  0  0  0  0  0  0
  191.1700  176.3280  141.8610 C   0  0  0  0  0  2  0  0  0  0  0  0
  191.3300  177.8070  141.5420 C   0  0  0  0  0  2  0  0  0  0  0  0
  190.2180  176.5590  139.4700 C   0  0  2  0  0  3  0  0  0  0  0  0
  192.1340  175.7770  138.2610 O   0  0  0  0  0  1  0  0  0  0  0  0
  191.5660  176.9060  138.8480 C   0  0  0  0  0  2  0  0  0  0  0  0
  189.0820  177.1570  138.6330 C   0  0  0  0  0  2  0  0  0  0  0  0
  189.6050  177.8840  137.4110 C   0  0  0  0  0  2  0  0  0  0  0  0
  189.2850  177.0640  136.1800 C   0  0  0  0  0  2  0  0  0  0  0  0
  187.9410  174.9730  136.4670 C   0  0  0  0  0  0  0  0  0  0  0  0
  188.0150  176.3070  136.4010 C   0  0  0  0  0  3  0  0  0  0  0  0
  184.4660  172.5130  136.5990 C   0  0  1  0  0  3  0  0  0  0  0  0
  185.7410  174.3260  135.4120 C   0  0  0  0  0  2  0  0  0  0  0  0
  183.0970  172.1300  137.1210 C   0  0  0  0  0  1  0  0  0  0  0  0
  186.6910  173.1090  137.2840 O   0  0  0  0  0  0  0  0  0  0  0  0
  184.3570  173.7830  135.7500 C   0  0  0  0  0  2  0  0  0  0  0  0
  186.5790  174.3850  136.6940 C   0  0  1  0  0  3  0  0  0  0  0  0
  185.4150  172.7720  137.7690 C   0  0  0  0  0  2  0  0  0  0  0  0
  189.7580  173.7500  137.4230 O   0  0  0  0  0  0  0  0  0  0  0  0
  189.1400  174.0960  136.3780 C   0  0  0  0  0  0  0  0  0  0  0  0
  189.5980  173.6420  135.0980 N   0  0  0  0  0  2  0  0  0  0  0  0
  191.9010  173.8890  134.8450 O   0  0  0  0  0  1  0  0  0  0  0  0
  190.8700  172.9520  134.9380 C   0  0  0  0  0  2  0  0  0  0  0  0
  188.5620  177.7780  145.2140 C   0  0  0  0  0  2  0  0  0  0  0  0
  189.9180  177.2800  145.3880 N   0  0  0  0  0  2  0  0  0  0  0  0
  190.0580  176.9960  146.8030 C   0  0  0  0  0  2  0  0  0  0  0  0
  192.0900  175.6410  146.3050 O   0  0  0  0  0  0  0  0  0  0  0  0
  191.4570  176.5900  147.1010 C   0  0  0  0  0  0  0  0  0  0  0  0
  192.0650  177.0980  148.0780 O   0  0  0  0  0  1  0  0  0  0  0  0
  187.4180  178.5850  143.0990 O   0  0  0  0  0  0  0  0  0  0  0  0
  182.7670  178.9450  144.5000 O   0  0  0  0  0  0  0  0  0  0  0  0
  180.8670  178.4130  141.5350 C   0  0  0  0  0  0  0  0  0  0  0  0
  181.6660  178.8020  143.7960 C   0  0  0  0  0  0  0  0  0  0  0  0
  183.7630  178.8570  143.6470 C   0  0  0  0  0  0  0  0  0  0  0  0
  180.4080  178.7900  144.2960 N   0  0  0  0  0  0  0  0  0  0  0  0
  181.9220  178.6340  142.4470 C   0  0  0  0  0  0  0  0  0  0  0  0
  183.3010  178.7010  142.3520 C   0  0  0  0  0  0  0  0  0  0  0  0
  186.0340  178.6840  142.8810 C   0  0  0  0  0  0  0  0  0  0  0  0
  179.3630  178.5310  143.4650 C   0  0  0  0  0  3  0  0  0  0  0  0
  184.1790  178.5530  141.2860 C   0  0  0  0  0  3  0  0  0  0  0  0
  179.5720  178.3330  142.0890 C   0  0  0  0  0  3  0  0  0  0  0  0
  185.1240  178.8530  143.9460 C   0  0  0  0  0  3  0  0  0  0  0  0
  185.5570  178.5630  141.5600 C   0  0  0  0  0  3  0  0  0  0  0  0
  181.6240  177.8300  137.9070 C   0  0  0  0  0  0  0  0  0  0  0  0
  181.5340  177.2110  139.2620 C   0  0  0  0  0  2  0  0  0  0  0  0
  181.2180  179.0980  137.9940 C   0  0  0  0  0  0  0  0  0  0  0  0
  181.0040  178.3650  140.0560 C   0  0  0  0  0  0  0  0  0  0  0  0
  180.8390  179.4210  139.3260 N   0  0  0  0  0  0  0  0  0  0  0  0
  182.1280  177.1510  136.7400 N   0  0  0  0  0  0  0  0  0  0  0  0
  181.2270  176.3250  135.9450 C   0  0  0  0  0  1  0  0  0  0  0  0
  183.4880  177.3370  136.2520 C   0  0  0  0  0  2  0  0  0  0  0  0
  184.4620  177.3690  137.4170 C   0  0  0  0  0  1  0  0  0  0  0  0
  181.3080  180.1450  136.9260 C   0  0  0  0  0  2  0  0  0  0  0  0
  180.1550  181.1410  137.0440 C   0  0  0  0  0  2  0  0  0  0  0  0
  180.6540  182.5450  136.9610 C   0  0  0  0  0  3  0  0  0  0  0  0
  179.9130  183.5260  137.3190 N   0  0  0  0  0  2  0  0  0  0  0  0
  1  4  1  6  0  0  0
  1  3  1  0  0  0  0
  1  2  1  0  0  0  0
  2 28  1  1  0  0  0
  3  2  1  0  0  0  0
  5  7  1  0  0  0  0
  5  4  1  0  0  0  0
  5  6  1  0  0  0  0
  7  6  1  0  0  0  0
  8 11  1  6  0  0  0
  8  5  1  0  0  0  0
  9 10  1  0  0  0  0
 10  8  1  0  0  0  0
 12 11  1  0  0  0  0
 13 15  1  0  0  0  0
 13 12  1  0  0  0  0
 15 14  2  0  0  0  0
 16 18  1  1  0  0  0
 16 22  1  0  0  0  0
 17 20  1  0  0  0  0
 17 21  1  0  0  0  0
 19 22  1  0  0  0  0
 20 16  1  0  0  0  0
 21 14  1  6  0  0  0
 21 19  1  0  0  0  0
 24 14  1  0  0  0  0
 24 23  2  0  0  0  0
 25 24  1  0  0  0  0
 26 27  1  0  0  0  0
 27 25  1  0  0  0  0
 28 29  1  0  0  0  0
 29 30  1  0  0  0  0
 30 32  1  0  0  0  0
 31 32  2  0  0  0  0
 32 33  1  0  0  0  0
 34  2  1  0  0  0  0
 36 45  1  0  0  0  0
 36 40  2  0  0  0  0
 37 39  2  0  0  0  0
 37 35  1  0  0  0  0
 38 46  1  0  0  0  0
 38 35  1  0  0  0  0
 40 37  1  0  0  0  0
 41 40  1  0  0  0  0
 41 38  2  0  0  0  0
 42 34  1  0  0  0  0
 42 46  2  0  0  0  0
 43 39  1  0  0  0  0
 44 47  2  0  0  0  0
 44 41  1  0  0  0  0
 45 43  2  0  0  0  0
 47 42  1  0  0  0  0
 48 50  2  0  0  0  0
 48 49  1  0  0  0  0
 49 51  1  0  0  0  0
 50 52  1  0  0  0  0
 51 36  1  0  0  0  0
 52 51  2  0  0  0  0
 53 48  1  0  0  0  0
 54 53  1  0  0  0  0
 55 53  1  0  0  0  0
 55 56  1  0  0  0  0
 57 58  1  0  0  0  0
 57 50  1  0  0  0  0
 59 58  1  0  0  0  0
 59 60  2  0  0  0  0
M  END
>  <MODEL>
1

>  <REMARK>
 VINA RESULT:      -6.8      0.000      0.000
  Name = 
  23 active torsions:
  status: ('A' for Active; 'I' for Inactive)
    1  A    between atoms: O_2  and  C_18
    2  A    between atoms: O_2  and  C_46
    3  A    between atoms: C_3  and  N_23
    4  A    between atoms: C_4  and  C_9
    5  A    between atoms: C_4  and  C_38
    6  A    between atoms: C_5  and  C_18
    7  A    between atoms: C_5  and  N_33
    8  A    between atoms: C_7  and  N_23
    9  A    between atoms: C_9  and  C_17
   10  A    between atoms: C_11  and  C_36
   11  A    between atoms: C_11  and  C_40
   12  A    between atoms: C_14  and  O_59
   13  A    between atoms: C_15  and  C_25
   14  A    between atoms: C_16  and  C_28
   15  A    between atoms: C_21  and  C_60
   16  A    between atoms: C_28  and  C_45
   17  A    between atoms: C_30  and  C_31
   18  A    between atoms: C_31  and  N_33
   19  A    between atoms: C_38  and  C_60
   20  A    between atoms: C_39  and  O_59
   21  A    between atoms: C_39  and  C_60
   22  A    between atoms: C_43  and  C_45
   23  A    between atoms: C_56  and  N_58
                            x       y       z     vdW  Elec       q    Type
                         _______ _______ _______ _____ _____    ______ ____

>  <TORSDO>
F 23

$$$$
=
 OpenBabel11042412233D

 60 66  0  0  1  0  0  0  0  0999 V2000
  188.7830  177.1140  144.1140 C   0  0  1  0  0  3  0  0  0  0  0  0
  187.2870  177.3710  144.3190 C   0  0  1  0  0  0  0  0  0  0  0  0
  187.7410  176.1300  143.5800 C   0  0  0  0  0  2  0  0  0  0  0  0
  189.2570  177.9690  143.0980 O   0  0  0  0  0  0  0  0  0  0  0  0
  190.6040  177.6690  142.8330 C   0  0  0  0  0  0  0  0  0  0  0  0
  191.2450  177.0360  144.0580 C   0  0  0  0  0  2  0  0  0  0  0  0
  191.6460  178.4390  143.6290 C   0  0  0  0  0  2  0  0  0  0  0  0
  190.9710  177.0060  141.4890 C   0  0  2  0  0  3  0  0  0  0  0  0
  193.0910  177.0240  140.3730 O   0  0  0  0  0  1  0  0  0  0  0  0
  192.0270  177.8340  140.7650 C   0  0  0  0  0  2  0  0  0  0  0  0
  189.7520  176.7990  140.5830 C   0  0  0  0  0  2  0  0  0  0  0  0
  189.4170  178.0480  139.7930 C   0  0  0  0  0  2  0  0  0  0  0  0
  189.6960  177.7890  138.3290 C   0  0  0  0  0  2  0  0  0  0  0  0
  189.3620  175.5780  137.2070 C   0  0  0  0  0  0  0  0  0  0  0  0
  188.8690  176.6360  137.8590 C   0  0  0  0  0  3  0  0  0  0  0  0
  187.3760  172.1810  135.5740 C   0  0  1  0  0  3  0  0  0  0  0  0
  187.9630  174.6150  135.3400 C   0  0  0  0  0  2  0  0  0  0  0  0
  186.2330  171.1910  135.4910 C   0  0  0  0  0  1  0  0  0  0  0  0
  188.9030  173.2360  137.1020 O   0  0  0  0  0  0  0  0  0  0  0  0
  186.9170  173.5440  135.0480 C   0  0  0  0  0  2  0  0  0  0  0  0
  188.3800  174.5140  136.8110 C   0  0  1  0  0  3  0  0  0  0  0  0
  187.8290  172.3320  137.0270 C   0  0  0  0  0  2  0  0  0  0  0  0
  191.3030  175.8190  135.8330 O   0  0  0  0  0  0  0  0  0  0  0  0
  190.8130  175.4130  136.9240 C   0  0  0  0  0  0  0  0  0  0  0  0
  191.6620  174.7870  137.8940 N   0  0  0  0  0  2  0  0  0  0  0  0
  193.0550  173.2790  136.7900 O   0  0  0  0  0  1  0  0  0  0  0  0
  193.0390  174.4230  137.5890 C   0  0  0  0  0  2  0  0  0  0  0  0
  186.7850  177.1750  145.7420 C   0  0  0  0  0  2  0  0  0  0  0  0
  186.7560  178.4510  146.4400 N   0  0  0  0  0  2  0  0  0  0  0  0
  187.1970  178.1740  147.7940 C   0  0  0  0  0  2  0  0  0  0  0  0
  188.7570  176.2340  147.9070 O   0  0  0  0  0  1  0  0  0  0  0  0
  188.5700  177.6050  147.7720 C   0  0  0  0  0  0  0  0  0  0  0  0
  189.5640  178.3650  147.6390 O   0  0  0  0  0  0  0  0  0  0  0  0
  186.7680  178.4830  143.5680 O   0  0  0  0  0  0  0  0  0  0  0  0
  182.0230  179.5730  143.4160 O   0  0  0  0  0  0  0  0  0  0  0  0
  180.8100  177.9970  140.4610 C   0  0  0  0  0  0  0  0  0  0  0  0
  181.1080  179.2120  142.5430 C   0  0  0  0  0  0  0  0  0  0  0  0
  183.1660  179.1100  142.9610 C   0  0  0  0  0  0  0  0  0  0  0  0
  179.7800  179.4540  142.6490 N   0  0  0  0  0  0  0  0  0  0  0  0
  181.6440  178.5130  141.4760 C   0  0  0  0  0  0  0  0  0  0  0  0
  183.0010  178.4760  141.7430 C   0  0  0  0  0  0  0  0  0  0  0  0
  185.5030  178.5490  142.9620 C   0  0  0  0  0  0  0  0  0  0  0  0
  178.9320  178.9340  141.7230 C   0  0  0  0  0  3  0  0  0  0  0  0
  184.0730  177.8800  141.0890 C   0  0  0  0  0  3  0  0  0  0  0  0
  179.4250  178.1990  140.6300 C   0  0  0  0  0  3  0  0  0  0  0  0
  184.4040  179.1650  143.5980 C   0  0  0  0  0  3  0  0  0  0  0  0
  185.3340  177.9370  141.7030 C   0  0  0  0  0  3  0  0  0  0  0  0
  181.9460  175.8540  137.5980 C   0  0  0  0  0  0  0  0  0  0  0  0
  181.1020  175.9230  138.8270 C   0  0  0  0  0  2  0  0  0  0  0  0
  182.4810  177.0580  137.3850 C   0  0  0  0  0  0  0  0  0  0  0  0
  181.2800  177.3610  139.2020 C   0  0  0  0  0  0  0  0  0  0  0  0
  182.0660  177.9830  138.3830 N   0  0  0  0  0  0  0  0  0  0  0  0
  182.1680  174.6520  136.8360 N   0  0  0  0  0  0  0  0  0  0  0  0
  181.0240  173.8920  136.3460 C   0  0  0  0  0  1  0  0  0  0  0  0
  183.4970  174.2090  136.4380 C   0  0  0  0  0  2  0  0  0  0  0  0
  184.2370  173.6370  137.6340 C   0  0  0  0  0  1  0  0  0  0  0  0
  183.5310  177.4080  136.3760 C   0  0  0  0  0  2  0  0  0  0  0  0
  184.9280  177.2880  136.9830 C   0  0  0  0  0  2  0  0  0  0  0  0
  185.9690  177.7500  136.0190 C   0  0  0  0  0  3  0  0  0  0  0  0
  185.9770  177.3270  134.8100 N   0  0  0  0  0  2  0  0  0  0  0  0
  1  4  1  6  0  0  0
  1  2  1  0  0  0  0
  2 28  1  1  0  0  0
  3  1  1  0  0  0  0
  3  2  1  0  0  0  0
  5  4  1  0  0  0  0
  5  7  1  0  0  0  0
  5  6  1  0  0  0  0
  7  6  1  0  0  0  0
  8 11  1  6  0  0  0
  8  5  1  0  0  0  0
  9 10  1  0  0  0  0
 10  8  1  0  0  0  0
 12 11  1  0  0  0  0
 13 12  1  0  0  0  0
 14 15  2  0  0  0  0
 15 13  1  0  0  0  0
 16 18  1  1  0  0  0
 16 22  1  0  0  0  0
 17 21  1  0  0  0  0
 20 17  1  0  0  0  0
 20 16  1  0  0  0  0
 21 19  1  0  0  0  0
 21 14  1  6  0  0  0
 22 19  1  0  0  0  0
 23 24  2  0  0  0  0
 24 14  1  0  0  0  0
 24 25  1  0  0  0  0
 26 27  1  0  0  0  0
 27 25  1  0  0  0  0
 28 29  1  0  0  0  0
 29 30  1  0  0  0  0
 32 30  1  0  0  0  0
 32 31  1  0  0  0  0
 33 32  2  0  0  0  0
 34  2  1  0  0  0  0
 36 45  1  0  0  0  0
 36 40  2  0  0  0  0
 37 39  2  0  0  0  0
 37 35  1  0  0  0  0
 38 35  1  0  0  0  0
 38 46  1  0  0  0  0
 40 41  1  0  0  0  0
 40 37  1  0  0  0  0
 41 38  2  0  0  0  0
 42 34  1  0  0  0  0
 42 46  2  0  0  0  0
 43 39  1  0  0  0  0
 44 47  2  0  0  0  0
 44 41  1  0  0  0  0
 45 43  2  0  0  0  0
 47 42  1  0  0  0  0
 48 49  1  0  0  0  0
 49 51  1  0  0  0  0
 50 48  2  0  0  0  0
 50 52  1  0  0  0  0
 51 36  1  0  0  0  0
 52 51  2  0  0  0  0
 53 48  1  0  0  0  0
 54 53  1  0  0  0  0
 55 53  1  0  0  0  0
 55 56  1  0  0  0  0
 57 58  1  0  0  0  0
 57 50  1  0  0  0  0
 59 58  1  0  0  0  0
 60 59  2  0  0  0  0
M  END
>  <MODEL>
2

>  <REMARK>
 VINA RESULT:      -6.7      2.097      2.804
  Name = 
  23 active torsions:
  status: ('A' for Active; 'I' for Inactive)
    1  A    between atoms: O_2  and  C_18
    2  A    between atoms: O_2  and  C_46
    3  A    between atoms: C_3  and  N_23
    4  A    between atoms: C_4  and  C_9
    5  A    between atoms: C_4  and  C_38
    6  A    between atoms: C_5  and  C_18
    7  A    between atoms: C_5  and  N_33
    8  A    between atoms: C_7  and  N_23
    9  A    between atoms: C_9  and  C_17
   10  A    between atoms: C_11  and  C_36
   11  A    between atoms: C_11  and  C_40
   12  A    between atoms: C_14  and  O_59
   13  A    between atoms: C_15  and  C_25
   14  A    between atoms: C_16  and  C_28
   15  A    between atoms: C_21  and  C_60
   16  A    between atoms: C_28  and  C_45
   17  A    between atoms: C_30  and  C_31
   18  A    between atoms: C_31  and  N_33
   19  A    between atoms: C_38  and  C_60
   20  A    between atoms: C_39  and  O_59
   21  A    between atoms: C_39  and  C_60
   22  A    between atoms: C_43  and  C_45
   23  A    between atoms: C_56  and  N_58
                            x       y       z     vdW  Elec       q    Type
                         _______ _______ _______ _____ _____    ______ ____

>  <TORSDO>
F 23

$$$$
=
 OpenBabel11042412233D

 60 66  0  0  1  0  0  0  0  0999 V2000
  188.9500  176.5190  143.1360 C   0  0  1  0  0  3  0  0  0  0  0  0
  187.9410  177.3430  143.9430 C   0  0  1  0  0  0  0  0  0  0  0  0
  187.5960  175.9280  143.5320 C   0  0  0  0  0  2  0  0  0  0  0  0
  188.9470  176.9750  141.8020 O   0  0  0  0  0  0  0  0  0  0  0  0
  190.2610  176.9570  141.3050 C   0  0  0  0  0  0  0  0  0  0  0  0
  191.1800  176.2540  142.2920 C   0  0  0  0  0  2  0  0  0  0  0  0
  191.2970  177.7560  142.0780 C   0  0  0  0  0  2  0  0  0  0  0  0
  190.4930  176.5900  139.8230 C   0  0  2  0  0  3  0  0  0  0  0  0
  192.7280  176.4210  138.9760 O   0  0  0  0  0  1  0  0  0  0  0  0
  191.7150  177.3270  139.2850 C   0  0  0  0  0  2  0  0  0  0  0  0
  189.2720  176.8850  138.9450 C   0  0  0  0  0  2  0  0  0  0  0  0
  189.6310  177.7440  137.7500 C   0  0  0  0  0  2  0  0  0  0  0  0
  189.4940  176.9140  136.4930 C   0  0  0  0  0  2  0  0  0  0  0  0
  188.0370  174.8820  136.3900 C   0  0  0  0  0  0  0  0  0  0  0  0
  188.1770  176.2080  136.5020 C   0  0  0  0  0  3  0  0  0  0  0  0
  184.0310  173.8270  137.3830 C   0  0  1  0  0  3  0  0  0  0  0  0
  186.4640  173.1920  137.4100 C   0  0  0  0  0  2  0  0  0  0  0  0
  182.6430  173.3170  137.0530 C   0  0  0  0  0  1  0  0  0  0  0  0
  185.7230  175.3890  136.6940 O   0  0  0  0  0  0  0  0  0  0  0  0
  185.0330  172.6710  137.3200 C   0  0  0  0  0  2  0  0  0  0  0  0
  186.6340  174.3480  136.4190 C   0  0  1  0  0  3  0  0  0  0  0  0
  184.4420  174.9020  136.3770 C   0  0  0  0  0  2  0  0  0  0  0  0
  189.7660  173.5350  137.3440 O   0  0  0  0  0  0  0  0  0  0  0  0
  189.1980  173.9570  136.2970 C   0  0  0  0  0  0  0  0  0  0  0  0
  189.6780  173.5410  135.0120 N   0  0  0  0  0  2  0  0  0  0  0  0
  191.9970  173.6940  134.8430 O   0  0  0  0  0  1  0  0  0  0  0  0
  190.9230  172.8020  134.8590 C   0  0  0  0  0  2  0  0  0  0  0  0
  188.3060  177.5610  145.4040 C   0  0  0  0  0  2  0  0  0  0  0  0
  189.7520  177.5290  145.5680 N   0  0  0  0  0  2  0  0  0  0  0  0
  189.9900  176.9620  146.8820 C   0  0  0  0  0  2  0  0  0  0  0  0
  192.1360  176.9180  148.1470 O   0  0  0  0  0  1  0  0  0  0  0  0
  191.4170  176.5670  147.0100 C   0  0  0  0  0  0  0  0  0  0  0  0
  191.9770  175.9220  146.0860 O   0  0  0  0  0  0  0  0  0  0  0  0
  187.3630  178.4440  143.2220 O   0  0  0  0  0  0  0  0  0  0  0  0
  182.6660  178.6240  144.4990 O   0  0  0  0  0  0  0  0  0  0  0  0
  180.8870  178.9110  141.4270 C   0  0  0  0  0  0  0  0  0  0  0  0
  181.5940  178.7010  143.7410 C   0  0  0  0  0  0  0  0  0  0  0  0
  183.6960  178.7110  143.6870 C   0  0  0  0  0  0  0  0  0  0  0  0
  180.3150  178.6140  144.1760 N   0  0  0  0  0  0  0  0  0  0  0  0
  181.9060  178.8610  142.4030 C   0  0  0  0  0  0  0  0  0  0  0  0
  183.2880  178.8970  142.3780 C   0  0  0  0  0  0  0  0  0  0  0  0
  185.9940  178.6460  142.9860 C   0  0  0  0  0  0  0  0  0  0  0  0
  179.3020  178.6070  143.2700 C   0  0  0  0  0  3  0  0  0  0  0  0
  184.2090  178.9830  141.3410 C   0  0  0  0  0  3  0  0  0  0  0  0
  179.5670  178.7470  141.8960 C   0  0  0  0  0  3  0  0  0  0  0  0
  185.0420  178.5820  144.0250 C   0  0  0  0  0  3  0  0  0  0  0  0
  185.5730  178.8730  141.6590 C   0  0  0  0  0  3  0  0  0  0  0  0
  180.9050  180.0860  137.8640 C   0  0  0  0  0  0  0  0  0  0  0  0
  180.5830  180.4420  139.2770 C   0  0  0  0  0  2  0  0  0  0  0  0
  181.4710  178.8780  137.8510 C   0  0  0  0  0  0  0  0  0  0  0  0
  181.0880  179.2240  139.9880 C   0  0  0  0  0  0  0  0  0  0  0  0
  181.5770  178.3510  139.1680 N   0  0  0  0  0  0  0  0  0  0  0  0
  180.5840  180.9140  136.7290 N   0  0  0  0  0  0  0  0  0  0  0  0
  180.7730  180.3890  135.3820 C   0  0  0  0  0  1  0  0  0  0  0  0
  179.9740  182.2300  136.8660 C   0  0  0  0  0  2  0  0  0  0  0  0
  180.8770  183.2900  136.2590 C   0  0  0  0  0  1  0  0  0  0  0  0
  181.7910  178.0490  136.6440 C   0  0  0  0  0  2  0  0  0  0  0  0
  181.0370  176.7210  136.6820 C   0  0  0  0  0  2  0  0  0  0  0  0
  180.9300  176.1300  135.3170 C   0  0  0  0  0  3  0  0  0  0  0  0
  179.8320  175.6080  134.9120 N   0  0  0  0  0  2  0  0  0  0  0  0
  1  4  1  6  0  0  0
  1  3  1  0  0  0  0
  1  2  1  0  0  0  0
  2 28  1  1  0  0  0
  3  2  1  0  0  0  0
  5  4  1  0  0  0  0
  5  7  1  0  0  0  0
  5  6  1  0  0  0  0
  7  6  1  0  0  0  0
  8 11  1  6  0  0  0
  8  5  1  0  0  0  0
  9 10  1  0  0  0  0
 10  8  1  0  0  0  0
 12 11  1  0  0  0  0
 13 15  1  0  0  0  0
 13 12  1  0  0  0  0
 14 15  2  0  0  0  0
 16 18  1  6  0  0  0
 20 16  1  0  0  0  0
 20 17  1  0  0  0  0
 21 14  1  1  0  0  0
 21 19  1  0  0  0  0
 21 17  1  0  0  0  0
 22 19  1  0  0  0  0
 22 16  1  0  0  0  0
 24 14  1  0  0  0  0
 24 23  2  0  0  0  0
 25 24  1  0  0  0  0
 26 27  1  0  0  0  0
 27 25  1  0  0  0  0
 28 29  1  0  0  0  0
 29 30  1  0  0  0  0
 30 32  1  0  0  0  0
 32 31  1  0  0  0  0
 33 32  2  0  0  0  0
 34  2  1  0  0  0  0
 36 45  1  0  0  0  0
 36 40  2  0  0  0  0
 37 39  2  0  0  0  0
 37 35  1  0  0  0  0
 38 46  1  0  0  0  0
 38 35  1  0  0  0  0
 40 37  1  0  0  0  0
 41 40  1  0  0  0  0
 41 38  2  0  0  0  0
 42 34  1  0  0  0  0
 42 46  2  0  0  0  0
 43 39  1  0  0  0  0
 44 47  2  0  0  0  0
 44 41  1  0  0  0  0
 45 43  2  0  0  0  0
 47 42  1  0  0  0  0
 48 49  1  0  0  0  0
 49 51  1  0  0  0  0
 50 48  2  0  0  0  0
 50 52  1  0  0  0  0
 51 36  1  0  0  0  0
 52 51  2  0  0  0  0
 53 55  1  0  0  0  0
 53 48  1  0  0  0  0
 54 53  1  0  0  0  0
 56 55  1  0  0  0  0
 57 58  1  0  0  0  0
 57 50  1  0  0  0  0
 59 58  1  0  0  0  0
 60 59  2  0  0  0  0
M  END
>  <MODEL>
3

>  <REMARK>
 VINA RESULT:      -6.4      0.966      2.310
  Name = 
  23 active torsions:
  status: ('A' for Active; 'I' for Inactive)
    1  A    between atoms: O_2  and  C_18
    2  A    between atoms: O_2  and  C_46
    3  A    between atoms: C_3  and  N_23
    4  A    between atoms: C_4  and  C_9
    5  A    between atoms: C_4  and  C_38
    6  A    between atoms: C_5  and  C_18
    7  A    between atoms: C_5  and  N_33
    8  A    between atoms: C_7  and  N_23
    9  A    between atoms: C_9  and  C_17
   10  A    between atoms: C_11  and  C_36
   11  A    between atoms: C_11  and  C_40
   12  A    between atoms: C_14  and  O_59
   13  A    between atoms: C_15  and  C_25
   14  A    between atoms: C_16  and  C_28
   15  A    between atoms: C_21  and  C_60
   16  A    between atoms: C_28  and  C_45
   17  A    between atoms: C_30  and  C_31
   18  A    between atoms: C_31  and  N_33
   19  A    between atoms: C_38  and  C_60
   20  A    between atoms: C_39  and  O_59
   21  A    between atoms: C_39  and  C_60
   22  A    between atoms: C_43  and  C_45
   23  A    between atoms: C_56  and  N_58
                            x       y       z     vdW  Elec       q    Type
                         _______ _______ _______ _____ _____    ______ ____

>  <TORSDO>
F 23

$$$$
=
 OpenBabel11042412233D

 60 66  0  0  1  0  0  0  0  0999 V2000
  189.2270  177.0150  136.6240 C   0  0  1  0  0  3  0  0  0  0  0  0
  187.7690  176.7310  136.2480 C   0  0  1  0  0  0  0  0  0  0  0  0
  188.1950  178.1440  136.5840 C   0  0  0  0  0  2  0  0  0  0  0  0
  189.4540  176.5660  137.9410 O   0  0  0  0  0  0  0  0  0  0  0  0
  190.8340  176.3880  138.1360 C   0  0  0  0  0  0  0  0  0  0  0  0
  191.5240  176.1710  136.7980 C   0  0  0  0  0  2  0  0  0  0  0  0
  191.4040  175.0220  137.7890 C   0  0  0  0  0  2  0  0  0  0  0  0
  191.5780  177.3280  139.1080 C   0  0  2  0  0  3  0  0  0  0  0  0
  193.5530  177.1590  140.4550 O   0  0  0  0  0  1  0  0  0  0  0  0
  193.0560  176.9600  139.1680 C   0  0  0  0  0  2  0  0  0  0  0  0
  190.9750  177.3150  140.5170 C   0  0  0  0  0  2  0  0  0  0  0  0
  189.6010  177.9530  140.5490 C   0  0  0  0  0  2  0  0  0  0  0  0
  188.6450  177.0200  141.2600 C   0  0  0  0  0  2  0  0  0  0  0  0
  187.5960  177.8140  143.3880 C   0  0  0  0  0  0  0  0  0  0  0  0
  188.6480  177.3230  142.7230 C   0  0  0  0  0  3  0  0  0  0  0  0
  188.1480  177.4840  147.5990 C   0  0  1  0  0  3  0  0  0  0  0  0
  186.5400  177.6930  145.6780 C   0  0  0  0  0  2  0  0  0  0  0  0
  188.4880  178.0360  148.9680 C   0  0  0  0  0  1  0  0  0  0  0  0
  188.9190  177.3640  145.3260 O   0  0  0  0  0  0  0  0  0  0  0  0
  186.7960  178.0370  147.1410 C   0  0  0  0  0  2  0  0  0  0  0  0
  187.7830  178.0570  144.8580 C   0  0  1  0  0  3  0  0  0  0  0  0
  189.2240  177.8930  146.5930 C   0  0  0  0  0  2  0  0  0  0  0  0
  185.2650  177.3900  143.0740 O   0  0  0  0  0  0  0  0  0  0  0  0
  186.2810  178.0630  142.7400 C   0  0  0  0  0  0  0  0  0  0  0  0
  186.1630  179.0710  141.7290 N   0  0  0  0  0  2  0  0  0  0  0  0
  185.3050  179.5010  139.6050 O   0  0  0  0  0  1  0  0  0  0  0  0
  184.9570  179.2190  140.9270 C   0  0  0  0  0  2  0  0  0  0  0  0
  187.5280  176.4200  134.7790 C   0  0  0  0  0  2  0  0  0  0  0  0
  187.3550  174.9870  134.5940 N   0  0  0  0  0  2  0  0  0  0  0  0
  188.6910  174.4220  134.5960 C   0  0  0  0  0  2  0  0  0  0  0  0
  188.7120  173.1710  136.7510 O   0  0  0  0  0  1  0  0  0  0  0  0
  188.6990  173.1480  135.3620 C   0  0  0  0  0  0  0  0  0  0  0  0
  188.7030  172.0470  134.7510 O   0  0  0  0  0  0  0  0  0  0  0  0
  187.0430  175.9660  137.2260 O   0  0  0  0  0  0  0  0  0  0  0  0
  182.8990  173.4560  136.7300 O   0  0  0  0  0  0  0  0  0  0  0  0
  180.3100  175.8850  137.0210 C   0  0  0  0  0  0  0  0  0  0  0  0
  181.6550  173.8840  136.7290 C   0  0  0  0  0  0  0  0  0  0  0  0
  183.6460  174.5020  137.0030 C   0  0  0  0  0  0  0  0  0  0  0  0
  180.5640  173.1310  136.4530 N   0  0  0  0  0  0  0  0  0  0  0  0
  181.5620  175.2320  137.0250 C   0  0  0  0  0  0  0  0  0  0  0  0
  182.8710  175.6250  137.2330 C   0  0  0  0  0  0  0  0  0  0  0  0
  185.6500  175.8010  137.2750 C   0  0  0  0  0  0  0  0  0  0  0  0
  179.3440  173.7250  136.3880 C   0  0  0  0  0  3  0  0  0  0  0  0
  183.4520  176.8570  137.5090 C   0  0  0  0  0  3  0  0  0  0  0  0
  179.1980  175.0970  136.6600 C   0  0  0  0  0  3  0  0  0  0  0  0
  185.0390  174.5560  137.0170 C   0  0  0  0  0  3  0  0  0  0  0  0
  184.8540  176.9330  137.5450 C   0  0  0  0  0  3  0  0  0  0  0  0
  180.1280  179.5710  137.7010 C   0  0  0  0  0  0  0  0  0  0  0  0
  180.3900  178.5180  136.6770 C   0  0  0  0  0  3  0  0  0  0  0  0
  179.7470  178.9730  138.8320 C   0  0  1  0  0  3  0  0  0  0  0  0
  180.0690  177.2840  137.4620 C   0  0  0  0  0  0  0  0  0  0  0  0
  179.7160  177.5600  138.6760 N   0  0  0  0  0  0  0  0  0  0  0  0
  180.3260  180.9800  137.4810 N   0  0  0  0  0  0  0  0  0  0  0  0
  181.3390  181.6920  138.2520 C   0  0  0  0  0  1  0  0  0  0  0  0
  179.6250  181.7180  136.4380 C   0  0  0  0  0  2  0  0  0  0  0  0
  179.1030  183.0330  136.9900 C   0  0  0  0  0  1  0  0  0  0  0  0
  179.5550  179.6210  140.1690 C   0  0  0  0  0  2  0  0  0  0  0  0
  180.8150  179.4850  141.0240 C   0  0  0  0  0  2  0  0  0  0  0  0
  180.4910  179.6120  142.4740 C   0  0  0  0  0  3  0  0  0  0  0  0
  181.3220  179.2250  143.3680 N   0  0  0  0  0  2  0  0  0  0  0  0
  1  4  1  1  0  0  0
  2 28  1  6  0  0  0
  2  3  1  0  0  0  0
  2  1  1  0  0  0  0
  2 34  1  0  0  0  0
  3  1  1  0  0  0  0
  4  5  1  0  0  0  0
  5  8  1  0  0  0  0
  6  7  1  0  0  0  0
  6  5  1  0  0  0  0
  7  5  1  0  0  0  0
  8 10  1  1  0  0  0
  8 11  1  0  0  0  0
 10  9  1  0  0  0  0
 11 12  1  0  0  0  0
 12 13  1  0  0  0  0
 13 15  1  0  0  0  0
 15 14  2  0  0  0  0
 16 18  1  1  0  0  0
 17 20  1  0  0  0  0
 19 22  1  0  0  0  0
 20 16  1  0  0  0  0
 21 14  1  6  0  0  0
 21 19  1  0  0  0  0
 21 17  1  0  0  0  0
 22 16  1  0  0  0  0
 24 23  2  0  0  0  0
 24 14  1  0  0  0  0
 25 24  1  0  0  0  0
 26 27  1  0  0  0  0
 27 25  1  0  0  0  0
 29 30  1  0  0  0  0
 29 28  1  0  0  0  0
 30 32  1  0  0  0  0
 32 31  1  0  0  0  0
 33 32  2  0  0  0  0
 34 42  1  0  0  0  0
 35 38  1  0  0  0  0
 36 40  2  0  0  0  0
 36 51  1  0  0  0  0
 37 35  1  0  0  0  0
 37 40  1  0  0  0  0
 38 46  2  0  0  0  0
 38 41  1  0  0  0  0
 39 37  2  0  0  0  0
 40 41  1  0  0  0  0
 41 44  2  0  0  0  0
 42 47  2  0  0  0  0
 43 39  1  0  0  0  0
 43 45  2  0  0  0  0
 44 47  1  0  0  0  0
 45 36  1  0  0  0  0
 46 42  1  0  0  0  0
 48 50  1  0  0  0  0
 49 51  1  0  0  0  0
 49 48  2  0  0  0  0
 50 57  1  1  0  0  0
 51 52  2  0  0  0  0
 52 50  1  0  0  0  0
 53 48  1  0  0  0  0
 53 54  1  0  0  0  0
 55 56  1  0  0  0  0
 55 53  1  0  0  0  0
 57 58  1  0  0  0  0
 58 59  1  0  0  0  0
 59 60  2  0  0  0  0
M  END
>  <MODEL>
4

>  <REMARK>
 VINA RESULT:      -5.8      2.153      7.777
  Name = 
  23 active torsions:
  status: ('A' for Active; 'I' for Inactive)
    1  A    between atoms: O_2  and  C_18
    2  A    between atoms: O_2  and  C_46
    3  A    between atoms: C_3  and  N_23
    4  A    between atoms: C_4  and  C_9
    5  A    between atoms: C_4  and  C_38
    6  A    between atoms: C_5  and  C_18
    7  A    between atoms: C_5  and  N_33
    8  A    between atoms: C_7  and  N_23
    9  A    between atoms: C_9  and  C_17
   10  A    between atoms: C_11  and  C_36
   11  A    between atoms: C_11  and  C_40
   12  A    between atoms: C_14  and  O_59
   13  A    between atoms: C_15  and  C_25
   14  A    between atoms: C_16  and  C_28
   15  A    between atoms: C_21  and  C_60
   16  A    between atoms: C_28  and  C_45
   17  A    between atoms: C_30  and  C_31
   18  A    between atoms: C_31  and  N_33
   19  A    between atoms: C_38  and  C_60
   20  A    between atoms: C_39  and  O_59
   21  A    between atoms: C_39  and  C_60
   22  A    between atoms: C_43  and  C_45
   23  A    between atoms: C_56  and  N_58
                            x       y       z     vdW  Elec       q    Type
                         _______ _______ _______ _____ _____    ______ ____

>  <TORSDO>
F 23

$$$$
=
 OpenBabel11042412233D

 60 66  0  0  1  0  0  0  0  0999 V2000
  189.1540  177.0010  143.3260 C   0  0  1  0  0  3  0  0  0  0  0  0
  187.9430  177.5220  144.1070 C   0  0  1  0  0  0  0  0  0  0  0  0
  187.8540  176.1960  143.3840 C   0  0  0  0  0  2  0  0  0  0  0  0
  189.2630  177.7230  142.1190 O   0  0  0  0  0  0  0  0  0  0  0  0
  190.4760  177.3930  141.4930 C   0  0  0  0  0  0  0  0  0  0  0  0
  191.0930  176.1760  142.1630 C   0  0  0  0  0  2  0  0  0  0  0  0
  191.7390  177.5440  142.3250 C   0  0  0  0  0  2  0  0  0  0  0  0
  190.5440  177.3920  139.9500 C   0  0  2  0  0  3  0  0  0  0  0  0
  189.0490  177.7300  138.1080 O   0  0  0  0  0  1  0  0  0  0  0  0
  189.1600  177.1360  139.3640 C   0  0  0  0  0  2  0  0  0  0  0  0
  191.5440  176.3660  139.4060 C   0  0  0  0  0  2  0  0  0  0  0  0
  192.7040  177.0310  138.6940 C   0  0  0  0  0  2  0  0  0  0  0  0
  193.0850  176.1940  137.4930 C   0  0  0  0  0  2  0  0  0  0  0  0
  191.8320  174.4270  136.2390 C   0  0  0  0  0  0  0  0  0  0  0  0
  191.8540  175.5950  136.8910 C   0  0  0  0  0  3  0  0  0  0  0  0
  187.6980  173.7730  135.4460 C   0  0  1  0  0  3  0  0  0  0  0  0
  189.7750  173.0220  136.6470 C   0  0  0  0  0  2  0  0  0  0  0  0
  186.5420  173.2910  134.5950 C   0  0  0  0  0  1  0  0  0  0  0  0
  189.7000  175.1030  135.4000 O   0  0  0  0  0  0  0  0  0  0  0  0
  188.4750  172.5710  135.9900 C   0  0  0  0  0  2  0  0  0  0  0  0
  190.5030  173.9830  135.7000 C   0  0  1  0  0  3  0  0  0  0  0  0
  188.6370  174.6390  134.6050 C   0  0  0  0  0  2  0  0  0  0  0  0
  193.3500  173.0960  134.9600 O   0  0  0  0  0  0  0  0  0  0  0  0
  193.0360  173.5670  136.0890 C   0  0  0  0  0  0  0  0  0  0  0  0
  193.8460  173.2680  137.2330 N   0  0  0  0  0  2  0  0  0  0  0  0
  195.6190  172.2900  138.3860 O   0  0  0  0  0  1  0  0  0  0  0  0
  194.9130  172.2790  137.1820 C   0  0  0  0  0  2  0  0  0  0  0  0
  188.0780  177.4690  145.6210 C   0  0  0  0  0  2  0  0  0  0  0  0
  189.3010  178.1400  146.0370 N   0  0  0  0  0  2  0  0  0  0  0  0
  189.7920  177.3980  147.1830 C   0  0  0  0  0  2  0  0  0  0  0  0
  191.5710  175.7330  147.7010 O   0  0  0  0  0  1  0  0  0  0  0  0
  191.0190  176.6470  146.8110 C   0  0  0  0  0  0  0  0  0  0  0  0
  191.5640  176.8450  145.6940 O   0  0  0  0  0  0  0  0  0  0  0  0
  187.3170  178.6800  143.5270 O   0  0  0  0  0  0  0  0  0  0  0  0
  182.5450  178.6340  144.5000 O   0  0  0  0  0  0  0  0  0  0  0  0
  180.9540  178.7710  141.3170 C   0  0  0  0  0  0  0  0  0  0  0  0
  181.5220  178.6410  143.6750 C   0  0  0  0  0  0  0  0  0  0  0  0
  183.6190  178.7610  143.7540 C   0  0  0  0  0  0  0  0  0  0  0  0
  180.2230  178.4940  144.0300 N   0  0  0  0  0  0  0  0  0  0  0  0
  181.9100  178.7930  142.3560 C   0  0  0  0  0  0  0  0  0  0  0  0
  183.2870  178.9010  142.4180 C   0  0  0  0  0  0  0  0  0  0  0  0
  185.9580  178.8050  143.2010 C   0  0  0  0  0  0  0  0  0  0  0  0
  179.2720  178.4170  143.0620 C   0  0  0  0  0  3  0  0  0  0  0  0
  184.2680  179.0170  141.4400 C   0  0  0  0  0  3  0  0  0  0  0  0
  179.6170  178.5460  141.7050 C   0  0  0  0  0  3  0  0  0  0  0  0
  184.9460  178.7100  144.1790 C   0  0  0  0  0  3  0  0  0  0  0  0
  185.6120  178.9850  141.8450 C   0  0  0  0  0  3  0  0  0  0  0  0
  181.1230  179.8540  137.7280 C   0  0  0  0  0  0  0  0  0  0  0  0
  180.6600  180.2090  139.1020 C   0  0  0  0  0  2  0  0  0  0  0  0
  181.8090  178.7110  137.7950 C   0  0  0  0  0  0  0  0  0  0  0  0
  181.2310  179.0680  139.8870 C   0  0  0  0  0  0  0  0  0  0  0  0
  181.8680  178.2310  139.1330 N   0  0  0  0  0  0  0  0  0  0  0  0
  180.8060  180.6160  136.5470 N   0  0  0  0  0  0  0  0  0  0  0  0
  180.8130  182.0730  136.6090 C   0  0  0  0  0  1  0  0  0  0  0  0
  180.5770  179.9930  135.2500 C   0  0  0  0  0  2  0  0  0  0  0  0
  179.2700  179.2200  135.2660 C   0  0  0  0  0  1  0  0  0  0  0  0
  182.3030  177.8920  136.6430 C   0  0  0  0  0  2  0  0  0  0  0  0
  182.1010  176.4010  136.9110 C   0  0  0  0  0  2  0  0  0  0  0  0
  182.9580  175.5770  136.0100 C   0  0  0  0  0  3  0  0  0  0  0  0
  182.4600  174.6090  135.3350 N   0  0  0  0  0  2  0  0  0  0  0  0
  1  4  1  6  0  0  0
  1  3  1  0  0  0  0
  1  2  1  0  0  0  0
  2 28  1  1  0  0  0
  3  2  1  0  0  0  0
  5  4  1  0  0  0  0
  5  6  1  0  0  0  0
  5  7  1  0  0  0  0
  6  7  1  0  0  0  0
  8 10  1  6  0  0  0
  8  5  1  0  0  0  0
  9 10  1  0  0  0  0
 11  8  1  0  0  0  0
 12 11  1  0  0  0  0
 13 12  1  0  0  0  0
 14 15  2  0  0  0  0
 15 13  1  0  0  0  0
 16 18  1  6  0  0  0
 16 20  1  0  0  0  0
 19 21  1  0  0  0  0
 20 17  1  0  0  0  0
 21 14  1  1  0  0  0
 21 17  1  0  0  0  0
 22 19  1  0  0  0  0
 22 16  1  0  0  0  0
 23 24  2  0  0  0  0
 24 14  1  0  0  0  0
 24 25  1  0  0  0  0
 27 25  1  0  0  0  0
 27 26  1  0  0  0  0
 28 29  1  0  0  0  0
 29 30  1  0  0  0  0
 32 30  1  0  0  0  0
 32 31  1  0  0  0  0
 33 32  2  0  0  0  0
 34  2  1  0  0  0  0
 36 45  1  0  0  0  0
 36 40  2  0  0  0  0
 37 39  2  0  0  0  0
 37 35  1  0  0  0  0
 38 46  1  0  0  0  0
 38 35  1  0  0  0  0
 40 41  1  0  0  0  0
 40 37  1  0  0  0  0
 41 38  2  0  0  0  0
 42 34  1  0  0  0  0
 42 46  2  0  0  0  0
 43 39  1  0  0  0  0
 44 47  2  0  0  0  0
 44 41  1  0  0  0  0
 45 43  2  0  0  0  0
 47 42  1  0  0  0  0
 48 50  2  0  0  0  0
 48 49  1  0  0  0  0
 49 51  1  0  0  0  0
 50 52  1  0  0  0  0
 51 36  1  0  0  0  0
 52 51  2  0  0  0  0
 53 54  1  0  0  0  0
 53 48  1  0  0  0  0
 55 56  1  0  0  0  0
 55 53  1  0  0  0  0
 57 58  1  0  0  0  0
 57 50  1  0  0  0  0
 59 58  1  0  0  0  0
 60 59  2  0  0  0  0
M  END
>  <MODEL>
5

>  <REMARK>
 VINA RESULT:      -5.6      1.755      3.249
  Name = 
  23 active torsions:
  status: ('A' for Active; 'I' for Inactive)
    1  A    between atoms: O_2  and  C_18
    2  A    between atoms: O_2  and  C_46
    3  A    between atoms: C_3  and  N_23
    4  A    between atoms: C_4  and  C_9
    5  A    between atoms: C_4  and  C_38
    6  A    between atoms: C_5  and  C_18
    7  A    between atoms: C_5  and  N_33
    8  A    between atoms: C_7  and  N_23
    9  A    between atoms: C_9  and  C_17
   10  A    between atoms: C_11  and  C_36
   11  A    between atoms: C_11  and  C_40
   12  A    between atoms: C_14  and  O_59
   13  A    between atoms: C_15  and  C_25
   14  A    between atoms: C_16  and  C_28
   15  A    between atoms: C_21  and  C_60
   16  A    between atoms: C_28  and  C_45
   17  A    between atoms: C_30  and  C_31
   18  A    between atoms: C_31  and  N_33
   19  A    between atoms: C_38  and  C_60
   20  A    between atoms: C_39  and  O_59
   21  A    between atoms: C_39  and  C_60
   22  A    between atoms: C_43  and  C_45
   23  A    between atoms: C_56  and  N_58
                            x       y       z     vdW  Elec       q    Type
                         _______ _______ _______ _____ _____    ______ ____

>  <TORSDO>
F 23

$$$$
=
 OpenBabel11042412233D

 60 66  0  0  1  0  0  0  0  0999 V2000
  188.5240  178.2760  144.6040 C   0  0  1  0  0  3  0  0  0  0  0  0
  189.7410  178.0870  143.6930 C   0  0  1  0  0  0  0  0  0  0  0  0
  188.8550  179.3020  143.5180 C   0  0  0  0  0  2  0  0  0  0  0  0
  187.5040  177.3950  144.1920 O   0  0  0  0  0  0  0  0  0  0  0  0
  186.2900  177.7840  144.7820 C   0  0  0  0  0  0  0  0  0  0  0  0
  186.5570  178.7320  145.9410 C   0  0  0  0  0  2  0  0  0  0  0  0
  186.0450  177.3250  146.2110 C   0  0  0  0  0  2  0  0  0  0  0  0
  185.1110  178.1850  143.8700 C   0  0  2  0  0  3  0  0  0  0  0  0
  185.1900  179.5330  141.8900 O   0  0  0  0  0  1  0  0  0  0  0  0
  185.5820  178.3070  142.4250 C   0  0  0  0  0  2  0  0  0  0  0  0
  184.4400  179.4890  144.3160 C   0  0  0  0  0  2  0  0  0  0  0  0
  182.9360  179.4390  144.1370 C   0  0  0  0  0  2  0  0  0  0  0  0
  182.6040  178.4090  143.0800 C   0  0  0  0  0  2  0  0  0  0  0  0
  181.1110  178.7580  141.1020 C   0  0  0  0  0  0  0  0  0  0  0  0
  182.1850  179.1010  141.8230 C   0  0  0  0  0  3  0  0  0  0  0  0
  180.5640  181.8380  138.2110 C   0  0  1  0  0  3  0  0  0  0  0  0
  179.5230  180.3380  139.9400 C   0  0  0  0  0  2  0  0  0  0  0  0
  180.4080  182.3560  136.7960 C   0  0  0  0  0  1  0  0  0  0  0  0
  181.9250  180.4370  139.6110 O   0  0  0  0  0  0  0  0  0  0  0  0
  179.3040  181.0710  138.6210 C   0  0  0  0  0  2  0  0  0  0  0  0
  180.8450  179.5660  139.8660 C   0  0  1  0  0  3  0  0  0  0  0  0
  181.7690  180.9020  138.2930 C   0  0  0  0  0  2  0  0  0  0  0  0
  179.5070  177.7730  142.5750 O   0  0  0  0  0  0  0  0  0  0  0  0
  180.1820  177.6710  141.5110 C   0  0  0  0  0  0  0  0  0  0  0  0
  180.0510  176.4990  140.6970 N   0  0  0  0  0  2  0  0  0  0  0  0
  179.6770  174.2210  140.3790 O   0  0  0  0  0  1  0  0  0  0  0  0
  179.3130  175.3280  141.1480 C   0  0  0  0  0  2  0  0  0  0  0  0
  191.0900  178.3140  144.3590 C   0  0  0  0  0  2  0  0  0  0  0  0
  191.6950  177.0370  144.7080 N   0  0  0  0  0  2  0  0  0  0  0  0
  191.0030  176.5810  145.8980 C   0  0  0  0  0  2  0  0  0  0  0  0
  192.2870  176.6840  148.0310 O   0  0  0  0  0  1  0  0  0  0  0  0
  191.9770  176.0030  146.8590 C   0  0  0  0  0  0  0  0  0  0  0  0
  192.5290  174.9000  146.6090 O   0  0  0  0  0  0  0  0  0  0  0  0
  189.6230  176.9940  142.7660 O   0  0  0  0  0  0  0  0  0  0  0  0
  187.7940  178.3930  138.4740 O   0  0  0  0  0  0  0  0  0  0  0  0
  189.7370  176.6680  136.0380 C   0  0  0  0  0  0  0  0  0  0  0  0
  188.1350  178.0260  137.2580 C   0  0  0  0  0  0  0  0  0  0  0  0
  188.6530  177.8170  139.2850 C   0  0  0  0  0  0  0  0  0  0  0  0
  187.4840  178.3680  136.1210 N   0  0  0  0  0  0  0  0  0  0  0  0
  189.2500  177.2070  137.2480 C   0  0  0  0  0  0  0  0  0  0  0  0
  189.6030  177.0980  138.5820 C   0  0  0  0  0  0  0  0  0  0  0  0
  189.6170  177.0980  141.3660 C   0  0  0  0  0  0  0  0  0  0  0  0
  187.8850  177.8340  134.9370 C   0  0  0  0  0  3  0  0  0  0  0  0
  190.5940  176.3780  139.2370 C   0  0  0  0  0  3  0  0  0  0  0  0
  189.0010  176.9800  134.8770 C   0  0  0  0  0  3  0  0  0  0  0  0
  188.6320  177.8380  140.6790 C   0  0  0  0  0  3  0  0  0  0  0  0
  190.6040  176.3970  140.6410 C   0  0  0  0  0  3  0  0  0  0  0  0
  192.7970  174.5040  136.2210 C   0  0  0  0  0  0  0  0  0  0  0  0
  191.3770  174.6700  136.6500 C   0  0  0  0  0  2  0  0  0  0  0  0
  193.1040  175.4970  135.3830 C   0  0  0  0  0  0  0  0  0  0  0  0
  191.0020  175.9010  135.8850 C   0  0  0  0  0  0  0  0  0  0  0  0
  191.9890  176.3570  135.1830 N   0  0  0  0  0  0  0  0  0  0  0  0
  193.6710  173.4670  136.7050 N   0  0  0  0  0  0  0  0  0  0  0  0
  194.5020  173.7170  137.8770 C   0  0  0  0  0  1  0  0  0  0  0  0
  193.6900  172.1270  136.1330 C   0  0  0  0  0  2  0  0  0  0  0  0
  192.3860  171.8520  135.4040 C   0  0  0  0  0  1  0  0  0  0  0  0
  194.4620  175.8320  134.8480 C   0  0  0  0  0  2  0  0  0  0  0  0
  195.0280  177.0710  135.5410 C   0  0  0  0  0  2  0  0  0  0  0  0
  195.8710  177.8680  134.6030 C   0  0  0  0  0  3  0  0  0  0  0  0
  196.4410  178.9480  134.9900 N   0  0  0  0  0  2  0  0  0  0  0  0
  1  4  1  6  0  0  0
  2 28  1  1  0  0  0
  2  1  1  0  0  0  0
  3  2  1  0  0  0  0
  3  1  1  0  0  0  0
  4  5  1  0  0  0  0
  5  6  1  0  0  0  0
  5  7  1  0  0  0  0
  6  7  1  0  0  0  0
  8 10  1  6  0  0  0
  8 11  1  0  0  0  0
  8  5  1  0  0  0  0
  9 10  1  0  0  0  0
 12 11  1  0  0  0  0
 13 12  1  0  0  0  0
 14 24  1  0  0  0  0
 14 15  2  0  0  0  0
 15 13  1  0  0  0  0
 16 18  1  6  0  0  0
 16 22  1  0  0  0  0
 16 20  1  0  0  0  0
 19 21  1  0  0  0  0
 20 17  1  0  0  0  0
 21 17  1  0  0  0  0
 21 14  1  1  0  0  0
 22 19  1  0  0  0  0
 24 23  2  0  0  0  0
 25 27  1  0  0  0  0
 25 24  1  0  0  0  0
 26 27  1  0  0  0  0
 28 29  1  0  0  0  0
 29 30  1  0  0  0  0
 30 32  1  0  0  0  0
 32 31  1  0  0  0  0
 33 32  2  0  0  0  0
 34  2  1  0  0  0  0
 35 38  1  0  0  0  0
 36 40  2  0  0  0  0
 37 35  1  0  0  0  0
 38 46  1  0  0  0  0
 39 37  2  0  0  0  0
 40 37  1  0  0  0  0
 40 41  1  0  0  0  0
 41 44  1  0  0  0  0
 41 38  2  0  0  0  0
 42 34  1  0  0  0  0
 43 39  1  0  0  0  0
 44 47  2  0  0  0  0
 45 43  2  0  0  0  0
 45 36  1  0  0  0  0
 46 42  2  0  0  0  0
 47 42  1  0  0  0  0
 48 49  1  0  0  0  0
 48 53  1  0  0  0  0
 50 48  2  0  0  0  0
 51 36  1  0  0  0  0
 51 49  1  0  0  0  0
 52 50  1  0  0  0  0
 52 51  2  0  0  0  0
 53 54  1  0  0  0  0
 55 53  1  0  0  0  0
 56 55  1  0  0  0  0
 57 50  1  0  0  0  0
 57 58  1  0  0  0  0
 59 60  2  0  0  0  0
 59 58  1  0  0  0  0
M  END
>  <MODEL>
6

>  <REMARK>
 VINA RESULT:      -5.3      3.161      9.448
  Name = 
  23 active torsions:
  status: ('A' for Active; 'I' for Inactive)
    1  A    between atoms: O_2  and  C_18
    2  A    between atoms: O_2  and  C_46
    3  A    between atoms: C_3  and  N_23
    4  A    between atoms: C_4  and  C_9
    5  A    between atoms: C_4  and  C_38
    6  A    between atoms: C_5  and  C_18
    7  A    between atoms: C_5  and  N_33
    8  A    between atoms: C_7  and  N_23
    9  A    between atoms: C_9  and  C_17
   10  A    between atoms: C_11  and  C_36
   11  A    between atoms: C_11  and  C_40
   12  A    between atoms: C_14  and  O_59
   13  A    between atoms: C_15  and  C_25
   14  A    between atoms: C_16  and  C_28
   15  A    between atoms: C_21  and  C_60
   16  A    between atoms: C_28  and  C_45
   17  A    between atoms: C_30  and  C_31
   18  A    between atoms: C_31  and  N_33
   19  A    between atoms: C_38  and  C_60
   20  A    between atoms: C_39  and  O_59
   21  A    between atoms: C_39  and  C_60
   22  A    between atoms: C_43  and  C_45
   23  A    between atoms: C_56  and  N_58
                            x       y       z     vdW  Elec       q    Type
                         _______ _______ _______ _____ _____    ______ ____

>  <TORSDO>
F 23

$$$$
=
 OpenBabel11042412233D

 60 66  0  0  1  0  0  0  0  0999 V2000
  182.5840  178.3410  138.0990 C   0  0  1  0  0  3  0  0  0  0  0  0
  183.7310  178.1030  139.0880 C   0  0  1  0  0  0  0  0  0  0  0  0
  182.6200  177.0820  138.9680 C   0  0  0  0  0  2  0  0  0  0  0  0
  181.7170  179.3150  138.6340 O   0  0  0  0  0  0  0  0  0  0  0  0
  181.0870  180.0000  137.5810 C   0  0  0  0  0  0  0  0  0  0  0  0
  181.4270  181.4810  137.6490 C   0  0  0  0  0  2  0  0  0  0  0  0
  180.0150  181.0080  137.9640 C   0  0  0  0  0  2  0  0  0  0  0  0
  181.1230  179.3870  136.1650 C   0  0  2  0  0  3  0  0  0  0  0  0
  180.7260  181.1630  134.6060 O   0  0  0  0  0  1  0  0  0  0  0  0
  180.1190  180.0930  135.2610 C   0  0  0  0  0  2  0  0  0  0  0  0
  180.8570  177.8780  136.1700 C   0  0  0  0  0  2  0  0  0  0  0  0
  179.4800  177.5500  136.7120 C   0  0  0  0  0  2  0  0  0  0  0  0
  179.1240  176.1340  136.3160 C   0  0  0  0  0  2  0  0  0  0  0  0
  180.7520  174.2880  136.7690 C   0  0  0  0  0  0  0  0  0  0  0  0
  180.3760  175.3580  136.0600 C   0  0  0  0  0  3  0  0  0  0  0  0
  184.5380  172.3400  136.6410 C   0  0  1  0  0  3  0  0  0  0  0  0
  183.2640  174.5080  136.6690 C   0  0  0  0  0  2  0  0  0  0  0  0
  185.6540  171.5930  135.9400 C   0  0  0  0  0  1  0  0  0  0  0  0
  182.1590  172.3700  136.9840 O   0  0  0  0  0  0  0  0  0  0  0  0
  184.5160  173.7960  136.1680 C   0  0  0  0  0  2  0  0  0  0  0  0
  182.0420  173.6340  136.3680 C   0  0  1  0  0  3  0  0  0  0  0  0
  183.1930  171.6890  136.3180 C   0  0  0  0  0  2  0  0  0  0  0  0
  179.0690  172.8240  137.6280 O   0  0  0  0  0  0  0  0  0  0  0  0
  179.9240  173.7210  137.8680 C   0  0  0  0  0  0  0  0  0  0  0  0
  180.0960  174.1970  139.2090 N   0  0  0  0  0  2  0  0  0  0  0  0
  179.4850  174.5590  141.4280 O   0  0  0  0  0  1  0  0  0  0  0  0
  179.1840  173.8240  140.2800 C   0  0  0  0  0  2  0  0  0  0  0  0
  185.0660  177.7390  138.4550 C   0  0  0  0  0  2  0  0  0  0  0  0
  185.5280  178.8260  137.6050 N   0  0  0  0  0  2  0  0  0  0  0  0
  186.9150  178.5320  137.3020 C   0  0  0  0  0  2  0  0  0  0  0  0
  187.6410  176.3700  136.2980 O   0  0  0  0  0  1  0  0  0  0  0  0
  186.9940  177.5920  136.1530 C   0  0  0  0  0  0  0  0  0  0  0  0
  186.4810  177.9050  135.0480 O   0  0  0  0  0  0  0  0  0  0  0  0
  183.7400  179.0000  140.2120 O   0  0  0  0  0  0  0  0  0  0  0  0
  183.6610  178.6040  145.0660 O   0  0  0  0  0  0  0  0  0  0  0  0
  187.0750  178.2540  146.0170 C   0  0  0  0  0  0  0  0  0  0  0  0
  184.6600  178.4840  145.9130 C   0  0  0  0  0  0  0  0  0  0  0  0
  184.1930  178.5680  143.8650 C   0  0  0  0  0  0  0  0  0  0  0  0
  184.5540  178.5110  147.2630 N   0  0  0  0  0  0  0  0  0  0  0  0
  185.8790  178.3440  145.2740 C   0  0  0  0  0  0  0  0  0  0  0  0
  185.5610  178.3710  143.9280 C   0  0  0  0  0  0  0  0  0  0  0  0
  184.3060  178.7380  141.4700 C   0  0  0  0  0  0  0  0  0  0  0  0
  185.6820  178.4780  148.0200 C   0  0  0  0  0  3  0  0  0  0  0  0
  186.3380  178.3310  142.7760 C   0  0  0  0  0  3  0  0  0  0  0  0
  186.9480  178.3570  147.4180 C   0  0  0  0  0  3  0  0  0  0  0  0
  183.5340  178.7540  142.6510 C   0  0  0  0  0  3  0  0  0  0  0  0
  185.6940  178.5000  141.5400 C   0  0  0  0  0  3  0  0  0  0  0  0
  190.1540  177.1640  144.1700 C   0  0  0  0  0  0  0  0  0  0  0  0
  188.6980  177.4730  144.0640 C   0  0  0  0  0  3  0  0  0  0  0  0
  190.5530  177.4340  145.4140 C   0  0  1  0  0  3  0  0  0  0  0  0
  188.4180  177.9580  145.4530 C   0  0  0  0  0  0  0  0  0  0  0  0
  189.4740  177.9210  146.2010 N   0  0  0  0  0  0  0  0  0  0  0  0
  190.9420  176.6110  143.0990 N   0  0  0  0  0  0  0  0  0  0  0  0
  191.0790  175.1630  142.9820 C   0  0  0  0  0  1  0  0  0  0  0  0
  191.5320  177.4350  142.0520 C   0  0  0  0  0  2  0  0  0  0  0  0
  190.7870  177.2300  140.7440 C   0  0  0  0  0  1  0  0  0  0  0  0
  191.8840  177.1080  146.0200 C   0  0  0  0  0  2  0  0  0  0  0  0
  191.8950  175.6820  146.5700 C   0  0  0  0  0  2  0  0  0  0  0  0
  192.3930  175.6580  147.9760 C   0  0  0  0  0  3  0  0  0  0  0  0
  192.7510  176.7380  148.5640 N   0  0  0  0  0  2  0  0  0  0  0  0
  1  4  1  1  0  0  0
  1  3  1  0  0  0  0
  1  2  1  0  0  0  0
  2 28  1  6  0  0  0
  2 34  1  0  0  0  0
  3  2  1  0  0  0  0
  5  6  1  0  0  0  0
  5  7  1  0  0  0  0
  5  4  1  0  0  0  0
  6  7  1  0  0  0  0
  8 10  1  6  0  0  0
  8 11  1  0  0  0  0
  8  5  1  0  0  0  0
  9 10  1  0  0  0  0
 11 12  1  0  0  0  0
 13 12  1  0  0  0  0
 14 24  1  0  0  0  0
 15 13  1  0  0  0  0
 15 14  2  0  0  0  0
 16 18  1  6  0  0  0
 20 16  1  0  0  0  0
 20 17  1  0  0  0  0
 21 17  1  0  0  0  0
 21 14  1  1  0  0  0
 21 19  1  0  0  0  0
 22 16  1  0  0  0  0
 22 19  1  0  0  0  0
 23 24  2  0  0  0  0
 24 25  1  0  0  0  0
 25 27  1  0  0  0  0
 27 26  1  0  0  0  0
 29 28  1  0  0  0  0
 30 29  1  0  0  0  0
 32 31  1  0  0  0  0
 32 30  1  0  0  0  0
 33 32  2  0  0  0  0
 34 42  1  0  0  0  0
 35 37  1  0  0  0  0
 36 45  1  0  0  0  0
 37 39  2  0  0  0  0
 38 41  1  0  0  0  0
 38 35  1  0  0  0  0
 39 43  1  0  0  0  0
 40 37  1  0  0  0  0
 40 36  2  0  0  0  0
 41 40  1  0  0  0  0
 42 47  2  0  0  0  0
 42 46  1  0  0  0  0
 44 41  2  0  0  0  0
 45 43  2  0  0  0  0
 46 38  2  0  0  0  0
 47 44  1  0  0  0  0
 48 50  1  0  0  0  0
 49 48  2  0  0  0  0
 49 51  1  0  0  0  0
 50 57  1  1  0  0  0
 50 52  1  0  0  0  0
 51 36  1  0  0  0  0
 51 52  2  0  0  0  0
 53 48  1  0  0  0  0
 54 53  1  0  0  0  0
 55 53  1  0  0  0  0
 56 55  1  0  0  0  0
 57 58  1  0  0  0  0
 58 59  1  0  0  0  0
 59 60  2  0  0  0  0
M  END
>  <MODEL>
7

>  <REMARK>
 VINA RESULT:      -5.3      3.264      9.361
  Name = 
  23 active torsions:
  status: ('A' for Active; 'I' for Inactive)
    1  A    between atoms: O_2  and  C_18
    2  A    between atoms: O_2  and  C_46
    3  A    between atoms: C_3  and  N_23
    4  A    between atoms: C_4  and  C_9
    5  A    between atoms: C_4  and  C_38
    6  A    between atoms: C_5  and  C_18
    7  A    between atoms: C_5  and  N_33
    8  A    between atoms: C_7  and  N_23
    9  A    between atoms: C_9  and  C_17
   10  A    between atoms: C_11  and  C_36
   11  A    between atoms: C_11  and  C_40
   12  A    between atoms: C_14  and  O_59
   13  A    between atoms: C_15  and  C_25
   14  A    between atoms: C_16  and  C_28
   15  A    between atoms: C_21  and  C_60
   16  A    between atoms: C_28  and  C_45
   17  A    between atoms: C_30  and  C_31
   18  A    between atoms: C_31  and  N_33
   19  A    between atoms: C_38  and  C_60
   20  A    between atoms: C_39  and  O_59
   21  A    between atoms: C_39  and  C_60
   22  A    between atoms: C_43  and  C_45
   23  A    between atoms: C_56  and  N_58
                            x       y       z     vdW  Elec       q    Type
                         _______ _______ _______ _____ _____    ______ ____

>  <TORSDO>
F 23

$$$$
=
 OpenBabel11042412233D

 60 66  0  0  1  0  0  0  0  0999 V2000
  189.1950  178.0070  144.1560 C   0  0  1  0  0  3  0  0  0  0  0  0
  190.4310  177.8330  143.2680 C   0  0  1  0  0  0  0  0  0  0  0  0
  189.5600  179.0610  143.1100 C   0  0  0  0  0  2  0  0  0  0  0  0
  188.1760  177.1480  143.6930 O   0  0  0  0  0  0  0  0  0  0  0  0
  186.9470  177.5560  144.2370 C   0  0  0  0  0  0  0  0  0  0  0  0
  187.1830  178.4060  145.4750 C   0  0  0  0  0  2  0  0  0  0  0  0
  186.5910  177.0110  145.6100 C   0  0  0  0  0  2  0  0  0  0  0  0
  185.8480  178.0780  143.2870 C   0  0  2  0  0  3  0  0  0  0  0  0
  185.6230  179.6150  141.4620 O   0  0  0  0  0  1  0  0  0  0  0  0
  186.4770  178.6720  142.0320 C   0  0  0  0  0  2  0  0  0  0  0  0
  184.9340  179.1110  143.9570 C   0  0  0  0  0  2  0  0  0  0  0  0
  183.4850  178.6680  143.9530 C   0  0  0  0  0  2  0  0  0  0  0  0
  182.8390  179.1190  142.6620 C   0  0  0  0  0  2  0  0  0  0  0  0
  182.0520  177.9850  140.5740 C   0  0  0  0  0  0  0  0  0  0  0  0
  182.4730  177.9230  141.8430 C   0  0  0  0  0  3  0  0  0  0  0  0
  180.5200  174.8640  138.1130 C   0  0  1  0  0  3  0  0  0  0  0  0
  180.3190  176.1790  140.2470 C   0  0  0  0  0  2  0  0  0  0  0  0
  180.5280  173.4600  137.5450 C   0  0  0  0  0  1  0  0  0  0  0  0
  181.9050  176.7870  138.5130 O   0  0  0  0  0  0  0  0  0  0  0  0
  180.1060  174.8210  139.5860 C   0  0  0  0  0  2  0  0  0  0  0  0
  181.7280  176.6790  139.9080 C   0  0  1  0  0  3  0  0  0  0  0  0
  181.9160  175.4770  138.0030 C   0  0  0  0  0  2  0  0  0  0  0  0
  182.9640  180.0110  139.6960 O   0  0  0  0  0  0  0  0  0  0  0  0
  181.9540  179.2640  139.8220 C   0  0  0  0  0  0  0  0  0  0  0  0
  180.7050  179.6540  139.2360 N   0  0  0  0  0  2  0  0  0  0  0  0
  179.1840  181.1040  138.2310 O   0  0  0  0  0  1  0  0  0  0  0  0
  180.5040  180.9780  138.6650 C   0  0  0  0  0  2  0  0  0  0  0  0
  191.7660  178.0260  143.9710 C   0  0  0  0  0  2  0  0  0  0  0  0
  191.6120  177.8100  145.4020 N   0  0  0  0  0  2  0  0  0  0  0  0
  191.6940  176.3750  145.5990 C   0  0  0  0  0  2  0  0  0  0  0  0
  191.7030  177.0410  148.0000 O   0  0  0  0  0  1  0  0  0  0  0  0
  191.9530  176.0760  147.0310 C   0  0  0  0  0  0  0  0  0  0  0  0
  192.4060  174.9510  147.3670 O   0  0  0  0  0  0  0  0  0  0  0  0
  190.3240  176.7690  142.3050 O   0  0  0  0  0  0  0  0  0  0  0  0
  187.9520  178.4180  138.3840 O   0  0  0  0  0  0  0  0  0  0  0  0
  189.4020  176.6840  135.6330 C   0  0  0  0  0  0  0  0  0  0  0  0
  188.0830  178.0780  137.1210 C   0  0  0  0  0  0  0  0  0  0  0  0
  188.8890  177.7690  139.0380 C   0  0  0  0  0  0  0  0  0  0  0  0
  187.2880  178.4950  136.1070 N   0  0  0  0  0  0  0  0  0  0  0  0
  189.1350  177.2030  136.9180 C   0  0  0  0  0  0  0  0  0  0  0  0
  189.6780  177.0270  138.1780 C   0  0  0  0  0  0  0  0  0  0  0  0
  190.1130  176.9240  140.9260 C   0  0  0  0  0  0  0  0  0  0  0  0
  187.4750  177.9840  134.8610 C   0  0  0  0  0  3  0  0  0  0  0  0
  190.7140  176.2330  138.6540 C   0  0  0  0  0  3  0  0  0  0  0  0
  188.5180  177.0750  134.6070 C   0  0  0  0  0  3  0  0  0  0  0  0
  189.0800  177.7400  140.4190 C   0  0  0  0  0  3  0  0  0  0  0  0
  190.9380  176.2000  140.0400 C   0  0  0  0  0  3  0  0  0  0  0  0
  192.1310  174.1660  135.0870 C   0  0  0  0  0  0  0  0  0  0  0  0
  190.6850  174.3690  135.3950 C   0  0  0  0  0  2  0  0  0  0  0  0
  192.6840  175.3580  134.8520 C   0  0  0  0  0  0  0  0  0  0  0  0
  190.5830  175.8580  135.2670 C   0  0  0  0  0  0  0  0  0  0  0  0
  191.7210  176.3980  134.9680 N   0  0  0  0  0  0  0  0  0  0  0  0
  192.7900  172.8860  135.1110 N   0  0  0  0  0  0  0  0  0  0  0  0
  192.0550  171.6920  134.7090 C   0  0  0  0  0  1  0  0  0  0  0  0
  194.2060  172.7380  135.4230 C   0  0  0  0  0  2  0  0  0  0  0  0
  194.4100  172.7220  136.9280 C   0  0  0  0  0  1  0  0  0  0  0  0
  194.1430  175.6530  134.6810 C   0  0  0  0  0  2  0  0  0  0  0  0
  194.5040  176.9940  135.3190 C   0  0  0  0  0  2  0  0  0  0  0  0
  195.7730  177.5300  134.7470 C   0  0  0  0  0  3  0  0  0  0  0  0
  196.2360  178.6630  135.1270 N   0  0  0  0  0  2  0  0  0  0  0  0
  1  4  1  6  0  0  0
  2 28  1  1  0  0  0
  2  1  1  0  0  0  0
  3  2  1  0  0  0  0
  3  1  1  0  0  0  0
  4  5  1  0  0  0  0
  5  6  1  0  0  0  0
  5  7  1  0  0  0  0
  6  7  1  0  0  0  0
  8 10  1  6  0  0  0
  8 11  1  0  0  0  0
  8  5  1  0  0  0  0
  9 10  1  0  0  0  0
 12 11  1  0  0  0  0
 13 12  1  0  0  0  0
 14 15  2  0  0  0  0
 15 13  1  0  0  0  0
 16 18  1  1  0  0  0
 16 20  1  0  0  0  0
 19 21  1  0  0  0  0
 20 17  1  0  0  0  0
 21 17  1  0  0  0  0
 21 14  1  1  0  0  0
 22 16  1  0  0  0  0
 22 19  1  0  0  0  0
 23 24  2  0  0  0  0
 24 14  1  0  0  0  0
 25 24  1  0  0  0  0
 26 27  1  0  0  0  0
 27 25  1  0  0  0  0
 28 29  1  0  0  0  0
 29 30  1  0  0  0  0
 30 32  1  0  0  0  0
 32 33  2  0  0  0  0
 32 31  1  0  0  0  0
 34  2  1  0  0  0  0
 35 38  1  0  0  0  0
 36 40  2  0  0  0  0
 37 35  1  0  0  0  0
 38 46  1  0  0  0  0
 39 37  2  0  0  0  0
 40 37  1  0  0  0  0
 40 41  1  0  0  0  0
 41 44  1  0  0  0  0
 41 38  2  0  0  0  0
 42 34  1  0  0  0  0
 43 39  1  0  0  0  0
 44 47  2  0  0  0  0
 45 43  2  0  0  0  0
 45 36  1  0  0  0  0
 46 42  2  0  0  0  0
 47 42  1  0  0  0  0
 48 53  1  0  0  0  0
 48 49  1  0  0  0  0
 50 52  1  0  0  0  0
 50 48  2  0  0  0  0
 51 49  1  0  0  0  0
 51 36  1  0  0  0  0
 52 51  2  0  0  0  0
 53 55  1  0  0  0  0
 54 53  1  0  0  0  0
 55 56  1  0  0  0  0
 57 50  1  0  0  0  0
 57 58  1  0  0  0  0
 59 60  2  0  0  0  0
 59 58  1  0  0  0  0
M  END
>  <MODEL>
8

>  <REMARK>
 VINA RESULT:      -5.3      2.830      8.894
  Name = 
  23 active torsions:
  status: ('A' for Active; 'I' for Inactive)
    1  A    between atoms: O_2  and  C_18
    2  A    between atoms: O_2  and  C_46
    3  A    between atoms: C_3  and  N_23
    4  A    between atoms: C_4  and  C_9
    5  A    between atoms: C_4  and  C_38
    6  A    between atoms: C_5  and  C_18
    7  A    between atoms: C_5  and  N_33
    8  A    between atoms: C_7  and  N_23
    9  A    between atoms: C_9  and  C_17
   10  A    between atoms: C_11  and  C_36
   11  A    between atoms: C_11  and  C_40
   12  A    between atoms: C_14  and  O_59
   13  A    between atoms: C_15  and  C_25
   14  A    between atoms: C_16  and  C_28
   15  A    between atoms: C_21  and  C_60
   16  A    between atoms: C_28  and  C_45
   17  A    between atoms: C_30  and  C_31
   18  A    between atoms: C_31  and  N_33
   19  A    between atoms: C_38  and  C_60
   20  A    between atoms: C_39  and  O_59
   21  A    between atoms: C_39  and  C_60
   22  A    between atoms: C_43  and  C_45
   23  A    between atoms: C_56  and  N_58
                            x       y       z     vdW  Elec       q    Type
                         _______ _______ _______ _____ _____    ______ ____

>  <TORSDO>
F 23

$$$$
=
 OpenBabel11042412233D

 60 66  0  0  1  0  0  0  0  0999 V2000
  190.1360  176.6940  142.1130 C   0  0  1  0  0  3  0  0  0  0  0  0
  189.1140  177.5990  142.8090 C   0  0  1  0  0  0  0  0  0  0  0  0
  188.9250  176.0970  142.8340 C   0  0  0  0  0  2  0  0  0  0  0  0
  189.9290  176.7600  140.7200 O   0  0  0  0  0  0  0  0  0  0  0  0
  191.1730  176.8540  140.0730 C   0  0  0  0  0  0  0  0  0  0  0  0
  192.2920  176.8920  141.1020 C   0  0  0  0  0  2  0  0  0  0  0  0
  191.9620  178.1350  140.2890 C   0  0  0  0  0  2  0  0  0  0  0  0
  191.4450  175.9580  138.8460 C   0  0  2  0  0  3  0  0  0  0  0  0
  193.5990  176.6370  138.0430 O   0  0  0  0  0  1  0  0  0  0  0  0
  192.2310  176.7330  137.7940 C   0  0  0  0  0  2  0  0  0  0  0  0
  190.1590  175.3930  138.2330 C   0  0  0  0  0  2  0  0  0  0  0  0
  189.7660  176.1300  136.9690 C   0  0  0  0  0  2  0  0  0  0  0  0
  189.7330  175.1470  135.8200 C   0  0  0  0  0  2  0  0  0  0  0  0
  187.2430  174.9130  135.9150 C   0  0  0  0  0  0  0  0  0  0  0  0
  188.4610  174.3620  135.8710 C   0  0  0  0  0  3  0  0  0  0  0  0
  183.4870  173.0040  136.5400 C   0  0  1  0  0  3  0  0  0  0  0  0
  185.8240  173.4170  137.3710 C   0  0  0  0  0  2  0  0  0  0  0  0
  182.4590  171.9210  136.2850 C   0  0  0  0  0  1  0  0  0  0  0  0
  184.9230  174.5910  135.4470 O   0  0  0  0  0  0  0  0  0  0  0  0
  184.6730  172.4180  137.3100 C   0  0  0  0  0  2  0  0  0  0  0  0
  186.0780  173.9680  135.9630 C   0  0  1  0  0  3  0  0  0  0  0  0
  183.9830  173.5730  135.2110 C   0  0  0  0  0  2  0  0  0  0  0  0
  187.0990  177.0050  134.7680 O   0  0  0  0  0  0  0  0  0  0  0  0
  187.0240  176.3840  135.8660 C   0  0  0  0  0  0  0  0  0  0  0  0
  186.7270  177.1020  137.0690 N   0  0  0  0  0  2  0  0  0  0  0  0
  187.5440  179.0680  136.1220 O   0  0  0  0  0  1  0  0  0  0  0  0
  186.7000  178.5570  137.1100 C   0  0  0  0  0  2  0  0  0  0  0  0
  189.5960  178.2490  144.0970 C   0  0  0  0  0  2  0  0  0  0  0  0
  188.5380  178.2250  145.0960 N   0  0  0  0  0  2  0  0  0  0  0  0
  189.1060  177.5740  146.2610 C   0  0  0  0  0  2  0  0  0  0  0  0
  186.8000  177.8570  147.1620 O   0  0  0  0  0  0  0  0  0  0  0  0
  188.1550  177.6590  147.4000 C   0  0  0  0  0  0  0  0  0  0  0  0
  188.5780  177.5590  148.5810 O   0  0  0  0  0  1  0  0  0  0  0  0
  188.3160  178.3910  141.9130 O   0  0  0  0  0  0  0  0  0  0  0  0
  184.0280  178.7650  144.1920 O   0  0  0  0  0  0  0  0  0  0  0  0
  181.5880  178.5320  141.6080 C   0  0  0  0  0  0  0  0  0  0  0  0
  182.8100  178.7120  143.7000 C   0  0  0  0  0  0  0  0  0  0  0  0
  184.8420  178.7190  143.1610 C   0  0  0  0  0  0  0  0  0  0  0  0
  181.6670  178.6940  144.4260 N   0  0  0  0  0  0  0  0  0  0  0  0
  182.8030  178.6480  142.3180 C   0  0  0  0  0  0  0  0  0  0  0  0
  184.1410  178.6830  141.9690 C   0  0  0  0  0  0  0  0  0  0  0  0
  186.9220  178.5470  141.9690 C   0  0  0  0  0  0  0  0  0  0  0  0
  180.4760  178.5330  143.7910 C   0  0  0  0  0  3  0  0  0  0  0  0
  184.7980  178.5990  140.7480 C   0  0  0  0  0  3  0  0  0  0  0  0
  180.4170  178.4430  142.3890 C   0  0  0  0  0  3  0  0  0  0  0  0
  186.2340  178.6530  143.1960 C   0  0  0  0  0  3  0  0  0  0  0  0
  186.2020  178.5480  140.7560 C   0  0  0  0  0  3  0  0  0  0  0  0
  181.5450  178.1670  137.8740 C   0  0  0  0  0  0  0  0  0  0  0  0
  181.5750  177.4500  139.1820 C   0  0  0  0  0  2  0  0  0  0  0  0
  181.4300  179.4760  138.1130 C   0  0  0  0  0  0  0  0  0  0  0  0
  181.4440  178.6010  140.1300 C   0  0  0  0  0  0  0  0  0  0  0  0
  181.3720  179.7350  139.5100 N   0  0  0  0  0  0  0  0  0  0  0  0
  181.6820  177.5210  136.5940 N   0  0  0  0  0  0  0  0  0  0  0  0
  182.9780  177.5200  135.9260 C   0  0  0  0  0  1  0  0  0  0  0  0
  180.5980  176.7690  135.9750 C   0  0  0  0  0  2  0  0  0  0  0  0
  179.3950  177.6700  135.7580 C   0  0  0  0  0  1  0  0  0  0  0  0
  181.5410  180.5840  137.1110 C   0  0  0  0  0  2  0  0  0  0  0  0
  180.7270  181.7990  137.5540 C   0  0  0  0  0  2  0  0  0  0  0  0
  181.0820  183.0010  136.7450 C   0  0  0  0  0  3  0  0  0  0  0  0
  181.0970  184.1670  137.2760 N   0  0  0  0  0  2  0  0  0  0  0  0
  1  4  1  6  0  0  0
  1  2  1  0  0  0  0
  1  3  1  0  0  0  0
  2  3  1  0  0  0  0
  2 28  1  1  0  0  0
  5  7  1  0  0  0  0
  5  4  1  0  0  0  0
  5  6  1  0  0  0  0
  7  6  1  0  0  0  0
  8 10  1  6  0  0  0
  8  5  1  0  0  0  0
 10  9  1  0  0  0  0
 11  8  1  0  0  0  0
 12 11  1  0  0  0  0
 13 15  1  0  0  0  0
 13 12  1  0  0  0  0
 15 14  2  0  0  0  0
 16 18  1  6  0  0  0
 16 20  1  0  0  0  0
 19 21  1  0  0  0  0
 20 17  1  0  0  0  0
 21 14  1  1  0  0  0
 21 17  1  0  0  0  0
 22 19  1  0  0  0  0
 22 16  1  0  0  0  0
 23 24  2  0  0  0  0
 24 14  1  0  0  0  0
 24 25  1  0  0  0  0
 25 27  1  0  0  0  0
 26 27  1  0  0  0  0
 28 29  1  0  0  0  0
 29 30  1  0  0  0  0
 30 32  1  0  0  0  0
 31 32  2  0  0  0  0
 32 33  1  0  0  0  0
 34 42  1  0  0  0  0
 34  2  1  0  0  0  0
 36 40  2  0  0  0  0
 36 45  1  0  0  0  0
 37 35  1  0  0  0  0
 37 39  2  0  0  0  0
 38 46  1  0  0  0  0
 38 35  1  0  0  0  0
 40 37  1  0  0  0  0
 41 40  1  0  0  0  0
 41 38  2  0  0  0  0
 42 46  2  0  0  0  0
 43 39  1  0  0  0  0
 44 47  2  0  0  0  0
 44 41  1  0  0  0  0
 45 43  2  0  0  0  0
 47 42  1  0  0  0  0
 48 50  2  0  0  0  0
 48 49  1  0  0  0  0
 49 51  1  0  0  0  0
 50 52  1  0  0  0  0
 51 36  1  0  0  0  0
 52 51  2  0  0  0  0
 53 48  1  0  0  0  0
 54 53  1  0  0  0  0
 55 53  1  0  0  0  0
 56 55  1  0  0  0  0
 57 58  1  0  0  0  0
 57 50  1  0  0  0  0
 59 60  2  0  0  0  0
 59 58  1  0  0  0  0
M  END
>  <MODEL>
9

>  <REMARK>
 VINA RESULT:      -5.2      1.772      2.439
  Name = 
  23 active torsions:
  status: ('A' for Active; 'I' for Inactive)
    1  A    between atoms: O_2  and  C_18
    2  A    between atoms: O_2  and  C_46
    3  A    between atoms: C_3  and  N_23
    4  A    between atoms: C_4  and  C_9
    5  A    between atoms: C_4  and  C_38
    6  A    between atoms: C_5  and  C_18
    7  A    between atoms: C_5  and  N_33
    8  A    between atoms: C_7  and  N_23
    9  A    between atoms: C_9  and  C_17
   10  A    between atoms: C_11  and  C_36
   11  A    between atoms: C_11  and  C_40
   12  A    between atoms: C_14  and  O_59
   13  A    between atoms: C_15  and  C_25
   14  A    between atoms: C_16  and  C_28
   15  A    between atoms: C_21  and  C_60
   16  A    between atoms: C_28  and  C_45
   17  A    between atoms: C_30  and  C_31
   18  A    between atoms: C_31  and  N_33
   19  A    between atoms: C_38  and  C_60
   20  A    between atoms: C_39  and  O_59
   21  A    between atoms: C_39  and  C_60
   22  A    between atoms: C_43  and  C_45
   23  A    between atoms: C_56  and  N_58
                            x       y       z     vdW  Elec       q    Type
                         _______ _______ _______ _____ _____    ______ ____

>  <TORSDO>
F 23

$$$$
