=
 OpenBabel11042413193D

 40 45  0  0  1  0  0  0  0  0999 V2000
  184.4750  178.9490  139.0950 C   0  0  0  0  0  0  0  0  0  0  0  0
  183.3730  179.2370  138.3910 C   0  0  0  0  0  3  0  0  0  0  0  0
  185.5410  178.2410  138.4470 N   0  0  0  0  0  0  0  0  0  0  0  0
  188.6480  178.3220  140.3070 C   0  0  0  0  0  3  0  0  0  0  0  0
  186.8100  178.1170  138.8620 C   0  0  0  0  0  0  0  0  0  0  0  0
  189.4570  177.6210  139.3840 C   0  0  0  0  0  3  0  0  0  0  0  0
  187.5530  177.4330  137.9480 C   0  0  0  0  0  0  0  0  0  0  0  0
  187.3290  178.5600  140.0360 N   0  0  0  0  0  0  0  0  0  0  0  0
  186.7300  177.1100  136.8850 C   0  0  0  0  0  3  0  0  0  0  0  0
  188.8980  177.1650  138.1790 C   0  0  0  0  0  0  0  0  0  0  0  0
  185.4810  177.6410  137.2360 C   0  0  0  0  0  3  0  0  0  0  0  0
  189.6690  176.4720  137.2540 O   0  0  0  0  0  1  0  0  0  0  0  0
  182.1560  179.9280  138.8590 C   0  0  0  0  0  0  0  0  0  0  0  0
  180.2150  180.1430  140.3100 C   0  0  0  0  0  3  0  0  0  0  0  0
  180.6040  181.7750  138.5650 C   0  0  0  0  0  0  0  0  0  0  0  0
  179.8300  181.3010  139.6300 C   0  0  0  0  0  3  0  0  0  0  0  0
  181.7640  181.0910  138.1860 C   0  0  0  0  0  3  0  0  0  0  0  0
  181.3700  179.4570  139.9240 C   0  0  0  0  0  3  0  0  0  0  0  0
  180.1940  183.0080  137.8350 C   0  0  0  0  0  2  0  0  0  0  0  0
  182.2560  184.5880  137.4830 N   0  0  0  0  0  0  0  0  0  0  0  0
  181.3470  183.8900  137.6370 C   0  0  0  0  0  0  0  0  0  0  0  0
  184.5930  179.3320  140.4700 N   0  0  0  0  0  2  0  0  0  0  0  0
  184.1840  178.4840  141.5840 C   0  0  0  0  0  2  0  0  0  0  0  0
  183.5680  179.3300  144.0020 C   0  0  1  0  0  3  0  0  0  0  0  0
  185.8260  180.0030  142.9990 C   0  0  0  0  0  1  0  0  0  0  0  0
  182.1570  178.9390  143.5820 C   0  0  0  0  0  1  0  0  0  0  0  0
  184.4230  178.0680  144.0890 C   0  0  1  0  0  3  0  0  0  0  0  0
  184.6260  179.0580  142.9360 C   0  0  2  0  0  0  0  0  0  0  0  0
  187.7030  177.6590  145.9570 C   0  0  0  0  0  0  0  0  0  0  0  0
  188.9790  177.1410  145.7260 C   0  0  0  0  0  3  0  0  0  0  0  0
  189.9490  177.1760  146.7400 C   0  0  0  0  0  0  0  0  0  0  0  0
  189.6330  177.7340  147.9830 C   0  0  0  0  0  3  0  0  0  0  0  0
  185.1470  178.6910  146.4370 C   0  0  0  0  0  3  0  0  0  0  0  0
  188.3570  178.2530  148.2220 C   0  0  0  0  0  3  0  0  0  0  0  0
  187.3890  178.2180  147.2160 C   0  0  0  0  0  0  0  0  0  0  0  0
  186.1090  178.7270  147.4510 C   0  0  0  0  0  3  0  0  0  0  0  0
  185.4600  178.1580  145.1770 C   0  0  0  0  0  0  0  0  0  0  0  0
  186.7360  177.6280  144.9490 C   0  0  0  0  0  3  0  0  0  0  0  0
  191.2980  176.6430  146.5250 C   0  0  0  0  0  3  0  0  0  0  0  0
  192.1070  176.4360  147.5100 N   0  0  0  0  0  2  0  0  0  0  0  0
  1 22  1  0  0  0  0
  2 13  1  0  0  0  0
  2  1  2  0  0  0  0
  3  5  1  0  0  0  0
  3  1  1  0  0  0  0
  5  8  2  0  0  0  0
  6  4  2  0  0  0  0
  7 10  2  0  0  0  0
  7  5  1  0  0  0  0
  8  4  1  0  0  0  0
  9 11  2  0  0  0  0
  9  7  1  0  0  0  0
 10  6  1  0  0  0  0
 11  3  1  0  0  0  0
 12 10  1  0  0  0  0
 13 18  1  0  0  0  0
 15 16  2  0  0  0  0
 16 14  1  0  0  0  0
 17 15  1  0  0  0  0
 17 13  2  0  0  0  0
 18 14  2  0  0  0  0
 19 15  1  0  0  0  0
 20 21  3  0  0  0  0
 21 19  1  0  0  0  0
 22 23  1  0  0  0  0
 23 28  1  0  0  0  0
 24 26  1  6  0  0  0
 24 27  1  0  0  0  0
 27 37  1  1  0  0  0
 28 25  1  1  0  0  0
 28 24  1  0  0  0  0
 28 27  1  0  0  0  0
 29 35  1  0  0  0  0
 30 29  2  0  0  0  0
 30 31  1  0  0  0  0
 31 32  2  0  0  0  0
 32 34  1  0  0  0  0
 33 36  2  0  0  0  0
 35 36  1  0  0  0  0
 35 34  2  0  0  0  0
 37 33  1  0  0  0  0
 38 37  2  0  0  0  0
 38 29  1  0  0  0  0
 39 31  1  0  0  0  0
 39 40  2  0  0  0  0
M  END
>  <MODEL>
1

>  <REMARK>
 VINA RESULT:     -10.6      0.000      0.000
  Name = 
  9 active torsions:
  status: ('A' for Active; 'I' for Inactive)
    1  A    between atoms: C_3  and  N_7
    2  A    between atoms: C_3  and  N_8
    3  A    between atoms: C_4  and  C_16
    4  A    between atoms: C_6  and  C_31
    5  A    between atoms: N_8  and  C_18
    6  A    between atoms: C_18  and  C_30
    7  A    between atoms: C_20  and  C_26
    8  A    between atoms: C_23  and  C_38
    9  A    between atoms: C_26  and  C_33
                            x       y       z     vdW  Elec       q    Type
                         _______ _______ _______ _____ _____    ______ ____

>  <TORSDO>
F 9

$$$$
=
 OpenBabel11042413193D

 40 45  0  0  1  0  0  0  0  0999 V2000
  184.5830  178.7870  139.2610 C   0  0  0  0  0  0  0  0  0  0  0  0
  185.6020  178.4070  138.4800 C   0  0  0  0  0  3  0  0  0  0  0  0
  183.2660  178.8390  138.6970 N   0  0  0  0  0  0  0  0  0  0  0  0
  181.9530  182.2050  138.4430 C   0  0  0  0  0  3  0  0  0  0  0  0
  182.5020  179.9240  138.5040 C   0  0  0  0  0  0  0  0  0  0  0  0
  180.6720  181.8870  137.9350 C   0  0  0  0  0  3  0  0  0  0  0  0
  181.2810  179.5740  138.0110 C   0  0  0  0  0  0  0  0  0  0  0  0
  182.8560  181.2170  138.7190 N   0  0  0  0  0  0  0  0  0  0  0  0
  181.2480  178.1980  137.8910 C   0  0  0  0  0  3  0  0  0  0  0  0
  180.3290  180.5430  137.7130 C   0  0  0  0  0  0  0  0  0  0  0  0
  182.5070  177.7770  138.3380 C   0  0  0  0  0  3  0  0  0  0  0  0
  179.0770  180.2020  137.2140 O   0  0  0  0  0  1  0  0  0  0  0  0
  187.0300  178.3070  138.8430 C   0  0  0  0  0  0  0  0  0  0  0  0
  189.3950  178.1630  138.2890 C   0  0  0  0  0  3  0  0  0  0  0  0
  188.6900  178.0850  140.6040 C   0  0  0  0  0  0  0  0  0  0  0  0
  189.7100  178.0630  139.6470 C   0  0  0  0  0  3  0  0  0  0  0  0
  187.3560  178.2100  140.2000 C   0  0  0  0  0  3  0  0  0  0  0  0
  188.0610  178.2800  137.8880 C   0  0  0  0  0  3  0  0  0  0  0  0
  189.0220  177.9740  142.0520 C   0  0  0  0  0  2  0  0  0  0  0  0
  190.3720  175.7760  142.5170 N   0  0  0  0  0  0  0  0  0  0  0  0
  189.7750  176.7450  142.3100 C   0  0  0  0  0  0  0  0  0  0  0  0
  184.7960  179.1430  140.6320 N   0  0  0  0  0  2  0  0  0  0  0  0
  184.0390  178.5770  141.7420 C   0  0  0  0  0  2  0  0  0  0  0  0
  183.4780  179.3400  144.2010 C   0  0  1  0  0  3  0  0  0  0  0  0
  185.6890  180.0930  143.1510 C   0  0  0  0  0  1  0  0  0  0  0  0
  182.0650  178.9290  143.8130 C   0  0  0  0  0  1  0  0  0  0  0  0
  184.3630  178.0960  144.2260 C   0  0  1  0  0  3  0  0  0  0  0  0
  184.5100  179.1230  143.0960 C   0  0  2  0  0  0  0  0  0  0  0  0
  187.6850  177.6490  146.0100 C   0  0  0  0  0  0  0  0  0  0  0  0
  188.9440  177.1040  145.7520 C   0  0  0  0  0  3  0  0  0  0  0  0
  189.9420  177.1330  146.7380 C   0  0  0  0  0  0  0  0  0  0  0  0
  189.6700  177.7110  147.9830 C   0  0  0  0  0  3  0  0  0  0  0  0
  185.1620  178.7330  146.5470 C   0  0  0  0  0  3  0  0  0  0  0  0
  188.4100  178.2570  148.2500 C   0  0  0  0  0  3  0  0  0  0  0  0
  187.4150  178.2280  147.2700 C   0  0  0  0  0  0  0  0  0  0  0  0
  186.1520  178.7630  147.5340 C   0  0  0  0  0  3  0  0  0  0  0  0
  185.4310  178.1800  145.2850 C   0  0  0  0  0  0  0  0  0  0  0  0
  186.6910  177.6240  145.0290 C   0  0  0  0  0  3  0  0  0  0  0  0
  191.2750  176.5720  146.4940 C   0  0  0  0  0  3  0  0  0  0  0  0
  192.1130  176.3760  147.4580 N   0  0  0  0  0  2  0  0  0  0  0  0
  1 22  1  0  0  0  0
  2 13  1  0  0  0  0
  2  1  2  0  0  0  0
  3  1  1  0  0  0  0
  4  8  1  0  0  0  0
  5  3  1  0  0  0  0
  5  8  2  0  0  0  0
  6  4  2  0  0  0  0
  7  5  1  0  0  0  0
  9  7  1  0  0  0  0
  9 11  2  0  0  0  0
 10  6  1  0  0  0  0
 10  7  2  0  0  0  0
 11  3  1  0  0  0  0
 12 10  1  0  0  0  0
 13 17  1  0  0  0  0
 14 16  2  0  0  0  0
 15 19  1  0  0  0  0
 16 15  1  0  0  0  0
 17 15  2  0  0  0  0
 18 14  1  0  0  0  0
 18 13  2  0  0  0  0
 19 21  1  0  0  0  0
 21 20  3  0  0  0  0
 22 23  1  0  0  0  0
 23 28  1  0  0  0  0
 24 26  1  6  0  0  0
 24 27  1  0  0  0  0
 27 37  1  1  0  0  0
 28 25  1  1  0  0  0
 28 24  1  0  0  0  0
 28 27  1  0  0  0  0
 29 35  1  0  0  0  0
 30 29  2  0  0  0  0
 30 31  1  0  0  0  0
 31 32  2  0  0  0  0
 32 34  1  0  0  0  0
 33 36  2  0  0  0  0
 35 36  1  0  0  0  0
 35 34  2  0  0  0  0
 37 33  1  0  0  0  0
 38 37  2  0  0  0  0
 38 29  1  0  0  0  0
 39 31  1  0  0  0  0
 39 40  2  0  0  0  0
M  END
>  <MODEL>
2

>  <REMARK>
 VINA RESULT:     -10.4      2.210      5.828
  Name = 
  9 active torsions:
  status: ('A' for Active; 'I' for Inactive)
    1  A    between atoms: C_3  and  N_7
    2  A    between atoms: C_3  and  N_8
    3  A    between atoms: C_4  and  C_16
    4  A    between atoms: C_6  and  C_31
    5  A    between atoms: N_8  and  C_18
    6  A    between atoms: C_18  and  C_30
    7  A    between atoms: C_20  and  C_26
    8  A    between atoms: C_23  and  C_38
    9  A    between atoms: C_26  and  C_33
                            x       y       z     vdW  Elec       q    Type
                         _______ _______ _______ _____ _____    ______ ____

>  <TORSDO>
F 9

$$$$
=
 OpenBabel11042413193D

 40 45  0  0  1  0  0  0  0  0999 V2000
  185.2110  178.7350  139.5240 C   0  0  0  0  0  0  0  0  0  0  0  0
  184.2260  178.5770  138.6300 C   0  0  0  0  0  3  0  0  0  0  0  0
  186.5270  178.2740  139.1860 N   0  0  0  0  0  0  0  0  0  0  0  0
  188.7310  178.0240  142.0490 C   0  0  0  0  0  3  0  0  0  0  0  0
  187.5710  178.1100  140.0100 C   0  0  0  0  0  0  0  0  0  0  0  0
  189.9060  177.6300  141.3680 C   0  0  0  0  0  3  0  0  0  0  0  0
  188.6790  177.7260  139.3160 C   0  0  0  0  0  0  0  0  0  0  0  0
  187.5730  178.2580  141.3600 N   0  0  0  0  0  0  0  0  0  0  0  0
  188.3390  177.6500  137.9790 C   0  0  0  0  0  3  0  0  0  0  0  0
  189.8800  177.4750  139.9720 C   0  0  0  0  0  0  0  0  0  0  0  0
  186.9850  178.0080  137.9410 C   0  0  0  0  0  3  0  0  0  0  0  0
  191.0190  177.0870  139.2780 O   0  0  0  0  0  1  0  0  0  0  0  0
  182.8050  178.9510  138.7760 C   0  0  0  0  0  0  0  0  0  0  0  0
  180.9400  180.4940  138.5310 C   0  0  0  0  0  3  0  0  0  0  0  0
  180.5960  178.3420  139.5850 C   0  0  0  0  0  0  0  0  0  0  0  0
  180.0920  179.5730  139.1510 C   0  0  0  0  0  3  0  0  0  0  0  0
  181.9470  178.0340  139.3930 C   0  0  0  0  0  3  0  0  0  0  0  0
  182.2910  180.1860  138.3470 C   0  0  0  0  0  3  0  0  0  0  0  0
  179.6960  177.3590  140.2510 C   0  0  0  0  0  2  0  0  0  0  0  0
  178.9310  178.2660  142.5890 N   0  0  0  0  0  0  0  0  0  0  0  0
  179.2670  177.8650  141.5580 C   0  0  0  0  0  0  0  0  0  0  0  0
  184.9630  179.3430  140.7960 N   0  0  0  0  0  2  0  0  0  0  0  0
  184.1550  178.7290  141.8430 C   0  0  0  0  0  2  0  0  0  0  0  0
  183.5330  179.2270  144.3550 C   0  0  1  0  0  3  0  0  0  0  0  0
  185.6720  180.2510  143.3890 C   0  0  0  0  0  1  0  0  0  0  0  0
  182.1600  178.7340  143.9230 C   0  0  0  0  0  1  0  0  0  0  0  0
  184.5200  178.0640  144.2780 C   0  0  1  0  0  3  0  0  0  0  0  0
  184.5790  179.1930  143.2430 C   0  0  2  0  0  0  0  0  0  0  0  0
  187.8220  177.6050  146.0960 C   0  0  0  0  0  0  0  0  0  0  0  0
  189.0820  177.0550  145.8510 C   0  0  0  0  0  3  0  0  0  0  0  0
  190.0700  177.0820  146.8470 C   0  0  0  0  0  0  0  0  0  0  0  0
  189.7880  177.6630  148.0880 C   0  0  0  0  0  3  0  0  0  0  0  0
  185.2990  178.7010  146.6050 C   0  0  0  0  0  3  0  0  0  0  0  0
  188.5280  178.2140  148.3420 C   0  0  0  0  0  3  0  0  0  0  0  0
  187.5430  178.1880  147.3520 C   0  0  0  0  0  0  0  0  0  0  0  0
  186.2790  178.7300  147.6020 C   0  0  0  0  0  3  0  0  0  0  0  0
  185.5780  178.1450  145.3470 C   0  0  0  0  0  0  0  0  0  0  0  0
  186.8380  177.5830  145.1050 C   0  0  0  0  0  3  0  0  0  0  0  0
  191.4030  176.5140  146.6170 C   0  0  0  0  0  3  0  0  0  0  0  0
  192.2160  176.2810  147.5930 N   0  0  0  0  0  2  0  0  0  0  0  0
  1 22  1  0  0  0  0
  2 13  1  0  0  0  0
  2  1  2  0  0  0  0
  3  1  1  0  0  0  0
  3  5  1  0  0  0  0
  5  8  1  0  0  0  0
  6  4  1  0  0  0  0
  7 10  1  0  0  0  0
  7  5  2  0  0  0  0
  8  4  2  0  0  0  0
  9  7  1  0  0  0  0
 10  6  2  0  0  0  0
 11  9  2  0  0  0  0
 11  3  1  0  0  0  0
 12 10  1  0  0  0  0
 13 17  1  0  0  0  0
 14 16  2  0  0  0  0
 15 19  1  0  0  0  0
 16 15  1  0  0  0  0
 17 15  2  0  0  0  0
 18 14  1  0  0  0  0
 18 13  2  0  0  0  0
 19 21  1  0  0  0  0
 21 20  3  0  0  0  0
 22 23  1  0  0  0  0
 23 28  1  0  0  0  0
 24 26  1  6  0  0  0
 27 24  1  0  0  0  0
 27 37  1  1  0  0  0
 28 25  1  1  0  0  0
 28 27  1  0  0  0  0
 28 24  1  0  0  0  0
 29 35  1  0  0  0  0
 30 29  2  0  0  0  0
 30 31  1  0  0  0  0
 31 32  2  0  0  0  0
 32 34  1  0  0  0  0
 33 36  2  0  0  0  0
 35 36  1  0  0  0  0
 35 34  2  0  0  0  0
 37 33  1  0  0  0  0
 38 37  2  0  0  0  0
 38 29  1  0  0  0  0
 39 31  1  0  0  0  0
 39 40  2  0  0  0  0
M  END
>  <MODEL>
3

>  <REMARK>
 VINA RESULT:     -10.3      1.551      2.470
  Name = 
  9 active torsions:
  status: ('A' for Active; 'I' for Inactive)
    1  A    between atoms: C_3  and  N_7
    2  A    between atoms: C_3  and  N_8
    3  A    between atoms: C_4  and  C_16
    4  A    between atoms: C_6  and  C_31
    5  A    between atoms: N_8  and  C_18
    6  A    between atoms: C_18  and  C_30
    7  A    between atoms: C_20  and  C_26
    8  A    between atoms: C_23  and  C_38
    9  A    between atoms: C_26  and  C_33
                            x       y       z     vdW  Elec       q    Type
                         _______ _______ _______ _____ _____    ______ ____

>  <TORSDO>
F 9

$$$$
=
 OpenBabel11042413193D

 40 45  0  0  1  0  0  0  0  0999 V2000
  184.6300  178.9300  139.2650 C   0  0  0  0  0  0  0  0  0  0  0  0
  185.6210  178.5050  138.4700 C   0  0  0  0  0  3  0  0  0  0  0  0
  183.3200  179.0920  138.7060 N   0  0  0  0  0  0  0  0  0  0  0  0
  181.9480  176.0210  137.3640 C   0  0  0  0  0  3  0  0  0  0  0  0
  182.5660  178.1590  138.1070 C   0  0  0  0  0  0  0  0  0  0  0  0
  180.7370  176.5430  136.8550 C   0  0  0  0  0  3  0  0  0  0  0  0
  181.4090  178.7020  137.6360 C   0  0  0  0  0  0  0  0  0  0  0  0
  182.8500  176.8370  137.9890 N   0  0  0  0  0  0  0  0  0  0  0  0
  181.4190  180.0520  137.9320 C   0  0  0  0  0  3  0  0  0  0  0  0
  180.4600  177.9120  136.9950 C   0  0  0  0  0  0  0  0  0  0  0  0
  182.6370  180.2560  138.5950 C   0  0  0  0  0  3  0  0  0  0  0  0
  179.2770  178.4530  136.5050 O   0  0  0  0  0  1  0  0  0  0  0  0
  187.0380  178.2940  138.8250 C   0  0  0  0  0  0  0  0  0  0  0  0
  189.3720  177.9020  138.2610 C   0  0  0  0  0  3  0  0  0  0  0  0
  188.6940  178.0150  140.5820 C   0  0  0  0  0  0  0  0  0  0  0  0
  189.6950  177.8480  139.6190 C   0  0  0  0  0  3  0  0  0  0  0  0
  187.3720  178.2410  140.1830 C   0  0  0  0  0  3  0  0  0  0  0  0
  188.0490  178.1200  137.8650 C   0  0  0  0  0  3  0  0  0  0  0  0
  189.0330  177.9530  142.0320 C   0  0  0  0  0  2  0  0  0  0  0  0
  190.2070  175.6790  142.6010 N   0  0  0  0  0  0  0  0  0  0  0  0
  189.6880  176.6820  142.3480 C   0  0  0  0  0  0  0  0  0  0  0  0
  184.8680  179.2240  140.6470 N   0  0  0  0  0  2  0  0  0  0  0  0
  184.1200  178.6210  141.7430 C   0  0  0  0  0  2  0  0  0  0  0  0
  183.5310  179.3460  144.2070 C   0  0  1  0  0  3  0  0  0  0  0  0
  185.7460  180.1300  143.1880 C   0  0  0  0  0  1  0  0  0  0  0  0
  182.1240  178.9310  143.8000 C   0  0  0  0  0  1  0  0  0  0  0  0
  184.4250  178.1090  144.2230 C   0  0  1  0  0  3  0  0  0  0  0  0
  184.5740  179.1520  143.1090 C   0  0  2  0  0  0  0  0  0  0  0  0
  187.7320  177.6570  146.0320 C   0  0  0  0  0  0  0  0  0  0  0  0
  188.9960  177.1220  145.7790 C   0  0  0  0  0  3  0  0  0  0  0  0
  189.9850  177.1440  146.7750 C   0  0  0  0  0  0  0  0  0  0  0  0
  189.6980  177.7060  148.0240 C   0  0  0  0  0  3  0  0  0  0  0  0
  185.1980  178.7210  146.5580 C   0  0  0  0  0  3  0  0  0  0  0  0
  188.4330  178.2410  148.2860 C   0  0  0  0  0  3  0  0  0  0  0  0
  187.4470  178.2190  147.2960 C   0  0  0  0  0  0  0  0  0  0  0  0
  186.1790  178.7450  147.5550 C   0  0  0  0  0  3  0  0  0  0  0  0
  185.4820  178.1850  145.2920 C   0  0  0  0  0  0  0  0  0  0  0  0
  186.7470  177.6390  145.0410 C   0  0  0  0  0  3  0  0  0  0  0  0
  191.3230  176.5930  146.5370 C   0  0  0  0  0  3  0  0  0  0  0  0
  192.1230  176.3150  147.5120 N   0  0  0  0  0  2  0  0  0  0  0  0
  1 22  1  0  0  0  0
  2 13  1  0  0  0  0
  2  1  2  0  0  0  0
  3  1  1  0  0  0  0
  4  8  1  0  0  0  0
  5  3  1  0  0  0  0
  6 10  1  0  0  0  0
  6  4  2  0  0  0  0
  7  9  1  0  0  0  0
  7  5  1  0  0  0  0
  8  5  2  0  0  0  0
  9 11  2  0  0  0  0
 10  7  2  0  0  0  0
 11  3  1  0  0  0  0
 12 10  1  0  0  0  0
 13 17  1  0  0  0  0
 14 16  2  0  0  0  0
 15 19  1  0  0  0  0
 16 15  1  0  0  0  0
 17 15  2  0  0  0  0
 18 14  1  0  0  0  0
 18 13  2  0  0  0  0
 19 21  1  0  0  0  0
 21 20  3  0  0  0  0
 22 23  1  0  0  0  0
 23 28  1  0  0  0  0
 24 26  1  6  0  0  0
 24 27  1  0  0  0  0
 27 37  1  1  0  0  0
 28 25  1  1  0  0  0
 28 24  1  0  0  0  0
 28 27  1  0  0  0  0
 29 35  1  0  0  0  0
 30 29  2  0  0  0  0
 30 31  1  0  0  0  0
 31 32  2  0  0  0  0
 32 34  1  0  0  0  0
 33 36  2  0  0  0  0
 35 36  1  0  0  0  0
 35 34  2  0  0  0  0
 37 33  1  0  0  0  0
 38 37  2  0  0  0  0
 38 29  1  0  0  0  0
 39 31  1  0  0  0  0
 39 40  2  0  0  0  0
M  END
>  <MODEL>
4

>  <REMARK>
 VINA RESULT:     -10.2      2.328      5.745
  Name = 
  9 active torsions:
  status: ('A' for Active; 'I' for Inactive)
    1  A    between atoms: C_3  and  N_7
    2  A    between atoms: C_3  and  N_8
    3  A    between atoms: C_4  and  C_16
    4  A    between atoms: C_6  and  C_31
    5  A    between atoms: N_8  and  C_18
    6  A    between atoms: C_18  and  C_30
    7  A    between atoms: C_20  and  C_26
    8  A    between atoms: C_23  and  C_38
    9  A    between atoms: C_26  and  C_33
                            x       y       z     vdW  Elec       q    Type
                         _______ _______ _______ _____ _____    ______ ____

>  <TORSDO>
F 9

$$$$
=
 OpenBabel11042413193D

 40 45  0  0  1  0  0  0  0  0999 V2000
  185.5830  178.4020  140.3660 C   0  0  0  0  0  0  0  0  0  0  0  0
  185.1710  178.8370  139.1690 C   0  0  0  0  0  3  0  0  0  0  0  0
  186.9910  178.3320  140.6260 N   0  0  0  0  0  0  0  0  0  0  0  0
  188.9010  177.0770  137.8150 C   0  0  0  0  0  3  0  0  0  0  0  0
  187.9510  177.8830  139.8050 C   0  0  0  0  0  0  0  0  0  0  0  0
  190.1780  177.0740  138.4210 C   0  0  0  0  0  3  0  0  0  0  0  0
  189.1650  177.9010  140.4250 C   0  0  0  0  0  0  0  0  0  0  0  0
  187.7990  177.4850  138.5160 N   0  0  0  0  0  0  0  0  0  0  0  0
  188.9800  178.3720  141.7110 C   0  0  0  0  0  3  0  0  0  0  0  0
  190.3140  177.4970  139.7540 C   0  0  0  0  0  0  0  0  0  0  0  0
  187.6040  178.6230  141.7970 C   0  0  0  0  0  3  0  0  0  0  0  0
  191.5580  177.5060  140.3740 O   0  0  0  0  0  1  0  0  0  0  0  0
  183.7830  178.9650  138.6820 C   0  0  0  0  0  0  0  0  0  0  0  0
  181.7840  178.0970  137.6010 C   0  0  0  0  0  3  0  0  0  0  0  0
  181.8440  180.3950  138.3600 C   0  0  0  0  0  0  0  0  0  0  0  0
  181.1600  179.3390  137.7480 C   0  0  0  0  0  3  0  0  0  0  0  0
  183.1490  180.2040  138.8270 C   0  0  0  0  0  3  0  0  0  0  0  0
  183.0900  177.9110  138.0620 C   0  0  0  0  0  3  0  0  0  0  0  0
  181.1850  181.7220  138.5150 C   0  0  0  0  0  2  0  0  0  0  0  0
  179.1840  181.5560  140.1990 N   0  0  0  0  0  0  0  0  0  0  0  0
  180.0650  181.6290  139.4550 C   0  0  0  0  0  0  0  0  0  0  0  0
  184.6420  178.0050  141.3710 N   0  0  0  0  0  2  0  0  0  0  0  0
  183.7500  178.9330  142.0560 C   0  0  0  0  0  2  0  0  0  0  0  0
  183.3220  179.1690  144.6450 C   0  0  1  0  0  3  0  0  0  0  0  0
  185.3060  180.4120  143.6060 C   0  0  0  0  0  1  0  0  0  0  0  0
  181.9470  178.6260  144.2830 C   0  0  0  0  0  1  0  0  0  0  0  0
  184.3640  178.0850  144.3810 C   0  0  1  0  0  3  0  0  0  0  0  0
  184.2670  179.3010  143.4530 C   0  0  2  0  0  0  0  0  0  0  0  0
  187.8150  177.6290  145.8980 C   0  0  0  0  0  0  0  0  0  0  0  0
  189.0630  177.1280  145.5220 C   0  0  0  0  0  3  0  0  0  0  0  0
  190.1300  177.1320  146.4350 C   0  0  0  0  0  0  0  0  0  0  0  0
  189.9370  177.6420  147.7230 C   0  0  0  0  0  3  0  0  0  0  0  0
  185.3170  178.6260  146.6680 C   0  0  0  0  0  3  0  0  0  0  0  0
  188.6900  178.1440  148.1070 C   0  0  0  0  0  3  0  0  0  0  0  0
  187.6270  178.1400  147.2010 C   0  0  0  0  0  0  0  0  0  0  0  0
  186.3750  178.6310  147.5820 C   0  0  0  0  0  3  0  0  0  0  0  0
  185.5050  178.1420  145.3640 C   0  0  0  0  0  0  0  0  0  0  0  0
  186.7530  177.6290  144.9900 C   0  0  0  0  0  3  0  0  0  0  0  0
  191.4520  176.6160  146.0680 C   0  0  0  0  0  3  0  0  0  0  0  0
  192.0370  175.7000  146.7650 N   0  0  0  0  0  2  0  0  0  0  0  0
  1  3  1  0  0  0  0
  1 22  1  0  0  0  0
  2  1  2  0  0  0  0
  3 11  1  0  0  0  0
  4  6  2  0  0  0  0
  4  8  1  0  0  0  0
  5  7  1  0  0  0  0
  5  3  1  0  0  0  0
  6 10  1  0  0  0  0
  7  9  1  0  0  0  0
  8  5  2  0  0  0  0
  9 11  2  0  0  0  0
 10 12  1  0  0  0  0
 10  7  2  0  0  0  0
 13 17  1  0  0  0  0
 13  2  1  0  0  0  0
 14 16  2  0  0  0  0
 14 18  1  0  0  0  0
 15 19  1  0  0  0  0
 15 17  2  0  0  0  0
 16 15  1  0  0  0  0
 18 13  2  0  0  0  0
 19 21  1  0  0  0  0
 21 20  3  0  0  0  0
 22 23  1  0  0  0  0
 23 28  1  0  0  0  0
 24 26  1  6  0  0  0
 27 24  1  0  0  0  0
 27 37  1  1  0  0  0
 28 25  1  1  0  0  0
 28 27  1  0  0  0  0
 28 24  1  0  0  0  0
 29 35  1  0  0  0  0
 30 29  2  0  0  0  0
 30 31  1  0  0  0  0
 31 32  2  0  0  0  0
 32 34  1  0  0  0  0
 33 36  2  0  0  0  0
 35 36  1  0  0  0  0
 35 34  2  0  0  0  0
 37 33  1  0  0  0  0
 38 37  2  0  0  0  0
 38 29  1  0  0  0  0
 39 31  1  0  0  0  0
 39 40  2  0  0  0  0
M  END
>  <MODEL>
5

>  <REMARK>
 VINA RESULT:      -9.7      1.487      2.251
  Name = 
  9 active torsions:
  status: ('A' for Active; 'I' for Inactive)
    1  A    between atoms: C_3  and  N_7
    2  A    between atoms: C_3  and  N_8
    3  A    between atoms: C_4  and  C_16
    4  A    between atoms: C_6  and  C_31
    5  A    between atoms: N_8  and  C_18
    6  A    between atoms: C_18  and  C_30
    7  A    between atoms: C_20  and  C_26
    8  A    between atoms: C_23  and  C_38
    9  A    between atoms: C_26  and  C_33
                            x       y       z     vdW  Elec       q    Type
                         _______ _______ _______ _____ _____    ______ ____

>  <TORSDO>
F 9

$$$$
=
 OpenBabel11042413193D

 40 45  0  0  1  0  0  0  0  0999 V2000
  184.7230  178.4890  138.9550 C   0  0  0  0  0  0  0  0  0  0  0  0
  185.7050  178.0720  138.1440 C   0  0  0  0  0  3  0  0  0  0  0  0
  183.4020  178.6350  138.4170 N   0  0  0  0  0  0  0  0  0  0  0  0
  182.0730  175.5600  137.0390 C   0  0  0  0  0  3  0  0  0  0  0  0
  182.6580  177.6970  137.8130 C   0  0  0  0  0  0  0  0  0  0  0  0
  180.8440  176.0660  136.5570 C   0  0  0  0  0  3  0  0  0  0  0  0
  181.4830  178.2250  137.3680 C   0  0  0  0  0  0  0  0  0  0  0  0
  182.9670  176.3840  137.6660 N   0  0  0  0  0  0  0  0  0  0  0  0
  181.4700  179.5690  137.6900 C   0  0  0  0  0  3  0  0  0  0  0  0
  180.5410  177.4270  136.7270 C   0  0  0  0  0  0  0  0  0  0  0  0
  182.6940  179.7850  138.3380 C   0  0  0  0  0  3  0  0  0  0  0  0
  179.3410  177.9520  136.2640 O   0  0  0  0  0  1  0  0  0  0  0  0
  187.1300  177.8780  138.4750 C   0  0  0  0  0  0  0  0  0  0  0  0
  189.0580  178.1060  139.9420 C   0  0  0  0  0  3  0  0  0  0  0  0
  189.3140  177.0860  137.7610 C   0  0  0  0  0  0  0  0  0  0  0  0
  189.8680  177.5020  138.9770 C   0  0  0  0  0  3  0  0  0  0  0  0
  187.9490  177.2720  137.5170 C   0  0  0  0  0  3  0  0  0  0  0  0
  187.6960  178.2970  139.6920 C   0  0  0  0  0  3  0  0  0  0  0  0
  190.1750  176.4470  136.7270 C   0  0  0  0  0  2  0  0  0  0  0  0
  191.1850  174.2050  137.6370 N   0  0  0  0  0  0  0  0  0  0  0  0
  190.7400  175.1950  137.2380 C   0  0  0  0  0  0  0  0  0  0  0  0
  184.9820  178.7910  140.3310 N   0  0  0  0  0  2  0  0  0  0  0  0
  184.1180  178.3710  141.4280 C   0  0  0  0  0  2  0  0  0  0  0  0
  183.4580  179.3340  143.7900 C   0  0  1  0  0  3  0  0  0  0  0  0
  185.7480  179.9320  142.8110 C   0  0  0  0  0  1  0  0  0  0  0  0
  182.0530  178.9430  143.3560 C   0  0  0  0  0  1  0  0  0  0  0  0
  184.2930  178.0660  143.9540 C   0  0  1  0  0  3  0  0  0  0  0  0
  184.5370  179.0000  142.7620 C   0  0  2  0  0  0  0  0  0  0  0  0
  187.5120  177.6720  145.9290 C   0  0  0  0  0  0  0  0  0  0  0  0
  188.7750  177.1000  145.7640 C   0  0  0  0  0  3  0  0  0  0  0  0
  189.7220  177.1690  146.7990 C   0  0  0  0  0  0  0  0  0  0  0  0
  189.3940  177.8140  147.9960 C   0  0  0  0  0  3  0  0  0  0  0  0
  184.9810  178.8130  146.2770 C   0  0  0  0  0  3  0  0  0  0  0  0
  188.1310  178.3880  148.1690 C   0  0  0  0  0  3  0  0  0  0  0  0
  187.1870  178.3200  147.1410 C   0  0  0  0  0  0  0  0  0  0  0  0
  185.9190  178.8830  147.3110 C   0  0  0  0  0  3  0  0  0  0  0  0
  185.3070  178.1920  145.0610 C   0  0  0  0  0  0  0  0  0  0  0  0
  186.5690  177.6080  144.8990 C   0  0  0  0  0  3  0  0  0  0  0  0
  191.0570  176.5800  146.6540 C   0  0  0  0  0  3  0  0  0  0  0  0
  191.6950  176.6200  145.5320 N   0  0  0  0  0  2  0  0  0  0  0  0
  1 22  1  0  0  0  0
  2 13  1  0  0  0  0
  2  1  2  0  0  0  0
  3  1  1  0  0  0  0
  4  8  1  0  0  0  0
  5  3  1  0  0  0  0
  6 10  1  0  0  0  0
  6  4  2  0  0  0  0
  7  9  1  0  0  0  0
  7  5  1  0  0  0  0
  8  5  2  0  0  0  0
  9 11  2  0  0  0  0
 10  7  2  0  0  0  0
 11  3  1  0  0  0  0
 12 10  1  0  0  0  0
 13 18  1  0  0  0  0
 15 16  2  0  0  0  0
 16 14  1  0  0  0  0
 17 15  1  0  0  0  0
 17 13  2  0  0  0  0
 18 14  2  0  0  0  0
 19 21  1  0  0  0  0
 19 15  1  0  0  0  0
 21 20  3  0  0  0  0
 22 23  1  0  0  0  0
 23 28  1  0  0  0  0
 24 26  1  6  0  0  0
 24 27  1  0  0  0  0
 27 37  1  1  0  0  0
 28 25  1  1  0  0  0
 28 24  1  0  0  0  0
 28 27  1  0  0  0  0
 29 35  1  0  0  0  0
 30 29  2  0  0  0  0
 30 31  1  0  0  0  0
 31 32  2  0  0  0  0
 32 34  1  0  0  0  0
 33 36  2  0  0  0  0
 35 36  1  0  0  0  0
 35 34  2  0  0  0  0
 37 33  1  0  0  0  0
 38 37  2  0  0  0  0
 38 29  1  0  0  0  0
 39 31  1  0  0  0  0
 40 39  2  0  0  0  0
M  END
>  <MODEL>
6

>  <REMARK>
 VINA RESULT:      -9.1      2.488      5.905
  Name = 
  9 active torsions:
  status: ('A' for Active; 'I' for Inactive)
    1  A    between atoms: C_3  and  N_7
    2  A    between atoms: C_3  and  N_8
    3  A    between atoms: C_4  and  C_16
    4  A    between atoms: C_6  and  C_31
    5  A    between atoms: N_8  and  C_18
    6  A    between atoms: C_18  and  C_30
    7  A    between atoms: C_20  and  C_26
    8  A    between atoms: C_23  and  C_38
    9  A    between atoms: C_26  and  C_33
                            x       y       z     vdW  Elec       q    Type
                         _______ _______ _______ _____ _____    ______ ____

>  <TORSDO>
F 9

$$$$
=
 OpenBabel11042413193D

 40 45  0  0  1  0  0  0  0  0999 V2000
  184.3630  178.1400  138.7690 C   0  0  0  0  0  0  0  0  0  0  0  0
  185.4730  178.2400  138.0260 C   0  0  0  0  0  3  0  0  0  0  0  0
  183.1040  178.4790  138.1730 N   0  0  0  0  0  0  0  0  0  0  0  0
  182.2020  181.9580  138.6230 C   0  0  0  0  0  3  0  0  0  0  0  0
  182.4840  179.6680  138.1960 C   0  0  0  0  0  0  0  0  0  0  0  0
  180.9320  181.9220  138.0030 C   0  0  0  0  0  3  0  0  0  0  0  0
  181.2680  179.5900  137.5850 C   0  0  0  0  0  0  0  0  0  0  0  0
  182.9660  180.8280  138.7100 N   0  0  0  0  0  0  0  0  0  0  0  0
  181.0880  178.2880  137.1570 C   0  0  0  0  0  3  0  0  0  0  0  0
  180.4560  180.7130  137.4700 C   0  0  0  0  0  0  0  0  0  0  0  0
  182.2570  177.6250  137.5530 C   0  0  0  0  0  3  0  0  0  0  0  0
  179.2120  180.6490  136.8530 O   0  0  0  0  0  1  0  0  0  0  0  0
  186.8640  177.9690  138.4380 C   0  0  0  0  0  0  0  0  0  0  0  0
  188.6930  178.0260  140.0420 C   0  0  0  0  0  3  0  0  0  0  0  0
  189.0640  177.1380  137.8210 C   0  0  0  0  0  0  0  0  0  0  0  0
  189.5460  177.4530  139.0960 C   0  0  0  0  0  3  0  0  0  0  0  0
  187.7260  177.3930  137.4980 C   0  0  0  0  0  3  0  0  0  0  0  0
  187.3600  178.2860  139.7150 C   0  0  0  0  0  3  0  0  0  0  0  0
  189.9710  176.5320  136.8070 C   0  0  0  0  0  2  0  0  0  0  0  0
  192.4310  176.4540  137.7100 N   0  0  0  0  0  0  0  0  0  0  0  0
  191.3450  176.4880  137.3140 C   0  0  0  0  0  0  0  0  0  0  0  0
  184.4250  177.7100  140.1340 N   0  0  0  0  0  2  0  0  0  0  0  0
  183.5710  178.2420  141.1890 C   0  0  0  0  0  2  0  0  0  0  0  0
  183.6470  179.3970  143.5560 C   0  0  1  0  0  3  0  0  0  0  0  0
  185.7110  179.5420  142.0480 C   0  0  0  0  0  1  0  0  0  0  0  0
  182.1340  179.2440  143.4780 C   0  0  0  0  0  1  0  0  0  0  0  0
  184.2780  178.0080  143.6280 C   0  0  1  0  0  3  0  0  0  0  0  0
  184.3870  178.8380  142.3430 C   0  0  2  0  0  0  0  0  0  0  0  0
  187.8830  177.4490  144.6830 C   0  0  0  0  0  0  0  0  0  0  0  0
  189.0730  176.9780  144.1250 C   0  0  0  0  0  3  0  0  0  0  0  0
  190.2410  176.9180  144.9010 C   0  0  0  0  0  0  0  0  0  0  0  0
  190.2080  177.3330  146.2370 C   0  0  0  0  0  3  0  0  0  0  0  0
  185.5020  178.3830  145.8170 C   0  0  0  0  0  3  0  0  0  0  0  0
  189.0190  177.8030  146.8030 C   0  0  0  0  0  3  0  0  0  0  0  0
  187.8550  177.8630  146.0330 C   0  0  0  0  0  0  0  0  0  0  0  0
  186.6620  178.3240  146.5950 C   0  0  0  0  0  3  0  0  0  0  0  0
  185.5290  177.9950  144.4680 C   0  0  0  0  0  0  0  0  0  0  0  0
  186.7190  177.5130  143.9120 C   0  0  0  0  0  3  0  0  0  0  0  0
  191.5060  176.4310  144.3420 C   0  0  0  0  0  3  0  0  0  0  0  0
  191.7070  176.3800  143.0680 N   0  0  0  0  0  2  0  0  0  0  0  0
  1 22  1  0  0  0  0
  2 13  1  0  0  0  0
  2  1  2  0  0  0  0
  3  5  1  0  0  0  0
  3  1  1  0  0  0  0
  4  8  1  0  0  0  0
  5  8  2  0  0  0  0
  6  4  2  0  0  0  0
  7  5  1  0  0  0  0
  9 11  2  0  0  0  0
  9  7  1  0  0  0  0
 10  7  2  0  0  0  0
 10  6  1  0  0  0  0
 11  3  1  0  0  0  0
 12 10  1  0  0  0  0
 13 18  1  0  0  0  0
 15 16  2  0  0  0  0
 16 14  1  0  0  0  0
 17 15  1  0  0  0  0
 17 13  2  0  0  0  0
 18 14  2  0  0  0  0
 19 21  1  0  0  0  0
 19 15  1  0  0  0  0
 21 20  3  0  0  0  0
 22 23  1  0  0  0  0
 23 28  1  0  0  0  0
 24 26  1  6  0  0  0
 24 27  1  0  0  0  0
 27 37  1  1  0  0  0
 28 25  1  6  0  0  0
 28 24  1  0  0  0  0
 28 27  1  0  0  0  0
 29 35  1  0  0  0  0
 30 29  2  0  0  0  0
 30 31  1  0  0  0  0
 31 32  2  0  0  0  0
 32 34  1  0  0  0  0
 33 36  2  0  0  0  0
 35 36  1  0  0  0  0
 35 34  2  0  0  0  0
 37 33  1  0  0  0  0
 38 37  2  0  0  0  0
 38 29  1  0  0  0  0
 39 31  1  0  0  0  0
 40 39  2  0  0  0  0
M  END
>  <MODEL>
7

>  <REMARK>
 VINA RESULT:      -8.7      2.504      5.948
  Name = 
  9 active torsions:
  status: ('A' for Active; 'I' for Inactive)
    1  A    between atoms: C_3  and  N_7
    2  A    between atoms: C_3  and  N_8
    3  A    between atoms: C_4  and  C_16
    4  A    between atoms: C_6  and  C_31
    5  A    between atoms: N_8  and  C_18
    6  A    between atoms: C_18  and  C_30
    7  A    between atoms: C_20  and  C_26
    8  A    between atoms: C_23  and  C_38
    9  A    between atoms: C_26  and  C_33
                            x       y       z     vdW  Elec       q    Type
                         _______ _______ _______ _____ _____    ______ ____

>  <TORSDO>
F 9

$$$$
=
 OpenBabel11042413193D

 40 45  0  0  1  0  0  0  0  0999 V2000
  186.9680  178.0680  139.1730 C   0  0  0  0  0  0  0  0  0  0  0  0
  186.7830  177.3840  138.0370 C   0  0  0  0  0  3  0  0  0  0  0  0
  188.2250  177.9460  139.8530 N   0  0  0  0  0  0  0  0  0  0  0  0
  190.9220  176.8730  137.6860 C   0  0  0  0  0  3  0  0  0  0  0  0
  189.3950  177.5410  139.3390 C   0  0  0  0  0  0  0  0  0  0  0  0
  191.9460  176.7940  138.6580 C   0  0  0  0  0  3  0  0  0  0  0  0
  190.3540  177.4830  140.3060 C   0  0  0  0  0  0  0  0  0  0  0  0
  189.6560  177.2500  138.0390 N   0  0  0  0  0  0  0  0  0  0  0  0
  189.7740  177.8560  141.5040 C   0  0  0  0  0  3  0  0  0  0  0  0
  191.6570  177.1070  139.9960 C   0  0  0  0  0  0  0  0  0  0  0  0
  188.4390  178.1290  141.1760 C   0  0  0  0  0  3  0  0  0  0  0  0
  192.6430  177.0390  140.9720 O   0  0  0  0  0  1  0  0  0  0  0  0
  185.5720  177.3420  137.1940 C   0  0  0  0  0  0  0  0  0  0  0  0
  184.4370  177.1980  135.0470 C   0  0  0  0  0  3  0  0  0  0  0  0
  183.1470  177.4610  137.0780 C   0  0  0  0  0  0  0  0  0  0  0  0
  183.2020  177.3250  135.6870 C   0  0  0  0  0  3  0  0  0  0  0  0
  184.3300  177.4650  137.8260 C   0  0  0  0  0  3  0  0  0  0  0  0
  185.6170  177.2090  135.7950 C   0  0  0  0  0  3  0  0  0  0  0  0
  181.8320  177.6020  137.7640 C   0  0  0  0  0  2  0  0  0  0  0  0
  181.5660  175.7690  139.6180 N   0  0  0  0  0  0  0  0  0  0  0  0
  181.6850  176.5770  138.8010 C   0  0  0  0  0  0  0  0  0  0  0  0
  185.9350  178.9010  139.7090 N   0  0  0  0  0  2  0  0  0  0  0  0
  184.8820  178.4170  140.5940 C   0  0  0  0  0  2  0  0  0  0  0  0
  183.7830  179.1140  142.8850 C   0  0  1  0  0  3  0  0  0  0  0  0
  186.1210  179.9940  142.3220 C   0  0  0  0  0  1  0  0  0  0  0  0
  182.5050  178.6380  142.2100 C   0  0  0  0  0  1  0  0  0  0  0  0
  184.7080  177.9160  143.0890 C   0  0  1  0  0  3  0  0  0  0  0  0
  185.0310  178.9660  142.0190 C   0  0  2  0  0  0  0  0  0  0  0  0
  187.5810  177.5570  145.5440 C   0  0  0  0  0  0  0  0  0  0  0  0
  188.8730  177.0280  145.5690 C   0  0  0  0  0  3  0  0  0  0  0  0
  189.6400  177.0920  146.7440 C   0  0  0  0  0  0  0  0  0  0  0  0
  189.1030  177.6890  147.8890 C   0  0  0  0  0  3  0  0  0  0  0  0
  184.9900  178.6100  145.5110 C   0  0  0  0  0  3  0  0  0  0  0  0
  187.8090  178.2190  147.8720 C   0  0  0  0  0  3  0  0  0  0  0  0
  187.0440  178.1560  146.7050 C   0  0  0  0  0  0  0  0  0  0  0  0
  185.7480  178.6760  146.6840 C   0  0  0  0  0  3  0  0  0  0  0  0
  185.5260  178.0370  144.3470 C   0  0  0  0  0  0  0  0  0  0  0  0
  186.8180  177.4970  144.3760 C   0  0  0  0  0  3  0  0  0  0  0  0
  191.0000  176.5480  146.8000 C   0  0  0  0  0  3  0  0  0  0  0  0
  191.8280  176.8910  147.7300 N   0  0  0  0  0  2  0  0  0  0  0  0
  1 22  1  0  0  0  0
  1  3  1  0  0  0  0
  2  1  2  0  0  0  0
  3 11  1  0  0  0  0
  4  8  2  0  0  0  0
  4  6  1  0  0  0  0
  5  3  1  0  0  0  0
  5  7  2  0  0  0  0
  6 10  2  0  0  0  0
  7  9  1  0  0  0  0
  8  5  1  0  0  0  0
 10  7  1  0  0  0  0
 10 12  1  0  0  0  0
 11  9  2  0  0  0  0
 13 17  1  0  0  0  0
 13  2  1  0  0  0  0
 14 16  2  0  0  0  0
 14 18  1  0  0  0  0
 15 19  1  0  0  0  0
 15 17  2  0  0  0  0
 16 15  1  0  0  0  0
 18 13  2  0  0  0  0
 19 21  1  0  0  0  0
 21 20  3  0  0  0  0
 22 23  1  0  0  0  0
 23 28  1  0  0  0  0
 24 26  1  6  0  0  0
 24 27  1  0  0  0  0
 27 37  1  1  0  0  0
 28 25  1  1  0  0  0
 28 24  1  0  0  0  0
 28 27  1  0  0  0  0
 29 30  2  0  0  0  0
 29 35  1  0  0  0  0
 30 31  1  0  0  0  0
 31 39  1  0  0  0  0
 31 32  2  0  0  0  0
 33 36  2  0  0  0  0
 34 32  1  0  0  0  0
 35 34  2  0  0  0  0
 36 35  1  0  0  0  0
 37 38  2  0  0  0  0
 37 33  1  0  0  0  0
 38 29  1  0  0  0  0
 39 40  2  0  0  0  0
M  END
>  <MODEL>
8

>  <REMARK>
 VINA RESULT:      -8.6      2.510      3.755
  Name = 
  9 active torsions:
  status: ('A' for Active; 'I' for Inactive)
    1  A    between atoms: C_3  and  N_7
    2  A    between atoms: C_3  and  N_8
    3  A    between atoms: C_4  and  C_16
    4  A    between atoms: C_6  and  C_31
    5  A    between atoms: N_8  and  C_18
    6  A    between atoms: C_18  and  C_30
    7  A    between atoms: C_20  and  C_26
    8  A    between atoms: C_23  and  C_38
    9  A    between atoms: C_26  and  C_33
                            x       y       z     vdW  Elec       q    Type
                         _______ _______ _______ _____ _____    ______ ____

>  <TORSDO>
F 9

$$$$
=
 OpenBabel11042413193D

 40 45  0  0  1  0  0  0  0  0999 V2000
  191.4000  177.0880  139.8440 C   0  0  0  0  0  0  0  0  0  0  0  0
  191.9550  176.7960  141.0280 C   0  0  0  0  0  3  0  0  0  0  0  0
  191.9540  176.4990  138.6600 N   0  0  0  0  0  0  0  0  0  0  0  0
  189.8150  173.9780  137.1810 C   0  0  0  0  0  3  0  0  0  0  0  0
  191.4260  175.5230  137.9090 C   0  0  0  0  0  0  0  0  0  0  0  0
  190.6680  173.5800  136.1260 C   0  0  0  0  0  3  0  0  0  0  0  0
  192.2750  175.1730  136.9030 C   0  0  0  0  0  0  0  0  0  0  0  0
  190.2040  174.9500  138.0610 N   0  0  0  0  0  0  0  0  0  0  0  0
  193.4130  175.9500  137.0150 C   0  0  0  0  0  3  0  0  0  0  0  0
  191.9240  174.1910  135.9820 C   0  0  0  0  0  0  0  0  0  0  0  0
  193.1730  176.7610  138.1330 C   0  0  0  0  0  3  0  0  0  0  0  0
  192.7820  173.8200  134.9540 O   0  0  0  0  0  1  0  0  0  0  0  0
  191.5670  177.3040  142.3580 C   0  0  0  0  0  0  0  0  0  0  0  0
  190.9950  179.0910  143.9070 C   0  0  0  0  0  3  0  0  0  0  0  0
  191.1090  176.8040  144.6920 C   0  0  0  0  0  0  0  0  0  0  0  0
  190.8800  178.1620  144.9430 C   0  0  0  0  0  3  0  0  0  0  0  0
  191.4460  176.3800  143.4020 C   0  0  0  0  0  3  0  0  0  0  0  0
  191.3400  178.6660  142.6210 C   0  0  0  0  0  3  0  0  0  0  0  0
  190.9920  175.8100  145.7960 C   0  0  0  0  0  2  0  0  0  0  0  0
  192.2380  176.6680  147.9360 N   0  0  0  0  0  0  0  0  0  0  0  0
  191.6900  176.2910  146.9910 C   0  0  0  0  0  0  0  0  0  0  0  0
  190.2780  177.9730  139.7540 N   0  0  0  0  0  2  0  0  0  0  0  0
  188.8930  177.5220  139.6880 C   0  0  0  0  0  2  0  0  0  0  0  0
  186.5430  178.6270  140.1340 C   0  0  1  0  0  3  0  0  0  0  0  0
  188.5690  179.4610  141.4600 C   0  0  0  0  0  1  0  0  0  0  0  0
  186.1870  177.9770  138.8050 C   0  0  0  0  0  1  0  0  0  0  0  0
  186.8130  177.5310  141.1630 C   0  0  1  0  0  3  0  0  0  0  0  0
  187.9740  178.3530  140.5920 C   0  0  2  0  0  0  0  0  0  0  0  0
  186.8130  177.9350  144.9380 C   0  0  0  0  0  0  0  0  0  0  0  0
  187.6360  177.6210  146.0220 C   0  0  0  0  0  3  0  0  0  0  0  0
  187.2400  177.9510  147.3270 C   0  0  0  0  0  0  0  0  0  0  0  0
  186.0170  178.5970  147.5380 C   0  0  0  0  0  3  0  0  0  0  0  0
  185.1490  178.5580  142.7770 C   0  0  0  0  0  3  0  0  0  0  0  0
  185.1870  178.9120  146.4580 C   0  0  0  0  0  3  0  0  0  0  0  0
  185.5780  178.5840  145.1580 C   0  0  0  0  0  0  0  0  0  0  0  0
  184.7490  178.8880  144.0750 C   0  0  0  0  0  3  0  0  0  0  0  0
  186.3860  177.9350  142.5500 C   0  0  0  0  0  0  0  0  0  0  0  0
  187.2070  177.6110  143.6370 C   0  0  0  0  0  3  0  0  0  0  0  0
  188.0840  177.6370  148.4850 C   0  0  0  0  0  3  0  0  0  0  0  0
  189.1520  178.3150  148.7460 N   0  0  0  0  0  2  0  0  0  0  0  0
  1  2  2  0  0  0  0
  2 13  1  0  0  0  0
  3  1  1  0  0  0  0
  4  8  1  0  0  0  0
  5  8  2  0  0  0  0
  5  3  1  0  0  0  0
  6  4  2  0  0  0  0
  7  9  1  0  0  0  0
  7  5  1  0  0  0  0
  9 11  2  0  0  0  0
 10  6  1  0  0  0  0
 10  7  2  0  0  0  0
 11  3  1  0  0  0  0
 12 10  1  0  0  0  0
 13 18  2  0  0  0  0
 13 17  1  0  0  0  0
 14 16  2  0  0  0  0
 15 16  1  0  0  0  0
 15 19  1  0  0  0  0
 17 15  2  0  0  0  0
 18 14  1  0  0  0  0
 19 21  1  0  0  0  0
 21 20  3  0  0  0  0
 22  1  1  0  0  0  0
 23 22  1  0  0  0  0
 23 28  1  0  0  0  0
 24 26  1  6  0  0  0
 24 28  1  0  0  0  0
 24 27  1  0  0  0  0
 27 37  1  1  0  0  0
 28 27  1  0  0  0  0
 28 25  1  1  0  0  0
 29 35  1  0  0  0  0
 29 30  2  0  0  0  0
 30 31  1  0  0  0  0
 31 32  2  0  0  0  0
 31 39  1  0  0  0  0
 33 36  2  0  0  0  0
 34 32  1  0  0  0  0
 35 34  2  0  0  0  0
 36 35  1  0  0  0  0
 37 33  1  0  0  0  0
 37 38  2  0  0  0  0
 38 29  1  0  0  0  0
 39 40  2  0  0  0  0
M  END
>  <MODEL>
9

>  <REMARK>
 VINA RESULT:      -8.6      3.794      7.637
  Name = 
  9 active torsions:
  status: ('A' for Active; 'I' for Inactive)
    1  A    between atoms: C_3  and  N_7
    2  A    between atoms: C_3  and  N_8
    3  A    between atoms: C_4  and  C_16
    4  A    between atoms: C_6  and  C_31
    5  A    between atoms: N_8  and  C_18
    6  A    between atoms: C_18  and  C_30
    7  A    between atoms: C_20  and  C_26
    8  A    between atoms: C_23  and  C_38
    9  A    between atoms: C_26  and  C_33
                            x       y       z     vdW  Elec       q    Type
                         _______ _______ _______ _____ _____    ______ ____

>  <TORSDO>
F 9

$$$$
