=
 OpenBabel11032419383D

 49 53  0  0  1  0  0  0  0  0999 V2000
  190.4190  177.6510  146.1040 N   0  0  0  0  0  0  0  0  0  0  0  0
  189.3440  177.7180  146.8800 C   0  0  0  0  0  0  0  0  0  0  0  0
  188.0040  177.8560  146.3340 N   0  0  0  0  0  0  0  0  0  0  0  0
  190.0040  176.9770  143.5760 C   0  0  2  0  0  0  0  0  0  0  0  0
  189.0350  177.8020  144.3010 N   0  0  0  0  0  0  0  0  0  0  0  0
  187.8510  177.8860  145.0480 C   0  0  0  0  0  0  0  0  0  0  0  0
  189.5000  177.5830  148.2840 N   0  0  0  0  0  1  0  0  0  0  0  0
  191.4280  176.2150  144.3340 S   0  0  0  0  0  0  0  0  0  0  0  0
  190.4990  177.7770  144.6230 C   0  0  2  0  0  0  0  0  0  0  0  0
  191.4900  176.9650  141.7090 O   0  0  0  0  0  0  0  0  0  0  0  0
  190.3810  177.6300  142.2560 C   0  0  1  0  0  3  0  0  0  0  0  0
  190.2430  176.6670  141.1320 C   0  0  1  0  0  3  0  0  0  0  0  0
  188.6430  177.9420  139.7500 C   0  0  0  0  0  1  0  0  0  0  0  0
  190.0770  177.4440  139.8290 C   0  0  2  0  0  3  0  0  0  0  0  0
  190.3810  176.6260  138.5680 C   0  0  2  0  0  3  0  0  0  0  0  0
  191.8290  176.2810  138.4060 C   0  0  0  0  0  0  0  0  0  0  0  0
  194.5180  175.4510  137.6990 O   0  0  0  0  0  0  0  0  0  0  0  0
  192.6920  177.1030  138.7900 O   0  0  0  0  0  0  0  0  0  0  0  0
  192.2140  175.0180  137.8630 N   0  0  0  0  0  2  0  0  0  0  0  0
  193.5570  174.6420  137.5280 C   0  0  0  0  0  0  0  0  0  0  0  0
  193.8280  173.2880  136.9740 C   0  0  0  0  0  1  0  0  0  0  0  0
  189.8950  177.3970  137.3450 C   0  0  0  0  0  2  0  0  0  0  0  0
  189.2560  176.4520  136.3320 C   0  0  0  0  0  2  0  0  0  0  0  0
  187.8110  176.4810  136.4960 N   0  0  0  0  0  2  0  0  0  0  0  0
  187.0870  174.1890  136.8240 C   0  0  0  0  0  2  0  0  0  0  0  0
  187.0980  175.4590  137.2140 C   0  0  0  0  0  3  0  0  0  0  0  0
  186.5110  177.9840  144.4020 C   0  0  0  0  0  2  0  0  0  0  0  0
  184.2790  178.6360  145.1070 C   0  0  0  0  0  0  0  0  0  0  0  0
  185.4680  178.2080  145.4370 C   0  0  0  0  0  3  0  0  0  0  0  0
  183.0780  179.0660  144.8150 C   0  0  0  0  0  3  0  0  0  0  0  0
  182.6480  179.3480  143.4120 C   0  0  1  0  0  3  0  0  0  0  0  0
  183.4720  178.6100  142.4400 C   0  0  0  0  0  0  0  0  0  0  0  0
  184.1240  177.9950  141.6240 C   0  0  0  0  0  3  0  0  0  0  0  0
  180.6030  178.4070  144.1530 O   0  0  0  0  0  0  0  0  0  0  0  0
  181.1980  178.9880  143.2590 C   0  0  0  0  0  0  0  0  0  0  0  0
  180.4580  179.4180  142.0350 C   0  0  0  0  0  2  0  0  0  0  0  0
  179.3840  177.3410  141.5730 O   0  0  0  0  0  0  0  0  0  0  0  0
  180.1500  178.2440  141.1540 C   0  0  0  0  0  0  0  0  0  0  0  0
  180.7280  178.1220  139.8490 N   0  0  0  0  0  2  0  0  0  0  0  0
  181.5110  179.1870  139.2180 C   0  0  1  0  0  3  0  0  0  0  0  0
  182.6530  178.6920  138.5440 O   0  0  0  0  0  0  0  0  0  0  0  0
  182.5330  177.3000  138.3600 C   0  0  0  0  0  2  0  0  0  0  0  0
  183.3770  177.3670  136.1190 O   0  0  0  0  0  1  0  0  0  0  0  0
  183.5830  176.8030  137.3800 C   0  0  0  0  0  2  0  0  0  0  0  0
  180.6510  180.1480  138.3810 C   0  0  0  0  0  2  0  0  0  0  0  0
  181.2040  181.4940  138.3540 N   0  0  0  0  0  2  0  0  0  0  0  0
  180.8990  183.6550  137.3490 C   0  0  0  0  0  2  0  0  0  0  0  0
  180.2800  182.3340  137.6160 C   0  0  1  0  0  3  0  0  0  0  0  0
  180.8430  182.6520  136.3680 O   0  0  0  0  0  0  0  0  0  0  0  0
  1  2  2  0  0  0  0
  2  7  1  0  0  0  0
  3  2  1  0  0  0  0
  4  5  1  0  0  0  0
  4  8  1  1  0  0  0
  4  9  1  0  0  0  0
  5  9  1  0  0  0  0
  5  6  1  0  0  0  0
  6  3  2  0  0  0  0
  9  8  1  1  0  0  0
  9  1  1  0  0  0  0
 11 10  1  1  0  0  0
 11  4  1  0  0  0  0
 12 14  1  6  0  0  0
 12 10  1  0  0  0  0
 12 11  1  0  0  0  0
 14 13  1  6  0  0  0
 15 22  1  6  0  0  0
 15 14  1  0  0  0  0
 16 15  1  0  0  0  0
 16 18  2  0  0  0  0
 19 16  1  0  0  0  0
 20 17  2  0  0  0  0
 20 19  1  0  0  0  0
 21 20  1  0  0  0  0
 23 24  1  0  0  0  0
 23 22  1  0  0  0  0
 24 26  1  0  0  0  0
 25 26  2  0  0  0  0
 27  6  1  0  0  0  0
 27 29  1  0  0  0  0
 28 29  2  0  0  0  0
 30 28  2  0  0  0  0
 31 32  1  6  0  0  0
 31 30  1  0  0  0  0
 33 32  3  0  0  0  0
 35 31  1  0  0  0  0
 35 34  2  0  0  0  0
 36 35  1  0  0  0  0
 38 37  2  0  0  0  0
 38 36  1  0  0  0  0
 39 38  1  0  0  0  0
 40 45  1  6  0  0  0
 40 39  1  0  0  0  0
 41 40  1  0  0  0  0
 42 41  1  0  0  0  0
 43 44  1  0  0  0  0
 44 42  1  0  0  0  0
 46 45  1  0  0  0  0
 47 48  1  0  0  0  0
 48 46  1  1  0  0  0
 49 47  1  0  0  0  0
 49 48  1  0  0  0  0
M  END
>  <MODEL>
1

>  <REMARK>
 VINA RESULT:      -6.8      0.000      0.000
  Name = 
  22 active torsions:
  status: ('A' for Active; 'I' for Inactive)
    1  A    between atoms: C_3  and  C_36
    2  A    between atoms: C_5  and  O_37
    3  A    between atoms: C_5  and  N_39
    4  A    between atoms: C_5  and  C_46
    5  A    between atoms: C_7  and  C_8
    6  A    between atoms: C_7  and  O_37
    7  A    between atoms: C_10  and  C_41
    8  A    between atoms: N_12  and  C_18
    9  A    between atoms: N_12  and  C_20
   10  A    between atoms: C_15  and  C_24
   11  A    between atoms: C_17  and  C_23
   12  A    between atoms: C_18  and  C_44
   13  A    between atoms: C_22  and  C_26
   14  A    between atoms: C_23  and  C_28
   15  A    between atoms: C_23  and  C_43
   16  A    between atoms: C_26  and  C_43
   17  A    between atoms: C_27  and  C_47
   18  A    between atoms: N_29  and  C_42
   19  A    between atoms: N_29  and  C_46
   20  A    between atoms: C_31  and  C_36
   21  A    between atoms: C_41  and  C_44
   22  A    between atoms: C_41  and  C_47
                            x       y       z     vdW  Elec       q    Type
                         _______ _______ _______ _____ _____    ______ ____

>  <TORSDO>
F 22

$$$$
=
 OpenBabel11032419383D

 49 53  0  0  1  0  0  0  0  0999 V2000
  180.5970  178.5190  142.0020 N   0  0  0  0  0  0  0  0  0  0  0  0
  180.8970  178.7130  143.2800 C   0  0  0  0  0  0  0  0  0  0  0  0
  182.2680  178.6950  143.7630 N   0  0  0  0  0  0  0  0  0  0  0  0
  182.5590  178.8960  140.2630 C   0  0  2  0  0  0  0  0  0  0  0  0
  182.8270  178.3240  141.5840 N   0  0  0  0  0  0  0  0  0  0  0  0
  183.2290  178.5130  142.9140 C   0  0  0  0  0  0  0  0  0  0  0  0
  179.8540  179.0140  144.1940 N   0  0  0  0  0  1  0  0  0  0  0  0
  180.9730  179.5420  139.7600 S   0  0  0  0  0  0  0  0  0  0  0  0
  181.5120  178.1830  140.8780 C   0  0  2  0  0  0  0  0  0  0  0  0
  183.0380  178.6800  137.9350 O   0  0  0  0  0  0  0  0  0  0  0  0
  183.1550  178.0230  139.1700 C   0  0  1  0  0  3  0  0  0  0  0  0
  184.3120  178.6980  138.5270 C   0  0  1  0  0  3  0  0  0  0  0  0
  186.5970  178.2260  137.7190 C   0  0  0  0  0  1  0  0  0  0  0  0
  185.2010  177.6440  137.8730 C   0  0  2  0  0  3  0  0  0  0  0  0
  184.7110  177.1770  136.4960 C   0  0  2  0  0  3  0  0  0  0  0  0
  184.1830  175.7770  136.4870 C   0  0  0  0  0  0  0  0  0  0  0  0
  183.1200  173.1160  136.0310 O   0  0  0  0  0  0  0  0  0  0  0  0
  184.7280  174.9200  137.2190 O   0  0  0  0  0  0  0  0  0  0  0  0
  183.0480  175.4390  135.6870 N   0  0  0  0  0  2  0  0  0  0  0  0
  182.5510  174.1080  135.4870 C   0  0  0  0  0  0  0  0  0  0  0  0
  181.3510  173.8910  134.6340 C   0  0  0  0  0  1  0  0  0  0  0  0
  185.8530  177.3050  135.4930 C   0  0  0  0  0  2  0  0  0  0  0  0
  186.3430  175.9270  135.0570 C   0  0  0  0  0  2  0  0  0  0  0  0
  187.7960  175.9290  135.0130 N   0  0  0  0  0  2  0  0  0  0  0  0
  188.6120  175.1810  137.1720 C   0  0  0  0  0  2  0  0  0  0  0  0
  188.5920  175.0690  135.8490 C   0  0  0  0  0  3  0  0  0  0  0  0
  184.6660  178.5200  143.3150 C   0  0  0  0  0  2  0  0  0  0  0  0
  186.5200  179.0060  141.8230 C   0  0  0  0  0  0  0  0  0  0  0  0
  185.4340  179.4210  142.4180 C   0  0  0  0  0  3  0  0  0  0  0  0
  187.6130  178.6270  141.2110 C   0  0  0  0  0  3  0  0  0  0  0  0
  188.1670  177.2460  141.3480 C   0  0  1  0  0  3  0  0  0  0  0  0
  189.4760  177.1240  140.6840 C   0  0  0  0  0  0  0  0  0  0  0  0
  190.5670  177.0230  140.1650 C   0  0  0  0  0  3  0  0  0  0  0  0
  188.3700  175.7410  143.1690 O   0  0  0  0  0  0  0  0  0  0  0  0
  188.2800  176.9030  142.8070 C   0  0  0  0  0  0  0  0  0  0  0  0
  188.3610  178.0020  143.8160 C   0  0  0  0  0  2  0  0  0  0  0  0
  190.5410  178.8810  143.4280 O   0  0  0  0  0  0  0  0  0  0  0  0
  189.7820  178.2620  144.2140 C   0  0  0  0  0  0  0  0  0  0  0  0
  190.2990  177.8000  145.4670 N   0  0  0  0  0  2  0  0  0  0  0  0
  189.4600  177.2020  146.5080 C   0  0  1  0  0  3  0  0  0  0  0  0
  190.1180  176.1540  147.1980 O   0  0  0  0  0  0  0  0  0  0  0  0
  191.5070  176.2380  146.9810 C   0  0  0  0  0  2  0  0  0  0  0  0
  193.6390  175.7550  147.9590 O   0  0  0  0  0  1  0  0  0  0  0  0
  192.2620  175.6010  148.1360 C   0  0  0  0  0  2  0  0  0  0  0  0
  188.8050  178.2470  147.4250 C   0  0  0  0  0  2  0  0  0  0  0  0
  187.4130  177.9280  147.7100 N   0  0  0  0  0  2  0  0  0  0  0  0
  185.1660  178.2580  146.9240 C   0  0  0  0  0  2  0  0  0  0  0  0
  186.6010  178.5420  146.6760 C   0  0  1  0  0  3  0  0  0  0  0  0
  185.7480  179.4910  147.2640 O   0  0  0  0  0  0  0  0  0  0  0  0
  1  2  2  0  0  0  0
  2  3  1  0  0  0  0
  2  7  1  0  0  0  0
  4  8  1  6  0  0  0
  4  9  1  0  0  0  0
  4  5  1  0  0  0  0
  5  6  1  0  0  0  0
  6 27  1  0  0  0  0
  6  3  2  0  0  0  0
  9  8  1  1  0  0  0
  9  5  1  0  0  0  0
  9  1  1  0  0  0  0
 10 12  1  0  0  0  0
 11 10  1  6  0  0  0
 11  4  1  0  0  0  0
 12 14  1  6  0  0  0
 12 11  1  0  0  0  0
 14 13  1  6  0  0  0
 15 22  1  6  0  0  0
 15 14  1  0  0  0  0
 16 15  1  0  0  0  0
 16 18  2  0  0  0  0
 19 16  1  0  0  0  0
 20 19  1  0  0  0  0
 20 17  2  0  0  0  0
 21 20  1  0  0  0  0
 23 22  1  0  0  0  0
 24 23  1  0  0  0  0
 24 26  1  0  0  0  0
 26 25  2  0  0  0  0
 28 29  2  0  0  0  0
 29 27  1  0  0  0  0
 30 31  1  0  0  0  0
 30 28  2  0  0  0  0
 31 32  1  1  0  0  0
 31 35  1  0  0  0  0
 33 32  3  0  0  0  0
 35 34  2  0  0  0  0
 35 36  1  0  0  0  0
 36 38  1  0  0  0  0
 37 38  2  0  0  0  0
 38 39  1  0  0  0  0
 39 40  1  0  0  0  0
 40 41  1  0  0  0  0
 40 45  1  1  0  0  0
 42 41  1  0  0  0  0
 42 44  1  0  0  0  0
 43 44  1  0  0  0  0
 45 46  1  0  0  0  0
 47 49  1  0  0  0  0
 48 47  1  0  0  0  0
 48 49  1  0  0  0  0
 48 46  1  1  0  0  0
M  END
>  <MODEL>
2

>  <REMARK>
 VINA RESULT:      -6.4      3.453      9.031
  Name = 
  22 active torsions:
  status: ('A' for Active; 'I' for Inactive)
    1  A    between atoms: C_3  and  C_36
    2  A    between atoms: C_5  and  O_37
    3  A    between atoms: C_5  and  N_39
    4  A    between atoms: C_5  and  C_46
    5  A    between atoms: C_7  and  C_8
    6  A    between atoms: C_7  and  O_37
    7  A    between atoms: C_10  and  C_41
    8  A    between atoms: N_12  and  C_18
    9  A    between atoms: N_12  and  C_20
   10  A    between atoms: C_15  and  C_24
   11  A    between atoms: C_17  and  C_23
   12  A    between atoms: C_18  and  C_44
   13  A    between atoms: C_22  and  C_26
   14  A    between atoms: C_23  and  C_28
   15  A    between atoms: C_23  and  C_43
   16  A    between atoms: C_26  and  C_43
   17  A    between atoms: C_27  and  C_47
   18  A    between atoms: N_29  and  C_42
   19  A    between atoms: N_29  and  C_46
   20  A    between atoms: C_31  and  C_36
   21  A    between atoms: C_41  and  C_44
   22  A    between atoms: C_41  and  C_47
                            x       y       z     vdW  Elec       q    Type
                         _______ _______ _______ _____ _____    ______ ____

>  <TORSDO>
F 22

$$$$
=
 OpenBabel11032419383D

 49 53  0  0  1  0  0  0  0  0999 V2000
  190.0600  177.7130  146.0500 N   0  0  0  0  0  0  0  0  0  0  0  0
  188.9290  177.7170  146.7450 C   0  0  0  0  0  0  0  0  0  0  0  0
  187.6260  177.6960  146.1000 N   0  0  0  0  0  0  0  0  0  0  0  0
  189.8990  176.8690  143.5450 C   0  0  2  0  0  0  0  0  0  0  0  0
  188.8080  177.6340  144.1490 N   0  0  0  0  0  0  0  0  0  0  0  0
  187.5680  177.6430  144.8060 C   0  0  0  0  0  0  0  0  0  0  0  0
  188.9910  177.6730  148.1610 N   0  0  0  0  0  1  0  0  0  0  0  0
  191.3270  176.2880  144.4440 S   0  0  0  0  0  0  0  0  0  0  0  0
  190.2390  177.7670  144.5740 C   0  0  2  0  0  0  0  0  0  0  0  0
  191.1300  176.5780  141.5200 O   0  0  0  0  0  0  0  0  0  0  0  0
  190.3130  177.4830  142.2170 C   0  0  1  0  0  3  0  0  0  0  0  0
  189.7990  176.6770  141.0790 C   0  0  1  0  0  3  0  0  0  0  0  0
  188.5870  178.5460  140.0130 C   0  0  0  0  0  1  0  0  0  0  0  0
  189.7310  177.5600  139.8360 C   0  0  2  0  0  3  0  0  0  0  0  0
  189.5130  176.7870  138.5290 C   0  0  2  0  0  3  0  0  0  0  0  0
  190.7560  176.6170  137.7140 C   0  0  0  0  0  0  0  0  0  0  0  0
  193.2160  175.9050  136.3490 O   0  0  0  0  0  0  0  0  0  0  0  0
  190.7340  176.9390  136.5030 O   0  0  0  0  0  0  0  0  0  0  0  0
  191.9570  176.1360  138.3190 N   0  0  0  0  0  2  0  0  0  0  0  0
  193.1560  175.7960  137.6100 C   0  0  0  0  0  0  0  0  0  0  0  0
  194.3450  175.3120  138.3620 C   0  0  0  0  0  1  0  0  0  0  0  0
  188.4460  177.4980  137.7030 C   0  0  0  0  0  2  0  0  0  0  0  0
  187.2360  176.5930  137.4910 C   0  0  0  0  0  2  0  0  0  0  0  0
  187.2110  176.1450  136.1080 N   0  0  0  0  0  2  0  0  0  0  0  0
  188.2220  173.9710  136.4790 C   0  0  0  0  0  2  0  0  0  0  0  0
  187.9260  174.9780  135.6650 C   0  0  0  0  0  3  0  0  0  0  0  0
  186.2760  177.5780  144.0640 C   0  0  0  0  0  2  0  0  0  0  0  0
  185.3720  178.4640  141.9910 C   0  0  0  0  0  0  0  0  0  0  0  0
  186.4130  178.2660  142.7540 C   0  0  0  0  0  3  0  0  0  0  0  0
  184.3530  178.6790  141.1980 C   0  0  0  0  0  3  0  0  0  0  0  0
  182.9620  178.2670  141.5550 C   0  0  1  0  0  3  0  0  0  0  0  0
  182.6080  178.6940  142.9190 C   0  0  0  0  0  0  0  0  0  0  0  0
  182.2870  179.0420  144.0350 C   0  0  0  0  0  3  0  0  0  0  0  0
  180.8800  179.1850  140.8890 O   0  0  0  0  0  0  0  0  0  0  0  0
  182.0040  178.8460  140.5540 C   0  0  0  0  0  0  0  0  0  0  0  0
  182.4610  179.0840  139.1520 C   0  0  0  0  0  2  0  0  0  0  0  0
  180.6970  179.8650  137.7520 O   0  0  0  0  0  0  0  0  0  0  0  0
  181.3400  178.8740  138.1780 C   0  0  0  0  0  0  0  0  0  0  0  0
  180.9740  177.5610  137.7380 N   0  0  0  0  0  2  0  0  0  0  0  0
  181.7520  176.3630  138.0610 C   0  0  1  0  0  3  0  0  0  0  0  0
  181.0660  175.4940  138.9440 O   0  0  0  0  0  0  0  0  0  0  0  0
  179.6780  175.5840  138.7200 C   0  0  0  0  0  2  0  0  0  0  0  0
  179.9090  173.2010  138.7550 O   0  0  0  0  0  1  0  0  0  0  0  0
  179.1270  174.2450  138.2570 C   0  0  0  0  0  2  0  0  0  0  0  0
  182.3310  175.6710  136.8180 C   0  0  0  0  0  2  0  0  0  0  0  0
  182.8140  174.3290  137.1130 N   0  0  0  0  0  2  0  0  0  0  0  0
  184.8200  173.1300  137.6720 C   0  0  0  0  0  2  0  0  0  0  0  0
  184.2630  174.3640  137.0650 C   0  0  1  0  0  3  0  0  0  0  0  0
  184.7240  173.2920  136.2810 O   0  0  0  0  0  0  0  0  0  0  0  0
  1  2  2  0  0  0  0
  2  7  1  0  0  0  0
  3  2  1  0  0  0  0
  4  5  1  0  0  0  0
  4  8  1  1  0  0  0
  4  9  1  0  0  0  0
  5  9  1  0  0  0  0
  5  6  1  0  0  0  0
  6  3  2  0  0  0  0
  9  8  1  1  0  0  0
  9  1  1  0  0  0  0
 11 10  1  1  0  0  0
 11  4  1  0  0  0  0
 12 14  1  6  0  0  0
 12 10  1  0  0  0  0
 12 11  1  0  0  0  0
 14 13  1  1  0  0  0
 15 22  1  6  0  0  0
 15 14  1  0  0  0  0
 16 19  1  0  0  0  0
 16 15  1  0  0  0  0
 17 20  2  0  0  0  0
 18 16  2  0  0  0  0
 20 19  1  0  0  0  0
 20 21  1  0  0  0  0
 23 22  1  0  0  0  0
 24 23  1  0  0  0  0
 26 24  1  0  0  0  0
 26 25  2  0  0  0  0
 27  6  1  0  0  0  0
 28 29  2  0  0  0  0
 29 27  1  0  0  0  0
 30 28  2  0  0  0  0
 31 30  1  6  0  0  0
 31 32  1  0  0  0  0
 32 33  3  0  0  0  0
 35 34  2  0  0  0  0
 35 31  1  0  0  0  0
 36 35  1  0  0  0  0
 37 38  2  0  0  0  0
 38 36  1  0  0  0  0
 39 40  1  0  0  0  0
 39 38  1  0  0  0  0
 40 45  1  6  0  0  0
 40 41  1  0  0  0  0
 42 41  1  0  0  0  0
 44 42  1  0  0  0  0
 44 43  1  0  0  0  0
 45 46  1  0  0  0  0
 48 46  1  1  0  0  0
 48 47  1  0  0  0  0
 49 48  1  0  0  0  0
 49 47  1  0  0  0  0
M  END
>  <MODEL>
3

>  <REMARK>
 VINA RESULT:      -6.3      1.982      3.633
  Name = 
  22 active torsions:
  status: ('A' for Active; 'I' for Inactive)
    1  A    between atoms: C_3  and  C_36
    2  A    between atoms: C_5  and  O_37
    3  A    between atoms: C_5  and  N_39
    4  A    between atoms: C_5  and  C_46
    5  A    between atoms: C_7  and  C_8
    6  A    between atoms: C_7  and  O_37
    7  A    between atoms: C_10  and  C_41
    8  A    between atoms: N_12  and  C_18
    9  A    between atoms: N_12  and  C_20
   10  A    between atoms: C_15  and  C_24
   11  A    between atoms: C_17  and  C_23
   12  A    between atoms: C_18  and  C_44
   13  A    between atoms: C_22  and  C_26
   14  A    between atoms: C_23  and  C_28
   15  A    between atoms: C_23  and  C_43
   16  A    between atoms: C_26  and  C_43
   17  A    between atoms: C_27  and  C_47
   18  A    between atoms: N_29  and  C_42
   19  A    between atoms: N_29  and  C_46
   20  A    between atoms: C_31  and  C_36
   21  A    between atoms: C_41  and  C_44
   22  A    between atoms: C_41  and  C_47
                            x       y       z     vdW  Elec       q    Type
                         _______ _______ _______ _____ _____    ______ ____

>  <TORSDO>
F 22

$$$$
=
 OpenBabel11032419383D

 49 53  0  0  1  0  0  0  0  0999 V2000
  191.1230  177.4500  145.7380 N   0  0  0  0  0  0  0  0  0  0  0  0
  190.2580  177.2130  146.7160 C   0  0  0  0  0  0  0  0  0  0  0  0
  188.8260  177.1350  146.4780 N   0  0  0  0  0  0  0  0  0  0  0  0
  190.2720  176.9830  143.2730 C   0  0  2  0  0  0  0  0  0  0  0  0
  189.3640  177.5110  144.2930 N   0  0  0  0  0  0  0  0  0  0  0  0
  188.3830  177.2720  145.2680 C   0  0  0  0  0  0  0  0  0  0  0  0
  190.7480  176.9620  148.0230 N   0  0  0  0  0  1  0  0  0  0  0  0
  191.9420  176.4480  143.6070 S   0  0  0  0  0  0  0  0  0  0  0  0
  190.8440  177.7480  144.3070 C   0  0  2  0  0  0  0  0  0  0  0  0
  191.1880  177.3820  141.1060 O   0  0  0  0  0  0  0  0  0  0  0  0
  190.2210  177.8370  142.0170 C   0  0  1  0  0  3  0  0  0  0  0  0
  189.8600  177.0140  140.8330 C   0  0  1  0  0  3  0  0  0  0  0  0
  187.7940  178.0870  140.0110 C   0  0  0  0  0  1  0  0  0  0  0  0
  189.2830  177.9240  139.7520 C   0  0  2  0  0  3  0  0  0  0  0  0
  189.4780  177.4020  138.3230 C   0  0  2  0  0  3  0  0  0  0  0  0
  188.2700  177.5610  137.4530 C   0  0  0  0  0  0  0  0  0  0  0  0
  185.7000  177.7300  136.1170 O   0  0  0  0  0  0  0  0  0  0  0  0
  188.1960  178.5560  136.6970 O   0  0  0  0  0  0  0  0  0  0  0  0
  187.2430  176.5690  137.4560 N   0  0  0  0  0  2  0  0  0  0  0  0
  185.9830  176.6880  136.7800 C   0  0  0  0  0  0  0  0  0  0  0  0
  184.9980  175.5750  136.8550 C   0  0  0  0  0  1  0  0  0  0  0  0
  189.8820  175.9330  138.3820 C   0  0  0  0  0  2  0  0  0  0  0  0
  191.1920  175.7050  137.6330 C   0  0  0  0  0  2  0  0  0  0  0  0
  191.3230  174.2910  137.3190 N   0  0  0  0  0  2  0  0  0  0  0  0
  189.7440  173.6240  135.6020 C   0  0  0  0  0  2  0  0  0  0  0  0
  190.2190  173.5050  136.8370 C   0  0  0  0  0  3  0  0  0  0  0  0
  186.9350  177.1660  144.9270 C   0  0  0  0  0  2  0  0  0  0  0  0
  185.0340  178.6600  145.1580 C   0  0  0  0  0  0  0  0  0  0  0  0
  186.1730  178.2290  145.6310 C   0  0  0  0  0  3  0  0  0  0  0  0
  183.8910  179.1180  144.7150 C   0  0  0  0  0  3  0  0  0  0  0  0
  183.2470  178.5940  143.4720 C   0  0  1  0  0  3  0  0  0  0  0  0
  181.9060  179.1690  143.2790 C   0  0  0  0  0  0  0  0  0  0  0  0
  180.7990  179.6480  143.1510 C   0  0  0  0  0  3  0  0  0  0  0  0
  185.0360  179.7100  142.3900 O   0  0  0  0  0  0  0  0  0  0  0  0
  184.1300  178.8980  142.2960 C   0  0  0  0  0  0  0  0  0  0  0  0
  183.9450  178.1400  141.0220 C   0  0  0  0  0  2  0  0  0  0  0  0
  184.7900  179.6540  139.3870 O   0  0  0  0  0  0  0  0  0  0  0  0
  183.7820  179.0730  139.8600 C   0  0  0  0  0  0  0  0  0  0  0  0
  182.4940  179.3310  139.2890 N   0  0  0  0  0  2  0  0  0  0  0  0
  181.2860  178.5960  139.6720 C   0  0  1  0  0  3  0  0  0  0  0  0
  180.1010  179.3190  139.3940 O   0  0  0  0  0  0  0  0  0  0  0  0
  180.3990  180.4300  138.5820 C   0  0  0  0  0  2  0  0  0  0  0  0
  179.5110  181.4680  140.5490 O   0  0  0  0  0  1  0  0  0  0  0  0
  179.8920  181.7090  139.2270 C   0  0  0  0  0  2  0  0  0  0  0  0
  181.2780  177.1470  139.1580 C   0  0  0  0  0  2  0  0  0  0  0  0
  181.3210  177.0830  137.7040 N   0  0  0  0  0  2  0  0  0  0  0  0
  180.5610  175.3970  136.1700 C   0  0  0  0  0  2  0  0  0  0  0  0
  180.1700  176.3190  137.2640 C   0  0  1  0  0  3  0  0  0  0  0  0
  180.4080  174.9530  137.4930 O   0  0  0  0  0  0  0  0  0  0  0  0
  1  2  2  0  0  0  0
  2  7  1  0  0  0  0
  3  2  1  0  0  0  0
  4  8  1  6  0  0  0
  4  5  1  0  0  0  0
  4  9  1  0  0  0  0
  5  9  1  0  0  0  0
  5  6  1  0  0  0  0
  6  3  2  0  0  0  0
  9  8  1  1  0  0  0
  9  1  1  0  0  0  0
 11 10  1  6  0  0  0
 11  4  1  0  0  0  0
 12 14  1  6  0  0  0
 12 10  1  0  0  0  0
 12 11  1  0  0  0  0
 14 13  1  1  0  0  0
 15 22  1  1  0  0  0
 15 14  1  0  0  0  0
 16 19  1  0  0  0  0
 16 15  1  0  0  0  0
 17 20  2  0  0  0  0
 18 16  2  0  0  0  0
 20 21  1  0  0  0  0
 20 19  1  0  0  0  0
 23 22  1  0  0  0  0
 24 23  1  0  0  0  0
 25 26  2  0  0  0  0
 26 24  1  0  0  0  0
 27  6  1  0  0  0  0
 27 29  1  0  0  0  0
 28 29  2  0  0  0  0
 30 28  2  0  0  0  0
 31 32  1  6  0  0  0
 31 30  1  0  0  0  0
 33 32  3  0  0  0  0
 35 34  2  0  0  0  0
 35 31  1  0  0  0  0
 36 35  1  0  0  0  0
 37 38  2  0  0  0  0
 38 36  1  0  0  0  0
 39 40  1  0  0  0  0
 39 38  1  0  0  0  0
 40 45  1  6  0  0  0
 41 40  1  0  0  0  0
 42 44  1  0  0  0  0
 42 41  1  0  0  0  0
 44 43  1  0  0  0  0
 46 45  1  0  0  0  0
 47 48  1  0  0  0  0
 47 49  1  0  0  0  0
 48 49  1  0  0  0  0
 48 46  1  1  0  0  0
M  END
>  <MODEL>
4

>  <REMARK>
 VINA RESULT:      -6.3      1.976      4.053
  Name = 
  22 active torsions:
  status: ('A' for Active; 'I' for Inactive)
    1  A    between atoms: C_3  and  C_36
    2  A    between atoms: C_5  and  O_37
    3  A    between atoms: C_5  and  N_39
    4  A    between atoms: C_5  and  C_46
    5  A    between atoms: C_7  and  C_8
    6  A    between atoms: C_7  and  O_37
    7  A    between atoms: C_10  and  C_41
    8  A    between atoms: N_12  and  C_18
    9  A    between atoms: N_12  and  C_20
   10  A    between atoms: C_15  and  C_24
   11  A    between atoms: C_17  and  C_23
   12  A    between atoms: C_18  and  C_44
   13  A    between atoms: C_22  and  C_26
   14  A    between atoms: C_23  and  C_28
   15  A    between atoms: C_23  and  C_43
   16  A    between atoms: C_26  and  C_43
   17  A    between atoms: C_27  and  C_47
   18  A    between atoms: N_29  and  C_42
   19  A    between atoms: N_29  and  C_46
   20  A    between atoms: C_31  and  C_36
   21  A    between atoms: C_41  and  C_44
   22  A    between atoms: C_41  and  C_47
                            x       y       z     vdW  Elec       q    Type
                         _______ _______ _______ _____ _____    ______ ____

>  <TORSDO>
F 22

$$$$
=
 OpenBabel11032419383D

 49 53  0  0  1  0  0  0  0  0999 V2000
  186.9480  177.5160  146.1530 N   0  0  0  0  0  0  0  0  0  0  0  0
  188.2730  177.5340  146.2330 C   0  0  0  0  0  0  0  0  0  0  0  0
  189.1160  177.6840  145.0580 N   0  0  0  0  0  0  0  0  0  0  0  0
  185.8880  178.5470  143.9560 C   0  0  2  0  0  0  0  0  0  0  0  0
  187.1520  177.8110  143.9040 N   0  0  0  0  0  0  0  0  0  0  0  0
  188.5550  177.8340  143.9000 C   0  0  0  0  0  0  0  0  0  0  0  0
  188.8860  177.4720  147.5100 N   0  0  0  0  0  1  0  0  0  0  0  0
  185.0410  178.9690  145.4700 S   0  0  0  0  0  0  0  0  0  0  0  0
  186.0940  177.5570  144.9350 C   0  0  2  0  0  0  0  0  0  0  0  0
  183.6200  178.4780  143.2150 O   0  0  0  0  0  0  0  0  0  0  0  0
  184.9100  178.0050  142.9260 C   0  0  1  0  0  3  0  0  0  0  0  0
  184.2880  179.1120  142.1540 C   0  0  1  0  0  3  0  0  0  0  0  0
  184.6940  179.0700  139.7190 C   0  0  0  0  0  1  0  0  0  0  0  0
  183.7790  178.5650  140.8230 C   0  0  2  0  0  3  0  0  0  0  0  0
  182.3380  178.9700  140.4880 C   0  0  2  0  0  3  0  0  0  0  0  0
  181.3630  177.8370  140.5500 C   0  0  0  0  0  0  0  0  0  0  0  0
  179.8140  175.3830  140.5620 O   0  0  0  0  0  0  0  0  0  0  0  0
  180.5150  177.8190  141.4710 O   0  0  0  0  0  0  0  0  0  0  0  0
  181.3740  176.8180  139.5490 N   0  0  0  0  0  2  0  0  0  0  0  0
  180.5910  175.6170  139.5890 C   0  0  0  0  0  0  0  0  0  0  0  0
  180.6890  174.6360  138.4750 C   0  0  0  0  0  1  0  0  0  0  0  0
  182.3090  179.6000  139.1000 C   0  0  0  0  0  2  0  0  0  0  0  0
  181.1810  180.6240  138.9970 C   0  0  0  0  0  2  0  0  0  0  0  0
  180.2500  180.2060  137.9610 N   0  0  0  0  0  2  0  0  0  0  0  0
  180.8660  179.6910  135.6720 C   0  0  0  0  0  2  0  0  0  0  0  0
  180.4290  180.5580  136.5780 C   0  0  0  0  0  3  0  0  0  0  0  0
  189.3410  178.0350  142.6480 C   0  0  0  0  0  2  0  0  0  0  0  0
  191.5350  177.3850  141.8330 C   0  0  0  0  0  0  0  0  0  0  0  0
  190.7370  177.5690  142.8500 C   0  0  0  0  0  3  0  0  0  0  0  0
  192.3630  177.1880  140.8380 C   0  0  0  0  0  3  0  0  0  0  0  0
  191.9770  177.4340  139.4160 C   0  0  1  0  0  3  0  0  0  0  0  0
  192.8160  176.6560  138.4890 C   0  0  0  0  0  0  0  0  0  0  0  0
  193.4940  176.0320  137.7020 C   0  0  0  0  0  3  0  0  0  0  0  0
  190.0290  176.1470  139.8290 O   0  0  0  0  0  0  0  0  0  0  0  0
  190.5260  177.0910  139.2340 C   0  0  0  0  0  0  0  0  0  0  0  0
  189.6660  177.9610  138.3770 C   0  0  0  0  0  2  0  0  0  0  0  0
  187.8440  178.5250  139.8070 O   0  0  0  0  0  0  0  0  0  0  0  0
  188.2290  177.8800  138.8000 C   0  0  0  0  0  0  0  0  0  0  0  0
  187.2900  177.0650  138.0900 N   0  0  0  0  0  2  0  0  0  0  0  0
  187.6070  176.3950  136.8270 C   0  0  1  0  0  3  0  0  0  0  0  0
  187.8320  175.0070  136.9910 O   0  0  0  0  0  0  0  0  0  0  0  0
  188.7030  174.5420  135.9870 C   0  0  0  0  0  2  0  0  0  0  0  0
  190.3310  173.7550  137.5580 O   0  0  0  0  0  1  0  0  0  0  0  0
  190.1450  174.6060  136.4660 C   0  0  0  0  0  2  0  0  0  0  0  0
  186.6230  176.7450  135.6990 C   0  0  0  0  0  2  0  0  0  0  0  0
  185.3630  176.0270  135.8290 N   0  0  0  0  0  2  0  0  0  0  0  0
  183.0040  176.4200  136.0680 C   0  0  0  0  0  2  0  0  0  0  0  0
  184.2910  176.9700  135.5750 C   0  0  1  0  0  3  0  0  0  0  0  0
  183.7320  177.3720  136.8010 O   0  0  0  0  0  0  0  0  0  0  0  0
  1  2  2  0  0  0  0
  2  7  1  0  0  0  0
  3  2  1  0  0  0  0
  4  9  1  0  0  0  0
  4  8  1  1  0  0  0
  5  4  1  0  0  0  0
  5  9  1  0  0  0  0
  6  5  1  0  0  0  0
  6  3  2  0  0  0  0
  9  8  1  1  0  0  0
  9  1  1  0  0  0  0
 11 10  1  1  0  0  0
 11  4  1  0  0  0  0
 12 14  1  6  0  0  0
 12 11  1  0  0  0  0
 12 10  1  0  0  0  0
 14 13  1  6  0  0  0
 15 22  1  6  0  0  0
 15 16  1  0  0  0  0
 15 14  1  0  0  0  0
 16 18  2  0  0  0  0
 19 20  1  0  0  0  0
 19 16  1  0  0  0  0
 20 17  2  0  0  0  0
 21 20  1  0  0  0  0
 23 22  1  0  0  0  0
 24 23  1  0  0  0  0
 25 26  2  0  0  0  0
 26 24  1  0  0  0  0
 27 29  1  0  0  0  0
 27  6  1  0  0  0  0
 28 29  2  0  0  0  0
 30 28  2  0  0  0  0
 31 32  1  6  0  0  0
 31 30  1  0  0  0  0
 33 32  3  0  0  0  0
 35 31  1  0  0  0  0
 35 34  2  0  0  0  0
 36 38  1  0  0  0  0
 36 35  1  0  0  0  0
 38 37  2  0  0  0  0
 39 38  1  0  0  0  0
 40 45  1  6  0  0  0
 40 41  1  0  0  0  0
 40 39  1  0  0  0  0
 42 44  1  0  0  0  0
 42 41  1  0  0  0  0
 44 43  1  0  0  0  0
 45 46  1  0  0  0  0
 47 49  1  0  0  0  0
 48 46  1  1  0  0  0
 48 47  1  0  0  0  0
 48 49  1  0  0  0  0
M  END
>  <MODEL>
5

>  <REMARK>
 VINA RESULT:      -6.2      2.367      8.186
  Name = 
  22 active torsions:
  status: ('A' for Active; 'I' for Inactive)
    1  A    between atoms: C_3  and  C_36
    2  A    between atoms: C_5  and  O_37
    3  A    between atoms: C_5  and  N_39
    4  A    between atoms: C_5  and  C_46
    5  A    between atoms: C_7  and  C_8
    6  A    between atoms: C_7  and  O_37
    7  A    between atoms: C_10  and  C_41
    8  A    between atoms: N_12  and  C_18
    9  A    between atoms: N_12  and  C_20
   10  A    between atoms: C_15  and  C_24
   11  A    between atoms: C_17  and  C_23
   12  A    between atoms: C_18  and  C_44
   13  A    between atoms: C_22  and  C_26
   14  A    between atoms: C_23  and  C_28
   15  A    between atoms: C_23  and  C_43
   16  A    between atoms: C_26  and  C_43
   17  A    between atoms: C_27  and  C_47
   18  A    between atoms: N_29  and  C_42
   19  A    between atoms: N_29  and  C_46
   20  A    between atoms: C_31  and  C_36
   21  A    between atoms: C_41  and  C_44
   22  A    between atoms: C_41  and  C_47
                            x       y       z     vdW  Elec       q    Type
                         _______ _______ _______ _____ _____    ______ ____

>  <TORSDO>
F 22

$$$$
=
 OpenBabel11032419383D

 49 53  0  0  1  0  0  0  0  0999 V2000
  190.2370  177.5660  145.8500 N   0  0  0  0  0  0  0  0  0  0  0  0
  189.1610  177.4970  146.6240 C   0  0  0  0  0  0  0  0  0  0  0  0
  187.8140  177.5590  146.0820 N   0  0  0  0  0  0  0  0  0  0  0  0
  189.8770  177.0170  143.2840 C   0  0  2  0  0  0  0  0  0  0  0  0
  188.8450  177.7140  144.0530 N   0  0  0  0  0  0  0  0  0  0  0  0
  187.6580  177.6560  144.7990 C   0  0  0  0  0  0  0  0  0  0  0  0
  189.3270  177.2900  148.0180 N   0  0  0  0  0  1  0  0  0  0  0  0
  191.3590  176.3270  144.0010 S   0  0  0  0  0  0  0  0  0  0  0  0
  190.3070  177.7880  144.3800 C   0  0  2  0  0  0  0  0  0  0  0  0
  191.2370  177.1210  141.3250 O   0  0  0  0  0  0  0  0  0  0  0  0
  190.2000  177.7770  142.0080 C   0  0  1  0  0  3  0  0  0  0  0  0
  189.9420  176.9350  140.8110 C   0  0  1  0  0  3  0  0  0  0  0  0
  188.2550  178.2020  139.5280 C   0  0  0  0  0  1  0  0  0  0  0  0
  189.7310  177.8420  139.6020 C   0  0  2  0  0  3  0  0  0  0  0  0
  190.1480  177.2130  138.2670 C   0  0  2  0  0  3  0  0  0  0  0  0
  188.9950  176.8390  137.3890 C   0  0  0  0  0  0  0  0  0  0  0  0
  186.5700  175.9630  136.0570 O   0  0  0  0  0  0  0  0  0  0  0  0
  188.6410  177.6300  136.4850 O   0  0  0  0  0  0  0  0  0  0  0  0
  188.3400  175.5800  137.5540 N   0  0  0  0  0  2  0  0  0  0  0  0
  187.1410  175.1810  136.8750 C   0  0  0  0  0  0  0  0  0  0  0  0
  186.5620  173.8350  137.1310 C   0  0  0  0  0  1  0  0  0  0  0  0
  191.0060  175.9830  138.5430 C   0  0  0  0  0  2  0  0  0  0  0  0
  192.4590  176.2420  138.1540 C   0  0  0  0  0  2  0  0  0  0  0  0
  193.0880  174.9830  137.7900 N   0  0  0  0  0  2  0  0  0  0  0  0
  195.0090  173.5790  138.2650 C   0  0  0  0  0  2  0  0  0  0  0  0
  194.5020  174.7600  137.9300 C   0  0  0  0  0  3  0  0  0  0  0  0
  186.3140  177.6850  144.1540 C   0  0  0  0  0  2  0  0  0  0  0  0
  185.3750  178.3570  142.0170 C   0  0  0  0  0  0  0  0  0  0  0  0
  186.4340  178.1940  142.7630 C   0  0  0  0  0  3  0  0  0  0  0  0
  184.3370  178.5330  141.2390 C   0  0  0  0  0  3  0  0  0  0  0  0
  182.9410  178.2540  141.6940 C   0  0  1  0  0  3  0  0  0  0  0  0
  182.7330  178.6890  143.0850 C   0  0  0  0  0  0  0  0  0  0  0  0
  182.5300  179.0470  144.2250 C   0  0  0  0  0  3  0  0  0  0  0  0
  181.1160  179.6890  141.2160 O   0  0  0  0  0  0  0  0  0  0  0  0
  181.9770  178.9450  140.7720 C   0  0  0  0  0  0  0  0  0  0  0  0
  182.1250  178.7820  139.2950 C   0  0  0  0  0  2  0  0  0  0  0  0
  180.1210  177.5080  139.4970 O   0  0  0  0  0  0  0  0  0  0  0  0
  181.0300  177.9230  138.7370 C   0  0  0  0  0  0  0  0  0  0  0  0
  181.0120  177.5490  137.3540 N   0  0  0  0  0  2  0  0  0  0  0  0
  181.9400  178.0990  136.3640 C   0  0  1  0  0  3  0  0  0  0  0  0
  182.8070  177.1150  135.8300 O   0  0  0  0  0  0  0  0  0  0  0  0
  182.1720  175.8580  135.8480 C   0  0  0  0  0  2  0  0  0  0  0  0
  183.2120  174.8650  137.7630 O   0  0  0  0  0  1  0  0  0  0  0  0
  183.1220  174.7930  136.3710 C   0  0  0  0  0  2  0  0  0  0  0  0
  181.2410  178.9660  135.3040 C   0  0  0  0  0  2  0  0  0  0  0  0
  180.6490  180.1640  135.8820 N   0  0  0  0  0  2  0  0  0  0  0  0
  179.6120  182.2570  135.3190 C   0  0  0  0  0  2  0  0  0  0  0  0
  180.2040  181.0050  134.7870 C   0  0  1  0  0  3  0  0  0  0  0  0
  180.9220  182.2130  134.8150 O   0  0  0  0  0  0  0  0  0  0  0  0
  1  2  2  0  0  0  0
  2  7  1  0  0  0  0
  3  2  1  0  0  0  0
  4  8  1  1  0  0  0
  4  5  1  0  0  0  0
  4  9  1  0  0  0  0
  5  9  1  0  0  0  0
  5  6  1  0  0  0  0
  6  3  2  0  0  0  0
  9  8  1  1  0  0  0
  9  1  1  0  0  0  0
 11 10  1  1  0  0  0
 11  4  1  0  0  0  0
 12 14  1  6  0  0  0
 12 10  1  0  0  0  0
 12 11  1  0  0  0  0
 14 13  1  6  0  0  0
 15 22  1  1  0  0  0
 15 14  1  0  0  0  0
 16 19  1  0  0  0  0
 16 15  1  0  0  0  0
 17 20  2  0  0  0  0
 18 16  2  0  0  0  0
 20 21  1  0  0  0  0
 20 19  1  0  0  0  0
 23 22  1  0  0  0  0
 24 26  1  0  0  0  0
 24 23  1  0  0  0  0
 26 25  2  0  0  0  0
 27  6  1  0  0  0  0
 28 29  2  0  0  0  0
 29 27  1  0  0  0  0
 30 28  2  0  0  0  0
 31 30  1  6  0  0  0
 31 32  1  0  0  0  0
 32 33  3  0  0  0  0
 35 34  2  0  0  0  0
 35 31  1  0  0  0  0
 36 35  1  0  0  0  0
 38 36  1  0  0  0  0
 38 37  2  0  0  0  0
 39 38  1  0  0  0  0
 40 45  1  6  0  0  0
 40 39  1  0  0  0  0
 41 42  1  0  0  0  0
 41 40  1  0  0  0  0
 42 44  1  0  0  0  0
 44 43  1  0  0  0  0
 45 46  1  0  0  0  0
 48 49  1  0  0  0  0
 48 47  1  0  0  0  0
 48 46  1  1  0  0  0
 49 47  1  0  0  0  0
M  END
>  <MODEL>
6

>  <REMARK>
 VINA RESULT:      -6.2      1.706      3.378
  Name = 
  22 active torsions:
  status: ('A' for Active; 'I' for Inactive)
    1  A    between atoms: C_3  and  C_36
    2  A    between atoms: C_5  and  O_37
    3  A    between atoms: C_5  and  N_39
    4  A    between atoms: C_5  and  C_46
    5  A    between atoms: C_7  and  C_8
    6  A    between atoms: C_7  and  O_37
    7  A    between atoms: C_10  and  C_41
    8  A    between atoms: N_12  and  C_18
    9  A    between atoms: N_12  and  C_20
   10  A    between atoms: C_15  and  C_24
   11  A    between atoms: C_17  and  C_23
   12  A    between atoms: C_18  and  C_44
   13  A    between atoms: C_22  and  C_26
   14  A    between atoms: C_23  and  C_28
   15  A    between atoms: C_23  and  C_43
   16  A    between atoms: C_26  and  C_43
   17  A    between atoms: C_27  and  C_47
   18  A    between atoms: N_29  and  C_42
   19  A    between atoms: N_29  and  C_46
   20  A    between atoms: C_31  and  C_36
   21  A    between atoms: C_41  and  C_44
   22  A    between atoms: C_41  and  C_47
                            x       y       z     vdW  Elec       q    Type
                         _______ _______ _______ _____ _____    ______ ____

>  <TORSDO>
F 22

$$$$
=
 OpenBabel11032419383D

 49 53  0  0  1  0  0  0  0  0999 V2000
  190.6490  177.4720  145.7230 N   0  0  0  0  0  0  0  0  0  0  0  0
  189.6300  177.3460  146.5640 C   0  0  0  0  0  0  0  0  0  0  0  0
  188.2490  177.3690  146.1130 N   0  0  0  0  0  0  0  0  0  0  0  0
  190.1390  176.9690  143.1730 C   0  0  2  0  0  0  0  0  0  0  0  0
  189.1360  177.6090  144.0250 N   0  0  0  0  0  0  0  0  0  0  0  0
  188.0050  177.4890  144.8460 C   0  0  0  0  0  0  0  0  0  0  0  0
  189.8970  177.1130  147.9380 N   0  0  0  0  0  1  0  0  0  0  0  0
  191.6900  176.3200  143.7730 S   0  0  0  0  0  0  0  0  0  0  0  0
  190.6120  177.7310  144.2570 C   0  0  2  0  0  0  0  0  0  0  0  0
  191.3420  177.1540  141.1200 O   0  0  0  0  0  0  0  0  0  0  0  0
  190.3480  177.7700  141.8980 C   0  0  1  0  0  3  0  0  0  0  0  0
  190.0160  176.9540  140.7000 C   0  0  1  0  0  3  0  0  0  0  0  0
  188.2060  178.1980  139.5700 C   0  0  0  0  0  1  0  0  0  0  0  0
  189.6940  177.8880  139.5370 C   0  0  2  0  0  3  0  0  0  0  0  0
  190.0440  177.3140  138.1580 C   0  0  2  0  0  3  0  0  0  0  0  0
  188.8490  176.9210  137.3480 C   0  0  0  0  0  0  0  0  0  0  0  0
  186.3570  176.0270  136.1590 O   0  0  0  0  0  0  0  0  0  0  0  0
  188.4660  177.6800  136.4280 O   0  0  0  0  0  0  0  0  0  0  0  0
  188.1860  175.6800  137.5930 N   0  0  0  0  0  2  0  0  0  0  0  0
  186.9530  175.2710  136.9830 C   0  0  0  0  0  0  0  0  0  0  0  0
  186.3690  173.9450  137.3200 C   0  0  0  0  0  1  0  0  0  0  0  0
  190.9630  176.1110  138.3390 C   0  0  0  0  0  2  0  0  0  0  0  0
  192.3360  176.3860  137.7310 C   0  0  0  0  0  2  0  0  0  0  0  0
  192.4060  175.7730  136.4140 N   0  0  0  0  0  2  0  0  0  0  0  0
  192.9980  173.7350  135.2390 C   0  0  0  0  0  2  0  0  0  0  0  0
  193.2970  174.6830  136.1200 C   0  0  0  0  0  3  0  0  0  0  0  0
  186.6200  177.4810  144.2920 C   0  0  0  0  0  2  0  0  0  0  0  0
  184.5320  178.4660  145.0460 C   0  0  0  0  0  0  0  0  0  0  0  0
  185.6520  177.8680  145.3500 C   0  0  0  0  0  3  0  0  0  0  0  0
  183.4000  179.0680  144.7800 C   0  0  0  0  0  3  0  0  0  0  0  0
  182.9790  179.3990  143.3840 C   0  0  1  0  0  3  0  0  0  0  0  0
  183.7950  178.6780  142.3930 C   0  0  0  0  0  0  0  0  0  0  0  0
  184.4640  178.0580  141.5940 C   0  0  0  0  0  3  0  0  0  0  0  0
  180.8250  178.8270  144.1890 O   0  0  0  0  0  0  0  0  0  0  0  0
  181.5240  179.0650  143.2170 C   0  0  0  0  0  0  0  0  0  0  0  0
  180.9120  179.1040  141.8550 C   0  0  0  0  0  2  0  0  0  0  0  0
  178.9720  177.9700  142.6470 O   0  0  0  0  0  0  0  0  0  0  0  0
  179.8190  178.0850  141.7280 C   0  0  0  0  0  0  0  0  0  0  0  0
  179.7340  177.2250  140.5860 N   0  0  0  0  0  2  0  0  0  0  0  0
  180.5820  177.3810  139.4020 C   0  0  1  0  0  3  0  0  0  0  0  0
  180.6170  178.7160  138.9320 O   0  0  0  0  0  0  0  0  0  0  0  0
  181.8630  178.9770  138.3290 C   0  0  0  0  0  2  0  0  0  0  0  0
  183.5300  180.5230  139.0810 O   0  0  0  0  0  1  0  0  0  0  0  0
  182.2520  180.4330  138.5270 C   0  0  0  0  0  2  0  0  0  0  0  0
  181.9670  176.7340  139.5670 C   0  0  0  0  0  2  0  0  0  0  0  0
  181.9950  175.3670  139.0670 N   0  0  0  0  0  2  0  0  0  0  0  0
  182.5410  174.0430  137.1380 C   0  0  0  0  0  2  0  0  0  0  0  0
  182.3810  175.4180  137.6700 C   0  0  1  0  0  3  0  0  0  0  0  0
  181.3840  174.8000  136.8950 O   0  0  0  0  0  0  0  0  0  0  0  0
  1  2  2  0  0  0  0
  2  7  1  0  0  0  0
  3  2  1  0  0  0  0
  4  8  1  6  0  0  0
  4  5  1  0  0  0  0
  4  9  1  0  0  0  0
  5  9  1  0  0  0  0
  5  6  1  0  0  0  0
  6  3  2  0  0  0  0
  9  8  1  1  0  0  0
  9  1  1  0  0  0  0
 11 10  1  6  0  0  0
 11  4  1  0  0  0  0
 12 14  1  6  0  0  0
 12 10  1  0  0  0  0
 12 11  1  0  0  0  0
 14 13  1  6  0  0  0
 15 22  1  1  0  0  0
 15 14  1  0  0  0  0
 16 19  1  0  0  0  0
 16 15  1  0  0  0  0
 17 20  2  0  0  0  0
 18 16  2  0  0  0  0
 20 21  1  0  0  0  0
 20 19  1  0  0  0  0
 23 22  1  0  0  0  0
 24 23  1  0  0  0  0
 25 26  2  0  0  0  0
 26 24  1  0  0  0  0
 27  6  1  0  0  0  0
 27 29  1  0  0  0  0
 28 29  2  0  0  0  0
 30 28  2  0  0  0  0
 31 32  1  6  0  0  0
 31 30  1  0  0  0  0
 33 32  3  0  0  0  0
 35 31  1  0  0  0  0
 35 34  2  0  0  0  0
 36 35  1  0  0  0  0
 38 36  1  0  0  0  0
 38 37  2  0  0  0  0
 39 38  1  0  0  0  0
 40 45  1  1  0  0  0
 40 39  1  0  0  0  0
 41 40  1  0  0  0  0
 42 44  1  0  0  0  0
 42 41  1  0  0  0  0
 44 43  1  0  0  0  0
 46 45  1  0  0  0  0
 47 48  1  0  0  0  0
 48 46  1  1  0  0  0
 49 47  1  0  0  0  0
 49 48  1  0  0  0  0
M  END
>  <MODEL>
7

>  <REMARK>
 VINA RESULT:      -6.1      1.731      3.660
  Name = 
  22 active torsions:
  status: ('A' for Active; 'I' for Inactive)
    1  A    between atoms: C_3  and  C_36
    2  A    between atoms: C_5  and  O_37
    3  A    between atoms: C_5  and  N_39
    4  A    between atoms: C_5  and  C_46
    5  A    between atoms: C_7  and  C_8
    6  A    between atoms: C_7  and  O_37
    7  A    between atoms: C_10  and  C_41
    8  A    between atoms: N_12  and  C_18
    9  A    between atoms: N_12  and  C_20
   10  A    between atoms: C_15  and  C_24
   11  A    between atoms: C_17  and  C_23
   12  A    between atoms: C_18  and  C_44
   13  A    between atoms: C_22  and  C_26
   14  A    between atoms: C_23  and  C_28
   15  A    between atoms: C_23  and  C_43
   16  A    between atoms: C_26  and  C_43
   17  A    between atoms: C_27  and  C_47
   18  A    between atoms: N_29  and  C_42
   19  A    between atoms: N_29  and  C_46
   20  A    between atoms: C_31  and  C_36
   21  A    between atoms: C_41  and  C_44
   22  A    between atoms: C_41  and  C_47
                            x       y       z     vdW  Elec       q    Type
                         _______ _______ _______ _____ _____    ______ ____

>  <TORSDO>
F 22

$$$$
=
 OpenBabel11032419383D

 49 53  0  0  1  0  0  0  0  0999 V2000
  180.0790  178.5020  141.8620 N   0  0  0  0  0  0  0  0  0  0  0  0
  180.3480  178.6480  143.1530 C   0  0  0  0  0  0  0  0  0  0  0  0
  181.7060  178.6060  143.6690 N   0  0  0  0  0  0  0  0  0  0  0  0
  182.0850  178.9290  140.1860 C   0  0  2  0  0  0  0  0  0  0  0  0
  182.3180  178.3090  141.4920 N   0  0  0  0  0  0  0  0  0  0  0  0
  182.6880  178.4480  142.8380 C   0  0  0  0  0  0  0  0  0  0  0  0
  179.2840  178.9220  144.0510 N   0  0  0  0  0  1  0  0  0  0  0  0
  180.5150  179.6020  139.6680 S   0  0  0  0  0  0  0  0  0  0  0  0
  181.0200  178.2010  140.7490 C   0  0  2  0  0  0  0  0  0  0  0  0
  182.9150  178.8990  137.9490 O   0  0  0  0  0  0  0  0  0  0  0  0
  182.7040  178.0910  139.0780 C   0  0  1  0  0  3  0  0  0  0  0  0
  184.0530  178.6030  138.7200 C   0  0  1  0  0  3  0  0  0  0  0  0
  186.1010  178.0860  137.4420 C   0  0  0  0  0  1  0  0  0  0  0  0
  184.8490  177.4820  138.0580 C   0  0  2  0  0  3  0  0  0  0  0  0
  184.0810  176.7290  136.9650 C   0  0  2  0  0  3  0  0  0  0  0  0
  184.1530  175.2390  137.0940 C   0  0  0  0  0  0  0  0  0  0  0  0
  184.6120  172.4270  137.6410 O   0  0  0  0  0  0  0  0  0  0  0  0
  183.0880  174.5810  137.1030 O   0  0  0  0  0  0  0  0  0  0  0  0
  185.4190  174.5810  137.1620 N   0  0  0  0  0  2  0  0  0  0  0  0
  185.6060  173.1850  137.4330 C   0  0  0  0  0  0  0  0  0  0  0  0
  186.9810  172.6190  137.4690 C   0  0  0  0  0  1  0  0  0  0  0  0
  184.6120  177.1550  135.6000 C   0  0  0  0  0  2  0  0  0  0  0  0
  183.4720  177.2800  134.5940 C   0  0  0  0  0  2  0  0  0  0  0  0
  182.2900  177.7870  135.2720 N   0  0  0  0  0  2  0  0  0  0  0  0
  180.7550  175.9250  135.0220 C   0  0  0  0  0  2  0  0  0  0  0  0
  180.9800  177.2340  135.0520 C   0  0  0  0  0  3  0  0  0  0  0  0
  184.1130  178.4330  143.2740 C   0  0  0  0  0  2  0  0  0  0  0  0
  185.9990  179.1740  141.9350 C   0  0  0  0  0  0  0  0  0  0  0  0
  184.8770  179.4700  142.5340 C   0  0  0  0  0  3  0  0  0  0  0  0
  187.1280  178.9160  141.3230 C   0  0  0  0  0  3  0  0  0  0  0  0
  187.7310  177.5490  141.3030 C   0  0  1  0  0  3  0  0  0  0  0  0
  188.9280  177.5030  140.4470 C   0  0  0  0  0  0  0  0  0  0  0  0
  189.9240  177.4930  139.7560 C   0  0  0  0  0  3  0  0  0  0  0  0
  188.3080  175.9720  142.9770 O   0  0  0  0  0  0  0  0  0  0  0  0
  188.0680  177.1390  142.7080 C   0  0  0  0  0  0  0  0  0  0  0  0
  188.1870  178.1820  143.7700 C   0  0  0  0  0  2  0  0  0  0  0  0
  190.4360  178.8910  143.4240 O   0  0  0  0  0  0  0  0  0  0  0  0
  189.6130  178.3490  144.2030 C   0  0  0  0  0  0  0  0  0  0  0  0
  190.0620  177.8820  145.4800 N   0  0  0  0  0  2  0  0  0  0  0  0
  189.1540  177.3710  146.5100 C   0  0  1  0  0  3  0  0  0  0  0  0
  189.6800  176.2440  147.1850 O   0  0  0  0  0  0  0  0  0  0  0  0
  190.8770  176.5940  147.8380 C   0  0  0  0  0  2  0  0  0  0  0  0
  193.1800  175.9870  148.0950 O   0  0  0  0  0  1  0  0  0  0  0  0
  191.9880  175.6270  147.4620 C   0  0  0  0  0  2  0  0  0  0  0  0
  188.6230  178.4730  147.4410 C   0  0  0  0  0  2  0  0  0  0  0  0
  187.2340  178.2500  147.8160 N   0  0  0  0  0  2  0  0  0  0  0  0
  184.9990  178.2540  146.9340 C   0  0  0  0  0  2  0  0  0  0  0  0
  186.4440  178.2580  146.6000 C   0  0  1  0  0  3  0  0  0  0  0  0
  185.6690  179.4310  146.5620 O   0  0  0  0  0  0  0  0  0  0  0  0
  1  2  2  0  0  0  0
  2  3  1  0  0  0  0
  2  7  1  0  0  0  0
  4  8  1  6  0  0  0
  4  9  1  0  0  0  0
  4  5  1  0  0  0  0
  5  6  1  0  0  0  0
  6 27  1  0  0  0  0
  6  3  2  0  0  0  0
  9  8  1  1  0  0  0
  9  5  1  0  0  0  0
  9  1  1  0  0  0  0
 10 12  1  0  0  0  0
 11 10  1  6  0  0  0
 11  4  1  0  0  0  0
 12 14  1  6  0  0  0
 12 11  1  0  0  0  0
 14 13  1  6  0  0  0
 15 22  1  6  0  0  0
 15 16  1  0  0  0  0
 15 14  1  0  0  0  0
 16 18  2  0  0  0  0
 16 19  1  0  0  0  0
 19 20  1  0  0  0  0
 20 21  1  0  0  0  0
 20 17  2  0  0  0  0
 23 24  1  0  0  0  0
 23 22  1  0  0  0  0
 25 26  2  0  0  0  0
 26 24  1  0  0  0  0
 28 29  2  0  0  0  0
 29 27  1  0  0  0  0
 30 28  2  0  0  0  0
 31 32  1  6  0  0  0
 31 30  1  0  0  0  0
 31 35  1  0  0  0  0
 33 32  3  0  0  0  0
 35 34  2  0  0  0  0
 35 36  1  0  0  0  0
 36 38  1  0  0  0  0
 37 38  2  0  0  0  0
 38 39  1  0  0  0  0
 39 40  1  0  0  0  0
 40 41  1  0  0  0  0
 40 45  1  1  0  0  0
 41 42  1  0  0  0  0
 44 42  1  0  0  0  0
 44 43  1  0  0  0  0
 45 46  1  0  0  0  0
 48 47  1  0  0  0  0
 48 46  1  1  0  0  0
 49 48  1  0  0  0  0
 49 47  1  0  0  0  0
M  END
>  <MODEL>
8

>  <REMARK>
 VINA RESULT:      -6.1      3.607      8.965
  Name = 
  22 active torsions:
  status: ('A' for Active; 'I' for Inactive)
    1  A    between atoms: C_3  and  C_36
    2  A    between atoms: C_5  and  O_37
    3  A    between atoms: C_5  and  N_39
    4  A    between atoms: C_5  and  C_46
    5  A    between atoms: C_7  and  C_8
    6  A    between atoms: C_7  and  O_37
    7  A    between atoms: C_10  and  C_41
    8  A    between atoms: N_12  and  C_18
    9  A    between atoms: N_12  and  C_20
   10  A    between atoms: C_15  and  C_24
   11  A    between atoms: C_17  and  C_23
   12  A    between atoms: C_18  and  C_44
   13  A    between atoms: C_22  and  C_26
   14  A    between atoms: C_23  and  C_28
   15  A    between atoms: C_23  and  C_43
   16  A    between atoms: C_26  and  C_43
   17  A    between atoms: C_27  and  C_47
   18  A    between atoms: N_29  and  C_42
   19  A    between atoms: N_29  and  C_46
   20  A    between atoms: C_31  and  C_36
   21  A    between atoms: C_41  and  C_44
   22  A    between atoms: C_41  and  C_47
                            x       y       z     vdW  Elec       q    Type
                         _______ _______ _______ _____ _____    ______ ____

>  <TORSDO>
F 22

$$$$
=
 OpenBabel11032419383D

 49 53  0  0  1  0  0  0  0  0999 V2000
  190.6660  177.3090  145.4160 N   0  0  0  0  0  0  0  0  0  0  0  0
  189.6430  177.2890  146.2610 C   0  0  0  0  0  0  0  0  0  0  0  0
  188.2680  177.4410  145.8140 N   0  0  0  0  0  0  0  0  0  0  0  0
  190.1010  176.8340  142.8720 C   0  0  2  0  0  0  0  0  0  0  0  0
  189.1680  177.5760  143.7220 N   0  0  0  0  0  0  0  0  0  0  0  0
  188.0330  177.5730  144.5470 C   0  0  0  0  0  0  0  0  0  0  0  0
  189.8910  177.0440  147.6360 N   0  0  0  0  0  1  0  0  0  0  0  0
  191.5840  176.0440  143.4740 S   0  0  0  0  0  0  0  0  0  0  0  0
  190.6490  177.5560  143.9490 C   0  0  2  0  0  0  0  0  0  0  0  0
  191.5360  177.0800  140.9810 O   0  0  0  0  0  0  0  0  0  0  0  0
  190.3820  177.6000  141.5890 C   0  0  1  0  0  3  0  0  0  0  0  0
  190.3100  176.6980  140.4090 C   0  0  1  0  0  3  0  0  0  0  0  0
  188.6440  178.1280  139.2800 C   0  0  0  0  0  1  0  0  0  0  0  0
  190.0390  177.5340  139.1620 C   0  0  2  0  0  3  0  0  0  0  0  0
  190.1260  176.7460  137.8490 C   0  0  2  0  0  3  0  0  0  0  0  0
  188.8100  176.2090  137.3800 C   0  0  0  0  0  0  0  0  0  0  0  0
  186.3230  175.4170  136.1120 O   0  0  0  0  0  0  0  0  0  0  0  0
  188.5510  174.9970  137.5640 O   0  0  0  0  0  0  0  0  0  0  0  0
  187.8510  177.0750  136.7720 N   0  0  0  0  0  2  0  0  0  0  0  0
  186.6290  176.6450  136.1560 C   0  0  0  0  0  0  0  0  0  0  0  0
  185.7080  177.6530  135.5630 C   0  0  0  0  0  1  0  0  0  0  0  0
  191.1190  175.6020  138.0200 C   0  0  0  0  0  2  0  0  0  0  0  0
  192.2080  175.6690  136.9520 C   0  0  0  0  0  2  0  0  0  0  0  0
  193.2420  174.6950  137.2630 N   0  0  0  0  0  0  0  0  0  0  0  0
  195.3100  174.1220  138.3940 C   0  0  0  0  0  1  0  0  0  0  0  0
  194.3670  175.0110  138.1010 C   0  0  0  0  0  3  0  0  0  0  0  0
  186.6520  177.6940  143.9960 C   0  0  0  0  0  2  0  0  0  0  0  0
  184.5270  178.5180  144.8360 C   0  0  0  0  0  0  0  0  0  0  0  0
  185.6970  177.9980  145.0930 C   0  0  0  0  0  3  0  0  0  0  0  0
  183.3460  179.0390  144.6190 C   0  0  0  0  0  3  0  0  0  0  0  0
  182.8530  179.3540  143.2430 C   0  0  1  0  0  3  0  0  0  0  0  0
  183.6410  178.6510  142.2170 C   0  0  0  0  0  0  0  0  0  0  0  0
  184.2990  178.1020  141.3600 C   0  0  0  0  0  3  0  0  0  0  0  0
  180.7990  178.5560  144.1190 O   0  0  0  0  0  0  0  0  0  0  0  0
  181.4010  178.9810  143.1450 C   0  0  0  0  0  0  0  0  0  0  0  0
  180.6690  179.2070  141.8630 C   0  0  0  0  0  2  0  0  0  0  0  0
  179.3090  177.2610  142.0800 O   0  0  0  0  0  0  0  0  0  0  0  0
  180.0810  177.9280  141.3470 C   0  0  0  0  0  0  0  0  0  0  0  0
  180.3980  177.4390  140.0390 N   0  0  0  0  0  2  0  0  0  0  0  0
  181.1660  178.2110  139.0600 C   0  0  1  0  0  3  0  0  0  0  0  0
  182.4250  177.6290  138.7780 O   0  0  0  0  0  0  0  0  0  0  0  0
  182.4100  177.0580  137.4900 C   0  0  0  0  0  2  0  0  0  0  0  0
  183.5310  175.1020  138.2980 O   0  0  0  0  0  1  0  0  0  0  0  0
  182.4140  175.5410  137.5830 C   0  0  0  0  0  2  0  0  0  0  0  0
  180.3480  178.5800  137.8120 C   0  0  0  0  0  2  0  0  0  0  0  0
  180.4410  179.9990  137.4970 N   0  0  0  0  0  2  0  0  0  0  0  0
  181.4520  182.0580  138.2120 C   0  0  0  0  0  2  0  0  0  0  0  0
  181.2170  180.6320  138.5460 C   0  0  1  0  0  3  0  0  0  0  0  0
  180.4570  181.6650  139.1210 O   0  0  0  0  0  0  0  0  0  0  0  0
  1  2  2  0  0  0  0
  2  7  1  0  0  0  0
  3  2  1  0  0  0  0
  4  8  1  1  0  0  0
  4  5  1  0  0  0  0
  4  9  1  0  0  0  0
  5  9  1  0  0  0  0
  5  6  1  0  0  0  0
  6  3  2  0  0  0  0
  9  8  1  1  0  0  0
  9  1  1  0  0  0  0
 11 10  1  1  0  0  0
 11  4  1  0  0  0  0
 12 14  1  6  0  0  0
 12 10  1  0  0  0  0
 12 11  1  0  0  0  0
 14 13  1  1  0  0  0
 15 22  1  1  0  0  0
 15 14  1  0  0  0  0
 16 18  2  0  0  0  0
 16 15  1  0  0  0  0
 17 20  2  0  0  0  0
 19 16  1  0  0  0  0
 20 19  1  0  0  0  0
 21 20  1  0  0  0  0
 23 24  1  0  0  0  0
 23 22  1  0  0  0  0
 24 26  2  0  0  0  0
 26 25  1  0  0  0  0
 27  6  1  0  0  0  0
 27 29  1  0  0  0  0
 28 29  2  0  0  0  0
 30 28  2  0  0  0  0
 31 32  1  6  0  0  0
 31 30  1  0  0  0  0
 33 32  3  0  0  0  0
 35 31  1  0  0  0  0
 35 34  2  0  0  0  0
 36 35  1  0  0  0  0
 38 36  1  0  0  0  0
 38 37  2  0  0  0  0
 39 38  1  0  0  0  0
 40 45  1  6  0  0  0
 40 39  1  0  0  0  0
 41 40  1  0  0  0  0
 42 44  1  0  0  0  0
 42 41  1  0  0  0  0
 44 43  1  0  0  0  0
 46 45  1  0  0  0  0
 47 48  1  0  0  0  0
 47 49  1  0  0  0  0
 48 46  1  6  0  0  0
 48 49  1  0  0  0  0
M  END
>  <MODEL>
9

>  <REMARK>
 VINA RESULT:      -6.0      1.451      3.163
  Name = 
  22 active torsions:
  status: ('A' for Active; 'I' for Inactive)
    1  A    between atoms: C_3  and  C_36
    2  A    between atoms: C_5  and  O_37
    3  A    between atoms: C_5  and  N_39
    4  A    between atoms: C_5  and  C_46
    5  A    between atoms: C_7  and  C_8
    6  A    between atoms: C_7  and  O_37
    7  A    between atoms: C_10  and  C_41
    8  A    between atoms: N_12  and  C_18
    9  A    between atoms: N_12  and  C_20
   10  A    between atoms: C_15  and  C_24
   11  A    between atoms: C_17  and  C_23
   12  A    between atoms: C_18  and  C_44
   13  A    between atoms: C_22  and  C_26
   14  A    between atoms: C_23  and  C_28
   15  A    between atoms: C_23  and  C_43
   16  A    between atoms: C_26  and  C_43
   17  A    between atoms: C_27  and  C_47
   18  A    between atoms: N_29  and  C_42
   19  A    between atoms: N_29  and  C_46
   20  A    between atoms: C_31  and  C_36
   21  A    between atoms: C_41  and  C_44
   22  A    between atoms: C_41  and  C_47
                            x       y       z     vdW  Elec       q    Type
                         _______ _______ _______ _____ _____    ______ ____

>  <TORSDO>
F 22

$$$$
