=
 OpenBabel11042412503D

 46 50  0  0  1  0  0  0  0  0999 V2000
  183.0800  181.4280  138.7170 O   0  0  0  0  0  0  0  0  0  0  0  0
  184.6570  177.3440  137.5680 C   0  0  0  0  0  0  0  0  0  0  0  0
  185.3360  177.0060  136.3960 C   0  0  0  0  0  3  0  0  0  0  0  0
  186.7170  177.1420  136.3020 C   0  0  0  0  0  0  0  0  0  0  0  0
  183.1520  180.2040  139.0060 C   0  0  0  0  0  0  0  0  0  0  0  0
  187.3400  176.7770  135.1080 C   0  0  0  0  0  3  0  0  0  0  0  0
  180.5660  176.1760  135.2090 C   0  0  0  0  0  0  0  0  0  0  0  0
  186.7760  178.0370  138.5730 C   0  0  0  0  0  0  0  0  0  0  0  0
  185.3770  177.8690  138.6560 C   0  0  0  0  0  0  0  0  0  0  0  0
  179.4210  176.9100  134.6000 C   0  0  0  0  0  1  0  0  0  0  0  0
  180.7220  179.9830  138.4710 C   0  0  0  0  0  1  0  0  0  0  0  0
  182.0630  179.2600  138.5680 C   0  0  1  0  0  3  0  0  0  0  0  0
  181.3010  178.1900  136.4460 N   0  0  0  0  0  2  0  0  0  0  0  0
  184.2890  179.7390  139.7420 N   0  0  0  0  0  2  0  0  0  0  0  0
  183.1590  177.2180  137.6480 C   0  0  2  0  0  3  0  0  0  0  0  0
  181.4600  176.8400  136.1080 N   0  0  0  0  0  0  0  0  0  0  0  0
  188.7210  176.8820  134.9730 C   0  0  0  0  0  3  0  0  0  0  0  0
  184.6430  178.3340  139.8830 C   0  0  0  0  0  2  0  0  0  0  0  0
  187.4740  177.6430  137.3950 C   0  0  0  0  0  0  0  0  0  0  0  0
  189.4870  177.3470  136.0380 C   0  0  0  0  0  3  0  0  0  0  0  0
  180.7370  174.9620  134.9220 O   0  0  0  0  0  0  0  0  0  0  0  0
  188.8900  177.7290  137.2440 C   0  0  0  0  0  0  0  0  0  0  0  0
  182.5780  176.1690  136.7300 C   0  0  0  0  0  2  0  0  0  0  0  0
  182.4610  178.5240  137.2790 C   0  0  2  0  0  3  0  0  0  0  0  0
  189.8200  178.1420  138.3360 C   0  0  0  0  0  2  0  0  0  0  0  0
  190.8560  177.2150  138.4510 O   0  0  0  0  0  1  0  0  0  0  0  0
  187.4520  178.6740  139.6660 N   0  0  0  0  0  2  0  0  0  0  0  0
  187.5950  178.0590  140.9500 C   0  0  0  0  0  0  0  0  0  0  0  0
  188.7610  176.5080  142.4000 C   0  0  0  0  0  3  0  0  0  0  0  0
  186.8820  177.7880  143.2680 C   0  0  0  0  0  0  0  0  0  0  0  0
  187.9040  176.8420  143.4530 C   0  0  0  0  0  3  0  0  0  0  0  0
  186.7390  178.3920  142.0110 C   0  0  0  0  0  3  0  0  0  0  0  0
  188.6060  177.1170  141.1520 C   0  0  0  0  0  3  0  0  0  0  0  0
  185.9980  178.1480  144.3490 N   0  0  0  0  0  0  0  0  0  0  0  0
  186.1310  177.5370  145.6670 C   0  0  0  0  0  2  0  0  0  0  0  0
  187.1230  178.3220  146.5070 C   0  0  0  0  0  2  0  0  0  0  0  0
  187.9810  177.3740  147.3240 C   0  0  2  0  0  3  0  0  0  0  0  0
  187.9310  177.7190  148.6630 F   0  0  0  0  0  0  0  0  0  0  0  0
  189.3910  177.4160  146.8400 C   0  0  0  0  0  0  0  0  0  0  0  0
  189.7080  178.1460  145.8640 O   0  0  0  0  0  0  0  0  0  0  0  0
  190.3770  176.6070  147.4690 N   0  0  0  0  0  1  0  0  0  0  0  0
  185.1180  179.2340  144.2140 N   0  0  0  0  0  2  0  0  0  0  0  0
  183.8850  178.8890  144.9070 C   0  0  0  0  0  2  0  0  0  0  0  0
  181.6840  178.1570  144.3760 F   0  0  0  0  0  0  0  0  0  0  0  0
  183.0790  178.6850  142.6760 F   0  0  0  0  0  0  0  0  0  0  0  0
  182.6980  179.0020  143.9660 C   0  0  0  0  0  3  0  0  0  0  0  0
  1  5  2  0  0  0  0
  2 15  1  0  0  0  0
  2  9  1  0  0  0  0
  3  2  2  0  0  0  0
  4  3  1  0  0  0  0
  4 19  1  0  0  0  0
  5 14  1  0  0  0  0
  6  4  2  0  0  0  0
  7 16  1  0  0  0  0
  8  9  2  0  0  0  0
  8 27  1  0  0  0  0
  9 18  1  0  0  0  0
 10  7  1  0  0  0  0
 12 11  1  6  0  0  0
 12  5  1  0  0  0  0
 14 18  1  0  0  0  0
 15 23  1  6  0  0  0
 16 13  1  0  0  0  0
 16 23  1  0  0  0  0
 17  6  1  0  0  0  0
 17 20  2  0  0  0  0
 19  8  1  0  0  0  0
 20 22  1  0  0  0  0
 21  7  2  0  0  0  0
 22 19  2  0  0  0  0
 22 25  1  0  0  0  0
 24 13  1  6  0  0  0
 24 15  1  0  0  0  0
 24 12  1  0  0  0  0
 25 26  1  0  0  0  0
 27 28  1  0  0  0  0
 28 33  2  0  0  0  0
 28 32  1  0  0  0  0
 29 31  2  0  0  0  0
 30 31  1  0  0  0  0
 30 34  1  0  0  0  0
 32 30  2  0  0  0  0
 33 29  1  0  0  0  0
 34 35  1  0  0  0  0
 35 36  1  0  0  0  0
 36 37  1  0  0  0  0
 37 38  1  1  0  0  0
 39 37  1  0  0  0  0
 39 41  1  0  0  0  0
 40 39  2  0  0  0  0
 42 34  1  0  0  0  0
 42 43  1  0  0  0  0
 45 46  1  0  0  0  0
 46 44  1  0  0  0  0
 46 43  1  0  0  0  0
M  END
>  <MODEL>
1

>  <REMARK>
 VINA RESULT:      -8.1      0.000      0.000
  Name = 
  11 active torsions:
  status: ('A' for Active; 'I' for Inactive)
    1  A    between atoms: C_1  and  C_9
    2  A    between atoms: C_1  and  C_34
    3  A    between atoms: N_2  and  C_18
    4  A    between atoms: N_2  and  N_19
    5  A    between atoms: N_2  and  C_28
    6  A    between atoms: C_4  and  N_40
    7  A    between atoms: C_6  and  C_43
    8  A    between atoms: C_12  and  N_19
    9  A    between atoms: C_12  and  C_33
   10  A    between atoms: C_18  and  C_34
   11  A    between atoms: C_20  and  N_40
                            x       y       z     vdW  Elec       q    Type
                         _______ _______ _______ _____ _____    ______ ____

>  <TORSDO>
F 11

$$$$
=
 OpenBabel11042412503D

 46 50  0  0  1  0  0  0  0  0999 V2000
  190.9190  177.5360  139.5200 O   0  0  0  0  0  0  0  0  0  0  0  0
  188.8010  175.0180  136.4120 C   0  0  0  0  0  0  0  0  0  0  0  0
  188.0620  173.8540  136.6370 C   0  0  0  0  0  3  0  0  0  0  0  0
  186.7090  173.9140  136.9540 C   0  0  0  0  0  0  0  0  0  0  0  0
  190.6930  177.3380  138.2960 C   0  0  0  0  0  0  0  0  0  0  0  0
  186.0230  172.7160  137.1550 C   0  0  0  0  0  3  0  0  0  0  0  0
  192.6610  172.1190  135.8000 C   0  0  0  0  0  0  0  0  0  0  0  0
  186.8100  176.3520  136.8950 C   0  0  0  0  0  0  0  0  0  0  0  0
  188.1760  176.2700  136.5510 C   0  0  0  0  0  0  0  0  0  0  0  0
  193.8800  171.7630  136.5780 C   0  0  0  0  0  1  0  0  0  0  0  0
  193.0630  176.5950  138.0280 C   0  0  0  0  0  1  0  0  0  0  0  0
  191.6420  176.4970  137.4810 C   0  0  1  0  0  3  0  0  0  0  0  0
  192.2180  174.0810  137.2430 N   0  0  0  0  0  2  0  0  0  0  0  0
  189.5200  177.9140  137.7140 N   0  0  0  0  0  2  0  0  0  0  0  0
  190.2710  174.9410  136.0960 C   0  0  2  0  0  3  0  0  0  0  0  0
  191.8780  173.2620  136.1580 N   0  0  0  0  0  0  0  0  0  0  0  0
  184.6650  172.7260  137.4600 C   0  0  0  0  0  3  0  0  0  0  0  0
  188.9880  177.5280  136.4140 C   0  0  0  0  0  2  0  0  0  0  0  0
  186.0450  175.1640  137.0710 C   0  0  0  0  0  0  0  0  0  0  0  0
  183.9850  173.9360  137.5580 C   0  0  0  0  0  3  0  0  0  0  0  0
  192.3270  171.4010  134.8210 O   0  0  0  0  0  0  0  0  0  0  0  0
  184.6500  175.1530  137.3700 C   0  0  0  0  0  0  0  0  0  0  0  0
  190.6930  173.6540  135.4290 C   0  0  0  0  0  2  0  0  0  0  0  0
  191.1270  175.0550  137.3550 C   0  0  2  0  0  3  0  0  0  0  0  0
  183.8020  176.3810  137.4270 C   0  0  0  0  0  2  0  0  0  0  0  0
  182.7550  176.1900  138.3290 O   0  0  0  0  0  1  0  0  0  0  0  0
  186.2430  177.6490  137.1280 N   0  0  0  0  0  2  0  0  0  0  0  0
  185.9510  178.1410  138.4390 C   0  0  0  0  0  0  0  0  0  0  0  0
  184.4770  179.3570  139.9280 C   0  0  0  0  0  3  0  0  0  0  0  0
  186.5290  178.3810  140.7980 C   0  0  0  0  0  0  0  0  0  0  0  0
  185.3470  179.1140  140.9940 C   0  0  0  0  0  3  0  0  0  0  0  0
  186.8190  177.8970  139.5140 C   0  0  0  0  0  3  0  0  0  0  0  0
  184.7790  178.8710  138.6530 C   0  0  0  0  0  3  0  0  0  0  0  0
  187.4290  178.1140  141.8920 N   0  0  0  0  0  0  0  0  0  0  0  0
  186.9830  177.3870  143.0750 C   0  0  0  0  0  2  0  0  0  0  0  0
  185.9230  178.1880  143.8100 C   0  0  0  0  0  2  0  0  0  0  0  0
  186.2440  178.2440  145.2920 C   0  0  2  0  0  3  0  0  0  0  0  0
  186.6830  177.0080  145.7310 F   0  0  0  0  0  0  0  0  0  0  0  0
  185.0360  178.6590  146.0600 C   0  0  0  0  0  0  0  0  0  0  0  0
  185.0610  178.6910  147.3190 O   0  0  0  0  0  0  0  0  0  0  0  0
  183.8400  178.9970  145.3680 N   0  0  0  0  0  1  0  0  0  0  0  0
  188.8030  178.3760  141.7610 N   0  0  0  0  0  2  0  0  0  0  0  0
  189.4320  178.0730  143.0390 C   0  0  0  0  0  2  0  0  0  0  0  0
  190.0530  175.9280  142.2190 F   0  0  0  0  0  0  0  0  0  0  0  0
  191.0790  176.7030  144.0790 F   0  0  0  0  0  0  0  0  0  0  0  0
  190.5420  177.0540  142.8540 C   0  0  0  0  0  3  0  0  0  0  0  0
  2  9  2  0  0  0  0
  2  3  1  0  0  0  0
  3  4  2  0  0  0  0
  4 19  1  0  0  0  0
  4  6  1  0  0  0  0
  5  1  2  0  0  0  0
  6 17  2  0  0  0  0
  7 16  1  0  0  0  0
  7 10  1  0  0  0  0
  8 19  2  0  0  0  0
  8 27  1  0  0  0  0
  9  8  1  0  0  0  0
 12 11  1  1  0  0  0
 12  5  1  0  0  0  0
 14  5  1  0  0  0  0
 15 23  1  1  0  0  0
 15  2  1  0  0  0  0
 15 24  1  0  0  0  0
 16 13  1  0  0  0  0
 17 20  1  0  0  0  0
 18  9  1  0  0  0  0
 18 14  1  0  0  0  0
 19 22  1  0  0  0  0
 21  7  2  0  0  0  0
 22 25  1  0  0  0  0
 22 20  2  0  0  0  0
 23 16  1  0  0  0  0
 24 13  1  6  0  0  0
 24 12  1  0  0  0  0
 25 26  1  0  0  0  0
 27 28  1  0  0  0  0
 28 33  2  0  0  0  0
 28 32  1  0  0  0  0
 29 31  2  0  0  0  0
 30 31  1  0  0  0  0
 30 34  1  0  0  0  0
 32 30  2  0  0  0  0
 33 29  1  0  0  0  0
 34 35  1  0  0  0  0
 35 36  1  0  0  0  0
 36 37  1  0  0  0  0
 37 38  1  1  0  0  0
 37 39  1  0  0  0  0
 39 40  2  0  0  0  0
 41 39  1  0  0  0  0
 42 34  1  0  0  0  0
 42 43  1  0  0  0  0
 44 46  1  0  0  0  0
 46 43  1  0  0  0  0
 46 45  1  0  0  0  0
M  END
>  <MODEL>
2

>  <REMARK>
 VINA RESULT:      -7.6      3.527      7.128
  Name = 
  11 active torsions:
  status: ('A' for Active; 'I' for Inactive)
    1  A    between atoms: C_1  and  C_9
    2  A    between atoms: C_1  and  C_34
    3  A    between atoms: N_2  and  C_18
    4  A    between atoms: N_2  and  N_19
    5  A    between atoms: N_2  and  C_28
    6  A    between atoms: C_4  and  N_40
    7  A    between atoms: C_6  and  C_43
    8  A    between atoms: C_12  and  N_19
    9  A    between atoms: C_12  and  C_33
   10  A    between atoms: C_18  and  C_34
   11  A    between atoms: C_20  and  N_40
                            x       y       z     vdW  Elec       q    Type
                         _______ _______ _______ _____ _____    ______ ____

>  <TORSDO>
F 11

$$$$
=
 OpenBabel11042412503D

 46 50  0  0  1  0  0  0  0  0999 V2000
  189.9480  177.7300  140.8010 O   0  0  0  0  0  0  0  0  0  0  0  0
  188.2240  176.1150  136.9410 C   0  0  0  0  0  0  0  0  0  0  0  0
  187.4670  174.9520  136.7820 C   0  0  0  0  0  3  0  0  0  0  0  0
  186.0850  174.9680  136.9440 C   0  0  0  0  0  0  0  0  0  0  0  0
  189.8700  177.8470  139.5490 C   0  0  0  0  0  0  0  0  0  0  0  0
  185.3830  173.7760  136.7600 C   0  0  0  0  0  3  0  0  0  0  0  0
  192.1370  173.3560  136.0810 C   0  0  0  0  0  0  0  0  0  0  0  0
  186.1850  177.3420  137.5050 C   0  0  0  0  0  0  0  0  0  0  0  0
  187.5820  177.3110  137.3120 C   0  0  0  0  0  0  0  0  0  0  0  0
  193.2560  172.7860  136.8840 C   0  0  0  0  0  1  0  0  0  0  0  0
  192.2570  177.1300  139.3830 C   0  0  0  0  0  1  0  0  0  0  0  0
  190.9110  177.2090  138.6670 C   0  0  1  0  0  3  0  0  0  0  0  0
  191.5190  174.9120  137.9050 N   0  0  0  0  0  2  0  0  0  0  0  0
  188.7720  178.5800  138.9960 N   0  0  0  0  0  2  0  0  0  0  0  0
  189.7210  176.0790  136.7890 C   0  0  2  0  0  3  0  0  0  0  0  0
  191.3140  174.3960  136.6180 N   0  0  0  0  0  0  0  0  0  0  0  0
  183.9990  173.7470  136.8980 C   0  0  0  0  0  3  0  0  0  0  0  0
  188.4000  178.5420  137.5880 C   0  0  0  0  0  2  0  0  0  0  0  0
  185.4070  176.1670  137.2900 C   0  0  0  0  0  0  0  0  0  0  0  0
  183.3090  174.9130  137.2130 C   0  0  0  0  0  3  0  0  0  0  0  0
  191.9250  172.9110  134.9230 O   0  0  0  0  0  0  0  0  0  0  0  0
  183.9870  176.1210  137.4120 C   0  0  0  0  0  0  0  0  0  0  0  0
  190.2240  174.9860  135.8770 C   0  0  0  0  0  2  0  0  0  0  0  0
  190.4200  175.8560  138.1270 C   0  0  2  0  0  3  0  0  0  0  0  0
  183.1340  177.3180  137.6730 C   0  0  0  0  0  2  0  0  0  0  0  0
  181.8590  176.9130  138.0650 O   0  0  0  0  0  1  0  0  0  0  0  0
  185.5900  178.5550  137.9850 N   0  0  0  0  0  2  0  0  0  0  0  0
  185.0680  178.6890  139.3110 C   0  0  0  0  0  0  0  0  0  0  0  0
  183.2770  179.3870  140.7840 C   0  0  0  0  0  3  0  0  0  0  0  0
  185.2890  178.3930  141.7220 C   0  0  0  0  0  0  0  0  0  0  0  0
  184.0160  178.9600  141.8910 C   0  0  0  0  0  3  0  0  0  0  0  0
  185.8040  178.2600  140.4250 C   0  0  0  0  0  3  0  0  0  0  0  0
  183.8030  179.2510  139.4960 C   0  0  0  0  0  3  0  0  0  0  0  0
  186.0570  177.9390  142.8560 N   0  0  0  0  0  0  0  0  0  0  0  0
  187.5120  177.8540  142.7950 C   0  0  0  0  0  2  0  0  0  0  0  0
  187.9800  176.5280  143.3700 C   0  0  0  0  0  2  0  0  0  0  0  0
  189.1650  176.7480  144.2920 C   0  0  2  0  0  3  0  0  0  0  0  0
  189.3240  178.0980  144.5490 F   0  0  0  0  0  0  0  0  0  0  0  0
  190.4040  176.1980  143.6690 C   0  0  0  0  0  0  0  0  0  0  0  0
  190.3400  175.2230  142.8750 O   0  0  0  0  0  0  0  0  0  0  0  0
  191.6680  176.7630  143.9950 N   0  0  0  0  0  1  0  0  0  0  0  0
  185.4400  177.7570  144.1040 N   0  0  0  0  0  2  0  0  0  0  0  0
  185.9660  178.7710  145.0070 C   0  0  0  0  0  2  0  0  0  0  0  0
  185.4000  178.9270  147.3120 F   0  0  0  0  0  0  0  0  0  0  0  0
  187.4760  178.2180  146.7630 F   0  0  0  0  0  0  0  0  0  0  0  0
  186.1420  178.1970  146.4020 C   0  0  0  0  0  3  0  0  0  0  0  0
  2  9  1  0  0  0  0
  3  2  2  0  0  0  0
  3  4  1  0  0  0  0
  4 19  1  0  0  0  0
  5  1  2  0  0  0  0
  6 17  1  0  0  0  0
  6  4  2  0  0  0  0
  7 16  1  0  0  0  0
  7 10  1  0  0  0  0
  8 27  1  0  0  0  0
  9  8  2  0  0  0  0
  9 18  1  0  0  0  0
 12 11  1  1  0  0  0
 12  5  1  0  0  0  0
 14  5  1  0  0  0  0
 15 23  1  6  0  0  0
 15  2  1  0  0  0  0
 15 24  1  0  0  0  0
 16 13  1  0  0  0  0
 17 20  2  0  0  0  0
 18 14  1  0  0  0  0
 19 22  2  0  0  0  0
 19  8  1  0  0  0  0
 20 22  1  0  0  0  0
 21  7  2  0  0  0  0
 22 25  1  0  0  0  0
 23 16  1  0  0  0  0
 24 13  1  6  0  0  0
 24 12  1  0  0  0  0
 25 26  1  0  0  0  0
 27 28  1  0  0  0  0
 28 33  2  0  0  0  0
 28 32  1  0  0  0  0
 29 31  2  0  0  0  0
 30 31  1  0  0  0  0
 30 34  1  0  0  0  0
 32 30  2  0  0  0  0
 33 29  1  0  0  0  0
 34 42  1  0  0  0  0
 35 34  1  0  0  0  0
 35 36  1  0  0  0  0
 36 37  1  0  0  0  0
 37 38  1  6  0  0  0
 39 41  1  0  0  0  0
 39 37  1  0  0  0  0
 40 39  2  0  0  0  0
 42 43  1  0  0  0  0
 43 46  1  0  0  0  0
 46 45  1  0  0  0  0
 46 44  1  0  0  0  0
M  END
>  <MODEL>
3

>  <REMARK>
 VINA RESULT:      -7.3      2.782      6.364
  Name = 
  11 active torsions:
  status: ('A' for Active; 'I' for Inactive)
    1  A    between atoms: C_1  and  C_9
    2  A    between atoms: C_1  and  C_34
    3  A    between atoms: N_2  and  C_18
    4  A    between atoms: N_2  and  N_19
    5  A    between atoms: N_2  and  C_28
    6  A    between atoms: C_4  and  N_40
    7  A    between atoms: C_6  and  C_43
    8  A    between atoms: C_12  and  N_19
    9  A    between atoms: C_12  and  C_33
   10  A    between atoms: C_18  and  C_34
   11  A    between atoms: C_20  and  N_40
                            x       y       z     vdW  Elec       q    Type
                         _______ _______ _______ _____ _____    ______ ____

>  <TORSDO>
F 11

$$$$
=
 OpenBabel11042412503D

 46 50  0  0  1  0  0  0  0  0999 V2000
  181.0250  179.2160  137.2190 O   0  0  0  0  0  0  0  0  0  0  0  0
  184.0770  175.8770  137.3570 C   0  0  0  0  0  0  0  0  0  0  0  0
  184.9690  175.5140  136.3470 C   0  0  0  0  0  3  0  0  0  0  0  0
  186.2130  176.1280  136.2330 C   0  0  0  0  0  0  0  0  0  0  0  0
  181.4910  178.2380  137.8610 C   0  0  0  0  0  0  0  0  0  0  0  0
  187.0650  175.7130  135.2090 C   0  0  0  0  0  3  0  0  0  0  0  0
  180.9880  172.6650  135.4070 C   0  0  0  0  0  0  0  0  0  0  0  0
  185.6720  177.5600  138.1340 C   0  0  0  0  0  0  0  0  0  0  0  0
  184.4250  176.9090  138.2480 C   0  0  0  0  0  0  0  0  0  0  0  0
  179.7410  172.7200  134.5940 C   0  0  0  0  0  1  0  0  0  0  0  0
  179.3830  176.9840  137.3880 C   0  0  0  0  0  1  0  0  0  0  0  0
  180.8710  176.8730  137.7110 C   0  0  1  0  0  3  0  0  0  0  0  0
  180.8030  175.0620  135.9960 N   0  0  0  0  0  2  0  0  0  0  0  0
  182.6200  178.4530  138.7150 N   0  0  0  0  0  2  0  0  0  0  0  0
  182.7240  175.2250  137.4540 C   0  0  2  0  0  3  0  0  0  0  0  0
  181.4710  173.8330  136.0770 N   0  0  0  0  0  0  0  0  0  0  0  0
  188.3240  176.2880  135.0650 C   0  0  0  0  0  3  0  0  0  0  0  0
  183.4300  177.3790  139.2720 C   0  0  0  0  0  2  0  0  0  0  0  0
  186.6030  177.1520  137.1360 C   0  0  0  0  0  0  0  0  0  0  0  0
  188.7390  177.2770  135.9510 C   0  0  0  0  0  3  0  0  0  0  0  0
  181.6130  171.5750  135.4960 O   0  0  0  0  0  0  0  0  0  0  0  0
  187.9030  177.7190  136.9820 C   0  0  0  0  0  0  0  0  0  0  0  0
  182.6700  173.8280  136.8840 C   0  0  0  0  0  2  0  0  0  0  0  0
  181.6580  176.0190  136.7050 C   0  0  2  0  0  3  0  0  0  0  0  0
  188.4850  178.7310  137.9120 C   0  0  0  0  0  2  0  0  0  0  0  0
  188.7130  179.9250  137.2290 O   0  0  0  0  0  1  0  0  0  0  0  0
  185.9400  178.6750  138.9960 N   0  0  0  0  0  2  0  0  0  0  0  0
  186.2850  178.5210  140.3760 C   0  0  0  0  0  0  0  0  0  0  0  0
  185.6160  178.5190  142.7040 C   0  0  0  0  0  3  0  0  0  0  0  0
  187.9330  178.0660  142.1170 C   0  0  0  0  0  0  0  0  0  0  0  0
  186.9270  178.2200  143.0850 C   0  0  0  0  0  3  0  0  0  0  0  0
  187.5990  178.2170  140.7640 C   0  0  0  0  0  3  0  0  0  0  0  0
  185.2960  178.6690  141.3510 C   0  0  0  0  0  3  0  0  0  0  0  0
  189.2870  177.7470  142.4970 N   0  0  0  0  0  0  0  0  0  0  0  0
  189.9100  178.3670  143.6600 C   0  0  0  0  0  2  0  0  0  0  0  0
  189.9290  177.3910  144.8240 C   0  0  0  0  0  2  0  0  0  0  0  0
  191.3480  177.2090  145.3300 C   0  0  2  0  0  3  0  0  0  0  0  0
  192.0660  176.4100  144.4570 F   0  0  0  0  0  0  0  0  0  0  0  0
  191.3310  176.5930  146.6870 C   0  0  0  0  0  0  0  0  0  0  0  0
  190.4830  176.9600  147.5430 O   0  0  0  0  0  0  0  0  0  0  0  0
  192.2940  175.6030  147.0250 N   0  0  0  0  0  1  0  0  0  0  0  0
  189.9680  176.6890  141.8730 N   0  0  0  0  0  2  0  0  0  0  0  0
  191.1790  177.2360  141.2770 C   0  0  0  0  0  2  0  0  0  0  0  0
  190.1670  176.1790  139.4020 F   0  0  0  0  0  0  0  0  0  0  0  0
  192.3690  176.6810  139.2910 F   0  0  0  0  0  0  0  0  0  0  0  0
  191.1380  177.0920  139.7660 C   0  0  0  0  0  3  0  0  0  0  0  0
  1  5  2  0  0  0  0
  2 15  1  0  0  0  0
  2  9  1  0  0  0  0
  3  2  2  0  0  0  0
  4  3  1  0  0  0  0
  4 19  1  0  0  0  0
  5 14  1  0  0  0  0
  6  4  2  0  0  0  0
  7 21  2  0  0  0  0
  7 16  1  0  0  0  0
  8  9  2  0  0  0  0
  8 27  1  0  0  0  0
  9 18  1  0  0  0  0
 10  7  1  0  0  0  0
 12 11  1  6  0  0  0
 12  5  1  0  0  0  0
 13 16  1  0  0  0  0
 14 18  1  0  0  0  0
 15 23  1  6  0  0  0
 16 23  1  0  0  0  0
 17  6  1  0  0  0  0
 17 20  2  0  0  0  0
 19  8  1  0  0  0  0
 20 22  1  0  0  0  0
 22 19  2  0  0  0  0
 22 25  1  0  0  0  0
 24 13  1  1  0  0  0
 24 15  1  0  0  0  0
 24 12  1  0  0  0  0
 26 25  1  0  0  0  0
 27 28  1  0  0  0  0
 28 32  2  0  0  0  0
 28 33  1  0  0  0  0
 29 31  1  0  0  0  0
 30 34  1  0  0  0  0
 30 31  2  0  0  0  0
 32 30  1  0  0  0  0
 33 29  2  0  0  0  0
 34 35  1  0  0  0  0
 35 36  1  0  0  0  0
 36 37  1  0  0  0  0
 37 38  1  6  0  0  0
 37 39  1  0  0  0  0
 39 41  1  0  0  0  0
 39 40  2  0  0  0  0
 42 34  1  0  0  0  0
 43 42  1  0  0  0  0
 44 46  1  0  0  0  0
 45 46  1  0  0  0  0
 46 43  1  0  0  0  0
M  END
>  <MODEL>
4

>  <REMARK>
 VINA RESULT:      -7.3      2.990      3.921
  Name = 
  11 active torsions:
  status: ('A' for Active; 'I' for Inactive)
    1  A    between atoms: C_1  and  C_9
    2  A    between atoms: C_1  and  C_34
    3  A    between atoms: N_2  and  C_18
    4  A    between atoms: N_2  and  N_19
    5  A    between atoms: N_2  and  C_28
    6  A    between atoms: C_4  and  N_40
    7  A    between atoms: C_6  and  C_43
    8  A    between atoms: C_12  and  N_19
    9  A    between atoms: C_12  and  C_33
   10  A    between atoms: C_18  and  C_34
   11  A    between atoms: C_20  and  N_40
                            x       y       z     vdW  Elec       q    Type
                         _______ _______ _______ _____ _____    ______ ____

>  <TORSDO>
F 11

$$$$
=
 OpenBabel11042412503D

 46 50  0  0  1  0  0  0  0  0999 V2000
  186.3540  178.1340  134.9600 O   0  0  0  0  0  0  0  0  0  0  0  0
  187.7530  174.2410  136.7950 C   0  0  0  0  0  0  0  0  0  0  0  0
  188.2420  173.1220  136.1170 C   0  0  0  0  0  3  0  0  0  0  0  0
  189.5920  173.0120  135.7970 C   0  0  0  0  0  0  0  0  0  0  0  0
  186.4770  177.4440  136.0070 C   0  0  0  0  0  0  0  0  0  0  0  0
  190.0220  171.8640  135.1300 C   0  0  0  0  0  3  0  0  0  0  0  0
  183.3500  172.2100  136.4010 C   0  0  0  0  0  0  0  0  0  0  0  0
  189.9990  175.2070  136.7830 C   0  0  0  0  0  0  0  0  0  0  0  0
  188.6310  175.2900  137.1210 C   0  0  0  0  0  0  0  0  0  0  0  0
  182.1200  172.4400  135.5910 C   0  0  0  0  0  1  0  0  0  0  0  0
  183.9940  177.1720  136.0600 C   0  0  0  0  0  1  0  0  0  0  0  0
  185.3370  176.5770  136.4760 C   0  0  1  0  0  3  0  0  0  0  0  0
  184.2590  174.4310  135.7980 N   0  0  0  0  0  2  0  0  0  0  0  0
  187.7160  177.4950  136.7210 N   0  0  0  0  0  2  0  0  0  0  0  0
  186.2860  174.3610  137.1120 C   0  0  2  0  0  3  0  0  0  0  0  0
  184.3690  173.2100  136.4760 N   0  0  0  0  0  0  0  0  0  0  0  0
  191.3650  171.7030  134.8020 C   0  0  0  0  0  3  0  0  0  0  0  0
  188.0940  176.5430  137.7550 C   0  0  0  0  0  2  0  0  0  0  0  0
  190.5070  174.0420  136.1390 C   0  0  0  0  0  0  0  0  0  0  0  0
  192.2850  172.6880  135.1470 C   0  0  0  0  0  3  0  0  0  0  0  0
  183.4800  171.1210  137.0200 O   0  0  0  0  0  0  0  0  0  0  0  0
  191.8820  173.8530  135.8080 C   0  0  0  0  0  0  0  0  0  0  0  0
  185.5740  173.0370  137.2550 C   0  0  0  0  0  2  0  0  0  0  0  0
  185.5330  175.1210  136.0240 C   0  0  2  0  0  3  0  0  0  0  0  0
  192.9690  174.8020  136.1910 C   0  0  0  0  0  2  0  0  0  0  0  0
  193.8850  174.1600  137.0240 O   0  0  0  0  0  1  0  0  0  0  0  0
  190.8340  176.3450  137.0400 N   0  0  0  0  0  2  0  0  0  0  0  0
  191.3110  176.6740  138.3490 C   0  0  0  0  0  0  0  0  0  0  0  0
  193.1600  177.2160  139.8170 C   0  0  0  0  0  3  0  0  0  0  0  0
  190.9020  177.1090  140.7140 C   0  0  0  0  0  0  0  0  0  0  0  0
  192.2780  177.3240  140.8950 C   0  0  0  0  0  3  0  0  0  0  0  0
  190.4300  176.7870  139.4340 C   0  0  0  0  0  3  0  0  0  0  0  0
  192.6770  176.8910  138.5460 C   0  0  0  0  0  3  0  0  0  0  0  0
  189.9790  177.2290  141.8170 N   0  0  0  0  0  0  0  0  0  0  0  0
  189.0750  178.3680  141.9230 C   0  0  0  0  0  2  0  0  0  0  0  0
  187.6950  177.9870  141.4180 C   0  0  0  0  0  2  0  0  0  0  0  0
  186.6540  178.2540  142.4910 C   0  0  2  0  0  3  0  0  0  0  0  0
  186.4930  177.1330  143.2860 F   0  0  0  0  0  0  0  0  0  0  0  0
  185.3550  178.6220  141.8600 C   0  0  0  0  0  0  0  0  0  0  0  0
  184.2680  178.2410  142.3700 O   0  0  0  0  0  0  0  0  0  0  0  0
  185.3440  179.3870  140.6610 N   0  0  0  0  0  1  0  0  0  0  0  0
  189.7940  176.1570  142.7060 N   0  0  0  0  0  2  0  0  0  0  0  0
  190.0000  176.6650  144.0550 C   0  0  0  0  0  2  0  0  0  0  0  0
  192.0050  175.4060  143.8210 F   0  0  0  0  0  0  0  0  0  0  0  0
  191.5410  176.3200  145.8370 F   0  0  0  0  0  0  0  0  0  0  0  0
  191.4510  176.4940  144.4690 C   0  0  0  0  0  3  0  0  0  0  0  0
  1  5  2  0  0  0  0
  2 15  1  0  0  0  0
  2  9  1  0  0  0  0
  3  2  2  0  0  0  0
  4  3  1  0  0  0  0
  4 19  1  0  0  0  0
  5 12  1  0  0  0  0
  5 14  1  0  0  0  0
  6  4  2  0  0  0  0
  7 16  1  0  0  0  0
  7 21  2  0  0  0  0
  8 27  1  0  0  0  0
  8  9  2  0  0  0  0
  9 18  1  0  0  0  0
 10  7  1  0  0  0  0
 12 11  1  6  0  0  0
 13 16  1  0  0  0  0
 14 18  1  0  0  0  0
 15 23  1  6  0  0  0
 16 23  1  0  0  0  0
 17  6  1  0  0  0  0
 17 20  2  0  0  0  0
 19  8  1  0  0  0  0
 20 22  1  0  0  0  0
 22 19  2  0  0  0  0
 22 25  1  0  0  0  0
 24 13  1  1  0  0  0
 24 12  1  0  0  0  0
 24 15  1  0  0  0  0
 25 26  1  0  0  0  0
 27 28  1  0  0  0  0
 28 33  2  0  0  0  0
 28 32  1  0  0  0  0
 29 31  2  0  0  0  0
 30 31  1  0  0  0  0
 30 34  1  0  0  0  0
 32 30  2  0  0  0  0
 33 29  1  0  0  0  0
 34 35  1  0  0  0  0
 34 42  1  0  0  0  0
 36 35  1  0  0  0  0
 36 37  1  0  0  0  0
 37 38  1  6  0  0  0
 39 40  2  0  0  0  0
 39 37  1  0  0  0  0
 41 39  1  0  0  0  0
 42 43  1  0  0  0  0
 43 46  1  0  0  0  0
 44 46  1  0  0  0  0
 46 45  1  0  0  0  0
M  END
>  <MODEL>
5

>  <REMARK>
 VINA RESULT:      -7.1      3.674      5.644
  Name = 
  11 active torsions:
  status: ('A' for Active; 'I' for Inactive)
    1  A    between atoms: C_1  and  C_9
    2  A    between atoms: C_1  and  C_34
    3  A    between atoms: N_2  and  C_18
    4  A    between atoms: N_2  and  N_19
    5  A    between atoms: N_2  and  C_28
    6  A    between atoms: C_4  and  N_40
    7  A    between atoms: C_6  and  C_43
    8  A    between atoms: C_12  and  N_19
    9  A    between atoms: C_12  and  C_33
   10  A    between atoms: C_18  and  C_34
   11  A    between atoms: C_20  and  N_40
                            x       y       z     vdW  Elec       q    Type
                         _______ _______ _______ _____ _____    ______ ____

>  <TORSDO>
F 11

$$$$
=
 OpenBabel11042412503D

 46 50  0  0  1  0  0  0  0  0999 V2000
  180.8450  177.0770  136.0840 O   0  0  0  0  0  0  0  0  0  0  0  0
  184.7320  174.9600  137.0290 C   0  0  0  0  0  0  0  0  0  0  0  0
  185.8080  174.7560  136.1620 C   0  0  0  0  0  3  0  0  0  0  0  0
  186.8080  175.7130  136.0240 C   0  0  0  0  0  0  0  0  0  0  0  0
  181.5070  176.4090  136.9230 C   0  0  0  0  0  0  0  0  0  0  0  0
  187.8640  175.4470  135.1520 C   0  0  0  0  0  3  0  0  0  0  0  0
  183.0340  170.6700  135.4860 C   0  0  0  0  0  0  0  0  0  0  0  0
  185.6290  177.1630  137.5950 C   0  0  0  0  0  0  0  0  0  0  0  0
  184.6370  176.1700  137.7400 C   0  0  0  0  0  0  0  0  0  0  0  0
  181.9370  170.1980  134.5940 C   0  0  0  0  0  1  0  0  0  0  0  0
  179.9570  174.4870  136.5420 C   0  0  0  0  0  1  0  0  0  0  0  0
  181.3560  174.9110  136.9800 C   0  0  1  0  0  3  0  0  0  0  0  0
  182.0550  172.9400  135.6190 N   0  0  0  0  0  2  0  0  0  0  0  0
  182.4030  177.1010  137.7980 N   0  0  0  0  0  2  0  0  0  0  0  0
  183.6420  173.9290  137.1500 C   0  0  2  0  0  3  0  0  0  0  0  0
  183.0510  172.0180  135.9650 N   0  0  0  0  0  0  0  0  0  0  0  0
  188.8940  176.3680  134.9920 C   0  0  0  0  0  3  0  0  0  0  0  0
  183.4290  176.4420  138.5930 C   0  0  0  0  0  2  0  0  0  0  0  0
  186.7540  176.9320  136.7520 C   0  0  0  0  0  0  0  0  0  0  0  0
  188.8770  177.5590  135.7110 C   0  0  0  0  0  3  0  0  0  0  0  0
  183.9460  169.8660  135.8120 O   0  0  0  0  0  0  0  0  0  0  0  0
  187.8270  177.8580  136.5860 C   0  0  0  0  0  0  0  0  0  0  0  0
  184.0870  172.5200  136.8380 C   0  0  0  0  0  2  0  0  0  0  0  0
  182.4830  174.2160  136.1990 C   0  0  2  0  0  3  0  0  0  0  0  0
  187.9540  179.1310  137.3560 C   0  0  0  0  0  2  0  0  0  0  0  0
  189.0920  179.0840  138.1610 O   0  0  0  0  0  1  0  0  0  0  0  0
  185.4360  178.4210  138.2570 N   0  0  0  0  0  2  0  0  0  0  0  0
  185.4500  178.5550  139.6820 C   0  0  0  0  0  0  0  0  0  0  0  0
  184.2900  179.1150  141.7330 C   0  0  0  0  0  3  0  0  0  0  0  0
  186.6110  178.3910  141.8210 C   0  0  0  0  0  0  0  0  0  0  0  0
  185.4420  178.8220  142.4690 C   0  0  0  0  0  3  0  0  0  0  0  0
  186.6020  178.2590  140.4250 C   0  0  0  0  0  3  0  0  0  0  0  0
  184.2950  178.9810  140.3420 C   0  0  0  0  0  3  0  0  0  0  0  0
  187.8030  178.0750  142.5710 N   0  0  0  0  0  0  0  0  0  0  0  0
  187.7680  177.1260  143.6780 C   0  0  0  0  0  2  0  0  0  0  0  0
  187.9720  177.8560  144.9940 C   0  0  0  0  0  2  0  0  0  0  0  0
  186.9790  177.3550  146.0280 C   0  0  2  0  0  3  0  0  0  0  0  0
  185.9030  176.7510  145.4010 F   0  0  0  0  0  0  0  0  0  0  0  0
  186.5060  178.4890  146.8720 C   0  0  0  0  0  0  0  0  0  0  0  0
  187.2090  178.9090  147.8280 O   0  0  0  0  0  0  0  0  0  0  0  0
  185.2400  179.0840  146.6100 N   0  0  0  0  0  1  0  0  0  0  0  0
  189.0580  178.5230  142.1280 N   0  0  0  0  0  2  0  0  0  0  0  0
  189.9770  177.3960  142.2010 C   0  0  0  0  0  2  0  0  0  0  0  0
  192.1430  176.7470  142.9430 F   0  0  0  0  0  0  0  0  0  0  0  0
  191.1410  178.5010  143.9600 F   0  0  0  0  0  0  0  0  0  0  0  0
  191.3180  177.8410  142.7590 C   0  0  0  0  0  3  0  0  0  0  0  0
  1  5  2  0  0  0  0
  2 15  1  0  0  0  0
  2  9  1  0  0  0  0
  3  2  2  0  0  0  0
  4  3  1  0  0  0  0
  4 19  1  0  0  0  0
  5 12  1  0  0  0  0
  5 14  1  0  0  0  0
  6  4  2  0  0  0  0
  7 21  2  0  0  0  0
  7 16  1  0  0  0  0
  8  9  2  0  0  0  0
  8 27  1  0  0  0  0
  9 18  1  0  0  0  0
 10  7  1  0  0  0  0
 12 11  1  6  0  0  0
 13 16  1  0  0  0  0
 14 18  1  0  0  0  0
 15 23  1  6  0  0  0
 16 23  1  0  0  0  0
 17  6  1  0  0  0  0
 17 20  2  0  0  0  0
 19  8  1  0  0  0  0
 20 22  1  0  0  0  0
 22 19  2  0  0  0  0
 22 25  1  0  0  0  0
 24 13  1  1  0  0  0
 24 12  1  0  0  0  0
 24 15  1  0  0  0  0
 25 26  1  0  0  0  0
 27 28  1  0  0  0  0
 28 33  2  0  0  0  0
 28 32  1  0  0  0  0
 29 31  2  0  0  0  0
 30 31  1  0  0  0  0
 30 34  1  0  0  0  0
 32 30  2  0  0  0  0
 33 29  1  0  0  0  0
 34 35  1  0  0  0  0
 35 36  1  0  0  0  0
 36 37  1  0  0  0  0
 37 38  1  6  0  0  0
 37 39  1  0  0  0  0
 39 40  2  0  0  0  0
 41 39  1  0  0  0  0
 42 43  1  0  0  0  0
 42 34  1  0  0  0  0
 43 46  1  0  0  0  0
 46 44  1  0  0  0  0
 46 45  1  0  0  0  0
M  END
>  <MODEL>
6

>  <REMARK>
 VINA RESULT:      -7.1      2.892      4.388
  Name = 
  11 active torsions:
  status: ('A' for Active; 'I' for Inactive)
    1  A    between atoms: C_1  and  C_9
    2  A    between atoms: C_1  and  C_34
    3  A    between atoms: N_2  and  C_18
    4  A    between atoms: N_2  and  N_19
    5  A    between atoms: N_2  and  C_28
    6  A    between atoms: C_4  and  N_40
    7  A    between atoms: C_6  and  C_43
    8  A    between atoms: C_12  and  N_19
    9  A    between atoms: C_12  and  C_33
   10  A    between atoms: C_18  and  C_34
   11  A    between atoms: C_20  and  N_40
                            x       y       z     vdW  Elec       q    Type
                         _______ _______ _______ _____ _____    ______ ____

>  <TORSDO>
F 11

$$$$
=
 OpenBabel11042412503D

 46 50  0  0  1  0  0  0  0  0999 V2000
  184.7580  177.1620  142.7830 O   0  0  0  0  0  0  0  0  0  0  0  0
  188.9810  178.0170  141.4000 C   0  0  0  0  0  0  0  0  0  0  0  0
  189.9050  177.0940  140.9050 C   0  0  0  0  0  3  0  0  0  0  0  0
  189.9390  176.7670  139.5530 C   0  0  0  0  0  0  0  0  0  0  0  0
  185.6800  178.0130  142.6690 C   0  0  0  0  0  0  0  0  0  0  0  0
  190.8930  175.8470  139.1180 C   0  0  0  0  0  3  0  0  0  0  0  0
  190.8490  177.1130  145.8000 C   0  0  0  0  0  0  0  0  0  0  0  0
  188.0450  178.2550  139.1530 C   0  0  0  0  0  0  0  0  0  0  0  0
  188.0430  178.5920  140.5240 C   0  0  0  0  0  0  0  0  0  0  0  0
  190.4280  176.3730  147.0230 C   0  0  0  0  0  1  0  0  0  0  0  0
  185.9520  177.9810  145.1520 C   0  0  0  0  0  1  0  0  0  0  0  0
  186.6320  178.2510  143.8130 C   0  0  1  0  0  3  0  0  0  0  0  0
  188.5490  177.0690  144.8850 N   0  0  0  0  0  2  0  0  0  0  0  0
  185.8050  178.7280  141.4350 N   0  0  0  0  0  2  0  0  0  0  0  0
  188.9380  178.3430  142.8690 C   0  0  2  0  0  3  0  0  0  0  0  0
  189.8980  177.4340  144.7810 N   0  0  0  0  0  0  0  0  0  0  0  0
  190.9730  175.5000  137.7730 C   0  0  0  0  0  3  0  0  0  0  0  0
  186.9790  179.5060  141.0650 C   0  0  0  0  0  2  0  0  0  0  0  0
  189.0220  177.3540  138.6400 C   0  0  0  0  0  0  0  0  0  0  0  0
  190.1020  176.0790  136.8540 C   0  0  0  0  0  3  0  0  0  0  0  0
  192.0550  177.4520  145.6750 O   0  0  0  0  0  0  0  0  0  0  0  0
  189.1300  176.9980  137.2630 C   0  0  0  0  0  0  0  0  0  0  0  0
  190.2560  178.1570  143.5820 C   0  0  0  0  0  2  0  0  0  0  0  0
  187.9370  177.4640  143.6140 C   0  0  2  0  0  3  0  0  0  0  0  0
  188.3030  177.6060  136.1790 C   0  0  0  0  0  2  0  0  0  0  0  0
  187.9730  176.6340  135.2350 O   0  0  0  0  0  1  0  0  0  0  0  0
  187.0050  178.7850  138.3200 N   0  0  0  0  0  2  0  0  0  0  0  0
  185.7030  178.1960  138.2400 C   0  0  0  0  0  0  0  0  0  0  0  0
  184.2950  176.3340  137.5970 C   0  0  0  0  0  3  0  0  0  0  0  0
  183.2980  178.2930  138.6400 C   0  0  0  0  0  0  0  0  0  0  0  0
  183.1710  177.0140  138.0740 C   0  0  0  0  0  3  0  0  0  0  0  0
  184.5720  178.8730  138.7200 C   0  0  0  0  0  3  0  0  0  0  0  0
  185.5580  176.9250  137.6810 C   0  0  0  0  0  3  0  0  0  0  0  0
  182.1470  179.0000  139.1460 N   0  0  0  0  0  0  0  0  0  0  0  0
  182.1330  179.5480  140.4970 C   0  0  0  0  0  2  0  0  0  0  0  0
  181.9030  178.4360  141.5070 C   0  0  0  0  0  2  0  0  0  0  0  0
  181.3100  179.0040  142.7830 C   0  0  2  0  0  3  0  0  0  0  0  0
  182.2190  178.8940  143.8210 F   0  0  0  0  0  0  0  0  0  0  0  0
  180.0530  178.2800  143.1280 C   0  0  0  0  0  0  0  0  0  0  0  0
  179.6240  178.2760  144.3120 O   0  0  0  0  0  0  0  0  0  0  0  0
  179.3490  177.5680  142.1180 N   0  0  0  0  0  1  0  0  0  0  0  0
  181.0930  179.3470  138.2840 N   0  0  0  0  0  2  0  0  0  0  0  0
  180.5390  180.6090  138.7550 C   0  0  0  0  0  2  0  0  0  0  0  0
  181.1800  181.2390  136.5520 F   0  0  0  0  0  0  0  0  0  0  0  0
  182.0390  182.4000  138.2920 F   0  0  0  0  0  0  0  0  0  0  0  0
  180.9230  181.7390  137.8150 C   0  0  0  0  0  3  0  0  0  0  0  0
  2 15  1  0  0  0  0
  3  2  1  0  0  0  0
  4  3  2  0  0  0  0
  5  1  2  0  0  0  0
  5 12  1  0  0  0  0
  6  4  1  0  0  0  0
  7 10  1  0  0  0  0
  8  9  1  0  0  0  0
  9 18  1  0  0  0  0
  9  2  2  0  0  0  0
 12 11  1  1  0  0  0
 14  5  1  0  0  0  0
 15 23  1  1  0  0  0
 15 24  1  0  0  0  0
 16 13  1  0  0  0  0
 16  7  1  0  0  0  0
 17  6  2  0  0  0  0
 18 14  1  0  0  0  0
 19  8  2  0  0  0  0
 19  4  1  0  0  0  0
 20 22  2  0  0  0  0
 20 17  1  0  0  0  0
 21  7  2  0  0  0  0
 22 19  1  0  0  0  0
 23 16  1  0  0  0  0
 24 12  1  0  0  0  0
 24 13  1  1  0  0  0
 25 22  1  0  0  0  0
 26 25  1  0  0  0  0
 27  8  1  0  0  0  0
 28 27  1  0  0  0  0
 28 32  1  0  0  0  0
 29 33  1  0  0  0  0
 29 31  2  0  0  0  0
 30 32  2  0  0  0  0
 30 34  1  0  0  0  0
 31 30  1  0  0  0  0
 33 28  2  0  0  0  0
 34 35  1  0  0  0  0
 35 36  1  0  0  0  0
 36 37  1  0  0  0  0
 37 39  1  0  0  0  0
 37 38  1  1  0  0  0
 39 40  2  0  0  0  0
 41 39  1  0  0  0  0
 42 43  1  0  0  0  0
 42 34  1  0  0  0  0
 44 46  1  0  0  0  0
 46 45  1  0  0  0  0
 46 43  1  0  0  0  0
M  END
>  <MODEL>
7

>  <REMARK>
 VINA RESULT:      -7.0      2.756      7.673
  Name = 
  11 active torsions:
  status: ('A' for Active; 'I' for Inactive)
    1  A    between atoms: C_1  and  C_9
    2  A    between atoms: C_1  and  C_34
    3  A    between atoms: N_2  and  C_18
    4  A    between atoms: N_2  and  N_19
    5  A    between atoms: N_2  and  C_28
    6  A    between atoms: C_4  and  N_40
    7  A    between atoms: C_6  and  C_43
    8  A    between atoms: C_12  and  N_19
    9  A    between atoms: C_12  and  C_33
   10  A    between atoms: C_18  and  C_34
   11  A    between atoms: C_20  and  N_40
                            x       y       z     vdW  Elec       q    Type
                         _______ _______ _______ _____ _____    ______ ____

>  <TORSDO>
F 11

$$$$
=
 OpenBabel11042412503D

 46 50  0  0  1  0  0  0  0  0999 V2000
  186.4040  178.0900  134.8750 O   0  0  0  0  0  0  0  0  0  0  0  0
  187.7830  174.1970  136.7250 C   0  0  0  0  0  0  0  0  0  0  0  0
  188.2950  173.0850  136.0540 C   0  0  0  0  0  3  0  0  0  0  0  0
  189.6520  172.9830  135.7650 C   0  0  0  0  0  0  0  0  0  0  0  0
  186.5060  177.3960  135.9210 C   0  0  0  0  0  0  0  0  0  0  0  0
  190.1050  171.8420  135.1030 C   0  0  0  0  0  3  0  0  0  0  0  0
  183.4030  172.1420  136.2220 C   0  0  0  0  0  0  0  0  0  0  0  0
  190.0230  175.1770  136.7690 C   0  0  0  0  0  0  0  0  0  0  0  0
  188.6480  175.2510  137.0750 C   0  0  0  0  0  0  0  0  0  0  0  0
  182.1910  172.3690  135.3850 C   0  0  0  0  0  1  0  0  0  0  0  0
  184.0250  177.1090  135.9160 C   0  0  0  0  0  1  0  0  0  0  0  0
  185.3610  176.5210  136.3600 C   0  0  1  0  0  3  0  0  0  0  0  0
  184.3120  174.3710  135.6490 N   0  0  0  0  0  2  0  0  0  0  0  0
  187.7290  177.4520  136.6640 N   0  0  0  0  0  2  0  0  0  0  0  0
  186.3090  174.3070  137.0090 C   0  0  2  0  0  3  0  0  0  0  0  0
  184.4140  173.1480  136.3240 N   0  0  0  0  0  0  0  0  0  0  0  0
  191.4550  171.6900  134.8050 C   0  0  0  0  0  3  0  0  0  0  0  0
  188.0890  176.4970  137.7030 C   0  0  0  0  0  2  0  0  0  0  0  0
  190.5530  174.0180  136.1320 C   0  0  0  0  0  0  0  0  0  0  0  0
  192.3620  172.6790  135.1750 C   0  0  0  0  0  3  0  0  0  0  0  0
  183.5250  171.0510  136.8380 O   0  0  0  0  0  0  0  0  0  0  0  0
  191.9360  173.8380  135.8320 C   0  0  0  0  0  0  0  0  0  0  0  0
  185.6020  172.9790  137.1290 C   0  0  0  0  0  2  0  0  0  0  0  0
  185.5760  175.0680  135.9070 C   0  0  2  0  0  3  0  0  0  0  0  0
  193.0080  174.7920  136.2440 C   0  0  0  0  0  2  0  0  0  0  0  0
  193.9480  174.1340  137.0370 O   0  0  0  0  0  1  0  0  0  0  0  0
  190.8460  176.3180  137.0500 N   0  0  0  0  0  2  0  0  0  0  0  0
  191.2280  176.6870  138.3790 C   0  0  0  0  0  0  0  0  0  0  0  0
  192.9730  177.2190  139.9730 C   0  0  0  0  0  3  0  0  0  0  0  0
  190.6460  177.2490  140.6810 C   0  0  0  0  0  0  0  0  0  0  0  0
  192.0110  177.4140  140.9670 C   0  0  0  0  0  3  0  0  0  0  0  0
  190.2670  176.8870  139.3800 C   0  0  0  0  0  3  0  0  0  0  0  0
  192.5820  176.8570  138.6810 C   0  0  0  0  0  3  0  0  0  0  0  0
  189.6430  177.4570  141.6960 N   0  0  0  0  0  0  0  0  0  0  0  0
  189.9820  178.0650  142.9780 C   0  0  0  0  0  2  0  0  0  0  0  0
  189.8590  177.0380  144.0900 C   0  0  0  0  0  2  0  0  0  0  0  0
  190.7880  177.3950  145.2360 C   0  0  2  0  0  3  0  0  0  0  0  0
  191.9320  176.6180  145.1810 F   0  0  0  0  0  0  0  0  0  0  0  0
  190.0930  177.1890  146.5390 C   0  0  0  0  0  0  0  0  0  0  0  0
  190.7430  176.8370  147.5590 O   0  0  0  0  0  0  0  0  0  0  0  0
  188.6840  177.3660  146.6230 N   0  0  0  0  0  1  0  0  0  0  0  0
  188.2840  177.2590  141.4010 N   0  0  0  0  0  2  0  0  0  0  0  0
  187.6280  178.5580  141.4640 C   0  0  0  0  0  2  0  0  0  0  0  0
  185.7380  179.6960  142.3560 F   0  0  0  0  0  0  0  0  0  0  0  0
  186.4380  177.8070  143.3850 F   0  0  0  0  0  0  0  0  0  0  0  0
  186.2860  178.4410  142.1660 C   0  0  0  0  0  3  0  0  0  0  0  0
  1  5  2  0  0  0  0
  2 15  1  0  0  0  0
  2  9  1  0  0  0  0
  3  2  2  0  0  0  0
  4  3  1  0  0  0  0
  4 19  1  0  0  0  0
  5 12  1  0  0  0  0
  5 14  1  0  0  0  0
  6  4  2  0  0  0  0
  7 16  1  0  0  0  0
  7 21  2  0  0  0  0
  8 27  1  0  0  0  0
  8  9  2  0  0  0  0
  9 18  1  0  0  0  0
 10  7  1  0  0  0  0
 12 11  1  6  0  0  0
 13 16  1  0  0  0  0
 14 18  1  0  0  0  0
 15 23  1  6  0  0  0
 16 23  1  0  0  0  0
 17  6  1  0  0  0  0
 17 20  2  0  0  0  0
 19  8  1  0  0  0  0
 20 22  1  0  0  0  0
 22 19  2  0  0  0  0
 22 25  1  0  0  0  0
 24 13  1  1  0  0  0
 24 12  1  0  0  0  0
 24 15  1  0  0  0  0
 25 26  1  0  0  0  0
 27 28  1  0  0  0  0
 28 33  2  0  0  0  0
 28 32  1  0  0  0  0
 29 31  2  0  0  0  0
 30 31  1  0  0  0  0
 30 34  1  0  0  0  0
 32 30  2  0  0  0  0
 33 29  1  0  0  0  0
 34 35  1  0  0  0  0
 35 36  1  0  0  0  0
 36 37  1  0  0  0  0
 37 38  1  1  0  0  0
 37 39  1  0  0  0  0
 39 41  1  0  0  0  0
 39 40  2  0  0  0  0
 42 43  1  0  0  0  0
 42 34  1  0  0  0  0
 43 46  1  0  0  0  0
 46 44  1  0  0  0  0
 46 45  1  0  0  0  0
M  END
>  <MODEL>
8

>  <REMARK>
 VINA RESULT:      -6.9      3.463      4.722
  Name = 
  11 active torsions:
  status: ('A' for Active; 'I' for Inactive)
    1  A    between atoms: C_1  and  C_9
    2  A    between atoms: C_1  and  C_34
    3  A    between atoms: N_2  and  C_18
    4  A    between atoms: N_2  and  N_19
    5  A    between atoms: N_2  and  C_28
    6  A    between atoms: C_4  and  N_40
    7  A    between atoms: C_6  and  C_43
    8  A    between atoms: C_12  and  N_19
    9  A    between atoms: C_12  and  C_33
   10  A    between atoms: C_18  and  C_34
   11  A    between atoms: C_20  and  N_40
                            x       y       z     vdW  Elec       q    Type
                         _______ _______ _______ _____ _____    ______ ____

>  <TORSDO>
F 11

$$$$
=
 OpenBabel11042412503D

 46 50  0  0  1  0  0  0  0  0999 V2000
  184.7380  177.1530  142.8100 O   0  0  0  0  0  0  0  0  0  0  0  0
  188.9500  178.0160  141.3970 C   0  0  0  0  0  0  0  0  0  0  0  0
  189.8720  177.0950  140.8970 C   0  0  0  0  0  3  0  0  0  0  0  0
  189.8970  176.7670  139.5450 C   0  0  0  0  0  0  0  0  0  0  0  0
  185.6570  178.0060  142.6880 C   0  0  0  0  0  0  0  0  0  0  0  0
  190.8500  175.8480  139.1040 C   0  0  0  0  0  3  0  0  0  0  0  0
  190.8490  177.1200  145.7850 C   0  0  0  0  0  0  0  0  0  0  0  0
  187.9980  178.2500  139.1570 C   0  0  0  0  0  0  0  0  0  0  0  0
  188.0040  178.5890  140.5270 C   0  0  0  0  0  0  0  0  0  0  0  0
  190.4380  176.3800  147.0110 C   0  0  0  0  0  1  0  0  0  0  0  0
  185.9460  177.9760  145.1700 C   0  0  0  0  0  1  0  0  0  0  0  0
  186.6160  178.2470  143.8260 C   0  0  1  0  0  3  0  0  0  0  0  0
  188.5440  177.0700  144.8860 N   0  0  0  0  0  2  0  0  0  0  0  0
  185.7720  178.7200  141.4530 N   0  0  0  0  0  2  0  0  0  0  0  0
  188.9160  178.3430  142.8660 C   0  0  2  0  0  3  0  0  0  0  0  0
  189.8900  177.4380  144.7720 N   0  0  0  0  0  0  0  0  0  0  0  0
  190.9220  175.5000  137.7590 C   0  0  0  0  0  3  0  0  0  0  0  0
  186.9410  179.5000  141.0750 C   0  0  0  0  0  2  0  0  0  0  0  0
  188.9740  177.3510  138.6380 C   0  0  0  0  0  0  0  0  0  0  0  0
  190.0440  176.0760  136.8460 C   0  0  0  0  0  3  0  0  0  0  0  0
  192.0540  177.4620  145.6520 O   0  0  0  0  0  0  0  0  0  0  0  0
  189.0720  176.9940  137.2600 C   0  0  0  0  0  0  0  0  0  0  0  0
  190.2380  178.1610  143.5700 C   0  0  0  0  0  2  0  0  0  0  0  0
  187.9210  177.4630  143.6180 C   0  0  2  0  0  3  0  0  0  0  0  0
  188.2370  177.5990  136.1810 C   0  0  0  0  0  2  0  0  0  0  0  0
  187.7650  176.5980  135.3320 O   0  0  0  0  0  1  0  0  0  0  0  0
  186.9510  178.7770  138.3300 N   0  0  0  0  0  2  0  0  0  0  0  0
  185.6500  178.1850  138.2580 C   0  0  0  0  0  0  0  0  0  0  0  0
  184.2640  176.2490  137.8100 C   0  0  0  0  0  3  0  0  0  0  0  0
  183.2270  178.3410  138.4950 C   0  0  0  0  0  0  0  0  0  0  0  0
  183.1200  176.9930  138.1140 C   0  0  0  0  0  3  0  0  0  0  0  0
  184.5000  178.9250  138.5660 C   0  0  0  0  0  3  0  0  0  0  0  0
  185.5260  176.8450  137.8830 C   0  0  0  0  0  3  0  0  0  0  0  0
  182.0550  179.1160  138.8210 N   0  0  0  0  0  0  0  0  0  0  0  0
  181.5520  180.1410  137.9140 C   0  0  0  0  0  2  0  0  0  0  0  0
  181.9240  181.5200  138.4300 C   0  0  0  0  0  2  0  0  0  0  0  0
  180.7850  182.4940  138.1850 C   0  0  2  0  0  3  0  0  0  0  0  0
  179.6090  181.8020  137.9550 F   0  0  0  0  0  0  0  0  0  0  0  0
  181.1010  183.3640  137.0160 C   0  0  0  0  0  0  0  0  0  0  0  0
  180.8050  182.9960  135.8480 O   0  0  0  0  0  0  0  0  0  0  0  0
  181.7640  184.6050  137.2190 N   0  0  0  0  0  1  0  0  0  0  0  0
  181.2600  178.7690  139.9260 N   0  0  0  0  0  2  0  0  0  0  0  0
  182.1420  178.6420  141.0790 C   0  0  0  0  0  2  0  0  0  0  0  0
  182.2860  179.0510  143.4180 F   0  0  0  0  0  0  0  0  0  0  0  0
  180.3960  178.1090  142.6080 F   0  0  0  0  0  0  0  0  0  0  0  0
  181.4060  179.0180  142.3530 C   0  0  0  0  0  3  0  0  0  0  0  0
  2 15  1  0  0  0  0
  3  2  1  0  0  0  0
  4  3  2  0  0  0  0
  5  1  2  0  0  0  0
  5 12  1  0  0  0  0
  6  4  1  0  0  0  0
  7 10  1  0  0  0  0
  8  9  1  0  0  0  0
  9 18  1  0  0  0  0
  9  2  2  0  0  0  0
 12 11  1  1  0  0  0
 14  5  1  0  0  0  0
 15 23  1  1  0  0  0
 15 24  1  0  0  0  0
 16 13  1  0  0  0  0
 16  7  1  0  0  0  0
 17  6  2  0  0  0  0
 18 14  1  0  0  0  0
 19  8  2  0  0  0  0
 19  4  1  0  0  0  0
 20 22  2  0  0  0  0
 20 17  1  0  0  0  0
 21  7  2  0  0  0  0
 22 19  1  0  0  0  0
 23 16  1  0  0  0  0
 24 12  1  0  0  0  0
 24 13  1  1  0  0  0
 25 22  1  0  0  0  0
 26 25  1  0  0  0  0
 27  8  1  0  0  0  0
 28 27  1  0  0  0  0
 28 32  1  0  0  0  0
 29 33  1  0  0  0  0
 29 31  2  0  0  0  0
 30 32  2  0  0  0  0
 30 34  1  0  0  0  0
 31 30  1  0  0  0  0
 33 28  2  0  0  0  0
 34 42  1  0  0  0  0
 35 36  1  0  0  0  0
 35 34  1  0  0  0  0
 37 38  1  6  0  0  0
 37 36  1  0  0  0  0
 39 41  1  0  0  0  0
 39 37  1  0  0  0  0
 40 39  2  0  0  0  0
 42 43  1  0  0  0  0
 43 46  1  0  0  0  0
 46 45  1  0  0  0  0
 46 44  1  0  0  0  0
M  END
>  <MODEL>
9

>  <REMARK>
 VINA RESULT:      -6.8      2.613      8.258
  Name = 
  11 active torsions:
  status: ('A' for Active; 'I' for Inactive)
    1  A    between atoms: C_1  and  C_9
    2  A    between atoms: C_1  and  C_34
    3  A    between atoms: N_2  and  C_18
    4  A    between atoms: N_2  and  N_19
    5  A    between atoms: N_2  and  C_28
    6  A    between atoms: C_4  and  N_40
    7  A    between atoms: C_6  and  C_43
    8  A    between atoms: C_12  and  N_19
    9  A    between atoms: C_12  and  C_33
   10  A    between atoms: C_18  and  C_34
   11  A    between atoms: C_20  and  N_40
                            x       y       z     vdW  Elec       q    Type
                         _______ _______ _______ _____ _____    ______ ____

>  <TORSDO>
F 11

$$$$
