=
 OpenBabel11032420383D

 45 47  0  0  1  0  0  0  0  0999 V2000
  190.7600  176.2410  135.5420 C   0  0  0  0  0  0  0  0  0  0  0  0
  189.5710  176.9980  134.9870 C   0  0  0  0  0  2  0  0  0  0  0  0
  190.6710  175.6430  136.7410 C   0  0  0  0  0  3  0  0  0  0  0  0
  189.3960  175.6970  137.5500 C   0  0  2  0  0  3  0  0  0  0  0  0
  188.2730  176.4060  135.4610 C   0  0  0  0  0  3  0  0  0  0  0  0
  188.1770  175.8290  136.6640 C   0  0  0  0  0  0  0  0  0  0  0  0
  186.8360  173.7940  137.1360 C   0  0  0  0  0  1  0  0  0  0  0  0
  184.7200  175.5320  137.7700 O   0  0  0  0  0  0  0  0  0  0  0  0
  185.7940  176.0650  137.3790 C   0  0  0  0  0  0  0  0  0  0  0  0
  186.9350  175.2460  137.0720 N   0  0  0  0  0  0  0  0  0  0  0  0
  185.8520  177.5530  137.2100 C   0  0  0  0  0  2  0  0  0  0  0  0
  185.5240  178.5760  139.4840 N   0  0  0  0  0  2  0  0  0  0  0  0
  184.9860  178.2540  138.2030 C   0  0  0  0  0  0  0  0  0  0  0  0
  183.7920  178.5340  137.9160 O   0  0  0  0  0  0  0  0  0  0  0  0
  184.7690  179.3160  140.4810 C   0  0  0  0  0  2  0  0  0  0  0  0
  184.3050  179.0880  142.9360 C   0  0  0  0  0  3  0  0  0  0  0  0
  186.7500  177.7870  143.3210 C   0  0  0  0  0  3  0  0  0  0  0  0
  183.7810  178.9230  145.3760 C   0  0  0  0  0  1  0  0  0  0  0  0
  184.6850  178.6760  144.2170 C   0  0  0  0  0  0  0  0  0  0  0  0
  186.3740  178.2030  142.0400 C   0  0  0  0  0  3  0  0  0  0  0  0
  185.1500  178.8550  141.8450 C   0  0  0  0  0  0  0  0  0  0  0  0
  185.9070  178.0240  144.4100 C   0  0  0  0  0  3  0  0  0  0  0  0
  189.4490  176.7590  138.6070 C   0  0  0  0  0  0  0  0  0  0  0  0
  189.0130  178.4540  138.1840 S   0  0  0  0  0  1  0  0  0  0  0  0
  189.7490  176.3660  139.8550 C   0  0  0  0  0  3  0  0  0  0  0  0
  189.8970  177.2150  141.0030 N   0  0  0  0  0  0  0  0  0  0  0  0
  190.1290  176.7940  142.2040 C   0  0  0  0  0  3  0  0  0  0  0  0
  190.2750  177.7090  143.2970 N   0  0  0  0  0  0  0  0  0  0  0  0
  190.8520  176.2760  147.2580 C   0  0  0  0  0  3  0  0  0  0  0  0
  191.6770  176.5920  145.0020 C   0  0  0  0  0  3  0  0  0  0  0  0
  190.4750  177.2210  144.6360 C   0  0  0  0  0  0  0  0  0  0  0  0
  189.4650  177.3660  145.6010 C   0  0  0  0  0  3  0  0  0  0  0  0
  189.6520  176.8960  146.9040 C   0  0  0  0  0  3  0  0  0  0  0  0
  191.8650  176.1220  146.3060 C   0  0  0  0  0  3  0  0  0  0  0  0
  191.0640  179.6730  143.9580 O   0  0  0  0  0  1  0  0  0  0  0  0
  190.2470  179.0910  143.0490 N   0  0  0  0  0  2  0  0  0  0  0  0
  192.0550  176.1530  134.7940 C   0  0  0  0  0  2  0  0  0  0  0  0
  192.9160  175.1110  135.3350 N   0  0  0  0  0  2  0  0  0  0  0  0
  194.0290  175.7540  135.9040 N   0  0  0  0  0  0  0  0  0  0  0  0
  193.6030  176.0040  138.3120 C   0  0  0  0  0  1  0  0  0  0  0  0
  194.2980  175.1860  137.2320 C   0  0  0  0  0  3  0  0  0  0  0  0
  193.9080  173.7120  137.3560 C   0  0  0  0  0  1  0  0  0  0  0  0
  195.1780  175.4910  135.0460 C   0  0  0  0  0  2  0  0  0  0  0  0
  195.3520  177.9010  135.3510 N   0  0  0  0  0  1  0  0  0  0  0  0
  196.1020  176.6980  135.0250 C   0  0  0  0  0  2  0  0  0  0  0  0
  1  3  2  0  0  0  0
  2  5  1  0  0  0  0
  2  1  1  0  0  0  0
  3  4  1  0  0  0  0
  4 23  1  1  0  0  0
  5  6  2  0  0  0  0
  6 10  1  0  0  0  0
  6  4  1  0  0  0  0
  9  8  2  0  0  0  0
 10  7  1  0  0  0  0
 10  9  1  0  0  0  0
 11  9  1  0  0  0  0
 11 13  1  0  0  0  0
 12 15  1  0  0  0  0
 13 12  1  0  0  0  0
 14 13  2  0  0  0  0
 15 21  1  0  0  0  0
 16 19  1  0  0  0  0
 17 22  1  0  0  0  0
 19 22  2  0  0  0  0
 19 18  1  0  0  0  0
 20 17  2  0  0  0  0
 21 20  1  0  0  0  0
 21 16  2  0  0  0  0
 23 25  2  0  0  0  0
 24 23  1  0  0  0  0
 25 26  1  0  0  0  0
 26 27  2  0  0  0  0
 27 28  1  0  0  0  0
 28 31  1  0  0  0  0
 30 34  1  0  0  0  0
 31 30  2  0  0  0  0
 31 32  1  0  0  0  0
 32 33  2  0  0  0  0
 33 29  1  0  0  0  0
 34 29  2  0  0  0  0
 36 28  1  0  0  0  0
 36 35  1  0  0  0  0
 37 38  1  0  0  0  0
 37  1  1  0  0  0  0
 38 39  1  0  0  0  0
 39 41  1  0  0  0  0
 41 42  1  0  0  0  0
 41 40  1  0  0  0  0
 43 39  1  0  0  0  0
 45 43  1  0  0  0  0
 45 44  1  0  0  0  0
M  END
>  <MODEL>
1

>  <REMARK>
 VINA RESULT:      -7.7      0.000      0.000
  Name = 
  15 active torsions:
  status: ('A' for Active; 'I' for Inactive)
    1  A    between atoms: C_1  and  C_8
    2  A    between atoms: N_3  and  C_21
    3  A    between atoms: C_6  and  C_40
    4  A    between atoms: C_8  and  N_33
    5  A    between atoms: N_11  and  C_35
    6  A    between atoms: N_14  and  N_32
    7  A    between atoms: C_17  and  N_32
    8  A    between atoms: N_19  and  C_30
    9  A    between atoms: N_19  and  N_33
   10  A    between atoms: N_19  and  C_37
   11  A    between atoms: C_21  and  C_42
   12  A    between atoms: C_23  and  C_39
   13  A    between atoms: C_26  and  C_37
   14  A    between atoms: C_28  and  C_39
   15  A    between atoms: N_31  and  C_43
                            x       y       z     vdW  Elec       q    Type
                         _______ _______ _______ _____ _____    ______ ____

>  <TORSDO>
F 15

$$$$
=
 OpenBabel11032420383D

 45 47  0  0  1  0  0  0  0  0999 V2000
  184.2640  175.5060  136.2870 C   0  0  0  0  0  0  0  0  0  0  0  0
  185.5320  174.9450  136.8990 C   0  0  0  0  0  2  0  0  0  0  0  0
  183.9260  176.7870  136.5060 C   0  0  0  0  0  3  0  0  0  0  0  0
  184.7950  177.6930  137.3460 C   0  0  2  0  0  3  0  0  0  0  0  0
  186.5840  176.0070  137.0520 C   0  0  0  0  0  3  0  0  0  0  0  0
  186.2490  177.2810  137.2910 C   0  0  0  0  0  0  0  0  0  0  0  0
  187.3400  179.3200  136.3880 C   0  0  0  0  0  1  0  0  0  0  0  0
  189.1200  179.1310  138.5540 O   0  0  0  0  0  0  0  0  0  0  0  0
  188.2480  178.2270  138.4580 C   0  0  0  0  0  0  0  0  0  0  0  0
  187.2750  178.2730  137.4000 N   0  0  0  0  0  0  0  0  0  0  0  0
  188.2580  177.0930  139.4380 C   0  0  0  0  0  2  0  0  0  0  0  0
  190.0120  177.4560  141.2040 N   0  0  0  0  0  2  0  0  0  0  0  0
  189.6280  176.8430  139.9750 C   0  0  0  0  0  0  0  0  0  0  0  0
  190.4360  176.1190  139.3360 O   0  0  0  0  0  0  0  0  0  0  0  0
  191.3020  177.2100  141.8270 C   0  0  0  0  0  2  0  0  0  0  0  0
  191.6850  176.3720  144.1600 C   0  0  0  0  0  3  0  0  0  0  0  0
  190.4030  178.6190  145.2240 C   0  0  0  0  0  3  0  0  0  0  0  0
  192.0830  175.4570  146.4540 C   0  0  0  0  0  1  0  0  0  0  0  0
  191.5430  176.5070  145.5450 C   0  0  0  0  0  0  0  0  0  0  0  0
  190.5400  178.4820  143.8390 C   0  0  0  0  0  3  0  0  0  0  0  0
  191.1820  177.3580  143.3050 C   0  0  0  0  0  0  0  0  0  0  0  0
  190.9030  177.6310  146.0780 C   0  0  0  0  0  3  0  0  0  0  0  0
  184.2890  177.8080  138.7520 C   0  0  0  0  0  0  0  0  0  0  0  0
  182.9320  176.7580  139.2960 S   0  0  0  0  0  1  0  0  0  0  0  0
  184.9400  178.6520  139.5690 C   0  0  0  0  0  3  0  0  0  0  0  0
  184.6000  178.9490  140.9320 N   0  0  0  0  0  0  0  0  0  0  0  0
  185.3030  178.5940  141.9590 C   0  0  0  0  0  3  0  0  0  0  0  0
  184.9010  178.9410  143.2900 N   0  0  0  0  0  0  0  0  0  0  0  0
  187.1590  177.5930  146.6300 C   0  0  0  0  0  3  0  0  0  0  0  0
  185.4440  179.0300  145.7020 C   0  0  0  0  0  3  0  0  0  0  0  0
  185.6630  178.4890  144.4240 C   0  0  0  0  0  0  0  0  0  0  0  0
  186.6440  177.4960  144.2680 C   0  0  0  0  0  3  0  0  0  0  0  0
  187.3880  177.0510  145.3640 C   0  0  0  0  0  3  0  0  0  0  0  0
  186.1870  178.5850  146.7990 C   0  0  0  0  0  3  0  0  0  0  0  0
  182.7490  178.9270  143.8280 O   0  0  0  0  0  1  0  0  0  0  0  0
  183.7680  179.7490  143.4810 N   0  0  0  0  0  2  0  0  0  0  0  0
  183.3550  174.6600  135.4480 C   0  0  0  0  0  2  0  0  0  0  0  0
  183.0740  173.3810  136.0860 N   0  0  0  0  0  2  0  0  0  0  0  0
  182.7650  172.4720  135.0600 N   0  0  0  0  0  0  0  0  0  0  0  0
  185.1010  171.7100  135.0020 C   0  0  0  0  0  1  0  0  0  0  0  0
  183.6440  171.2990  135.1620 C   0  0  0  0  0  3  0  0  0  0  0  0
  183.4600  170.5100  136.4600 C   0  0  0  0  0  1  0  0  0  0  0  0
  181.3870  172.0370  135.2560 C   0  0  0  0  0  2  0  0  0  0  0  0
  179.1020  172.8770  135.2210 N   0  0  0  0  0  1  0  0  0  0  0  0
  180.4270  173.0470  134.6470 C   0  0  0  0  0  2  0  0  0  0  0  0
  1  3  2  0  0  0  0
  1  2  1  0  0  0  0
  2  5  1  0  0  0  0
  3  4  1  0  0  0  0
  4 23  1  1  0  0  0
  5  6  2  0  0  0  0
  6  4  1  0  0  0  0
  6 10  1  0  0  0  0
  7 10  1  0  0  0  0
  9  8  2  0  0  0  0
  9 11  1  0  0  0  0
 10  9  1  0  0  0  0
 11 13  1  0  0  0  0
 12 15  1  0  0  0  0
 13 12  1  0  0  0  0
 14 13  2  0  0  0  0
 15 21  1  0  0  0  0
 16 19  1  0  0  0  0
 17 22  1  0  0  0  0
 19 22  2  0  0  0  0
 19 18  1  0  0  0  0
 20 17  2  0  0  0  0
 21 20  1  0  0  0  0
 21 16  2  0  0  0  0
 23 24  1  0  0  0  0
 23 25  2  0  0  0  0
 25 26  1  0  0  0  0
 26 27  2  0  0  0  0
 27 28  1  0  0  0  0
 28 36  1  0  0  0  0
 28 31  1  0  0  0  0
 29 34  1  0  0  0  0
 30 34  2  0  0  0  0
 31 30  1  0  0  0  0
 32 31  2  0  0  0  0
 32 33  1  0  0  0  0
 33 29  2  0  0  0  0
 36 35  1  0  0  0  0
 37 38  1  0  0  0  0
 37  1  1  0  0  0  0
 39 41  1  0  0  0  0
 39 43  1  0  0  0  0
 39 38  1  0  0  0  0
 40 41  1  0  0  0  0
 41 42  1  0  0  0  0
 45 44  1  0  0  0  0
 45 43  1  0  0  0  0
M  END
>  <MODEL>
2

>  <REMARK>
 VINA RESULT:      -7.2      3.791      7.554
  Name = 
  15 active torsions:
  status: ('A' for Active; 'I' for Inactive)
    1  A    between atoms: C_1  and  C_8
    2  A    between atoms: N_3  and  C_21
    3  A    between atoms: C_6  and  C_40
    4  A    between atoms: C_8  and  N_33
    5  A    between atoms: N_11  and  C_35
    6  A    between atoms: N_14  and  N_32
    7  A    between atoms: C_17  and  N_32
    8  A    between atoms: N_19  and  C_30
    9  A    between atoms: N_19  and  N_33
   10  A    between atoms: N_19  and  C_37
   11  A    between atoms: C_21  and  C_42
   12  A    between atoms: C_23  and  C_39
   13  A    between atoms: C_26  and  C_37
   14  A    between atoms: C_28  and  C_39
   15  A    between atoms: N_31  and  C_43
                            x       y       z     vdW  Elec       q    Type
                         _______ _______ _______ _____ _____    ______ ____

>  <TORSDO>
F 15

$$$$
=
 OpenBabel11032420383D

 45 47  0  0  1  0  0  0  0  0999 V2000
  182.2280  176.3270  136.1620 C   0  0  0  0  0  0  0  0  0  0  0  0
  181.9240  177.5100  135.2660 C   0  0  0  0  0  2  0  0  0  0  0  0
  182.4020  176.5140  137.4800 C   0  0  0  0  0  3  0  0  0  0  0  0
  182.2880  177.8880  138.0980 C   0  0  2  0  0  3  0  0  0  0  0  0
  181.1610  178.5750  136.0030 C   0  0  0  0  0  3  0  0  0  0  0  0
  181.3500  178.7770  137.3120 C   0  0  0  0  0  0  0  0  0  0  0  0
  180.5400  181.1210  137.4270 C   0  0  0  0  0  1  0  0  0  0  0  0
  179.2030  180.3740  139.7840 O   0  0  0  0  0  0  0  0  0  0  0  0
  179.9000  179.4870  139.2220 C   0  0  0  0  0  0  0  0  0  0  0  0
  180.5840  179.7790  137.9910 N   0  0  0  0  0  0  0  0  0  0  0  0
  180.0300  178.1400  139.8680 C   0  0  0  0  0  2  0  0  0  0  0  0
  181.4260  178.8810  141.8250 N   0  0  0  0  0  2  0  0  0  0  0  0
  180.2390  178.2560  141.3410 C   0  0  0  0  0  0  0  0  0  0  0  0
  179.3860  177.7850  142.1410 O   0  0  0  0  0  0  0  0  0  0  0  0
  181.6710  179.0930  143.2420 C   0  0  0  0  0  2  0  0  0  0  0  0
  183.5620  178.8510  144.8730 C   0  0  0  0  0  3  0  0  0  0  0  0
  185.3400  178.2750  142.7910 C   0  0  0  0  0  3  0  0  0  0  0  0
  185.4010  178.6520  146.5570 C   0  0  0  0  0  1  0  0  0  0  0  0
  184.9120  178.6100  145.1500 C   0  0  0  0  0  0  0  0  0  0  0  0
  183.9920  178.5210  142.5120 C   0  0  0  0  0  3  0  0  0  0  0  0
  183.1000  178.8090  143.5530 C   0  0  0  0  0  0  0  0  0  0  0  0
  185.8010  178.3210  144.1100 C   0  0  0  0  0  3  0  0  0  0  0  0
  183.6310  178.5220  138.3050 C   0  0  0  0  0  0  0  0  0  0  0  0
  183.7460  180.0980  139.1680 S   0  0  0  0  0  1  0  0  0  0  0  0
  184.7040  177.8270  137.8960 C   0  0  0  0  0  3  0  0  0  0  0  0
  186.0720  178.2600  137.9560 N   0  0  0  0  0  0  0  0  0  0  0  0
  186.9140  177.9130  138.8750 C   0  0  0  0  0  3  0  0  0  0  0  0
  188.2680  178.3810  138.8570 N   0  0  0  0  0  0  0  0  0  0  0  0
  190.9360  177.3600  142.0060 C   0  0  0  0  0  3  0  0  0  0  0  0
  190.4760  177.5830  139.6380 C   0  0  0  0  0  3  0  0  0  0  0  0
  189.1750  178.0330  139.9190 C   0  0  0  0  0  0  0  0  0  0  0  0
  188.7690  178.1370  141.2590 C   0  0  0  0  0  3  0  0  0  0  0  0
  189.6440  177.8020  142.2970 C   0  0  0  0  0  3  0  0  0  0  0  0
  191.3520  177.2490  140.6750 C   0  0  0  0  0  3  0  0  0  0  0  0
  189.0320  178.3100  136.7760 O   0  0  0  0  0  1  0  0  0  0  0  0
  188.7140  179.1620  137.7790 N   0  0  0  0  0  2  0  0  0  0  0  0
  182.3590  174.9380  135.6140 C   0  0  0  0  0  2  0  0  0  0  0  0
  181.6460  173.9690  136.4350 N   0  0  0  0  0  2  0  0  0  0  0  0
  182.5770  172.9830  136.8030 N   0  0  0  0  0  0  0  0  0  0  0  0
  180.5630  171.8210  137.6020 C   0  0  0  0  0  1  0  0  0  0  0  0
  181.9020  171.6800  136.8920 C   0  0  0  0  0  3  0  0  0  0  0  0
  181.7090  171.0000  135.5350 C   0  0  0  0  0  1  0  0  0  0  0  0
  183.5860  172.9110  135.7530 C   0  0  0  0  0  2  0  0  0  0  0  0
  184.9270  173.0910  137.7780 N   0  0  0  0  0  1  0  0  0  0  0  0
  184.9680  172.7470  136.3650 C   0  0  0  0  0  2  0  0  0  0  0  0
  1  3  2  0  0  0  0
  2  5  1  0  0  0  0
  2  1  1  0  0  0  0
  3  4  1  0  0  0  0
  4 23  1  6  0  0  0
  5  6  2  0  0  0  0
  6 10  1  0  0  0  0
  6  4  1  0  0  0  0
  7 10  1  0  0  0  0
  9  8  2  0  0  0  0
  9 11  1  0  0  0  0
 10  9  1  0  0  0  0
 11 13  1  0  0  0  0
 12 15  1  0  0  0  0
 13 12  1  0  0  0  0
 13 14  2  0  0  0  0
 15 21  1  0  0  0  0
 16 19  1  0  0  0  0
 17 22  1  0  0  0  0
 19 18  1  0  0  0  0
 20 17  2  0  0  0  0
 20 21  1  0  0  0  0
 21 16  2  0  0  0  0
 22 19  2  0  0  0  0
 23 24  1  0  0  0  0
 25 26  1  0  0  0  0
 25 23  2  0  0  0  0
 26 27  2  0  0  0  0
 28 27  1  0  0  0  0
 28 31  1  0  0  0  0
 29 33  1  0  0  0  0
 30 31  2  0  0  0  0
 30 34  1  0  0  0  0
 31 32  1  0  0  0  0
 32 33  2  0  0  0  0
 34 29  2  0  0  0  0
 35 36  1  0  0  0  0
 36 28  1  0  0  0  0
 37  1  1  0  0  0  0
 37 38  1  0  0  0  0
 38 39  1  0  0  0  0
 39 41  1  0  0  0  0
 41 40  1  0  0  0  0
 42 41  1  0  0  0  0
 43 45  1  0  0  0  0
 43 39  1  0  0  0  0
 45 44  1  0  0  0  0
M  END
>  <MODEL>
3

>  <REMARK>
 VINA RESULT:      -7.0      4.109      7.493
  Name = 
  15 active torsions:
  status: ('A' for Active; 'I' for Inactive)
    1  A    between atoms: C_1  and  C_8
    2  A    between atoms: N_3  and  C_21
    3  A    between atoms: C_6  and  C_40
    4  A    between atoms: C_8  and  N_33
    5  A    between atoms: N_11  and  C_35
    6  A    between atoms: N_14  and  N_32
    7  A    between atoms: C_17  and  N_32
    8  A    between atoms: N_19  and  C_30
    9  A    between atoms: N_19  and  N_33
   10  A    between atoms: N_19  and  C_37
   11  A    between atoms: C_21  and  C_42
   12  A    between atoms: C_23  and  C_39
   13  A    between atoms: C_26  and  C_37
   14  A    between atoms: C_28  and  C_39
   15  A    between atoms: N_31  and  C_43
                            x       y       z     vdW  Elec       q    Type
                         _______ _______ _______ _____ _____    ______ ____

>  <TORSDO>
F 15

$$$$
=
 OpenBabel11032420383D

 45 47  0  0  1  0  0  0  0  0999 V2000
  192.1040  175.6310  136.3710 C   0  0  0  0  0  0  0  0  0  0  0  0
  192.1260  175.6370  137.8860 C   0  0  0  0  0  2  0  0  0  0  0  0
  191.0060  176.0440  135.7180 C   0  0  0  0  0  3  0  0  0  0  0  0
  189.7870  176.5320  136.4650 C   0  0  2  0  0  3  0  0  0  0  0  0
  191.2610  176.7320  138.4430 C   0  0  0  0  0  3  0  0  0  0  0  0
  190.1550  177.1310  137.8040 C   0  0  0  0  0  0  0  0  0  0  0  0
  189.2130  179.4140  137.5590 C   0  0  0  0  0  1  0  0  0  0  0  0
  188.0630  179.0380  140.0940 O   0  0  0  0  0  0  0  0  0  0  0  0
  188.7780  178.0990  139.6520 C   0  0  0  0  0  0  0  0  0  0  0  0
  189.3710  178.1990  138.3460 N   0  0  0  0  0  0  0  0  0  0  0  0
  189.0270  176.8990  140.5150 C   0  0  0  0  0  2  0  0  0  0  0  0
  188.1820  176.8480  142.8830 N   0  0  0  0  0  2  0  0  0  0  0  0
  189.1730  177.2760  141.9510 C   0  0  0  0  0  0  0  0  0  0  0  0
  190.1480  177.9810  142.3250 O   0  0  0  0  0  0  0  0  0  0  0  0
  188.2870  177.1160  144.3080 C   0  0  0  0  0  2  0  0  0  0  0  0
  185.9680  177.9910  143.9220 C   0  0  0  0  0  3  0  0  0  0  0  0
  185.6310  178.4310  146.6640 C   0  0  0  0  0  3  0  0  0  0  0  0
  183.6750  178.8750  143.4530 C   0  0  0  0  0  1  0  0  0  0  0  0
  184.7730  178.5360  144.4030 C   0  0  0  0  0  0  0  0  0  0  0  0
  186.8280  177.8900  146.1840 C   0  0  0  0  0  3  0  0  0  0  0  0
  186.9980  177.6690  144.8120 C   0  0  0  0  0  0  0  0  0  0  0  0
  184.6030  178.7550  145.7740 C   0  0  0  0  0  3  0  0  0  0  0  0
  188.7410  175.4650  136.5870 C   0  0  0  0  0  0  0  0  0  0  0  0
  189.2240  173.7330  136.4910 S   0  0  0  0  0  1  0  0  0  0  0  0
  187.4860  175.8660  136.8440 C   0  0  0  0  0  3  0  0  0  0  0  0
  186.3290  175.0230  136.9560 N   0  0  0  0  0  0  0  0  0  0  0  0
  185.1490  175.4350  137.2910 C   0  0  0  0  0  3  0  0  0  0  0  0
  184.0410  174.5300  137.3690 N   0  0  0  0  0  0  0  0  0  0  0  0
  180.2300  175.9020  138.6590 C   0  0  0  0  0  3  0  0  0  0  0  0
  181.6160  174.8370  136.9830 C   0  0  0  0  0  3  0  0  0  0  0  0
  182.7480  174.9940  137.8000 C   0  0  0  0  0  0  0  0  0  0  0  0
  182.6000  175.6150  139.0510 C   0  0  0  0  0  3  0  0  0  0  0  0
  181.3480  176.0670  139.4780 C   0  0  0  0  0  3  0  0  0  0  0  0
  180.3640  175.2890  137.4100 C   0  0  0  0  0  3  0  0  0  0  0  0
  184.8920  172.5820  138.0020 O   0  0  0  0  0  1  0  0  0  0  0  0
  184.2180  173.1870  136.9960 N   0  0  0  0  0  2  0  0  0  0  0  0
  193.2760  175.1550  135.5690 C   0  0  0  0  0  2  0  0  0  0  0  0
  194.4380  174.9110  136.4130 N   0  0  0  0  0  2  0  0  0  0  0  0
  195.0730  173.7620  135.9120 N   0  0  0  0  0  0  0  0  0  0  0  0
  196.8110  175.4920  135.7540 C   0  0  0  0  0  1  0  0  0  0  0  0
  196.3240  174.1440  135.2430 C   0  0  0  0  0  3  0  0  0  0  0  0
  197.4330  173.0980  135.3790 C   0  0  0  0  0  1  0  0  0  0  0  0
  195.3970  172.9050  137.0470 C   0  0  0  0  0  2  0  0  0  0  0  0
  196.1310  173.8290  139.1760 N   0  0  0  0  0  1  0  0  0  0  0  0
  194.9660  173.5690  138.3440 C   0  0  0  0  0  2  0  0  0  0  0  0
  1  2  1  0  0  0  0
  2  5  1  0  0  0  0
  3  1  2  0  0  0  0
  3  4  1  0  0  0  0
  4 23  1  1  0  0  0
  4  6  1  0  0  0  0
  6 10  1  0  0  0  0
  6  5  2  0  0  0  0
  7 10  1  0  0  0  0
  9  8  2  0  0  0  0
  9 11  1  0  0  0  0
 10  9  1  0  0  0  0
 11 13  1  0  0  0  0
 12 15  1  0  0  0  0
 13 14  2  0  0  0  0
 13 12  1  0  0  0  0
 15 21  1  0  0  0  0
 16 19  2  0  0  0  0
 16 21  1  0  0  0  0
 18 19  1  0  0  0  0
 19 22  1  0  0  0  0
 20 17  1  0  0  0  0
 21 20  2  0  0  0  0
 22 17  2  0  0  0  0
 23 25  2  0  0  0  0
 24 23  1  0  0  0  0
 25 26  1  0  0  0  0
 26 27  2  0  0  0  0
 27 28  1  0  0  0  0
 28 31  1  0  0  0  0
 29 33  1  0  0  0  0
 30 34  1  0  0  0  0
 30 31  2  0  0  0  0
 31 32  1  0  0  0  0
 32 33  2  0  0  0  0
 34 29  2  0  0  0  0
 36 28  1  0  0  0  0
 36 35  1  0  0  0  0
 37  1  1  0  0  0  0
 37 38  1  0  0  0  0
 39 38  1  0  0  0  0
 39 43  1  0  0  0  0
 41 42  1  0  0  0  0
 41 40  1  0  0  0  0
 41 39  1  0  0  0  0
 43 45  1  0  0  0  0
 45 44  1  0  0  0  0
M  END
>  <MODEL>
4

>  <REMARK>
 VINA RESULT:      -6.9      2.632      6.387
  Name = 
  15 active torsions:
  status: ('A' for Active; 'I' for Inactive)
    1  A    between atoms: C_1  and  C_8
    2  A    between atoms: N_3  and  C_21
    3  A    between atoms: C_6  and  C_40
    4  A    between atoms: C_8  and  N_33
    5  A    between atoms: N_11  and  C_35
    6  A    between atoms: N_14  and  N_32
    7  A    between atoms: C_17  and  N_32
    8  A    between atoms: N_19  and  C_30
    9  A    between atoms: N_19  and  N_33
   10  A    between atoms: N_19  and  C_37
   11  A    between atoms: C_21  and  C_42
   12  A    between atoms: C_23  and  C_39
   13  A    between atoms: C_26  and  C_37
   14  A    between atoms: C_28  and  C_39
   15  A    between atoms: N_31  and  C_43
                            x       y       z     vdW  Elec       q    Type
                         _______ _______ _______ _____ _____    ______ ____

>  <TORSDO>
F 15

$$$$
=
 OpenBabel11032420383D

 45 47  0  0  1  0  0  0  0  0999 V2000
  187.5010  174.2460  135.5240 C   0  0  0  0  0  0  0  0  0  0  0  0
  187.9160  173.7120  136.8800 C   0  0  0  0  0  2  0  0  0  0  0  0
  187.9620  175.4360  135.1050 C   0  0  0  0  0  3  0  0  0  0  0  0
  188.9050  176.2540  135.9560 C   0  0  2  0  0  3  0  0  0  0  0  0
  189.2920  174.1850  137.2580 C   0  0  0  0  0  3  0  0  0  0  0  0
  189.7450  175.3790  136.8590 C   0  0  0  0  0  0  0  0  0  0  0  0
  192.1600  175.4760  136.2920 C   0  0  0  0  0  1  0  0  0  0  0  0
  192.5130  176.8310  138.7280 O   0  0  0  0  0  0  0  0  0  0  0  0
  191.3430  176.4520  138.4550 C   0  0  0  0  0  0  0  0  0  0  0  0
  191.0730  175.7850  137.2100 N   0  0  0  0  0  0  0  0  0  0  0  0
  190.2490  176.6740  139.4560 C   0  0  0  0  0  2  0  0  0  0  0  0
  190.2260  176.0020  141.8790 N   0  0  0  0  0  2  0  0  0  0  0  0
  190.7890  176.8020  140.8410 C   0  0  0  0  0  0  0  0  0  0  0  0
  191.7130  177.6220  141.0880 O   0  0  0  0  0  0  0  0  0  0  0  0
  190.7400  176.0180  143.2390 C   0  0  0  0  0  2  0  0  0  0  0  0
  188.4270  176.8620  143.7200 C   0  0  0  0  0  3  0  0  0  0  0  0
  189.2140  177.6870  146.2740 C   0  0  0  0  0  3  0  0  0  0  0  0
  186.1050  177.7020  144.1140 C   0  0  0  0  0  1  0  0  0  0  0  0
  187.5080  177.4850  144.5690 C   0  0  0  0  0  0  0  0  0  0  0  0
  190.1360  177.0680  145.4250 C   0  0  0  0  0  3  0  0  0  0  0  0
  189.7440  176.6540  144.1460 C   0  0  0  0  0  0  0  0  0  0  0  0
  187.8990  177.8970  145.8470 C   0  0  0  0  0  3  0  0  0  0  0  0
  188.1850  177.3280  136.7140 C   0  0  0  0  0  0  0  0  0  0  0  0
  188.9600  178.9390  136.9240 S   0  0  0  0  0  1  0  0  0  0  0  0
  186.9420  177.0490  137.1370 C   0  0  0  0  0  3  0  0  0  0  0  0
  186.0940  177.9080  137.9140 N   0  0  0  0  0  0  0  0  0  0  0  0
  184.9060  177.5960  138.3220 C   0  0  0  0  0  3  0  0  0  0  0  0
  184.1260  178.5070  139.1050 N   0  0  0  0  0  0  0  0  0  0  0  0
  180.1610  177.5200  140.2800 C   0  0  0  0  0  3  0  0  0  0  0  0
  182.3280  176.8400  139.4350 C   0  0  0  0  0  3  0  0  0  0  0  0
  182.7840  178.1670  139.5010 C   0  0  0  0  0  0  0  0  0  0  0  0
  181.9070  179.1640  139.9580 C   0  0  0  0  0  3  0  0  0  0  0  0
  180.6030  178.8430  140.3450 C   0  0  0  0  0  3  0  0  0  0  0  0
  181.0240  176.5180  139.8230 C   0  0  0  0  0  3  0  0  0  0  0  0
  185.3130  179.5080  140.6890 O   0  0  0  0  0  1  0  0  0  0  0  0
  184.6900  179.7290  139.5080 N   0  0  0  0  0  2  0  0  0  0  0  0
  186.5660  173.4880  134.6330 C   0  0  0  0  0  2  0  0  0  0  0  0
  185.2470  174.1030  134.5940 N   0  0  0  0  0  2  0  0  0  0  0  0
  184.4980  173.5320  135.6360 N   0  0  0  0  0  0  0  0  0  0  0  0
  183.5270  175.7900  135.6570 C   0  0  0  0  0  1  0  0  0  0  0  0
  183.2610  174.3020  135.8310 C   0  0  0  0  0  3  0  0  0  0  0  0
  182.1170  173.8610  134.9150 C   0  0  0  0  0  1  0  0  0  0  0  0
  184.1410  172.1760  135.2340 C   0  0  0  0  0  2  0  0  0  0  0  0
  183.3730  170.0320  136.0940 N   0  0  0  0  0  1  0  0  0  0  0  0
  184.0210  171.2820  136.4580 C   0  0  0  0  0  2  0  0  0  0  0  0
  1  2  1  0  0  0  0
  2  5  1  0  0  0  0
  3  1  2  0  0  0  0
  3  4  1  0  0  0  0
  4 23  1  1  0  0  0
  4  6  1  0  0  0  0
  6 10  1  0  0  0  0
  6  5  2  0  0  0  0
  7 10  1  0  0  0  0
  9  8  2  0  0  0  0
  9 11  1  0  0  0  0
 10  9  1  0  0  0  0
 11 13  1  0  0  0  0
 12 15  1  0  0  0  0
 13 14  2  0  0  0  0
 13 12  1  0  0  0  0
 15 21  1  0  0  0  0
 16 21  2  0  0  0  0
 16 19  1  0  0  0  0
 18 19  1  0  0  0  0
 19 22  2  0  0  0  0
 20 17  2  0  0  0  0
 21 20  1  0  0  0  0
 22 17  1  0  0  0  0
 23 24  1  0  0  0  0
 23 25  2  0  0  0  0
 25 26  1  0  0  0  0
 26 27  2  0  0  0  0
 27 28  1  0  0  0  0
 28 31  1  0  0  0  0
 28 36  1  0  0  0  0
 29 33  1  0  0  0  0
 30 31  2  0  0  0  0
 30 34  1  0  0  0  0
 31 32  1  0  0  0  0
 32 33  2  0  0  0  0
 34 29  2  0  0  0  0
 36 35  1  0  0  0  0
 37  1  1  0  0  0  0
 38 37  1  0  0  0  0
 38 39  1  0  0  0  0
 39 41  1  0  0  0  0
 40 41  1  0  0  0  0
 42 41  1  0  0  0  0
 43 39  1  0  0  0  0
 43 45  1  0  0  0  0
 44 45  1  0  0  0  0
M  END
>  <MODEL>
5

>  <REMARK>
 VINA RESULT:      -6.9      2.773      7.635
  Name = 
  15 active torsions:
  status: ('A' for Active; 'I' for Inactive)
    1  A    between atoms: C_1  and  C_8
    2  A    between atoms: N_3  and  C_21
    3  A    between atoms: C_6  and  C_40
    4  A    between atoms: C_8  and  N_33
    5  A    between atoms: N_11  and  C_35
    6  A    between atoms: N_14  and  N_32
    7  A    between atoms: C_17  and  N_32
    8  A    between atoms: N_19  and  C_30
    9  A    between atoms: N_19  and  N_33
   10  A    between atoms: N_19  and  C_37
   11  A    between atoms: C_21  and  C_42
   12  A    between atoms: C_23  and  C_39
   13  A    between atoms: C_26  and  C_37
   14  A    between atoms: C_28  and  C_39
   15  A    between atoms: N_31  and  C_43
                            x       y       z     vdW  Elec       q    Type
                         _______ _______ _______ _____ _____    ______ ____

>  <TORSDO>
F 15

$$$$
=
 OpenBabel11032420383D

 45 47  0  0  1  0  0  0  0  0999 V2000
  183.0620  178.1620  139.4380 C   0  0  0  0  0  0  0  0  0  0  0  0
  183.1110  176.6500  139.3680 C   0  0  0  0  0  2  0  0  0  0  0  0
  183.9280  178.8930  138.7180 C   0  0  0  0  0  3  0  0  0  0  0  0
  184.9500  178.2360  137.8200 C   0  0  2  0  0  3  0  0  0  0  0  0
  183.5900  176.1780  138.0230 C   0  0  0  0  0  3  0  0  0  0  0  0
  184.4680  176.8950  137.3130 C   0  0  0  0  0  0  0  0  0  0  0  0
  184.3700  177.1220  134.8430 C   0  0  0  0  0  1  0  0  0  0  0  0
  186.1220  174.9270  134.7340 O   0  0  0  0  0  0  0  0  0  0  0  0
  185.7450  175.2950  135.8780 C   0  0  0  0  0  0  0  0  0  0  0  0
  184.8790  176.4340  136.0220 N   0  0  0  0  0  0  0  0  0  0  0  0
  186.1840  174.5120  137.0790 C   0  0  0  0  0  2  0  0  0  0  0  0
  188.6870  174.4210  136.8480 N   0  0  0  0  0  2  0  0  0  0  0  0
  187.4330  173.7420  136.8070 C   0  0  0  0  0  0  0  0  0  0  0  0
  187.3730  172.5160  136.5230 O   0  0  0  0  0  0  0  0  0  0  0  0
  189.9520  173.7300  136.6620 C   0  0  0  0  0  2  0  0  0  0  0  0
  192.3910  174.1380  137.0870 C   0  0  0  0  0  3  0  0  0  0  0  0
  191.8000  176.5050  138.4560 C   0  0  0  0  0  3  0  0  0  0  0  0
  194.8380  174.4600  137.4940 C   0  0  0  0  0  1  0  0  0  0  0  0
  193.4220  174.9030  137.6410 C   0  0  0  0  0  0  0  0  0  0  0  0
  190.7680  175.7380  137.9070 C   0  0  0  0  0  3  0  0  0  0  0  0
  191.0610  174.5530  137.2210 C   0  0  0  0  0  0  0  0  0  0  0  0
  193.1280  176.0870  138.3240 C   0  0  0  0  0  3  0  0  0  0  0  0
  186.2950  178.1470  138.4760 C   0  0  0  0  0  0  0  0  0  0  0  0
  187.7740  178.0170  137.4570 S   0  0  0  0  0  1  0  0  0  0  0  0
  186.3310  178.2480  139.8140 C   0  0  0  0  0  3  0  0  0  0  0  0
  187.4970  178.1450  140.6450 N   0  0  0  0  0  0  0  0  0  0  0  0
  187.4730  177.9620  141.9270 C   0  0  0  0  0  3  0  0  0  0  0  0
  188.6850  177.8590  142.6840 N   0  0  0  0  0  0  0  0  0  0  0  0
  188.5730  177.4300  146.9120 C   0  0  0  0  0  3  0  0  0  0  0  0
  187.4130  177.6320  144.7950 C   0  0  0  0  0  3  0  0  0  0  0  0
  188.6410  177.7140  144.1160 C   0  0  0  0  0  0  0  0  0  0  0  0
  189.8310  177.6570  144.8580 C   0  0  0  0  0  3  0  0  0  0  0  0
  189.7980  177.5160  146.2490 C   0  0  0  0  0  3  0  0  0  0  0  0
  187.3790  177.4900  146.1850 C   0  0  0  0  0  3  0  0  0  0  0  0
  190.2170  176.5900  141.7040 O   0  0  0  0  0  1  0  0  0  0  0  0
  189.9210  177.8740  142.0170 N   0  0  0  0  0  2  0  0  0  0  0  0
  182.0770  178.8770  140.3120 C   0  0  0  0  0  2  0  0  0  0  0  0
  182.7290  179.5060  141.4510 N   0  0  0  0  0  2  0  0  0  0  0  0
  182.3780  178.7590  142.5880 N   0  0  0  0  0  0  0  0  0  0  0  0
  184.7450  179.3420  142.9000 C   0  0  0  0  0  1  0  0  0  0  0  0
  183.5770  178.5010  143.3960 C   0  0  0  0  0  3  0  0  0  0  0  0
  183.3640  178.7290  144.8940 C   0  0  0  0  0  1  0  0  0  0  0  0
  181.4510  179.5620  143.3770 C   0  0  0  0  0  2  0  0  0  0  0  0
  179.6700  177.9030  143.4470 N   0  0  0  0  0  1  0  0  0  0  0  0
  180.0170  179.2400  142.9890 C   0  0  0  0  0  2  0  0  0  0  0  0
  1 37  1  0  0  0  0
  2  1  1  0  0  0  0
  3  1  2  0  0  0  0
  4 23  1  1  0  0  0
  4  3  1  0  0  0  0
  5  2  1  0  0  0  0
  6  4  1  0  0  0  0
  6  5  2  0  0  0  0
  7 10  1  0  0  0  0
  8  9  2  0  0  0  0
  9 10  1  0  0  0  0
  9 11  1  0  0  0  0
 10  6  1  0  0  0  0
 13 12  1  0  0  0  0
 13 11  1  0  0  0  0
 14 13  2  0  0  0  0
 15 12  1  0  0  0  0
 15 21  1  0  0  0  0
 16 21  2  0  0  0  0
 16 19  1  0  0  0  0
 18 19  1  0  0  0  0
 19 22  2  0  0  0  0
 20 17  2  0  0  0  0
 21 20  1  0  0  0  0
 22 17  1  0  0  0  0
 23 25  2  0  0  0  0
 24 23  1  0  0  0  0
 25 26  1  0  0  0  0
 26 27  2  0  0  0  0
 27 28  1  0  0  0  0
 28 31  1  0  0  0  0
 30 34  1  0  0  0  0
 31 30  2  0  0  0  0
 31 32  1  0  0  0  0
 32 33  2  0  0  0  0
 33 29  1  0  0  0  0
 34 29  2  0  0  0  0
 35 36  1  0  0  0  0
 36 28  1  0  0  0  0
 37 38  1  0  0  0  0
 38 39  1  0  0  0  0
 39 43  1  0  0  0  0
 39 41  1  0  0  0  0
 40 41  1  0  0  0  0
 41 42  1  0  0  0  0
 45 43  1  0  0  0  0
 45 44  1  0  0  0  0
M  END
>  <MODEL>
6

>  <REMARK>
 VINA RESULT:      -6.8      2.580      8.459
  Name = 
  15 active torsions:
  status: ('A' for Active; 'I' for Inactive)
    1  A    between atoms: C_1  and  C_8
    2  A    between atoms: N_3  and  C_21
    3  A    between atoms: C_6  and  C_40
    4  A    between atoms: C_8  and  N_33
    5  A    between atoms: N_11  and  C_35
    6  A    between atoms: N_14  and  N_32
    7  A    between atoms: C_17  and  N_32
    8  A    between atoms: N_19  and  C_30
    9  A    between atoms: N_19  and  N_33
   10  A    between atoms: N_19  and  C_37
   11  A    between atoms: C_21  and  C_42
   12  A    between atoms: C_23  and  C_39
   13  A    between atoms: C_26  and  C_37
   14  A    between atoms: C_28  and  C_39
   15  A    between atoms: N_31  and  C_43
                            x       y       z     vdW  Elec       q    Type
                         _______ _______ _______ _____ _____    ______ ____

>  <TORSDO>
F 15

$$$$
=
 OpenBabel11032420383D

 45 47  0  0  1  0  0  0  0  0999 V2000
  181.3330  175.6940  138.2140 C   0  0  0  0  0  0  0  0  0  0  0  0
  180.7710  176.7280  137.2590 C   0  0  0  0  0  2  0  0  0  0  0  0
  182.0340  176.0890  139.2890 C   0  0  0  0  0  3  0  0  0  0  0  0
  182.2650  177.5540  139.5780 C   0  0  2  0  0  3  0  0  0  0  0  0
  180.4380  178.0090  137.9710 C   0  0  0  0  0  3  0  0  0  0  0  0
  181.1490  178.4150  139.0300 C   0  0  0  0  0  0  0  0  0  0  0  0
  180.7870  180.8690  138.9490 C   0  0  0  0  0  1  0  0  0  0  0  0
  180.1110  180.6970  141.6710 O   0  0  0  0  0  0  0  0  0  0  0  0
  180.4620  179.6270  141.1050 C   0  0  0  0  0  0  0  0  0  0  0  0
  180.7860  179.6240  139.7050 N   0  0  0  0  0  0  0  0  0  0  0  0
  180.5670  178.3710  141.9170 C   0  0  0  0  0  2  0  0  0  0  0  0
  182.5440  178.9120  143.3740 N   0  0  0  0  0  2  0  0  0  0  0  0
  181.1490  178.6350  143.2660 C   0  0  0  0  0  0  0  0  0  0  0  0
  180.4190  178.5880  144.2910 O   0  0  0  0  0  0  0  0  0  0  0  0
  183.1740  179.2460  144.6410 C   0  0  0  0  0  2  0  0  0  0  0  0
  185.2310  178.5650  145.9060 C   0  0  0  0  0  3  0  0  0  0  0  0
  186.4440  177.6840  143.5450 C   0  0  0  0  0  3  0  0  0  0  0  0
  187.2550  177.9370  147.2340 C   0  0  0  0  0  1  0  0  0  0  0  0
  186.5250  178.0380  145.9380 C   0  0  0  0  0  0  0  0  0  0  0  0
  185.1510  178.2170  143.5110 C   0  0  0  0  0  3  0  0  0  0  0  0
  184.5420  178.6580  144.6920 C   0  0  0  0  0  0  0  0  0  0  0  0
  187.1320  177.5960  144.7580 C   0  0  0  0  0  3  0  0  0  0  0  0
  183.6160  178.0100  139.1140 C   0  0  0  0  0  0  0  0  0  0  0  0
  184.4320  179.3740  139.9580 S   0  0  0  0  0  1  0  0  0  0  0  0
  184.1890  177.3100  138.1220 C   0  0  0  0  0  3  0  0  0  0  0  0
  185.4490  177.5950  137.4960 N   0  0  0  0  0  0  0  0  0  0  0  0
  186.5160  176.8730  137.6270 C   0  0  0  0  0  3  0  0  0  0  0  0
  187.7340  177.2210  136.9590 N   0  0  0  0  0  0  0  0  0  0  0  0
  191.2460  174.9010  137.5560 C   0  0  0  0  0  3  0  0  0  0  0  0
  190.1420  177.0560  137.5050 C   0  0  0  0  0  3  0  0  0  0  0  0
  188.9270  176.4400  137.1610 C   0  0  0  0  0  0  0  0  0  0  0  0
  188.8920  175.0440  137.0150 C   0  0  0  0  0  3  0  0  0  0  0  0
  190.0450  174.2790  137.2100 C   0  0  0  0  0  3  0  0  0  0  0  0
  191.2950  176.2910  137.7010 C   0  0  0  0  0  3  0  0  0  0  0  0
  187.7170  179.4360  136.8430 O   0  0  0  0  0  1  0  0  0  0  0  0
  187.7520  178.3180  136.0810 N   0  0  0  0  0  2  0  0  0  0  0  0
  181.1440  174.2260  137.9840 C   0  0  0  0  0  2  0  0  0  0  0  0
  182.0490  173.7240  136.9590 N   0  0  0  0  0  2  0  0  0  0  0  0
  182.1750  172.3400  137.1660 N   0  0  0  0  0  0  0  0  0  0  0  0
  182.3270  170.4490  135.6040 C   0  0  0  0  0  1  0  0  0  0  0  0
  181.4820  171.6180  136.0910 C   0  0  0  0  0  3  0  0  0  0  0  0
  180.0860  171.1300  136.4850 C   0  0  0  0  0  1  0  0  0  0  0  0
  183.5940  172.0110  137.1060 C   0  0  0  0  0  2  0  0  0  0  0  0
  185.6330  173.3020  136.7790 N   0  0  0  0  0  1  0  0  0  0  0  0
  184.4260  173.1910  137.5830 C   0  0  0  0  0  2  0  0  0  0  0  0
  1  3  2  0  0  0  0
  2  5  1  0  0  0  0
  2  1  1  0  0  0  0
  3  4  1  0  0  0  0
  4 23  1  6  0  0  0
  5  6  2  0  0  0  0
  6  4  1  0  0  0  0
  6 10  1  0  0  0  0
  7 10  1  0  0  0  0
  9  8  2  0  0  0  0
  9 11  1  0  0  0  0
 10  9  1  0  0  0  0
 11 13  1  0  0  0  0
 12 15  1  0  0  0  0
 13 12  1  0  0  0  0
 13 14  2  0  0  0  0
 15 21  1  0  0  0  0
 16 19  1  0  0  0  0
 17 22  1  0  0  0  0
 19 18  1  0  0  0  0
 20 17  2  0  0  0  0
 20 21  1  0  0  0  0
 21 16  2  0  0  0  0
 22 19  2  0  0  0  0
 23 24  1  0  0  0  0
 25 23  2  0  0  0  0
 26 27  2  0  0  0  0
 26 25  1  0  0  0  0
 28 31  1  0  0  0  0
 28 27  1  0  0  0  0
 29 34  1  0  0  0  0
 30 34  2  0  0  0  0
 31 30  1  0  0  0  0
 32 31  2  0  0  0  0
 32 33  1  0  0  0  0
 33 29  2  0  0  0  0
 36 35  1  0  0  0  0
 36 28  1  0  0  0  0
 37  1  1  0  0  0  0
 38 39  1  0  0  0  0
 38 37  1  0  0  0  0
 40 41  1  0  0  0  0
 41 42  1  0  0  0  0
 41 39  1  0  0  0  0
 43 39  1  0  0  0  0
 43 45  1  0  0  0  0
 44 45  1  0  0  0  0
M  END
>  <MODEL>
7

>  <REMARK>
 VINA RESULT:      -6.8      3.735      8.336
  Name = 
  15 active torsions:
  status: ('A' for Active; 'I' for Inactive)
    1  A    between atoms: C_1  and  C_8
    2  A    between atoms: N_3  and  C_21
    3  A    between atoms: C_6  and  C_40
    4  A    between atoms: C_8  and  N_33
    5  A    between atoms: N_11  and  C_35
    6  A    between atoms: N_14  and  N_32
    7  A    between atoms: C_17  and  N_32
    8  A    between atoms: N_19  and  C_30
    9  A    between atoms: N_19  and  N_33
   10  A    between atoms: N_19  and  C_37
   11  A    between atoms: C_21  and  C_42
   12  A    between atoms: C_23  and  C_39
   13  A    between atoms: C_26  and  C_37
   14  A    between atoms: C_28  and  C_39
   15  A    between atoms: N_31  and  C_43
                            x       y       z     vdW  Elec       q    Type
                         _______ _______ _______ _____ _____    ______ ____

>  <TORSDO>
F 15

$$$$
=
 OpenBabel11032420383D

 45 47  0  0  1  0  0  0  0  0999 V2000
  188.7970  175.1040  135.7690 C   0  0  0  0  0  0  0  0  0  0  0  0
  188.9040  174.4440  137.1290 C   0  0  0  0  0  2  0  0  0  0  0  0
  189.2260  176.3650  135.6030 C   0  0  0  0  0  3  0  0  0  0  0  0
  189.8320  177.1440  136.7480 C   0  0  2  0  0  3  0  0  0  0  0  0
  190.0820  174.9680  137.9010 C   0  0  0  0  0  3  0  0  0  0  0  0
  190.4990  176.2310  137.7530 C   0  0  0  0  0  0  0  0  0  0  0  0
  192.9430  176.6580  137.8220 C   0  0  0  0  0  1  0  0  0  0  0  0
  192.5460  177.5680  140.4510 O   0  0  0  0  0  0  0  0  0  0  0  0
  191.5310  177.1360  139.8410 C   0  0  0  0  0  0  0  0  0  0  0  0
  191.6440  176.6890  138.4800 N   0  0  0  0  0  0  0  0  0  0  0  0
  190.2190  177.0670  140.5630 C   0  0  0  0  0  2  0  0  0  0  0  0
  190.2230  177.5790  143.0260 N   0  0  0  0  0  2  0  0  0  0  0  0
  190.3930  176.6260  141.9780 C   0  0  0  0  0  0  0  0  0  0  0  0
  190.7070  175.4340  142.2360 O   0  0  0  0  0  0  0  0  0  0  0  0
  190.3080  177.2150  144.4300 C   0  0  0  0  0  2  0  0  0  0  0  0
  188.9340  177.6160  146.4910 C   0  0  0  0  0  3  0  0  0  0  0  0
  186.6070  177.8150  144.9520 C   0  0  0  0  0  3  0  0  0  0  0  0
  187.6290  177.9830  148.5930 C   0  0  0  0  0  1  0  0  0  0  0  0
  187.7010  177.8410  147.1110 C   0  0  0  0  0  0  0  0  0  0  0  0
  187.8380  177.5850  144.3310 C   0  0  0  0  0  3  0  0  0  0  0  0
  189.0050  177.4850  145.1000 C   0  0  0  0  0  0  0  0  0  0  0  0
  186.5370  177.9420  146.3420 C   0  0  0  0  0  3  0  0  0  0  0  0
  188.8360  178.0640  137.3880 C   0  0  0  0  0  0  0  0  0  0  0  0
  189.2400  179.8060  137.5920 S   0  0  0  0  0  1  0  0  0  0  0  0
  187.6420  177.5430  137.7110 C   0  0  0  0  0  3  0  0  0  0  0  0
  186.5650  178.2260  138.3690 N   0  0  0  0  0  0  0  0  0  0  0  0
  185.4060  177.7060  138.6170 C   0  0  0  0  0  3  0  0  0  0  0  0
  184.3850  178.4530  139.2890 N   0  0  0  0  0  0  0  0  0  0  0  0
  180.5450  176.7430  139.9210 C   0  0  0  0  0  3  0  0  0  0  0  0
  182.0230  178.6600  139.9960 C   0  0  0  0  0  3  0  0  0  0  0  0
  183.0830  177.8790  139.5060 C   0  0  0  0  0  0  0  0  0  0  0  0
  182.8530  176.5210  139.2310 C   0  0  0  0  0  3  0  0  0  0  0  0
  181.5920  175.9560  139.4380 C   0  0  0  0  0  3  0  0  0  0  0  0
  180.7610  178.0950  140.2030 C   0  0  0  0  0  3  0  0  0  0  0  0
  185.3090  179.6020  140.9460 O   0  0  0  0  0  1  0  0  0  0  0  0
  184.6710  179.7450  139.7610 N   0  0  0  0  0  2  0  0  0  0  0  0
  188.2020  174.3910  134.5940 C   0  0  0  0  0  2  0  0  0  0  0  0
  186.7500  174.3180  134.6900 N   0  0  0  0  0  2  0  0  0  0  0  0
  186.4500  173.2530  135.5550 N   0  0  0  0  0  0  0  0  0  0  0  0
  184.1090  173.9660  135.7790 C   0  0  0  0  0  1  0  0  0  0  0  0
  185.4130  173.6700  136.5070 C   0  0  0  0  0  3  0  0  0  0  0  0
  185.1710  172.6580  137.6290 C   0  0  0  0  0  1  0  0  0  0  0  0
  185.9240  172.1600  134.7450 C   0  0  0  0  0  2  0  0  0  0  0  0
  185.8430  169.7260  134.7180 N   0  0  0  0  0  1  0  0  0  0  0  0
  186.6740  170.8730  135.0500 C   0  0  0  0  0  2  0  0  0  0  0  0
  1  2  1  0  0  0  0
  2  5  1  0  0  0  0
  3  1  2  0  0  0  0
  3  4  1  0  0  0  0
  4 23  1  1  0  0  0
  4  6  1  0  0  0  0
  6  5  2  0  0  0  0
  6 10  1  0  0  0  0
  7 10  1  0  0  0  0
  9  8  2  0  0  0  0
  9 11  1  0  0  0  0
 10  9  1  0  0  0  0
 11 13  1  0  0  0  0
 12 15  1  0  0  0  0
 13 14  2  0  0  0  0
 13 12  1  0  0  0  0
 15 21  1  0  0  0  0
 16 19  1  0  0  0  0
 17 22  1  0  0  0  0
 19 18  1  0  0  0  0
 20 17  2  0  0  0  0
 20 21  1  0  0  0  0
 21 16  2  0  0  0  0
 22 19  2  0  0  0  0
 23 24  1  0  0  0  0
 23 25  2  0  0  0  0
 25 26  1  0  0  0  0
 26 27  2  0  0  0  0
 27 28  1  0  0  0  0
 28 31  1  0  0  0  0
 28 36  1  0  0  0  0
 29 34  1  0  0  0  0
 30 34  2  0  0  0  0
 31 30  1  0  0  0  0
 32 33  1  0  0  0  0
 32 31  2  0  0  0  0
 33 29  2  0  0  0  0
 36 35  1  0  0  0  0
 37 38  1  0  0  0  0
 37  1  1  0  0  0  0
 38 39  1  0  0  0  0
 39 41  1  0  0  0  0
 40 41  1  0  0  0  0
 41 42  1  0  0  0  0
 43 45  1  0  0  0  0
 43 39  1  0  0  0  0
 44 45  1  0  0  0  0
M  END
>  <MODEL>
8

>  <REMARK>
 VINA RESULT:      -6.8      2.550      7.131
  Name = 
  15 active torsions:
  status: ('A' for Active; 'I' for Inactive)
    1  A    between atoms: C_1  and  C_8
    2  A    between atoms: N_3  and  C_21
    3  A    between atoms: C_6  and  C_40
    4  A    between atoms: C_8  and  N_33
    5  A    between atoms: N_11  and  C_35
    6  A    between atoms: N_14  and  N_32
    7  A    between atoms: C_17  and  N_32
    8  A    between atoms: N_19  and  C_30
    9  A    between atoms: N_19  and  N_33
   10  A    between atoms: N_19  and  C_37
   11  A    between atoms: C_21  and  C_42
   12  A    between atoms: C_23  and  C_39
   13  A    between atoms: C_26  and  C_37
   14  A    between atoms: C_28  and  C_39
   15  A    between atoms: N_31  and  C_43
                            x       y       z     vdW  Elec       q    Type
                         _______ _______ _______ _____ _____    ______ ____

>  <TORSDO>
F 15

$$$$
=
 OpenBabel11032420383D

 45 47  0  0  1  0  0  0  0  0999 V2000
  187.2980  178.4600  141.3410 C   0  0  0  0  0  0  0  0  0  0  0  0
  186.8760  177.2130  142.0910 C   0  0  0  0  0  2  0  0  0  0  0  0
  186.3790  179.3770  141.0000 C   0  0  0  0  0  3  0  0  0  0  0  0
  184.9230  179.2000  141.3620 C   0  0  2  0  0  3  0  0  0  0  0  0
  185.6850  177.4770  142.9680 C   0  0  0  0  0  3  0  0  0  0  0  0
  184.7570  178.3760  142.6200 C   0  0  0  0  0  0  0  0  0  0  0  0
  182.3150  178.2550  143.0480 C   0  0  0  0  0  1  0  0  0  0  0  0
  182.8560  179.4450  145.5360 O   0  0  0  0  0  0  0  0  0  0  0  0
  183.8390  179.2650  144.7680 C   0  0  0  0  0  0  0  0  0  0  0  0
  183.6510  178.6270  143.4930 N   0  0  0  0  0  0  0  0  0  0  0  0
  185.1930  179.7530  145.1870 C   0  0  0  0  0  2  0  0  0  0  0  0
  187.0750  178.2830  145.9770 N   0  0  0  0  0  2  0  0  0  0  0  0
  185.7990  178.8690  146.2260 C   0  0  0  0  0  0  0  0  0  0  0  0
  185.1770  178.6290  147.2950 O   0  0  0  0  0  0  0  0  0  0  0  0
  187.7620  177.4660  146.9640 C   0  0  0  0  0  2  0  0  0  0  0  0
  189.4080  177.1310  145.1010 C   0  0  0  0  0  3  0  0  0  0  0  0
  191.4000  176.4190  146.9310 C   0  0  0  0  0  3  0  0  0  0  0  0
  190.9830  176.7920  143.1870 C   0  0  0  0  0  1  0  0  0  0  0  0
  190.6830  176.7790  144.6470 C   0  0  0  0  0  0  0  0  0  0  0  0
  190.1240  176.7650  147.3860 C   0  0  0  0  0  3  0  0  0  0  0  0
  189.1250  177.1230  146.4710 C   0  0  0  0  0  0  0  0  0  0  0  0
  191.6800  176.4250  145.5610 C   0  0  0  0  0  3  0  0  0  0  0  0
  184.1240  178.6570  140.2160 C   0  0  0  0  0  0  0  0  0  0  0  0
  183.7640  179.7150  138.8050 S   0  0  0  0  0  1  0  0  0  0  0  0
  183.7790  177.3610  140.2720 C   0  0  0  0  0  3  0  0  0  0  0  0
  182.9820  176.6500  139.3120 N   0  0  0  0  0  0  0  0  0  0  0  0
  183.3450  175.5590  138.7180 C   0  0  0  0  0  3  0  0  0  0  0  0
  182.4840  174.9040  137.7790 N   0  0  0  0  0  0  0  0  0  0  0  0
  183.7740  171.4160  135.7190 C   0  0  0  0  0  3  0  0  0  0  0  0
  184.2290  173.2270  137.2610 C   0  0  0  0  0  3  0  0  0  0  0  0
  182.9260  173.7240  137.0830 C   0  0  0  0  0  0  0  0  0  0  0  0
  182.0580  173.0500  136.2100 C   0  0  0  0  0  3  0  0  0  0  0  0
  182.4790  171.9030  135.5310 C   0  0  0  0  0  3  0  0  0  0  0  0
  184.6500  172.0800  136.5830 C   0  0  0  0  0  3  0  0  0  0  0  0
  180.3830  174.8410  138.4870 O   0  0  0  0  0  1  0  0  0  0  0  0
  181.1910  175.4060  137.5590 N   0  0  0  0  0  2  0  0  0  0  0  0
  188.7250  178.6950  140.9470 C   0  0  0  0  0  2  0  0  0  0  0  0
  188.8750  178.7670  139.5000 N   0  0  0  0  0  2  0  0  0  0  0  0
  188.6360  177.4760  139.0000 N   0  0  0  0  0  0  0  0  0  0  0  0
  186.6360  177.4840  137.5710 C   0  0  0  0  0  1  0  0  0  0  0  0
  188.1550  177.5680  137.6140 C   0  0  0  0  0  3  0  0  0  0  0  0
  188.6330  178.8250  136.8850 C   0  0  0  0  0  1  0  0  0  0  0  0
  189.9050  176.7570  139.0030 C   0  0  0  0  0  2  0  0  0  0  0  0
  191.1500  174.9400  137.9660 N   0  0  0  0  0  1  0  0  0  0  0  0
  189.8660  175.6220  137.9930 C   0  0  0  0  0  2  0  0  0  0  0  0
  1  2  1  0  0  0  0
  2  5  1  0  0  0  0
  3  1  2  0  0  0  0
  3  4  1  0  0  0  0
  4 23  1  6  0  0  0
  4  6  1  0  0  0  0
  6  5  2  0  0  0  0
  6 10  1  0  0  0  0
  7 10  1  0  0  0  0
  9 11  1  0  0  0  0
  9  8  2  0  0  0  0
 10  9  1  0  0  0  0
 11 13  1  0  0  0  0
 12 13  1  0  0  0  0
 12 15  1  0  0  0  0
 13 14  2  0  0  0  0
 16 21  1  0  0  0  0
 17 20  1  0  0  0  0
 18 19  1  0  0  0  0
 19 16  2  0  0  0  0
 19 22  1  0  0  0  0
 21 15  1  0  0  0  0
 21 20  2  0  0  0  0
 22 17  2  0  0  0  0
 23 25  2  0  0  0  0
 24 23  1  0  0  0  0
 26 25  1  0  0  0  0
 27 26  2  0  0  0  0
 28 27  1  0  0  0  0
 29 34  1  0  0  0  0
 31 30  1  0  0  0  0
 31 28  1  0  0  0  0
 32 31  2  0  0  0  0
 33 29  2  0  0  0  0
 33 32  1  0  0  0  0
 34 30  2  0  0  0  0
 36 28  1  0  0  0  0
 36 35  1  0  0  0  0
 37  1  1  0  0  0  0
 38 37  1  0  0  0  0
 39 43  1  0  0  0  0
 39 38  1  0  0  0  0
 40 41  1  0  0  0  0
 41 39  1  0  0  0  0
 42 41  1  0  0  0  0
 44 45  1  0  0  0  0
 45 43  1  0  0  0  0
M  END
>  <MODEL>
9

>  <REMARK>
 VINA RESULT:      -6.5      3.163      8.487
  Name = 
  15 active torsions:
  status: ('A' for Active; 'I' for Inactive)
    1  A    between atoms: C_1  and  C_8
    2  A    between atoms: N_3  and  C_21
    3  A    between atoms: C_6  and  C_40
    4  A    between atoms: C_8  and  N_33
    5  A    between atoms: N_11  and  C_35
    6  A    between atoms: N_14  and  N_32
    7  A    between atoms: C_17  and  N_32
    8  A    between atoms: N_19  and  C_30
    9  A    between atoms: N_19  and  N_33
   10  A    between atoms: N_19  and  C_37
   11  A    between atoms: C_21  and  C_42
   12  A    between atoms: C_23  and  C_39
   13  A    between atoms: C_26  and  C_37
   14  A    between atoms: C_28  and  C_39
   15  A    between atoms: N_31  and  C_43
                            x       y       z     vdW  Elec       q    Type
                         _______ _______ _______ _____ _____    ______ ____

>  <TORSDO>
F 15

$$$$
