=
 OpenBabel11042411053D

 39 42  0  0  1  0  0  0  0  0999 V2000
  190.0370  178.0730  143.0280 N   0  0  0  0  0  0  0  0  0  0  0  0
  187.7190  177.5760  142.4650 C   0  0  0  0  0  3  0  0  0  0  0  0
  189.0950  177.5050  145.2240 C   0  0  0  0  0  0  0  0  0  0  0  0
  189.1500  177.1800  142.2940 C   0  0  1  0  0  3  0  0  0  0  0  0
  187.1160  177.6160  143.6530 C   0  0  0  0  0  0  0  0  0  0  0  0
  190.0450  178.1870  144.3220 C   0  0  0  0  0  3  0  0  0  0  0  0
  187.8020  177.3070  144.9240 C   0  0  0  0  0  3  0  0  0  0  0  0
  190.5010  176.3790  140.3590 N   0  0  0  0  0  0  0  0  0  0  0  0
  188.9670  177.9960  139.9330 N   0  0  0  0  0  2  0  0  0  0  0  0
  189.5250  177.1740  140.8510 C   0  0  0  0  0  0  0  0  0  0  0  0
  190.5580  176.7180  139.0600 C   0  0  0  0  0  0  0  0  0  0  0  0
  189.6270  177.6970  138.8010 C   0  0  0  0  0  0  0  0  0  0  0  0
  192.9010  176.4990  138.3350 C   0  0  0  0  0  1  0  0  0  0  0  0
  191.4700  176.0760  138.0700 C   0  0  0  0  0  2  0  0  0  0  0  0
  189.3510  178.3370  137.4840 C   0  0  0  0  0  2  0  0  0  0  0  0
  189.0040  179.6760  137.6710 O   0  0  0  0  0  1  0  0  0  0  0  0
  185.6510  177.9020  143.6930 C   0  0  0  0  0  2  0  0  0  0  0  0
  185.1870  178.3170  142.4100 O   0  0  0  0  0  0  0  0  0  0  0  0
  182.8890  178.9690  142.9520 C   0  0  0  0  0  3  0  0  0  0  0  0
  183.8290  178.3990  142.0780 C   0  0  0  0  0  0  0  0  0  0  0  0
  181.1020  178.5080  141.3690 C   0  0  0  0  0  0  0  0  0  0  0  0
  182.0470  177.9430  140.4990 C   0  0  0  0  0  3  0  0  0  0  0  0
  183.3990  177.8930  140.8490 C   0  0  0  0  0  3  0  0  0  0  0  0
  181.5380  179.0150  142.6020 C   0  0  0  0  0  3  0  0  0  0  0  0
  179.6460  180.8980  140.0610 C   0  0  0  0  0  1  0  0  0  0  0  0
  179.0340  179.6040  140.3200 N   0  0  0  0  0  2  0  0  0  0  0  0
  179.6570  178.5300  141.0400 C   0  0  0  0  0  0  0  0  0  0  0  0
  178.9380  177.5580  141.3960 O   0  0  0  0  0  0  0  0  0  0  0  0
  189.5850  177.1690  146.6040 C   0  0  1  0  0  3  0  0  0  0  0  0
  191.4730  175.6710  147.2280 C   0  0  1  0  0  3  0  0  0  0  0  0
  191.1090  177.0270  146.6540 C   0  0  1  0  0  3  0  0  0  0  0  0
  191.5600  175.9060  145.7360 C   0  0  0  0  0  2  0  0  0  0  0  0
  192.8830  176.7730  148.8650 N   0  0  0  0  0  1  0  0  0  0  0  0
  192.8600  175.7490  147.8350 C   0  0  0  0  0  2  0  0  0  0  0  0
  189.0180  178.1330  147.6600 C   0  0  2  0  0  3  0  0  0  0  0  0
  189.9660  178.3490  148.8350 C   0  0  0  0  0  1  0  0  0  0  0  0
  187.6520  177.6680  148.1420 C   0  0  0  0  0  2  0  0  0  0  0  0
  186.6060  178.5890  147.6850 C   0  0  0  0  0  0  0  0  0  0  0  0
  185.7800  179.3150  147.3240 N   0  0  0  0  0  0  0  0  0  0  0  0
  1  6  2  0  0  0  0
  2  5  2  0  0  0  0
  3 29  1  0  0  0  0
  4 10  1  6  0  0  0
  4  2  1  0  0  0  0
  4  1  1  0  0  0  0
  5 17  1  0  0  0  0
  5  7  1  0  0  0  0
  6  3  1  0  0  0  0
  7  3  2  0  0  0  0
  8 10  2  0  0  0  0
  9 10  1  0  0  0  0
 11  8  1  0  0  0  0
 12 11  2  0  0  0  0
 12  9  1  0  0  0  0
 14 13  1  0  0  0  0
 14 11  1  0  0  0  0
 15 16  1  0  0  0  0
 15 12  1  0  0  0  0
 18 17  1  0  0  0  0
 20 18  1  0  0  0  0
 20 19  2  0  0  0  0
 21 24  2  0  0  0  0
 22 23  2  0  0  0  0
 22 21  1  0  0  0  0
 23 20  1  0  0  0  0
 24 19  1  0  0  0  0
 25 26  1  0  0  0  0
 26 27  1  0  0  0  0
 27 21  1  0  0  0  0
 27 28  2  0  0  0  0
 29 35  1  1  0  0  0
 30 34  1  1  0  0  0
 31 29  1  6  0  0  0
 31 30  1  0  0  0  0
 32 31  1  0  0  0  0
 32 30  1  0  0  0  0
 34 33  1  0  0  0  0
 35 37  1  0  0  0  0
 35 36  1  1  0  0  0
 38 37  1  0  0  0  0
 39 38  3  0  0  0  0
M  END
>  <MODEL>
1

>  <REMARK>
 VINA RESULT:      -8.9      0.000      0.000
  Name = 
  13 active torsions:
  status: ('A' for Active; 'I' for Inactive)
    1  A    between atoms: O_1  and  C_2
    2  A    between atoms: O_1  and  C_17
    3  A    between atoms: C_2  and  C_32
    4  A    between atoms: C_4  and  C_36
    5  A    between atoms: C_10  and  C_20
    6  A    between atoms: C_11  and  C_29
    7  A    between atoms: C_12  and  C_16
    8  A    between atoms: C_12  and  C_20
    9  A    between atoms: C_16  and  C_22
   10  A    between atoms: C_18  and  C_19
   11  A    between atoms: C_20  and  C_24
   12  A    between atoms: C_21  and  C_26
   13  A    between atoms: CA_27  and  C_35
                            x       y       z     vdW  Elec       q    Type
                         _______ _______ _______ _____ _____    ______ ____

>  <TORSDO>
F 13

$$$$
=
 OpenBabel11042411053D

 39 42  0  0  1  0  0  0  0  0999 V2000
  190.5930  177.7980  141.9440 N   0  0  0  0  0  0  0  0  0  0  0  0
  188.3920  177.9120  140.9050 C   0  0  0  0  0  3  0  0  0  0  0  0
  189.1050  177.6140  143.8900 C   0  0  0  0  0  0  0  0  0  0  0  0
  189.6650  177.1400  141.0340 C   0  0  1  0  0  3  0  0  0  0  0  0
  187.5940  178.1710  141.9390 C   0  0  0  0  0  0  0  0  0  0  0  0
  190.3690  177.9700  143.2120 C   0  0  0  0  0  3  0  0  0  0  0  0
  187.8970  177.7540  143.3230 C   0  0  0  0  0  3  0  0  0  0  0  0
  189.5980  176.8960  138.5540 N   0  0  0  0  0  0  0  0  0  0  0  0
  191.6420  176.7930  139.5340 N   0  0  0  0  0  0  0  0  0  0  0  0
  190.3100  176.9610  139.7010 C   0  0  0  0  0  0  0  0  0  0  0  0
  190.5330  176.6760  137.6150 C   0  0  2  0  0  3  0  0  0  0  0  0
  191.7720  176.6160  138.2090 C   0  0  0  0  0  0  0  0  0  0  0  0
  190.0670  175.1140  135.7700 C   0  0  0  0  0  1  0  0  0  0  0  0
  190.2410  176.5690  136.1560 C   0  0  0  0  0  2  0  0  0  0  0  0
  193.0780  176.4070  137.5230 C   0  0  0  0  0  2  0  0  0  0  0  0
  194.0800  176.1810  138.4680 O   0  0  0  0  0  1  0  0  0  0  0  0
  186.2860  178.8410  141.6740 C   0  0  0  0  0  2  0  0  0  0  0  0
  185.3420  178.5150  142.6900 O   0  0  0  0  0  0  0  0  0  0  0  0
  183.1000  179.0130  143.5420 C   0  0  0  0  0  3  0  0  0  0  0  0
  183.9570  178.6080  142.5060 C   0  0  0  0  0  0  0  0  0  0  0  0
  181.1720  178.7460  142.0860 C   0  0  0  0  0  0  0  0  0  0  0  0
  182.0340  178.3450  141.0530 C   0  0  0  0  0  3  0  0  0  0  0  0
  183.4150  178.2810  141.2610 C   0  0  0  0  0  3  0  0  0  0  0  0
  181.7210  179.0730  143.3340 C   0  0  0  0  0  3  0  0  0  0  0  0
  179.6370  181.0180  140.6630 C   0  0  0  0  0  1  0  0  0  0  0  0
  179.0290  179.7820  141.1300 N   0  0  0  0  0  2  0  0  0  0  0  0
  179.7020  178.7770  141.9030 C   0  0  0  0  0  0  0  0  0  0  0  0
  179.0040  177.8750  142.4400 O   0  0  0  0  0  0  0  0  0  0  0  0
  189.1940  177.2280  145.3380 C   0  0  1  0  0  3  0  0  0  0  0  0
  190.9210  176.2350  146.8320 C   0  0  1  0  0  3  0  0  0  0  0  0
  190.6150  177.3840  145.8890 C   0  0  1  0  0  3  0  0  0  0  0  0
  191.4840  176.2280  145.4280 C   0  0  0  0  0  2  0  0  0  0  0  0
  193.0170  175.6410  147.8980 N   0  0  0  0  0  1  0  0  0  0  0  0
  191.9970  176.6710  147.8070 C   0  0  0  0  0  2  0  0  0  0  0  0
  188.1220  177.9380  146.1830 C   0  0  2  0  0  3  0  0  0  0  0  0
  188.5260  178.0930  147.6460 C   0  0  0  0  0  1  0  0  0  0  0  0
  186.7800  177.2310  146.0620 C   0  0  0  0  0  2  0  0  0  0  0  0
  185.6870  178.1430  146.4150 C   0  0  0  0  0  0  0  0  0  0  0  0
  184.8240  178.8610  146.6950 N   0  0  0  0  0  0  0  0  0  0  0  0
  1  6  2  0  0  0  0
  2  4  1  0  0  0  0
  2  5  2  0  0  0  0
  3 29  1  0  0  0  0
  4 10  1  6  0  0  0
  4  1  1  0  0  0  0
  5  7  1  0  0  0  0
  6  3  1  0  0  0  0
  7  3  2  0  0  0  0
  8 10  2  0  0  0  0
  9 10  1  0  0  0  0
 11 14  1  6  0  0  0
 11 12  1  0  0  0  0
 11  8  1  0  0  0  0
 12  9  2  0  0  0  0
 13 14  1  0  0  0  0
 15 12  1  0  0  0  0
 15 16  1  0  0  0  0
 17  5  1  0  0  0  0
 17 18  1  0  0  0  0
 20 18  1  0  0  0  0
 20 19  2  0  0  0  0
 21 24  2  0  0  0  0
 22 23  2  0  0  0  0
 22 21  1  0  0  0  0
 23 20  1  0  0  0  0
 24 19  1  0  0  0  0
 25 26  1  0  0  0  0
 26 27  1  0  0  0  0
 27 21  1  0  0  0  0
 27 28  2  0  0  0  0
 29 35  1  1  0  0  0
 30 34  1  1  0  0  0
 31 29  1  6  0  0  0
 31 30  1  0  0  0  0
 32 31  1  0  0  0  0
 32 30  1  0  0  0  0
 34 33  1  0  0  0  0
 35 36  1  1  0  0  0
 37 35  1  0  0  0  0
 37 38  1  0  0  0  0
 38 39  3  0  0  0  0
M  END
>  <MODEL>
2

>  <REMARK>
 VINA RESULT:      -8.8      1.545      1.974
  Name = 
  13 active torsions:
  status: ('A' for Active; 'I' for Inactive)
    1  A    between atoms: O_1  and  C_2
    2  A    between atoms: O_1  and  C_17
    3  A    between atoms: C_2  and  C_32
    4  A    between atoms: C_4  and  C_36
    5  A    between atoms: C_10  and  C_20
    6  A    between atoms: C_11  and  C_29
    7  A    between atoms: C_12  and  C_16
    8  A    between atoms: C_12  and  C_20
    9  A    between atoms: C_16  and  C_22
   10  A    between atoms: C_18  and  C_19
   11  A    between atoms: C_20  and  C_24
   12  A    between atoms: C_21  and  C_26
   13  A    between atoms: CA_27  and  C_35
                            x       y       z     vdW  Elec       q    Type
                         _______ _______ _______ _____ _____    ______ ____

>  <TORSDO>
F 13

$$$$
=
 OpenBabel11042411053D

 39 42  0  0  1  0  0  0  0  0999 V2000
  189.8420  176.4850  142.4740 N   0  0  0  0  0  0  0  0  0  0  0  0
  188.0400  178.0910  142.8080 C   0  0  0  0  0  3  0  0  0  0  0  0
  189.5760  177.4220  140.2190 C   0  0  0  0  0  0  0  0  0  0  0  0
  189.4450  177.7130  143.1500 C   0  0  1  0  0  3  0  0  0  0  0  0
  187.6420  178.3450  141.5620 C   0  0  0  0  0  0  0  0  0  0  0  0
  189.9430  176.3660  141.1850 C   0  0  0  0  0  3  0  0  0  0  0  0
  188.5330  178.2490  140.3890 C   0  0  0  0  0  3  0  0  0  0  0  0
  190.7460  177.1030  145.1870 N   0  0  0  0  0  0  0  0  0  0  0  0
  188.6020  177.7710  145.5090 N   0  0  0  0  0  0  0  0  0  0  0  0
  189.6010  177.5480  144.6250 C   0  0  0  0  0  0  0  0  0  0  0  0
  190.4520  177.0450  146.4970 C   0  0  2  0  0  3  0  0  0  0  0  0
  189.1530  177.4520  146.6920 C   0  0  0  0  0  0  0  0  0  0  0  0
  192.3210  175.5360  147.0360 C   0  0  0  0  0  1  0  0  0  0  0  0
  191.4250  176.6440  147.5530 C   0  0  0  0  0  2  0  0  0  0  0  0
  188.4390  177.5550  147.9960 C   0  0  0  0  0  2  0  0  0  0  0  0
  187.3150  178.3700  147.8580 O   0  0  0  0  0  1  0  0  0  0  0  0
  186.2470  178.8360  141.3520 C   0  0  0  0  0  2  0  0  0  0  0  0
  185.6290  179.1380  142.6000 O   0  0  0  0  0  0  0  0  0  0  0  0
  183.6920  179.1780  144.0980 C   0  0  0  0  0  3  0  0  0  0  0  0
  184.2520  179.0180  142.8210 C   0  0  0  0  0  0  0  0  0  0  0  0
  181.4740  178.7310  143.2100 C   0  0  0  0  0  0  0  0  0  0  0  0
  182.0380  178.5750  141.9350 C   0  0  0  0  0  3  0  0  0  0  0  0
  183.4150  178.7210  141.7410 C   0  0  0  0  0  3  0  0  0  0  0  0
  182.3170  179.0270  144.2900 C   0  0  0  0  0  3  0  0  0  0  0  0
  179.2700  180.6730  142.2550 C   0  0  0  0  0  1  0  0  0  0  0  0
  179.0160  179.3870  142.8850 N   0  0  0  0  0  2  0  0  0  0  0  0
  180.0240  178.5350  143.4470 C   0  0  0  0  0  0  0  0  0  0  0  0
  179.6510  177.5690  144.1670 O   0  0  0  0  0  0  0  0  0  0  0  0
  190.3260  177.4480  138.9180 C   0  0  1  0  0  3  0  0  0  0  0  0
  191.9300  176.2760  137.4170 C   0  0  1  0  0  3  0  0  0  0  0  0
  191.3290  176.2950  138.8100 C   0  0  1  0  0  3  0  0  0  0  0  0
  192.7260  176.8380  138.5750 C   0  0  0  0  0  2  0  0  0  0  0  0
  191.3610  173.9190  137.4240 N   0  0  0  0  0  1  0  0  0  0  0  0
  192.4100  174.8720  137.1060 C   0  0  0  0  0  2  0  0  0  0  0  0
  189.3730  177.5540  137.7150 C   0  0  2  0  0  3  0  0  0  0  0  0
  189.0590  178.9970  137.3330 C   0  0  0  0  0  1  0  0  0  0  0  0
  188.0950  176.7660  137.9630 C   0  0  0  0  0  2  0  0  0  0  0  0
  188.0680  175.5590  137.1300 C   0  0  0  0  0  0  0  0  0  0  0  0
  188.0450  174.6060  136.4740 N   0  0  0  0  0  0  0  0  0  0  0  0
  1  4  1  0  0  0  0
  2  4  1  0  0  0  0
  3  7  2  0  0  0  0
  3  6  1  0  0  0  0
  4 10  1  1  0  0  0
  5  2  2  0  0  0  0
  6  1  2  0  0  0  0
  7  5  1  0  0  0  0
  8 11  1  0  0  0  0
  9 12  2  0  0  0  0
 10  8  2  0  0  0  0
 10  9  1  0  0  0  0
 11 12  1  0  0  0  0
 11 14  1  1  0  0  0
 12 15  1  0  0  0  0
 13 14  1  0  0  0  0
 16 15  1  0  0  0  0
 17  5  1  0  0  0  0
 17 18  1  0  0  0  0
 18 20  1  0  0  0  0
 19 24  1  0  0  0  0
 20 19  2  0  0  0  0
 21 27  1  0  0  0  0
 21 24  2  0  0  0  0
 22 21  1  0  0  0  0
 23 22  2  0  0  0  0
 23 20  1  0  0  0  0
 25 26  1  0  0  0  0
 26 27  1  0  0  0  0
 27 28  2  0  0  0  0
 29 35  1  6  0  0  0
 29  3  1  0  0  0  0
 30 34  1  1  0  0  0
 30 32  1  0  0  0  0
 30 31  1  0  0  0  0
 31 29  1  6  0  0  0
 32 31  1  0  0  0  0
 34 33  1  0  0  0  0
 35 36  1  1  0  0  0
 35 37  1  0  0  0  0
 38 37  1  0  0  0  0
 39 38  3  0  0  0  0
M  END
>  <MODEL>
3

>  <REMARK>
 VINA RESULT:      -8.8      2.010      6.845
  Name = 
  13 active torsions:
  status: ('A' for Active; 'I' for Inactive)
    1  A    between atoms: O_1  and  C_2
    2  A    between atoms: O_1  and  C_17
    3  A    between atoms: C_2  and  C_32
    4  A    between atoms: C_4  and  C_36
    5  A    between atoms: C_10  and  C_20
    6  A    between atoms: C_11  and  C_29
    7  A    between atoms: C_12  and  C_16
    8  A    between atoms: C_12  and  C_20
    9  A    between atoms: C_16  and  C_22
   10  A    between atoms: C_18  and  C_19
   11  A    between atoms: C_20  and  C_24
   12  A    between atoms: C_21  and  C_26
   13  A    between atoms: CA_27  and  C_35
                            x       y       z     vdW  Elec       q    Type
                         _______ _______ _______ _____ _____    ______ ____

>  <TORSDO>
F 13

$$$$
=
 OpenBabel11042411053D

 39 42  0  0  1  0  0  0  0  0999 V2000
  190.3350  178.0290  142.8660 N   0  0  0  0  0  0  0  0  0  0  0  0
  188.0610  177.6310  142.0860 C   0  0  0  0  0  3  0  0  0  0  0  0
  189.1690  177.4950  144.9600 C   0  0  0  0  0  0  0  0  0  0  0  0
  189.4850  177.1770  142.0460 C   0  0  1  0  0  3  0  0  0  0  0  0
  187.3520  177.6920  143.2120 C   0  0  0  0  0  0  0  0  0  0  0  0
  190.2270  178.1390  144.1560 C   0  0  0  0  0  3  0  0  0  0  0  0
  187.9040  177.3510  144.5390 C   0  0  0  0  0  3  0  0  0  0  0  0
  189.2380  177.5560  139.5950 N   0  0  0  0  0  0  0  0  0  0  0  0
  191.2150  176.6940  140.3000 N   0  0  0  0  0  0  0  0  0  0  0  0
  189.9920  177.1590  140.6440 C   0  0  0  0  0  0  0  0  0  0  0  0
  190.0310  177.3310  138.5340 C   0  0  2  0  0  3  0  0  0  0  0  0
  191.2300  176.8100  138.9620 C   0  0  0  0  0  0  0  0  0  0  0  0
  188.9750  179.0070  137.0730 C   0  0  0  0  0  1  0  0  0  0  0  0
  189.6550  177.6540  137.1280 C   0  0  0  0  0  2  0  0  0  0  0  0
  192.3940  176.4370  138.1080 C   0  0  0  0  0  2  0  0  0  0  0  0
  193.5700  176.9400  138.6650 O   0  0  0  0  0  1  0  0  0  0  0  0
  185.9030  178.0390  143.1170 C   0  0  0  0  0  2  0  0  0  0  0  0
  185.6730  178.9390  142.0360 O   0  0  0  0  0  0  0  0  0  0  0  0
  184.5560  179.2360  139.8770 C   0  0  0  0  0  3  0  0  0  0  0  0
  184.5230  178.8990  141.2400 C   0  0  0  0  0  0  0  0  0  0  0  0
  182.1660  178.8330  139.6920 C   0  0  0  0  0  0  0  0  0  0  0  0
  182.1390  178.4940  141.0530 C   0  0  0  0  0  3  0  0  0  0  0  0
  183.3080  178.5230  141.8200 C   0  0  0  0  0  3  0  0  0  0  0  0
  183.3870  179.2100  139.1140 C   0  0  0  0  0  3  0  0  0  0  0  0
  180.3810  181.3210  139.2870 C   0  0  0  0  0  1  0  0  0  0  0  0
  180.1920  180.0540  138.6010 N   0  0  0  0  0  2  0  0  0  0  0  0
  180.9320  178.8540  138.8720 C   0  0  0  0  0  0  0  0  0  0  0  0
  180.5120  177.7730  138.3780 O   0  0  0  0  0  0  0  0  0  0  0  0
  189.5140  177.1340  146.3770 C   0  0  1  0  0  3  0  0  0  0  0  0
  191.3660  175.6810  147.1890 C   0  0  1  0  0  3  0  0  0  0  0  0
  191.0270  177.0340  146.5930 C   0  0  1  0  0  3  0  0  0  0  0  0
  191.6090  175.9400  145.7180 C   0  0  0  0  0  2  0  0  0  0  0  0
  192.6520  176.9710  148.7900 N   0  0  0  0  0  1  0  0  0  0  0  0
  192.6750  175.7890  147.9460 C   0  0  0  0  0  2  0  0  0  0  0  0
  188.8050  178.0530  147.3870 C   0  0  2  0  0  3  0  0  0  0  0  0
  189.6280  178.2950  148.6480 C   0  0  0  0  0  1  0  0  0  0  0  0
  187.4240  177.5130  147.7340 C   0  0  0  0  0  2  0  0  0  0  0  0
  186.3860  178.4710  147.3410 C   0  0  0  0  0  0  0  0  0  0  0  0
  185.5670  179.2290  147.0320 N   0  0  0  0  0  0  0  0  0  0  0  0
  1  6  2  0  0  0  0
  2  5  2  0  0  0  0
  3 29  1  0  0  0  0
  4 10  1  6  0  0  0
  4  2  1  0  0  0  0
  4  1  1  0  0  0  0
  5  7  1  0  0  0  0
  6  3  1  0  0  0  0
  7  3  2  0  0  0  0
  8 10  2  0  0  0  0
  9 10  1  0  0  0  0
 11 14  1  1  0  0  0
 11 12  1  0  0  0  0
 11  8  1  0  0  0  0
 12  9  2  0  0  0  0
 13 14  1  0  0  0  0
 15 16  1  0  0  0  0
 15 12  1  0  0  0  0
 17  5  1  0  0  0  0
 18 17  1  0  0  0  0
 19 20  1  0  0  0  0
 20 23  2  0  0  0  0
 20 18  1  0  0  0  0
 21 22  2  0  0  0  0
 22 23  1  0  0  0  0
 24 21  1  0  0  0  0
 24 19  2  0  0  0  0
 26 27  1  0  0  0  0
 26 25  1  0  0  0  0
 27 21  1  0  0  0  0
 28 27  2  0  0  0  0
 29 35  1  1  0  0  0
 30 34  1  1  0  0  0
 31 29  1  6  0  0  0
 31 30  1  0  0  0  0
 32 31  1  0  0  0  0
 32 30  1  0  0  0  0
 34 33  1  0  0  0  0
 35 37  1  0  0  0  0
 35 36  1  1  0  0  0
 38 37  1  0  0  0  0
 39 38  3  0  0  0  0
M  END
>  <MODEL>
4

>  <REMARK>
 VINA RESULT:      -8.8      1.353      1.962
  Name = 
  13 active torsions:
  status: ('A' for Active; 'I' for Inactive)
    1  A    between atoms: O_1  and  C_2
    2  A    between atoms: O_1  and  C_17
    3  A    between atoms: C_2  and  C_32
    4  A    between atoms: C_4  and  C_36
    5  A    between atoms: C_10  and  C_20
    6  A    between atoms: C_11  and  C_29
    7  A    between atoms: C_12  and  C_16
    8  A    between atoms: C_12  and  C_20
    9  A    between atoms: C_16  and  C_22
   10  A    between atoms: C_18  and  C_19
   11  A    between atoms: C_20  and  C_24
   12  A    between atoms: C_21  and  C_26
   13  A    between atoms: CA_27  and  C_35
                            x       y       z     vdW  Elec       q    Type
                         _______ _______ _______ _____ _____    ______ ____

>  <TORSDO>
F 13

$$$$
=
 OpenBabel11042411053D

 39 42  0  0  1  0  0  0  0  0999 V2000
  188.7960  178.5080  138.3440 N   0  0  0  0  0  0  0  0  0  0  0  0
  189.3610  177.7690  140.5960 C   0  0  0  0  0  3  0  0  0  0  0  0
  190.7160  177.0350  137.9260 C   0  0  0  0  0  0  0  0  0  0  0  0
  188.3370  177.7610  139.5070 C   0  0  1  0  0  3  0  0  0  0  0  0
  190.5860  177.2700  140.4410 C   0  0  0  0  0  0  0  0  0  0  0  0
  189.8180  178.1670  137.6190 C   0  0  0  0  0  3  0  0  0  0  0  0
  191.0730  176.6900  139.1720 C   0  0  0  0  0  3  0  0  0  0  0  0
  186.8070  178.5670  141.3030 N   0  0  0  0  0  0  0  0  0  0  0  0
  186.0000  178.6040  139.1830 N   0  0  0  0  0  2  0  0  0  0  0  0
  187.0470  178.3320  139.9940 C   0  0  0  0  0  0  0  0  0  0  0  0
  185.5400  179.0130  141.3150 C   0  0  0  0  0  0  0  0  0  0  0  0
  185.0510  179.0380  140.0290 C   0  0  0  0  0  0  0  0  0  0  0  0
  183.9980  178.3070  143.1000 C   0  0  0  0  0  1  0  0  0  0  0  0
  184.8220  179.4530  142.5460 C   0  0  0  0  0  2  0  0  0  0  0  0
  183.6960  179.4860  139.6000 C   0  0  0  0  0  2  0  0  0  0  0  0
  183.7930  180.6940  138.9100 O   0  0  0  0  0  1  0  0  0  0  0  0
  191.4840  177.2160  141.6330 C   0  0  0  0  0  2  0  0  0  0  0  0
  190.9340  176.3640  142.6350 O   0  0  0  0  0  0  0  0  0  0  0  0
  188.6360  176.3430  143.4800 C   0  0  0  0  0  3  0  0  0  0  0  0
  189.9650  176.7890  143.5510 C   0  0  0  0  0  0  0  0  0  0  0  0
  188.0490  177.7050  145.4060 C   0  0  0  0  0  0  0  0  0  0  0  0
  189.3790  178.1460  145.4740 C   0  0  0  0  0  3  0  0  0  0  0  0
  190.3300  177.6890  144.5570 C   0  0  0  0  0  3  0  0  0  0  0  0
  187.6870  176.8030  144.3950 C   0  0  0  0  0  3  0  0  0  0  0  0
  188.1830  177.4320  148.4800 C   0  0  0  0  0  1  0  0  0  0  0  0
  187.1630  178.1820  147.7650 N   0  0  0  0  0  2  0  0  0  0  0  0
  187.0140  178.2120  146.3380 C   0  0  0  0  0  0  0  0  0  0  0  0
  185.9550  178.7030  145.8620 O   0  0  0  0  0  0  0  0  0  0  0  0
  191.3750  176.3520  136.7620 C   0  0  1  0  0  3  0  0  0  0  0  0
  193.2170  174.7550  136.2510 C   0  0  1  0  0  3  0  0  0  0  0  0
  192.8300  175.9780  137.0620 C   0  0  1  0  0  3  0  0  0  0  0  0
  193.6770  176.1280  135.8120 C   0  0  0  0  0  2  0  0  0  0  0  0
  194.9760  174.9360  137.9100 N   0  0  0  0  0  1  0  0  0  0  0  0
  194.3540  174.0390  136.9510 C   0  0  0  0  0  2  0  0  0  0  0  0
  190.5300  175.1770  136.2390 C   0  0  2  0  0  3  0  0  0  0  0  0
  189.7710  175.5150  134.9600 C   0  0  0  0  0  1  0  0  0  0  0  0
  189.5820  174.6690  137.3160 C   0  0  0  0  0  2  0  0  0  0  0  0
  188.8860  173.4630  136.8580 C   0  0  0  0  0  0  0  0  0  0  0  0
  188.3340  172.5110  136.4960 N   0  0  0  0  0  0  0  0  0  0  0  0
  1  4  1  0  0  0  0
  3  7  2  0  0  0  0
  4 10  1  1  0  0  0
  4  2  1  0  0  0  0
  5  2  2  0  0  0  0
  5 17  1  0  0  0  0
  6  3  1  0  0  0  0
  6  1  2  0  0  0  0
  7  5  1  0  0  0  0
  8 11  1  0  0  0  0
  9 10  1  0  0  0  0
  9 12  1  0  0  0  0
 10  8  2  0  0  0  0
 11 14  1  0  0  0  0
 12 11  2  0  0  0  0
 14 13  1  0  0  0  0
 15 12  1  0  0  0  0
 16 15  1  0  0  0  0
 17 18  1  0  0  0  0
 18 20  1  0  0  0  0
 19 20  2  0  0  0  0
 19 24  1  0  0  0  0
 20 23  1  0  0  0  0
 21 22  1  0  0  0  0
 21 27  1  0  0  0  0
 23 22  2  0  0  0  0
 24 21  2  0  0  0  0
 26 25  1  0  0  0  0
 27 26  1  0  0  0  0
 28 27  2  0  0  0  0
 29 35  1  1  0  0  0
 29  3  1  0  0  0  0
 30 34  1  1  0  0  0
 30 31  1  0  0  0  0
 31 29  1  6  0  0  0
 32 30  1  0  0  0  0
 32 31  1  0  0  0  0
 34 33  1  0  0  0  0
 35 36  1  6  0  0  0
 35 37  1  0  0  0  0
 38 37  1  0  0  0  0
 39 38  3  0  0  0  0
M  END
>  <MODEL>
5

>  <REMARK>
 VINA RESULT:      -8.6      2.962      8.563
  Name = 
  13 active torsions:
  status: ('A' for Active; 'I' for Inactive)
    1  A    between atoms: O_1  and  C_2
    2  A    between atoms: O_1  and  C_17
    3  A    between atoms: C_2  and  C_32
    4  A    between atoms: C_4  and  C_36
    5  A    between atoms: C_10  and  C_20
    6  A    between atoms: C_11  and  C_29
    7  A    between atoms: C_12  and  C_16
    8  A    between atoms: C_12  and  C_20
    9  A    between atoms: C_16  and  C_22
   10  A    between atoms: C_18  and  C_19
   11  A    between atoms: C_20  and  C_24
   12  A    between atoms: C_21  and  C_26
   13  A    between atoms: CA_27  and  C_35
                            x       y       z     vdW  Elec       q    Type
                         _______ _______ _______ _____ _____    ______ ____

>  <TORSDO>
F 13

$$$$
=
 OpenBabel11042411053D

 39 42  0  0  1  0  0  0  0  0999 V2000
  188.6200  178.5400  138.6510 N   0  0  0  0  0  0  0  0  0  0  0  0
  189.1250  177.7990  140.9170 C   0  0  0  0  0  3  0  0  0  0  0  0
  190.6220  177.1610  138.2970 C   0  0  0  0  0  0  0  0  0  0  0  0
  188.1480  177.7580  139.7860 C   0  0  1  0  0  3  0  0  0  0  0  0
  190.3780  177.3600  140.8070 C   0  0  0  0  0  0  0  0  0  0  0  0
  189.6850  178.2550  137.9650 C   0  0  0  0  0  3  0  0  0  0  0  0
  190.9420  176.8180  139.5540 C   0  0  0  0  0  3  0  0  0  0  0  0
  185.8340  178.5750  139.3490 N   0  0  0  0  0  0  0  0  0  0  0  0
  186.4980  178.5040  141.5180 N   0  0  0  0  0  2  0  0  0  0  0  0
  186.8150  178.2630  140.2250 C   0  0  0  0  0  0  0  0  0  0  0  0
  184.8460  179.0350  140.1340 C   0  0  0  0  0  0  0  0  0  0  0  0
  185.2480  178.9910  141.4490 C   0  0  0  0  0  0  0  0  0  0  0  0
  183.2370  178.8350  138.2820 C   0  0  0  0  0  1  0  0  0  0  0  0
  183.5130  179.4730  139.6280 C   0  0  0  0  0  2  0  0  0  0  0  0
  184.4460  179.3920  142.6390 C   0  0  0  0  0  2  0  0  0  0  0  0
  184.1190  178.2640  143.3930 O   0  0  0  0  0  1  0  0  0  0  0  0
  191.2280  177.3320  142.0340 C   0  0  0  0  0  2  0  0  0  0  0  0
  190.7100  176.4010  142.9810 O   0  0  0  0  0  0  0  0  0  0  0  0
  190.5680  177.1870  145.2960 C   0  0  0  0  0  3  0  0  0  0  0  0
  189.9570  176.7840  144.0970 C   0  0  0  0  0  0  0  0  0  0  0  0
  188.3900  177.5150  146.3250 C   0  0  0  0  0  0  0  0  0  0  0  0
  187.7850  177.1140  145.1240 C   0  0  0  0  0  3  0  0  0  0  0  0
  188.5620  176.7560  144.0180 C   0  0  0  0  0  3  0  0  0  0  0  0
  189.7900  177.5410  146.4000 C   0  0  0  0  0  3  0  0  0  0  0  0
  185.7240  179.0740  146.2580 C   0  0  0  0  0  1  0  0  0  0  0  0
  186.2930  178.4690  147.4510 N   0  0  0  0  0  2  0  0  0  0  0  0
  187.5870  177.8540  147.5240 C   0  0  0  0  0  0  0  0  0  0  0  0
  188.0530  177.5830  148.6640 O   0  0  0  0  0  0  0  0  0  0  0  0
  191.3580  176.5240  137.1540 C   0  0  1  0  0  3  0  0  0  0  0  0
  193.1690  174.8930  136.6400 C   0  0  1  0  0  3  0  0  0  0  0  0
  192.7370  176.0070  137.5760 C   0  0  1  0  0  3  0  0  0  0  0  0
  193.7550  176.2800  136.4840 C   0  0  0  0  0  2  0  0  0  0  0  0
  195.0110  174.8120  138.2150 N   0  0  0  0  0  1  0  0  0  0  0  0
  194.1620  174.0020  137.3580 C   0  0  0  0  0  2  0  0  0  0  0  0
  190.4950  175.4700  136.4380 C   0  0  2  0  0  3  0  0  0  0  0  0
  189.8120  176.0140  135.1880 C   0  0  0  0  0  1  0  0  0  0  0  0
  189.4780  174.8620  137.3930 C   0  0  0  0  0  2  0  0  0  0  0  0
  188.9310  173.6210  136.8360 C   0  0  0  0  0  0  0  0  0  0  0  0
  188.4970  172.6420  136.3970 N   0  0  0  0  0  0  0  0  0  0  0  0
  1  4  1  0  0  0  0
  3  7  2  0  0  0  0
  4 10  1  1  0  0  0
  4  2  1  0  0  0  0
  5  2  2  0  0  0  0
  5 17  1  0  0  0  0
  6  3  1  0  0  0  0
  6  1  2  0  0  0  0
  7  5  1  0  0  0  0
  8 11  1  0  0  0  0
  8 10  2  0  0  0  0
 10  9  1  0  0  0  0
 11 12  2  0  0  0  0
 12  9  1  0  0  0  0
 12 15  1  0  0  0  0
 13 14  1  0  0  0  0
 14 11  1  0  0  0  0
 15 16  1  0  0  0  0
 17 18  1  0  0  0  0
 18 20  1  0  0  0  0
 19 24  1  0  0  0  0
 20 19  2  0  0  0  0
 21 24  2  0  0  0  0
 21 27  1  0  0  0  0
 22 21  1  0  0  0  0
 23 20  1  0  0  0  0
 23 22  2  0  0  0  0
 25 26  1  0  0  0  0
 26 27  1  0  0  0  0
 27 28  2  0  0  0  0
 29 35  1  1  0  0  0
 29  3  1  0  0  0  0
 30 34  1  1  0  0  0
 30 31  1  0  0  0  0
 31 29  1  6  0  0  0
 32 30  1  0  0  0  0
 32 31  1  0  0  0  0
 34 33  1  0  0  0  0
 35 36  1  6  0  0  0
 35 37  1  0  0  0  0
 38 37  1  0  0  0  0
 39 38  3  0  0  0  0
M  END
>  <MODEL>
6

>  <REMARK>
 VINA RESULT:      -8.3      2.891      8.529
  Name = 
  13 active torsions:
  status: ('A' for Active; 'I' for Inactive)
    1  A    between atoms: O_1  and  C_2
    2  A    between atoms: O_1  and  C_17
    3  A    between atoms: C_2  and  C_32
    4  A    between atoms: C_4  and  C_36
    5  A    between atoms: C_10  and  C_20
    6  A    between atoms: C_11  and  C_29
    7  A    between atoms: C_12  and  C_16
    8  A    between atoms: C_12  and  C_20
    9  A    between atoms: C_16  and  C_22
   10  A    between atoms: C_18  and  C_19
   11  A    between atoms: C_20  and  C_24
   12  A    between atoms: C_21  and  C_26
   13  A    between atoms: CA_27  and  C_35
                            x       y       z     vdW  Elec       q    Type
                         _______ _______ _______ _____ _____    ______ ____

>  <TORSDO>
F 13

$$$$
=
 OpenBabel11042411053D

 39 42  0  0  1  0  0  0  0  0999 V2000
  190.1030  176.3710  142.5140 N   0  0  0  0  0  0  0  0  0  0  0  0
  188.3270  177.9670  143.0000 C   0  0  0  0  0  3  0  0  0  0  0  0
  189.7230  177.3890  140.3110 C   0  0  0  0  0  0  0  0  0  0  0  0
  189.7470  177.5740  143.2540 C   0  0  1  0  0  3  0  0  0  0  0  0
  187.8650  178.2670  141.7870 C   0  0  0  0  0  0  0  0  0  0  0  0
  190.1360  176.2980  141.2180 C   0  0  0  0  0  3  0  0  0  0  0  0
  188.6930  178.2110  140.5650 C   0  0  0  0  0  3  0  0  0  0  0  0
  189.1960  177.9140  145.6610 N   0  0  0  0  0  0  0  0  0  0  0  0
  191.0160  176.6390  145.2010 N   0  0  0  0  0  0  0  0  0  0  0  0
  189.9790  177.3570  144.7110 C   0  0  0  0  0  0  0  0  0  0  0  0
  189.7710  177.5240  146.8110 C   0  0  2  0  0  3  0  0  0  0  0  0
  190.8730  176.7490  146.5320 C   0  0  0  0  0  0  0  0  0  0  0  0
  187.7260  177.8960  148.1300 C   0  0  0  0  0  1  0  0  0  0  0  0
  189.2410  177.8570  148.1640 C   0  0  0  0  0  2  0  0  0  0  0  0
  191.7800  176.1020  147.5220 C   0  0  0  0  0  2  0  0  0  0  0  0
  192.3900  177.0760  148.3140 O   0  0  0  0  0  1  0  0  0  0  0  0
  186.4630  178.7680  141.6670 C   0  0  0  0  0  2  0  0  0  0  0  0
  186.1300  179.0010  140.3010 O   0  0  0  0  0  0  0  0  0  0  0  0
  184.7830  178.2610  138.3950 C   0  0  0  0  0  3  0  0  0  0  0  0
  184.8990  178.6390  139.7420 C   0  0  0  0  0  0  0  0  0  0  0  0
  182.3870  177.9500  138.6620 C   0  0  0  0  0  0  0  0  0  0  0  0
  182.5090  178.3250  140.0080 C   0  0  0  0  0  3  0  0  0  0  0  0
  183.7550  178.6630  140.5450 C   0  0  0  0  0  3  0  0  0  0  0  0
  183.5370  177.9280  137.8600 C   0  0  0  0  0  3  0  0  0  0  0  0
  180.5580  180.0170  137.2740 C   0  0  0  0  0  1  0  0  0  0  0  0
  180.3000  178.5870  137.3130 N   0  0  0  0  0  2  0  0  0  0  0  0
  181.0700  177.6330  138.0600 C   0  0  0  0  0  0  0  0  0  0  0  0
  180.6030  176.4700  138.1980 O   0  0  0  0  0  0  0  0  0  0  0  0
  190.4030  177.4590  138.9740 C   0  0  1  0  0  3  0  0  0  0  0  0
  191.7770  176.2390  137.2940 C   0  0  1  0  0  3  0  0  0  0  0  0
  191.3550  176.2800  138.7510 C   0  0  1  0  0  3  0  0  0  0  0  0
  192.7250  176.7850  138.3400 C   0  0  0  0  0  2  0  0  0  0  0  0
  191.1700  173.8940  137.4200 N   0  0  0  0  0  1  0  0  0  0  0  0
  192.1790  174.8220  136.9370 C   0  0  0  0  0  2  0  0  0  0  0  0
  189.3930  177.6640  137.8320 C   0  0  2  0  0  3  0  0  0  0  0  0
  189.0510  179.1320  137.5990 C   0  0  0  0  0  1  0  0  0  0  0  0
  188.1330  176.8430  138.0680 C   0  0  0  0  0  2  0  0  0  0  0  0
  188.0310  175.7670  137.0770 C   0  0  0  0  0  0  0  0  0  0  0  0
  187.9490  174.9160  136.2960 N   0  0  0  0  0  0  0  0  0  0  0  0
  1  4  1  0  0  0  0
  2  4  1  0  0  0  0
  3  7  2  0  0  0  0
  3  6  1  0  0  0  0
  4 10  1  1  0  0  0
  5  2  2  0  0  0  0
  6  1  2  0  0  0  0
  7  5  1  0  0  0  0
  8 11  1  0  0  0  0
  9 12  2  0  0  0  0
 10  9  1  0  0  0  0
 10  8  2  0  0  0  0
 11 14  1  1  0  0  0
 12 11  1  0  0  0  0
 12 15  1  0  0  0  0
 13 14  1  0  0  0  0
 15 16  1  0  0  0  0
 17  5  1  0  0  0  0
 18 17  1  0  0  0  0
 19 20  1  0  0  0  0
 20 18  1  0  0  0  0
 20 23  2  0  0  0  0
 21 22  2  0  0  0  0
 22 23  1  0  0  0  0
 24 19  2  0  0  0  0
 24 21  1  0  0  0  0
 25 26  1  0  0  0  0
 26 27  1  0  0  0  0
 27 28  2  0  0  0  0
 27 21  1  0  0  0  0
 29 35  1  6  0  0  0
 29  3  1  0  0  0  0
 30 34  1  1  0  0  0
 30 32  1  0  0  0  0
 30 31  1  0  0  0  0
 31 29  1  6  0  0  0
 32 31  1  0  0  0  0
 34 33  1  0  0  0  0
 35 36  1  1  0  0  0
 35 37  1  0  0  0  0
 38 37  1  0  0  0  0
 39 38  3  0  0  0  0
M  END
>  <MODEL>
7

>  <REMARK>
 VINA RESULT:      -8.0      2.536      7.187
  Name = 
  13 active torsions:
  status: ('A' for Active; 'I' for Inactive)
    1  A    between atoms: O_1  and  C_2
    2  A    between atoms: O_1  and  C_17
    3  A    between atoms: C_2  and  C_32
    4  A    between atoms: C_4  and  C_36
    5  A    between atoms: C_10  and  C_20
    6  A    between atoms: C_11  and  C_29
    7  A    between atoms: C_12  and  C_16
    8  A    between atoms: C_12  and  C_20
    9  A    between atoms: C_16  and  C_22
   10  A    between atoms: C_18  and  C_19
   11  A    between atoms: C_20  and  C_24
   12  A    between atoms: C_21  and  C_26
   13  A    between atoms: CA_27  and  C_35
                            x       y       z     vdW  Elec       q    Type
                         _______ _______ _______ _____ _____    ______ ____

>  <TORSDO>
F 13

$$$$
=
 OpenBabel11042411053D

 39 42  0  0  1  0  0  0  0  0999 V2000
  189.9450  177.9950  142.5830 N   0  0  0  0  0  0  0  0  0  0  0  0
  187.6240  177.9070  141.8450 C   0  0  0  0  0  3  0  0  0  0  0  0
  188.7490  177.7140  144.7100 C   0  0  0  0  0  0  0  0  0  0  0  0
  188.9650  177.2480  141.8060 C   0  0  1  0  0  3  0  0  0  0  0  0
  186.9510  178.1120  142.9760 C   0  0  0  0  0  0  0  0  0  0  0  0
  189.8760  178.1660  143.8680 C   0  0  0  0  0  3  0  0  0  0  0  0
  187.4690  177.7420  144.3090 C   0  0  0  0  0  3  0  0  0  0  0  0
  190.6990  176.7180  140.0960 N   0  0  0  0  0  0  0  0  0  0  0  0
  188.6790  177.4040  139.3220 N   0  0  0  0  0  0  0  0  0  0  0  0
  189.4400  177.1050  140.4000 C   0  0  0  0  0  0  0  0  0  0  0  0
  190.7300  176.7740  138.7540 C   0  0  2  0  0  3  0  0  0  0  0  0
  189.5050  177.1890  138.2850 C   0  0  0  0  0  0  0  0  0  0  0  0
  191.8520  174.9160  137.5930 C   0  0  0  0  0  1  0  0  0  0  0  0
  191.9130  176.3920  137.9300 C   0  0  0  0  0  2  0  0  0  0  0  0
  189.1110  177.3650  136.8590 C   0  0  0  0  0  2  0  0  0  0  0  0
  189.4250  178.6580  136.4370 O   0  0  0  0  0  1  0  0  0  0  0  0
  185.5660  178.6640  142.8850 C   0  0  0  0  0  2  0  0  0  0  0  0
  185.3420  179.2450  141.6030 O   0  0  0  0  0  0  0  0  0  0  0  0
  183.4260  177.8810  140.9200 C   0  0  0  0  0  3  0  0  0  0  0  0
  184.5730  178.6290  140.6090 C   0  0  0  0  0  0  0  0  0  0  0  0
  183.0810  177.3840  138.5650 C   0  0  0  0  0  0  0  0  0  0  0  0
  184.2260  178.1340  138.2600 C   0  0  0  0  0  3  0  0  0  0  0  0
  184.9640  178.7550  139.2730 C   0  0  0  0  0  3  0  0  0  0  0  0
  182.6930  177.2590  139.9070 C   0  0  0  0  0  3  0  0  0  0  0  0
  183.6780  174.5130  137.5920 C   0  0  0  0  0  1  0  0  0  0  0  0
  182.5320  175.3020  137.1700 N   0  0  0  0  0  2  0  0  0  0  0  0
  182.3110  176.6780  137.5130 C   0  0  0  0  0  0  0  0  0  0  0  0
  181.4110  177.3080  136.8940 O   0  0  0  0  0  0  0  0  0  0  0  0
  189.0620  177.3580  146.1350 C   0  0  1  0  0  3  0  0  0  0  0  0
  190.9660  176.3080  147.3480 C   0  0  1  0  0  3  0  0  0  0  0  0
  190.5610  177.4490  146.4350 C   0  0  1  0  0  3  0  0  0  0  0  0
  191.2820  176.2400  145.8700 C   0  0  0  0  0  2  0  0  0  0  0  0
  193.1790  175.6250  148.0670 N   0  0  0  0  0  1  0  0  0  0  0  0
  192.2110  176.7070  148.1150 C   0  0  0  0  0  2  0  0  0  0  0  0
  188.1840  178.1450  147.1230 C   0  0  2  0  0  3  0  0  0  0  0  0
  188.8820  178.4110  148.4540 C   0  0  0  0  0  1  0  0  0  0  0  0
  186.8500  177.4450  147.3400 C   0  0  0  0  0  2  0  0  0  0  0  0
  185.7430  178.3140  146.9250 C   0  0  0  0  0  0  0  0  0  0  0  0
  184.8710  179.0010  146.5970 N   0  0  0  0  0  0  0  0  0  0  0  0
  1  6  2  0  0  0  0
  2  5  2  0  0  0  0
  3 29  1  0  0  0  0
  4 10  1  6  0  0  0
  4  2  1  0  0  0  0
  4  1  1  0  0  0  0
  5  7  1  0  0  0  0
  6  3  1  0  0  0  0
  7  3  2  0  0  0  0
  8 10  2  0  0  0  0
  9 10  1  0  0  0  0
 11 14  1  6  0  0  0
 11  8  1  0  0  0  0
 12 11  1  0  0  0  0
 12  9  2  0  0  0  0
 13 14  1  0  0  0  0
 15 12  1  0  0  0  0
 16 15  1  0  0  0  0
 17  5  1  0  0  0  0
 18 17  1  0  0  0  0
 20 19  1  0  0  0  0
 20 18  1  0  0  0  0
 21 24  1  0  0  0  0
 22 21  2  0  0  0  0
 22 23  1  0  0  0  0
 23 20  2  0  0  0  0
 24 19  2  0  0  0  0
 26 27  1  0  0  0  0
 26 25  1  0  0  0  0
 27 21  1  0  0  0  0
 28 27  2  0  0  0  0
 29 35  1  1  0  0  0
 30 34  1  1  0  0  0
 31 29  1  6  0  0  0
 31 30  1  0  0  0  0
 32 31  1  0  0  0  0
 32 30  1  0  0  0  0
 33 34  1  0  0  0  0
 35 37  1  0  0  0  0
 35 36  1  1  0  0  0
 38 37  1  0  0  0  0
 39 38  3  0  0  0  0
M  END
>  <MODEL>
8

>  <REMARK>
 VINA RESULT:      -8.0      1.954      2.428
  Name = 
  13 active torsions:
  status: ('A' for Active; 'I' for Inactive)
    1  A    between atoms: O_1  and  C_2
    2  A    between atoms: O_1  and  C_17
    3  A    between atoms: C_2  and  C_32
    4  A    between atoms: C_4  and  C_36
    5  A    between atoms: C_10  and  C_20
    6  A    between atoms: C_11  and  C_29
    7  A    between atoms: C_12  and  C_16
    8  A    between atoms: C_12  and  C_20
    9  A    between atoms: C_16  and  C_22
   10  A    between atoms: C_18  and  C_19
   11  A    between atoms: C_20  and  C_24
   12  A    between atoms: C_21  and  C_26
   13  A    between atoms: CA_27  and  C_35
                            x       y       z     vdW  Elec       q    Type
                         _______ _______ _______ _____ _____    ______ ____

>  <TORSDO>
F 13

$$$$
=
 OpenBabel11042411053D

 39 42  0  0  1  0  0  0  0  0999 V2000
  186.8650  176.9720  143.9880 N   0  0  0  0  0  0  0  0  0  0  0  0
  188.3170  178.0070  142.3270 C   0  0  0  0  0  3  0  0  0  0  0  0
  188.9800  177.1760  145.2220 C   0  0  0  0  0  0  0  0  0  0  0  0
  187.0970  178.1600  143.1770 C   0  0  1  0  0  3  0  0  0  0  0  0
  189.5320  177.8040  142.8350 C   0  0  0  0  0  0  0  0  0  0  0  0
  187.6720  176.5600  144.9200 C   0  0  0  0  0  3  0  0  0  0  0  0
  189.7970  177.6740  144.2820 C   0  0  0  0  0  3  0  0  0  0  0  0
  184.6400  178.3760  142.8200 N   0  0  0  0  0  0  0  0  0  0  0  0
  185.9660  178.7030  141.0090 N   0  0  0  0  0  2  0  0  0  0  0  0
  185.8990  178.4340  142.3320 C   0  0  0  0  0  0  0  0  0  0  0  0
  183.8740  178.6240  141.7450 C   0  0  0  0  0  0  0  0  0  0  0  0
  184.6780  178.8240  140.6470 C   0  0  0  0  0  0  0  0  0  0  0  0
  181.9220  179.0290  143.1890 C   0  0  0  0  0  1  0  0  0  0  0  0
  182.3860  178.7100  141.7820 C   0  0  0  0  0  2  0  0  0  0  0  0
  184.2310  179.1450  139.2620 C   0  0  0  0  0  2  0  0  0  0  0  0
  184.1780  180.5290  139.0900 O   0  0  0  0  0  1  0  0  0  0  0  0
  190.6970  177.7920  141.9000 C   0  0  0  0  0  2  0  0  0  0  0  0
  190.2920  177.3660  140.6010 O   0  0  0  0  0  0  0  0  0  0  0  0
  190.7670  176.6160  138.3190 C   0  0  0  0  0  3  0  0  0  0  0  0
  191.1990  177.0370  139.5870 C   0  0  0  0  0  0  0  0  0  0  0  0
  193.0730  176.3580  137.5920 C   0  0  0  0  0  0  0  0  0  0  0  0
  193.4980  176.7830  138.8600 C   0  0  0  0  0  3  0  0  0  0  0  0
  192.5690  177.1240  139.8470 C   0  0  0  0  0  3  0  0  0  0  0  0
  191.6970  176.2720  137.3350 C   0  0  0  0  0  3  0  0  0  0  0  0
  193.5870  173.4330  136.7420 C   0  0  0  0  0  1  0  0  0  0  0  0
  194.1660  174.5940  136.0850 N   0  0  0  0  0  2  0  0  0  0  0  0
  194.0390  175.9470  136.5460 C   0  0  0  0  0  0  0  0  0  0  0  0
  194.7790  176.8240  136.0240 O   0  0  0  0  0  0  0  0  0  0  0  0
  189.4660  177.0840  146.6400 C   0  0  1  0  0  3  0  0  0  0  0  0
  191.3640  175.5900  147.2460 C   0  0  1  0  0  3  0  0  0  0  0  0
  190.9910  176.9630  146.7180 C   0  0  1  0  0  3  0  0  0  0  0  0
  191.4800  175.8870  145.7660 C   0  0  0  0  0  2  0  0  0  0  0  0
  192.8040  176.8260  148.7550 N   0  0  0  0  0  1  0  0  0  0  0  0
  192.7350  175.6640  147.8860 C   0  0  0  0  0  2  0  0  0  0  0  0
  188.8890  178.2110  147.5130 C   0  0  2  0  0  3  0  0  0  0  0  0
  189.8090  178.5970  148.6670 C   0  0  0  0  0  1  0  0  0  0  0  0
  187.5020  177.8470  148.0230 C   0  0  0  0  0  2  0  0  0  0  0  0
  186.4840  178.6830  147.3770 C   0  0  0  0  0  0  0  0  0  0  0  0
  185.6820  179.3430  146.8660 N   0  0  0  0  0  0  0  0  0  0  0  0
  1  6  2  0  0  0  0
  2  5  2  0  0  0  0
  2  4  1  0  0  0  0
  3 29  1  0  0  0  0
  4 10  1  6  0  0  0
  4  1  1  0  0  0  0
  5  7  1  0  0  0  0
  6  3  1  0  0  0  0
  7  3  2  0  0  0  0
  9 10  1  0  0  0  0
 10  8  2  0  0  0  0
 11 14  1  0  0  0  0
 11  8  1  0  0  0  0
 12  9  1  0  0  0  0
 12 11  2  0  0  0  0
 14 13  1  0  0  0  0
 15 12  1  0  0  0  0
 16 15  1  0  0  0  0
 17  5  1  0  0  0  0
 18 17  1  0  0  0  0
 19 20  1  0  0  0  0
 20 23  2  0  0  0  0
 20 18  1  0  0  0  0
 21 22  2  0  0  0  0
 22 23  1  0  0  0  0
 24 21  1  0  0  0  0
 24 19  2  0  0  0  0
 26 27  1  0  0  0  0
 26 25  1  0  0  0  0
 27 21  1  0  0  0  0
 28 27  2  0  0  0  0
 29 35  1  1  0  0  0
 30 34  1  1  0  0  0
 31 29  1  6  0  0  0
 31 30  1  0  0  0  0
 32 31  1  0  0  0  0
 32 30  1  0  0  0  0
 34 33  1  0  0  0  0
 35 37  1  0  0  0  0
 35 36  1  1  0  0  0
 38 37  1  0  0  0  0
 39 38  3  0  0  0  0
M  END
>  <MODEL>
9

>  <REMARK>
 VINA RESULT:      -8.0      2.332      7.654
  Name = 
  13 active torsions:
  status: ('A' for Active; 'I' for Inactive)
    1  A    between atoms: O_1  and  C_2
    2  A    between atoms: O_1  and  C_17
    3  A    between atoms: C_2  and  C_32
    4  A    between atoms: C_4  and  C_36
    5  A    between atoms: C_10  and  C_20
    6  A    between atoms: C_11  and  C_29
    7  A    between atoms: C_12  and  C_16
    8  A    between atoms: C_12  and  C_20
    9  A    between atoms: C_16  and  C_22
   10  A    between atoms: C_18  and  C_19
   11  A    between atoms: C_20  and  C_24
   12  A    between atoms: C_21  and  C_26
   13  A    between atoms: CA_27  and  C_35
                            x       y       z     vdW  Elec       q    Type
                         _______ _______ _______ _____ _____    ______ ____

>  <TORSDO>
F 13

$$$$
