=
 OpenBabel11042411183D

 48 50  0  0  1  0  0  0  0  0999 V2000
  190.7740  176.0760  137.6900 C   0  0  0  0  0  0  0  0  0  0  0  0
  193.7630  176.1650  138.4380 C   0  0  0  0  0  3  0  0  0  0  0  0
  191.6170  175.8570  136.4690 C   0  0  0  0  0  2  0  0  0  0  0  0
  191.3000  176.6330  138.8080 C   0  0  0  0  0  0  0  0  0  0  0  0
  193.6290  174.9840  137.5630 C   0  0  0  0  0  3  0  0  0  0  0  0
  192.6380  174.7860  136.6940 C   0  0  0  0  0  0  0  0  0  0  0  0
  192.7580  176.8780  138.9630 C   0  0  0  0  0  3  0  0  0  0  0  0
  189.6050  177.9780  139.7780 O   0  0  0  0  0  0  0  0  0  0  0  0
  190.5640  176.4110  141.2250 N   0  0  0  0  0  2  0  0  0  0  0  0
  190.4560  177.0630  139.9520 C   0  0  0  0  0  0  0  0  0  0  0  0
  188.4630  177.3520  144.7890 C   0  0  0  0  0  0  0  0  0  0  0  0
  189.8100  177.6980  144.6480 C   0  0  0  0  0  3  0  0  0  0  0  0
  189.8390  176.7170  142.4250 C   0  0  0  0  0  0  0  0  0  0  0  0
  187.8040  176.6840  143.7550 C   0  0  0  0  0  3  0  0  0  0  0  0
  188.4870  176.3690  142.5770 C   0  0  0  0  0  3  0  0  0  0  0  0
  190.4960  177.3850  143.4700 C   0  0  0  0  0  0  0  0  0  0  0  0
  191.8330  177.7440  143.3440 O   0  0  0  0  0  1  0  0  0  0  0  0
  187.7380  177.6730  146.0510 C   0  0  0  0  0  2  0  0  0  0  0  0
  186.2560  177.8400  145.7780 C   0  0  2  0  0  3  0  0  0  0  0  0
  185.9000  179.2610  145.9020 N   0  0  0  0  0  2  0  0  0  0  0  0
  185.5890  178.3140  146.9830 C   0  0  0  0  0  2  0  0  0  0  0  0
  192.6200  173.5760  135.9850 O   0  0  0  0  0  0  0  0  0  0  0  0
  193.6910  172.6810  135.8520 C   0  0  0  0  0  0  0  0  0  0  0  0
  193.9800  171.8510  136.7550 O   0  0  0  0  0  0  0  0  0  0  0  0
  194.4830  172.6850  134.5940 C   0  0  0  0  0  2  0  0  0  0  0  0
  195.8650  173.2420  134.8620 C   0  0  0  0  0  2  0  0  0  0  0  0
  195.8430  174.7490  134.7080 C   0  0  0  0  0  2  0  0  0  0  0  0
  198.5190  175.0940  135.0290 O   0  0  0  0  0  0  0  0  0  0  0  0
  197.1520  174.9050  137.2510 O   0  0  0  0  0  1  0  0  0  0  0  0
  197.2020  175.4800  135.6610 P   0  0  0  0  0  0  0  0  0  0  0  0
  197.0540  177.1640  135.6640 O   0  0  0  0  0  1  0  0  0  0  0  0
  189.3240  175.6650  137.6170 C   0  0  1  0  0  3  0  0  0  0  0  0
  188.4390  176.7330  137.0200 C   0  0  0  0  0  0  0  0  0  0  0  0
  188.9440  177.8120  136.6020 O   0  0  0  0  0  0  0  0  0  0  0  0
  187.0170  176.5670  137.0160 N   0  0  0  0  0  2  0  0  0  0  0  0
  186.1040  177.4770  134.9570 C   0  0  0  0  0  1  0  0  0  0  0  0
  186.1140  177.5680  136.4720 C   0  0  1  0  0  3  0  0  0  0  0  0
  184.2470  178.0020  138.0520 C   0  0  0  0  0  3  0  0  0  0  0  0
  184.7380  177.3380  137.0080 C   0  0  0  0  0  3  0  0  0  0  0  0
  185.0200  178.9860  138.7400 N   0  0  0  0  0  2  0  0  0  0  0  0
  185.5750  178.7160  140.0570 C   0  0  0  0  0  2  0  0  0  0  0  0
  184.4700  178.3690  141.0400 C   0  0  0  0  0  2  0  0  0  0  0  0
  184.5730  179.1720  142.1760 O   0  0  0  0  0  0  0  0  0  0  0  0
  183.8490  178.4950  143.1550 C   0  0  0  0  0  2  0  0  0  0  0  0
  183.0330  179.3960  143.8390 O   0  0  0  0  0  0  0  0  0  0  0  0
  181.7640  179.2110  143.2890 C   0  0  0  0  0  1  0  0  0  0  0  0
  189.1910  174.3440  136.9220 C   0  0  0  0  0  3  0  0  0  0  0  0
  188.4240  173.4940  137.3450 O   0  0  0  0  0  0  0  0  0  0  0  0
  1  4  2  0  0  0  0
  2  7  2  0  0  0  0
  3  6  1  0  0  0  0
  3  1  1  0  0  0  0
  4  7  1  0  0  0  0
  4 10  1  0  0  0  0
  5  2  1  0  0  0  0
  6  5  2  0  0  0  0
  8 10  2  0  0  0  0
  9 13  1  0  0  0  0
 10  9  1  0  0  0  0
 11 18  1  0  0  0  0
 12 11  1  0  0  0  0
 13 15  2  0  0  0  0
 13 16  1  0  0  0  0
 14 11  2  0  0  0  0
 15 14  1  0  0  0  0
 16 12  2  0  0  0  0
 17 16  1  0  0  0  0
 19 20  1  0  0  0  0
 19 18  1  1  0  0  0
 19 21  1  0  0  0  0
 20 21  1  0  0  0  0
 22  6  1  0  0  0  0
 23 22  1  0  0  0  0
 23 24  2  0  0  0  0
 25 26  1  0  0  0  0
 25 23  1  0  0  0  0
 27 26  1  0  0  0  0
 27 30  1  0  0  0  0
 28 30  2  0  0  0  0
 30 31  1  0  0  0  0
 30 29  1  0  0  0  0
 32 47  1  6  0  0  0
 32  1  1  0  0  0  0
 33 32  1  0  0  0  0
 34 33  2  0  0  0  0
 35 33  1  0  0  0  0
 37 36  1  6  0  0  0
 37 39  1  0  0  0  0
 37 35  1  0  0  0  0
 38 40  1  0  0  0  0
 39 38  2  0  0  0  0
 40 41  1  0  0  0  0
 41 42  1  0  0  0  0
 42 43  1  0  0  0  0
 43 44  1  0  0  0  0
 44 45  1  0  0  0  0
 46 45  1  0  0  0  0
 47 48  2  0  0  0  0
M  END
>  <MODEL>
1

>  <REMARK>
 VINA RESULT:      -6.6      0.000      0.000
  Name = 
  21 active torsions:
  status: ('A' for Active; 'I' for Inactive)
    1  A    between atoms: C_1  and  C_19
    2  A    between atoms: C_4  and  N_37
    3  A    between atoms: C_6  and  C_35
    4  A    between atoms: C_7  and  C_12
    5  A    between atoms: C_7  and  O_26
    6  A    between atoms: C_8  and  O_31
    7  A    between atoms: C_8  and  C_33
    8  A    between atoms: C_9  and  C_23
    9  A    between atoms: C_9  and  N_24
   10  A    between atoms: C_10  and  C_35
   11  A    between atoms: O_11  and  C_18
   12  A    between atoms: C_12  and  N_14
   13  A    between atoms: C_13  and  C_19
   14  A    between atoms: N_14  and  C_22
   15  A    between atoms: C_16  and  C_35
   16  A    between atoms: C_18  and  O_26
   17  A    between atoms: C_25  and  C_28
   18  A    between atoms: C_25  and  P_34
   19  A    between atoms: C_28  and  C_33
   20  A    between atoms: O_31  and  C_43
   21  A    between atoms: C_36  and  C_42
                            x       y       z     vdW  Elec       q    Type
                         _______ _______ _______ _____ _____    ______ ____

>  <TORSDO>
F 21

$$$$
=
 OpenBabel11042411183D

 48 50  0  0  1  0  0  0  0  0999 V2000
  185.9570  178.4440  143.2890 C   0  0  0  0  0  0  0  0  0  0  0  0
  183.3700  179.4160  144.6560 C   0  0  0  0  0  3  0  0  0  0  0  0
  186.2810  179.0940  144.6020 C   0  0  0  0  0  2  0  0  0  0  0  0
  184.7670  178.6640  142.6790 C   0  0  0  0  0  0  0  0  0  0  0  0
  184.1310  178.7420  145.7260 C   0  0  0  0  0  3  0  0  0  0  0  0
  185.4470  178.5320  145.7110 C   0  0  0  0  0  0  0  0  0  0  0  0
  183.6530  179.3880  143.3470 C   0  0  0  0  0  3  0  0  0  0  0  0
  185.4030  178.3290  140.4190 O   0  0  0  0  0  0  0  0  0  0  0  0
  183.2380  177.6190  140.9460 N   0  0  0  0  0  2  0  0  0  0  0  0
  184.4950  178.2190  141.2880 C   0  0  0  0  0  0  0  0  0  0  0  0
  181.9930  176.3060  137.1080 C   0  0  0  0  0  0  0  0  0  0  0  0
  181.9830  177.6670  137.4300 C   0  0  0  0  0  3  0  0  0  0  0  0
  182.8160  177.1570  139.6550 C   0  0  0  0  0  0  0  0  0  0  0  0
  182.4070  175.3690  138.0580 C   0  0  0  0  0  3  0  0  0  0  0  0
  182.8190  175.7920  139.3250 C   0  0  0  0  0  3  0  0  0  0  0  0
  182.3950  178.0920  138.6970 C   0  0  0  0  0  0  0  0  0  0  0  0
  182.3860  179.4500  138.9970 O   0  0  0  0  0  1  0  0  0  0  0  0
  181.5400  175.8540  135.7630 C   0  0  0  0  0  2  0  0  0  0  0  0
  180.4690  174.7890  135.8990 C   0  0  2  0  0  3  0  0  0  0  0  0
  179.5220  174.9120  134.7820 N   0  0  0  0  0  2  0  0  0  0  0  0
  179.1750  175.4220  136.1160 C   0  0  0  0  0  2  0  0  0  0  0  0
  186.0070  177.8140  146.7770 O   0  0  0  0  0  0  0  0  0  0  0  0
  186.8190  178.3420  147.7920 C   0  0  0  0  0  0  0  0  0  0  0  0
  186.7620  179.5560  148.1240 O   0  0  0  0  0  0  0  0  0  0  0  0
  187.7430  177.4340  148.5210 C   0  0  0  0  0  2  0  0  0  0  0  0
  189.1730  177.7340  148.1230 C   0  0  0  0  0  2  0  0  0  0  0  0
  189.5900  176.8130  146.9960 C   0  0  0  0  0  2  0  0  0  0  0  0
  192.0000  177.3860  148.1140 O   0  0  0  0  0  1  0  0  0  0  0  0
  192.0980  176.5480  145.6380 O   0  0  0  0  0  0  0  0  0  0  0  0
  191.3540  176.4170  147.1510 P   0  0  0  0  0  0  0  0  0  0  0  0
  191.5340  174.8410  147.7360 O   0  0  0  0  0  1  0  0  0  0  0  0
  187.0100  177.5530  142.6760 C   0  0  1  0  0  3  0  0  0  0  0  0
  188.2850  178.2900  142.3470 C   0  0  0  0  0  0  0  0  0  0  0  0
  188.3320  179.0550  141.3430 O   0  0  0  0  0  0  0  0  0  0  0  0
  189.4710  178.0500  143.1120 N   0  0  0  0  0  2  0  0  0  0  0  0
  191.1730  179.5090  144.0480 C   0  0  0  0  0  1  0  0  0  0  0  0
  190.7320  178.7160  142.8310 C   0  0  1  0  0  3  0  0  0  0  0  0
  191.9120  177.2020  141.2540 C   0  0  0  0  0  3  0  0  0  0  0  0
  191.7660  177.6940  142.4830 C   0  0  0  0  0  3  0  0  0  0  0  0
  191.0730  177.6210  140.1780 N   0  0  0  0  0  2  0  0  0  0  0  0
  190.4570  176.6510  139.2880 C   0  0  0  0  0  2  0  0  0  0  0  0
  190.2990  177.2350  137.8930 C   0  0  0  0  0  2  0  0  0  0  0  0
  189.3740  178.2790  137.9160 O   0  0  0  0  0  0  0  0  0  0  0  0
  188.2110  177.7320  137.3760 C   0  0  0  0  0  2  0  0  0  0  0  0
  187.1500  178.6180  137.5590 O   0  0  0  0  0  0  0  0  0  0  0  0
  186.0180  177.8950  137.1810 C   0  0  0  0  0  1  0  0  0  0  0  0
  187.2390  176.3490  143.5370 C   0  0  0  0  0  3  0  0  0  0  0  0
  188.1070  175.5390  143.2540 O   0  0  0  0  0  0  0  0  0  0  0  0
  1  3  1  0  0  0  0
  2  5  1  0  0  0  0
  3  6  1  0  0  0  0
  4  1  2  0  0  0  0
  4  7  1  0  0  0  0
  6  5  2  0  0  0  0
  6 22  1  0  0  0  0
  7  2  2  0  0  0  0
  8 10  2  0  0  0  0
  9 10  1  0  0  0  0
 10  4  1  0  0  0  0
 11 12  2  0  0  0  0
 11 14  1  0  0  0  0
 12 16  1  0  0  0  0
 13  9  1  0  0  0  0
 14 15  2  0  0  0  0
 15 13  1  0  0  0  0
 16 17  1  0  0  0  0
 16 13  2  0  0  0  0
 18 11  1  0  0  0  0
 19 18  1  6  0  0  0
 19 21  1  0  0  0  0
 20 19  1  0  0  0  0
 20 21  1  0  0  0  0
 22 23  1  0  0  0  0
 23 24  2  0  0  0  0
 23 25  1  0  0  0  0
 26 25  1  0  0  0  0
 27 30  1  0  0  0  0
 27 26  1  0  0  0  0
 29 30  2  0  0  0  0
 30 31  1  0  0  0  0
 30 28  1  0  0  0  0
 32  1  1  0  0  0  0
 32 47  1  1  0  0  0
 33 32  1  0  0  0  0
 33 35  1  0  0  0  0
 34 33  2  0  0  0  0
 37 35  1  0  0  0  0
 37 36  1  1  0  0  0
 38 39  2  0  0  0  0
 39 37  1  0  0  0  0
 40 38  1  0  0  0  0
 41 40  1  0  0  0  0
 42 43  1  0  0  0  0
 42 41  1  0  0  0  0
 44 45  1  0  0  0  0
 44 43  1  0  0  0  0
 46 45  1  0  0  0  0
 48 47  2  0  0  0  0
M  END
>  <MODEL>
2

>  <REMARK>
 VINA RESULT:      -6.2      4.409     10.225
  Name = 
  21 active torsions:
  status: ('A' for Active; 'I' for Inactive)
    1  A    between atoms: C_1  and  C_19
    2  A    between atoms: C_4  and  N_37
    3  A    between atoms: C_6  and  C_35
    4  A    between atoms: C_7  and  C_12
    5  A    between atoms: C_7  and  O_26
    6  A    between atoms: C_8  and  O_31
    7  A    between atoms: C_8  and  C_33
    8  A    between atoms: C_9  and  C_23
    9  A    between atoms: C_9  and  N_24
   10  A    between atoms: C_10  and  C_35
   11  A    between atoms: O_11  and  C_18
   12  A    between atoms: C_12  and  N_14
   13  A    between atoms: C_13  and  C_19
   14  A    between atoms: N_14  and  C_22
   15  A    between atoms: C_16  and  C_35
   16  A    between atoms: C_18  and  O_26
   17  A    between atoms: C_25  and  C_28
   18  A    between atoms: C_25  and  P_34
   19  A    between atoms: C_28  and  C_33
   20  A    between atoms: O_31  and  C_43
   21  A    between atoms: C_36  and  C_42
                            x       y       z     vdW  Elec       q    Type
                         _______ _______ _______ _____ _____    ______ ____

>  <TORSDO>
F 21

$$$$
=
 OpenBabel11042411183D

 48 50  0  0  1  0  0  0  0  0999 V2000
  188.3300  176.5070  137.4580 C   0  0  0  0  0  0  0  0  0  0  0  0
  188.3400  174.5310  135.0920 C   0  0  0  0  0  3  0  0  0  0  0  0
  189.4580  175.5300  137.6090 C   0  0  0  0  0  2  0  0  0  0  0  0
  187.2860  176.2440  136.6340 C   0  0  0  0  0  0  0  0  0  0  0  0
  189.7500  174.9390  135.2470 C   0  0  0  0  0  3  0  0  0  0  0  0
  190.2790  175.4470  136.3600 C   0  0  0  0  0  0  0  0  0  0  0  0
  187.2840  175.0890  135.6990 C   0  0  0  0  0  3  0  0  0  0  0  0
  185.7350  177.6840  135.5650 O   0  0  0  0  0  0  0  0  0  0  0  0
  185.2130  177.1500  137.7810 N   0  0  0  0  0  2  0  0  0  0  0  0
  186.0570  177.0770  136.6230 C   0  0  0  0  0  0  0  0  0  0  0  0
  181.6890  179.4650  138.2620 C   0  0  0  0  0  0  0  0  0  0  0  0
  182.8770  179.8410  138.8970 C   0  0  0  0  0  3  0  0  0  0  0  0
  184.0110  177.9190  137.9360 C   0  0  0  0  0  0  0  0  0  0  0  0
  181.6580  178.3140  137.4710 C   0  0  0  0  0  3  0  0  0  0  0  0
  182.8130  177.5450  137.3070 C   0  0  0  0  0  3  0  0  0  0  0  0
  184.0350  179.0740  138.7330 C   0  0  0  0  0  0  0  0  0  0  0  0
  185.2090  179.4670  139.3650 O   0  0  0  0  0  1  0  0  0  0  0  0
  180.4540  180.2750  138.4500 C   0  0  0  0  0  2  0  0  0  0  0  0
  180.8070  181.7410  138.6160 C   0  0  2  0  0  3  0  0  0  0  0  0
  179.5780  182.5080  138.8630 N   0  0  0  0  0  2  0  0  0  0  0  0
  180.2080  182.5120  137.5350 C   0  0  0  0  0  2  0  0  0  0  0  0
  191.6220  175.8490  136.3220 O   0  0  0  0  0  0  0  0  0  0  0  0
  192.5840  175.6120  137.3140 C   0  0  0  0  0  0  0  0  0  0  0  0
  193.0400  176.5410  138.0330 O   0  0  0  0  0  0  0  0  0  0  0  0
  193.0510  174.2200  137.5490 C   0  0  0  0  0  2  0  0  0  0  0  0
  194.5390  174.2200  137.8260 C   0  0  0  0  0  2  0  0  0  0  0  0
  195.2940  174.4900  136.5410 C   0  0  0  0  0  2  0  0  0  0  0  0
  197.2250  174.9470  138.3980 O   0  0  0  0  0  1  0  0  0  0  0  0
  197.5930  176.1410  136.1000 O   0  0  0  0  0  0  0  0  0  0  0  0
  197.0500  174.7580  136.9090 P   0  0  0  0  0  0  0  0  0  0  0  0
  197.9490  173.4180  136.4040 O   0  0  0  0  0  1  0  0  0  0  0  0
  188.4000  177.7800  138.2670 C   0  0  1  0  0  3  0  0  0  0  0  0
  188.7320  177.5360  139.7190 C   0  0  0  0  0  0  0  0  0  0  0  0
  189.8070  176.9540  140.0330 O   0  0  0  0  0  0  0  0  0  0  0  0
  187.7850  177.8750  140.7380 N   0  0  0  0  0  2  0  0  0  0  0  0
  189.2200  178.4920  142.5990 C   0  0  0  0  0  1  0  0  0  0  0  0
  188.0400  177.6480  142.1510 C   0  0  1  0  0  3  0  0  0  0  0  0
  186.6500  177.6500  144.2100 C   0  0  0  0  0  3  0  0  0  0  0  0
  186.8230  178.0090  142.9390 C   0  0  0  0  0  3  0  0  0  0  0  0
  187.6280  176.8800  144.9070 N   0  0  0  0  0  2  0  0  0  0  0  0
  188.1210  177.2950  146.2100 C   0  0  0  0  0  2  0  0  0  0  0  0
  189.5210  177.8740  146.0900 C   0  0  0  0  0  2  0  0  0  0  0  0
  190.4300  176.8620  145.7840 O   0  0  0  0  0  0  0  0  0  0  0  0
  191.3250  176.8550  146.8520 C   0  0  0  0  0  2  0  0  0  0  0  0
  192.0760  175.6800  146.8250 O   0  0  0  0  0  0  0  0  0  0  0  0
  192.7430  175.6600  148.0510 C   0  0  0  0  0  1  0  0  0  0  0  0
  189.3270  178.7610  137.6150 C   0  0  0  0  0  3  0  0  0  0  0  0
  188.9750  179.9130  137.4200 O   0  0  0  0  0  0  0  0  0  0  0  0
  1  3  1  0  0  0  0
  1 32  1  0  0  0  0
  2  5  1  0  0  0  0
  2  7  2  0  0  0  0
  4  1  2  0  0  0  0
  5  6  2  0  0  0  0
  6  3  1  0  0  0  0
  7  4  1  0  0  0  0
  8 10  2  0  0  0  0
  9 13  1  0  0  0  0
 10  4  1  0  0  0  0
 10  9  1  0  0  0  0
 11 18  1  0  0  0  0
 11 12  1  0  0  0  0
 13 16  1  0  0  0  0
 14 11  2  0  0  0  0
 15 14  1  0  0  0  0
 15 13  2  0  0  0  0
 16 12  2  0  0  0  0
 16 17  1  0  0  0  0
 19 18  1  6  0  0  0
 19 20  1  0  0  0  0
 21 19  1  0  0  0  0
 21 20  1  0  0  0  0
 22  6  1  0  0  0  0
 22 23  1  0  0  0  0
 23 25  1  0  0  0  0
 23 24  2  0  0  0  0
 25 26  1  0  0  0  0
 27 30  1  0  0  0  0
 27 26  1  0  0  0  0
 29 30  2  0  0  0  0
 30 28  1  0  0  0  0
 31 30  1  0  0  0  0
 32 47  1  6  0  0  0
 32 33  1  0  0  0  0
 33 34  2  0  0  0  0
 33 35  1  0  0  0  0
 35 37  1  0  0  0  0
 37 36  1  1  0  0  0
 37 39  1  0  0  0  0
 38 40  1  0  0  0  0
 39 38  2  0  0  0  0
 40 41  1  0  0  0  0
 42 41  1  0  0  0  0
 43 42  1  0  0  0  0
 43 44  1  0  0  0  0
 45 44  1  0  0  0  0
 45 46  1  0  0  0  0
 48 47  2  0  0  0  0
M  END
>  <MODEL>
3

>  <REMARK>
 VINA RESULT:      -6.0      2.647      6.672
  Name = 
  21 active torsions:
  status: ('A' for Active; 'I' for Inactive)
    1  A    between atoms: C_1  and  C_19
    2  A    between atoms: C_4  and  N_37
    3  A    between atoms: C_6  and  C_35
    4  A    between atoms: C_7  and  C_12
    5  A    between atoms: C_7  and  O_26
    6  A    between atoms: C_8  and  O_31
    7  A    between atoms: C_8  and  C_33
    8  A    between atoms: C_9  and  C_23
    9  A    between atoms: C_9  and  N_24
   10  A    between atoms: C_10  and  C_35
   11  A    between atoms: O_11  and  C_18
   12  A    between atoms: C_12  and  N_14
   13  A    between atoms: C_13  and  C_19
   14  A    between atoms: N_14  and  C_22
   15  A    between atoms: C_16  and  C_35
   16  A    between atoms: C_18  and  O_26
   17  A    between atoms: C_25  and  C_28
   18  A    between atoms: C_25  and  P_34
   19  A    between atoms: C_28  and  C_33
   20  A    between atoms: O_31  and  C_43
   21  A    between atoms: C_36  and  C_42
                            x       y       z     vdW  Elec       q    Type
                         _______ _______ _______ _____ _____    ______ ____

>  <TORSDO>
F 21

$$$$
=
 OpenBabel11042411183D

 48 50  0  0  1  0  0  0  0  0999 V2000
  186.0740  178.3090  143.0840 C   0  0  0  0  0  0  0  0  0  0  0  0
  183.6710  179.4260  144.6600 C   0  0  0  0  0  3  0  0  0  0  0  0
  186.5320  178.8480  144.4080 C   0  0  0  0  0  2  0  0  0  0  0  0
  184.8760  178.6700  142.5620 C   0  0  0  0  0  0  0  0  0  0  0  0
  184.4260  178.6250  145.6430 C   0  0  0  0  0  3  0  0  0  0  0  0
  185.7130  178.2980  145.5340 C   0  0  0  0  0  0  0  0  0  0  0  0
  183.8750  179.4500  143.3360 C   0  0  0  0  0  3  0  0  0  0  0  0
  185.2210  178.7130  140.2160 O   0  0  0  0  0  0  0  0  0  0  0  0
  183.3180  177.5420  140.9090 N   0  0  0  0  0  2  0  0  0  0  0  0
  184.4860  178.3340  141.1690 C   0  0  0  0  0  0  0  0  0  0  0  0
  181.7650  176.4350  137.1190 C   0  0  0  0  0  0  0  0  0  0  0  0
  181.4060  177.6530  137.7040 C   0  0  0  0  0  3  0  0  0  0  0  0
  182.7990  177.1500  139.6310 C   0  0  0  0  0  0  0  0  0  0  0  0
  182.6340  175.5700  137.7890 C   0  0  0  0  0  3  0  0  0  0  0  0
  183.1500  175.9260  139.0380 C   0  0  0  0  0  3  0  0  0  0  0  0
  181.9230  178.0120  138.9530 C   0  0  0  0  0  0  0  0  0  0  0  0
  181.5620  179.2310  139.5170 O   0  0  0  0  0  1  0  0  0  0  0  0
  181.2020  176.0490  135.7950 C   0  0  0  0  0  2  0  0  0  0  0  0
  179.8420  175.4010  135.9710 C   0  0  2  0  0  3  0  0  0  0  0  0
  179.8820  174.0390  135.4190 N   0  0  0  0  0  2  0  0  0  0  0  0
  179.2570  175.1340  134.6640 C   0  0  0  0  0  2  0  0  0  0  0  0
  186.2650  177.4710  146.5240 O   0  0  0  0  0  0  0  0  0  0  0  0
  187.4520  177.7090  147.2320 C   0  0  0  0  0  0  0  0  0  0  0  0
  187.5150  178.5670  148.1520 O   0  0  0  0  0  0  0  0  0  0  0  0
  188.6560  176.8980  146.9140 C   0  0  0  0  0  2  0  0  0  0  0  0
  189.8170  177.8140  146.5880 C   0  0  0  0  0  2  0  0  0  0  0  0
  189.7710  178.1900  145.1220 C   0  0  0  0  0  2  0  0  0  0  0  0
  192.3550  178.8310  144.5760 O   0  0  0  0  0  1  0  0  0  0  0  0
  191.1000  177.5650  142.6620 O   0  0  0  0  0  0  0  0  0  0  0  0
  191.3390  177.7410  144.3270 P   0  0  0  0  0  0  0  0  0  0  0  0
  191.9080  176.2850  144.9730 O   0  0  0  0  0  1  0  0  0  0  0  0
  187.0020  177.3650  142.3600 C   0  0  1  0  0  3  0  0  0  0  0  0
  188.0190  178.0810  141.5040 C   0  0  0  0  0  0  0  0  0  0  0  0
  188.3260  179.2800  141.7570 O   0  0  0  0  0  0  0  0  0  0  0  0
  188.5640  177.4390  140.3470 N   0  0  0  0  0  2  0  0  0  0  0  0
  190.6010  177.0850  139.0710 C   0  0  0  0  0  1  0  0  0  0  0  0
  189.5320  178.0840  139.4760 C   0  0  1  0  0  3  0  0  0  0  0  0
  187.9590  177.8900  137.5640 C   0  0  0  0  0  3  0  0  0  0  0  0
  188.8350  178.6090  138.2630 C   0  0  0  0  0  3  0  0  0  0  0  0
  187.6320  176.5500  137.9310 N   0  0  0  0  0  2  0  0  0  0  0  0
  187.5260  175.5020  136.9280 C   0  0  0  0  0  2  0  0  0  0  0  0
  186.0870  175.0260  136.8060 C   0  0  0  0  0  2  0  0  0  0  0  0
  186.0600  173.6490  136.5820 O   0  0  0  0  0  0  0  0  0  0  0  0
  185.4480  173.1200  137.7160 C   0  0  0  0  0  2  0  0  0  0  0  0
  184.4870  172.1830  137.3360 O   0  0  0  0  0  0  0  0  0  0  0  0
  184.8240  171.8460  136.0240 C   0  0  0  0  0  1  0  0  0  0  0  0
  187.6280  176.4050  143.3260 C   0  0  0  0  0  3  0  0  0  0  0  0
  188.5080  175.6420  142.9610 O   0  0  0  0  0  0  0  0  0  0  0  0
  1  3  1  0  0  0  0
  2  5  1  0  0  0  0
  3  6  1  0  0  0  0
  4  1  2  0  0  0  0
  4  7  1  0  0  0  0
  6  5  2  0  0  0  0
  6 22  1  0  0  0  0
  7  2  2  0  0  0  0
  8 10  2  0  0  0  0
  9 10  1  0  0  0  0
 10  4  1  0  0  0  0
 11 12  2  0  0  0  0
 11 14  1  0  0  0  0
 12 16  1  0  0  0  0
 13  9  1  0  0  0  0
 14 15  2  0  0  0  0
 15 13  1  0  0  0  0
 16 17  1  0  0  0  0
 16 13  2  0  0  0  0
 18 11  1  0  0  0  0
 19 18  1  6  0  0  0
 20 19  1  0  0  0  0
 21 20  1  0  0  0  0
 21 19  1  0  0  0  0
 22 23  1  0  0  0  0
 23 24  2  0  0  0  0
 25 23  1  0  0  0  0
 26 25  1  0  0  0  0
 27 26  1  0  0  0  0
 29 30  2  0  0  0  0
 30 28  1  0  0  0  0
 30 31  1  0  0  0  0
 30 27  1  0  0  0  0
 32  1  1  0  0  0  0
 32 47  1  1  0  0  0
 33 34  2  0  0  0  0
 33 32  1  0  0  0  0
 35 33  1  0  0  0  0
 37 36  1  6  0  0  0
 37 35  1  0  0  0  0
 38 40  1  0  0  0  0
 38 39  2  0  0  0  0
 39 37  1  0  0  0  0
 41 40  1  0  0  0  0
 42 41  1  0  0  0  0
 43 42  1  0  0  0  0
 43 44  1  0  0  0  0
 45 44  1  0  0  0  0
 46 45  1  0  0  0  0
 48 47  2  0  0  0  0
M  END
>  <MODEL>
4

>  <REMARK>
 VINA RESULT:      -5.9      4.436      9.587
  Name = 
  21 active torsions:
  status: ('A' for Active; 'I' for Inactive)
    1  A    between atoms: C_1  and  C_19
    2  A    between atoms: C_4  and  N_37
    3  A    between atoms: C_6  and  C_35
    4  A    between atoms: C_7  and  C_12
    5  A    between atoms: C_7  and  O_26
    6  A    between atoms: C_8  and  O_31
    7  A    between atoms: C_8  and  C_33
    8  A    between atoms: C_9  and  C_23
    9  A    between atoms: C_9  and  N_24
   10  A    between atoms: C_10  and  C_35
   11  A    between atoms: O_11  and  C_18
   12  A    between atoms: C_12  and  N_14
   13  A    between atoms: C_13  and  C_19
   14  A    between atoms: N_14  and  C_22
   15  A    between atoms: C_16  and  C_35
   16  A    between atoms: C_18  and  O_26
   17  A    between atoms: C_25  and  C_28
   18  A    between atoms: C_25  and  P_34
   19  A    between atoms: C_28  and  C_33
   20  A    between atoms: O_31  and  C_43
   21  A    between atoms: C_36  and  C_42
                            x       y       z     vdW  Elec       q    Type
                         _______ _______ _______ _____ _____    ______ ____

>  <TORSDO>
F 21

$$$$
=
 OpenBabel11042411183D

 48 50  0  0  1  0  0  0  0  0999 V2000
  186.6280  178.2920  143.3020 C   0  0  0  0  0  0  0  0  0  0  0  0
  184.5600  179.6200  145.1630 C   0  0  0  0  0  3  0  0  0  0  0  0
  187.2800  178.6970  144.5910 C   0  0  0  0  0  2  0  0  0  0  0  0
  185.4430  178.8300  142.9220 C   0  0  0  0  0  0  0  0  0  0  0  0
  185.2950  178.6790  146.0290 C   0  0  0  0  0  3  0  0  0  0  0  0
  186.5110  178.1970  145.7740 C   0  0  0  0  0  0  0  0  0  0  0  0
  184.6340  179.6890  143.8270 C   0  0  0  0  0  3  0  0  0  0  0  0
  185.3680  179.2520  140.5900 O   0  0  0  0  0  0  0  0  0  0  0  0
  183.8210  177.6730  141.3530 N   0  0  0  0  0  2  0  0  0  0  0  0
  184.8760  178.6210  141.5660 C   0  0  0  0  0  0  0  0  0  0  0  0
  181.8130  176.8020  137.7180 C   0  0  0  0  0  0  0  0  0  0  0  0
  181.0950  177.2200  138.8420 C   0  0  0  0  0  3  0  0  0  0  0  0
  183.1580  177.3700  140.1170 C   0  0  0  0  0  0  0  0  0  0  0  0
  183.2010  176.6610  137.7920 C   0  0  0  0  0  3  0  0  0  0  0  0
  183.8710  176.9450  138.9850 C   0  0  0  0  0  3  0  0  0  0  0  0
  181.7630  177.5060  140.0370 C   0  0  0  0  0  0  0  0  0  0  0  0
  181.0340  177.9280  141.1430 O   0  0  0  0  0  1  0  0  0  0  0  0
  181.0970  176.4840  136.4510 C   0  0  0  0  0  2  0  0  0  0  0  0
  181.3670  175.0500  136.0400 C   0  0  2  0  0  3  0  0  0  0  0  0
  180.1340  174.4640  135.4940 N   0  0  0  0  0  2  0  0  0  0  0  0
  180.5700  174.1490  136.8620 C   0  0  0  0  0  2  0  0  0  0  0  0
  187.0430  177.2560  146.6660 O   0  0  0  0  0  0  0  0  0  0  0  0
  187.8830  177.5310  147.7550 C   0  0  0  0  0  0  0  0  0  0  0  0
  187.4530  177.5470  148.9390 O   0  0  0  0  0  0  0  0  0  0  0  0
  189.3290  177.7750  147.5070 C   0  0  0  0  0  2  0  0  0  0  0  0
  189.7760  176.9970  146.2870 C   0  0  0  0  0  2  0  0  0  0  0  0
  191.2850  177.0500  146.1770 C   0  0  0  0  0  2  0  0  0  0  0  0
  192.8000  174.7940  146.2290 O   0  0  0  0  0  0  0  0  0  0  0  0
  190.7870  174.8150  147.8990 O   0  0  0  0  0  1  0  0  0  0  0  0
  192.0150  175.7020  147.1470 P   0  0  0  0  0  0  0  0  0  0  0  0
  193.0500  176.3420  148.3220 O   0  0  0  0  0  1  0  0  0  0  0  0
  187.3480  177.2780  142.4470 C   0  0  1  0  0  3  0  0  0  0  0  0
  188.4380  177.8890  141.6010 C   0  0  0  0  0  0  0  0  0  0  0  0
  188.4950  179.1420  141.4520 O   0  0  0  0  0  0  0  0  0  0  0  0
  189.3500  177.0480  140.8870 N   0  0  0  0  0  2  0  0  0  0  0  0
  191.7310  177.5200  140.7860 C   0  0  0  0  0  1  0  0  0  0  0  0
  190.4080  177.5780  140.0430 C   0  0  1  0  0  3  0  0  0  0  0  0
  189.7940  177.0710  137.6900 C   0  0  0  0  0  3  0  0  0  0  0  0
  190.4900  176.7740  138.7870 C   0  0  0  0  0  3  0  0  0  0  0  0
  188.9070  178.1880  137.6500 N   0  0  0  0  0  2  0  0  0  0  0  0
  187.4750  178.0160  137.8350 C   0  0  0  0  0  2  0  0  0  0  0  0
  186.9120  177.0770  136.7810 C   0  0  0  0  0  2  0  0  0  0  0  0
  186.6650  175.8240  137.3430 O   0  0  0  0  0  0  0  0  0  0  0  0
  186.4680  174.9800  136.2520 C   0  0  0  0  0  2  0  0  0  0  0  0
  186.5750  173.6510  136.6630 O   0  0  0  0  0  0  0  0  0  0  0  0
  185.4760  173.4520  137.4980 C   0  0  0  0  0  1  0  0  0  0  0  0
  187.8350  176.1380  143.2900 C   0  0  0  0  0  3  0  0  0  0  0  0
  188.8590  175.5420  142.9970 O   0  0  0  0  0  0  0  0  0  0  0  0
  1  3  1  0  0  0  0
  2  5  1  0  0  0  0
  3  6  1  0  0  0  0
  4  1  2  0  0  0  0
  4  7  1  0  0  0  0
  6  5  2  0  0  0  0
  6 22  1  0  0  0  0
  7  2  2  0  0  0  0
  8 10  2  0  0  0  0
  9 10  1  0  0  0  0
 10  4  1  0  0  0  0
 11 14  2  0  0  0  0
 11 12  1  0  0  0  0
 12 16  2  0  0  0  0
 13  9  1  0  0  0  0
 14 15  1  0  0  0  0
 15 13  2  0  0  0  0
 16 13  1  0  0  0  0
 16 17  1  0  0  0  0
 18 11  1  0  0  0  0
 19 18  1  1  0  0  0
 19 21  1  0  0  0  0
 20 19  1  0  0  0  0
 20 21  1  0  0  0  0
 22 23  1  0  0  0  0
 23 24  2  0  0  0  0
 25 23  1  0  0  0  0
 26 25  1  0  0  0  0
 27 26  1  0  0  0  0
 27 30  1  0  0  0  0
 28 30  2  0  0  0  0
 30 29  1  0  0  0  0
 30 31  1  0  0  0  0
 32 47  1  1  0  0  0
 32  1  1  0  0  0  0
 33 32  1  0  0  0  0
 34 33  2  0  0  0  0
 35 33  1  0  0  0  0
 37 36  1  1  0  0  0
 37 35  1  0  0  0  0
 38 39  2  0  0  0  0
 39 37  1  0  0  0  0
 40 38  1  0  0  0  0
 40 41  1  0  0  0  0
 42 43  1  0  0  0  0
 42 41  1  0  0  0  0
 44 45  1  0  0  0  0
 44 43  1  0  0  0  0
 45 46  1  0  0  0  0
 48 47  2  0  0  0  0
M  END
>  <MODEL>
5

>  <REMARK>
 VINA RESULT:      -5.9      4.591      9.606
  Name = 
  21 active torsions:
  status: ('A' for Active; 'I' for Inactive)
    1  A    between atoms: C_1  and  C_19
    2  A    between atoms: C_4  and  N_37
    3  A    between atoms: C_6  and  C_35
    4  A    between atoms: C_7  and  C_12
    5  A    between atoms: C_7  and  O_26
    6  A    between atoms: C_8  and  O_31
    7  A    between atoms: C_8  and  C_33
    8  A    between atoms: C_9  and  C_23
    9  A    between atoms: C_9  and  N_24
   10  A    between atoms: C_10  and  C_35
   11  A    between atoms: O_11  and  C_18
   12  A    between atoms: C_12  and  N_14
   13  A    between atoms: C_13  and  C_19
   14  A    between atoms: N_14  and  C_22
   15  A    between atoms: C_16  and  C_35
   16  A    between atoms: C_18  and  O_26
   17  A    between atoms: C_25  and  C_28
   18  A    between atoms: C_25  and  P_34
   19  A    between atoms: C_28  and  C_33
   20  A    between atoms: O_31  and  C_43
   21  A    between atoms: C_36  and  C_42
                            x       y       z     vdW  Elec       q    Type
                         _______ _______ _______ _____ _____    ______ ____

>  <TORSDO>
F 21

$$$$
=
 OpenBabel11042411183D

 48 50  0  0  1  0  0  0  0  0999 V2000
  184.4950  178.7200  141.8000 C   0  0  0  0  0  0  0  0  0  0  0  0
  182.3760  179.1070  144.0050 C   0  0  0  0  0  3  0  0  0  0  0  0
  185.0310  179.6150  142.8790 C   0  0  0  0  0  2  0  0  0  0  0  0
  183.1630  178.5060  141.6720 C   0  0  0  0  0  0  0  0  0  0  0  0
  183.6300  178.8350  144.7330 C   0  0  0  0  0  3  0  0  0  0  0  0
  184.8540  179.0040  144.2340 C   0  0  0  0  0  0  0  0  0  0  0  0
  182.1820  178.9740  142.6860 C   0  0  0  0  0  3  0  0  0  0  0  0
  182.0610  178.4910  139.5720 O   0  0  0  0  0  0  0  0  0  0  0  0
  182.6610  176.3810  140.3820 N   0  0  0  0  0  2  0  0  0  0  0  0
  182.5820  177.8090  140.4960 C   0  0  0  0  0  0  0  0  0  0  0  0
  181.0590  173.9760  137.2750 C   0  0  0  0  0  0  0  0  0  0  0  0
  180.2200  174.5340  138.2430 C   0  0  0  0  0  3  0  0  0  0  0  0
  182.1370  175.5610  139.3270 C   0  0  0  0  0  0  0  0  0  0  0  0
  182.4360  174.2010  137.3340 C   0  0  0  0  0  3  0  0  0  0  0  0
  182.9730  174.9920  138.3540 C   0  0  0  0  0  3  0  0  0  0  0  0
  180.7540  175.3270  139.2640 C   0  0  0  0  0  0  0  0  0  0  0  0
  179.9040  175.8820  140.2140 O   0  0  0  0  0  1  0  0  0  0  0  0
  180.4890  173.1200  136.1970 C   0  0  0  0  0  2  0  0  0  0  0  0
  181.2470  171.8100  136.1090 C   0  0  2  0  0  3  0  0  0  0  0  0
  181.0530  171.2290  134.7730 N   0  0  0  0  0  2  0  0  0  0  0  0
  180.3060  170.7130  135.9280 C   0  0  0  0  0  2  0  0  0  0  0  0
  185.9440  178.6330  145.0340 O   0  0  0  0  0  0  0  0  0  0  0  0
  185.9260  178.4570  146.4250 C   0  0  0  0  0  0  0  0  0  0  0  0
  184.9400  178.8060  147.1270 O   0  0  0  0  0  0  0  0  0  0  0  0
  187.0880  177.8050  147.0850 C   0  0  0  0  0  2  0  0  0  0  0  0
  187.9680  177.1510  146.0400 C   0  0  0  0  0  2  0  0  0  0  0  0
  189.2640  177.9230  145.9130 C   0  0  0  0  0  2  0  0  0  0  0  0
  189.3180  176.3960  143.6660 O   0  0  0  0  0  1  0  0  0  0  0  0
  191.5680  176.4890  144.9960 O   0  0  0  0  0  1  0  0  0  0  0  0
  190.1940  177.3240  144.4740 P   0  0  0  0  0  0  0  0  0  0  0  0
  190.6600  178.6350  143.5120 O   0  0  0  0  0  0  0  0  0  0  0  0
  185.4940  178.0840  140.8640 C   0  0  1  0  0  3  0  0  0  0  0  0
  185.4160  178.6330  139.4600 C   0  0  0  0  0  0  0  0  0  0  0  0
  184.9320  179.7810  139.2560 O   0  0  0  0  0  0  0  0  0  0  0  0
  185.7990  177.8170  138.3480 N   0  0  0  0  0  2  0  0  0  0  0  0
  187.1190  178.6490  136.4860 C   0  0  0  0  0  1  0  0  0  0  0  0
  185.7290  178.2840  136.9730 C   0  0  1  0  0  3  0  0  0  0  0  0
  183.8450  177.0910  135.8790 C   0  0  0  0  0  3  0  0  0  0  0  0
  185.1510  177.2070  136.1130 C   0  0  0  0  0  3  0  0  0  0  0  0
  182.9010  177.9960  136.4500 N   0  0  0  0  0  2  0  0  0  0  0  0
  181.4710  177.7780  136.3050 C   0  0  0  0  0  2  0  0  0  0  0  0
  180.7880  179.0400  135.8030 C   0  0  0  0  0  2  0  0  0  0  0  0
  181.3290  180.1580  136.4380 O   0  0  0  0  0  0  0  0  0  0  0  0
  180.2330  180.9710  136.7170 C   0  0  0  0  0  2  0  0  0  0  0  0
  180.6610  182.1250  137.3720 O   0  0  0  0  0  0  0  0  0  0  0  0
  181.5500  181.6680  138.3460 C   0  0  0  0  0  1  0  0  0  0  0  0
  186.8740  178.1610  141.4440 C   0  0  0  0  0  3  0  0  0  0  0  0
  187.7690  178.7340  140.8430 O   0  0  0  0  0  0  0  0  0  0  0  0
  1  3  1  0  0  0  0
  2  5  1  0  0  0  0
  3  6  1  0  0  0  0
  4  1  2  0  0  0  0
  4  7  1  0  0  0  0
  6  5  2  0  0  0  0
  6 22  1  0  0  0  0
  7  2  2  0  0  0  0
  8 10  2  0  0  0  0
  9 10  1  0  0  0  0
 10  4  1  0  0  0  0
 11 14  2  0  0  0  0
 11 12  1  0  0  0  0
 12 16  2  0  0  0  0
 13  9  1  0  0  0  0
 14 15  1  0  0  0  0
 15 13  2  0  0  0  0
 16 13  1  0  0  0  0
 16 17  1  0  0  0  0
 18 11  1  0  0  0  0
 19 18  1  6  0  0  0
 20 21  1  0  0  0  0
 20 19  1  0  0  0  0
 21 19  1  0  0  0  0
 22 23  1  0  0  0  0
 23 25  1  0  0  0  0
 23 24  2  0  0  0  0
 26 25  1  0  0  0  0
 27 26  1  0  0  0  0
 28 30  1  0  0  0  0
 30 29  1  0  0  0  0
 30 27  1  0  0  0  0
 31 30  2  0  0  0  0
 32 47  1  1  0  0  0
 32  1  1  0  0  0  0
 33 32  1  0  0  0  0
 34 33  2  0  0  0  0
 35 33  1  0  0  0  0
 37 36  1  6  0  0  0
 37 35  1  0  0  0  0
 38 39  2  0  0  0  0
 38 40  1  0  0  0  0
 39 37  1  0  0  0  0
 41 40  1  0  0  0  0
 42 41  1  0  0  0  0
 42 43  1  0  0  0  0
 43 44  1  0  0  0  0
 44 45  1  0  0  0  0
 45 46  1  0  0  0  0
 48 47  2  0  0  0  0
M  END
>  <MODEL>
6

>  <REMARK>
 VINA RESULT:      -5.6      5.726      9.848
  Name = 
  21 active torsions:
  status: ('A' for Active; 'I' for Inactive)
    1  A    between atoms: C_1  and  C_19
    2  A    between atoms: C_4  and  N_37
    3  A    between atoms: C_6  and  C_35
    4  A    between atoms: C_7  and  C_12
    5  A    between atoms: C_7  and  O_26
    6  A    between atoms: C_8  and  O_31
    7  A    between atoms: C_8  and  C_33
    8  A    between atoms: C_9  and  C_23
    9  A    between atoms: C_9  and  N_24
   10  A    between atoms: C_10  and  C_35
   11  A    between atoms: O_11  and  C_18
   12  A    between atoms: C_12  and  N_14
   13  A    between atoms: C_13  and  C_19
   14  A    between atoms: N_14  and  C_22
   15  A    between atoms: C_16  and  C_35
   16  A    between atoms: C_18  and  O_26
   17  A    between atoms: C_25  and  C_28
   18  A    between atoms: C_25  and  P_34
   19  A    between atoms: C_28  and  C_33
   20  A    between atoms: O_31  and  C_43
   21  A    between atoms: C_36  and  C_42
                            x       y       z     vdW  Elec       q    Type
                         _______ _______ _______ _____ _____    ______ ____

>  <TORSDO>
F 21

$$$$
=
 OpenBabel11042411183D

 48 50  0  0  1  0  0  0  0  0999 V2000
  183.4930  178.0160  138.8470 C   0  0  0  0  0  0  0  0  0  0  0  0
  181.0360  179.6270  139.7810 C   0  0  0  0  0  3  0  0  0  0  0  0
  182.3070  177.6920  137.9860 C   0  0  0  0  0  2  0  0  0  0  0  0
  183.3340  178.5940  140.0620 C   0  0  0  0  0  0  0  0  0  0  0  0
  181.0400  179.7660  138.3120 C   0  0  0  0  0  3  0  0  0  0  0  0
  181.6520  178.9350  137.4680 C   0  0  0  0  0  0  0  0  0  0  0  0
  182.0210  179.1130  140.5290 C   0  0  0  0  0  3  0  0  0  0  0  0
  185.2930  179.6590  140.8690 O   0  0  0  0  0  0  0  0  0  0  0  0
  184.5530  177.8540  142.1590 N   0  0  0  0  0  2  0  0  0  0  0  0
  184.4540  178.7300  141.0280 C   0  0  0  0  0  0  0  0  0  0  0  0
  187.5410  177.8290  145.1720 C   0  0  0  0  0  0  0  0  0  0  0  0
  186.2520  178.2890  145.4560 C   0  0  0  0  0  3  0  0  0  0  0  0
  185.5770  177.8420  143.1650 C   0  0  0  0  0  0  0  0  0  0  0  0
  187.8530  177.3810  143.8860 C   0  0  0  0  0  3  0  0  0  0  0  0
  186.8760  177.3860  142.8870 C   0  0  0  0  0  3  0  0  0  0  0  0
  185.2720  178.2930  144.4580 C   0  0  0  0  0  0  0  0  0  0  0  0
  183.9930  178.7470  144.7600 O   0  0  0  0  0  1  0  0  0  0  0  0
  188.5870  177.8380  146.2320 C   0  0  0  0  0  2  0  0  0  0  0  0
  187.9920  178.2880  147.5530 C   0  0  2  0  0  3  0  0  0  0  0  0
  189.0450  178.2920  148.5790 N   0  0  0  0  0  2  0  0  0  0  0  0
  188.0660  177.1980  148.5170 C   0  0  0  0  0  2  0  0  0  0  0  0
  181.6180  179.2460  136.1020 O   0  0  0  0  0  0  0  0  0  0  0  0
  180.5620  179.8720  135.4230 C   0  0  0  0  0  0  0  0  0  0  0  0
  179.3900  179.4090  135.4470 O   0  0  0  0  0  0  0  0  0  0  0  0
  180.8260  181.1360  134.6860 C   0  0  0  0  0  2  0  0  0  0  0  0
  179.9190  182.2300  135.2070 C   0  0  0  0  0  2  0  0  0  0  0  0
  180.4130  182.6970  136.5590 C   0  0  0  0  0  2  0  0  0  0  0  0
  182.0710  184.7340  137.2560 O   0  0  0  0  0  1  0  0  0  0  0  0
  179.5310  185.3500  137.1850 O   0  0  0  0  0  1  0  0  0  0  0  0
  180.7960  184.4690  136.4900 P   0  0  0  0  0  0  0  0  0  0  0  0
  181.0000  184.9460  134.8800 O   0  0  0  0  0  0  0  0  0  0  0  0
  184.8580  177.6620  138.3100 C   0  0  1  0  0  3  0  0  0  0  0  0
  184.8110  176.6050  137.2340 C   0  0  0  0  0  0  0  0  0  0  0  0
  184.2040  176.8320  136.1500 O   0  0  0  0  0  0  0  0  0  0  0  0
  185.3690  175.3090  137.4750 N   0  0  0  0  0  2  0  0  0  0  0  0
  183.9190  173.7270  136.3350 C   0  0  0  0  0  1  0  0  0  0  0  0
  185.3380  174.2450  136.4840 C   0  0  1  0  0  3  0  0  0  0  0  0
  187.1180  175.0100  134.9300 C   0  0  0  0  0  3  0  0  0  0  0  0
  185.8310  174.7730  135.1760 C   0  0  0  0  0  3  0  0  0  0  0  0
  188.1210  174.7790  135.9190 N   0  0  0  0  0  2  0  0  0  0  0  0
  189.3890  175.4900  135.8800 C   0  0  0  0  0  2  0  0  0  0  0  0
  190.3140  174.9880  136.9780 C   0  0  0  0  0  2  0  0  0  0  0  0
  189.8410  175.4000  138.2230 O   0  0  0  0  0  0  0  0  0  0  0  0
  190.8870  176.1400  138.7710 C   0  0  0  0  0  2  0  0  0  0  0  0
  190.3740  177.2540  139.4360 O   0  0  0  0  0  0  0  0  0  0  0  0
  190.5340  176.9610  140.7900 C   0  0  0  0  0  1  0  0  0  0  0  0
  185.5870  178.8990  137.8800 C   0  0  0  0  0  3  0  0  0  0  0  0
  186.7240  178.8290  137.4420 O   0  0  0  0  0  0  0  0  0  0  0  0
  1  4  2  0  0  0  0
  2  7  2  0  0  0  0
  3  1  1  0  0  0  0
  4  7  1  0  0  0  0
  4 10  1  0  0  0  0
  5  2  1  0  0  0  0
  6  3  1  0  0  0  0
  6  5  2  0  0  0  0
  8 10  2  0  0  0  0
  9 13  1  0  0  0  0
 10  9  1  0  0  0  0
 11 12  1  0  0  0  0
 11 18  1  0  0  0  0
 13 16  1  0  0  0  0
 14 11  2  0  0  0  0
 15 13  2  0  0  0  0
 15 14  1  0  0  0  0
 16 17  1  0  0  0  0
 16 12  2  0  0  0  0
 19 18  1  6  0  0  0
 19 21  1  0  0  0  0
 19 20  1  0  0  0  0
 21 20  1  0  0  0  0
 22  6  1  0  0  0  0
 23 24  2  0  0  0  0
 23 22  1  0  0  0  0
 25 26  1  0  0  0  0
 25 23  1  0  0  0  0
 26 27  1  0  0  0  0
 30 27  1  0  0  0  0
 30 29  1  0  0  0  0
 30 28  1  0  0  0  0
 31 30  2  0  0  0  0
 32 47  1  6  0  0  0
 32  1  1  0  0  0  0
 33 35  1  0  0  0  0
 33 32  1  0  0  0  0
 34 33  2  0  0  0  0
 37 36  1  6  0  0  0
 37 35  1  0  0  0  0
 38 39  2  0  0  0  0
 38 40  1  0  0  0  0
 39 37  1  0  0  0  0
 41 40  1  0  0  0  0
 41 42  1  0  0  0  0
 42 43  1  0  0  0  0
 43 44  1  0  0  0  0
 44 45  1  0  0  0  0
 45 46  1  0  0  0  0
 48 47  2  0  0  0  0
M  END
>  <MODEL>
7

>  <REMARK>
 VINA RESULT:      -5.6      4.697      9.950
  Name = 
  21 active torsions:
  status: ('A' for Active; 'I' for Inactive)
    1  A    between atoms: C_1  and  C_19
    2  A    between atoms: C_4  and  N_37
    3  A    between atoms: C_6  and  C_35
    4  A    between atoms: C_7  and  C_12
    5  A    between atoms: C_7  and  O_26
    6  A    between atoms: C_8  and  O_31
    7  A    between atoms: C_8  and  C_33
    8  A    between atoms: C_9  and  C_23
    9  A    between atoms: C_9  and  N_24
   10  A    between atoms: C_10  and  C_35
   11  A    between atoms: O_11  and  C_18
   12  A    between atoms: C_12  and  N_14
   13  A    between atoms: C_13  and  C_19
   14  A    between atoms: N_14  and  C_22
   15  A    between atoms: C_16  and  C_35
   16  A    between atoms: C_18  and  O_26
   17  A    between atoms: C_25  and  C_28
   18  A    between atoms: C_25  and  P_34
   19  A    between atoms: C_28  and  C_33
   20  A    between atoms: O_31  and  C_43
   21  A    between atoms: C_36  and  C_42
                            x       y       z     vdW  Elec       q    Type
                         _______ _______ _______ _____ _____    ______ ____

>  <TORSDO>
F 21

$$$$
=
 OpenBabel11042411183D

 48 50  0  0  1  0  0  0  0  0999 V2000
  185.8370  178.2930  138.5360 C   0  0  0  0  0  0  0  0  0  0  0  0
  188.1710  176.7740  137.2140 C   0  0  0  0  0  3  0  0  0  0  0  0
  185.6550  178.2640  137.0470 C   0  0  0  0  0  2  0  0  0  0  0  0
  187.0480  178.0490  139.0940 C   0  0  0  0  0  0  0  0  0  0  0  0
  186.9590  176.2470  136.5570 C   0  0  0  0  0  3  0  0  0  0  0  0
  185.7840  176.8740  136.5070 C   0  0  0  0  0  0  0  0  0  0  0  0
  188.2040  177.5570  138.3000 C   0  0  0  0  0  3  0  0  0  0  0  0
  186.8750  179.3270  141.0840 O   0  0  0  0  0  0  0  0  0  0  0  0
  188.0200  177.3010  141.3140 N   0  0  0  0  0  2  0  0  0  0  0  0
  187.3160  178.2800  140.5370 C   0  0  0  0  0  0  0  0  0  0  0  0
  189.1130  177.5570  145.4060 C   0  0  0  0  0  0  0  0  0  0  0  0
  190.0870  177.6390  144.4060 C   0  0  0  0  0  3  0  0  0  0  0  0
  188.3720  177.3810  142.7030 C   0  0  0  0  0  0  0  0  0  0  0  0
  187.7720  177.3790  145.0590 C   0  0  0  0  0  3  0  0  0  0  0  0
  187.4020  177.2940  143.7140 C   0  0  0  0  0  3  0  0  0  0  0  0
  189.7190  177.5550  143.0590 C   0  0  0  0  0  0  0  0  0  0  0  0
  190.6980  177.6480  142.0770 O   0  0  0  0  0  1  0  0  0  0  0  0
  189.5100  177.6320  146.8400 C   0  0  0  0  0  2  0  0  0  0  0  0
  188.3750  178.2010  147.6700 C   0  0  2  0  0  3  0  0  0  0  0  0
  188.7880  178.2510  149.0800 N   0  0  0  0  0  2  0  0  0  0  0  0
  187.8950  177.1870  148.6000 C   0  0  0  0  0  2  0  0  0  0  0  0
  184.7110  176.2050  135.9020 O   0  0  0  0  0  0  0  0  0  0  0  0
  183.4050  176.6980  135.7580 C   0  0  0  0  0  0  0  0  0  0  0  0
  183.1110  177.5530  134.8820 O   0  0  0  0  0  0  0  0  0  0  0  0
  182.3330  176.1670  136.6400 C   0  0  0  0  0  2  0  0  0  0  0  0
  181.4700  175.1930  135.8650 C   0  0  0  0  0  2  0  0  0  0  0  0
  182.0760  173.8070  135.9410 C   0  0  0  0  0  2  0  0  0  0  0  0
  180.3530  173.3770  137.9980 O   0  0  0  0  0  1  0  0  0  0  0  0
  181.7560  171.2920  137.2750 O   0  0  0  0  0  1  0  0  0  0  0  0
  180.9290  172.6840  136.7860 P   0  0  0  0  0  0  0  0  0  0  0  0
  179.6740  172.2560  135.7350 O   0  0  0  0  0  0  0  0  0  0  0  0
  184.6260  178.6130  139.3780 C   0  0  1  0  0  3  0  0  0  0  0  0
  183.7570  179.6890  138.7740 C   0  0  0  0  0  0  0  0  0  0  0  0
  184.1740  180.8800  138.7150 O   0  0  0  0  0  0  0  0  0  0  0  0
  182.4230  179.3840  138.3550 N   0  0  0  0  0  2  0  0  0  0  0  0
  180.4870  179.6990  136.9210 C   0  0  0  0  0  1  0  0  0  0  0  0
  181.5340  180.3820  137.7830 C   0  0  1  0  0  3  0  0  0  0  0  0
  180.2640  180.5570  139.9110 C   0  0  0  0  0  3  0  0  0  0  0  0
  180.8730  181.1470  138.8830 C   0  0  0  0  0  3  0  0  0  0  0  0
  180.1990  179.1360  140.0230 N   0  0  0  0  0  2  0  0  0  0  0  0
  179.4760  178.5020  141.1140 C   0  0  0  0  0  2  0  0  0  0  0  0
  179.8350  179.1550  142.4390 C   0  0  0  0  0  2  0  0  0  0  0  0
  180.7580  178.3650  143.1240 O   0  0  0  0  0  0  0  0  0  0  0  0
  181.8460  179.2070  143.3470 C   0  0  0  0  0  2  0  0  0  0  0  0
  182.6980  178.6310  144.2900 O   0  0  0  0  0  0  0  0  0  0  0  0
  183.9780  178.8190  143.7700 C   0  0  0  0  0  1  0  0  0  0  0  0
  183.8660  177.3620  139.6960 C   0  0  0  0  0  3  0  0  0  0  0  0
  183.1730  177.2940  140.6990 O   0  0  0  0  0  0  0  0  0  0  0  0
  1  4  2  0  0  0  0
  1 32  1  0  0  0  0
  2  7  2  0  0  0  0
  3  1  1  0  0  0  0
  4 10  1  0  0  0  0
  5  2  1  0  0  0  0
  6  5  2  0  0  0  0
  6  3  1  0  0  0  0
  7  4  1  0  0  0  0
  9 13  1  0  0  0  0
 10  8  2  0  0  0  0
 10  9  1  0  0  0  0
 11 18  1  0  0  0  0
 12 11  2  0  0  0  0
 13 16  2  0  0  0  0
 13 15  1  0  0  0  0
 14 11  1  0  0  0  0
 15 14  2  0  0  0  0
 16 12  1  0  0  0  0
 17 16  1  0  0  0  0
 19 18  1  6  0  0  0
 19 21  1  0  0  0  0
 19 20  1  0  0  0  0
 21 20  1  0  0  0  0
 22  6  1  0  0  0  0
 23 22  1  0  0  0  0
 23 25  1  0  0  0  0
 24 23  2  0  0  0  0
 26 27  1  0  0  0  0
 26 25  1  0  0  0  0
 27 30  1  0  0  0  0
 30 29  1  0  0  0  0
 30 28  1  0  0  0  0
 31 30  2  0  0  0  0
 32 47  1  6  0  0  0
 33 32  1  0  0  0  0
 34 33  2  0  0  0  0
 35 33  1  0  0  0  0
 37 36  1  1  0  0  0
 37 35  1  0  0  0  0
 37 39  1  0  0  0  0
 38 40  1  0  0  0  0
 39 38  2  0  0  0  0
 40 41  1  0  0  0  0
 41 42  1  0  0  0  0
 42 43  1  0  0  0  0
 43 44  1  0  0  0  0
 44 45  1  0  0  0  0
 46 45  1  0  0  0  0
 47 48  2  0  0  0  0
M  END
>  <MODEL>
8

>  <REMARK>
 VINA RESULT:      -5.5      5.081      7.788
  Name = 
  21 active torsions:
  status: ('A' for Active; 'I' for Inactive)
    1  A    between atoms: C_1  and  C_19
    2  A    between atoms: C_4  and  N_37
    3  A    between atoms: C_6  and  C_35
    4  A    between atoms: C_7  and  C_12
    5  A    between atoms: C_7  and  O_26
    6  A    between atoms: C_8  and  O_31
    7  A    between atoms: C_8  and  C_33
    8  A    between atoms: C_9  and  C_23
    9  A    between atoms: C_9  and  N_24
   10  A    between atoms: C_10  and  C_35
   11  A    between atoms: O_11  and  C_18
   12  A    between atoms: C_12  and  N_14
   13  A    between atoms: C_13  and  C_19
   14  A    between atoms: N_14  and  C_22
   15  A    between atoms: C_16  and  C_35
   16  A    between atoms: C_18  and  O_26
   17  A    between atoms: C_25  and  C_28
   18  A    between atoms: C_25  and  P_34
   19  A    between atoms: C_28  and  C_33
   20  A    between atoms: O_31  and  C_43
   21  A    between atoms: C_36  and  C_42
                            x       y       z     vdW  Elec       q    Type
                         _______ _______ _______ _____ _____    ______ ____

>  <TORSDO>
F 21

$$$$
=
 OpenBabel11042411183D

 48 50  0  0  1  0  0  0  0  0999 V2000
  184.5990  178.8310  141.9060 C   0  0  0  0  0  0  0  0  0  0  0  0
  182.3370  179.0640  143.9860 C   0  0  0  0  0  3  0  0  0  0  0  0
  185.0450  179.6810  143.0590 C   0  0  0  0  0  2  0  0  0  0  0  0
  183.2820  178.5970  141.6820 C   0  0  0  0  0  0  0  0  0  0  0  0
  183.5480  178.7800  144.7790 C   0  0  0  0  0  3  0  0  0  0  0  0
  184.7970  178.9990  144.3680 C   0  0  0  0  0  0  0  0  0  0  0  0
  182.2290  178.9930  142.6530 C   0  0  0  0  0  3  0  0  0  0  0  0
  182.2360  178.6550  139.5550 O   0  0  0  0  0  0  0  0  0  0  0  0
  183.0000  176.5460  140.2170 N   0  0  0  0  0  2  0  0  0  0  0  0
  182.7930  177.9480  140.4390 C   0  0  0  0  0  0  0  0  0  0  0  0
  181.6910  174.2590  136.8910 C   0  0  0  0  0  0  0  0  0  0  0  0
  180.8340  174.4960  137.9700 C   0  0  0  0  0  3  0  0  0  0  0  0
  182.5760  175.7710  139.0860 C   0  0  0  0  0  0  0  0  0  0  0  0
  182.9910  174.7710  136.9090 C   0  0  0  0  0  3  0  0  0  0  0  0
  183.4310  175.5250  138.0000 C   0  0  0  0  0  3  0  0  0  0  0  0
  181.2720  175.2510  139.0630 C   0  0  0  0  0  0  0  0  0  0  0  0
  180.4050  175.4830  140.1240 O   0  0  0  0  0  1  0  0  0  0  0  0
  181.2270  173.4420  135.7350 C   0  0  0  0  0  2  0  0  0  0  0  0
  182.2440  172.3660  135.4090 C   0  0  2  0  0  3  0  0  0  0  0  0
  181.5420  171.1690  134.9260 N   0  0  0  0  0  2  0  0  0  0  0  0
  182.0550  171.2300  136.3010 C   0  0  0  0  0  2  0  0  0  0  0  0
  185.8430  178.6100  145.2170 O   0  0  0  0  0  0  0  0  0  0  0  0
  185.8080  178.5960  146.6190 C   0  0  0  0  0  0  0  0  0  0  0  0
  184.7220  178.6280  147.2570 O   0  0  0  0  0  0  0  0  0  0  0  0
  187.0870  178.5030  147.3720 C   0  0  0  0  0  2  0  0  0  0  0  0
  187.9320  177.3810  146.8060 C   0  0  0  0  0  2  0  0  0  0  0  0
  189.3990  177.7090  146.9890 C   0  0  0  0  0  2  0  0  0  0  0  0
  191.6700  176.9880  145.6820 O   0  0  0  0  0  1  0  0  0  0  0  0
  190.3610  178.9820  144.6100 O   0  0  0  0  0  1  0  0  0  0  0  0
  190.2730  177.4970  145.4130 P   0  0  0  0  0  0  0  0  0  0  0  0
  189.4450  176.3810  144.4490 O   0  0  0  0  0  0  0  0  0  0  0  0
  185.6690  178.2630  141.0050 C   0  0  1  0  0  3  0  0  0  0  0  0
  185.6200  178.8270  139.6060 C   0  0  0  0  0  0  0  0  0  0  0  0
  184.9300  179.8560  139.3630 O   0  0  0  0  0  0  0  0  0  0  0  0
  186.2750  178.1430  138.5330 N   0  0  0  0  0  2  0  0  0  0  0  0
  187.5550  179.3300  136.8440 C   0  0  0  0  0  1  0  0  0  0  0  0
  186.2480  178.6270  137.1620 C   0  0  1  0  0  3  0  0  0  0  0  0
  187.0550  176.7700  135.7230 C   0  0  0  0  0  3  0  0  0  0  0  0
  186.0460  177.4750  136.2330 C   0  0  0  0  0  3  0  0  0  0  0  0
  188.4130  177.0820  136.0320 N   0  0  0  0  0  2  0  0  0  0  0  0
  189.3350  176.0520  136.4820 C   0  0  0  0  0  2  0  0  0  0  0  0
  189.1660  175.8010  137.9720 C   0  0  0  0  0  2  0  0  0  0  0  0
  190.4030  175.8860  138.6120 O   0  0  0  0  0  0  0  0  0  0  0  0
  190.2240  176.8550  139.5980 C   0  0  0  0  0  2  0  0  0  0  0  0
  191.4570  177.1800  140.1630 O   0  0  0  0  0  0  0  0  0  0  0  0
  191.1640  177.4990  141.4890 C   0  0  0  0  0  1  0  0  0  0  0  0
  187.0170  178.4060  141.6440 C   0  0  0  0  0  3  0  0  0  0  0  0
  187.6170  177.4260  142.0540 O   0  0  0  0  0  0  0  0  0  0  0  0
  1  3  1  0  0  0  0
  2  5  1  0  0  0  0
  3  6  1  0  0  0  0
  4  1  2  0  0  0  0
  4  7  1  0  0  0  0
  6  5  2  0  0  0  0
  6 22  1  0  0  0  0
  7  2  2  0  0  0  0
  8 10  2  0  0  0  0
  9 10  1  0  0  0  0
 10  4  1  0  0  0  0
 11 14  2  0  0  0  0
 11 12  1  0  0  0  0
 12 16  2  0  0  0  0
 13  9  1  0  0  0  0
 14 15  1  0  0  0  0
 15 13  2  0  0  0  0
 16 13  1  0  0  0  0
 16 17  1  0  0  0  0
 18 11  1  0  0  0  0
 19 18  1  1  0  0  0
 19 21  1  0  0  0  0
 20 19  1  0  0  0  0
 20 21  1  0  0  0  0
 22 23  1  0  0  0  0
 23 24  2  0  0  0  0
 23 25  1  0  0  0  0
 26 27  1  0  0  0  0
 26 25  1  0  0  0  0
 29 30  1  0  0  0  0
 30 28  1  0  0  0  0
 30 27  1  0  0  0  0
 31 30  2  0  0  0  0
 32 47  1  1  0  0  0
 32  1  1  0  0  0  0
 33 32  1  0  0  0  0
 34 33  2  0  0  0  0
 35 33  1  0  0  0  0
 37 36  1  6  0  0  0
 37 35  1  0  0  0  0
 38 40  1  0  0  0  0
 38 39  2  0  0  0  0
 39 37  1  0  0  0  0
 40 41  1  0  0  0  0
 41 42  1  0  0  0  0
 42 43  1  0  0  0  0
 43 44  1  0  0  0  0
 44 45  1  0  0  0  0
 45 46  1  0  0  0  0
 47 48  2  0  0  0  0
M  END
>  <MODEL>
9

>  <REMARK>
 VINA RESULT:      -5.5      4.068     10.053
  Name = 
  21 active torsions:
  status: ('A' for Active; 'I' for Inactive)
    1  A    between atoms: C_1  and  C_19
    2  A    between atoms: C_4  and  N_37
    3  A    between atoms: C_6  and  C_35
    4  A    between atoms: C_7  and  C_12
    5  A    between atoms: C_7  and  O_26
    6  A    between atoms: C_8  and  O_31
    7  A    between atoms: C_8  and  C_33
    8  A    between atoms: C_9  and  C_23
    9  A    between atoms: C_9  and  N_24
   10  A    between atoms: C_10  and  C_35
   11  A    between atoms: O_11  and  C_18
   12  A    between atoms: C_12  and  N_14
   13  A    between atoms: C_13  and  C_19
   14  A    between atoms: N_14  and  C_22
   15  A    between atoms: C_16  and  C_35
   16  A    between atoms: C_18  and  O_26
   17  A    between atoms: C_25  and  C_28
   18  A    between atoms: C_25  and  P_34
   19  A    between atoms: C_28  and  C_33
   20  A    between atoms: O_31  and  C_43
   21  A    between atoms: C_36  and  C_42
                            x       y       z     vdW  Elec       q    Type
                         _______ _______ _______ _____ _____    ______ ____

>  <TORSDO>
F 21

$$$$
