=
 OpenBabel11032420243D

 39 46  0  0  1  0  0  0  0  0999 V2000
  187.2120  177.9940  138.9270 C   0  0  1  0  0  3  0  0  0  0  0  0
  188.1330  178.1050  137.8050 C   0  0  2  0  0  3  0  0  0  0  0  0
  188.3900  176.7810  137.2550 C   0  0  2  0  0  0  0  0  0  0  0  0
  188.1940  176.9190  138.7080 N   0  0  2  0  0  0  0  0  0  0  0  0
  189.8110  176.4780  136.8700 C   0  0  0  0  0  0  0  0  0  0  0  0
  193.2340  176.4860  138.0630 N   0  0  0  0  0  0  0  0  0  0  0  0
  194.5310  175.3060  134.9080 C   0  0  0  0  0  1  0  0  0  0  0  0
  192.0930  176.3830  137.3650 C   0  0  0  0  0  0  0  0  0  0  0  0
  190.8300  176.6570  137.7700 N   0  0  0  0  0  0  0  0  0  0  0  0
  194.2450  176.1150  137.2800 N   0  0  0  0  0  0  0  0  0  0  0  0
  192.3650  175.9440  136.1160 C   0  0  0  0  0  0  0  0  0  0  0  0
  190.1070  176.0290  135.5530 C   0  0  0  0  0  3  0  0  0  0  0  0
  193.3790  176.9240  139.4400 C   0  0  0  0  0  1  0  0  0  0  0  0
  193.7290  175.7770  136.0680 C   0  0  0  0  0  0  0  0  0  0  0  0
  191.3980  175.7610  135.1860 N   0  0  0  0  0  0  0  0  0  0  0  0
  187.2330  176.0550  136.5760 C   0  0  0  0  0  2  0  0  0  0  0  0
  186.0010  172.7750  137.6370 O   0  0  0  0  0  0  0  0  0  0  0  0
  184.6620  174.6990  137.2500 C   0  0  0  0  0  1  0  0  0  0  0  0
  185.9730  173.9900  137.3090 C   0  0  0  0  0  0  0  0  0  0  0  0
  187.1920  174.6670  137.0100 N   0  0  0  0  0  2  0  0  0  0  0  0
  187.6510  178.8240  139.9910 O   0  0  0  0  0  0  0  0  0  0  0  0
  183.9110  179.6920  143.9750 C   0  0  0  0  0  1  0  0  0  0  0  0
  184.5100  178.4530  143.3410 C   0  0  1  0  0  3  0  0  0  0  0  0
  186.8200  177.9430  143.4830 C   0  0  0  0  0  0  0  0  0  0  0  0
  189.2280  177.5550  143.1620 C   0  0  0  0  0  3  0  0  0  0  0  0
  186.7270  178.3620  142.1080 C   0  0  0  0  0  0  0  0  0  0  0  0
  187.8070  178.3870  141.3150 C   0  0  0  0  0  0  0  0  0  0  0  0
  185.0790  178.8440  141.6360 S   0  0  0  0  0  0  0  0  0  0  0  0
  185.6810  177.9880  144.1510 C   0  0  0  0  0  3  0  0  0  0  0  0
  190.2750  177.9420  141.0990 O   0  0  0  0  0  1  0  0  0  0  0  0
  188.0810  177.5350  144.0290 N   0  0  0  0  0  0  0  0  0  0  0  0
  189.1270  177.9540  141.8830 C   0  0  0  0  0  0  0  0  0  0  0  0
  189.1470  178.1420  147.7950 C   0  0  1  0  0  3  0  0  0  0  0  0
  189.8860  176.9000  147.3340 C   0  0  0  0  0  2  0  0  0  0  0  0
  187.5050  177.9550  146.2900 O   0  0  0  0  0  0  0  0  0  0  0  0
  188.2040  177.0730  145.4080 C   0  0  2  0  0  3  0  0  0  0  0  0
  189.7140  176.8680  145.7890 C   0  0  0  0  0  2  0  0  0  0  0  0
  187.8230  177.4600  147.5560 C   0  0  2  0  0  3  0  0  0  0  0  0
  187.9990  178.3320  148.6050 O   0  0  0  0  0  0  0  0  0  0  0  0
  1 21  1  1  0  0  0
  2  4  1  0  0  0  0
  2  1  1  0  0  0  0
  3  2  1  0  0  0  0
  3  4  1  0  0  0  0
  4  1  1  0  0  0  0
  5  3  1  0  0  0  0
  5  9  1  0  0  0  0
  6 13  1  0  0  0  0
  7 14  1  0  0  0  0
  8  9  2  0  0  0  0
  8  6  1  0  0  0  0
 10  6  1  0  0  0  0
 11  8  1  0  0  0  0
 12  5  2  0  0  0  0
 14 11  1  0  0  0  0
 14 10  2  0  0  0  0
 15 12  1  0  0  0  0
 15 11  2  0  0  0  0
 16 20  1  0  0  0  0
 16  3  1  0  0  0  0
 18 19  1  0  0  0  0
 19 17  2  0  0  0  0
 20 19  1  0  0  0  0
 21 27  1  0  0  0  0
 23 22  1  0  0  0  0
 23 29  1  0  0  0  0
 24 31  1  0  0  0  0
 24 29  2  0  0  0  0
 25 31  1  0  0  0  0
 26 24  1  0  0  0  0
 27 32  1  0  0  0  0
 27 26  2  0  0  0  0
 28 26  1  0  0  0  0
 28 23  1  0  0  0  0
 30 32  1  0  0  0  0
 31 36  1  0  0  0  0
 32 25  2  0  0  0  0
 33 39  1  0  0  0  0
 34 33  1  0  0  0  0
 35 38  1  0  0  0  0
 36 37  1  0  0  0  0
 36 35  1  0  0  0  0
 37 34  1  0  0  0  0
 38 33  1  0  0  0  0
 38 39  1  0  0  0  0
M  END
>  <MODEL>
1

>  <REMARK>
 VINA RESULT:      -9.3      0.000      0.000
  Name = 
  6 active torsions:
  status: ('A' for Active; 'I' for Inactive)
    1  A    between atoms: C_1  and  C_15
    2  A    between atoms: C_5  and  O_32
    3  A    between atoms: C_15  and  C_22
    4  A    between atoms: C_21  and  O_32
    5  A    between atoms: C_22  and  N_36
    6  A    between atoms: C_23  and  N_38
                            x       y       z     vdW  Elec       q    Type
                         _______ _______ _______ _____ _____    ______ ____

>  <TORSDO>
F 6

$$$$
=
 OpenBabel11032420243D

 39 46  0  0  1  0  0  0  0  0999 V2000
  191.0990  177.2400  141.3650 C   0  0  1  0  0  3  0  0  0  0  0  0
  190.4280  178.0540  142.3690 C   0  0  2  0  0  3  0  0  0  0  0  0
  189.8060  177.1870  143.3610 C   0  0  2  0  0  0  0  0  0  0  0  0
  189.8450  176.7430  141.9580 N   0  0  2  0  0  0  0  0  0  0  0  0
  188.4320  177.5770  143.8270 C   0  0  0  0  0  0  0  0  0  0  0  0
  186.4610  178.4220  146.7500 N   0  0  0  0  0  0  0  0  0  0  0  0
  183.4390  178.8350  144.8210 C   0  0  0  0  0  1  0  0  0  0  0  0
  186.9290  178.1500  145.5220 C   0  0  0  0  0  0  0  0  0  0  0  0
  188.1890  177.8170  145.1560 N   0  0  0  0  0  0  0  0  0  0  0  0
  185.1630  178.7020  146.6580 N   0  0  0  0  0  0  0  0  0  0  0  0
  185.9240  178.2510  144.6240 C   0  0  0  0  0  0  0  0  0  0  0  0
  187.3660  177.6710  142.8900 C   0  0  0  0  0  3  0  0  0  0  0  0
  187.2150  178.4220  147.9920 C   0  0  0  0  0  1  0  0  0  0  0  0
  184.8090  178.6000  145.3490 C   0  0  0  0  0  0  0  0  0  0  0  0
  186.1070  178.0150  143.3030 N   0  0  0  0  0  0  0  0  0  0  0  0
  190.7230  176.3630  144.2600 C   0  0  0  0  0  2  0  0  0  0  0  0
  191.8650  177.1490  147.6480 O   0  0  0  0  0  0  0  0  0  0  0  0
  192.2800  175.1220  146.4820 C   0  0  0  0  0  1  0  0  0  0  0  0
  191.6900  176.4860  146.5920 C   0  0  0  0  0  0  0  0  0  0  0  0
  190.9250  177.0480  145.5280 N   0  0  0  0  0  2  0  0  0  0  0  0
  190.8360  177.7600  140.0720 O   0  0  0  0  0  0  0  0  0  0  0  0
  192.3980  174.4720  135.9050 C   0  0  0  0  0  1  0  0  0  0  0  0
  191.5080  174.2890  137.1170 C   0  0  1  0  0  3  0  0  0  0  0  0
  189.5170  175.5360  137.4310 C   0  0  0  0  0  0  0  0  0  0  0  0
  187.7120  177.0730  138.0910 C   0  0  0  0  0  3  0  0  0  0  0  0
  190.3750  176.1640  138.4020 C   0  0  0  0  0  0  0  0  0  0  0  0
  189.9420  177.1810  139.1590 C   0  0  0  0  0  0  0  0  0  0  0  0
  192.0130  175.4650  138.4390 S   0  0  0  0  0  0  0  0  0  0  0  0
  190.0830  174.5620  136.7420 C   0  0  0  0  0  3  0  0  0  0  0  0
  188.0190  178.6900  139.7620 O   0  0  0  0  0  1  0  0  0  0  0  0
  188.1670  175.9890  137.2630 N   0  0  0  0  0  0  0  0  0  0  0  0
  188.5270  177.6520  138.9890 C   0  0  0  0  0  0  0  0  0  0  0  0
  184.5120  175.3140  135.8940 C   0  0  1  0  0  3  0  0  0  0  0  0
  185.1150  173.9560  136.1980 C   0  0  0  0  0  2  0  0  0  0  0  0
  186.4800  176.3420  135.6340 O   0  0  0  0  0  0  0  0  0  0  0  0
  187.2600  175.3540  136.3120 C   0  0  2  0  0  3  0  0  0  0  0  0
  186.3980  174.2500  137.0250 C   0  0  0  0  0  2  0  0  0  0  0  0
  185.5910  175.5810  134.8730 C   0  0  2  0  0  3  0  0  0  0  0  0
  184.3020  176.0250  134.6850 O   0  0  0  0  0  0  0  0  0  0  0  0
  1 21  1  6  0  0  0
  1  4  1  0  0  0  0
  1  2  1  0  0  0  0
  2  3  1  0  0  0  0
  3  5  1  0  0  0  0
  3 16  1  0  0  0  0
  4  2  1  0  0  0  0
  4  3  1  0  0  0  0
  5  9  1  0  0  0  0
  6 13  1  0  0  0  0
  7 14  1  0  0  0  0
  8  6  1  0  0  0  0
  9  8  2  0  0  0  0
 10  6  1  0  0  0  0
 11 14  1  0  0  0  0
 11  8  1  0  0  0  0
 12 15  1  0  0  0  0
 12  5  2  0  0  0  0
 14 10  2  0  0  0  0
 15 11  2  0  0  0  0
 16 20  1  0  0  0  0
 18 19  1  0  0  0  0
 19 17  2  0  0  0  0
 20 19  1  0  0  0  0
 22 23  1  0  0  0  0
 23 28  1  0  0  0  0
 24 26  1  0  0  0  0
 25 32  2  0  0  0  0
 26 28  1  0  0  0  0
 26 27  2  0  0  0  0
 27 21  1  0  0  0  0
 29 23  1  0  0  0  0
 29 24  2  0  0  0  0
 31 24  1  0  0  0  0
 31 25  1  0  0  0  0
 32 27  1  0  0  0  0
 32 30  1  0  0  0  0
 33 34  1  0  0  0  0
 34 37  1  0  0  0  0
 35 36  1  0  0  0  0
 36 37  1  0  0  0  0
 36 31  1  0  0  0  0
 38 35  1  0  0  0  0
 38 33  1  0  0  0  0
 39 38  1  0  0  0  0
 39 33  1  0  0  0  0
M  END
>  <MODEL>
2

>  <REMARK>
 VINA RESULT:      -9.1      2.710      9.649
  Name = 
  6 active torsions:
  status: ('A' for Active; 'I' for Inactive)
    1  A    between atoms: C_1  and  C_15
    2  A    between atoms: C_5  and  O_32
    3  A    between atoms: C_15  and  C_22
    4  A    between atoms: C_21  and  O_32
    5  A    between atoms: C_22  and  N_36
    6  A    between atoms: C_23  and  N_38
                            x       y       z     vdW  Elec       q    Type
                         _______ _______ _______ _____ _____    ______ ____

>  <TORSDO>
F 6

$$$$
=
 OpenBabel11032420243D

 39 46  0  0  1  0  0  0  0  0999 V2000
  187.7870  178.5470  140.4980 C   0  0  1  0  0  3  0  0  0  0  0  0
  188.9420  178.6940  141.3720 C   0  0  2  0  0  3  0  0  0  0  0  0
  189.5160  177.3830  141.6420 C   0  0  2  0  0  0  0  0  0  0  0  0
  188.0560  177.5000  141.4980 N   0  0  2  0  0  0  0  0  0  0  0  0
  189.9580  177.1210  143.0540 C   0  0  0  0  0  0  0  0  0  0  0  0
  188.9520  177.3540  146.5290 N   0  0  0  0  0  0  0  0  0  0  0  0
  192.0980  176.0450  147.7200 C   0  0  0  0  0  1  0  0  0  0  0  0
  189.5810  177.1580  145.3600 C   0  0  0  0  0  0  0  0  0  0  0  0
  189.1250  177.3990  144.1080 N   0  0  0  0  0  0  0  0  0  0  0  0
  189.7640  176.9820  147.5150 N   0  0  0  0  0  0  0  0  0  0  0  0
  190.8150  176.6570  145.5890 C   0  0  0  0  0  0  0  0  0  0  0  0
  191.2610  176.6080  143.3040 C   0  0  0  0  0  3  0  0  0  0  0  0
  187.6110  177.8790  146.7220 C   0  0  0  0  0  1  0  0  0  0  0  0
  190.9260  176.5490  146.9560 C   0  0  0  0  0  0  0  0  0  0  0  0
  191.6800  176.3750  144.5870 N   0  0  0  0  0  0  0  0  0  0  0  0
  190.1590  176.6340  140.4780 C   0  0  0  0  0  2  0  0  0  0  0  0
  193.4520  177.2280  138.9910 O   0  0  0  0  0  0  0  0  0  0  0  0
  191.7570  175.8260  138.0920 C   0  0  0  0  0  1  0  0  0  0  0  0
  192.2930  176.7530  139.1290 C   0  0  0  0  0  0  0  0  0  0  0  0
  191.5220  177.1030  140.2760 N   0  0  0  0  0  2  0  0  0  0  0  0
  186.7310  179.3770  140.9550 O   0  0  0  0  0  0  0  0  0  0  0  0
  183.7510  178.3770  145.5080 C   0  0  0  0  0  1  0  0  0  0  0  0
  183.6460  179.3800  144.3770 C   0  0  1  0  0  3  0  0  0  0  0  0
  183.2870  178.7240  142.1280 C   0  0  0  0  0  0  0  0  0  0  0  0
  183.3880  178.1560  139.7360 C   0  0  0  0  0  3  0  0  0  0  0  0
  184.6750  179.1040  142.0730 C   0  0  0  0  0  0  0  0  0  0  0  0
  185.3770  179.0090  140.9350 C   0  0  0  0  0  0  0  0  0  0  0  0
  185.3090  179.6590  143.6420 S   0  0  0  0  0  0  0  0  0  0  0  0
  182.7280  178.8500  143.3180 C   0  0  0  0  0  3  0  0  0  0  0  0
  185.3590  178.4090  138.4900 O   0  0  0  0  0  1  0  0  0  0  0  0
  182.6250  178.2400  140.9520 N   0  0  0  0  0  0  0  0  0  0  0  0
  184.6840  178.5090  139.7010 C   0  0  0  0  0  0  0  0  0  0  0  0
  179.2470  177.4270  139.0500 C   0  0  1  0  0  3  0  0  0  0  0  0
  178.9430  178.5740  139.9950 C   0  0  0  0  0  2  0  0  0  0  0  0
  181.0000  176.6780  140.2180 O   0  0  0  0  0  0  0  0  0  0  0  0
  181.2110  177.8780  140.9650 C   0  0  2  0  0  3  0  0  0  0  0  0
  180.3280  179.0850  140.4830 C   0  0  0  0  0  2  0  0  0  0  0  0
  179.6100  176.5420  140.2160 C   0  0  2  0  0  3  0  0  0  0  0  0
  178.9760  176.0360  139.1050 O   0  0  0  0  0  0  0  0  0  0  0  0
  1 21  1  1  0  0  0
  1  2  1  0  0  0  0
  1  4  1  0  0  0  0
  2  4  1  0  0  0  0
  2  3  1  0  0  0  0
  3  5  1  0  0  0  0
  4  3  1  0  0  0  0
  5 12  2  0  0  0  0
  5  9  1  0  0  0  0
  6 13  1  0  0  0  0
  6 10  1  0  0  0  0
  8 11  1  0  0  0  0
  8  6  1  0  0  0  0
  9  8  2  0  0  0  0
 11 14  1  0  0  0  0
 12 15  1  0  0  0  0
 14 10  2  0  0  0  0
 14  7  1  0  0  0  0
 15 11  2  0  0  0  0
 16  3  1  0  0  0  0
 17 19  2  0  0  0  0
 18 19  1  0  0  0  0
 19 20  1  0  0  0  0
 20 16  1  0  0  0  0
 23 22  1  0  0  0  0
 24 29  2  0  0  0  0
 25 31  1  0  0  0  0
 26 24  1  0  0  0  0
 26 28  1  0  0  0  0
 27 21  1  0  0  0  0
 27 26  2  0  0  0  0
 28 23  1  0  0  0  0
 29 23  1  0  0  0  0
 30 32  1  0  0  0  0
 31 36  1  0  0  0  0
 31 24  1  0  0  0  0
 32 25  2  0  0  0  0
 32 27  1  0  0  0  0
 33 39  1  0  0  0  0
 33 34  1  0  0  0  0
 33 38  1  0  0  0  0
 34 37  1  0  0  0  0
 35 36  1  0  0  0  0
 37 36  1  0  0  0  0
 38 35  1  0  0  0  0
 39 38  1  0  0  0  0
M  END
>  <MODEL>
3

>  <REMARK>
 VINA RESULT:      -9.0      3.401      7.839
  Name = 
  6 active torsions:
  status: ('A' for Active; 'I' for Inactive)
    1  A    between atoms: C_1  and  C_15
    2  A    between atoms: C_5  and  O_32
    3  A    between atoms: C_15  and  C_22
    4  A    between atoms: C_21  and  O_32
    5  A    between atoms: C_22  and  N_36
    6  A    between atoms: C_23  and  N_38
                            x       y       z     vdW  Elec       q    Type
                         _______ _______ _______ _____ _____    ______ ____

>  <TORSDO>
F 6

$$$$
=
 OpenBabel11032420243D

 39 46  0  0  1  0  0  0  0  0999 V2000
  187.8600  178.5640  140.4100 C   0  0  1  0  0  3  0  0  0  0  0  0
  188.1850  177.4710  141.3150 C   0  0  2  0  0  3  0  0  0  0  0  0
  187.7010  177.7870  142.6520 C   0  0  2  0  0  0  0  0  0  0  0  0
  188.2070  178.8800  141.8060 N   0  0  2  0  0  0  0  0  0  0  0  0
  188.6130  177.4440  143.7950 C   0  0  0  0  0  0  0  0  0  0  0  0
  189.0590  177.7530  147.3800 N   0  0  0  0  0  0  0  0  0  0  0  0
  192.2200  176.0110  147.3230 C   0  0  0  0  0  1  0  0  0  0  0  0
  189.1590  177.4930  146.0670 C   0  0  0  0  0  0  0  0  0  0  0  0
  188.2930  177.8150  145.0770 N   0  0  0  0  0  0  0  0  0  0  0  0
  190.1310  177.2580  147.9930 N   0  0  0  0  0  0  0  0  0  0  0  0
  190.3090  176.8260  145.8250 C   0  0  0  0  0  0  0  0  0  0  0  0
  189.8330  176.7550  143.5470 C   0  0  0  0  0  3  0  0  0  0  0  0
  187.9770  178.4520  148.0520 C   0  0  0  0  0  1  0  0  0  0  0  0
  190.9210  176.6810  147.0480 C   0  0  0  0  0  0  0  0  0  0  0  0
  190.6780  176.4470  144.5790 N   0  0  0  0  0  0  0  0  0  0  0  0
  186.1910  177.8630  142.8630 C   0  0  0  0  0  2  0  0  0  0  0  0
  184.4200  179.0070  145.8550 O   0  0  0  0  0  0  0  0  0  0  0  0
  183.5260  178.9420  143.6550 C   0  0  0  0  0  1  0  0  0  0  0  0
  184.6230  178.7360  144.6420 C   0  0  0  0  0  0  0  0  0  0  0  0
  185.8990  178.2440  144.2360 N   0  0  0  0  0  2  0  0  0  0  0  0
  188.9710  178.8410  139.5720 O   0  0  0  0  0  0  0  0  0  0  0  0
  186.5450  176.6360  135.1150 C   0  0  0  0  0  1  0  0  0  0  0  0
  187.7940  177.4650  135.3360 C   0  0  1  0  0  3  0  0  0  0  0  0
  189.6180  176.6910  136.6360 C   0  0  0  0  0  0  0  0  0  0  0  0
  191.3450  176.2050  138.3200 C   0  0  0  0  0  3  0  0  0  0  0  0
  189.0520  177.6660  137.5320 C   0  0  0  0  0  0  0  0  0  0  0  0
  189.5840  177.8910  138.7410 C   0  0  0  0  0  0  0  0  0  0  0  0
  187.6080  178.4690  136.8660 S   0  0  0  0  0  0  0  0  0  0  0  0
  188.9780  176.5600  135.4880 C   0  0  0  0  0  3  0  0  0  0  0  0
  191.4060  177.3220  140.3820 O   0  0  0  0  0  1  0  0  0  0  0  0
  190.7780  175.9430  137.0250 N   0  0  0  0  0  0  0  0  0  0  0  0
  190.8020  177.1140  139.1470 C   0  0  0  0  0  0  0  0  0  0  0  0
  193.6170  173.3010  136.2200 C   0  0  1  0  0  3  0  0  0  0  0  0
  193.6560  174.3280  135.1040 C   0  0  0  0  0  2  0  0  0  0  0  0
  191.4850  173.6950  136.7660 O   0  0  0  0  0  0  0  0  0  0  0  0
  191.3960  174.9720  136.1280 C   0  0  2  0  0  3  0  0  0  0  0  0
  192.7750  175.5090  135.5990 C   0  0  0  0  0  2  0  0  0  0  0  0
  192.2040  172.9280  135.8470 C   0  0  2  0  0  3  0  0  0  0  0  0
  193.0970  171.9840  136.2980 O   0  0  0  0  0  0  0  0  0  0  0  0
  1 21  1  6  0  0  0
  1  2  1  0  0  0  0
  1  4  1  0  0  0  0
  2  4  1  0  0  0  0
  2  3  1  0  0  0  0
  3 16  1  0  0  0  0
  3  5  1  0  0  0  0
  4  3  1  0  0  0  0
  5  9  1  0  0  0  0
  6 10  1  0  0  0  0
  6 13  1  0  0  0  0
  8  6  1  0  0  0  0
  9  8  2  0  0  0  0
 11  8  1  0  0  0  0
 11 14  1  0  0  0  0
 12  5  2  0  0  0  0
 12 15  1  0  0  0  0
 14  7  1  0  0  0  0
 14 10  2  0  0  0  0
 15 11  2  0  0  0  0
 16 20  1  0  0  0  0
 18 19  1  0  0  0  0
 19 17  2  0  0  0  0
 20 19  1  0  0  0  0
 22 23  1  0  0  0  0
 23 29  1  0  0  0  0
 23 28  1  0  0  0  0
 24 31  1  0  0  0  0
 24 26  1  0  0  0  0
 25 32  2  0  0  0  0
 26 27  2  0  0  0  0
 27 32  1  0  0  0  0
 27 21  1  0  0  0  0
 28 26  1  0  0  0  0
 29 24  2  0  0  0  0
 31 25  1  0  0  0  0
 32 30  1  0  0  0  0
 33 39  1  0  0  0  0
 34 37  1  0  0  0  0
 34 33  1  0  0  0  0
 36 35  1  0  0  0  0
 36 31  1  0  0  0  0
 37 36  1  0  0  0  0
 38 33  1  0  0  0  0
 38 39  1  0  0  0  0
 38 35  1  0  0  0  0
M  END
>  <MODEL>
4

>  <REMARK>
 VINA RESULT:      -8.9      2.486      8.871
  Name = 
  6 active torsions:
  status: ('A' for Active; 'I' for Inactive)
    1  A    between atoms: C_1  and  C_15
    2  A    between atoms: C_5  and  O_32
    3  A    between atoms: C_15  and  C_22
    4  A    between atoms: C_21  and  O_32
    5  A    between atoms: C_22  and  N_36
    6  A    between atoms: C_23  and  N_38
                            x       y       z     vdW  Elec       q    Type
                         _______ _______ _______ _____ _____    ______ ____

>  <TORSDO>
F 6

$$$$
=
 OpenBabel11032420243D

 39 46  0  0  1  0  0  0  0  0999 V2000
  188.9050  178.2280  139.1240 C   0  0  1  0  0  3  0  0  0  0  0  0
  188.1480  177.0340  138.7730 C   0  0  2  0  0  3  0  0  0  0  0  0
  188.0100  176.9550  137.3250 C   0  0  2  0  0  0  0  0  0  0  0  0
  187.9950  178.2800  137.9660 N   0  0  2  0  0  0  0  0  0  0  0  0
  186.6680  176.5290  136.8000 C   0  0  0  0  0  0  0  0  0  0  0  0
  184.2520  173.8270  136.7880 N   0  0  0  0  0  0  0  0  0  0  0  0
  181.9890  175.6130  134.6150 C   0  0  0  0  0  1  0  0  0  0  0  0
  184.9440  174.9630  136.6130 C   0  0  0  0  0  0  0  0  0  0  0  0
  186.1510  175.3010  137.1260 N   0  0  0  0  0  0  0  0  0  0  0  0
  183.1140  173.9130  136.1030 N   0  0  0  0  0  0  0  0  0  0  0  0
  184.2510  175.7940  135.8030 C   0  0  0  0  0  0  0  0  0  0  0  0
  185.9390  177.3930  135.9360 C   0  0  0  0  0  3  0  0  0  0  0  0
  184.6460  172.6770  137.5840 C   0  0  0  0  0  1  0  0  0  0  0  0
  183.0930  175.1240  135.4830 C   0  0  0  0  0  0  0  0  0  0  0  0
  184.7200  177.0120  135.4430 N   0  0  0  0  0  0  0  0  0  0  0  0
  189.2730  176.7190  136.5010 C   0  0  0  0  0  2  0  0  0  0  0  0
  191.0880  173.7370  137.6030 O   0  0  0  0  0  0  0  0  0  0  0  0
  191.5770  175.9720  138.2430 C   0  0  0  0  0  1  0  0  0  0  0  0
  190.7880  174.9550  137.4910 C   0  0  0  0  0  0  0  0  0  0  0  0
  189.7080  175.3380  136.6420 N   0  0  0  0  0  2  0  0  0  0  0  0
  188.2960  178.8730  140.2320 O   0  0  0  0  0  0  0  0  0  0  0  0
  184.3160  179.5810  144.0090 C   0  0  0  0  0  1  0  0  0  0  0  0
  184.9780  178.3680  143.3880 C   0  0  1  0  0  3  0  0  0  0  0  0
  187.2870  177.9060  143.6530 C   0  0  0  0  0  0  0  0  0  0  0  0
  189.7190  177.5780  143.4650 C   0  0  0  0  0  3  0  0  0  0  0  0
  187.2640  178.3490  142.2830 C   0  0  0  0  0  0  0  0  0  0  0  0
  188.3870  178.4140  141.5540 C   0  0  0  0  0  0  0  0  0  0  0  0
  185.6350  178.8040  141.7260 S   0  0  0  0  0  0  0  0  0  0  0  0
  186.1120  177.9140  144.2560 C   0  0  0  0  0  3  0  0  0  0  0  0
  190.8730  178.0270  141.4730 O   0  0  0  0  0  1  0  0  0  0  0  0
  188.5250  177.5160  144.2640 N   0  0  0  0  0  0  0  0  0  0  0  0
  189.6820  177.9980  142.1890 C   0  0  0  0  0  0  0  0  0  0  0  0
  189.4100  178.0550  148.0870 C   0  0  1  0  0  3  0  0  0  0  0  0
  190.1660  176.8180  147.6410 C   0  0  0  0  0  2  0  0  0  0  0  0
  187.8410  177.9010  146.5010 O   0  0  0  0  0  0  0  0  0  0  0  0
  188.5790  177.0310  145.6390 C   0  0  2  0  0  3  0  0  0  0  0  0
  190.0690  176.8120  146.0890 C   0  0  0  0  0  2  0  0  0  0  0  0
  188.0960  177.3830  147.7730 C   0  0  2  0  0  3  0  0  0  0  0  0
  188.2240  178.2370  148.8440 O   0  0  0  0  0  0  0  0  0  0  0  0
  1 21  1  1  0  0  0
  2  1  1  0  0  0  0
  3  4  1  0  0  0  0
  3  2  1  0  0  0  0
  4  2  1  0  0  0  0
  4  1  1  0  0  0  0
  5  9  1  0  0  0  0
  5  3  1  0  0  0  0
  6 13  1  0  0  0  0
  7 14  1  0  0  0  0
  8  6  1  0  0  0  0
  8  9  2  0  0  0  0
 10  6  1  0  0  0  0
 11  8  1  0  0  0  0
 12  5  2  0  0  0  0
 14 11  1  0  0  0  0
 14 10  2  0  0  0  0
 15 11  2  0  0  0  0
 15 12  1  0  0  0  0
 16 20  1  0  0  0  0
 16  3  1  0  0  0  0
 19 17  2  0  0  0  0
 19 18  1  0  0  0  0
 20 19  1  0  0  0  0
 21 27  1  0  0  0  0
 23 22  1  0  0  0  0
 23 29  1  0  0  0  0
 24 29  2  0  0  0  0
 24 31  1  0  0  0  0
 25 31  1  0  0  0  0
 26 24  1  0  0  0  0
 27 32  1  0  0  0  0
 27 26  2  0  0  0  0
 28 26  1  0  0  0  0
 28 23  1  0  0  0  0
 30 32  1  0  0  0  0
 31 36  1  0  0  0  0
 32 25  2  0  0  0  0
 33 39  1  0  0  0  0
 34 33  1  0  0  0  0
 35 38  1  0  0  0  0
 36 37  1  0  0  0  0
 36 35  1  0  0  0  0
 37 34  1  0  0  0  0
 38 33  1  0  0  0  0
 38 39  1  0  0  0  0
M  END
>  <MODEL>
5

>  <REMARK>
 VINA RESULT:      -8.9      1.853      4.892
  Name = 
  6 active torsions:
  status: ('A' for Active; 'I' for Inactive)
    1  A    between atoms: C_1  and  C_15
    2  A    between atoms: C_5  and  O_32
    3  A    between atoms: C_15  and  C_22
    4  A    between atoms: C_21  and  O_32
    5  A    between atoms: C_22  and  N_36
    6  A    between atoms: C_23  and  N_38
                            x       y       z     vdW  Elec       q    Type
                         _______ _______ _______ _____ _____    ______ ____

>  <TORSDO>
F 6

$$$$
=
 OpenBabel11032420243D

 39 46  0  0  1  0  0  0  0  0999 V2000
  191.3070  177.2060  141.9740 C   0  0  1  0  0  3  0  0  0  0  0  0
  190.5210  178.0080  142.9000 C   0  0  2  0  0  3  0  0  0  0  0  0
  189.7430  177.1310  143.7640 C   0  0  2  0  0  0  0  0  0  0  0  0
  189.9700  176.7290  142.3660 N   0  0  2  0  0  0  0  0  0  0  0  0
  188.3270  177.5470  144.0440 C   0  0  0  0  0  0  0  0  0  0  0  0
  186.0460  178.5950  146.6590 N   0  0  0  0  0  0  0  0  0  0  0  0
  183.2570  178.8480  144.3810 C   0  0  0  0  0  1  0  0  0  0  0  0
  186.6460  178.2350  145.5150 C   0  0  0  0  0  0  0  0  0  0  0  0
  187.9380  177.8830  145.3160 N   0  0  0  0  0  0  0  0  0  0  0  0
  184.7670  178.8610  146.4030 N   0  0  0  0  0  0  0  0  0  0  0  0
  185.7480  178.2640  144.5050 C   0  0  0  0  0  0  0  0  0  0  0  0
  187.3720  177.5650  142.9900 C   0  0  0  0  0  3  0  0  0  0  0  0
  186.6570  178.6910  147.9740 C   0  0  0  0  0  1  0  0  0  0  0  0
  184.5600  178.6600  145.0740 C   0  0  0  0  0  0  0  0  0  0  0  0
  186.0760  177.9320  143.2340 N   0  0  0  0  0  0  0  0  0  0  0  0
  190.5020  176.2530  144.7550 C   0  0  0  0  0  2  0  0  0  0  0  0
  191.8010  177.2300  148.0350 O   0  0  0  0  0  0  0  0  0  0  0  0
  192.3950  175.2650  146.8390 C   0  0  0  0  0  1  0  0  0  0  0  0
  191.6320  176.5360  146.9980 C   0  0  0  0  0  0  0  0  0  0  0  0
  190.7110  176.9750  146.0010 N   0  0  0  0  0  2  0  0  0  0  0  0
  191.2440  177.7720  140.6750 O   0  0  0  0  0  0  0  0  0  0  0  0
  187.8890  175.1210  137.1640 C   0  0  0  0  0  1  0  0  0  0  0  0
  188.8260  176.3050  137.0380 C   0  0  1  0  0  3  0  0  0  0  0  0
  191.1650  176.1130  137.3730 C   0  0  0  0  0  0  0  0  0  0  0  0
  193.5010  176.1410  138.1450 C   0  0  0  0  0  3  0  0  0  0  0  0
  190.7820  176.7980  138.5810 C   0  0  0  0  0  0  0  0  0  0  0  0
  191.6880  177.1240  139.5130 C   0  0  0  0  0  0  0  0  0  0  0  0
  189.0310  177.1100  138.6790 S   0  0  0  0  0  0  0  0  0  0  0  0
  190.1650  175.8370  136.5550 C   0  0  0  0  0  3  0  0  0  0  0  0
  194.1110  177.1070  140.1940 O   0  0  0  0  0  1  0  0  0  0  0  0
  192.5380  175.7730  137.1420 N   0  0  0  0  0  0  0  0  0  0  0  0
  193.1270  176.7740  139.2690 C   0  0  0  0  0  0  0  0  0  0  0  0
  194.8000  173.1290  135.2490 C   0  0  1  0  0  3  0  0  0  0  0  0
  195.0680  174.4710  134.5940 C   0  0  0  0  0  2  0  0  0  0  0  0
  192.7810  173.6960  136.0250 O   0  0  0  0  0  0  0  0  0  0  0  0
  192.9650  175.1090  135.9140 C   0  0  2  0  0  3  0  0  0  0  0  0
  194.4340  175.5270  135.5440 C   0  0  0  0  0  2  0  0  0  0  0  0
  193.3480  173.2060  134.8470 C   0  0  2  0  0  3  0  0  0  0  0  0
  194.0240  172.0080  134.8620 O   0  0  0  0  0  0  0  0  0  0  0  0
  1 21  1  6  0  0  0
  1  4  1  0  0  0  0
  1  2  1  0  0  0  0
  2  3  1  0  0  0  0
  3  5  1  0  0  0  0
  3 16  1  0  0  0  0
  4  2  1  0  0  0  0
  4  3  1  0  0  0  0
  5  9  1  0  0  0  0
  6 13  1  0  0  0  0
  7 14  1  0  0  0  0
  8  6  1  0  0  0  0
  9  8  2  0  0  0  0
 10  6  1  0  0  0  0
 11 14  1  0  0  0  0
 11  8  1  0  0  0  0
 12 15  1  0  0  0  0
 12  5  2  0  0  0  0
 14 10  2  0  0  0  0
 15 11  2  0  0  0  0
 16 20  1  0  0  0  0
 18 19  1  0  0  0  0
 19 17  2  0  0  0  0
 20 19  1  0  0  0  0
 23 22  1  0  0  0  0
 23 28  1  0  0  0  0
 24 26  1  0  0  0  0
 25 32  2  0  0  0  0
 26 28  1  0  0  0  0
 26 27  2  0  0  0  0
 27 21  1  0  0  0  0
 29 23  1  0  0  0  0
 29 24  2  0  0  0  0
 31 24  1  0  0  0  0
 31 25  1  0  0  0  0
 32 27  1  0  0  0  0
 32 30  1  0  0  0  0
 34 33  1  0  0  0  0
 34 37  1  0  0  0  0
 36 35  1  0  0  0  0
 36 31  1  0  0  0  0
 37 36  1  0  0  0  0
 38 39  1  0  0  0  0
 38 33  1  0  0  0  0
 38 35  1  0  0  0  0
 39 33  1  0  0  0  0
M  END
>  <MODEL>
6

>  <REMARK>
 VINA RESULT:      -8.9      2.776      9.999
  Name = 
  6 active torsions:
  status: ('A' for Active; 'I' for Inactive)
    1  A    between atoms: C_1  and  C_15
    2  A    between atoms: C_5  and  O_32
    3  A    between atoms: C_15  and  C_22
    4  A    between atoms: C_21  and  O_32
    5  A    between atoms: C_22  and  N_36
    6  A    between atoms: C_23  and  N_38
                            x       y       z     vdW  Elec       q    Type
                         _______ _______ _______ _____ _____    ______ ____

>  <TORSDO>
F 6

$$$$
=
 OpenBabel11032420243D

 39 46  0  0  1  0  0  0  0  0999 V2000
  184.1950  179.1750  139.9280 C   0  0  1  0  0  3  0  0  0  0  0  0
  184.6400  178.8830  138.5720 C   0  0  2  0  0  3  0  0  0  0  0  0
  184.1480  177.5720  138.1710 C   0  0  2  0  0  0  0  0  0  0  0  0
  184.5330  177.7850  139.5760 N   0  0  2  0  0  0  0  0  0  0  0  0
  185.1080  176.6980  137.4150 C   0  0  0  0  0  0  0  0  0  0  0  0
  188.3530  176.6240  135.8010 N   0  0  0  0  0  0  0  0  0  0  0  0
  187.9720  173.1830  134.7790 C   0  0  0  0  0  1  0  0  0  0  0  0
  187.1380  176.3630  136.3060 C   0  0  0  0  0  0  0  0  0  0  0  0
  186.3190  177.1910  136.9980 N   0  0  0  0  0  0  0  0  0  0  0  0
  188.8050  175.5280  135.1960 N   0  0  0  0  0  0  0  0  0  0  0  0
  186.7950  175.0870  136.0240 C   0  0  0  0  0  0  0  0  0  0  0  0
  184.7490  175.3580  137.1010 C   0  0  0  0  0  3  0  0  0  0  0  0
  189.0830  177.8780  135.8820 C   0  0  0  0  0  1  0  0  0  0  0  0
  187.8550  174.5630  135.3200 C   0  0  0  0  0  0  0  0  0  0  0  0
  185.6090  174.5550  136.4020 N   0  0  0  0  0  0  0  0  0  0  0  0
  182.6420  177.3990  137.9980 C   0  0  0  0  0  2  0  0  0  0  0  0
  181.1360  179.4000  135.3280 O   0  0  0  0  0  0  0  0  0  0  0  0
  180.8800  179.7820  137.6590 C   0  0  0  0  0  1  0  0  0  0  0  0
  181.4170  179.0200  136.4950 C   0  0  0  0  0  0  0  0  0  0  0  0
  182.2350  177.8670  136.6820 N   0  0  0  0  0  2  0  0  0  0  0  0
  185.2610  179.7470  140.6700 O   0  0  0  0  0  0  0  0  0  0  0  0
  184.9480  179.0220  146.1460 C   0  0  0  0  0  1  0  0  0  0  0  0
  184.9280  178.0870  144.9540 C   0  0  1  0  0  3  0  0  0  0  0  0
  186.7690  177.8740  143.4770 C   0  0  0  0  0  0  0  0  0  0  0  0
  188.4010  177.9130  141.6360 C   0  0  0  0  0  3  0  0  0  0  0  0
  185.8560  178.6230  142.6520 C   0  0  0  0  0  0  0  0  0  0  0  0
  186.1900  179.0020  141.4120 C   0  0  0  0  0  0  0  0  0  0  0  0
  184.3160  178.9860  143.4710 S   0  0  0  0  0  0  0  0  0  0  0  0
  186.3140  177.5880  144.6840 C   0  0  0  0  0  3  0  0  0  0  0  0
  187.9310  178.9660  139.5930 O   0  0  0  0  0  1  0  0  0  0  0  0
  188.0610  177.5100  142.9740 N   0  0  0  0  0  0  0  0  0  0  0  0
  187.5400  178.6160  140.8810 C   0  0  0  0  0  0  0  0  0  0  0  0
  191.6810  176.9200  144.4710 C   0  0  1  0  0  3  0  0  0  0  0  0
  191.3340  175.6740  143.6800 C   0  0  0  0  0  2  0  0  0  0  0  0
  189.5550  177.5240  144.8150 O   0  0  0  0  0  0  0  0  0  0  0  0
  188.9970  176.7230  143.7700 C   0  0  2  0  0  3  0  0  0  0  0  0
  190.0760  176.0500  142.8470 C   0  0  0  0  0  2  0  0  0  0  0  0
  190.5080  176.6800  145.3900 C   0  0  2  0  0  3  0  0  0  0  0  0
  191.6890  177.2070  145.8600 O   0  0  0  0  0  0  0  0  0  0  0  0
  1 21  1  1  0  0  0
  2  4  1  0  0  0  0
  2  1  1  0  0  0  0
  3  2  1  0  0  0  0
  3  4  1  0  0  0  0
  4  1  1  0  0  0  0
  5  3  1  0  0  0  0
  6 13  1  0  0  0  0
  6  8  1  0  0  0  0
  7 14  1  0  0  0  0
  8  9  1  0  0  0  0
  9  5  2  0  0  0  0
 10 14  2  0  0  0  0
 10  6  1  0  0  0  0
 11  8  2  0  0  0  0
 11 15  1  0  0  0  0
 12  5  1  0  0  0  0
 14 11  1  0  0  0  0
 15 12  2  0  0  0  0
 16  3  1  0  0  0  0
 17 19  2  0  0  0  0
 19 20  1  0  0  0  0
 19 18  1  0  0  0  0
 20 16  1  0  0  0  0
 21 27  1  0  0  0  0
 23 22  1  0  0  0  0
 24 29  2  0  0  0  0
 25 31  1  0  0  0  0
 26 28  1  0  0  0  0
 26 24  1  0  0  0  0
 27 26  2  0  0  0  0
 28 23  1  0  0  0  0
 29 23  1  0  0  0  0
 30 32  1  0  0  0  0
 31 24  1  0  0  0  0
 31 36  1  0  0  0  0
 32 27  1  0  0  0  0
 32 25  2  0  0  0  0
 33 38  1  0  0  0  0
 33 39  1  0  0  0  0
 34 33  1  0  0  0  0
 35 38  1  0  0  0  0
 36 35  1  0  0  0  0
 37 34  1  0  0  0  0
 37 36  1  0  0  0  0
 38 39  1  0  0  0  0
M  END
>  <MODEL>
7

>  <REMARK>
 VINA RESULT:      -8.9      3.001      4.414
  Name = 
  6 active torsions:
  status: ('A' for Active; 'I' for Inactive)
    1  A    between atoms: C_1  and  C_15
    2  A    between atoms: C_5  and  O_32
    3  A    between atoms: C_15  and  C_22
    4  A    between atoms: C_21  and  O_32
    5  A    between atoms: C_22  and  N_36
    6  A    between atoms: C_23  and  N_38
                            x       y       z     vdW  Elec       q    Type
                         _______ _______ _______ _____ _____    ______ ____

>  <TORSDO>
F 6

$$$$
=
 OpenBabel11032420243D

 39 46  0  0  1  0  0  0  0  0999 V2000
  189.3570  177.2240  138.7350 C   0  0  1  0  0  3  0  0  0  0  0  0
  190.5830  177.1410  137.9540 C   0  0  2  0  0  3  0  0  0  0  0  0
  190.8340  175.7540  137.5900 C   0  0  2  0  0  0  0  0  0  0  0  0
  190.2220  176.0430  138.8970 N   0  0  2  0  0  0  0  0  0  0  0  0
  192.2570  175.2810  137.6880 C   0  0  0  0  0  0  0  0  0  0  0  0
  194.4800  172.5150  136.9470 N   0  0  0  0  0  0  0  0  0  0  0  0
  197.3400  174.1890  138.3780 C   0  0  0  0  0  1  0  0  0  0  0  0
  193.9080  173.6640  137.3350 C   0  0  0  0  0  0  0  0  0  0  0  0
  192.6150  174.0460  137.2070 N   0  0  0  0  0  0  0  0  0  0  0  0
  195.7720  172.5550  137.2660 N   0  0  0  0  0  0  0  0  0  0  0  0
  194.8360  174.4580  137.9150 C   0  0  0  0  0  0  0  0  0  0  0  0
  193.2360  176.1040  138.3100 C   0  0  0  0  0  3  0  0  0  0  0  0
  193.8320  171.3950  136.2870 C   0  0  0  0  0  1  0  0  0  0  0  0
  196.0140  173.7500  137.8680 C   0  0  0  0  0  0  0  0  0  0  0  0
  194.5330  175.6790  138.4150 N   0  0  0  0  0  0  0  0  0  0  0  0
  189.8610  175.0830  136.6250 C   0  0  0  0  0  2  0  0  0  0  0  0
  187.8760  172.0760  137.2700 O   0  0  0  0  0  0  0  0  0  0  0  0
  187.2420  173.8780  135.8580 C   0  0  0  0  0  1  0  0  0  0  0  0
  188.1820  173.2010  136.7960 C   0  0  0  0  0  0  0  0  0  0  0  0
  189.4170  173.8090  137.1700 N   0  0  0  0  0  2  0  0  0  0  0  0
  189.5460  178.1030  139.8330 O   0  0  0  0  0  0  0  0  0  0  0  0
  191.7870  175.3400  144.0710 C   0  0  0  0  0  1  0  0  0  0  0  0
  191.3430  176.7730  143.8620 C   0  0  1  0  0  3  0  0  0  0  0  0
  189.0870  177.3520  143.4230 C   0  0  0  0  0  0  0  0  0  0  0  0
  186.9040  178.0250  142.5100 C   0  0  0  0  0  3  0  0  0  0  0  0
  189.6670  177.5510  142.1200 C   0  0  0  0  0  0  0  0  0  0  0  0
  188.9220  177.9480  141.0800 C   0  0  0  0  0  0  0  0  0  0  0  0
  191.4100  177.1870  142.0710 S   0  0  0  0  0  0  0  0  0  0  0  0
  189.9360  176.9400  144.3480 C   0  0  0  0  0  3  0  0  0  0  0  0
  186.6430  178.6320  140.2590 O   0  0  0  0  0  1  0  0  0  0  0  0
  187.6880  177.5860  143.6320 N   0  0  0  0  0  0  0  0  0  0  0  0
  187.4580  178.2000  141.2990 C   0  0  0  0  0  0  0  0  0  0  0  0
  186.0150  179.1270  146.8750 C   0  0  1  0  0  3  0  0  0  0  0  0
  187.2010  178.3090  147.3500 C   0  0  0  0  0  2  0  0  0  0  0  0
  185.7670  178.0060  144.9570 O   0  0  0  0  0  0  0  0  0  0  0  0
  187.0750  177.4280  144.9470 C   0  0  2  0  0  3  0  0  0  0  0  0
  188.0210  177.9880  146.0690 C   0  0  0  0  0  2  0  0  0  0  0  0
  185.3770  177.8910  146.2930 C   0  0  2  0  0  3  0  0  0  0  0  0
  184.6180  178.8840  146.8690 O   0  0  0  0  0  0  0  0  0  0  0  0
  1  4  1  0  0  0  0
  1 21  1  1  0  0  0
  2  1  1  0  0  0  0
  2  4  1  0  0  0  0
  3  5  1  0  0  0  0
  3  2  1  0  0  0  0
  3  4  1  0  0  0  0
  5 12  1  0  0  0  0
  6 10  1  0  0  0  0
  6  8  1  0  0  0  0
  8 11  2  0  0  0  0
  9  8  1  0  0  0  0
  9  5  2  0  0  0  0
 10 14  2  0  0  0  0
 11 15  1  0  0  0  0
 12 15  2  0  0  0  0
 13  6  1  0  0  0  0
 14 11  1  0  0  0  0
 14  7  1  0  0  0  0
 16 20  1  0  0  0  0
 16  3  1  0  0  0  0
 18 19  1  0  0  0  0
 19 20  1  0  0  0  0
 19 17  2  0  0  0  0
 21 27  1  0  0  0  0
 23 22  1  0  0  0  0
 23 29  1  0  0  0  0
 24 31  1  0  0  0  0
 24 29  2  0  0  0  0
 25 31  1  0  0  0  0
 26 24  1  0  0  0  0
 27 32  1  0  0  0  0
 27 26  2  0  0  0  0
 28 26  1  0  0  0  0
 28 23  1  0  0  0  0
 30 32  1  0  0  0  0
 31 36  1  0  0  0  0
 32 25  2  0  0  0  0
 33 34  1  0  0  0  0
 35 38  1  0  0  0  0
 36 35  1  0  0  0  0
 36 37  1  0  0  0  0
 37 34  1  0  0  0  0
 38 39  1  0  0  0  0
 38 33  1  0  0  0  0
 39 33  1  0  0  0  0
M  END
>  <MODEL>
8

>  <REMARK>
 VINA RESULT:      -8.9      2.426      3.703
  Name = 
  6 active torsions:
  status: ('A' for Active; 'I' for Inactive)
    1  A    between atoms: C_1  and  C_15
    2  A    between atoms: C_5  and  O_32
    3  A    between atoms: C_15  and  C_22
    4  A    between atoms: C_21  and  O_32
    5  A    between atoms: C_22  and  N_36
    6  A    between atoms: C_23  and  N_38
                            x       y       z     vdW  Elec       q    Type
                         _______ _______ _______ _____ _____    ______ ____

>  <TORSDO>
F 6

$$$$
=
 OpenBabel11032420243D

 39 46  0  0  1  0  0  0  0  0999 V2000
  184.4180  178.9870  140.9790 C   0  0  1  0  0  3  0  0  0  0  0  0
  184.9630  178.0370  141.9390 C   0  0  2  0  0  3  0  0  0  0  0  0
  184.4240  178.3210  143.2620 C   0  0  2  0  0  0  0  0  0  0  0  0
  184.6950  179.4450  142.3510 N   0  0  2  0  0  0  0  0  0  0  0  0
  185.3880  178.2380  144.4120 C   0  0  0  0  0  0  0  0  0  0  0  0
  188.7630  177.2950  145.3400 N   0  0  0  0  0  0  0  0  0  0  0  0
  188.2390  178.1290  148.8130 C   0  0  0  0  0  1  0  0  0  0  0  0
  187.4880  177.7100  145.2910 C   0  0  0  0  0  0  0  0  0  0  0  0
  186.6670  177.7790  144.2170 N   0  0  0  0  0  0  0  0  0  0  0  0
  189.1930  177.3920  146.5960 N   0  0  0  0  0  0  0  0  0  0  0  0
  187.0840  178.0780  146.5270 C   0  0  0  0  0  0  0  0  0  0  0  0
  184.9670  178.6090  145.7180 C   0  0  0  0  0  3  0  0  0  0  0  0
  189.5700  176.8140  144.2310 C   0  0  0  0  0  1  0  0  0  0  0  0
  188.1680  177.8740  147.3490 C   0  0  0  0  0  0  0  0  0  0  0  0
  185.8320  178.5270  146.7760 N   0  0  0  0  0  0  0  0  0  0  0  0
  182.9320  178.0970  143.4870 C   0  0  0  0  0  2  0  0  0  0  0  0
  180.3780  180.6810  143.0340 O   0  0  0  0  0  0  0  0  0  0  0  0
  180.2630  178.4580  142.2030 C   0  0  0  0  0  1  0  0  0  0  0  0
  180.9470  179.5620  142.9350 C   0  0  0  0  0  0  0  0  0  0  0  0
  182.2360  179.3740  143.5170 N   0  0  0  0  0  2  0  0  0  0  0  0
  185.4490  179.4380  140.1140 O   0  0  0  0  0  0  0  0  0  0  0  0
  183.8890  175.7400  136.3060 C   0  0  0  0  0  1  0  0  0  0  0  0
  184.8030  176.9490  136.2910 C   0  0  1  0  0  3  0  0  0  0  0  0
  186.7710  177.0680  137.6050 C   0  0  0  0  0  0  0  0  0  0  0  0
  188.5530  177.4990  139.2460 C   0  0  0  0  0  3  0  0  0  0  0  0
  185.9160  177.9700  138.3320 C   0  0  0  0  0  0  0  0  0  0  0  0
  186.3400  178.5870  139.4430 C   0  0  0  0  0  0  0  0  0  0  0  0
  184.2940  178.1240  137.6120 S   0  0  0  0  0  0  0  0  0  0  0  0
  186.2150  176.5150  136.5420 C   0  0  0  0  0  3  0  0  0  0  0  0
  188.2390  178.9630  141.0520 O   0  0  0  0  0  1  0  0  0  0  0  0
  188.1080  176.8190  138.0600 N   0  0  0  0  0  0  0  0  0  0  0  0
  187.7420  178.3340  139.9170 C   0  0  0  0  0  0  0  0  0  0  0  0
  191.7660  175.5810  137.1780 C   0  0  1  0  0  3  0  0  0  0  0  0
  191.1160  175.9720  135.8640 C   0  0  0  0  0  2  0  0  0  0  0  0
  189.8350  175.2050  138.2410 O   0  0  0  0  0  0  0  0  0  0  0  0
  189.0130  175.9380  137.3290 C   0  0  2  0  0  3  0  0  0  0  0  0
  189.8270  176.7480  136.2570 C   0  0  0  0  0  2  0  0  0  0  0  0
  190.7150  174.5210  137.3990 C   0  0  2  0  0  3  0  0  0  0  0  0
  192.0200  174.3270  137.7900 O   0  0  0  0  0  0  0  0  0  0  0  0
  1 21  1  6  0  0  0
  1  2  1  0  0  0  0
  1  4  1  0  0  0  0
  2  4  1  0  0  0  0
  2  3  1  0  0  0  0
  3 16  1  0  0  0  0
  3  5  1  0  0  0  0
  4  3  1  0  0  0  0
  5 12  1  0  0  0  0
  6 10  1  0  0  0  0
  8  6  1  0  0  0  0
  8 11  2  0  0  0  0
  9  5  2  0  0  0  0
  9  8  1  0  0  0  0
 10 14  2  0  0  0  0
 11 15  1  0  0  0  0
 11 14  1  0  0  0  0
 12 15  2  0  0  0  0
 13  6  1  0  0  0  0
 14  7  1  0  0  0  0
 16 20  1  0  0  0  0
 18 19  1  0  0  0  0
 19 17  2  0  0  0  0
 19 20  1  0  0  0  0
 23 22  1  0  0  0  0
 23 29  1  0  0  0  0
 23 28  1  0  0  0  0
 24 31  1  0  0  0  0
 24 26  1  0  0  0  0
 25 32  2  0  0  0  0
 26 27  2  0  0  0  0
 27 32  1  0  0  0  0
 27 21  1  0  0  0  0
 28 26  1  0  0  0  0
 29 24  2  0  0  0  0
 31 25  1  0  0  0  0
 32 30  1  0  0  0  0
 33 38  1  0  0  0  0
 33 39  1  0  0  0  0
 34 37  1  0  0  0  0
 34 33  1  0  0  0  0
 36 31  1  0  0  0  0
 36 35  1  0  0  0  0
 37 36  1  0  0  0  0
 38 39  1  0  0  0  0
 38 35  1  0  0  0  0
M  END
>  <MODEL>
9

>  <REMARK>
 VINA RESULT:      -8.7      2.813      8.702
  Name = 
  6 active torsions:
  status: ('A' for Active; 'I' for Inactive)
    1  A    between atoms: C_1  and  C_15
    2  A    between atoms: C_5  and  O_32
    3  A    between atoms: C_15  and  C_22
    4  A    between atoms: C_21  and  O_32
    5  A    between atoms: C_22  and  N_36
    6  A    between atoms: C_23  and  N_38
                            x       y       z     vdW  Elec       q    Type
                         _______ _______ _______ _____ _____    ______ ____

>  <TORSDO>
F 6

$$$$
