=
 OpenBabel11042412213D

 44 48  0  0  1  0  0  0  0  0999 V2000
  183.4940  179.9520  143.5840 C   0  0  0  0  0  2  0  0  0  0  0  0
  180.5130  179.0190  138.9750 C   0  0  0  0  0  3  0  0  0  0  0  0
  184.9720  179.5570  143.4950 C   0  0  2  0  0  3  0  0  0  0  0  0
  186.2590  179.1560  141.3780 C   0  0  0  0  0  2  0  0  0  0  0  0
  186.4300  178.2660  140.1460 C   0  0  1  0  0  3  0  0  0  0  0  0
  181.7290  178.8560  139.6470 C   0  0  0  0  0  0  0  0  0  0  0  0
  185.2300  178.5740  142.3460 C   0  0  1  0  0  3  0  0  0  0  0  0
  185.7730  177.4370  143.0060 O   0  0  0  0  0  0  0  0  0  0  0  0
  182.8480  178.4580  137.5330 C   0  0  0  0  0  3  0  0  0  0  0  0
  184.0830  178.4320  139.6460 O   0  0  0  0  0  0  0  0  0  0  0  0
  185.8490  177.5920  144.3670 N   0  0  0  0  0  0  0  0  0  0  0  0
  180.4620  178.8780  137.5850 C   0  0  0  0  0  3  0  0  0  0  0  0
  185.3800  179.2520  146.0180 N   0  0  0  0  0  2  0  0  0  0  0  0
  185.4070  178.7600  144.6780 C   0  0  0  0  0  0  0  0  0  0  0  0
  182.8970  178.5870  138.9270 C   0  0  0  0  0  0  0  0  0  0  0  0
  181.8550  179.1080  141.0460 N   0  0  0  0  0  2  0  0  0  0  0  0
  181.6280  178.6000  136.8640 C   0  0  0  0  0  3  0  0  0  0  0  0
  181.0080  178.7220  142.1330 C   0  0  0  0  0  0  0  0  0  0  0  0
  181.2760  179.1670  143.5290 C   0  0  1  0  0  3  0  0  0  0  0  0
  180.3050  178.2960  144.2650 C   0  0  0  0  0  3  0  0  0  0  0  0
  179.6540  177.5070  143.4720 N   0  0  0  0  0  0  0  0  0  0  0  0
  180.1020  177.7520  142.1510 C   0  0  0  0  0  0  0  0  0  0  0  0
  182.6380  178.8120  143.9010 N   0  0  0  0  0  2  0  0  0  0  0  0
  185.3760  178.5790  139.0880 C   0  0  0  0  0  2  0  0  0  0  0  0
  179.7240  176.9060  141.0490 C   0  0  0  0  0  0  0  0  0  0  0  0
  179.4250  176.2260  140.1630 N   0  0  0  0  0  0  0  0  0  0  0  0
  185.4650  178.3650  147.1680 C   0  0  0  0  0  2  0  0  0  0  0  0
  186.7890  178.4420  147.7710 N   0  0  0  0  0  2  0  0  0  0  0  0
  187.5620  177.3840  147.2630 N   0  0  0  0  0  2  0  0  0  0  0  0
  188.8100  177.9130  146.7140 C   0  0  2  0  0  3  0  0  0  0  0  0
  189.1290  177.3670  145.3130 C   0  0  0  0  0  2  0  0  0  0  0  0
  190.5990  177.5970  144.9810 C   0  0  0  0  0  2  0  0  0  0  0  0
  190.4020  175.4520  147.5690 F   0  0  0  0  0  0  0  0  0  0  0  0
  190.9690  176.6970  147.3690 C   0  0  2  0  0  3  0  0  0  0  0  0
  189.9680  177.8010  147.7220 C   0  0  0  0  0  2  0  0  0  0  0  0
  191.5050  176.8070  145.9320 C   0  0  0  0  0  2  0  0  0  0  0  0
  187.8110  178.4910  139.5540 C   0  0  0  0  0  2  0  0  0  0  0  0
  189.2640  177.1780  141.0780 C   0  0  0  0  0  3  0  0  0  0  0  0
  190.1040  176.2670  141.3000 O   0  0  0  0  0  0  0  0  0  0  0  0
  188.6710  177.3390  139.7860 N   0  0  0  0  0  0  0  0  0  0  0  0
  189.0900  176.5400  138.6370 C   0  0  0  0  0  2  0  0  0  0  0  0
  189.4540  177.4180  136.3500 C   0  0  0  0  0  1  0  0  0  0  0  0
  190.0490  177.3110  137.7380 C   0  0  2  0  0  3  0  0  0  0  0  0
  191.3280  176.6280  137.6600 N   0  0  0  0  0  1  0  0  0  0  0  0
  1 23  1  0  0  0  0
  2  6  1  0  0  0  0
  3  1  1  1  0  0  0
  3 14  1  0  0  0  0
  5 37  1  6  0  0  0
  5  4  1  0  0  0  0
  6 16  1  0  0  0  0
  7  4  1  6  0  0  0
  7  8  1  0  0  0  0
  7  3  1  0  0  0  0
  8 11  1  0  0  0  0
  9 15  1  0  0  0  0
 11 14  2  0  0  0  0
 12  2  2  0  0  0  0
 13 27  1  0  0  0  0
 14 13  1  0  0  0  0
 15 10  1  0  0  0  0
 15  6  2  0  0  0  0
 16 18  1  0  0  0  0
 17  9  2  0  0  0  0
 17 12  1  0  0  0  0
 18 22  2  0  0  0  0
 18 19  1  0  0  0  0
 19 23  1  0  0  0  0
 19 20  1  1  0  0  0
 21 20  2  0  0  0  0
 22 21  1  0  0  0  0
 24 10  1  0  0  0  0
 24  5  1  0  0  0  0
 25 22  1  0  0  0  0
 26 25  3  0  0  0  0
 27 28  1  0  0  0  0
 29 28  1  0  0  0  0
 30 29  1  1  0  0  0
 30 35  1  0  0  0  0
 31 30  1  0  0  0  0
 32 31  1  0  0  0  0
 32 36  1  0  0  0  0
 34 33  1  6  0  0  0
 34 35  1  0  0  0  0
 36 34  1  0  0  0  0
 37 40  1  0  0  0  0
 38 39  2  0  0  0  0
 40 38  1  0  0  0  0
 41 40  1  0  0  0  0
 43 42  1  6  0  0  0
 43 41  1  0  0  0  0
 44 43  1  0  0  0  0
M  END
>  <MODEL>
1

>  <REMARK>
 VINA RESULT:      -8.4      0.000      0.000
  Name = 
  9 active torsions:
  status: ('A' for Active; 'I' for Inactive)
    1  A    between atoms: C_2  and  N_44
    2  A    between atoms: C_8  and  C_38
    3  A    between atoms: C_13  and  C_41
    4  A    between atoms: C_15  and  C_23
    5  A    between atoms: N_18  and  C_34
    6  A    between atoms: N_18  and  N_44
    7  A    between atoms: C_23  and  N_25
    8  A    between atoms: N_25  and  C_38
    9  A    between atoms: N_26  and  C_34
                            x       y       z     vdW  Elec       q    Type
                         _______ _______ _______ _____ _____    ______ ____

>  <TORSDO>
F 9

$$$$
=
 OpenBabel11042412213D

 44 48  0  0  1  0  0  0  0  0999 V2000
  184.7470  179.4430  140.5460 C   0  0  0  0  0  2  0  0  0  0  0  0
  186.0700  177.4310  135.5250 C   0  0  0  0  0  3  0  0  0  0  0  0
  185.8110  179.2390  141.6300 C   0  0  2  0  0  3  0  0  0  0  0  0
  188.2290  178.6960  141.2310 C   0  0  0  0  0  2  0  0  0  0  0  0
  189.2270  177.6590  140.7150 C   0  0  1  0  0  3  0  0  0  0  0  0
  186.4030  177.5350  136.8800 C   0  0  0  0  0  0  0  0  0  0  0  0
  186.8070  178.1360  141.2500 C   0  0  1  0  0  3  0  0  0  0  0  0
  186.6700  177.1950  142.3080 O   0  0  0  0  0  0  0  0  0  0  0  0
  188.7040  176.9730  136.3620 C   0  0  0  0  0  3  0  0  0  0  0  0
  187.9980  177.4330  138.6590 O   0  0  0  0  0  0  0  0  0  0  0  0
  185.7280  177.5640  143.2350 N   0  0  0  0  0  0  0  0  0  0  0  0
  187.0500  177.0750  134.5940 C   0  0  0  0  0  3  0  0  0  0  0  0
  184.2350  179.3790  143.6610 N   0  0  0  0  0  2  0  0  0  0  0  0
  185.2240  178.6960  142.8890 C   0  0  0  0  0  0  0  0  0  0  0  0
  187.7200  177.3180  137.2970 C   0  0  0  0  0  0  0  0  0  0  0  0
  185.4700  178.0110  137.8500 N   0  0  0  0  0  2  0  0  0  0  0  0
  188.3650  176.8480  135.0110 C   0  0  0  0  0  3  0  0  0  0  0  0
  184.0900  177.6870  138.0400 C   0  0  0  0  0  0  0  0  0  0  0  0
  183.2600  178.3710  139.0700 C   0  0  1  0  0  3  0  0  0  0  0  0
  182.0420  177.5010  139.0350 C   0  0  0  0  0  3  0  0  0  0  0  0
  182.1610  176.5200  138.1980 N   0  0  0  0  0  0  0  0  0  0  0  0
  183.4390  176.6190  137.5940 C   0  0  0  0  0  0  0  0  0  0  0  0
  183.9080  178.2600  140.3690 N   0  0  0  0  0  2  0  0  0  0  0  0
  189.2900  177.6630  139.1900 C   0  0  0  0  0  2  0  0  0  0  0  0
  183.9700  175.5730  136.7600 C   0  0  0  0  0  0  0  0  0  0  0  0
  184.3950  174.7290  136.0940 N   0  0  0  0  0  0  0  0  0  0  0  0
  183.4330  178.6970  144.6640 C   0  0  0  0  0  2  0  0  0  0  0  0
  183.8500  179.0930  146.0030 N   0  0  0  0  0  2  0  0  0  0  0  0
  185.2290  179.3640  145.9680 N   0  0  0  0  0  2  0  0  0  0  0  0
  185.9250  178.4670  146.8900 C   0  0  2  0  0  3  0  0  0  0  0  0
  186.9030  179.2030  147.8200 C   0  0  0  0  0  2  0  0  0  0  0  0
  187.8870  178.2150  148.4350 C   0  0  0  0  0  2  0  0  0  0  0  0
  188.3990  178.3140  145.1080 F   0  0  0  0  0  0  0  0  0  0  0  0
  188.0500  177.3320  146.0180 C   0  0  2  0  0  3  0  0  0  0  0  0
  186.5270  177.2550  146.1590 C   0  0  0  0  0  2  0  0  0  0  0  0
  188.7680  177.5760  147.3550 C   0  0  0  0  0  2  0  0  0  0  0  0
  190.6060  177.9730  141.2710 C   0  0  0  0  0  2  0  0  0  0  0  0
  190.2560  175.7630  142.3440 C   0  0  0  0  0  3  0  0  0  0  0  0
  190.4910  174.9170  143.2470 O   0  0  0  0  0  0  0  0  0  0  0  0
  191.0120  176.9740  142.2490 N   0  0  0  0  0  0  0  0  0  0  0  0
  192.0060  177.3460  143.2530 C   0  0  0  0  0  2  0  0  0  0  0  0
  191.7120  179.4960  144.4460 C   0  0  0  0  0  1  0  0  0  0  0  0
  191.3620  178.0230  144.4560 C   0  0  2  0  0  3  0  0  0  0  0  0
  191.8420  177.4260  145.6900 N   0  0  0  0  0  1  0  0  0  0  0  0
  2  6  1  0  0  0  0
  3  1  1  6  0  0  0
  3 14  1  0  0  0  0
  5  4  1  0  0  0  0
  5 37  1  1  0  0  0
  6 15  2  0  0  0  0
  6 16  1  0  0  0  0
  7  4  1  1  0  0  0
  7  3  1  0  0  0  0
  7  8  1  0  0  0  0
  8 11  1  0  0  0  0
  9 15  1  0  0  0  0
 10 24  1  0  0  0  0
 12 17  1  0  0  0  0
 12  2  2  0  0  0  0
 13 27  1  0  0  0  0
 14 11  2  0  0  0  0
 14 13  1  0  0  0  0
 15 10  1  0  0  0  0
 16 18  1  0  0  0  0
 17  9  2  0  0  0  0
 18 19  1  0  0  0  0
 19 20  1  1  0  0  0
 19 23  1  0  0  0  0
 21 20  2  0  0  0  0
 22 18  2  0  0  0  0
 22 21  1  0  0  0  0
 23  1  1  0  0  0  0
 24  5  1  0  0  0  0
 25 22  1  0  0  0  0
 26 25  3  0  0  0  0
 27 28  1  0  0  0  0
 29 28  1  0  0  0  0
 30 29  1  6  0  0  0
 30 31  1  0  0  0  0
 31 32  1  0  0  0  0
 34 33  1  6  0  0  0
 34 35  1  0  0  0  0
 34 36  1  0  0  0  0
 35 30  1  0  0  0  0
 36 32  1  0  0  0  0
 37 40  1  0  0  0  0
 38 39  2  0  0  0  0
 40 38  1  0  0  0  0
 40 41  1  0  0  0  0
 41 43  1  0  0  0  0
 43 42  1  1  0  0  0
 43 44  1  0  0  0  0
M  END
>  <MODEL>
2

>  <REMARK>
 VINA RESULT:      -8.2      2.365      4.721
  Name = 
  9 active torsions:
  status: ('A' for Active; 'I' for Inactive)
    1  A    between atoms: C_2  and  N_44
    2  A    between atoms: C_8  and  C_38
    3  A    between atoms: C_13  and  C_41
    4  A    between atoms: C_15  and  C_23
    5  A    between atoms: N_18  and  C_34
    6  A    between atoms: N_18  and  N_44
    7  A    between atoms: C_23  and  N_25
    8  A    between atoms: N_25  and  C_38
    9  A    between atoms: N_26  and  C_34
                            x       y       z     vdW  Elec       q    Type
                         _______ _______ _______ _____ _____    ______ ____

>  <TORSDO>
F 9

$$$$
=
 OpenBabel11042412213D

 44 48  0  0  1  0  0  0  0  0999 V2000
  184.8510  179.3780  140.3570 C   0  0  0  0  0  2  0  0  0  0  0  0
  187.6130  176.9220  136.1920 C   0  0  0  0  0  3  0  0  0  0  0  0
  185.5570  179.3430  141.7160 C   0  0  2  0  0  3  0  0  0  0  0  0
  187.9960  178.8830  142.0930 C   0  0  0  0  0  2  0  0  0  0  0  0
  189.1200  177.8500  142.0070 C   0  0  1  0  0  3  0  0  0  0  0  0
  187.5360  177.1830  137.5640 C   0  0  0  0  0  0  0  0  0  0  0  0
  186.6400  178.2570  141.7680 C   0  0  1  0  0  3  0  0  0  0  0  0
  186.2190  177.4260  142.8420 O   0  0  0  0  0  0  0  0  0  0  0  0
  189.8980  176.6870  137.7960 C   0  0  0  0  0  3  0  0  0  0  0  0
  188.5460  177.3490  139.7260 O   0  0  0  0  0  0  0  0  0  0  0  0
  185.0420  177.8420  143.4110 N   0  0  0  0  0  0  0  0  0  0  0  0
  188.8270  176.5200  135.6280 C   0  0  0  0  0  3  0  0  0  0  0  0
  183.4570  179.6140  143.1800 N   0  0  0  0  0  2  0  0  0  0  0  0
  184.6400  178.9050  142.8080 C   0  0  0  0  0  0  0  0  0  0  0  0
  188.6780  177.0780  138.3630 C   0  0  0  0  0  0  0  0  0  0  0  0
  186.3530  177.7110  138.1640 N   0  0  0  0  0  2  0  0  0  0  0  0
  189.9690  176.4050  136.4280 C   0  0  0  0  0  3  0  0  0  0  0  0
  184.9830  177.3380  137.9860 C   0  0  0  0  0  0  0  0  0  0  0  0
  183.8770  178.0830  138.6490 C   0  0  1  0  0  3  0  0  0  0  0  0
  182.7380  177.1540  138.3670 C   0  0  0  0  0  3  0  0  0  0  0  0
  183.1130  176.0990  137.7170 N   0  0  0  0  0  0  0  0  0  0  0  0
  184.5100  176.1980  137.4980 C   0  0  0  0  0  0  0  0  0  0  0  0
  184.1210  178.1420  140.0830 N   0  0  0  0  0  2  0  0  0  0  0  0
  189.6240  177.6990  140.5750 C   0  0  0  0  0  2  0  0  0  0  0  0
  185.2780  175.0990  136.9770 C   0  0  0  0  0  0  0  0  0  0  0  0
  185.8970  174.2130  136.5630 N   0  0  0  0  0  0  0  0  0  0  0  0
  182.4100  179.0000  143.9820 C   0  0  0  0  0  2  0  0  0  0  0  0
  181.2350  178.7320  143.1630 N   0  0  0  0  0  2  0  0  0  0  0  0
  180.6470  179.9640  142.8270 N   0  0  0  0  0  2  0  0  0  0  0  0
  179.6570  179.7580  141.7690 C   0  0  2  0  0  3  0  0  0  0  0  0
  179.7130  178.3480  141.1600 C   0  0  0  0  0  2  0  0  0  0  0  0
  178.9900  178.3260  139.8190 C   0  0  0  0  0  2  0  0  0  0  0  0
  181.6820  180.3320  139.5580 F   0  0  0  0  0  0  0  0  0  0  0  0
  180.3170  180.4980  139.4060 C   0  0  2  0  0  3  0  0  0  0  0  0
  179.6800  180.9010  140.7390 C   0  0  0  0  0  2  0  0  0  0  0  0
  179.6970  179.2290  138.8010 C   0  0  0  0  0  2  0  0  0  0  0  0
  190.2720  178.2900  142.8960 C   0  0  0  0  0  2  0  0  0  0  0  0
  191.6800  176.8430  144.3390 C   0  0  0  0  0  3  0  0  0  0  0  0
  191.8220  175.9910  145.2550 O   0  0  0  0  0  0  0  0  0  0  0  0
  190.4000  177.4150  144.0520 N   0  0  0  0  0  0  0  0  0  0  0  0
  189.1820  176.9610  144.7200 C   0  0  0  0  0  2  0  0  0  0  0  0
  189.1810  177.1270  147.1910 C   0  0  0  0  0  1  0  0  0  0  0  0
  188.8290  177.8480  145.9070 C   0  0  2  0  0  3  0  0  0  0  0  0
  187.4100  178.1560  145.9040 N   0  0  0  0  0  1  0  0  0  0  0  0
  2  6  1  0  0  0  0
  3  1  1  6  0  0  0
  3  7  1  0  0  0  0
  3 14  1  0  0  0  0
  5  4  1  0  0  0  0
  5 37  1  1  0  0  0
  6 16  1  0  0  0  0
  6 15  2  0  0  0  0
  7  4  1  1  0  0  0
  7  8  1  0  0  0  0
  8 11  1  0  0  0  0
  9 15  1  0  0  0  0
 10 24  1  0  0  0  0
 12  2  2  0  0  0  0
 12 17  1  0  0  0  0
 13 27  1  0  0  0  0
 14 13  1  0  0  0  0
 14 11  2  0  0  0  0
 15 10  1  0  0  0  0
 17  9  2  0  0  0  0
 18 16  1  0  0  0  0
 18 19  1  0  0  0  0
 19 20  1  1  0  0  0
 19 23  1  0  0  0  0
 21 20  2  0  0  0  0
 22 21  1  0  0  0  0
 22 18  2  0  0  0  0
 23  1  1  0  0  0  0
 24  5  1  0  0  0  0
 25 22  1  0  0  0  0
 26 25  3  0  0  0  0
 28 27  1  0  0  0  0
 29 28  1  0  0  0  0
 30 29  1  1  0  0  0
 31 30  1  0  0  0  0
 32 31  1  0  0  0  0
 34 33  1  1  0  0  0
 34 35  1  0  0  0  0
 35 30  1  0  0  0  0
 36 34  1  0  0  0  0
 36 32  1  0  0  0  0
 37 40  1  0  0  0  0
 38 39  2  0  0  0  0
 40 38  1  0  0  0  0
 40 41  1  0  0  0  0
 41 43  1  0  0  0  0
 43 42  1  1  0  0  0
 44 43  1  0  0  0  0
M  END
>  <MODEL>
3

>  <REMARK>
 VINA RESULT:      -7.6      2.885      7.418
  Name = 
  9 active torsions:
  status: ('A' for Active; 'I' for Inactive)
    1  A    between atoms: C_2  and  N_44
    2  A    between atoms: C_8  and  C_38
    3  A    between atoms: C_13  and  C_41
    4  A    between atoms: C_15  and  C_23
    5  A    between atoms: N_18  and  C_34
    6  A    between atoms: N_18  and  N_44
    7  A    between atoms: C_23  and  N_25
    8  A    between atoms: N_25  and  C_38
    9  A    between atoms: N_26  and  C_34
                            x       y       z     vdW  Elec       q    Type
                         _______ _______ _______ _____ _____    ______ ____

>  <TORSDO>
F 9

$$$$
=
 OpenBabel11042412213D

 44 48  0  0  1  0  0  0  0  0999 V2000
  183.6350  179.3620  140.9180 C   0  0  0  0  0  2  0  0  0  0  0  0
  183.4000  177.1000  135.8360 C   0  0  0  0  0  3  0  0  0  0  0  0
  185.0150  179.3310  141.5820 C   0  0  2  0  0  3  0  0  0  0  0  0
  187.2020  178.9660  140.4050 C   0  0  0  0  0  2  0  0  0  0  0  0
  188.0730  177.9820  139.6230 C   0  0  1  0  0  3  0  0  0  0  0  0
  184.1560  177.3330  136.9900 C   0  0  0  0  0  0  0  0  0  0  0  0
  185.9370  178.2910  140.9320 C   0  0  1  0  0  3  0  0  0  0  0  0
  186.2620  177.4230  142.0110 O   0  0  0  0  0  0  0  0  0  0  0  0
  186.1950  176.9310  135.7410 C   0  0  0  0  0  3  0  0  0  0  0  0
  186.2560  177.5000  138.1210 O   0  0  0  0  0  0  0  0  0  0  0  0
  185.6530  177.7790  143.1880 N   0  0  0  0  0  0  0  0  0  0  0  0
  184.0430  176.7600  134.6420 C   0  0  0  0  0  3  0  0  0  0  0  0
  184.2070  179.4880  144.0210 N   0  0  0  0  0  2  0  0  0  0  0  0
  184.9460  178.8350  142.9870 C   0  0  0  0  0  0  0  0  0  0  0  0
  185.5510  177.2600  136.9410 C   0  0  0  0  0  0  0  0  0  0  0  0
  183.5580  177.8000  138.1990 N   0  0  0  0  0  2  0  0  0  0  0  0
  185.4380  176.6770  134.5940 C   0  0  0  0  0  3  0  0  0  0  0  0
  182.3630  177.3740  138.8620 C   0  0  0  0  0  0  0  0  0  0  0  0
  181.8600  178.0600  140.0840 C   0  0  1  0  0  3  0  0  0  0  0  0
  180.8000  177.0890  140.5030 C   0  0  0  0  0  3  0  0  0  0  0  0
  180.7340  176.0630  139.7170 N   0  0  0  0  0  0  0  0  0  0  0  0
  181.7170  176.2240  138.7100 C   0  0  0  0  0  0  0  0  0  0  0  0
  182.9140  178.1020  141.0880 N   0  0  0  0  0  2  0  0  0  0  0  0
  187.6200  177.8780  138.1690 C   0  0  0  0  0  2  0  0  0  0  0  0
  182.0440  175.1680  137.7890 C   0  0  0  0  0  0  0  0  0  0  0  0
  182.3010  174.3180  137.0470 N   0  0  0  0  0  0  0  0  0  0  0  0
  183.8640  178.8160  145.2660 C   0  0  0  0  0  2  0  0  0  0  0  0
  184.8220  179.1620  146.3080 N   0  0  0  0  0  2  0  0  0  0  0  0
  185.6180  178.0310  146.5610 N   0  0  0  0  0  2  0  0  0  0  0  0
  187.0300  178.4110  146.5180 C   0  0  2  0  0  3  0  0  0  0  0  0
  187.8910  177.4350  145.6990 C   0  0  0  0  0  2  0  0  0  0  0  0
  189.3640  177.6230  146.0370 C   0  0  0  0  0  2  0  0  0  0  0  0
  187.7670  176.4950  148.7780 F   0  0  0  0  0  0  0  0  0  0  0  0
  188.4990  177.6260  148.4660 C   0  0  2  0  0  3  0  0  0  0  0  0
  187.5780  178.7230  147.9220 C   0  0  0  0  0  2  0  0  0  0  0  0
  189.6400  177.2650  147.5020 C   0  0  0  0  0  2  0  0  0  0  0  0
  189.5180  178.4530  139.6610 C   0  0  0  0  0  2  0  0  0  0  0  0
  190.2790  176.3100  138.6660 C   0  0  0  0  0  3  0  0  0  0  0  0
  190.9660  175.2560  138.6940 O   0  0  0  0  0  0  0  0  0  0  0  0
  190.4330  177.3210  139.6680 N   0  0  0  0  0  0  0  0  0  0  0  0
  191.3010  177.1340  140.8280 C   0  0  0  0  0  2  0  0  0  0  0  0
  191.3600  178.0710  143.1200 C   0  0  0  0  0  1  0  0  0  0  0  0
  190.5300  177.2760  142.1350 C   0  0  2  0  0  3  0  0  0  0  0  0
  190.2410  175.9690  142.6970 N   0  0  0  0  0  1  0  0  0  0  0  0
  1 23  1  0  0  0  0
  2  6  1  0  0  0  0
  3  1  1  6  0  0  0
  3 14  1  0  0  0  0
  5 37  1  6  0  0  0
  5  4  1  0  0  0  0
  6 16  1  0  0  0  0
  7  4  1  1  0  0  0
  7  3  1  0  0  0  0
  7  8  1  0  0  0  0
  8 11  1  0  0  0  0
  9 15  1  0  0  0  0
 10 24  1  0  0  0  0
 12  2  2  0  0  0  0
 13 27  1  0  0  0  0
 14 11  2  0  0  0  0
 14 13  1  0  0  0  0
 15  6  2  0  0  0  0
 15 10  1  0  0  0  0
 16 18  1  0  0  0  0
 17 12  1  0  0  0  0
 17  9  2  0  0  0  0
 18 19  1  0  0  0  0
 19 20  1  1  0  0  0
 19 23  1  0  0  0  0
 21 20  2  0  0  0  0
 22 18  2  0  0  0  0
 22 21  1  0  0  0  0
 24  5  1  0  0  0  0
 25 22  1  0  0  0  0
 26 25  3  0  0  0  0
 27 28  1  0  0  0  0
 28 29  1  0  0  0  0
 30 29  1  1  0  0  0
 30 35  1  0  0  0  0
 31 32  1  0  0  0  0
 31 30  1  0  0  0  0
 32 36  1  0  0  0  0
 34 33  1  6  0  0  0
 35 34  1  0  0  0  0
 36 34  1  0  0  0  0
 37 40  1  0  0  0  0
 38 39  2  0  0  0  0
 38 40  1  0  0  0  0
 40 41  1  0  0  0  0
 41 43  1  0  0  0  0
 43 44  1  0  0  0  0
 43 42  1  1  0  0  0
M  END
>  <MODEL>
4

>  <REMARK>
 VINA RESULT:      -7.6      2.184      3.318
  Name = 
  9 active torsions:
  status: ('A' for Active; 'I' for Inactive)
    1  A    between atoms: C_2  and  N_44
    2  A    between atoms: C_8  and  C_38
    3  A    between atoms: C_13  and  C_41
    4  A    between atoms: C_15  and  C_23
    5  A    between atoms: N_18  and  C_34
    6  A    between atoms: N_18  and  N_44
    7  A    between atoms: C_23  and  N_25
    8  A    between atoms: N_25  and  C_38
    9  A    between atoms: N_26  and  C_34
                            x       y       z     vdW  Elec       q    Type
                         _______ _______ _______ _____ _____    ______ ____

>  <TORSDO>
F 9

$$$$
=
 OpenBabel11042412213D

 44 48  0  0  1  0  0  0  0  0999 V2000
  188.2740  179.1490  140.7710 C   0  0  0  0  0  2  0  0  0  0  0  0
  183.5230  178.5460  137.9300 C   0  0  0  0  0  3  0  0  0  0  0  0
  189.4540  178.3220  140.2500 C   0  0  2  0  0  3  0  0  0  0  0  0
  189.6230  177.2770  137.9730 C   0  0  0  0  0  2  0  0  0  0  0  0
  189.0650  176.2210  137.0180 C   0  0  1  0  0  3  0  0  0  0  0  0
  184.8390  178.1170  138.1330 C   0  0  0  0  0  0  0  0  0  0  0  0
  188.9880  177.1630  139.3590 C   0  0  1  0  0  3  0  0  0  0  0  0
  189.4900  176.0140  140.0300 O   0  0  0  0  0  0  0  0  0  0  0  0
  184.8610  177.1260  135.9200 C   0  0  0  0  0  3  0  0  0  0  0  0
  186.8230  177.0130  137.3800 O   0  0  0  0  0  0  0  0  0  0  0  0
  190.1560  176.3190  141.1900 N   0  0  0  0  0  0  0  0  0  0  0  0
  182.8700  178.2430  136.7320 C   0  0  0  0  0  3  0  0  0  0  0  0
  190.7940  178.2480  142.4460 N   0  0  0  0  0  2  0  0  0  0  0  0
  190.1530  177.5960  141.3490 C   0  0  0  0  0  0  0  0  0  0  0  0
  185.5120  177.4190  137.1260 C   0  0  0  0  0  0  0  0  0  0  0  0
  185.5870  178.5030  139.2850 N   0  0  0  0  0  2  0  0  0  0  0  0
  183.5380  177.5360  135.7270 C   0  0  0  0  0  3  0  0  0  0  0  0
  185.2060  178.5370  140.6640 C   0  0  0  0  0  0  0  0  0  0  0  0
  186.1200  179.0630  141.7160 C   0  0  1  0  0  3  0  0  0  0  0  0
  185.3770  178.6270  142.9410 C   0  0  0  0  0  3  0  0  0  0  0  0
  184.2980  177.9710  142.6550 N   0  0  0  0  0  0  0  0  0  0  0  0
  184.1990  177.8930  141.2430 C   0  0  0  0  0  0  0  0  0  0  0  0
  187.3980  178.3690  141.6420 N   0  0  0  0  0  2  0  0  0  0  0  0
  187.7640  176.6910  136.3730 C   0  0  0  0  0  2  0  0  0  0  0  0
  183.2220  177.0610  140.5930 C   0  0  0  0  0  0  0  0  0  0  0  0
  182.4320  176.3950  140.0730 N   0  0  0  0  0  0  0  0  0  0  0  0
  191.1510  177.5360  143.6640 C   0  0  0  0  0  2  0  0  0  0  0  0
  190.5730  178.1990  144.8260 N   0  0  0  0  0  2  0  0  0  0  0  0
  190.5340  177.2730  145.8830 N   0  0  0  0  0  2  0  0  0  0  0  0
  189.1420  176.9550  146.2010 C   0  0  2  0  0  3  0  0  0  0  0  0
  188.1420  177.9310  145.5620 C   0  0  0  0  0  2  0  0  0  0  0  0
  186.7880  177.8250  146.2540 C   0  0  0  0  0  2  0  0  0  0  0  0
  189.0380  178.9980  148.4670 F   0  0  0  0  0  0  0  0  0  0  0  0
  188.2160  177.8880  148.4000 C   0  0  2  0  0  3  0  0  0  0  0  0
  188.9410  176.7290  147.7100 C   0  0  0  0  0  2  0  0  0  0  0  0
  186.8870  178.2580  147.7200 C   0  0  0  0  0  2  0  0  0  0  0  0
  190.0880  175.9430  135.9290 C   0  0  0  0  0  2  0  0  0  0  0  0
  190.9010  173.6170  135.6320 C   0  0  0  0  0  3  0  0  0  0  0  0
  191.5710  172.6190  136.0060 O   0  0  0  0  0  0  0  0  0  0  0  0
  190.9860  174.8670  136.3230 N   0  0  0  0  0  0  0  0  0  0  0  0
  191.7560  175.0180  137.5560 C   0  0  0  0  0  2  0  0  0  0  0  0
  194.1770  174.5000  137.5930 C   0  0  0  0  0  1  0  0  0  0  0  0
  193.1500  175.5690  137.2830 C   0  0  2  0  0  3  0  0  0  0  0  0
  193.4060  176.7330  138.1120 N   0  0  0  0  0  1  0  0  0  0  0  0
  1 23  1  0  0  0  0
  2  6  1  0  0  0  0
  3  1  1  1  0  0  0
  3 14  1  0  0  0  0
  5 37  1  6  0  0  0
  5  4  1  0  0  0  0
  6 16  1  0  0  0  0
  7  4  1  6  0  0  0
  7  8  1  0  0  0  0
  7  3  1  0  0  0  0
  8 11  1  0  0  0  0
  9 15  1  0  0  0  0
 11 14  2  0  0  0  0
 12  2  2  0  0  0  0
 13 27  1  0  0  0  0
 14 13  1  0  0  0  0
 15 10  1  0  0  0  0
 15  6  2  0  0  0  0
 16 18  1  0  0  0  0
 17  9  2  0  0  0  0
 17 12  1  0  0  0  0
 18 22  2  0  0  0  0
 18 19  1  0  0  0  0
 19 20  1  1  0  0  0
 21 20  2  0  0  0  0
 22 21  1  0  0  0  0
 23 19  1  0  0  0  0
 24  5  1  0  0  0  0
 24 10  1  0  0  0  0
 25 22  1  0  0  0  0
 26 25  3  0  0  0  0
 27 28  1  0  0  0  0
 28 29  1  0  0  0  0
 30 29  1  1  0  0  0
 30 35  1  0  0  0  0
 31 30  1  0  0  0  0
 31 32  1  0  0  0  0
 32 36  1  0  0  0  0
 34 33  1  6  0  0  0
 35 34  1  0  0  0  0
 36 34  1  0  0  0  0
 37 40  1  0  0  0  0
 38 39  2  0  0  0  0
 38 40  1  0  0  0  0
 40 41  1  0  0  0  0
 43 41  1  0  0  0  0
 43 42  1  1  0  0  0
 43 44  1  0  0  0  0
M  END
>  <MODEL>
5

>  <REMARK>
 VINA RESULT:      -7.5      2.608      4.488
  Name = 
  9 active torsions:
  status: ('A' for Active; 'I' for Inactive)
    1  A    between atoms: C_2  and  N_44
    2  A    between atoms: C_8  and  C_38
    3  A    between atoms: C_13  and  C_41
    4  A    between atoms: C_15  and  C_23
    5  A    between atoms: N_18  and  C_34
    6  A    between atoms: N_18  and  N_44
    7  A    between atoms: C_23  and  N_25
    8  A    between atoms: N_25  and  C_38
    9  A    between atoms: N_26  and  C_34
                            x       y       z     vdW  Elec       q    Type
                         _______ _______ _______ _____ _____    ______ ____

>  <TORSDO>
F 9

$$$$
=
 OpenBabel11042412213D

 44 48  0  0  1  0  0  0  0  0999 V2000
  186.9630  178.3480  137.6910 C   0  0  0  0  0  2  0  0  0  0  0  0
  185.6790  179.4260  143.0000 C   0  0  0  0  0  3  0  0  0  0  0  0
  185.9180  177.5340  136.9200 C   0  0  2  0  0  3  0  0  0  0  0  0
  183.5200  177.2140  137.5910 C   0  0  0  0  0  2  0  0  0  0  0  0
  182.5590  176.6050  138.6120 C   0  0  1  0  0  3  0  0  0  0  0  0
  185.3530  178.7450  141.8220 C   0  0  0  0  0  0  0  0  0  0  0  0
  184.9630  176.7930  137.8650 C   0  0  1  0  0  3  0  0  0  0  0  0
  185.1460  175.4280  137.5090 O   0  0  0  0  0  0  0  0  0  0  0  0
  183.0720  178.4810  142.6010 C   0  0  0  0  0  3  0  0  0  0  0  0
  183.7790  177.6090  140.4260 O   0  0  0  0  0  0  0  0  0  0  0  0
  186.0810  175.2530  136.5190 N   0  0  0  0  0  0  0  0  0  0  0  0
  184.7070  179.6130  143.9870 C   0  0  0  0  0  3  0  0  0  0  0  0
  187.5040  176.5780  135.1320 N   0  0  0  0  0  2  0  0  0  0  0  0
  186.5360  176.4040  136.1680 C   0  0  0  0  0  0  0  0  0  0  0  0
  184.0500  178.2830  141.6170 C   0  0  0  0  0  0  0  0  0  0  0  0
  186.2750  178.6350  140.7380 N   0  0  0  0  0  2  0  0  0  0  0  0
  183.4050  179.1430  143.7870 C   0  0  0  0  0  3  0  0  0  0  0  0
  187.6690  178.3120  140.7400 C   0  0  0  0  0  0  0  0  0  0  0  0
  188.4800  178.3360  139.4910 C   0  0  1  0  0  3  0  0  0  0  0  0
  189.7310  177.6790  139.9860 C   0  0  0  0  0  3  0  0  0  0  0  0
  189.6430  177.3280  141.2290 N   0  0  0  0  0  0  0  0  0  0  0  0
  188.3570  177.6980  141.6950 C   0  0  0  0  0  0  0  0  0  0  0  0
  187.8480  177.4960  138.4840 N   0  0  0  0  0  2  0  0  0  0  0  0
  182.4830  177.4560  139.8770 C   0  0  0  0  0  2  0  0  0  0  0  0
  187.8620  177.2760  142.9780 C   0  0  0  0  0  0  0  0  0  0  0  0
  187.4640  176.9400  144.0120 N   0  0  0  0  0  0  0  0  0  0  0  0
  188.3410  175.4830  134.6670 C   0  0  0  0  0  2  0  0  0  0  0  0
  189.4880  175.3110  135.5490 N   0  0  0  0  0  2  0  0  0  0  0  0
  190.1210  174.1030  135.2110 N   0  0  0  0  0  2  0  0  0  0  0  0
  191.5700  174.2600  135.3410 C   0  0  2  0  0  3  0  0  0  0  0  0
  192.2490  173.0510  136.0040 C   0  0  0  0  0  2  0  0  0  0  0  0
  193.6390  173.4330  136.4970 C   0  0  0  0  0  2  0  0  0  0  0  0
  191.3580  175.1930  138.2400 F   0  0  0  0  0  0  0  0  0  0  0  0
  192.4180  175.5120  137.4100 C   0  0  2  0  0  3  0  0  0  0  0  0
  191.9420  175.6200  135.9580 C   0  0  0  0  0  2  0  0  0  0  0  0
  193.5570  174.4970  137.5970 C   0  0  0  0  0  2  0  0  0  0  0  0
  181.1730  176.5040  137.9960 C   0  0  0  0  0  2  0  0  0  0  0  0
  181.0260  174.0590  137.5950 C   0  0  0  0  0  3  0  0  0  0  0  0
  180.4570  172.9440  137.7320 O   0  0  0  0  0  0  0  0  0  0  0  0
  180.5630  175.2170  138.2980 N   0  0  0  0  0  0  0  0  0  0  0  0
  179.3490  175.1950  139.1090 C   0  0  0  0  0  2  0  0  0  0  0  0
  179.2850  173.7980  141.1530 C   0  0  0  0  0  1  0  0  0  0  0  0
  179.6700  175.1530  140.5980 C   0  0  2  0  0  3  0  0  0  0  0  0
  178.9330  176.1860  141.3040 N   0  0  0  0  0  1  0  0  0  0  0  0
  1 23  1  0  0  0  0
  2 12  1  0  0  0  0
  3  1  1  1  0  0  0
  3  7  1  0  0  0  0
  4  5  1  0  0  0  0
  5 37  1  6  0  0  0
  5 24  1  0  0  0  0
  6  2  2  0  0  0  0
  7  4  1  6  0  0  0
  8  7  1  0  0  0  0
  9 17  1  0  0  0  0
 10 15  1  0  0  0  0
 11  8  1  0  0  0  0
 13 14  1  0  0  0  0
 14 11  2  0  0  0  0
 14  3  1  0  0  0  0
 15  6  1  0  0  0  0
 15  9  2  0  0  0  0
 16 18  1  0  0  0  0
 16  6  1  0  0  0  0
 17 12  2  0  0  0  0
 18 22  2  0  0  0  0
 19 20  1  1  0  0  0
 19 18  1  0  0  0  0
 20 21  2  0  0  0  0
 21 22  1  0  0  0  0
 22 25  1  0  0  0  0
 23 19  1  0  0  0  0
 24 10  1  0  0  0  0
 25 26  3  0  0  0  0
 27 13  1  0  0  0  0
 27 28  1  0  0  0  0
 29 28  1  0  0  0  0
 30 29  1  1  0  0  0
 30 35  1  0  0  0  0
 30 31  1  0  0  0  0
 31 32  1  0  0  0  0
 32 36  1  0  0  0  0
 34 36  1  0  0  0  0
 34 33  1  1  0  0  0
 35 34  1  0  0  0  0
 37 40  1  0  0  0  0
 38 39  2  0  0  0  0
 38 40  1  0  0  0  0
 40 41  1  0  0  0  0
 41 43  1  0  0  0  0
 43 42  1  1  0  0  0
 43 44  1  0  0  0  0
M  END
>  <MODEL>
6

>  <REMARK>
 VINA RESULT:      -7.3      3.225      8.863
  Name = 
  9 active torsions:
  status: ('A' for Active; 'I' for Inactive)
    1  A    between atoms: C_2  and  N_44
    2  A    between atoms: C_8  and  C_38
    3  A    between atoms: C_13  and  C_41
    4  A    between atoms: C_15  and  C_23
    5  A    between atoms: N_18  and  C_34
    6  A    between atoms: N_18  and  N_44
    7  A    between atoms: C_23  and  N_25
    8  A    between atoms: N_25  and  C_38
    9  A    between atoms: N_26  and  C_34
                            x       y       z     vdW  Elec       q    Type
                         _______ _______ _______ _____ _____    ______ ____

>  <TORSDO>
F 9

$$$$
=
 OpenBabel11042412213D

 44 48  0  0  1  0  0  0  0  0999 V2000
  187.1420  178.4020  137.8630 C   0  0  0  0  0  2  0  0  0  0  0  0
  185.5930  179.4190  143.1140 C   0  0  0  0  0  3  0  0  0  0  0  0
  186.1040  177.6660  137.0090 C   0  0  2  0  0  3  0  0  0  0  0  0
  183.6560  177.4620  137.5250 C   0  0  0  0  0  2  0  0  0  0  0  0
  182.6030  176.8810  138.4700 C   0  0  1  0  0  3  0  0  0  0  0  0
  185.3040  178.7850  141.9000 C   0  0  0  0  0  0  0  0  0  0  0  0
  185.0550  176.9550  137.8740 C   0  0  1  0  0  3  0  0  0  0  0  0
  185.1870  175.5910  137.4920 O   0  0  0  0  0  0  0  0  0  0  0  0
  182.9690  178.6280  142.5330 C   0  0  0  0  0  3  0  0  0  0  0  0
  183.7610  177.7720  140.3810 O   0  0  0  0  0  0  0  0  0  0  0  0
  186.1690  175.3900  136.5550 N   0  0  0  0  0  0  0  0  0  0  0  0
  184.5730  179.6340  144.0460 C   0  0  0  0  0  3  0  0  0  0  0  0
  187.7430  176.6680  135.2940 N   0  0  0  0  0  2  0  0  0  0  0  0
  186.7060  176.5230  136.2650 C   0  0  0  0  0  0  0  0  0  0  0  0
  183.9930  178.4010  141.6050 C   0  0  0  0  0  0  0  0  0  0  0  0
  186.2840  178.6520  140.8700 N   0  0  0  0  0  2  0  0  0  0  0  0
  183.2630  179.2410  143.7550 C   0  0  0  0  0  3  0  0  0  0  0  0
  187.6550  178.2530  140.9480 C   0  0  0  0  0  0  0  0  0  0  0  0
  188.5420  178.2630  139.7510 C   0  0  1  0  0  3  0  0  0  0  0  0
  189.7240  177.5270  140.3010 C   0  0  0  0  0  3  0  0  0  0  0  0
  189.5410  177.1510  141.5260 N   0  0  0  0  0  0  0  0  0  0  0  0
  188.2510  177.5790  141.9250 C   0  0  0  0  0  0  0  0  0  0  0  0
  187.9290  177.4840  138.6840 N   0  0  0  0  0  2  0  0  0  0  0  0
  182.4950  177.7040  139.7510 C   0  0  0  0  0  2  0  0  0  0  0  0
  187.6560  177.1530  143.1640 C   0  0  0  0  0  0  0  0  0  0  0  0
  187.1810  176.8070  144.1600 N   0  0  0  0  0  0  0  0  0  0  0  0
  188.5480  175.5410  134.8490 C   0  0  0  0  0  2  0  0  0  0  0  0
  189.8630  175.5780  135.4770 N   0  0  0  0  0  2  0  0  0  0  0  0
  189.8700  174.6460  136.5290 N   0  0  0  0  0  2  0  0  0  0  0  0
  191.0680  174.8430  137.3460 C   0  0  2  0  0  3  0  0  0  0  0  0
  191.5460  176.3040  137.3690 C   0  0  0  0  0  2  0  0  0  0  0  0
  192.9890  176.3780  137.8530 C   0  0  0  0  0  2  0  0  0  0  0  0
  192.9200  174.7230  134.9210 F   0  0  0  0  0  0  0  0  0  0  0  0
  193.3250  174.4210  136.2080 C   0  0  2  0  0  3  0  0  0  0  0  0
  192.1640  173.8180  137.0040 C   0  0  0  0  0  2  0  0  0  0  0  0
  193.9310  175.6660  136.8750 C   0  0  0  0  0  2  0  0  0  0  0  0
  181.2540  176.8710  137.7690 C   0  0  0  0  0  2  0  0  0  0  0  0
  180.2040  175.0170  139.0420 C   0  0  0  0  0  3  0  0  0  0  0  0
  179.7940  173.8310  139.1400 O   0  0  0  0  0  0  0  0  0  0  0  0
  180.6660  175.5400  137.7920 N   0  0  0  0  0  0  0  0  0  0  0  0
  180.7970  174.7000  136.6040 C   0  0  0  0  0  2  0  0  0  0  0  0
  182.8200  174.2770  135.2390 C   0  0  0  0  0  1  0  0  0  0  0  0
  182.1460  173.9910  136.5640 C   0  0  2  0  0  3  0  0  0  0  0  0
  181.9680  172.5580  136.7110 N   0  0  0  0  0  1  0  0  0  0  0  0
  1 23  1  0  0  0  0
  2 12  1  0  0  0  0
  3  1  1  1  0  0  0
  3  7  1  0  0  0  0
  4  5  1  0  0  0  0
  5 37  1  6  0  0  0
  5 24  1  0  0  0  0
  6  2  2  0  0  0  0
  7  4  1  6  0  0  0
  8  7  1  0  0  0  0
  9 17  1  0  0  0  0
 10 15  1  0  0  0  0
 11  8  1  0  0  0  0
 13 14  1  0  0  0  0
 14 11  2  0  0  0  0
 14  3  1  0  0  0  0
 15  6  1  0  0  0  0
 15  9  2  0  0  0  0
 16 18  1  0  0  0  0
 16  6  1  0  0  0  0
 17 12  2  0  0  0  0
 18 22  2  0  0  0  0
 19 20  1  1  0  0  0
 19 18  1  0  0  0  0
 20 21  2  0  0  0  0
 21 22  1  0  0  0  0
 22 25  1  0  0  0  0
 23 19  1  0  0  0  0
 24 10  1  0  0  0  0
 25 26  3  0  0  0  0
 27 13  1  0  0  0  0
 27 28  1  0  0  0  0
 28 29  1  0  0  0  0
 30 29  1  6  0  0  0
 30 31  1  0  0  0  0
 31 32  1  0  0  0  0
 34 33  1  6  0  0  0
 34 36  1  0  0  0  0
 34 35  1  0  0  0  0
 35 30  1  0  0  0  0
 36 32  1  0  0  0  0
 37 40  1  0  0  0  0
 38 39  2  0  0  0  0
 40 38  1  0  0  0  0
 41 40  1  0  0  0  0
 43 42  1  6  0  0  0
 43 41  1  0  0  0  0
 43 44  1  0  0  0  0
M  END
>  <MODEL>
7

>  <REMARK>
 VINA RESULT:      -7.2      3.570      8.463
  Name = 
  9 active torsions:
  status: ('A' for Active; 'I' for Inactive)
    1  A    between atoms: C_2  and  N_44
    2  A    between atoms: C_8  and  C_38
    3  A    between atoms: C_13  and  C_41
    4  A    between atoms: C_15  and  C_23
    5  A    between atoms: N_18  and  C_34
    6  A    between atoms: N_18  and  N_44
    7  A    between atoms: C_23  and  N_25
    8  A    between atoms: N_25  and  C_38
    9  A    between atoms: N_26  and  C_34
                            x       y       z     vdW  Elec       q    Type
                         _______ _______ _______ _____ _____    ______ ____

>  <TORSDO>
F 9

$$$$
=
 OpenBabel11042412213D

 44 48  0  0  1  0  0  0  0  0999 V2000
  184.6460  179.2200  138.5220 C   0  0  0  0  0  2  0  0  0  0  0  0
  189.6290  176.9520  137.5130 C   0  0  0  0  0  3  0  0  0  0  0  0
  184.2710  179.3380  140.0030 C   0  0  2  0  0  3  0  0  0  0  0  0
  185.8680  179.2130  141.9350 C   0  0  0  0  0  2  0  0  0  0  0  0
  186.8310  178.3300  142.7300 C   0  0  1  0  0  3  0  0  0  0  0  0
  188.6440  177.2640  138.4560 C   0  0  0  0  0  0  0  0  0  0  0  0
  185.1160  178.4040  140.8800 C   0  0  1  0  0  3  0  0  0  0  0  0
  184.1430  177.5750  141.5050 O   0  0  0  0  0  0  0  0  0  0  0  0
  190.2830  177.0860  140.2340 C   0  0  0  0  0  3  0  0  0  0  0  0
  187.9510  177.6560  140.7110 O   0  0  0  0  0  0  0  0  0  0  0  0
  182.8610  177.8620  141.1100 N   0  0  0  0  0  0  0  0  0  0  0  0
  190.9350  176.6840  137.9350 C   0  0  0  0  0  3  0  0  0  0  0  0
  181.7170  179.4040  139.6880 N   0  0  0  0  0  2  0  0  0  0  0  0
  182.8920  178.8360  140.2690 C   0  0  0  0  0  0  0  0  0  0  0  0
  188.9720  177.3420  139.8130 C   0  0  0  0  0  0  0  0  0  0  0  0
  187.3300  177.6620  138.0660 N   0  0  0  0  0  2  0  0  0  0  0  0
  191.2630  176.7530  139.2930 C   0  0  0  0  0  3  0  0  0  0  0  0
  186.4520  177.1090  137.0810 C   0  0  0  0  0  0  0  0  0  0  0  0
  185.1390  177.7350  136.7630 C   0  0  1  0  0  3  0  0  0  0  0  0
  184.5390  176.6550  135.9170 C   0  0  0  0  0  3  0  0  0  0  0  0
  185.3190  175.6280  135.8040 N   0  0  0  0  0  0  0  0  0  0  0  0
  186.4990  175.8960  136.5430 C   0  0  0  0  0  0  0  0  0  0  0  0
  184.3650  177.8900  137.9870 N   0  0  0  0  0  2  0  0  0  0  0  0
  188.1670  178.1790  142.0080 C   0  0  0  0  0  2  0  0  0  0  0  0
  187.4900  174.8820  136.7880 C   0  0  0  0  0  0  0  0  0  0  0  0
  188.2840  174.0640  136.9810 N   0  0  0  0  0  0  0  0  0  0  0  0
  180.4450  178.6980  139.6750 C   0  0  0  0  0  2  0  0  0  0  0  0
  179.5890  179.2150  138.6160 N   0  0  0  0  0  2  0  0  0  0  0  0
  180.3900  179.4530  137.4850 N   0  0  0  0  0  2  0  0  0  0  0  0
  179.8770  180.6170  136.7620 C   0  0  2  0  0  3  0  0  0  0  0  0
  180.7300  180.9880  135.5380 C   0  0  0  0  0  2  0  0  0  0  0  0
  180.4190  182.4110  135.0920 C   0  0  0  0  0  2  0  0  0  0  0  0
  181.8130  182.5230  138.1560 F   0  0  0  0  0  0  0  0  0  0  0  0
  180.6050  182.9220  137.6130 C   0  0  2  0  0  3  0  0  0  0  0  0
  179.5770  181.7900  137.7110 C   0  0  0  0  0  2  0  0  0  0  0  0
  180.8140  183.4220  136.1740 C   0  0  0  0  0  2  0  0  0  0  0  0
  187.0710  178.9540  144.0950 C   0  0  0  0  0  2  0  0  0  0  0  0
  184.9060  179.0070  145.3090 C   0  0  0  0  0  3  0  0  0  0  0  0
  184.1440  178.6260  146.2350 O   0  0  0  0  0  0  0  0  0  0  0  0
  186.1760  178.3830  145.0920 N   0  0  0  0  0  0  0  0  0  0  0  0
  186.7010  177.3630  145.9960 C   0  0  0  0  0  2  0  0  0  0  0  0
  189.1400  177.1320  146.3620 C   0  0  0  0  0  1  0  0  0  0  0  0
  187.8940  177.8780  146.7920 C   0  0  2  0  0  3  0  0  0  0  0  0
  187.6800  177.6760  148.2130 N   0  0  0  0  0  1  0  0  0  0  0  0
  2 12  2  0  0  0  0
  2  6  1  0  0  0  0
  3  1  1  6  0  0  0
  3 14  1  0  0  0  0
  3  7  1  0  0  0  0
  4  5  1  0  0  0  0
  5 37  1  1  0  0  0
  6 15  2  0  0  0  0
  7  8  1  0  0  0  0
  7  4  1  1  0  0  0
 10 24  1  0  0  0  0
 11  8  1  0  0  0  0
 12 17  1  0  0  0  0
 13 14  1  0  0  0  0
 14 11  2  0  0  0  0
 15  9  1  0  0  0  0
 15 10  1  0  0  0  0
 16  6  1  0  0  0  0
 17  9  2  0  0  0  0
 18 16  1  0  0  0  0
 19 20  1  6  0  0  0
 19 18  1  0  0  0  0
 19 23  1  0  0  0  0
 21 20  2  0  0  0  0
 21 22  1  0  0  0  0
 22 25  1  0  0  0  0
 22 18  2  0  0  0  0
 23  1  1  0  0  0  0
 24  5  1  0  0  0  0
 25 26  3  0  0  0  0
 27 13  1  0  0  0  0
 28 27  1  0  0  0  0
 29 28  1  0  0  0  0
 30 29  1  1  0  0  0
 30 35  1  0  0  0  0
 31 30  1  0  0  0  0
 32 31  1  0  0  0  0
 32 36  1  0  0  0  0
 34 35  1  0  0  0  0
 34 33  1  6  0  0  0
 36 34  1  0  0  0  0
 37 40  1  0  0  0  0
 38 39  2  0  0  0  0
 40 38  1  0  0  0  0
 40 41  1  0  0  0  0
 41 43  1  0  0  0  0
 43 42  1  6  0  0  0
 43 44  1  0  0  0  0
M  END
>  <MODEL>
8

>  <REMARK>
 VINA RESULT:      -7.1      3.353      9.184
  Name = 
  9 active torsions:
  status: ('A' for Active; 'I' for Inactive)
    1  A    between atoms: C_2  and  N_44
    2  A    between atoms: C_8  and  C_38
    3  A    between atoms: C_13  and  C_41
    4  A    between atoms: C_15  and  C_23
    5  A    between atoms: N_18  and  C_34
    6  A    between atoms: N_18  and  N_44
    7  A    between atoms: C_23  and  N_25
    8  A    between atoms: N_25  and  C_38
    9  A    between atoms: N_26  and  C_34
                            x       y       z     vdW  Elec       q    Type
                         _______ _______ _______ _____ _____    ______ ____

>  <TORSDO>
F 9

$$$$
=
 OpenBabel11042412213D

 44 48  0  0  1  0  0  0  0  0999 V2000
  186.3490  179.4430  141.5860 C   0  0  0  0  0  2  0  0  0  0  0  0
  188.2850  177.8440  136.6160 C   0  0  0  0  0  3  0  0  0  0  0  0
  187.0630  178.8250  142.7930 C   0  0  2  0  0  3  0  0  0  0  0  0
  189.3200  177.7270  142.7590 C   0  0  0  0  0  2  0  0  0  0  0  0
  190.1480  176.5450  142.2540 C   0  0  1  0  0  3  0  0  0  0  0  0
  188.3170  177.6760  138.0050 C   0  0  0  0  0  0  0  0  0  0  0  0
  187.8420  177.5610  142.4070 C   0  0  1  0  0  3  0  0  0  0  0  0
  187.2590  176.5560  143.2270 O   0  0  0  0  0  0  0  0  0  0  0  0
  190.4860  176.6070  137.8300 C   0  0  0  0  0  3  0  0  0  0  0  0
  189.4000  176.9240  140.0000 O   0  0  0  0  0  0  0  0  0  0  0  0
  186.2400  177.0310  144.0140 N   0  0  0  0  0  0  0  0  0  0  0  0
  189.3440  177.3720  135.8340 C   0  0  0  0  0  3  0  0  0  0  0  0
  185.1420  179.0990  144.4830 N   0  0  0  0  0  2  0  0  0  0  0  0
  186.0980  178.2910  143.7960 C   0  0  0  0  0  0  0  0  0  0  0  0
  189.4200  177.0690  138.6120 C   0  0  0  0  0  0  0  0  0  0  0  0
  187.3210  178.2450  138.8540 N   0  0  0  0  0  2  0  0  0  0  0  0
  190.4440  176.7560  136.4400 C   0  0  0  0  0  3  0  0  0  0  0  0
  185.8970  178.2700  138.7190 C   0  0  0  0  0  0  0  0  0  0  0  0
  185.0320  179.0020  139.6850 C   0  0  1  0  0  3  0  0  0  0  0  0
  183.6890  178.4930  139.2620 C   0  0  0  0  0  3  0  0  0  0  0  0
  183.7700  177.6370  138.2950 N   0  0  0  0  0  0  0  0  0  0  0  0
  185.1400  177.4780  137.9690 C   0  0  0  0  0  0  0  0  0  0  0  0
  185.3250  178.5540  141.0380 N   0  0  0  0  0  2  0  0  0  0  0  0
  190.5550  176.7360  140.7960 C   0  0  0  0  0  2  0  0  0  0  0  0
  185.5940  176.4510  137.0690 C   0  0  0  0  0  0  0  0  0  0  0  0
  185.9550  175.6230  136.3470 N   0  0  0  0  0  0  0  0  0  0  0  0
  183.9990  178.5210  145.1740 C   0  0  0  0  0  2  0  0  0  0  0  0
  182.7720  179.2040  144.7830 N   0  0  0  0  0  2  0  0  0  0  0  0
  182.7810  179.3500  143.3850 N   0  0  0  0  0  2  0  0  0  0  0  0
  181.6690  178.5940  142.8100 C   0  0  2  0  0  3  0  0  0  0  0  0
  181.4050  178.9400  141.3360 C   0  0  0  0  0  2  0  0  0  0  0  0
  180.0150  178.4700  140.9250 C   0  0  0  0  0  2  0  0  0  0  0  0
  179.6910  180.8770  143.2570 F   0  0  0  0  0  0  0  0  0  0  0  0
  179.3160  179.5490  143.1600 C   0  0  2  0  0  3  0  0  0  0  0  0
  180.4220  178.6420  143.7100 C   0  0  0  0  0  2  0  0  0  0  0  0
  178.9310  179.2160  141.7100 C   0  0  0  0  0  2  0  0  0  0  0  0
  191.3990  176.4110  143.1070 C   0  0  0  0  0  2  0  0  0  0  0  0
  191.6710  178.8350  143.5640 C   0  0  0  0  0  3  0  0  0  0  0  0
  191.8760  179.8010  144.3450 O   0  0  0  0  0  0  0  0  0  0  0  0
  191.4960  177.5050  144.0620 N   0  0  0  0  0  0  0  0  0  0  0  0
  191.6620  177.1810  145.4770 C   0  0  0  0  0  2  0  0  0  0  0  0
  189.3870  177.8780  146.1660 C   0  0  0  0  0  1  0  0  0  0  0  0
  190.3530  176.7140  146.1030 C   0  0  2  0  0  3  0  0  0  0  0  0
  190.5850  176.2100  147.4440 N   0  0  0  0  0  1  0  0  0  0  0  0
  2  6  1  0  0  0  0
  3  1  1  6  0  0  0
  3 14  1  0  0  0  0
  5  4  1  0  0  0  0
  5 37  1  1  0  0  0
  6 15  2  0  0  0  0
  6 16  1  0  0  0  0
  7  4  1  1  0  0  0
  7  3  1  0  0  0  0
  7  8  1  0  0  0  0
  8 11  1  0  0  0  0
  9 15  1  0  0  0  0
 10 24  1  0  0  0  0
 12 17  1  0  0  0  0
 12  2  2  0  0  0  0
 13 27  1  0  0  0  0
 14 11  2  0  0  0  0
 14 13  1  0  0  0  0
 15 10  1  0  0  0  0
 17  9  2  0  0  0  0
 18 16  1  0  0  0  0
 18 19  1  0  0  0  0
 19 20  1  6  0  0  0
 19 23  1  0  0  0  0
 21 20  2  0  0  0  0
 22 21  1  0  0  0  0
 22 18  2  0  0  0  0
 23  1  1  0  0  0  0
 24  5  1  0  0  0  0
 25 22  1  0  0  0  0
 26 25  3  0  0  0  0
 28 27  1  0  0  0  0
 29 28  1  0  0  0  0
 30 29  1  1  0  0  0
 30 35  1  0  0  0  0
 31 30  1  0  0  0  0
 32 31  1  0  0  0  0
 32 36  1  0  0  0  0
 34 33  1  6  0  0  0
 34 35  1  0  0  0  0
 36 34  1  0  0  0  0
 37 40  1  0  0  0  0
 38 40  1  0  0  0  0
 38 39  2  0  0  0  0
 40 41  1  0  0  0  0
 41 43  1  0  0  0  0
 43 42  1  1  0  0  0
 43 44  1  0  0  0  0
M  END
>  <MODEL>
9

>  <REMARK>
 VINA RESULT:      -7.0      2.886      7.135
  Name = 
  9 active torsions:
  status: ('A' for Active; 'I' for Inactive)
    1  A    between atoms: C_2  and  N_44
    2  A    between atoms: C_8  and  C_38
    3  A    between atoms: C_13  and  C_41
    4  A    between atoms: C_15  and  C_23
    5  A    between atoms: N_18  and  C_34
    6  A    between atoms: N_18  and  N_44
    7  A    between atoms: C_23  and  N_25
    8  A    between atoms: N_25  and  C_38
    9  A    between atoms: N_26  and  C_34
                            x       y       z     vdW  Elec       q    Type
                         _______ _______ _______ _____ _____    ______ ____

>  <TORSDO>
F 9

$$$$
