=
 OpenBabel11042413243D

 50 51  0  0  1  0  0  0  0  0999 V2000
  187.6230  177.8540  145.3110 C   0  0  1  0  0  3  0  0  0  0  0  0
  188.4980  177.0170  144.3610 C   0  0  1  0  0  3  0  0  0  0  0  0
  187.6920  176.4080  143.2200 C   0  0  0  0  0  1  0  0  0  0  0  0
  189.5960  177.8770  143.7360 C   0  0  0  0  0  2  0  0  0  0  0  0
  191.9720  177.9470  143.5800 F   0  0  0  0  0  0  0  0  0  0  0  0
  191.0160  176.0160  144.2500 F   0  0  0  0  0  0  0  0  0  0  0  0
  190.8800  177.1140  143.4180 C   0  0  0  0  0  0  0  0  0  0  0  0
  190.8530  176.6540  141.9680 C   0  0  0  0  0  2  0  0  0  0  0  0
  190.5950  177.7720  141.0730 N   0  0  0  0  0  2  0  0  0  0  0  0
  189.5350  177.3900  140.2450 N   0  0  0  0  0  2  0  0  0  0  0  0
  189.9180  177.7210  138.8840 C   0  0  0  0  0  2  0  0  0  0  0  0
  188.3400  179.0450  137.7030 O   0  0  0  0  0  0  0  0  0  0  0  0
  188.7090  177.8880  138.0390 C   0  0  0  0  0  0  0  0  0  0  0  0
  187.9730  176.7370  137.6190 N   0  0  0  0  0  2  0  0  0  0  0  0
  186.0810  175.4570  136.3030 O   0  0  0  0  0  0  0  0  0  0  0  0
  186.6410  176.8360  136.5130 S   0  0  0  0  0  0  0  0  0  0  0  0
  187.2060  177.4840  134.9540 C   0  0  0  0  0  1  0  0  0  0  0  0
  185.5630  177.7260  137.0780 O   0  0  0  0  0  0  0  0  0  0  0  0
  186.1620  177.8750  144.8520 C   0  0  0  0  0  2  0  0  0  0  0  0
  185.4000  179.0220  145.4920 C   0  0  0  0  0  2  0  0  0  0  0  0
  183.9050  178.7950  145.3230 C   0  0  0  0  0  2  0  0  0  0  0  0
  183.5360  178.7480  143.8730 C   0  0  0  0  0  3  0  0  0  0  0  0
  182.2800  178.9390  143.4700 C   0  0  0  0  0  3  0  0  0  0  0  0
  181.9430  178.8730  142.0190 C   0  0  0  0  0  2  0  0  0  0  0  0
  183.0680  178.2240  141.2290 C   0  0  0  0  0  2  0  0  0  0  0  0
  182.5400  177.1230  140.3200 C   0  0  0  0  0  2  0  0  0  0  0  0
  182.5620  177.5680  138.8680 C   0  0  0  0  0  2  0  0  0  0  0  0
  181.1970  176.2170  137.2700 C   0  0  0  0  0  0  0  0  0  0  0  0
  181.2650  174.9260  136.5300 C   0  0  0  0  0  3  0  0  0  0  0  0
  183.1940  175.3680  137.7840 O   0  0  0  0  0  0  0  0  0  0  0  0
  182.6560  174.3930  136.9000 C   0  0  0  0  0  3  0  0  0  0  0  0
  182.2960  176.4020  137.9740 C   0  0  0  0  0  0  0  0  0  0  0  0
  179.9980  177.1040  137.3040 C   0  0  0  0  0  2  0  0  0  0  0  0
  180.0310  178.0340  136.1850 N   0  0  0  0  0  2  0  0  0  0  0  0
  179.7890  179.3600  136.7290 C   0  0  0  0  0  2  0  0  0  0  0  0
  179.8950  180.4070  135.6310 C   0  0  0  0  0  2  0  0  0  0  0  0
  179.6750  181.7910  136.2200 C   0  0  0  0  0  2  0  0  0  0  0  0
  180.8630  184.9090  135.8750 C   0  0  0  0  0  2  0  0  0  0  0  0
  180.9930  183.2190  137.5370 C   0  0  0  0  0  2  0  0  0  0  0  0
  180.9330  182.5240  136.2540 N   0  0  0  0  0  0  0  0  0  0  0  0
  180.8730  183.5470  135.2140 C   0  0  0  0  0  2  0  0  0  0  0  0
  181.3650  184.6570  137.2670 C   0  0  0  0  0  2  0  0  0  0  0  0
  187.6940  177.2900  146.6170 O   0  0  0  0  0  0  0  0  0  0  0  0
  187.7640  178.9710  148.2090 O   0  0  0  0  0  0  0  0  0  0  0  0
  188.2900  177.9450  147.6990 C   0  0  0  0  0  0  0  0  0  0  0  0
  189.5800  177.4300  148.2330 C   0  0  0  0  0  2  0  0  0  0  0  0
  190.2690  176.5750  147.1870 C   0  0  0  0  0  2  0  0  0  0  0  0
  192.2370  177.1660  148.3750 O   0  0  0  0  0  1  0  0  0  0  0  0
  192.4570  175.4190  146.9110 O   0  0  0  0  0  0  0  0  0  0  0  0
  191.7030  176.4040  147.5330 C   0  0  0  0  0  0  0  0  0  0  0  0
  1 19  1  6  0  0  0
  1 43  1  0  0  0  0
  2  3  1  6  0  0  0
  2  1  1  0  0  0  0
  4  2  1  0  0  0  0
  7  5  1  0  0  0  0
  7  4  1  0  0  0  0
  7  6  1  0  0  0  0
  8  7  1  0  0  0  0
  9  8  1  0  0  0  0
 10  9  1  0  0  0  0
 11 10  1  0  0  0  0
 12 13  2  0  0  0  0
 13 11  1  0  0  0  0
 14 13  1  0  0  0  0
 15 16  2  0  0  0  0
 16 18  2  0  0  0  0
 16 14  1  0  0  0  0
 17 16  1  0  0  0  0
 19 20  1  0  0  0  0
 21 20  1  0  0  0  0
 22 21  1  0  0  0  0
 23 22  2  0  0  0  0
 24 23  1  0  0  0  0
 25 24  1  0  0  0  0
 26 25  1  0  0  0  0
 27 26  1  0  0  0  0
 28 33  1  0  0  0  0
 28 32  2  0  0  0  0
 29 31  2  0  0  0  0
 29 28  1  0  0  0  0
 30 32  1  0  0  0  0
 31 30  1  0  0  0  0
 32 27  1  0  0  0  0
 34 35  1  0  0  0  0
 34 33  1  0  0  0  0
 36 37  1  0  0  0  0
 36 35  1  0  0  0  0
 37 40  1  0  0  0  0
 38 42  1  0  0  0  0
 40 39  1  0  0  0  0
 41 38  1  0  0  0  0
 41 40  1  0  0  0  0
 42 39  1  0  0  0  0
 43 45  1  0  0  0  0
 45 44  2  0  0  0  0
 45 46  1  0  0  0  0
 47 50  1  0  0  0  0
 47 46  1  0  0  0  0
 49 50  2  0  0  0  0
 50 48  1  0  0  0  0
M  END
>  <MODEL>
1

>  <REMARK>
 VINA RESULT:      -6.5      0.000      0.000
  Name = 
  29 active torsions:
  status: ('A' for Active; 'I' for Inactive)
    1  A    between atoms: C_2  and  N_22
    2  A    between atoms: C_2  and  C_46
    3  A    between atoms: N_3  and  C_10
    4  A    between atoms: N_3  and  N_27
    5  A    between atoms: C_5  and  C_14
    6  A    between atoms: C_10  and  C_50
    7  A    between atoms: C_11  and  C_30
    8  A    between atoms: C_11  and  C_41
    9  A    between atoms: C_12  and  C_20
   10  A    between atoms: C_13  and  C_17
   11  A    between atoms: C_13  and  C_47
   12  A    between atoms: C_14  and  C_48
   13  A    between atoms: C_15  and  C_30
   14  A    between atoms: C_15  and  C_35
   15  A    between atoms: C_17  and  C_36
   16  A    between atoms: O_18  and  C_19
   17  A    between atoms: O_18  and  C_36
   18  A    between atoms: C_19  and  C_21
   19  A    between atoms: C_19  and  C_28
   20  A    between atoms: C_20  and  N_22
   21  A    between atoms: C_21  and  C_43
   22  A    between atoms: C_26  and  N_29
   23  A    between atoms: C_26  and  C_46
   24  A    between atoms: N_27  and  C_37
   25  A    between atoms: C_28  and  C_48
   26  A    between atoms: C_32  and  C_35
   27  A    between atoms: S_33  and  N_44
   28  A    between atoms: C_37  and  C_42
   29  A    between atoms: C_43  and  C_50
                            x       y       z     vdW  Elec       q    Type
                         _______ _______ _______ _____ _____    ______ ____

>  <TORSDO>
F 29

$$$$
=
 OpenBabel11042413243D

 50 51  0  0  1  0  0  0  0  0999 V2000
  187.9220  177.9710  145.4560 C   0  0  1  0  0  3  0  0  0  0  0  0
  189.0240  177.9600  144.3820 C   0  0  1  0  0  3  0  0  0  0  0  0
  190.1140  178.9890  144.6640 C   0  0  0  0  0  1  0  0  0  0  0  0
  189.6980  176.5910  144.3090 C   0  0  0  0  0  2  0  0  0  0  0  0
  190.4220  174.7860  142.9340 F   0  0  0  0  0  0  0  0  0  0  0  0
  188.4900  175.8180  142.3900 F   0  0  0  0  0  0  0  0  0  0  0  0
  189.7630  176.0010  142.9030 C   0  0  0  0  0  0  0  0  0  0  0  0
  190.5470  176.9360  141.9940 C   0  0  0  0  0  2  0  0  0  0  0  0
  189.9020  177.0600  140.6950 N   0  0  0  0  0  2  0  0  0  0  0  0
  190.5900  176.2130  139.8200 N   0  0  0  0  0  2  0  0  0  0  0  0
  191.7530  176.9430  139.3500 C   0  0  0  0  0  2  0  0  0  0  0  0
  191.7790  175.2360  137.7000 O   0  0  0  0  0  0  0  0  0  0  0  0
  192.3380  176.2640  138.1660 C   0  0  0  0  0  0  0  0  0  0  0  0
  193.5310  176.7790  137.5700 N   0  0  0  0  0  2  0  0  0  0  0  0
  193.1040  176.0720  135.0670 O   0  0  0  0  0  0  0  0  0  0  0  0
  194.1920  176.1350  136.1030 S   0  0  0  0  0  0  0  0  0  0  0  0
  194.8170  174.4940  136.3980 C   0  0  0  0  0  1  0  0  0  0  0  0
  195.3010  177.0240  135.6000 O   0  0  0  0  0  0  0  0  0  0  0  0
  186.6220  177.3580  144.9280 C   0  0  0  0  0  2  0  0  0  0  0  0
  186.2840  177.8890  143.5460 C   0  0  0  0  0  2  0  0  0  0  0  0
  185.4970  179.1840  143.6790 C   0  0  0  0  0  2  0  0  0  0  0  0
  184.1840  178.9410  144.3560 C   0  0  0  0  0  3  0  0  0  0  0  0
  183.0340  179.0160  143.6870 C   0  0  0  0  0  3  0  0  0  0  0  0
  181.7420  178.7810  144.3940 C   0  0  0  0  0  2  0  0  0  0  0  0
  180.6260  178.4880  143.4050 C   0  0  0  0  0  2  0  0  0  0  0  0
  180.5710  179.5400  142.3080 C   0  0  0  0  0  2  0  0  0  0  0  0
  179.5750  179.1440  141.2320 C   0  0  0  0  0  2  0  0  0  0  0  0
  180.7720  177.3410  139.9830 C   0  0  0  0  0  0  0  0  0  0  0  0
  180.6860  175.8720  139.7520 C   0  0  0  0  0  3  0  0  0  0  0  0
  179.0560  176.6640  141.2370 O   0  0  0  0  0  0  0  0  0  0  0  0
  179.5110  175.4540  140.6460 C   0  0  0  0  0  3  0  0  0  0  0  0
  179.8190  177.7330  140.8060 C   0  0  0  0  0  0  0  0  0  0  0  0
  181.7220  178.2480  139.2770 C   0  0  0  0  0  2  0  0  0  0  0  0
  183.0920  177.9270  139.6510 N   0  0  0  0  0  2  0  0  0  0  0  0
  183.9550  178.8450  138.9260 C   0  0  0  0  0  2  0  0  0  0  0  0
  185.2700  178.1660  138.5750 C   0  0  0  0  0  2  0  0  0  0  0  0
  185.1840  177.5690  137.1800 C   0  0  0  0  0  2  0  0  0  0  0  0
  188.1560  176.0220  137.3350 C   0  0  0  0  0  2  0  0  0  0  0  0
  186.5530  176.4490  135.6370 C   0  0  0  0  0  2  0  0  0  0  0  0
  186.4950  177.5900  136.5470 N   0  0  0  0  0  0  0  0  0  0  0  0
  187.4900  177.3570  137.5910 C   0  0  0  0  0  2  0  0  0  0  0  0
  187.8450  175.7130  135.9000 C   0  0  0  0  0  2  0  0  0  0  0  0
  188.3690  177.2220  146.5820 O   0  0  0  0  0  0  0  0  0  0  0  0
  188.0610  178.5410  148.4600 O   0  0  0  0  0  0  0  0  0  0  0  0
  188.8210  177.8170  147.7630 C   0  0  0  0  0  0  0  0  0  0  0  0
  190.2340  177.6080  148.1810 C   0  0  0  0  0  2  0  0  0  0  0  0
  190.8470  176.4710  147.3870 C   0  0  0  0  0  2  0  0  0  0  0  0
  192.8850  175.2560  147.3700 O   0  0  0  0  0  0  0  0  0  0  0  0
  192.8030  177.0210  148.8260 O   0  0  0  0  0  1  0  0  0  0  0  0
  192.2350  176.2150  147.8500 C   0  0  0  0  0  0  0  0  0  0  0  0
  1 19  1  6  0  0  0
  1 43  1  0  0  0  0
  2  3  1  1  0  0  0
  2  1  1  0  0  0  0
  4  2  1  0  0  0  0
  6  7  1  0  0  0  0
  7  5  1  0  0  0  0
  7  4  1  0  0  0  0
  8  7  1  0  0  0  0
  9  8  1  0  0  0  0
 10  9  1  0  0  0  0
 11 10  1  0  0  0  0
 12 13  2  0  0  0  0
 13 11  1  0  0  0  0
 14 13  1  0  0  0  0
 15 16  2  0  0  0  0
 16 17  1  0  0  0  0
 16 14  1  0  0  0  0
 18 16  2  0  0  0  0
 20 21  1  0  0  0  0
 20 19  1  0  0  0  0
 21 22  1  0  0  0  0
 23 22  2  0  0  0  0
 23 24  1  0  0  0  0
 25 24  1  0  0  0  0
 26 25  1  0  0  0  0
 27 26  1  0  0  0  0
 28 32  2  0  0  0  0
 29 28  1  0  0  0  0
 29 31  2  0  0  0  0
 31 30  1  0  0  0  0
 32 27  1  0  0  0  0
 32 30  1  0  0  0  0
 33 34  1  0  0  0  0
 33 28  1  0  0  0  0
 35 34  1  0  0  0  0
 36 35  1  0  0  0  0
 37 36  1  0  0  0  0
 38 41  1  0  0  0  0
 39 42  1  0  0  0  0
 39 40  1  0  0  0  0
 40 37  1  0  0  0  0
 40 41  1  0  0  0  0
 42 38  1  0  0  0  0
 43 45  1  0  0  0  0
 45 46  1  0  0  0  0
 45 44  2  0  0  0  0
 47 50  1  0  0  0  0
 47 46  1  0  0  0  0
 48 50  2  0  0  0  0
 50 49  1  0  0  0  0
M  END
>  <MODEL>
2

>  <REMARK>
 VINA RESULT:      -6.4      3.435      4.881
  Name = 
  29 active torsions:
  status: ('A' for Active; 'I' for Inactive)
    1  A    between atoms: C_2  and  N_22
    2  A    between atoms: C_2  and  C_46
    3  A    between atoms: N_3  and  C_10
    4  A    between atoms: N_3  and  N_27
    5  A    between atoms: C_5  and  C_14
    6  A    between atoms: C_10  and  C_50
    7  A    between atoms: C_11  and  C_30
    8  A    between atoms: C_11  and  C_41
    9  A    between atoms: C_12  and  C_20
   10  A    between atoms: C_13  and  C_17
   11  A    between atoms: C_13  and  C_47
   12  A    between atoms: C_14  and  C_48
   13  A    between atoms: C_15  and  C_30
   14  A    between atoms: C_15  and  C_35
   15  A    between atoms: C_17  and  C_36
   16  A    between atoms: O_18  and  C_19
   17  A    between atoms: O_18  and  C_36
   18  A    between atoms: C_19  and  C_21
   19  A    between atoms: C_19  and  C_28
   20  A    between atoms: C_20  and  N_22
   21  A    between atoms: C_21  and  C_43
   22  A    between atoms: C_26  and  N_29
   23  A    between atoms: C_26  and  C_46
   24  A    between atoms: N_27  and  C_37
   25  A    between atoms: C_28  and  C_48
   26  A    between atoms: C_32  and  C_35
   27  A    between atoms: S_33  and  N_44
   28  A    between atoms: C_37  and  C_42
   29  A    between atoms: C_43  and  C_50
                            x       y       z     vdW  Elec       q    Type
                         _______ _______ _______ _____ _____    ______ ____

>  <TORSDO>
F 29

$$$$
=
 OpenBabel11042413243D

 50 51  0  0  1  0  0  0  0  0999 V2000
  187.5850  177.6960  145.1260 C   0  0  1  0  0  3  0  0  0  0  0  0
  188.7100  176.9700  144.3670 C   0  0  1  0  0  3  0  0  0  0  0  0
  188.1780  176.1310  143.2110 C   0  0  0  0  0  1  0  0  0  0  0  0
  189.7060  177.9720  143.7830 C   0  0  0  0  0  2  0  0  0  0  0  0
  191.9470  178.2010  144.5570 F   0  0  0  0  0  0  0  0  0  0  0  0
  191.2010  176.1230  144.0830 F   0  0  0  0  0  0  0  0  0  0  0  0
  191.1410  177.4570  143.7140 C   0  0  0  0  0  0  0  0  0  0  0  0
  191.6720  177.6160  142.2980 C   0  0  0  0  0  2  0  0  0  0  0  0
  190.5790  177.7050  141.3400 N   0  0  0  0  0  2  0  0  0  0  0  0
  190.8810  176.8220  140.2990 N   0  0  0  0  0  2  0  0  0  0  0  0
  192.1430  177.2550  139.7260 C   0  0  0  0  0  2  0  0  0  0  0  0
  193.4910  176.7150  137.8480 O   0  0  0  0  0  0  0  0  0  0  0  0
  192.4600  176.4490  138.5200 C   0  0  0  0  0  0  0  0  0  0  0  0
  191.5900  175.3830  138.1310 N   0  0  0  0  0  2  0  0  0  0  0  0
  193.3400  173.7360  137.0480 O   0  0  0  0  0  0  0  0  0  0  0  0
  191.9660  174.3040  136.8270 S   0  0  0  0  0  0  0  0  0  0  0  0
  191.9390  175.1960  135.2860 C   0  0  0  0  0  1  0  0  0  0  0  0
  190.9660  173.1750  136.7840 O   0  0  0  0  0  0  0  0  0  0  0  0
  186.2220  177.4510  144.4740 C   0  0  0  0  0  2  0  0  0  0  0  0
  185.5100  178.7590  144.1780 C   0  0  0  0  0  2  0  0  0  0  0  0
  184.3110  178.9050  145.1030 C   0  0  0  0  0  2  0  0  0  0  0  0
  183.1060  179.3650  144.3420 C   0  0  0  0  0  3  0  0  0  0  0  0
  182.0320  178.5890  144.2080 C   0  0  0  0  0  3  0  0  0  0  0  0
  180.8530  179.0720  143.4320 C   0  0  0  0  0  2  0  0  0  0  0  0
  180.5910  178.1790  142.2300 C   0  0  0  0  0  2  0  0  0  0  0  0
  179.1310  178.2410  141.8050 C   0  0  0  0  0  2  0  0  0  0  0  0
  178.9640  177.7400  140.3820 C   0  0  0  0  0  2  0  0  0  0  0  0
  179.4280  175.5480  139.2740 C   0  0  0  0  0  0  0  0  0  0  0  0
  179.4490  174.0950  139.5990 C   0  0  0  0  0  3  0  0  0  0  0  0
  178.9440  175.4420  141.4480 O   0  0  0  0  0  0  0  0  0  0  0  0
  179.1310  174.0770  141.1000 C   0  0  0  0  0  3  0  0  0  0  0  0
  179.1170  176.2540  140.3430 C   0  0  0  0  0  0  0  0  0  0  0  0
  179.6070  176.1050  137.9020 C   0  0  0  0  0  2  0  0  0  0  0  0
  180.3760  175.1800  137.0830 N   0  0  0  0  0  2  0  0  0  0  0  0
  180.9680  175.9580  136.0080 C   0  0  0  0  0  2  0  0  0  0  0  0
  182.4570  176.1490  136.2540 C   0  0  0  0  0  2  0  0  0  0  0  0
  182.7120  177.5470  136.7920 C   0  0  0  0  0  2  0  0  0  0  0  0
  184.4120  179.2490  139.1310 C   0  0  0  0  0  2  0  0  0  0  0  0
  182.1890  178.4500  138.8960 C   0  0  0  0  0  2  0  0  0  0  0  0
  183.0430  177.4840  138.2100 N   0  0  0  0  0  0  0  0  0  0  0  0
  184.4200  177.9460  138.3590 C   0  0  0  0  0  2  0  0  0  0  0  0
  183.0670  179.2850  139.7960 C   0  0  0  0  0  2  0  0  0  0  0  0
  187.5540  177.2190  146.4680 O   0  0  0  0  0  0  0  0  0  0  0  0
  187.6690  178.3810  148.4680 O   0  0  0  0  0  0  0  0  0  0  0  0
  188.2660  177.8220  147.5080 C   0  0  0  0  0  0  0  0  0  0  0  0
  189.7540  177.8220  147.4600 C   0  0  0  0  0  2  0  0  0  0  0  0
  190.2680  176.4010  147.3370 C   0  0  0  0  0  2  0  0  0  0  0  0
  192.2690  177.2050  148.3290 O   0  0  0  0  0  1  0  0  0  0  0  0
  192.5200  175.4330  146.9020 O   0  0  0  0  0  0  0  0  0  0  0  0
  191.7360  176.3690  147.5590 C   0  0  0  0  0  0  0  0  0  0  0  0
  1 19  1  6  0  0  0
  1 43  1  0  0  0  0
  2  3  1  6  0  0  0
  2  1  1  0  0  0  0
  4  2  1  0  0  0  0
  7  4  1  0  0  0  0
  7  6  1  0  0  0  0
  7  5  1  0  0  0  0
  8  7  1  0  0  0  0
  9  8  1  0  0  0  0
 10  9  1  0  0  0  0
 11 10  1  0  0  0  0
 12 13  2  0  0  0  0
 13 11  1  0  0  0  0
 14 13  1  0  0  0  0
 16 15  2  0  0  0  0
 16 14  1  0  0  0  0
 17 16  1  0  0  0  0
 18 16  2  0  0  0  0
 20 19  1  0  0  0  0
 20 21  1  0  0  0  0
 22 21  1  0  0  0  0
 23 22  2  0  0  0  0
 24 23  1  0  0  0  0
 25 24  1  0  0  0  0
 26 25  1  0  0  0  0
 27 26  1  0  0  0  0
 28 29  1  0  0  0  0
 28 32  2  0  0  0  0
 29 31  2  0  0  0  0
 31 30  1  0  0  0  0
 32 27  1  0  0  0  0
 32 30  1  0  0  0  0
 33 28  1  0  0  0  0
 34 33  1  0  0  0  0
 35 36  1  0  0  0  0
 35 34  1  0  0  0  0
 36 37  1  0  0  0  0
 37 40  1  0  0  0  0
 38 42  1  0  0  0  0
 39 42  1  0  0  0  0
 40 41  1  0  0  0  0
 40 39  1  0  0  0  0
 41 38  1  0  0  0  0
 43 45  1  0  0  0  0
 45 44  2  0  0  0  0
 46 45  1  0  0  0  0
 47 46  1  0  0  0  0
 47 50  1  0  0  0  0
 49 50  2  0  0  0  0
 50 48  1  0  0  0  0
M  END
>  <MODEL>
3

>  <REMARK>
 VINA RESULT:      -6.3      3.217      3.666
  Name = 
  29 active torsions:
  status: ('A' for Active; 'I' for Inactive)
    1  A    between atoms: C_2  and  N_22
    2  A    between atoms: C_2  and  C_46
    3  A    between atoms: N_3  and  C_10
    4  A    between atoms: N_3  and  N_27
    5  A    between atoms: C_5  and  C_14
    6  A    between atoms: C_10  and  C_50
    7  A    between atoms: C_11  and  C_30
    8  A    between atoms: C_11  and  C_41
    9  A    between atoms: C_12  and  C_20
   10  A    between atoms: C_13  and  C_17
   11  A    between atoms: C_13  and  C_47
   12  A    between atoms: C_14  and  C_48
   13  A    between atoms: C_15  and  C_30
   14  A    between atoms: C_15  and  C_35
   15  A    between atoms: C_17  and  C_36
   16  A    between atoms: O_18  and  C_19
   17  A    between atoms: O_18  and  C_36
   18  A    between atoms: C_19  and  C_21
   19  A    between atoms: C_19  and  C_28
   20  A    between atoms: C_20  and  N_22
   21  A    between atoms: C_21  and  C_43
   22  A    between atoms: C_26  and  N_29
   23  A    between atoms: C_26  and  C_46
   24  A    between atoms: N_27  and  C_37
   25  A    between atoms: C_28  and  C_48
   26  A    between atoms: C_32  and  C_35
   27  A    between atoms: S_33  and  N_44
   28  A    between atoms: C_37  and  C_42
   29  A    between atoms: C_43  and  C_50
                            x       y       z     vdW  Elec       q    Type
                         _______ _______ _______ _____ _____    ______ ____

>  <TORSDO>
F 29

$$$$
=
 OpenBabel11042413243D

 50 51  0  0  1  0  0  0  0  0999 V2000
  189.1890  177.3410  144.1960 C   0  0  1  0  0  3  0  0  0  0  0  0
  189.8970  178.0030  143.0000 C   0  0  1  0  0  3  0  0  0  0  0  0
  190.9410  179.0220  143.4390 C   0  0  0  0  0  1  0  0  0  0  0  0
  190.6110  176.9570  142.1440 C   0  0  0  0  0  2  0  0  0  0  0  0
  189.9270  176.0150  140.0660 F   0  0  0  0  0  0  0  0  0  0  0  0
  189.5960  178.2260  140.3820 F   0  0  0  0  0  0  0  0  0  0  0  0
  190.4440  177.1620  140.6410 C   0  0  0  0  0  0  0  0  0  0  0  0
  191.8020  177.4300  140.0090 C   0  0  0  0  0  2  0  0  0  0  0  0
  191.9570  176.6780  138.7720 N   0  0  0  0  0  2  0  0  0  0  0  0
  193.3290  176.6070  138.5120 N   0  0  0  0  0  2  0  0  0  0  0  0
  193.5140  175.6000  137.4820 C   0  0  0  0  0  2  0  0  0  0  0  0
  195.0070  174.0270  138.4480 O   0  0  0  0  0  0  0  0  0  0  0  0
  194.8490  174.9660  137.6230 C   0  0  0  0  0  0  0  0  0  0  0  0
  195.9410  175.4270  136.8250 N   0  0  0  0  0  2  0  0  0  0  0  0
  197.3060  173.2120  136.4000 O   0  0  0  0  0  0  0  0  0  0  0  0
  197.4880  174.6440  136.8210 S   0  0  0  0  0  0  0  0  0  0  0  0
  198.1860  174.6910  138.4590 C   0  0  0  0  0  1  0  0  0  0  0  0
  198.4140  175.3310  135.8480 O   0  0  0  0  0  0  0  0  0  0  0  0
  187.9700  176.5310  143.7460 C   0  0  0  0  0  2  0  0  0  0  0  0
  186.9470  177.4140  143.0560 C   0  0  0  0  0  2  0  0  0  0  0  0
  186.5910  178.5830  143.9630 C   0  0  0  0  0  2  0  0  0  0  0  0
  185.1670  178.4890  144.4150 C   0  0  0  0  0  3  0  0  0  0  0  0
  184.3040  179.4820  144.2010 C   0  0  0  0  0  3  0  0  0  0  0  0
  182.8950  179.3630  144.6760 C   0  0  0  0  0  2  0  0  0  0  0  0
  182.1160  178.3750  143.8230 C   0  0  0  0  0  2  0  0  0  0  0  0
  181.6310  179.0220  142.5340 C   0  0  0  0  0  2  0  0  0  0  0  0
  181.9340  178.1340  141.3400 C   0  0  0  0  0  2  0  0  0  0  0  0
  182.3820  178.6260  138.9320 C   0  0  0  0  0  0  0  0  0  0  0  0
  182.0460  179.6480  137.9010 C   0  0  0  0  0  3  0  0  0  0  0  0
  181.0110  180.0500  139.9640 O   0  0  0  0  0  0  0  0  0  0  0  0
  181.0930  180.5880  138.6510 C   0  0  0  0  0  3  0  0  0  0  0  0
  181.7930  178.9150  140.0750 C   0  0  0  0  0  0  0  0  0  0  0  0
  183.3520  177.5120  138.7250 C   0  0  0  0  0  2  0  0  0  0  0  0
  184.3890  177.9180  137.7870 N   0  0  0  0  0  2  0  0  0  0  0  0
  184.5310  176.8410  136.8220 C   0  0  0  0  0  2  0  0  0  0  0  0
  185.9560  176.7960  136.2900 C   0  0  0  0  0  2  0  0  0  0  0  0
  186.7340  175.7010  137.0000 C   0  0  0  0  0  2  0  0  0  0  0  0
  189.1630  177.6730  135.7900 C   0  0  0  0  0  2  0  0  0  0  0  0
  187.9300  177.5500  137.8140 C   0  0  0  0  0  2  0  0  0  0  0  0
  188.0690  176.1760  137.3390 N   0  0  0  0  0  0  0  0  0  0  0  0
  188.8430  176.2260  136.1010 C   0  0  0  0  0  2  0  0  0  0  0  0
  188.9470  178.3960  137.0870 C   0  0  0  0  0  2  0  0  0  0  0  0
  190.1100  176.4740  144.8520 O   0  0  0  0  0  0  0  0  0  0  0  0
  191.9630  177.2040  146.0340 O   0  0  0  0  0  0  0  0  0  0  0  0
  190.7640  176.8150  146.0390 C   0  0  0  0  0  0  0  0  0  0  0  0
  190.0330  176.6860  147.3290 C   0  0  0  0  0  2  0  0  0  0  0  0
  189.5300  178.0440  147.7780 C   0  0  0  0  0  2  0  0  0  0  0  0
  187.2180  177.9660  147.2470 O   0  0  0  0  0  0  0  0  0  0  0  0
  187.7200  177.8970  149.4800 O   0  0  0  0  0  1  0  0  0  0  0  0
  188.0940  177.9600  148.1460 C   0  0  0  0  0  0  0  0  0  0  0  0
  1 19  1  6  0  0  0
  1 43  1  0  0  0  0
  2  3  1  1  0  0  0
  2  1  1  0  0  0  0
  4  2  1  0  0  0  0
  5  7  1  0  0  0  0
  6  7  1  0  0  0  0
  7  4  1  0  0  0  0
  8  7  1  0  0  0  0
  9  8  1  0  0  0  0
 10  9  1  0  0  0  0
 11 13  1  0  0  0  0
 11 10  1  0  0  0  0
 13 12  2  0  0  0  0
 14 13  1  0  0  0  0
 15 16  2  0  0  0  0
 16 14  1  0  0  0  0
 16 17  1  0  0  0  0
 18 16  2  0  0  0  0
 20 19  1  0  0  0  0
 20 21  1  0  0  0  0
 21 22  1  0  0  0  0
 23 22  2  0  0  0  0
 23 24  1  0  0  0  0
 25 24  1  0  0  0  0
 26 25  1  0  0  0  0
 27 26  1  0  0  0  0
 28 32  2  0  0  0  0
 29 31  2  0  0  0  0
 29 28  1  0  0  0  0
 30 32  1  0  0  0  0
 31 30  1  0  0  0  0
 32 27  1  0  0  0  0
 33 28  1  0  0  0  0
 34 33  1  0  0  0  0
 35 34  1  0  0  0  0
 36 35  1  0  0  0  0
 36 37  1  0  0  0  0
 37 40  1  0  0  0  0
 38 41  1  0  0  0  0
 38 42  1  0  0  0  0
 40 39  1  0  0  0  0
 41 40  1  0  0  0  0
 42 39  1  0  0  0  0
 43 45  1  0  0  0  0
 44 45  2  0  0  0  0
 45 46  1  0  0  0  0
 46 47  1  0  0  0  0
 47 50  1  0  0  0  0
 48 50  2  0  0  0  0
 50 49  1  0  0  0  0
M  END
>  <MODEL>
4

>  <REMARK>
 VINA RESULT:      -6.1      3.990      6.175
  Name = 
  29 active torsions:
  status: ('A' for Active; 'I' for Inactive)
    1  A    between atoms: C_2  and  N_22
    2  A    between atoms: C_2  and  C_46
    3  A    between atoms: N_3  and  C_10
    4  A    between atoms: N_3  and  N_27
    5  A    between atoms: C_5  and  C_14
    6  A    between atoms: C_10  and  C_50
    7  A    between atoms: C_11  and  C_30
    8  A    between atoms: C_11  and  C_41
    9  A    between atoms: C_12  and  C_20
   10  A    between atoms: C_13  and  C_17
   11  A    between atoms: C_13  and  C_47
   12  A    between atoms: C_14  and  C_48
   13  A    between atoms: C_15  and  C_30
   14  A    between atoms: C_15  and  C_35
   15  A    between atoms: C_17  and  C_36
   16  A    between atoms: O_18  and  C_19
   17  A    between atoms: O_18  and  C_36
   18  A    between atoms: C_19  and  C_21
   19  A    between atoms: C_19  and  C_28
   20  A    between atoms: C_20  and  N_22
   21  A    between atoms: C_21  and  C_43
   22  A    between atoms: C_26  and  N_29
   23  A    between atoms: C_26  and  C_46
   24  A    between atoms: N_27  and  C_37
   25  A    between atoms: C_28  and  C_48
   26  A    between atoms: C_32  and  C_35
   27  A    between atoms: S_33  and  N_44
   28  A    between atoms: C_37  and  C_42
   29  A    between atoms: C_43  and  C_50
                            x       y       z     vdW  Elec       q    Type
                         _______ _______ _______ _____ _____    ______ ____

>  <TORSDO>
F 29

$$$$
=
 OpenBabel11042413243D

 50 51  0  0  1  0  0  0  0  0999 V2000
  184.8230  179.2170  144.1740 C   0  0  1  0  0  3  0  0  0  0  0  0
  185.4680  178.1530  143.2670 C   0  0  1  0  0  3  0  0  0  0  0  0
  184.7010  177.9640  141.9640 C   0  0  0  0  0  1  0  0  0  0  0  0
  186.8990  178.5470  142.9020 C   0  0  0  0  0  2  0  0  0  0  0  0
  187.3360  176.2400  143.3050 F   0  0  0  0  0  0  0  0  0  0  0  0
  187.9510  177.0970  141.3100 F   0  0  0  0  0  0  0  0  0  0  0  0
  187.8310  177.3610  142.6640 C   0  0  0  0  0  0  0  0  0  0  0  0
  189.2030  177.6670  143.2460 C   0  0  0  0  0  2  0  0  0  0  0  0
  190.1090  178.1500  142.2140 N   0  0  0  0  0  2  0  0  0  0  0  0
  190.9120  177.0680  141.8430 N   0  0  0  0  0  2  0  0  0  0  0  0
  191.5750  177.4350  140.6040 C   0  0  0  0  0  2  0  0  0  0  0  0
  190.8850  175.7500  139.0790 O   0  0  0  0  0  0  0  0  0  0  0  0
  190.7870  176.9530  139.4410 C   0  0  0  0  0  0  0  0  0  0  0  0
  189.9290  177.8570  138.7420 N   0  0  0  0  0  2  0  0  0  0  0  0
  189.6900  176.7520  136.3610 O   0  0  0  0  0  0  0  0  0  0  0  0
  188.8670  177.3400  137.4730 S   0  0  0  0  0  0  0  0  0  0  0  0
  187.9520  178.7360  136.8520 C   0  0  0  0  0  1  0  0  0  0  0  0
  187.9130  176.2910  137.9900 O   0  0  0  0  0  0  0  0  0  0  0  0
  183.4220  178.7920  144.6240 C   0  0  0  0  0  2  0  0  0  0  0  0
  182.3840  179.1070  143.5620 C   0  0  0  0  0  2  0  0  0  0  0  0
  181.0310  178.5610  143.9960 C   0  0  0  0  0  2  0  0  0  0  0  0
  179.9250  179.2050  143.2190 C   0  0  0  0  0  3  0  0  0  0  0  0
  180.1800  180.0400  142.2130 C   0  0  0  0  0  3  0  0  0  0  0  0
  179.0550  180.6750  141.4680 C   0  0  0  0  0  2  0  0  0  0  0  0
  179.1400  180.3610  139.9830 C   0  0  0  0  0  2  0  0  0  0  0  0
  179.6900  181.5440  139.1990 C   0  0  0  0  0  2  0  0  0  0  0  0
  180.3110  181.0820  137.8930 C   0  0  0  0  0  2  0  0  0  0  0  0
  181.7490  179.0390  137.8310 C   0  0  0  0  0  0  0  0  0  0  0  0
  183.0830  178.5760  138.3050 C   0  0  0  0  0  3  0  0  0  0  0  0
  182.6540  180.8210  138.8210 O   0  0  0  0  0  0  0  0  0  0  0  0
  183.6690  179.8350  138.9580 C   0  0  0  0  0  3  0  0  0  0  0  0
  181.5530  180.2980  138.1680 C   0  0  0  0  0  0  0  0  0  0  0  0
  180.7350  178.1580  137.1830 C   0  0  0  0  0  2  0  0  0  0  0  0
  180.3950  177.0520  138.0660 N   0  0  0  0  0  2  0  0  0  0  0  0
  180.4530  175.8390  137.2680 C   0  0  0  0  0  2  0  0  0  0  0  0
  181.8620  175.2640  137.2830 C   0  0  0  0  0  2  0  0  0  0  0  0
  181.8170  173.7890  136.9240 C   0  0  0  0  0  2  0  0  0  0  0  0
  185.1280  174.1610  137.3190 C   0  0  0  0  0  2  0  0  0  0  0  0
  183.6390  172.3220  137.1330 C   0  0  0  0  0  2  0  0  0  0  0  0
  183.0740  173.3870  136.3080 N   0  0  0  0  0  0  0  0  0  0  0  0
  183.9870  174.5240  136.3920 C   0  0  0  0  0  2  0  0  0  0  0  0
  185.0840  172.6630  137.4030 C   0  0  0  0  0  2  0  0  0  0  0  0
  185.6460  179.4040  145.3210 O   0  0  0  0  0  0  0  0  0  0  0  0
  184.8730  178.6250  147.3600 O   0  0  0  0  0  0  0  0  0  0  0  0
  185.6740  178.5090  146.3940 C   0  0  0  0  0  0  0  0  0  0  0  0
  186.6880  177.4190  146.3990 C   0  0  0  0  0  2  0  0  0  0  0  0
  188.0830  178.0110  146.4540 C   0  0  0  0  0  2  0  0  0  0  0  0
  189.8230  177.0100  147.7200 O   0  0  0  0  0  0  0  0  0  0  0  0
  188.1540  177.9910  148.9430 O   0  0  0  0  0  1  0  0  0  0  0  0
  188.7420  177.6470  147.7340 C   0  0  0  0  0  0  0  0  0  0  0  0
  1 19  1  1  0  0  0
  1 43  1  0  0  0  0
  2  3  1  6  0  0  0
  2  1  1  0  0  0  0
  4  2  1  0  0  0  0
  6  7  1  0  0  0  0
  7  4  1  0  0  0  0
  7  8  1  0  0  0  0
  7  5  1  0  0  0  0
  9  8  1  0  0  0  0
 10  9  1  0  0  0  0
 11 10  1  0  0  0  0
 12 13  2  0  0  0  0
 13 11  1  0  0  0  0
 14 13  1  0  0  0  0
 15 16  2  0  0  0  0
 16 18  2  0  0  0  0
 16 14  1  0  0  0  0
 17 16  1  0  0  0  0
 20 21  1  0  0  0  0
 20 19  1  0  0  0  0
 22 21  1  0  0  0  0
 23 22  2  0  0  0  0
 24 23  1  0  0  0  0
 25 24  1  0  0  0  0
 26 25  1  0  0  0  0
 27 32  1  0  0  0  0
 27 26  1  0  0  0  0
 28 32  2  0  0  0  0
 28 29  1  0  0  0  0
 29 31  2  0  0  0  0
 30 31  1  0  0  0  0
 32 30  1  0  0  0  0
 33 28  1  0  0  0  0
 33 34  1  0  0  0  0
 35 36  1  0  0  0  0
 35 34  1  0  0  0  0
 37 36  1  0  0  0  0
 38 42  1  0  0  0  0
 39 42  1  0  0  0  0
 40 41  1  0  0  0  0
 40 37  1  0  0  0  0
 40 39  1  0  0  0  0
 41 38  1  0  0  0  0
 43 45  1  0  0  0  0
 45 46  1  0  0  0  0
 45 44  2  0  0  0  0
 46 47  1  0  0  0  0
 47 50  1  0  0  0  0
 48 50  2  0  0  0  0
 50 49  1  0  0  0  0
M  END
>  <MODEL>
5

>  <REMARK>
 VINA RESULT:      -6.0      2.400      4.981
  Name = 
  29 active torsions:
  status: ('A' for Active; 'I' for Inactive)
    1  A    between atoms: C_2  and  N_22
    2  A    between atoms: C_2  and  C_46
    3  A    between atoms: N_3  and  C_10
    4  A    between atoms: N_3  and  N_27
    5  A    between atoms: C_5  and  C_14
    6  A    between atoms: C_10  and  C_50
    7  A    between atoms: C_11  and  C_30
    8  A    between atoms: C_11  and  C_41
    9  A    between atoms: C_12  and  C_20
   10  A    between atoms: C_13  and  C_17
   11  A    between atoms: C_13  and  C_47
   12  A    between atoms: C_14  and  C_48
   13  A    between atoms: C_15  and  C_30
   14  A    between atoms: C_15  and  C_35
   15  A    between atoms: C_17  and  C_36
   16  A    between atoms: O_18  and  C_19
   17  A    between atoms: O_18  and  C_36
   18  A    between atoms: C_19  and  C_21
   19  A    between atoms: C_19  and  C_28
   20  A    between atoms: C_20  and  N_22
   21  A    between atoms: C_21  and  C_43
   22  A    between atoms: C_26  and  N_29
   23  A    between atoms: C_26  and  C_46
   24  A    between atoms: N_27  and  C_37
   25  A    between atoms: C_28  and  C_48
   26  A    between atoms: C_32  and  C_35
   27  A    between atoms: S_33  and  N_44
   28  A    between atoms: C_37  and  C_42
   29  A    between atoms: C_43  and  C_50
                            x       y       z     vdW  Elec       q    Type
                         _______ _______ _______ _____ _____    ______ ____

>  <TORSDO>
F 29

$$$$
=
 OpenBabel11042413243D

 50 51  0  0  1  0  0  0  0  0999 V2000
  186.0600  177.9850  141.6170 C   0  0  1  0  0  3  0  0  0  0  0  0
  187.5910  177.9340  141.7690 C   0  0  1  0  0  3  0  0  0  0  0  0
  188.2780  179.1060  141.0780 C   0  0  0  0  0  1  0  0  0  0  0  0
  187.9920  177.9720  143.2420 C   0  0  0  0  0  2  0  0  0  0  0  0
  188.8440  176.6090  145.0000 F   0  0  0  0  0  0  0  0  0  0  0  0
  188.7450  175.7190  142.9280 F   0  0  0  0  0  0  0  0  0  0  0  0
  188.9760  176.8780  143.6500 C   0  0  0  0  0  0  0  0  0  0  0  0
  190.3990  177.3550  143.4040 C   0  0  0  0  0  2  0  0  0  0  0  0
  191.0470  176.5490  142.3790 N   0  0  0  0  0  2  0  0  0  0  0  0
  191.7790  177.4280  141.5760 N   0  0  0  0  0  2  0  0  0  0  0  0
  191.2990  177.2620  140.2160 C   0  0  0  0  0  2  0  0  0  0  0  0
  193.6020  177.2580  139.6370 O   0  0  0  0  0  0  0  0  0  0  0  0
  192.4300  176.9290  139.3130 C   0  0  0  0  0  0  0  0  0  0  0  0
  192.1780  176.2440  138.0840 N   0  0  0  0  0  2  0  0  0  0  0  0
  194.3800  176.8380  136.7630 O   0  0  0  0  0  0  0  0  0  0  0  0
  193.4530  175.6890  137.0480 S   0  0  0  0  0  0  0  0  0  0  0  0
  192.7640  175.0950  135.5180 C   0  0  0  0  0  1  0  0  0  0  0  0
  194.2270  174.5860  137.7260 O   0  0  0  0  0  0  0  0  0  0  0  0
  185.3630  177.9780  142.9810 C   0  0  0  0  0  2  0  0  0  0  0  0
  184.6600  179.2970  143.2460 C   0  0  0  0  0  2  0  0  0  0  0  0
  184.1480  179.3200  144.6790 C   0  0  0  0  0  2  0  0  0  0  0  0
  182.6980  178.9480  144.7310 C   0  0  0  0  0  3  0  0  0  0  0  0
  181.9080  179.0870  143.6670 C   0  0  0  0  0  3  0  0  0  0  0  0
  180.4650  178.7200  143.7550 C   0  0  0  0  0  2  0  0  0  0  0  0
  179.9910  178.0680  142.4670 C   0  0  0  0  0  2  0  0  0  0  0  0
  180.9020  178.4210  141.3010 C   0  0  0  0  0  2  0  0  0  0  0  0
  180.1580  178.3060  139.9820 C   0  0  0  0  0  2  0  0  0  0  0  0
  181.4350  177.2670  138.1020 C   0  0  0  0  0  0  0  0  0  0  0  0
  181.7540  175.9180  137.5570 C   0  0  0  0  0  3  0  0  0  0  0  0
  180.4790  175.8360  139.5210 O   0  0  0  0  0  0  0  0  0  0  0  0
  181.0950  174.9750  138.5730 C   0  0  0  0  0  3  0  0  0  0  0  0
  180.6980  177.1600  139.1900 C   0  0  0  0  0  0  0  0  0  0  0  0
  181.7910  178.5500  137.4310 C   0  0  0  0  0  2  0  0  0  0  0  0
  180.9580  178.7480  136.2540 N   0  0  0  0  0  2  0  0  0  0  0  0
  180.1510  179.9310  136.5000 C   0  0  0  0  0  2  0  0  0  0  0  0
  180.1040  180.8060  135.2560 C   0  0  0  0  0  2  0  0  0  0  0  0
  179.7360  182.2280  135.6430 C   0  0  0  0  0  2  0  0  0  0  0  0
  180.6730  185.3950  136.2340 C   0  0  0  0  0  2  0  0  0  0  0  0
  181.1600  183.2770  137.1880 C   0  0  0  0  0  2  0  0  0  0  0  0
  180.9400  183.0400  135.7640 N   0  0  0  0  0  0  0  0  0  0  0  0
  180.6580  184.3360  135.1510 C   0  0  0  0  0  2  0  0  0  0  0  0
  181.4010  184.7540  137.3790 C   0  0  0  0  0  2  0  0  0  0  0  0
  185.7070  179.1750  140.9180 O   0  0  0  0  0  0  0  0  0  0  0  0
  184.3870  180.1540  139.2870 O   0  0  0  0  0  0  0  0  0  0  0  0
  185.0710  179.1680  139.6740 C   0  0  0  0  0  0  0  0  0  0  0  0
  185.1860  177.9620  138.8100 C   0  0  0  0  0  2  0  0  0  0  0  0
  186.1310  178.2380  137.6580 C   0  0  0  0  0  2  0  0  0  0  0  0
  184.7190  177.1570  136.0870 O   0  0  0  0  0  1  0  0  0  0  0  0
  186.9160  176.5120  136.0440 O   0  0  0  0  0  0  0  0  0  0  0  0
  185.8790  177.2810  136.5500 C   0  0  0  0  0  0  0  0  0  0  0  0
  1  2  1  0  0  0  0
  1 19  1  1  0  0  0
  2  3  1  6  0  0  0
  2  4  1  0  0  0  0
  4  7  1  0  0  0  0
  6  7  1  0  0  0  0
  7  5  1  0  0  0  0
  8  7  1  0  0  0  0
  9  8  1  0  0  0  0
 10  9  1  0  0  0  0
 11 10  1  0  0  0  0
 13 12  2  0  0  0  0
 13 11  1  0  0  0  0
 14 13  1  0  0  0  0
 15 16  2  0  0  0  0
 16 18  2  0  0  0  0
 16 14  1  0  0  0  0
 17 16  1  0  0  0  0
 19 20  1  0  0  0  0
 20 21  1  0  0  0  0
 21 22  1  0  0  0  0
 23 24  1  0  0  0  0
 23 22  2  0  0  0  0
 25 24  1  0  0  0  0
 26 25  1  0  0  0  0
 27 26  1  0  0  0  0
 28 32  2  0  0  0  0
 29 28  1  0  0  0  0
 29 31  2  0  0  0  0
 31 30  1  0  0  0  0
 32 30  1  0  0  0  0
 32 27  1  0  0  0  0
 33 28  1  0  0  0  0
 34 35  1  0  0  0  0
 34 33  1  0  0  0  0
 36 37  1  0  0  0  0
 36 35  1  0  0  0  0
 37 40  1  0  0  0  0
 38 42  1  0  0  0  0
 39 42  1  0  0  0  0
 40 39  1  0  0  0  0
 41 40  1  0  0  0  0
 41 38  1  0  0  0  0
 43  1  1  0  0  0  0
 44 45  2  0  0  0  0
 45 43  1  0  0  0  0
 46 45  1  0  0  0  0
 47 46  1  0  0  0  0
 48 50  1  0  0  0  0
 49 50  2  0  0  0  0
 50 47  1  0  0  0  0
M  END
>  <MODEL>
6

>  <REMARK>
 VINA RESULT:      -5.9      3.121      5.306
  Name = 
  29 active torsions:
  status: ('A' for Active; 'I' for Inactive)
    1  A    between atoms: C_2  and  N_22
    2  A    between atoms: C_2  and  C_46
    3  A    between atoms: N_3  and  C_10
    4  A    between atoms: N_3  and  N_27
    5  A    between atoms: C_5  and  C_14
    6  A    between atoms: C_10  and  C_50
    7  A    between atoms: C_11  and  C_30
    8  A    between atoms: C_11  and  C_41
    9  A    between atoms: C_12  and  C_20
   10  A    between atoms: C_13  and  C_17
   11  A    between atoms: C_13  and  C_47
   12  A    between atoms: C_14  and  C_48
   13  A    between atoms: C_15  and  C_30
   14  A    between atoms: C_15  and  C_35
   15  A    between atoms: C_17  and  C_36
   16  A    between atoms: O_18  and  C_19
   17  A    between atoms: O_18  and  C_36
   18  A    between atoms: C_19  and  C_21
   19  A    between atoms: C_19  and  C_28
   20  A    between atoms: C_20  and  N_22
   21  A    between atoms: C_21  and  C_43
   22  A    between atoms: C_26  and  N_29
   23  A    between atoms: C_26  and  C_46
   24  A    between atoms: N_27  and  C_37
   25  A    between atoms: C_28  and  C_48
   26  A    between atoms: C_32  and  C_35
   27  A    between atoms: S_33  and  N_44
   28  A    between atoms: C_37  and  C_42
   29  A    between atoms: C_43  and  C_50
                            x       y       z     vdW  Elec       q    Type
                         _______ _______ _______ _____ _____    ______ ____

>  <TORSDO>
F 29

$$$$
=
 OpenBabel11042413243D

 50 51  0  0  1  0  0  0  0  0999 V2000
  187.8760  177.8510  145.4870 C   0  0  1  0  0  3  0  0  0  0  0  0
  188.8500  177.1590  144.5160 C   0  0  1  0  0  3  0  0  0  0  0  0
  188.1320  176.2300  143.5440 C   0  0  0  0  0  1  0  0  0  0  0  0
  189.6110  178.1900  143.6840 C   0  0  0  0  0  2  0  0  0  0  0  0
  191.6920  179.2130  144.2300 F   0  0  0  0  0  0  0  0  0  0  0  0
  191.4860  176.9920  144.5740 F   0  0  0  0  0  0  0  0  0  0  0  0
  191.1300  178.0450  143.7490 C   0  0  0  0  0  0  0  0  0  0  0  0
  191.6780  177.8030  142.3500 C   0  0  0  0  0  2  0  0  0  0  0  0
  190.6240  177.3620  141.4480 N   0  0  0  0  0  2  0  0  0  0  0  0
  191.1850  177.3030  140.1690 N   0  0  0  0  0  2  0  0  0  0  0  0
  190.2840  176.5170  139.3460 C   0  0  0  0  0  2  0  0  0  0  0  0
  189.5330  178.6480  138.6160 O   0  0  0  0  0  0  0  0  0  0  0  0
  189.5330  177.4040  138.4210 C   0  0  0  0  0  0  0  0  0  0  0  0
  188.8160  176.8380  137.3220 N   0  0  0  0  0  2  0  0  0  0  0  0
  187.7670  179.1730  136.6930 O   0  0  0  0  0  0  0  0  0  0  0  0
  188.0410  177.8120  136.1150 S   0  0  0  0  0  0  0  0  0  0  0  0
  186.5020  177.0560  135.6350 C   0  0  0  0  0  1  0  0  0  0  0  0
  188.9390  177.9580  134.9120 O   0  0  0  0  0  0  0  0  0  0  0  0
  186.4240  177.6970  145.0270 C   0  0  0  0  0  2  0  0  0  0  0  0
  185.7710  179.0490  144.8080 C   0  0  0  0  0  2  0  0  0  0  0  0
  184.3350  179.0080  145.3120 C   0  0  0  0  0  2  0  0  0  0  0  0
  183.3810  179.4090  144.2300 C   0  0  0  0  0  3  0  0  0  0  0  0
  182.2840  178.6970  143.9730 C   0  0  0  0  0  3  0  0  0  0  0  0
  181.3610  179.1160  142.8790 C   0  0  0  0  0  2  0  0  0  0  0  0
  181.6900  178.3930  141.5840 C   0  0  0  0  0  2  0  0  0  0  0  0
  180.8270  178.8960  140.4360 C   0  0  0  0  0  2  0  0  0  0  0  0
  181.6250  179.8150  139.5270 C   0  0  0  0  0  2  0  0  0  0  0  0
  183.4710  178.5370  138.4310 C   0  0  0  0  0  0  0  0  0  0  0  0
  184.9060  178.2040  138.6510 C   0  0  0  0  0  3  0  0  0  0  0  0
  184.0290  179.6190  140.2990 O   0  0  0  0  0  0  0  0  0  0  0  0
  185.2450  178.9830  139.9290 C   0  0  0  0  0  3  0  0  0  0  0  0
  183.0260  179.3150  139.3980 C   0  0  0  0  0  0  0  0  0  0  0  0
  182.6320  177.9610  137.3400 C   0  0  0  0  0  2  0  0  0  0  0  0
  182.6390  176.5080  137.4170 N   0  0  0  0  0  2  0  0  0  0  0  0
  183.1430  176.0190  136.1450 C   0  0  0  0  0  2  0  0  0  0  0  0
  183.1310  174.4970  136.1230 C   0  0  0  0  0  2  0  0  0  0  0  0
  182.0860  173.9790  137.0980 C   0  0  0  0  0  2  0  0  0  0  0  0
  179.9400  171.4010  137.1200 C   0  0  0  0  0  2  0  0  0  0  0  0
  179.7490  173.7660  137.1730 C   0  0  0  0  0  2  0  0  0  0  0  0
  180.9310  173.4720  136.3680 N   0  0  0  0  0  0  0  0  0  0  0  0
  181.0570  172.0180  136.3050 C   0  0  0  0  0  2  0  0  0  0  0  0
  178.9310  172.5010  137.2730 C   0  0  0  0  0  2  0  0  0  0  0  0
  188.0220  177.2660  146.7780 O   0  0  0  0  0  0  0  0  0  0  0  0
  189.1970  178.1510  148.5670 O   0  0  0  0  0  0  0  0  0  0  0  0
  189.1780  177.4030  147.5520 C   0  0  0  0  0  0  0  0  0  0  0  0
  190.4090  176.6730  147.1470 C   0  0  0  0  0  2  0  0  0  0  0  0
  191.5370  176.9850  148.1110 C   0  0  0  0  0  2  0  0  0  0  0  0
  193.2610  175.6780  149.0860 O   0  0  0  0  0  1  0  0  0  0  0  0
  192.7380  175.1590  146.9180 O   0  0  0  0  0  0  0  0  0  0  0  0
  192.5540  175.9030  148.0740 C   0  0  0  0  0  0  0  0  0  0  0  0
  1 19  1  6  0  0  0
  1 43  1  0  0  0  0
  2  3  1  6  0  0  0
  2  1  1  0  0  0  0
  4  7  1  0  0  0  0
  4  2  1  0  0  0  0
  7  5  1  0  0  0  0
  7  6  1  0  0  0  0
  8  7  1  0  0  0  0
  9  8  1  0  0  0  0
 10  9  1  0  0  0  0
 11 10  1  0  0  0  0
 13 12  2  0  0  0  0
 13 11  1  0  0  0  0
 14 13  1  0  0  0  0
 16 15  2  0  0  0  0
 16 14  1  0  0  0  0
 17 16  1  0  0  0  0
 18 16  2  0  0  0  0
 20 19  1  0  0  0  0
 20 21  1  0  0  0  0
 22 21  1  0  0  0  0
 23 22  2  0  0  0  0
 24 23  1  0  0  0  0
 25 24  1  0  0  0  0
 26 25  1  0  0  0  0
 27 26  1  0  0  0  0
 28 29  1  0  0  0  0
 28 32  2  0  0  0  0
 29 31  2  0  0  0  0
 31 30  1  0  0  0  0
 32 27  1  0  0  0  0
 32 30  1  0  0  0  0
 33 34  1  0  0  0  0
 33 28  1  0  0  0  0
 35 34  1  0  0  0  0
 36 35  1  0  0  0  0
 36 37  1  0  0  0  0
 38 42  1  0  0  0  0
 39 42  1  0  0  0  0
 40 37  1  0  0  0  0
 40 39  1  0  0  0  0
 41 40  1  0  0  0  0
 41 38  1  0  0  0  0
 43 45  1  0  0  0  0
 45 44  2  0  0  0  0
 46 45  1  0  0  0  0
 46 47  1  0  0  0  0
 49 50  2  0  0  0  0
 50 47  1  0  0  0  0
 50 48  1  0  0  0  0
M  END
>  <MODEL>
7

>  <REMARK>
 VINA RESULT:      -5.9      2.524      4.470
  Name = 
  29 active torsions:
  status: ('A' for Active; 'I' for Inactive)
    1  A    between atoms: C_2  and  N_22
    2  A    between atoms: C_2  and  C_46
    3  A    between atoms: N_3  and  C_10
    4  A    between atoms: N_3  and  N_27
    5  A    between atoms: C_5  and  C_14
    6  A    between atoms: C_10  and  C_50
    7  A    between atoms: C_11  and  C_30
    8  A    between atoms: C_11  and  C_41
    9  A    between atoms: C_12  and  C_20
   10  A    between atoms: C_13  and  C_17
   11  A    between atoms: C_13  and  C_47
   12  A    between atoms: C_14  and  C_48
   13  A    between atoms: C_15  and  C_30
   14  A    between atoms: C_15  and  C_35
   15  A    between atoms: C_17  and  C_36
   16  A    between atoms: O_18  and  C_19
   17  A    between atoms: O_18  and  C_36
   18  A    between atoms: C_19  and  C_21
   19  A    between atoms: C_19  and  C_28
   20  A    between atoms: C_20  and  N_22
   21  A    between atoms: C_21  and  C_43
   22  A    between atoms: C_26  and  N_29
   23  A    between atoms: C_26  and  C_46
   24  A    between atoms: N_27  and  C_37
   25  A    between atoms: C_28  and  C_48
   26  A    between atoms: C_32  and  C_35
   27  A    between atoms: S_33  and  N_44
   28  A    between atoms: C_37  and  C_42
   29  A    between atoms: C_43  and  C_50
                            x       y       z     vdW  Elec       q    Type
                         _______ _______ _______ _____ _____    ______ ____

>  <TORSDO>
F 29

$$$$
=
 OpenBabel11042413243D

 50 51  0  0  1  0  0  0  0  0999 V2000
  187.3510  177.4960  142.8430 C   0  0  1  0  0  3  0  0  0  0  0  0
  188.6120  177.5420  143.7230 C   0  0  1  0  0  3  0  0  0  0  0  0
  188.2770  177.5740  145.2100 C   0  0  0  0  0  1  0  0  0  0  0  0
  189.4900  176.3150  143.4800 C   0  0  0  0  0  2  0  0  0  0  0  0
  191.2200  176.8280  145.0340 F   0  0  0  0  0  0  0  0  0  0  0  0
  191.7200  175.4540  143.3140 F   0  0  0  0  0  0  0  0  0  0  0  0
  190.9810  176.5600  143.6990 C   0  0  0  0  0  0  0  0  0  0  0  0
  191.4220  177.7720  142.8920 C   0  0  0  0  0  2  0  0  0  0  0  0
  192.4240  177.4010  141.9040 N   0  0  0  0  0  2  0  0  0  0  0  0
  191.7980  177.4490  140.6550 N   0  0  0  0  0  2  0  0  0  0  0  0
  192.8400  177.6530  139.6640 C   0  0  0  0  0  2  0  0  0  0  0  0
  193.7940  175.8140  138.5040 O   0  0  0  0  0  0  0  0  0  0  0  0
  192.7980  176.5710  138.6480 C   0  0  0  0  0  0  0  0  0  0  0  0
  191.6300  176.4020  137.8410 N   0  0  0  0  0  2  0  0  0  0  0  0
  192.5530  175.1260  135.7270 O   0  0  0  0  0  0  0  0  0  0  0  0
  191.4440  175.0750  136.7410 S   0  0  0  0  0  0  0  0  0  0  0  0
  189.8770  175.2080  135.9040 C   0  0  0  0  0  1  0  0  0  0  0  0
  191.5170  173.7670  137.4880 O   0  0  0  0  0  0  0  0  0  0  0  0
  186.0760  177.5290  143.6900 C   0  0  0  0  0  2  0  0  0  0  0  0
  185.0930  178.5610  143.1660 C   0  0  0  0  0  2  0  0  0  0  0  0
  184.5460  179.3780  144.3280 C   0  0  0  0  0  2  0  0  0  0  0  0
  183.1610  178.9340  144.6830 C   0  0  0  0  0  3  0  0  0  0  0  0
  182.1570  179.0320  143.8130 C   0  0  0  0  0  3  0  0  0  0  0  0
  180.7860  178.5920  144.2020 C   0  0  0  0  0  2  0  0  0  0  0  0
  179.9220  178.3550  142.9750 C   0  0  0  0  0  2  0  0  0  0  0  0
  180.5870  178.8970  141.7180 C   0  0  0  0  0  2  0  0  0  0  0  0
  179.5790  179.6290  140.8490 C   0  0  0  0  0  2  0  0  0  0  0  0
  180.3560  179.3710  138.4890 C   0  0  0  0  0  0  0  0  0  0  0  0
  181.0990  180.1350  137.4490 C   0  0  0  0  0  3  0  0  0  0  0  0
  180.7920  181.3440  139.4330 O   0  0  0  0  0  0  0  0  0  0  0  0
  181.3580  181.4830  138.1370 C   0  0  0  0  0  3  0  0  0  0  0  0
  180.2330  180.0890  139.5870 C   0  0  0  0  0  0  0  0  0  0  0  0
  179.9300  177.9490  138.3420 C   0  0  0  0  0  2  0  0  0  0  0  0
  180.6880  177.3060  137.2790 N   0  0  0  0  0  2  0  0  0  0  0  0
  181.6970  176.4790  137.9180 C   0  0  0  0  0  2  0  0  0  0  0  0
  182.6240  175.8770  136.8720 C   0  0  0  0  0  2  0  0  0  0  0  0
  183.9260  175.4490  137.5280 C   0  0  0  0  0  2  0  0  0  0  0  0
  186.2460  173.0350  137.3170 C   0  0  0  0  0  2  0  0  0  0  0  0
  184.1900  173.5100  136.2310 C   0  0  0  0  0  2  0  0  0  0  0  0
  184.7900  174.8030  136.5480 N   0  0  0  0  0  0  0  0  0  0  0  0
  186.0680  174.5340  137.2010 C   0  0  0  0  0  2  0  0  0  0  0  0
  185.2710  172.4610  136.3310 C   0  0  0  0  0  2  0  0  0  0  0  0
  187.3600  178.6210  141.9680 O   0  0  0  0  0  0  0  0  0  0  0  0
  186.1710  178.8850  139.9990 O   0  0  0  0  0  0  0  0  0  0  0  0
  187.2240  178.5110  140.5820 C   0  0  0  0  0  0  0  0  0  0  0  0
  188.3360  177.9140  139.7920 C   0  0  0  0  0  2  0  0  0  0  0  0
  188.9690  178.9710  138.9090 C   0  0  0  0  0  2  0  0  0  0  0  0
  189.3810  178.3440  136.6570 O   0  0  0  0  0  0  0  0  0  0  0  0
  187.2580  179.0790  137.1030 O   0  0  0  0  0  1  0  0  0  0  0  0
  188.5520  178.7720  137.4970 C   0  0  0  0  0  0  0  0  0  0  0  0
  1 19  1  1  0  0  0
  1  2  1  0  0  0  0
  2  3  1  1  0  0  0
  4  7  1  0  0  0  0
  4  2  1  0  0  0  0
  6  7  1  0  0  0  0
  7  5  1  0  0  0  0
  8  7  1  0  0  0  0
  9  8  1  0  0  0  0
 10  9  1  0  0  0  0
 11 10  1  0  0  0  0
 12 13  2  0  0  0  0
 13 11  1  0  0  0  0
 14 13  1  0  0  0  0
 15 16  2  0  0  0  0
 16 18  2  0  0  0  0
 16 14  1  0  0  0  0
 17 16  1  0  0  0  0
 20 19  1  0  0  0  0
 20 21  1  0  0  0  0
 21 22  1  0  0  0  0
 23 24  1  0  0  0  0
 23 22  2  0  0  0  0
 25 24  1  0  0  0  0
 26 25  1  0  0  0  0
 27 26  1  0  0  0  0
 28 32  2  0  0  0  0
 29 31  2  0  0  0  0
 29 28  1  0  0  0  0
 30 32  1  0  0  0  0
 31 30  1  0  0  0  0
 32 27  1  0  0  0  0
 33 28  1  0  0  0  0
 34 35  1  0  0  0  0
 34 33  1  0  0  0  0
 36 37  1  0  0  0  0
 36 35  1  0  0  0  0
 39 42  1  0  0  0  0
 39 40  1  0  0  0  0
 40 41  1  0  0  0  0
 40 37  1  0  0  0  0
 41 38  1  0  0  0  0
 42 38  1  0  0  0  0
 43  1  1  0  0  0  0
 44 45  2  0  0  0  0
 45 43  1  0  0  0  0
 46 45  1  0  0  0  0
 47 46  1  0  0  0  0
 48 50  2  0  0  0  0
 49 50  1  0  0  0  0
 50 47  1  0  0  0  0
M  END
>  <MODEL>
8

>  <REMARK>
 VINA RESULT:      -5.8      3.073      6.153
  Name = 
  29 active torsions:
  status: ('A' for Active; 'I' for Inactive)
    1  A    between atoms: C_2  and  N_22
    2  A    between atoms: C_2  and  C_46
    3  A    between atoms: N_3  and  C_10
    4  A    between atoms: N_3  and  N_27
    5  A    between atoms: C_5  and  C_14
    6  A    between atoms: C_10  and  C_50
    7  A    between atoms: C_11  and  C_30
    8  A    between atoms: C_11  and  C_41
    9  A    between atoms: C_12  and  C_20
   10  A    between atoms: C_13  and  C_17
   11  A    between atoms: C_13  and  C_47
   12  A    between atoms: C_14  and  C_48
   13  A    between atoms: C_15  and  C_30
   14  A    between atoms: C_15  and  C_35
   15  A    between atoms: C_17  and  C_36
   16  A    between atoms: O_18  and  C_19
   17  A    between atoms: O_18  and  C_36
   18  A    between atoms: C_19  and  C_21
   19  A    between atoms: C_19  and  C_28
   20  A    between atoms: C_20  and  N_22
   21  A    between atoms: C_21  and  C_43
   22  A    between atoms: C_26  and  N_29
   23  A    between atoms: C_26  and  C_46
   24  A    between atoms: N_27  and  C_37
   25  A    between atoms: C_28  and  C_48
   26  A    between atoms: C_32  and  C_35
   27  A    between atoms: S_33  and  N_44
   28  A    between atoms: C_37  and  C_42
   29  A    between atoms: C_43  and  C_50
                            x       y       z     vdW  Elec       q    Type
                         _______ _______ _______ _____ _____    ______ ____

>  <TORSDO>
F 29

$$$$
=
 OpenBabel11042413243D

 50 51  0  0  1  0  0  0  0  0999 V2000
  188.4790  177.7990  144.7510 C   0  0  1  0  0  3  0  0  0  0  0  0
  189.9120  177.9760  144.2160 C   0  0  1  0  0  3  0  0  0  0  0  0
  190.5740  179.2410  144.7480 C   0  0  0  0  0  1  0  0  0  0  0  0
  190.7920  176.7940  144.6210 C   0  0  0  0  0  2  0  0  0  0  0  0
  192.2310  175.0390  143.8980 F   0  0  0  0  0  0  0  0  0  0  0  0
  190.2880  175.3360  142.7880 F   0  0  0  0  0  0  0  0  0  0  0  0
  191.3230  175.9790  143.4450 C   0  0  0  0  0  0  0  0  0  0  0  0
  192.0480  176.8990  142.4740 C   0  0  0  0  0  2  0  0  0  0  0  0
  191.1690  177.2990  141.3840 N   0  0  0  0  0  2  0  0  0  0  0  0
  191.9800  177.4920  140.2620 N   0  0  0  0  0  2  0  0  0  0  0  0
  191.4130  176.6970  139.1860 C   0  0  0  0  0  2  0  0  0  0  0  0
  193.5360  176.7910  138.1270 O   0  0  0  0  0  0  0  0  0  0  0  0
  192.4970  176.1160  138.3550 C   0  0  0  0  0  0  0  0  0  0  0  0
  192.3510  174.7990  137.8200 N   0  0  0  0  0  2  0  0  0  0  0  0
  193.0770  172.7460  136.3340 O   0  0  0  0  0  0  0  0  0  0  0  0
  193.6280  173.9930  136.9670 S   0  0  0  0  0  0  0  0  0  0  0  0
  194.9220  173.5500  138.1080 C   0  0  0  0  0  1  0  0  0  0  0  0
  194.1800  174.8920  135.8890 O   0  0  0  0  0  0  0  0  0  0  0  0
  187.6200  176.9780  143.7860 C   0  0  0  0  0  2  0  0  0  0  0  0
  187.6150  177.5900  142.3970 C   0  0  0  0  0  2  0  0  0  0  0  0
  186.5810  178.7050  142.3360 C   0  0  0  0  0  2  0  0  0  0  0  0
  185.2480  178.1710  141.9130 C   0  0  0  0  0  3  0  0  0  0  0  0
  184.2030  178.9770  141.7350 C   0  0  0  0  0  3  0  0  0  0  0  0
  182.8850  178.4110  141.3250 C   0  0  0  0  0  2  0  0  0  0  0  0
  182.3500  179.1170  140.0900 C   0  0  0  0  0  2  0  0  0  0  0  0
  183.2080  178.8180  138.8700 C   0  0  0  0  0  2  0  0  0  0  0  0
  182.3580  178.2800  137.7320 C   0  0  0  0  0  2  0  0  0  0  0  0
  182.0310  175.8740  138.3230 C   0  0  0  0  0  0  0  0  0  0  0  0
  180.9500  174.9530  138.7730 C   0  0  0  0  0  3  0  0  0  0  0  0
  180.2350  177.1750  138.5640 O   0  0  0  0  0  0  0  0  0  0  0  0
  179.7490  175.8940  138.9410 C   0  0  0  0  0  3  0  0  0  0  0  0
  181.5670  177.1020  138.2010 C   0  0  0  0  0  0  0  0  0  0  0  0
  183.4040  175.4350  137.9430 C   0  0  0  0  0  2  0  0  0  0  0  0
  183.4030  174.9060  136.5870 N   0  0  0  0  0  2  0  0  0  0  0  0
  184.7880  174.6450  136.2330 C   0  0  0  0  0  2  0  0  0  0  0  0
  185.7150  175.5570  137.0240 C   0  0  0  0  0  2  0  0  0  0  0  0
  186.5470  176.3960  136.0680 C   0  0  0  0  0  2  0  0  0  0  0  0
  188.0730  178.0850  138.5320 C   0  0  0  0  0  2  0  0  0  0  0  0
  187.9930  178.2430  136.1650 C   0  0  0  0  0  2  0  0  0  0  0  0
  186.6830  177.7520  136.5830 N   0  0  0  0  0  0  0  0  0  0  0  0
  186.7030  177.6650  138.0420 C   0  0  0  0  0  2  0  0  0  0  0  0
  188.6760  178.8290  137.3770 C   0  0  0  0  0  2  0  0  0  0  0  0
  188.5370  177.1320  146.0090 O   0  0  0  0  0  0  0  0  0  0  0  0
  189.1490  177.8620  148.1190 O   0  0  0  0  0  0  0  0  0  0  0  0
  188.2680  177.7690  147.2230 C   0  0  0  0  0  0  0  0  0  0  0  0
  186.9060  178.3200  147.4630 C   0  0  0  0  0  2  0  0  0  0  0  0
  186.2840  178.7540  146.1500 C   0  0  0  0  0  2  0  0  0  0  0  0
  184.0970  179.0830  145.2890 O   0  0  0  0  0  0  0  0  0  0  0  0
  184.2080  178.0310  147.3190 O   0  0  0  0  0  1  0  0  0  0  0  0
  184.8060  178.6290  146.2190 C   0  0  0  0  0  0  0  0  0  0  0  0
  1 19  1  6  0  0  0
  1 43  1  0  0  0  0
  2  4  1  0  0  0  0
  2  3  1  1  0  0  0
  2  1  1  0  0  0  0
  6  7  1  0  0  0  0
  7  5  1  0  0  0  0
  7  4  1  0  0  0  0
  8  7  1  0  0  0  0
  9  8  1  0  0  0  0
 10  9  1  0  0  0  0
 11 10  1  0  0  0  0
 12 13  2  0  0  0  0
 13 11  1  0  0  0  0
 14 13  1  0  0  0  0
 15 16  2  0  0  0  0
 16 14  1  0  0  0  0
 16 17  1  0  0  0  0
 18 16  2  0  0  0  0
 20 19  1  0  0  0  0
 21 20  1  0  0  0  0
 22 21  1  0  0  0  0
 23 22  2  0  0  0  0
 24 23  1  0  0  0  0
 25 24  1  0  0  0  0
 26 25  1  0  0  0  0
 27 32  1  0  0  0  0
 27 26  1  0  0  0  0
 28 29  1  0  0  0  0
 29 31  2  0  0  0  0
 30 31  1  0  0  0  0
 32 28  2  0  0  0  0
 32 30  1  0  0  0  0
 33 28  1  0  0  0  0
 34 33  1  0  0  0  0
 35 34  1  0  0  0  0
 35 36  1  0  0  0  0
 37 40  1  0  0  0  0
 37 36  1  0  0  0  0
 39 40  1  0  0  0  0
 39 42  1  0  0  0  0
 40 41  1  0  0  0  0
 41 38  1  0  0  0  0
 42 38  1  0  0  0  0
 43 45  1  0  0  0  0
 45 46  1  0  0  0  0
 45 44  2  0  0  0  0
 47 50  1  0  0  0  0
 47 46  1  0  0  0  0
 48 50  2  0  0  0  0
 50 49  1  0  0  0  0
M  END
>  <MODEL>
9

>  <REMARK>
 VINA RESULT:      -5.8      3.365      5.230
  Name = 
  29 active torsions:
  status: ('A' for Active; 'I' for Inactive)
    1  A    between atoms: C_2  and  N_22
    2  A    between atoms: C_2  and  C_46
    3  A    between atoms: N_3  and  C_10
    4  A    between atoms: N_3  and  N_27
    5  A    between atoms: C_5  and  C_14
    6  A    between atoms: C_10  and  C_50
    7  A    between atoms: C_11  and  C_30
    8  A    between atoms: C_11  and  C_41
    9  A    between atoms: C_12  and  C_20
   10  A    between atoms: C_13  and  C_17
   11  A    between atoms: C_13  and  C_47
   12  A    between atoms: C_14  and  C_48
   13  A    between atoms: C_15  and  C_30
   14  A    between atoms: C_15  and  C_35
   15  A    between atoms: C_17  and  C_36
   16  A    between atoms: O_18  and  C_19
   17  A    between atoms: O_18  and  C_36
   18  A    between atoms: C_19  and  C_21
   19  A    between atoms: C_19  and  C_28
   20  A    between atoms: C_20  and  N_22
   21  A    between atoms: C_21  and  C_43
   22  A    between atoms: C_26  and  N_29
   23  A    between atoms: C_26  and  C_46
   24  A    between atoms: N_27  and  C_37
   25  A    between atoms: C_28  and  C_48
   26  A    between atoms: C_32  and  C_35
   27  A    between atoms: S_33  and  N_44
   28  A    between atoms: C_37  and  C_42
   29  A    between atoms: C_43  and  C_50
                            x       y       z     vdW  Elec       q    Type
                         _______ _______ _______ _____ _____    ______ ____

>  <TORSDO>
F 29

$$$$
