=
 OpenBabel11042410073D

 54 60  0  0  1  0  0  0  0  0999 V2000
  182.1780  177.3450  138.3260 C   0  0  0  0  0  0  0  0  0  0  0  0
  180.8460  175.3170  138.2840 C   0  0  0  0  0  3  0  0  0  0  0  0
  183.1360  175.2800  137.4810 C   0  0  0  0  0  0  0  0  0  0  0  0
  183.2560  176.6410  137.7760 C   0  0  0  0  0  3  0  0  0  0  0  0
  180.9710  176.6750  138.5900 C   0  0  0  0  0  0  0  0  0  0  0  0
  181.7770  173.2660  137.4320 O   0  0  0  0  0  1  0  0  0  0  0  0
  181.9210  174.6170  137.7280 C   0  0  0  0  0  0  0  0  0  0  0  0
  179.8960  177.3470  139.1610 O   0  0  0  0  0  1  0  0  0  0  0  0
  184.3030  174.5510  136.9080 C   0  0  0  0  0  2  0  0  0  0  0  0
  185.2090  175.4940  136.2730 N   0  0  0  0  0  2  0  0  0  0  0  0
  187.6250  175.8740  136.3090 C   0  0  0  0  0  2  0  0  0  0  0  0
  188.7020  175.3950  137.1820 N   0  0  0  0  0  0  0  0  0  0  0  0
  187.7730  173.1180  136.9090 C   0  0  0  0  0  2  0  0  0  0  0  0
  186.6130  173.8670  137.1950 O   0  0  0  0  0  0  0  0  0  0  0  0
  186.5000  174.8340  136.1820 C   0  0  1  0  0  3  0  0  0  0  0  0
  189.0310  174.0080  136.8460 C   0  0  0  0  0  2  0  0  0  0  0  0
  190.1010  176.3720  136.8660 S   0  0  0  0  0  0  0  0  0  0  0  0
  189.8260  177.7860  137.2920 O   0  0  0  0  0  0  0  0  0  0  0  0
  190.4200  176.3530  135.3960 O   0  0  0  0  0  0  0  0  0  0  0  0
  191.5090  175.7530  137.7760 C   0  0  0  0  0  2  0  0  0  0  0  0
  195.5800  173.6120  136.9050 C   0  0  0  0  0  1  0  0  0  0  0  0
  193.4910  176.3630  136.6900 C   0  0  0  0  0  2  0  0  0  0  0  0
  195.1640  174.9620  138.8240 O   0  0  0  0  0  1  0  0  0  0  0  0
  194.7230  174.6970  137.5240 C   0  0  2  0  0  0  0  0  0  0  0  0
  193.2810  174.2570  137.5540 C   0  0  0  0  0  2  0  0  0  0  0  0
  194.8060  175.8610  136.7510 O   0  0  0  0  0  0  0  0  0  0  0  0
  192.5340  175.2780  136.8570 N   0  0  0  0  0  0  0  0  0  0  0  0
  182.3870  179.0840  138.7250 S   0  0  0  0  0  0  0  0  0  0  0  0
  185.0620  178.8680  139.4890 C   0  0  0  0  0  0  0  0  0  0  0  0
  183.7200  178.7820  139.8890 C   0  0  0  0  0  0  0  0  0  0  0  0
  184.4370  178.2790  142.1620 C   0  0  0  0  0  0  0  0  0  0  0  0
  183.4140  178.4930  141.2220 C   0  0  0  0  0  3  0  0  0  0  0  0
  186.0830  178.6580  140.4210 C   0  0  0  0  0  3  0  0  0  0  0  0
  185.7790  178.3640  141.7590 C   0  0  0  0  0  0  0  0  0  0  0  0
  185.3920  179.1800  138.1750 O   0  0  0  0  0  1  0  0  0  0  0  0
  186.7900  178.1540  142.7040 O   0  0  0  0  0  0  0  0  0  0  0  0
  187.8260  177.1950  142.5260 C   0  0  0  0  0  2  0  0  0  0  0  0
  188.3270  176.7240  143.8770 C   0  0  0  0  0  2  0  0  0  0  0  0
  189.7780  176.5860  143.8440 N   0  0  0  0  0  0  0  0  0  0  0  0
  190.3020  177.9240  143.4890 C   0  0  1  0  0  3  0  0  0  0  0  0
  189.6030  178.0810  145.9430 C   0  0  0  0  0  2  0  0  0  0  0  0
  190.9680  176.9150  147.6180 N   0  0  0  0  0  2  0  0  0  0  0  0
  190.4690  177.4240  144.8590 C   0  0  0  0  0  0  0  0  0  0  0  0
  189.5980  177.1950  147.1890 C   0  0  0  0  0  2  0  0  0  0  0  0
  191.8010  176.8180  145.3080 C   0  0  0  0  0  2  0  0  0  0  0  0
  191.5930  176.0510  146.6170 C   0  0  0  0  0  2  0  0  0  0  0  0
  191.5330  177.7650  142.6080 C   0  0  0  0  0  2  0  0  0  0  0  0
  191.2090  177.0010  141.4880 O   0  0  0  0  0  1  0  0  0  0  0  0
  184.1440  177.9850  143.4990 O   0  0  0  0  0  0  0  0  0  0  0  0
  183.7490  178.9780  144.4390 C   0  0  0  0  0  2  0  0  0  0  0  0
  184.9280  179.3560  145.3270 C   0  0  0  0  0  2  0  0  0  0  0  0
  186.1560  177.6630  146.6400 C   0  0  0  0  0  2  0  0  0  0  0  0
  186.1050  178.9390  147.4550 C   0  0  0  0  0  2  0  0  0  0  0  0
  184.9160  178.5380  146.6050 C   0  0  0  0  0  3  0  0  0  0  0  0
  1  5  1  0  0  0  0
  1 28  1  0  0  0  0
  2  5  2  0  0  0  0
  3  7  2  0  0  0  0
  3  4  1  0  0  0  0
  4  1  2  0  0  0  0
  5  8  1  0  0  0  0
  6  7  1  0  0  0  0
  7  2  1  0  0  0  0
  9  3  1  0  0  0  0
 10  9  1  0  0  0  0
 11 12  1  0  0  0  0
 13 14  1  0  0  0  0
 15 10  1  1  0  0  0
 15 11  1  0  0  0  0
 15 14  1  0  0  0  0
 16 13  1  0  0  0  0
 16 12  1  0  0  0  0
 17 12  1  0  0  0  0
 17 18  2  0  0  0  0
 17 20  1  0  0  0  0
 19 17  2  0  0  0  0
 22 26  1  0  0  0  0
 22 27  1  0  0  0  0
 24 21  1  6  0  0  0
 24 25  1  0  0  0  0
 24 23  1  0  0  0  0
 26 24  1  0  0  0  0
 27 25  1  0  0  0  0
 27 20  1  0  0  0  0
 28 30  1  0  0  0  0
 29 30  2  0  0  0  0
 29 33  1  0  0  0  0
 30 32  1  0  0  0  0
 31 49  1  0  0  0  0
 32 31  2  0  0  0  0
 33 34  2  0  0  0  0
 34 31  1  0  0  0  0
 34 36  1  0  0  0  0
 35 29  1  0  0  0  0
 37 36  1  0  0  0  0
 37 38  1  0  0  0  0
 39 38  1  0  0  0  0
 39 43  1  0  0  0  0
 40 47  1  6  0  0  0
 40 39  1  0  0  0  0
 40 43  1  0  0  0  0
 41 44  1  0  0  0  0
 43 45  1  0  0  0  0
 43 41  1  0  0  0  0
 44 42  1  0  0  0  0
 45 46  1  0  0  0  0
 46 42  1  0  0  0  0
 48 47  1  0  0  0  0
 49 50  1  0  0  0  0
 50 51  1  0  0  0  0
 51 54  1  0  0  0  0
 52 53  1  0  0  0  0
 54 52  1  0  0  0  0
 54 53  1  0  0  0  0
M  END
>  <MODEL>
1

>  <REMARK>
 VINA RESULT:      -8.0      0.000      0.000
  Name = 
  17 active torsions:
  status: ('A' for Active; 'I' for Inactive)
    1  A    between atoms: C_1  and  O_6
    2  A    between atoms: C_1  and  C_24
    3  A    between atoms: C_3  and  C_27
    4  A    between atoms: C_5  and  S_45
    5  A    between atoms: O_6  and  C_39
    6  A    between atoms: C_8  and  C_18
    7  A    between atoms: C_8  and  O_20
    8  A    between atoms: C_9  and  S_45
    9  A    between atoms: C_10  and  O_20
   10  A    between atoms: N_11  and  C_24
   11  A    between atoms: C_14  and  C_23
   12  A    between atoms: N_15  and  S_26
   13  A    between atoms: C_18  and  C_22
   14  A    between atoms: N_19  and  C_23
   15  A    between atoms: N_19  and  C_50
   16  A    between atoms: S_26  and  C_53
   17  A    between atoms: N_47  and  C_53
                            x       y       z     vdW  Elec       q    Type
                         _______ _______ _______ _____ _____    ______ ____

>  <TORSDO>
F 17

$$$$
=
 OpenBabel11042410073D

 54 60  0  0  1  0  0  0  0  0999 V2000
  186.7760  176.4340  136.0790 C   0  0  0  0  0  0  0  0  0  0  0  0
  186.7480  174.0640  135.5630 C   0  0  0  0  0  3  0  0  0  0  0  0
  184.7990  175.1090  136.5620 C   0  0  0  0  0  0  0  0  0  0  0  0
  185.4690  176.3360  136.5730 C   0  0  0  0  0  3  0  0  0  0  0  0
  187.4130  175.2930  135.5630 C   0  0  0  0  0  0  0  0  0  0  0  0
  184.8020  172.7340  136.0530 O   0  0  0  0  0  1  0  0  0  0  0  0
  185.4460  173.9650  136.0630 C   0  0  0  0  0  0  0  0  0  0  0  0
  188.6990  175.3720  135.0430 O   0  0  0  0  0  1  0  0  0  0  0  0
  183.4040  175.0340  137.0810 C   0  0  0  0  0  2  0  0  0  0  0  0
  182.4620  175.1860  135.9840 N   0  0  0  0  0  2  0  0  0  0  0  0
  181.8300  176.8060  137.7040 C   0  0  0  0  0  2  0  0  0  0  0  0
  182.1000  178.2370  137.8800 N   0  0  0  0  0  0  0  0  0  0  0  0
  181.4230  178.5520  135.5210 C   0  0  0  0  0  2  0  0  0  0  0  0
  182.2970  177.4490  135.4220 O   0  0  0  0  0  0  0  0  0  0  0  0
  181.7470  176.4290  136.2160 C   0  0  1  0  0  3  0  0  0  0  0  0
  181.2450  179.0160  136.9800 C   0  0  0  0  0  2  0  0  0  0  0  0
  181.6800  178.6480  139.5120 S   0  0  0  0  0  0  0  0  0  0  0  0
  180.9840  177.4830  140.1550 O   0  0  0  0  0  0  0  0  0  0  0  0
  180.7600  179.8390  139.5230 O   0  0  0  0  0  0  0  0  0  0  0  0
  183.1490  179.0390  140.4510 C   0  0  0  0  0  2  0  0  0  0  0  0
  183.5240  178.7100  145.1060 C   0  0  0  0  0  1  0  0  0  0  0  0
  184.5740  177.8910  141.9110 C   0  0  0  0  0  2  0  0  0  0  0  0
  184.7020  180.3010  143.7800 O   0  0  0  0  0  1  0  0  0  0  0  0
  184.0330  179.0750  143.7260 C   0  0  2  0  0  0  0  0  0  0  0  0
  182.8770  179.1660  142.7620 C   0  0  0  0  0  2  0  0  0  0  0  0
  184.9050  178.0810  143.2680 O   0  0  0  0  0  0  0  0  0  0  0  0
  183.1840  178.2580  141.6800 N   0  0  0  0  0  0  0  0  0  0  0  0
  187.5860  178.0370  136.0770 S   0  0  0  0  0  0  0  0  0  0  0  0
  187.5880  178.1770  138.8640 C   0  0  0  0  0  0  0  0  0  0  0  0
  188.2990  177.8150  137.7090 C   0  0  0  0  0  0  0  0  0  0  0  0
  190.1380  177.0270  139.0980 C   0  0  0  0  0  0  0  0  0  0  0  0
  189.5670  177.2380  137.8320 C   0  0  0  0  0  3  0  0  0  0  0  0
  188.1530  177.9670  140.1260 C   0  0  0  0  0  3  0  0  0  0  0  0
  189.4260  177.3910  140.2510 C   0  0  0  0  0  0  0  0  0  0  0  0
  186.3160  178.7290  138.7690 O   0  0  0  0  0  1  0  0  0  0  0  0
  190.0030  177.1720  141.5070 O   0  0  0  0  0  0  0  0  0  0  0  0
  189.7070  176.0300  142.3040 C   0  0  0  0  0  2  0  0  0  0  0  0
  188.8350  176.4340  143.4760 C   0  0  0  0  0  2  0  0  0  0  0  0
  189.6740  176.8340  144.5990 N   0  0  0  0  0  0  0  0  0  0  0  0
  189.9580  178.2720  144.3980 C   0  0  1  0  0  3  0  0  0  0  0  0
  187.5480  178.1530  145.2440 C   0  0  0  0  0  2  0  0  0  0  0  0
  187.1700  177.5570  147.5950 N   0  0  0  0  0  2  0  0  0  0  0  0
  189.0390  177.8610  145.4660 C   0  0  0  0  0  0  0  0  0  0  0  0
  186.7210  177.3200  146.2240 C   0  0  0  0  0  2  0  0  0  0  0  0
  189.5210  177.7800  146.9170 C   0  0  0  0  0  2  0  0  0  0  0  0
  188.5080  176.9840  147.7440 C   0  0  0  0  0  2  0  0  0  0  0  0
  191.3730  178.5760  144.8690 C   0  0  0  0  0  2  0  0  0  0  0  0
  192.1910  178.8140  143.7650 O   0  0  0  0  0  1  0  0  0  0  0  0
  191.4080  176.4530  139.2340 O   0  0  0  0  0  0  0  0  0  0  0  0
  192.3900  176.4980  138.2040 C   0  0  0  0  0  2  0  0  0  0  0  0
  192.6930  175.0900  137.7080 C   0  0  0  0  0  2  0  0  0  0  0  0
  192.1840  173.3570  136.0220 C   0  0  0  0  0  2  0  0  0  0  0  0
  190.9400  173.5740  136.8600 C   0  0  0  0  0  2  0  0  0  0  0  0
  191.8280  174.7520  136.5080 C   0  0  0  0  0  3  0  0  0  0  0  0
  1  4  1  0  0  0  0
  2  5  1  0  0  0  0
  2  7  2  0  0  0  0
  3  4  2  0  0  0  0
  3  9  1  0  0  0  0
  5  1  2  0  0  0  0
  6  7  1  0  0  0  0
  7  3  1  0  0  0  0
  8  5  1  0  0  0  0
 10  9  1  0  0  0  0
 11 12  1  0  0  0  0
 12 17  1  0  0  0  0
 13 16  1  0  0  0  0
 14 13  1  0  0  0  0
 14 15  1  0  0  0  0
 15 10  1  1  0  0  0
 15 11  1  0  0  0  0
 16 12  1  0  0  0  0
 17 19  2  0  0  0  0
 17 18  2  0  0  0  0
 17 20  1  0  0  0  0
 20 27  1  0  0  0  0
 22 26  1  0  0  0  0
 24 23  1  0  0  0  0
 24 21  1  1  0  0  0
 25 24  1  0  0  0  0
 26 24  1  0  0  0  0
 27 22  1  0  0  0  0
 27 25  1  0  0  0  0
 28  1  1  0  0  0  0
 28 30  1  0  0  0  0
 29 33  1  0  0  0  0
 30 32  1  0  0  0  0
 30 29  2  0  0  0  0
 31 49  1  0  0  0  0
 31 34  1  0  0  0  0
 32 31  2  0  0  0  0
 33 34  2  0  0  0  0
 34 36  1  0  0  0  0
 35 29  1  0  0  0  0
 36 37  1  0  0  0  0
 37 38  1  0  0  0  0
 38 39  1  0  0  0  0
 39 43  1  0  0  0  0
 40 39  1  0  0  0  0
 40 47  1  1  0  0  0
 40 43  1  0  0  0  0
 41 43  1  0  0  0  0
 41 44  1  0  0  0  0
 42 46  1  0  0  0  0
 43 45  1  0  0  0  0
 44 42  1  0  0  0  0
 45 46  1  0  0  0  0
 48 47  1  0  0  0  0
 50 49  1  0  0  0  0
 51 50  1  0  0  0  0
 52 54  1  0  0  0  0
 52 53  1  0  0  0  0
 54 53  1  0  0  0  0
 54 51  1  0  0  0  0
M  END
>  <MODEL>
2

>  <REMARK>
 VINA RESULT:      -7.4      2.379      7.648
  Name = 
  17 active torsions:
  status: ('A' for Active; 'I' for Inactive)
    1  A    between atoms: C_1  and  O_6
    2  A    between atoms: C_1  and  C_24
    3  A    between atoms: C_3  and  C_27
    4  A    between atoms: C_5  and  S_45
    5  A    between atoms: O_6  and  C_39
    6  A    between atoms: C_8  and  C_18
    7  A    between atoms: C_8  and  O_20
    8  A    between atoms: C_9  and  S_45
    9  A    between atoms: C_10  and  O_20
   10  A    between atoms: N_11  and  C_24
   11  A    between atoms: C_14  and  C_23
   12  A    between atoms: N_15  and  S_26
   13  A    between atoms: C_18  and  C_22
   14  A    between atoms: N_19  and  C_23
   15  A    between atoms: N_19  and  C_50
   16  A    between atoms: S_26  and  C_53
   17  A    between atoms: N_47  and  C_53
                            x       y       z     vdW  Elec       q    Type
                         _______ _______ _______ _____ _____    ______ ____

>  <TORSDO>
F 17

$$$$
=
 OpenBabel11042410073D

 54 60  0  0  1  0  0  0  0  0999 V2000
  182.7890  175.6700  136.2460 C   0  0  0  0  0  0  0  0  0  0  0  0
  181.3240  173.8790  136.9750 C   0  0  0  0  0  3  0  0  0  0  0  0
  183.7000  173.4660  136.7040 C   0  0  0  0  0  0  0  0  0  0  0  0
  183.8800  174.7940  136.3080 C   0  0  0  0  0  3  0  0  0  0  0  0
  181.5070  175.2100  136.5910 C   0  0  0  0  0  0  0  0  0  0  0  0
  182.2110  171.6840  137.4160 O   0  0  0  0  0  1  0  0  0  0  0  0
  182.4130  173.0040  137.0300 C   0  0  0  0  0  0  0  0  0  0  0  0
  180.4130  176.0670  136.5630 O   0  0  0  0  0  1  0  0  0  0  0  0
  184.8800  172.5580  136.7740 C   0  0  0  0  0  2  0  0  0  0  0  0
  185.9440  173.1920  137.5370 N   0  0  0  0  0  2  0  0  0  0  0  0
  187.8450  174.6230  136.9680 C   0  0  0  0  0  2  0  0  0  0  0  0
  189.2950  174.4000  136.9460 N   0  0  0  0  0  0  0  0  0  0  0  0
  188.8540  172.3090  135.6990 C   0  0  0  0  0  2  0  0  0  0  0  0
  187.9180  172.2170  136.7500 O   0  0  0  0  0  0  0  0  0  0  0  0
  187.0750  173.3350  136.6350 C   0  0  1  0  0  3  0  0  0  0  0  0
  189.6590  173.6230  135.7590 C   0  0  0  0  0  2  0  0  0  0  0  0
  190.0580  175.9540  136.8270 S   0  0  0  0  0  0  0  0  0  0  0  0
  189.1730  176.9920  137.4590 O   0  0  0  0  0  0  0  0  0  0  0  0
  190.2790  176.3090  135.3820 O   0  0  0  0  0  0  0  0  0  0  0  0
  191.6320  175.9400  137.6710 C   0  0  0  0  0  2  0  0  0  0  0  0
  195.6220  173.5630  137.0870 C   0  0  0  0  0  1  0  0  0  0  0  0
  193.6610  176.3690  136.5850 C   0  0  0  0  0  2  0  0  0  0  0  0
  195.2270  175.0910  138.8720 O   0  0  0  0  0  1  0  0  0  0  0  0
  194.8010  174.7330  137.5890 C   0  0  2  0  0  0  0  0  0  0  0  0
  193.3410  174.3570  137.6230 C   0  0  0  0  0  2  0  0  0  0  0  0
  194.9520  175.8200  136.7210 O   0  0  0  0  0  0  0  0  0  0  0  0
  192.6540  175.3440  136.8220 N   0  0  0  0  0  0  0  0  0  0  0  0
  183.0710  177.3790  135.7690 S   0  0  0  0  0  0  0  0  0  0  0  0
  184.8950  177.9440  137.8030 C   0  0  0  0  0  0  0  0  0  0  0  0
  183.5450  177.8900  137.4230 C   0  0  0  0  0  0  0  0  0  0  0  0
  182.8990  178.7070  139.6240 C   0  0  0  0  0  0  0  0  0  0  0  0
  182.5550  178.2760  138.3320 C   0  0  0  0  0  3  0  0  0  0  0  0
  185.2410  178.3740  139.0880 C   0  0  0  0  0  3  0  0  0  0  0  0
  184.2490  178.7580  140.0040 C   0  0  0  0  0  0  0  0  0  0  0  0
  185.8980  177.5900  136.9090 O   0  0  0  0  0  1  0  0  0  0  0  0
  184.5810  179.1940  141.2920 O   0  0  0  0  0  0  0  0  0  0  0  0
  185.8720  179.0080  141.8620 C   0  0  0  0  0  2  0  0  0  0  0  0
  185.8060  177.9570  142.9510 C   0  0  0  0  0  2  0  0  0  0  0  0
  186.6100  178.3790  144.0920 N   0  0  0  0  0  0  0  0  0  0  0  0
  186.3380  177.3940  145.1630 C   0  0  1  0  0  3  0  0  0  0  0  0
  187.9000  176.2150  143.5180 C   0  0  0  0  0  2  0  0  0  0  0  0
  190.2470  176.9290  143.4280 N   0  0  0  0  0  2  0  0  0  0  0  0
  187.6390  177.3790  144.4840 C   0  0  0  0  0  0  0  0  0  0  0  0
  189.0860  176.5640  142.6180 C   0  0  0  0  0  2  0  0  0  0  0  0
  188.8630  178.0270  145.1360 C   0  0  0  0  0  2  0  0  0  0  0  0
  189.9630  178.2050  144.0860 C   0  0  0  0  0  2  0  0  0  0  0  0
  186.3390  178.1030  146.5100 C   0  0  0  0  0  2  0  0  0  0  0  0
  185.2230  178.9340  146.6020 O   0  0  0  0  0  1  0  0  0  0  0  0
  181.9180  179.0920  140.5450 O   0  0  0  0  0  0  0  0  0  0  0  0
  181.0960  178.1570  141.2360 C   0  0  0  0  0  2  0  0  0  0  0  0
  179.8600  178.8540  141.7890 C   0  0  0  0  0  2  0  0  0  0  0  0
  179.6200  178.6890  144.2420 C   0  0  0  0  0  2  0  0  0  0  0  0
  181.0980  178.6320  143.9120 C   0  0  0  0  0  2  0  0  0  0  0  0
  180.1790  179.5320  143.1090 C   0  0  0  0  0  3  0  0  0  0  0  0
  1  4  2  0  0  0  0
  1  5  1  0  0  0  0
  2  7  1  0  0  0  0
  3  9  1  0  0  0  0
  3  7  2  0  0  0  0
  4  3  1  0  0  0  0
  5  2  2  0  0  0  0
  7  6  1  0  0  0  0
  8  5  1  0  0  0  0
  9 10  1  0  0  0  0
 12 11  1  0  0  0  0
 13 16  1  0  0  0  0
 13 14  1  0  0  0  0
 15 14  1  0  0  0  0
 15 11  1  0  0  0  0
 15 10  1  1  0  0  0
 16 12  1  0  0  0  0
 17 12  1  0  0  0  0
 17 18  2  0  0  0  0
 17 20  1  0  0  0  0
 19 17  2  0  0  0  0
 22 26  1  0  0  0  0
 22 27  1  0  0  0  0
 24 21  1  6  0  0  0
 24 25  1  0  0  0  0
 24 23  1  0  0  0  0
 26 24  1  0  0  0  0
 27 25  1  0  0  0  0
 27 20  1  0  0  0  0
 28  1  1  0  0  0  0
 28 30  1  0  0  0  0
 29 33  1  0  0  0  0
 30 29  2  0  0  0  0
 30 32  1  0  0  0  0
 31 34  1  0  0  0  0
 31 49  1  0  0  0  0
 32 31  2  0  0  0  0
 33 34  2  0  0  0  0
 34 36  1  0  0  0  0
 35 29  1  0  0  0  0
 36 37  1  0  0  0  0
 37 38  1  0  0  0  0
 38 39  1  0  0  0  0
 39 43  1  0  0  0  0
 39 40  1  0  0  0  0
 40 47  1  1  0  0  0
 41 43  1  0  0  0  0
 42 46  1  0  0  0  0
 43 45  1  0  0  0  0
 43 40  1  0  0  0  0
 44 42  1  0  0  0  0
 44 41  1  0  0  0  0
 46 45  1  0  0  0  0
 47 48  1  0  0  0  0
 49 50  1  0  0  0  0
 50 51  1  0  0  0  0
 51 54  1  0  0  0  0
 53 52  1  0  0  0  0
 54 53  1  0  0  0  0
 54 52  1  0  0  0  0
M  END
>  <MODEL>
3

>  <REMARK>
 VINA RESULT:      -7.2      1.838      3.243
  Name = 
  17 active torsions:
  status: ('A' for Active; 'I' for Inactive)
    1  A    between atoms: C_1  and  O_6
    2  A    between atoms: C_1  and  C_24
    3  A    between atoms: C_3  and  C_27
    4  A    between atoms: C_5  and  S_45
    5  A    between atoms: O_6  and  C_39
    6  A    between atoms: C_8  and  C_18
    7  A    between atoms: C_8  and  O_20
    8  A    between atoms: C_9  and  S_45
    9  A    between atoms: C_10  and  O_20
   10  A    between atoms: N_11  and  C_24
   11  A    between atoms: C_14  and  C_23
   12  A    between atoms: N_15  and  S_26
   13  A    between atoms: C_18  and  C_22
   14  A    between atoms: N_19  and  C_23
   15  A    between atoms: N_19  and  C_50
   16  A    between atoms: S_26  and  C_53
   17  A    between atoms: N_47  and  C_53
                            x       y       z     vdW  Elec       q    Type
                         _______ _______ _______ _____ _____    ______ ____

>  <TORSDO>
F 17

$$$$
=
 OpenBabel11042410073D

 54 60  0  0  1  0  0  0  0  0999 V2000
  181.0230  178.8800  142.0200 C   0  0  0  0  0  0  0  0  0  0  0  0
  182.3630  178.8050  144.0410 C   0  0  0  0  0  3  0  0  0  0  0  0
  183.4090  178.4480  141.8800 C   0  0  0  0  0  0  0  0  0  0  0  0
  182.1690  178.6150  141.2580 C   0  0  0  0  0  3  0  0  0  0  0  0
  181.1260  178.9850  143.4170 C   0  0  0  0  0  0  0  0  0  0  0  0
  184.7270  178.3600  143.9200 O   0  0  0  0  0  1  0  0  0  0  0  0
  183.5040  178.5340  143.2800 C   0  0  0  0  0  0  0  0  0  0  0  0
  180.0080  179.2740  144.1910 O   0  0  0  0  0  1  0  0  0  0  0  0
  184.6150  178.1800  141.0460 C   0  0  0  0  0  2  0  0  0  0  0  0
  185.2410  179.4370  140.6680 N   0  0  0  0  0  2  0  0  0  0  0  0
  187.2600  178.5340  141.7130 C   0  0  0  0  0  2  0  0  0  0  0  0
  188.1360  177.4020  141.3880 N   0  0  0  0  0  0  0  0  0  0  0  0
  188.1660  178.2260  139.0550 C   0  0  0  0  0  2  0  0  0  0  0  0
  186.7890  178.2750  139.3570 O   0  0  0  0  0  0  0  0  0  0  0  0
  186.6480  179.1520  140.4460 C   0  0  1  0  0  3  0  0  0  0  0  0
  189.0020  177.7560  140.2620 C   0  0  0  0  0  2  0  0  0  0  0  0
  189.1420  177.1110  142.7720 S   0  0  0  0  0  0  0  0  0  0  0  0
  190.0060  178.3140  143.0210 O   0  0  0  0  0  0  0  0  0  0  0  0
  190.0210  175.9150  142.5250 O   0  0  0  0  0  0  0  0  0  0  0  0
  188.1370  176.8070  144.2170 C   0  0  0  0  0  2  0  0  0  0  0  0
  189.3370  178.3350  148.4760 C   0  0  0  0  0  1  0  0  0  0  0  0
  187.0510  178.0240  145.8960 C   0  0  0  0  0  2  0  0  0  0  0  0
  188.2680  176.2460  148.0580 O   0  0  0  0  0  1  0  0  0  0  0  0
  188.5030  177.5130  147.5150 C   0  0  2  0  0  0  0  0  0  0  0  0
  189.2240  177.3780  146.1970 C   0  0  0  0  0  2  0  0  0  0  0  0
  187.2830  178.1580  147.2800 O   0  0  0  0  0  0  0  0  0  0  0  0
  188.3160  177.8760  145.1890 N   0  0  0  0  0  0  0  0  0  0  0  0
  179.4560  179.1260  141.1770 S   0  0  0  0  0  0  0  0  0  0  0  0
  180.2560  177.3100  139.2160 C   0  0  0  0  0  0  0  0  0  0  0  0
  180.1080  178.6600  139.5710 C   0  0  0  0  0  0  0  0  0  0  0  0
  180.9230  179.3200  137.3730 C   0  0  0  0  0  0  0  0  0  0  0  0
  180.4370  179.6570  138.6480 C   0  0  0  0  0  3  0  0  0  0  0  0
  180.7380  176.9710  137.9470 C   0  0  0  0  0  3  0  0  0  0  0  0
  181.0720  177.9700  137.0200 C   0  0  0  0  0  0  0  0  0  0  0  0
  179.9110  176.3000  140.1060 O   0  0  0  0  0  1  0  0  0  0  0  0
  181.5520  177.6460  135.7460 O   0  0  0  0  0  0  0  0  0  0  0  0
  182.8740  177.1680  135.5170 C   0  0  0  0  0  2  0  0  0  0  0  0
  182.8380  175.6820  135.2260 C   0  0  0  0  0  2  0  0  0  0  0  0
  184.1220  175.0820  135.5710 N   0  0  0  0  0  0  0  0  0  0  0  0
  184.4840  175.6360  136.8940 C   0  0  1  0  0  3  0  0  0  0  0  0
  182.6750  173.8880  137.3470 C   0  0  0  0  0  2  0  0  0  0  0  0
  183.2600  171.5170  137.0930 N   0  0  0  0  0  2  0  0  0  0  0  0
  184.0630  174.2340  136.7910 C   0  0  0  0  0  0  0  0  0  0  0  0
  182.2410  172.5260  136.8050 C   0  0  0  0  0  2  0  0  0  0  0  0
  185.1030  173.1110  136.7720 C   0  0  0  0  0  2  0  0  0  0  0  0
  184.4420  171.8170  136.2860 C   0  0  0  0  0  2  0  0  0  0  0  0
  185.9920  175.8370  136.9600 C   0  0  0  0  0  2  0  0  0  0  0  0
  186.4290  176.4760  135.8000 O   0  0  0  0  0  1  0  0  0  0  0  0
  181.2600  180.3090  136.4410 O   0  0  0  0  0  0  0  0  0  0  0  0
  180.2890  180.9950  135.6570 C   0  0  0  0  0  2  0  0  0  0  0  0
  180.8060  182.3750  135.2730 C   0  0  0  0  0  2  0  0  0  0  0  0
  181.4220  183.9950  137.0330 C   0  0  0  0  0  2  0  0  0  0  0  0
  180.8670  184.7720  135.8560 C   0  0  0  0  0  2  0  0  0  0  0  0
  180.2680  183.4280  136.2240 C   0  0  0  0  0  3  0  0  0  0  0  0
  1  5  1  0  0  0  0
  3  7  2  0  0  0  0
  4  3  1  0  0  0  0
  4  1  2  0  0  0  0
  5  2  2  0  0  0  0
  5  8  1  0  0  0  0
  7  6  1  0  0  0  0
  7  2  1  0  0  0  0
  9  3  1  0  0  0  0
 10  9  1  0  0  0  0
 12 11  1  0  0  0  0
 12 17  1  0  0  0  0
 13 14  1  0  0  0  0
 13 16  1  0  0  0  0
 14 15  1  0  0  0  0
 15 10  1  1  0  0  0
 15 11  1  0  0  0  0
 16 12  1  0  0  0  0
 17 18  2  0  0  0  0
 17 20  1  0  0  0  0
 19 17  2  0  0  0  0
 20 27  1  0  0  0  0
 22 26  1  0  0  0  0
 24 23  1  0  0  0  0
 24 21  1  1  0  0  0
 25 24  1  0  0  0  0
 26 24  1  0  0  0  0
 27 22  1  0  0  0  0
 27 25  1  0  0  0  0
 28  1  1  0  0  0  0
 29 30  1  0  0  0  0
 29 35  1  0  0  0  0
 30 28  1  0  0  0  0
 31 32  1  0  0  0  0
 32 30  2  0  0  0  0
 33 29  2  0  0  0  0
 34 31  2  0  0  0  0
 34 33  1  0  0  0  0
 36 34  1  0  0  0  0
 37 36  1  0  0  0  0
 38 37  1  0  0  0  0
 38 39  1  0  0  0  0
 39 43  1  0  0  0  0
 39 40  1  0  0  0  0
 40 47  1  6  0  0  0
 43 40  1  0  0  0  0
 43 41  1  0  0  0  0
 44 42  1  0  0  0  0
 44 41  1  0  0  0  0
 45 43  1  0  0  0  0
 46 45  1  0  0  0  0
 46 42  1  0  0  0  0
 48 47  1  0  0  0  0
 49 31  1  0  0  0  0
 50 49  1  0  0  0  0
 51 50  1  0  0  0  0
 51 54  1  0  0  0  0
 53 54  1  0  0  0  0
 53 52  1  0  0  0  0
 54 52  1  0  0  0  0
M  END
>  <MODEL>
4

>  <REMARK>
 VINA RESULT:      -7.2      3.413      8.831
  Name = 
  17 active torsions:
  status: ('A' for Active; 'I' for Inactive)
    1  A    between atoms: C_1  and  O_6
    2  A    between atoms: C_1  and  C_24
    3  A    between atoms: C_3  and  C_27
    4  A    between atoms: C_5  and  S_45
    5  A    between atoms: O_6  and  C_39
    6  A    between atoms: C_8  and  C_18
    7  A    between atoms: C_8  and  O_20
    8  A    between atoms: C_9  and  S_45
    9  A    between atoms: C_10  and  O_20
   10  A    between atoms: N_11  and  C_24
   11  A    between atoms: C_14  and  C_23
   12  A    between atoms: N_15  and  S_26
   13  A    between atoms: C_18  and  C_22
   14  A    between atoms: N_19  and  C_23
   15  A    between atoms: N_19  and  C_50
   16  A    between atoms: S_26  and  C_53
   17  A    between atoms: N_47  and  C_53
                            x       y       z     vdW  Elec       q    Type
                         _______ _______ _______ _____ _____    ______ ____

>  <TORSDO>
F 17

$$$$
=
 OpenBabel11042410073D

 54 60  0  0  1  0  0  0  0  0999 V2000
  180.8750  177.9770  138.4030 C   0  0  0  0  0  0  0  0  0  0  0  0
  180.8060  177.4670  136.0320 C   0  0  0  0  0  3  0  0  0  0  0  0
  181.6260  175.8100  137.6040 C   0  0  0  0  0  0  0  0  0  0  0  0
  181.4000  176.7040  138.6550 C   0  0  0  0  0  3  0  0  0  0  0  0
  180.5680  178.3550  137.0850 C   0  0  0  0  0  0  0  0  0  0  0  0
  181.5640  175.3290  135.2240 O   0  0  0  0  0  1  0  0  0  0  0  0
  181.3370  176.1990  136.2840 C   0  0  0  0  0  0  0  0  0  0  0  0
  180.0220  179.6040  136.8120 O   0  0  0  0  0  1  0  0  0  0  0  0
  182.1720  174.4560  137.9010 C   0  0  0  0  0  2  0  0  0  0  0  0
  183.6140  174.5330  138.0690 N   0  0  0  0  0  2  0  0  0  0  0  0
  185.6850  174.0290  136.8670 C   0  0  0  0  0  2  0  0  0  0  0  0
  186.5090  172.8210  136.7540 N   0  0  0  0  0  0  0  0  0  0  0  0
  184.4280  171.5660  136.2900 C   0  0  0  0  0  2  0  0  0  0  0  0
  184.0550  172.3320  137.4150 O   0  0  0  0  0  0  0  0  0  0  0  0
  184.1990  173.6800  137.0480 C   0  0  1  0  0  3  0  0  0  0  0  0
  185.8710  171.8710  135.8410 C   0  0  0  0  0  2  0  0  0  0  0  0
  188.0310  173.2920  136.0650 S   0  0  0  0  0  0  0  0  0  0  0  0
  188.3990  172.3330  134.9690 O   0  0  0  0  0  0  0  0  0  0  0  0
  189.1030  173.2700  137.1210 O   0  0  0  0  0  0  0  0  0  0  0  0
  187.9190  174.9390  135.3830 C   0  0  0  0  0  2  0  0  0  0  0  0
  188.9970  178.8130  137.7810 C   0  0  0  0  0  1  0  0  0  0  0  0
  189.3420  176.7610  135.0150 C   0  0  0  0  0  2  0  0  0  0  0  0
  187.2670  178.6910  136.1470 O   0  0  0  0  0  1  0  0  0  0  0  0
  188.4400  178.0690  136.5840 C   0  0  2  0  0  0  0  0  0  0  0  0
  188.1480  176.6380  136.9610 C   0  0  0  0  0  2  0  0  0  0  0  0
  189.3840  178.0640  135.5510 O   0  0  0  0  0  0  0  0  0  0  0  0
  188.8850  175.8190  136.0270 N   0  0  0  0  0  0  0  0  0  0  0  0
  180.5650  179.0800  139.7860 S   0  0  0  0  0  0  0  0  0  0  0  0
  183.3250  179.4190  139.5590 C   0  0  0  0  0  0  0  0  0  0  0  0
  182.2580  179.0140  140.3770 C   0  0  0  0  0  0  0  0  0  0  0  0
  183.8270  178.5520  142.1820 C   0  0  0  0  0  0  0  0  0  0  0  0
  182.5130  178.5870  141.6840 C   0  0  0  0  0  3  0  0  0  0  0  0
  184.6330  179.3860  140.0520 C   0  0  0  0  0  3  0  0  0  0  0  0
  184.8920  178.9550  141.3630 C   0  0  0  0  0  0  0  0  0  0  0  0
  183.0940  179.8710  138.2660 O   0  0  0  0  0  1  0  0  0  0  0  0
  186.1960  178.9200  141.8710 O   0  0  0  0  0  0  0  0  0  0  0  0
  187.2520  178.2040  141.2390 C   0  0  0  0  0  2  0  0  0  0  0  0
  188.5750  178.5700  141.8810 C   0  0  0  0  0  2  0  0  0  0  0  0
  189.4800  177.4280  141.8290 N   0  0  0  0  0  0  0  0  0  0  0  0
  190.6920  177.9060  141.1280 C   0  0  1  0  0  3  0  0  0  0  0  0
  190.8250  178.8830  143.4860 C   0  0  0  0  0  2  0  0  0  0  0  0
  191.3170  177.3610  145.3490 N   0  0  0  0  0  2  0  0  0  0  0  0
  190.7480  177.6520  142.5730 C   0  0  0  0  0  0  0  0  0  0  0  0
  190.4700  178.4720  144.9160 C   0  0  0  0  0  2  0  0  0  0  0  0
  191.3470  176.3500  143.1100 C   0  0  0  0  0  2  0  0  0  0  0  0
  190.9470  176.1750  144.5770 C   0  0  0  0  0  2  0  0  0  0  0  0
  191.2530  176.7800  140.2700 C   0  0  0  0  0  2  0  0  0  0  0  0
  190.2100  176.1290  139.6140 O   0  0  0  0  0  1  0  0  0  0  0  0
  184.0950  178.1230  143.4880 O   0  0  0  0  0  0  0  0  0  0  0  0
  183.8400  178.9290  144.6330 C   0  0  0  0  0  2  0  0  0  0  0  0
  184.7450  178.5060  145.7830 C   0  0  0  0  0  2  0  0  0  0  0  0
  187.0610  177.9180  146.4090 C   0  0  0  0  0  2  0  0  0  0  0  0
  186.7620  177.2790  145.0680 C   0  0  0  0  0  2  0  0  0  0  0  0
  186.2040  178.6510  145.3920 C   0  0  0  0  0  3  0  0  0  0  0  0
  1  4  1  0  0  0  0
  1 28  1  0  0  0  0
  2  7  2  0  0  0  0
  2  5  1  0  0  0  0
  3  9  1  0  0  0  0
  3  4  2  0  0  0  0
  5  1  2  0  0  0  0
  6  7  1  0  0  0  0
  7  3  1  0  0  0  0
  8  5  1  0  0  0  0
  9 10  1  0  0  0  0
 11 15  1  0  0  0  0
 12 11  1  0  0  0  0
 13 14  1  0  0  0  0
 15 14  1  0  0  0  0
 15 10  1  1  0  0  0
 16 13  1  0  0  0  0
 16 12  1  0  0  0  0
 17 12  1  0  0  0  0
 17 19  2  0  0  0  0
 18 17  2  0  0  0  0
 20 27  1  0  0  0  0
 20 17  1  0  0  0  0
 22 26  1  0  0  0  0
 22 27  1  0  0  0  0
 23 24  1  0  0  0  0
 24 25  1  0  0  0  0
 24 21  1  1  0  0  0
 26 24  1  0  0  0  0
 27 25  1  0  0  0  0
 28 30  1  0  0  0  0
 29 33  2  0  0  0  0
 29 30  1  0  0  0  0
 30 32  2  0  0  0  0
 31 49  1  0  0  0  0
 32 31  1  0  0  0  0
 33 34  1  0  0  0  0
 34 36  1  0  0  0  0
 34 31  2  0  0  0  0
 35 29  1  0  0  0  0
 37 36  1  0  0  0  0
 37 38  1  0  0  0  0
 39 38  1  0  0  0  0
 39 43  1  0  0  0  0
 40 47  1  6  0  0  0
 40 39  1  0  0  0  0
 40 43  1  0  0  0  0
 41 44  1  0  0  0  0
 43 45  1  0  0  0  0
 43 41  1  0  0  0  0
 44 42  1  0  0  0  0
 45 46  1  0  0  0  0
 46 42  1  0  0  0  0
 48 47  1  0  0  0  0
 49 50  1  0  0  0  0
 50 51  1  0  0  0  0
 53 54  1  0  0  0  0
 53 52  1  0  0  0  0
 54 51  1  0  0  0  0
 54 52  1  0  0  0  0
M  END
>  <MODEL>
5

>  <REMARK>
 VINA RESULT:      -7.1      2.423      3.405
  Name = 
  17 active torsions:
  status: ('A' for Active; 'I' for Inactive)
    1  A    between atoms: C_1  and  O_6
    2  A    between atoms: C_1  and  C_24
    3  A    between atoms: C_3  and  C_27
    4  A    between atoms: C_5  and  S_45
    5  A    between atoms: O_6  and  C_39
    6  A    between atoms: C_8  and  C_18
    7  A    between atoms: C_8  and  O_20
    8  A    between atoms: C_9  and  S_45
    9  A    between atoms: C_10  and  O_20
   10  A    between atoms: N_11  and  C_24
   11  A    between atoms: C_14  and  C_23
   12  A    between atoms: N_15  and  S_26
   13  A    between atoms: C_18  and  C_22
   14  A    between atoms: N_19  and  C_23
   15  A    between atoms: N_19  and  C_50
   16  A    between atoms: S_26  and  C_53
   17  A    between atoms: N_47  and  C_53
                            x       y       z     vdW  Elec       q    Type
                         _______ _______ _______ _____ _____    ______ ____

>  <TORSDO>
F 17

$$$$
=
 OpenBabel11042410073D

 54 60  0  0  1  0  0  0  0  0999 V2000
  189.5000  177.7420  138.0850 C   0  0  0  0  0  0  0  0  0  0  0  0
  191.1630  176.7200  139.5260 C   0  0  0  0  0  3  0  0  0  0  0  0
  189.1470  177.6700  140.4860 C   0  0  0  0  0  0  0  0  0  0  0  0
  188.7150  178.0330  139.2070 C   0  0  0  0  0  3  0  0  0  0  0  0
  190.7250  177.0730  138.2470 C   0  0  0  0  0  0  0  0  0  0  0  0
  190.8340  176.6570  141.9110 O   0  0  0  0  0  1  0  0  0  0  0  0
  190.3820  177.0180  140.6470 C   0  0  0  0  0  0  0  0  0  0  0  0
  191.5090  176.7490  137.1450 O   0  0  0  0  0  1  0  0  0  0  0  0
  188.2860  177.9800  141.6630 C   0  0  0  0  0  2  0  0  0  0  0  0
  187.0730  178.6500  141.2230 N   0  0  0  0  0  2  0  0  0  0  0  0
  186.7500  178.0500  143.5730 C   0  0  0  0  0  2  0  0  0  0  0  0
  186.1070  178.7330  144.7020 N   0  0  0  0  0  0  0  0  0  0  0  0
  184.1750  179.1550  143.2160 C   0  0  0  0  0  2  0  0  0  0  0  0
  185.2550  179.5390  142.3940 O   0  0  0  0  0  0  0  0  0  0  0  0
  186.0670  178.4020  142.2420 C   0  0  1  0  0  3  0  0  0  0  0  0
  184.6520  178.6230  144.5820 C   0  0  0  0  0  2  0  0  0  0  0  0
  186.5930  177.9100  146.1500 S   0  0  0  0  0  0  0  0  0  0  0  0
  186.4390  176.4280  145.9550 O   0  0  0  0  0  0  0  0  0  0  0  0
  185.7310  178.3470  147.3040 O   0  0  0  0  0  0  0  0  0  0  0  0
  188.3000  178.2730  146.5280 C   0  0  0  0  0  2  0  0  0  0  0  0
  191.7860  175.2580  147.3510 C   0  0  0  0  0  1  0  0  0  0  0  0
  190.3030  177.7350  145.4430 C   0  0  0  0  0  2  0  0  0  0  0  0
  191.7640  177.5150  148.1130 O   0  0  0  0  0  1  0  0  0  0  0  0
  191.2070  176.6460  147.1700 C   0  0  2  0  0  0  0  0  0  0  0  0
  189.7090  176.6030  147.3380 C   0  0  0  0  0  2  0  0  0  0  0  0
  191.4880  177.1080  145.8790 O   0  0  0  0  0  0  0  0  0  0  0  0
  189.1530  177.1620  146.1280 N   0  0  0  0  0  0  0  0  0  0  0  0
  188.8910  178.1930  136.4570 S   0  0  0  0  0  0  0  0  0  0  0  0
  187.1490  176.0240  136.2420 C   0  0  0  0  0  0  0  0  0  0  0  0
  187.3230  177.3470  136.6750 C   0  0  0  0  0  0  0  0  0  0  0  0
  185.0420  177.3590  137.5300 C   0  0  0  0  0  0  0  0  0  0  0  0
  186.2720  178.0060  137.3200 C   0  0  0  0  0  3  0  0  0  0  0  0
  185.9270  175.3760  136.4500 C   0  0  0  0  0  3  0  0  0  0  0  0
  184.8700  176.0360  137.0940 C   0  0  0  0  0  0  0  0  0  0  0  0
  188.1870  175.3390  135.6210 O   0  0  0  0  0  1  0  0  0  0  0  0
  183.6430  175.3990  137.3120 O   0  0  0  0  0  0  0  0  0  0  0  0
  183.5370  174.0220  137.6570 C   0  0  0  0  0  2  0  0  0  0  0  0
  182.8060  173.2740  136.5610 C   0  0  0  0  0  2  0  0  0  0  0  0
  181.3670  173.3640  136.7790 N   0  0  0  0  0  0  0  0  0  0  0  0
  180.8390  174.1760  135.6600 C   0  0  1  0  0  3  0  0  0  0  0  0
  181.3220  171.8670  134.6740 C   0  0  0  0  0  2  0  0  0  0  0  0
  179.8510  170.0050  135.3010 N   0  0  0  0  0  2  0  0  0  0  0  0
  180.5700  172.7340  135.6940 C   0  0  0  0  0  0  0  0  0  0  0  0
  181.2450  170.4020  135.1040 C   0  0  0  0  0  2  0  0  0  0  0  0
  179.2210  172.2070  136.1910 C   0  0  0  0  0  2  0  0  0  0  0  0
  179.3370  170.7070  136.4770 C   0  0  0  0  0  2  0  0  0  0  0  0
  179.6930  175.0410  136.1640 C   0  0  0  0  0  2  0  0  0  0  0  0
  179.7640  175.1490  137.5520 O   0  0  0  0  0  1  0  0  0  0  0  0
  183.9810  178.0080  138.1710 O   0  0  0  0  0  0  0  0  0  0  0  0
  183.5990  177.7250  139.5130 C   0  0  0  0  0  2  0  0  0  0  0  0
  182.1410  177.2870  139.5610 C   0  0  0  0  0  2  0  0  0  0  0  0
  180.0130  178.1750  140.4480 C   0  0  0  0  0  2  0  0  0  0  0  0
  181.1420  179.0160  141.0100 C   0  0  0  0  0  2  0  0  0  0  0  0
  181.2240  178.4960  139.5880 C   0  0  0  0  0  3  0  0  0  0  0  0
  1  5  2  0  0  0  0
  1  4  1  0  0  0  0
  2  7  2  0  0  0  0
  3  7  1  0  0  0  0
  3  9  1  0  0  0  0
  4  3  2  0  0  0  0
  5  2  1  0  0  0  0
  7  6  1  0  0  0  0
  8  5  1  0  0  0  0
 10  9  1  0  0  0  0
 11 12  1  0  0  0  0
 12 17  1  0  0  0  0
 13 16  1  0  0  0  0
 14 13  1  0  0  0  0
 15 10  1  6  0  0  0
 15 14  1  0  0  0  0
 15 11  1  0  0  0  0
 16 12  1  0  0  0  0
 17 20  1  0  0  0  0
 17 19  2  0  0  0  0
 18 17  2  0  0  0  0
 22 26  1  0  0  0  0
 22 27  1  0  0  0  0
 24 25  1  0  0  0  0
 24 21  1  1  0  0  0
 24 23  1  0  0  0  0
 26 24  1  0  0  0  0
 27 20  1  0  0  0  0
 27 25  1  0  0  0  0
 28 30  1  0  0  0  0
 28  1  1  0  0  0  0
 29 33  2  0  0  0  0
 29 30  1  0  0  0  0
 30 32  2  0  0  0  0
 31 49  1  0  0  0  0
 32 31  1  0  0  0  0
 33 34  1  0  0  0  0
 34 36  1  0  0  0  0
 34 31  2  0  0  0  0
 35 29  1  0  0  0  0
 36 37  1  0  0  0  0
 38 39  1  0  0  0  0
 38 37  1  0  0  0  0
 40 43  1  0  0  0  0
 40 47  1  1  0  0  0
 40 39  1  0  0  0  0
 41 44  1  0  0  0  0
 41 43  1  0  0  0  0
 42 46  1  0  0  0  0
 43 45  1  0  0  0  0
 43 39  1  0  0  0  0
 44 42  1  0  0  0  0
 45 46  1  0  0  0  0
 47 48  1  0  0  0  0
 49 50  1  0  0  0  0
 50 51  1  0  0  0  0
 51 54  1  0  0  0  0
 52 53  1  0  0  0  0
 54 52  1  0  0  0  0
 54 53  1  0  0  0  0
M  END
>  <MODEL>
6

>  <REMARK>
 VINA RESULT:      -6.7      3.105      9.927
  Name = 
  17 active torsions:
  status: ('A' for Active; 'I' for Inactive)
    1  A    between atoms: C_1  and  O_6
    2  A    between atoms: C_1  and  C_24
    3  A    between atoms: C_3  and  C_27
    4  A    between atoms: C_5  and  S_45
    5  A    between atoms: O_6  and  C_39
    6  A    between atoms: C_8  and  C_18
    7  A    between atoms: C_8  and  O_20
    8  A    between atoms: C_9  and  S_45
    9  A    between atoms: C_10  and  O_20
   10  A    between atoms: N_11  and  C_24
   11  A    between atoms: C_14  and  C_23
   12  A    between atoms: N_15  and  S_26
   13  A    between atoms: C_18  and  C_22
   14  A    between atoms: N_19  and  C_23
   15  A    between atoms: N_19  and  C_50
   16  A    between atoms: S_26  and  C_53
   17  A    between atoms: N_47  and  C_53
                            x       y       z     vdW  Elec       q    Type
                         _______ _______ _______ _____ _____    ______ ____

>  <TORSDO>
F 17

$$$$
=
 OpenBabel11042410073D

 54 60  0  0  1  0  0  0  0  0999 V2000
  190.8390  176.7080  139.8680 C   0  0  0  0  0  0  0  0  0  0  0  0
  191.5990  178.0760  141.7230 C   0  0  0  0  0  3  0  0  0  0  0  0
  189.3170  177.2510  141.6810 C   0  0  0  0  0  0  0  0  0  0  0  0
  189.5730  176.6190  140.4610 C   0  0  0  0  0  3  0  0  0  0  0  0
  191.8580  177.4320  140.5100 C   0  0  0  0  0  0  0  0  0  0  0  0
  190.0950  178.6370  143.5180 O   0  0  0  0  0  1  0  0  0  0  0  0
  190.3330  177.9920  142.3100 C   0  0  0  0  0  0  0  0  0  0  0  0
  193.1300  177.5130  139.9540 O   0  0  0  0  0  1  0  0  0  0  0  0
  187.9650  177.1290  142.2970 C   0  0  0  0  0  2  0  0  0  0  0  0
  187.1840  178.3220  142.0090 N   0  0  0  0  0  2  0  0  0  0  0  0
  186.3730  178.2860  144.3170 C   0  0  0  0  0  2  0  0  0  0  0  0
  185.4790  179.1650  145.0790 N   0  0  0  0  0  0  0  0  0  0  0  0
  183.9060  179.0480  143.1720 C   0  0  0  0  0  2  0  0  0  0  0  0
  185.1280  179.3110  142.5180 O   0  0  0  0  0  0  0  0  0  0  0  0
  185.9880  178.2440  142.8300 C   0  0  1  0  0  3  0  0  0  0  0  0
  184.0890  178.9070  144.6970 C   0  0  0  0  0  2  0  0  0  0  0  0
  185.6600  178.7630  146.7570 S   0  0  0  0  0  0  0  0  0  0  0  0
  184.3540  178.2450  147.2880 O   0  0  0  0  0  0  0  0  0  0  0  0
  186.0610  179.9850  147.5380 O   0  0  0  0  0  0  0  0  0  0  0  0
  186.9110  177.5040  146.9620 C   0  0  0  0  0  2  0  0  0  0  0  0
  191.5200  177.1190  146.2370 C   0  0  0  0  0  1  0  0  0  0  0  0
  188.8240  178.1150  148.1650 C   0  0  0  0  0  2  0  0  0  0  0  0
  190.2110  175.5050  147.4040 O   0  0  0  0  0  1  0  0  0  0  0  0
  190.2380  176.8420  146.9960 C   0  0  2  0  0  0  0  0  0  0  0  0
  189.0490  177.1300  146.1140 C   0  0  0  0  0  2  0  0  0  0  0  0
  190.1630  177.6780  148.1150 O   0  0  0  0  0  0  0  0  0  0  0  0
  188.2390  178.0870  146.8320 N   0  0  0  0  0  0  0  0  0  0  0  0
  191.1370  175.8490  138.3190 S   0  0  0  0  0  0  0  0  0  0  0  0
  189.1820  175.9100  136.3300 C   0  0  0  0  0  0  0  0  0  0  0  0
  189.5990  176.4010  137.5770 C   0  0  0  0  0  0  0  0  0  0  0  0
  187.5660  177.7340  137.7240 C   0  0  0  0  0  0  0  0  0  0  0  0
  188.7880  177.3060  138.2690 C   0  0  0  0  0  3  0  0  0  0  0  0
  187.9650  176.3330  135.7850 C   0  0  0  0  0  3  0  0  0  0  0  0
  187.1510  177.2430  136.4760 C   0  0  0  0  0  0  0  0  0  0  0  0
  189.9570  174.9900  135.6340 O   0  0  0  0  0  1  0  0  0  0  0  0
  185.9290  177.6730  135.9450 O   0  0  0  0  0  0  0  0  0  0  0  0
  184.9320  176.7720  135.4740 C   0  0  0  0  0  2  0  0  0  0  0  0
  184.2350  176.1190  136.6510 C   0  0  0  0  0  2  0  0  0  0  0  0
  183.9990  174.7090  136.3620 N   0  0  0  0  0  0  0  0  0  0  0  0
  184.3230  173.9820  137.6090 C   0  0  1  0  0  3  0  0  0  0  0  0
  182.0480  175.0740  138.0150 C   0  0  0  0  0  2  0  0  0  0  0  0
  180.0950  174.1620  136.8400 N   0  0  0  0  0  2  0  0  0  0  0  0
  182.9210  174.1140  137.1960 C   0  0  0  0  0  0  0  0  0  0  0  0
  180.7780  175.3960  137.2270 C   0  0  0  0  0  2  0  0  0  0  0  0
  182.2080  172.9580  136.4900 C   0  0  0  0  0  2  0  0  0  0  0  0
  180.9200  173.4760  135.8450 C   0  0  0  0  0  2  0  0  0  0  0  0
  184.9590  172.6440  137.2600 C   0  0  0  0  0  2  0  0  0  0  0  0
  186.3260  172.8170  137.0490 O   0  0  0  0  0  1  0  0  0  0  0  0
  186.7470  178.6420  138.4050 O   0  0  0  0  0  0  0  0  0  0  0  0
  185.5900  178.2440  139.1330 C   0  0  0  0  0  2  0  0  0  0  0  0
  184.5550  179.3620  139.1220 C   0  0  0  0  0  2  0  0  0  0  0  0
  182.1900  179.1740  139.8100 C   0  0  0  0  0  2  0  0  0  0  0  0
  182.2420  179.9850  138.5310 C   0  0  0  0  0  2  0  0  0  0  0  0
  183.1930  178.8200  138.7270 C   0  0  0  0  0  3  0  0  0  0  0  0
  1  4  2  0  0  0  0
  1  5  1  0  0  0  0
  2  7  1  0  0  0  0
  3  9  1  0  0  0  0
  3  7  2  0  0  0  0
  4  3  1  0  0  0  0
  5  2  2  0  0  0  0
  7  6  1  0  0  0  0
  8  5  1  0  0  0  0
 10  9  1  0  0  0  0
 11 12  1  0  0  0  0
 12 17  1  0  0  0  0
 13 16  1  0  0  0  0
 14 15  1  0  0  0  0
 14 13  1  0  0  0  0
 15 10  1  6  0  0  0
 15 11  1  0  0  0  0
 16 12  1  0  0  0  0
 17 20  1  0  0  0  0
 17 18  2  0  0  0  0
 17 19  2  0  0  0  0
 24 21  1  6  0  0  0
 24 23  1  0  0  0  0
 24 26  1  0  0  0  0
 25 27  1  0  0  0  0
 25 24  1  0  0  0  0
 26 22  1  0  0  0  0
 27 20  1  0  0  0  0
 27 22  1  0  0  0  0
 28  1  1  0  0  0  0
 29 30  1  0  0  0  0
 30 32  2  0  0  0  0
 30 28  1  0  0  0  0
 31 32  1  0  0  0  0
 31 49  1  0  0  0  0
 33 29  2  0  0  0  0
 33 34  1  0  0  0  0
 34 31  2  0  0  0  0
 35 29  1  0  0  0  0
 36 34  1  0  0  0  0
 37 36  1  0  0  0  0
 37 38  1  0  0  0  0
 39 38  1  0  0  0  0
 39 43  1  0  0  0  0
 39 40  1  0  0  0  0
 40 47  1  6  0  0  0
 42 44  1  0  0  0  0
 43 40  1  0  0  0  0
 43 41  1  0  0  0  0
 44 41  1  0  0  0  0
 45 43  1  0  0  0  0
 46 45  1  0  0  0  0
 46 42  1  0  0  0  0
 48 47  1  0  0  0  0
 49 50  1  0  0  0  0
 51 50  1  0  0  0  0
 53 54  1  0  0  0  0
 53 52  1  0  0  0  0
 54 51  1  0  0  0  0
 54 52  1  0  0  0  0
M  END
>  <MODEL>
7

>  <REMARK>
 VINA RESULT:      -6.5      2.979      9.732
  Name = 
  17 active torsions:
  status: ('A' for Active; 'I' for Inactive)
    1  A    between atoms: C_1  and  O_6
    2  A    between atoms: C_1  and  C_24
    3  A    between atoms: C_3  and  C_27
    4  A    between atoms: C_5  and  S_45
    5  A    between atoms: O_6  and  C_39
    6  A    between atoms: C_8  and  C_18
    7  A    between atoms: C_8  and  O_20
    8  A    between atoms: C_9  and  S_45
    9  A    between atoms: C_10  and  O_20
   10  A    between atoms: N_11  and  C_24
   11  A    between atoms: C_14  and  C_23
   12  A    between atoms: N_15  and  S_26
   13  A    between atoms: C_18  and  C_22
   14  A    between atoms: N_19  and  C_23
   15  A    between atoms: N_19  and  C_50
   16  A    between atoms: S_26  and  C_53
   17  A    between atoms: N_47  and  C_53
                            x       y       z     vdW  Elec       q    Type
                         _______ _______ _______ _____ _____    ______ ____

>  <TORSDO>
F 17

$$$$
=
 OpenBabel11042410073D

 54 60  0  0  1  0  0  0  0  0999 V2000
  188.9760  177.5510  145.1400 C   0  0  0  0  0  0  0  0  0  0  0  0
  191.1750  177.1990  144.1760 C   0  0  0  0  0  3  0  0  0  0  0  0
  189.3690  178.0500  142.7960 C   0  0  0  0  0  0  0  0  0  0  0  0
  188.5100  177.9980  143.8970 C   0  0  0  0  0  3  0  0  0  0  0  0
  190.3180  177.1600  145.2800 C   0  0  0  0  0  0  0  0  0  0  0  0
  191.5740  177.6720  141.8490 O   0  0  0  0  0  1  0  0  0  0  0  0
  190.7060  177.6380  142.9340 C   0  0  0  0  0  0  0  0  0  0  0  0
  190.8110  176.7380  146.5090 O   0  0  0  0  0  1  0  0  0  0  0  0
  188.8510  178.5420  141.4880 C   0  0  0  0  0  2  0  0  0  0  0  0
  188.5960  177.4150  140.6040 N   0  0  0  0  0  2  0  0  0  0  0  0
  188.8340  176.6560  138.2910 C   0  0  0  0  0  2  0  0  0  0  0  0
  188.3090  177.1520  137.0140 N   0  0  0  0  0  0  0  0  0  0  0  0
  189.0580  179.4090  137.6990 C   0  0  0  0  0  2  0  0  0  0  0  0
  188.3960  178.9620  138.8620 O   0  0  0  0  0  0  0  0  0  0  0  0
  189.0680  177.8030  139.2860 C   0  0  1  0  0  3  0  0  0  0  0  0
  189.0660  178.3340  136.5940 C   0  0  0  0  0  2  0  0  0  0  0  0
  188.5560  175.9060  135.8320 S   0  0  0  0  0  0  0  0  0  0  0  0
  190.0120  175.8460  135.4680 O   0  0  0  0  0  0  0  0  0  0  0  0
  187.7500  176.2030  134.5960 O   0  0  0  0  0  0  0  0  0  0  0  0
  188.0540  174.3220  136.4860 C   0  0  0  0  0  2  0  0  0  0  0  0
  183.6220  172.9090  135.9600 C   0  0  0  0  0  1  0  0  0  0  0  0
  187.0300  172.3160  135.8480 C   0  0  0  0  0  2  0  0  0  0  0  0
  184.8710  172.6690  137.9750 O   0  0  0  0  0  1  0  0  0  0  0  0
  184.9960  172.8570  136.5960 C   0  0  2  0  0  0  0  0  0  0  0  0
  185.7370  174.1410  136.3220 C   0  0  0  0  0  2  0  0  0  0  0  0
  185.7310  171.8030  136.0420 O   0  0  0  0  0  0  0  0  0  0  0  0
  186.9760  173.7620  135.6830 N   0  0  0  0  0  0  0  0  0  0  0  0
  187.8490  177.5370  146.5380 S   0  0  0  0  0  0  0  0  0  0  0  0
  185.2410  178.4360  146.1170 C   0  0  0  0  0  0  0  0  0  0  0  0
  186.4080  177.9150  145.5360 C   0  0  0  0  0  0  0  0  0  0  0  0
  185.3610  178.0360  143.3410 C   0  0  0  0  0  0  0  0  0  0  0  0
  186.4640  177.7220  144.1530 C   0  0  0  0  0  3  0  0  0  0  0  0
  184.1410  178.7500  145.3120 C   0  0  0  0  0  3  0  0  0  0  0  0
  184.1940  178.5550  143.9230 C   0  0  0  0  0  0  0  0  0  0  0  0
  185.1700  178.6600  147.4870 O   0  0  0  0  0  1  0  0  0  0  0  0
  183.1030  178.8680  143.1040 O   0  0  0  0  0  0  0  0  0  0  0  0
  181.9080  179.4600  143.6020 C   0  0  0  0  0  2  0  0  0  0  0  0
  180.7280  179.0210  142.7590 C   0  0  0  0  0  2  0  0  0  0  0  0
  181.1730  178.7380  141.4000 N   0  0  0  0  0  0  0  0  0  0  0  0
  180.2150  177.7470  140.8600 C   0  0  1  0  0  3  0  0  0  0  0  0
  178.9910  179.9910  140.8150 C   0  0  0  0  0  2  0  0  0  0  0  0
  179.6930  181.6650  139.1620 N   0  0  0  0  0  2  0  0  0  0  0  0
  180.1790  179.1280  140.3650 C   0  0  0  0  0  0  0  0  0  0  0  0
  179.3130  181.4640  140.5600 C   0  0  0  0  0  2  0  0  0  0  0  0
  180.8370  179.4940  139.0320 C   0  0  0  0  0  2  0  0  0  0  0  0
  180.9840  181.0150  138.9400 C   0  0  0  0  0  2  0  0  0  0  0  0
  180.9560  176.7740  139.9530 C   0  0  0  0  0  2  0  0  0  0  0  0
  180.5190  175.4750  140.2070 O   0  0  0  0  0  1  0  0  0  0  0  0
  185.4030  177.8440  141.9540 O   0  0  0  0  0  0  0  0  0  0  0  0
  185.3230  178.9180  141.0230 C   0  0  0  0  0  2  0  0  0  0  0  0
  184.3020  178.5960  139.9400 C   0  0  0  0  0  2  0  0  0  0  0  0
  184.1220  176.9490  138.1070 C   0  0  0  0  0  2  0  0  0  0  0  0
  184.1330  178.3340  137.4920 C   0  0  0  0  0  2  0  0  0  0  0  0
  184.9920  178.0400  138.7070 C   0  0  0  0  0  3  0  0  0  0  0  0
  1  5  1  0  0  0  0
  1 28  1  0  0  0  0
  2  5  2  0  0  0  0
  3  7  2  0  0  0  0
  3  4  1  0  0  0  0
  4  1  2  0  0  0  0
  5  8  1  0  0  0  0
  6  7  1  0  0  0  0
  7  2  1  0  0  0  0
  9  3  1  0  0  0  0
 10  9  1  0  0  0  0
 11 15  1  0  0  0  0
 12 11  1  0  0  0  0
 13 14  1  0  0  0  0
 14 15  1  0  0  0  0
 15 10  1  1  0  0  0
 16 12  1  0  0  0  0
 16 13  1  0  0  0  0
 17 20  1  0  0  0  0
 17 12  1  0  0  0  0
 18 17  2  0  0  0  0
 19 17  2  0  0  0  0
 22 26  1  0  0  0  0
 24 21  1  6  0  0  0
 24 23  1  0  0  0  0
 25 24  1  0  0  0  0
 26 24  1  0  0  0  0
 27 22  1  0  0  0  0
 27 25  1  0  0  0  0
 27 20  1  0  0  0  0
 29 35  1  0  0  0  0
 30 29  1  0  0  0  0
 30 28  1  0  0  0  0
 31 34  2  0  0  0  0
 31 32  1  0  0  0  0
 32 30  2  0  0  0  0
 33 29  2  0  0  0  0
 34 33  1  0  0  0  0
 36 37  1  0  0  0  0
 36 34  1  0  0  0  0
 38 37  1  0  0  0  0
 39 38  1  0  0  0  0
 40 47  1  6  0  0  0
 40 39  1  0  0  0  0
 42 44  1  0  0  0  0
 43 41  1  0  0  0  0
 43 40  1  0  0  0  0
 43 39  1  0  0  0  0
 44 41  1  0  0  0  0
 45 43  1  0  0  0  0
 46 45  1  0  0  0  0
 46 42  1  0  0  0  0
 47 48  1  0  0  0  0
 49 31  1  0  0  0  0
 50 49  1  0  0  0  0
 51 50  1  0  0  0  0
 52 54  1  0  0  0  0
 53 52  1  0  0  0  0
 53 54  1  0  0  0  0
 54 51  1  0  0  0  0
M  END
>  <MODEL>
8

>  <REMARK>
 VINA RESULT:      -6.5      3.068      8.584
  Name = 
  17 active torsions:
  status: ('A' for Active; 'I' for Inactive)
    1  A    between atoms: C_1  and  O_6
    2  A    between atoms: C_1  and  C_24
    3  A    between atoms: C_3  and  C_27
    4  A    between atoms: C_5  and  S_45
    5  A    between atoms: O_6  and  C_39
    6  A    between atoms: C_8  and  C_18
    7  A    between atoms: C_8  and  O_20
    8  A    between atoms: C_9  and  S_45
    9  A    between atoms: C_10  and  O_20
   10  A    between atoms: N_11  and  C_24
   11  A    between atoms: C_14  and  C_23
   12  A    between atoms: N_15  and  S_26
   13  A    between atoms: C_18  and  C_22
   14  A    between atoms: N_19  and  C_23
   15  A    between atoms: N_19  and  C_50
   16  A    between atoms: S_26  and  C_53
   17  A    between atoms: N_47  and  C_53
                            x       y       z     vdW  Elec       q    Type
                         _______ _______ _______ _____ _____    ______ ____

>  <TORSDO>
F 17

$$$$
=
 OpenBabel11042410073D

 54 60  0  0  1  0  0  0  0  0999 V2000
  190.1480  176.9500  144.5790 C   0  0  0  0  0  0  0  0  0  0  0  0
  189.4090  177.4460  146.8360 C   0  0  0  0  0  3  0  0  0  0  0  0
  187.7830  177.2430  145.0460 C   0  0  0  0  0  0  0  0  0  0  0  0
  188.8170  176.9830  144.1430 C   0  0  0  0  0  3  0  0  0  0  0  0
  190.4420  177.1730  145.9350 C   0  0  0  0  0  0  0  0  0  0  0  0
  187.0690  177.7570  147.3110 O   0  0  0  0  0  1  0  0  0  0  0  0
  188.0820  177.4860  146.3980 C   0  0  0  0  0  0  0  0  0  0  0  0
  191.7510  177.1190  146.3960 O   0  0  0  0  0  1  0  0  0  0  0  0
  186.3740  177.2600  144.5590 C   0  0  0  0  0  2  0  0  0  0  0  0
  186.2780  178.0770  143.3600 N   0  0  0  0  0  2  0  0  0  0  0  0
  184.2040  178.6010  142.1730 C   0  0  0  0  0  2  0  0  0  0  0  0
  182.7880  178.3660  142.4780 N   0  0  0  0  0  0  0  0  0  0  0  0
  183.2290  179.2720  144.7380 C   0  0  0  0  0  2  0  0  0  0  0  0
  184.3040  178.3730  144.5770 O   0  0  0  0  0  0  0  0  0  0  0  0
  185.0270  178.8100  143.4540 C   0  0  1  0  0  3  0  0  0  0  0  0
  182.3330  179.3270  143.4850 C   0  0  0  0  0  2  0  0  0  0  0  0
  181.8890  178.6450  141.0210 S   0  0  0  0  0  0  0  0  0  0  0  0
  182.8320  179.0580  139.9260 O   0  0  0  0  0  0  0  0  0  0  0  0
  180.8790  179.7380  141.2400 O   0  0  0  0  0  0  0  0  0  0  0  0
  181.0370  177.1560  140.5220 C   0  0  0  0  0  2  0  0  0  0  0  0
  179.9880  175.0390  136.4810 C   0  0  0  0  0  1  0  0  0  0  0  0
  182.1630  175.6810  139.0950 C   0  0  0  0  0  2  0  0  0  0  0  0
  179.6050  174.0820  138.6290 O   0  0  0  0  0  1  0  0  0  0  0  0
  180.3510  175.0510  137.9520 C   0  0  2  0  0  0  0  0  0  0  0  0
  180.0700  176.4120  138.5370 C   0  0  0  0  0  2  0  0  0  0  0  0
  181.7170  174.7860  138.1020 O   0  0  0  0  0  0  0  0  0  0  0  0
  181.3120  176.8620  139.1230 N   0  0  0  0  0  0  0  0  0  0  0  0
  191.4430  176.5750  143.3930 S   0  0  0  0  0  0  0  0  0  0  0  0
  189.8600  178.4150  142.0170 C   0  0  0  0  0  0  0  0  0  0  0  0
  190.4950  177.1630  141.9870 C   0  0  0  0  0  0  0  0  0  0  0  0
  189.7060  176.8260  139.7080 C   0  0  0  0  0  0  0  0  0  0  0  0
  190.4180  176.3780  140.8330 C   0  0  0  0  0  3  0  0  0  0  0  0
  189.1520  178.8650  140.8980 C   0  0  0  0  0  3  0  0  0  0  0  0
  189.0710  178.0780  139.7400 C   0  0  0  0  0  0  0  0  0  0  0  0
  189.9430  179.2250  143.1430 O   0  0  0  0  0  1  0  0  0  0  0  0
  188.3690  178.5160  138.6120 O   0  0  0  0  0  0  0  0  0  0  0  0
  188.9890  178.7230  137.3470 C   0  0  0  0  0  2  0  0  0  0  0  0
  188.0930  178.1980  136.2440 C   0  0  0  0  0  2  0  0  0  0  0  0
  187.1440  177.2390  136.7960 N   0  0  0  0  0  0  0  0  0  0  0  0
  185.9490  177.3060  135.9250 C   0  0  1  0  0  3  0  0  0  0  0  0
  187.6960  175.9850  134.6060 C   0  0  0  0  0  2  0  0  0  0  0  0
  188.2310  173.7060  135.3450 N   0  0  0  0  0  2  0  0  0  0  0  0
  186.8230  176.1280  135.8610 C   0  0  0  0  0  0  0  0  0  0  0  0
  188.8050  174.9680  134.8780 C   0  0  0  0  0  2  0  0  0  0  0  0
  186.4430  174.8390  136.5930 C   0  0  0  0  0  2  0  0  0  0  0  0
  187.6680  173.9250  136.6780 C   0  0  0  0  0  2  0  0  0  0  0  0
  184.6990  177.1150  136.7710 C   0  0  0  0  0  2  0  0  0  0  0  0
  184.9030  177.6640  138.0370 O   0  0  0  0  0  1  0  0  0  0  0  0
  189.6200  176.0480  138.5470 O   0  0  0  0  0  0  0  0  0  0  0  0
  190.7340  175.3540  137.9970 C   0  0  0  0  0  2  0  0  0  0  0  0
  191.6620  176.3330  137.2890 C   0  0  0  0  0  2  0  0  0  0  0  0
  193.9560  176.3860  136.3720 C   0  0  0  0  0  2  0  0  0  0  0  0
  193.8470  175.1870  137.2920 C   0  0  0  0  0  2  0  0  0  0  0  0
  192.6660  175.5860  136.4290 C   0  0  0  0  0  3  0  0  0  0  0  0
  1  5  1  0  0  0  0
  3  7  2  0  0  0  0
  4  1  2  0  0  0  0
  4  3  1  0  0  0  0
  5  8  1  0  0  0  0
  5  2  2  0  0  0  0
  7  2  1  0  0  0  0
  7  6  1  0  0  0  0
  9  3  1  0  0  0  0
 10  9  1  0  0  0  0
 11 12  1  0  0  0  0
 11 15  1  0  0  0  0
 12 16  1  0  0  0  0
 14 13  1  0  0  0  0
 15 10  1  6  0  0  0
 15 14  1  0  0  0  0
 16 13  1  0  0  0  0
 17 19  2  0  0  0  0
 17 12  1  0  0  0  0
 18 17  2  0  0  0  0
 20 17  1  0  0  0  0
 22 27  1  0  0  0  0
 24 21  1  6  0  0  0
 24 26  1  0  0  0  0
 24 25  1  0  0  0  0
 24 23  1  0  0  0  0
 25 27  1  0  0  0  0
 26 22  1  0  0  0  0
 27 20  1  0  0  0  0
 28  1  1  0  0  0  0
 29 35  1  0  0  0  0
 30 29  1  0  0  0  0
 30 28  1  0  0  0  0
 31 34  2  0  0  0  0
 31 32  1  0  0  0  0
 32 30  2  0  0  0  0
 33 29  2  0  0  0  0
 34 33  1  0  0  0  0
 36 34  1  0  0  0  0
 37 36  1  0  0  0  0
 38 39  1  0  0  0  0
 38 37  1  0  0  0  0
 40 47  1  1  0  0  0
 40 39  1  0  0  0  0
 41 44  1  0  0  0  0
 41 43  1  0  0  0  0
 42 46  1  0  0  0  0
 43 40  1  0  0  0  0
 43 45  1  0  0  0  0
 43 39  1  0  0  0  0
 44 42  1  0  0  0  0
 45 46  1  0  0  0  0
 47 48  1  0  0  0  0
 49 31  1  0  0  0  0
 50 49  1  0  0  0  0
 51 50  1  0  0  0  0
 52 54  1  0  0  0  0
 52 53  1  0  0  0  0
 54 51  1  0  0  0  0
 54 53  1  0  0  0  0
M  END
>  <MODEL>
9

>  <REMARK>
 VINA RESULT:      -6.2      2.600     10.263
  Name = 
  17 active torsions:
  status: ('A' for Active; 'I' for Inactive)
    1  A    between atoms: C_1  and  O_6
    2  A    between atoms: C_1  and  C_24
    3  A    between atoms: C_3  and  C_27
    4  A    between atoms: C_5  and  S_45
    5  A    between atoms: O_6  and  C_39
    6  A    between atoms: C_8  and  C_18
    7  A    between atoms: C_8  and  O_20
    8  A    between atoms: C_9  and  S_45
    9  A    between atoms: C_10  and  O_20
   10  A    between atoms: N_11  and  C_24
   11  A    between atoms: C_14  and  C_23
   12  A    between atoms: N_15  and  S_26
   13  A    between atoms: C_18  and  C_22
   14  A    between atoms: N_19  and  C_23
   15  A    between atoms: N_19  and  C_50
   16  A    between atoms: S_26  and  C_53
   17  A    between atoms: N_47  and  C_53
                            x       y       z     vdW  Elec       q    Type
                         _______ _______ _______ _____ _____    ______ ____

>  <TORSDO>
F 17

$$$$
