=
 OpenBabel11042409523D

 33 36  0  0  1  0  0  0  0  0999 V2000
  189.7000  177.2810  137.7770 C   0  0  0  0  0  0  0  0  0  0  0  0
  196.0410  174.2420  135.8110 C   0  0  0  0  0  1  0  0  0  0  0  0
  194.6420  174.5410  136.2280 C   0  0  0  0  0  0  0  0  0  0  0  0
  194.3110  175.8970  136.8160 C   0  0  2  0  0  3  0  0  0  0  0  0
  192.3570  173.8730  136.3920 C   0  0  0  0  0  0  0  0  0  0  0  0
  189.2470  176.5620  140.6860 O   0  0  0  0  0  0  0  0  0  0  0  0
  192.0530  174.9800  137.3210 C   0  0  0  0  0  0  0  0  0  0  0  0
  189.6400  174.5340  136.9540 C   0  0  1  0  0  3  0  0  0  0  0  0
  190.0210  173.1490  136.4010 C   0  0  0  0  0  2  0  0  0  0  0  0
  191.4180  173.0870  135.9570 N   0  0  0  0  0  0  0  0  0  0  0  0
  189.8660  175.3120  134.6430 O   0  0  0  0  0  1  0  0  0  0  0  0
  188.0640  178.6690  140.6110 C   0  0  0  0  0  2  0  0  0  0  0  0
  189.6480  177.0400  136.2830 C   0  0  0  0  0  2  0  0  0  0  0  0
  193.7070  173.6780  135.9610 N   0  0  0  0  0  0  0  0  0  0  0  0
  189.1870  177.8440  141.2470 C   0  0  1  0  0  3  0  0  0  0  0  0
  193.0000  175.8950  137.5590 C   0  0  0  0  0  3  0  0  0  0  0  0
  194.2400  176.9130  135.6900 C   0  0  0  0  0  1  0  0  0  0  0  0
  189.2210  178.6110  138.3360 C   0  0  1  0  0  3  0  0  0  0  0  0
  190.6910  175.0050  137.9730 C   0  0  2  0  0  3  0  0  0  0  0  0
  190.2770  176.3320  138.5640 C   0  0  0  0  0  0  0  0  0  0  0  0
  190.4840  176.5190  140.0340 C   0  0  0  0  0  2  0  0  0  0  0  0
  189.2840  175.6020  135.8790 C   0  0  2  0  0  3  0  0  0  0  0  0
  189.0370  179.5590  137.3200 O   0  0  0  0  0  1  0  0  0  0  0  0
  187.9110  178.4300  139.0990 C   0  0  0  0  0  2  0  0  0  0  0  0
  190.1460  178.1810  143.5420 N   0  0  0  0  0  2  0  0  0  0  0  0
  189.0600  177.7290  142.7320 C   0  0  0  0  0  0  0  0  0  0  0  0
  188.0570  177.1760  143.2600 O   0  0  0  0  0  0  0  0  0  0  0  0
  190.3030  177.8140  144.9450 C   0  0  0  0  0  2  0  0  0  0  0  0
  191.5690  176.9990  145.1610 C   0  0  2  0  0  3  0  0  0  0  0  0
  191.6460  175.9280  144.1840 N   0  0  0  0  0  1  0  0  0  0  0  0
  191.5670  176.4260  146.5410 C   0  0  0  0  0  0  0  0  0  0  0  0
  190.5450  176.7340  147.4380 O   0  0  0  0  0  1  0  0  0  0  0  0
  192.5010  175.6620  146.8990 O   0  0  0  0  0  0  0  0  0  0  0  0
  1 18  1  0  0  0  0
  1 20  2  0  0  0  0
  2  3  1  0  0  0  0
  3  4  1  0  0  0  0
  4 17  1  6  0  0  0
  4 16  1  0  0  0  0
  5  7  1  0  0  0  0
  6 15  1  0  0  0  0
  7 16  2  0  0  0  0
  8  9  1  6  0  0  0
  8 19  1  0  0  0  0
 10  5  2  0  0  0  0
 10  9  1  0  0  0  0
 12 15  1  0  0  0  0
 13  1  1  0  0  0  0
 14  3  2  0  0  0  0
 14  5  1  0  0  0  0
 15 26  1  1  0  0  0
 18 23  1  6  0  0  0
 18 24  1  0  0  0  0
 19  7  1  6  0  0  0
 19 20  1  0  0  0  0
 20 21  1  0  0  0  0
 21  6  1  0  0  0  0
 22 11  1  6  0  0  0
 22 13  1  0  0  0  0
 22  8  1  0  0  0  0
 24 12  1  0  0  0  0
 25 28  1  0  0  0  0
 26 27  2  0  0  0  0
 26 25  1  0  0  0  0
 28 29  1  0  0  0  0
 29 30  1  6  0  0  0
 29 31  1  0  0  0  0
 31 33  2  0  0  0  0
 31 32  1  0  0  0  0
M  END
>  <MODEL>
1

>  <REMARK>
 VINA RESULT:      -7.8      0.000      0.000
  Name = 
  4 active torsions:
  status: ('A' for Active; 'I' for Inactive)
    1  A    between atoms: CA_3  and  C_15
    2  A    between atoms: CA_3  and  C_28
    3  A    between atoms: C_17  and  C_20
    4  A    between atoms: N_19  and  C_28
                            x       y       z     vdW  Elec       q    Type
                         _______ _______ _______ _____ _____    ______ ____

>  <TORSDO>
F 4

$$$$
=
 OpenBabel11042409523D

 33 36  0  0  1  0  0  0  0  0999 V2000
  189.7720  177.2840  137.9480 C   0  0  0  0  0  0  0  0  0  0  0  0
  196.0160  174.2580  135.6790 C   0  0  0  0  0  1  0  0  0  0  0  0
  194.6380  174.5540  136.1620 C   0  0  0  0  0  0  0  0  0  0  0  0
  194.3340  175.9070  136.7700 C   0  0  2  0  0  3  0  0  0  0  0  0
  192.3620  173.8840  136.4270 C   0  0  0  0  0  0  0  0  0  0  0  0
  189.4530  176.5520  140.8710 O   0  0  0  0  0  0  0  0  0  0  0  0
  192.1020  174.9870  137.3740 C   0  0  0  0  0  0  0  0  0  0  0  0
  189.6740  174.5410  137.1160 C   0  0  1  0  0  3  0  0  0  0  0  0
  190.0300  173.1590  136.5410 C   0  0  0  0  0  2  0  0  0  0  0  0
  191.4050  173.1000  136.0330 N   0  0  0  0  0  0  0  0  0  0  0  0
  189.7940  175.3290  134.8010 O   0  0  0  0  0  1  0  0  0  0  0  0
  188.2670  178.6580  140.8600 C   0  0  0  0  0  2  0  0  0  0  0  0
  189.6510  177.0500  136.4570 C   0  0  0  0  0  2  0  0  0  0  0  0
  193.6920  173.6910  135.9340 N   0  0  0  0  0  0  0  0  0  0  0  0
  189.4180  177.8320  141.4400 C   0  0  1  0  0  3  0  0  0  0  0  0
  193.0580  175.9010  137.5730 C   0  0  0  0  0  3  0  0  0  0  0  0
  194.2110  176.9280  135.6530 C   0  0  0  0  0  1  0  0  0  0  0  0
  189.3180  178.6110  138.5340 C   0  0  1  0  0  3  0  0  0  0  0  0
  190.7710  175.0080  138.0880 C   0  0  2  0  0  3  0  0  0  0  0  0
  190.3850  176.3320  138.7040 C   0  0  0  0  0  0  0  0  0  0  0  0
  190.6580  176.5130  140.1630 C   0  0  0  0  0  2  0  0  0  0  0  0
  189.2690  175.6130  136.0640 C   0  0  2  0  0  3  0  0  0  0  0  0
  189.0870  179.5640  137.5330 O   0  0  0  0  0  1  0  0  0  0  0  0
  188.0450  178.4260  139.3560 C   0  0  0  0  0  2  0  0  0  0  0  0
  188.1160  177.3440  143.5300 N   0  0  0  0  0  2  0  0  0  0  0  0
  189.3590  177.7090  142.9290 C   0  0  0  0  0  0  0  0  0  0  0  0
  190.3550  177.9950  143.6470 O   0  0  0  0  0  0  0  0  0  0  0  0
  187.8300  177.5280  144.9490 C   0  0  0  0  0  2  0  0  0  0  0  0
  186.3300  177.5740  145.2050 C   0  0  2  0  0  3  0  0  0  0  0  0
  185.6660  178.3160  144.1480 N   0  0  0  0  0  1  0  0  0  0  0  0
  186.0670  178.2250  146.5240 C   0  0  0  0  0  0  0  0  0  0  0  0
  184.8010  178.7230  146.8310 O   0  0  0  0  0  0  0  0  0  0  0  0
  186.9990  178.3300  147.3630 O   0  0  0  0  0  1  0  0  0  0  0  0
  1 18  1  0  0  0  0
  1 20  2  0  0  0  0
  2  3  1  0  0  0  0
  3  4  1  0  0  0  0
  4 17  1  6  0  0  0
  4 16  1  0  0  0  0
  5  7  1  0  0  0  0
  6 15  1  0  0  0  0
  7 16  2  0  0  0  0
  8  9  1  6  0  0  0
  8 19  1  0  0  0  0
 10  5  2  0  0  0  0
 10  9  1  0  0  0  0
 12 15  1  0  0  0  0
 13  1  1  0  0  0  0
 14  3  2  0  0  0  0
 14  5  1  0  0  0  0
 15 26  1  1  0  0  0
 18 23  1  6  0  0  0
 18 24  1  0  0  0  0
 19  7  1  6  0  0  0
 19 20  1  0  0  0  0
 20 21  1  0  0  0  0
 21  6  1  0  0  0  0
 22 11  1  6  0  0  0
 22 13  1  0  0  0  0
 22  8  1  0  0  0  0
 24 12  1  0  0  0  0
 25 28  1  0  0  0  0
 26 25  1  0  0  0  0
 26 27  2  0  0  0  0
 28 29  1  0  0  0  0
 29 30  1  6  0  0  0
 29 31  1  0  0  0  0
 31 32  2  0  0  0  0
 31 33  1  0  0  0  0
M  END
>  <MODEL>
2

>  <REMARK>
 VINA RESULT:      -7.7      1.855      2.435
  Name = 
  4 active torsions:
  status: ('A' for Active; 'I' for Inactive)
    1  A    between atoms: CA_3  and  C_15
    2  A    between atoms: CA_3  and  C_28
    3  A    between atoms: C_17  and  C_20
    4  A    between atoms: N_19  and  C_28
                            x       y       z     vdW  Elec       q    Type
                         _______ _______ _______ _____ _____    ______ ____

>  <TORSDO>
F 4

$$$$
=
 OpenBabel11042409523D

 33 36  0  0  1  0  0  0  0  0999 V2000
  182.6330  178.8490  141.8030 C   0  0  0  0  0  0  0  0  0  0  0  0
  180.1420  181.5710  135.5040 C   0  0  0  0  0  1  0  0  0  0  0  0
  180.6300  180.7200  136.6250 C   0  0  0  0  0  0  0  0  0  0  0  0
  181.3880  181.3570  137.7710 C   0  0  2  0  0  3  0  0  0  0  0  0
  180.7710  178.5810  137.6740 C   0  0  0  0  0  0  0  0  0  0  0  0
  185.4430  177.8440  141.2750 O   0  0  0  0  0  0  0  0  0  0  0  0
  181.8370  179.0480  138.5840 C   0  0  0  0  0  0  0  0  0  0  0  0
  181.4810  176.9990  139.9390 C   0  0  1  0  0  3  0  0  0  0  0  0
  180.7540  176.3770  138.7330 C   0  0  0  0  0  2  0  0  0  0  0  0
  180.2680  177.3880  137.7880 N   0  0  0  0  0  0  0  0  0  0  0  0
  179.2780  177.8390  140.5990 O   0  0  0  0  0  1  0  0  0  0  0  0
  185.6580  178.4060  143.6160 C   0  0  0  0  0  2  0  0  0  0  0  0
  181.1230  178.7440  141.8250 C   0  0  0  0  0  2  0  0  0  0  0  0
  180.2840  179.4670  136.6620 N   0  0  0  0  0  0  0  0  0  0  0  0
  186.1580  178.6310  142.1870 C   0  0  1  0  0  3  0  0  0  0  0  0
  182.1600  180.3460  138.5800 C   0  0  0  0  0  3  0  0  0  0  0  0
  180.3970  182.0640  138.6790 C   0  0  0  0  0  1  0  0  0  0  0  0
  183.3630  179.3610  143.0340 C   0  0  1  0  0  3  0  0  0  0  0  0
  182.5220  178.0240  139.4570 C   0  0  2  0  0  3  0  0  0  0  0  0
  183.2830  178.5800  140.6370 C   0  0  0  0  0  0  0  0  0  0  0  0
  184.7580  178.7650  140.4750 C   0  0  0  0  0  2  0  0  0  0  0  0
  180.5550  177.5290  141.0710 C   0  0  2  0  0  3  0  0  0  0  0  0
  182.4770  179.9330  143.9580 O   0  0  0  0  0  1  0  0  0  0  0  0
  184.1330  178.2290  143.7100 C   0  0  0  0  0  2  0  0  0  0  0  0
  188.2620  177.5200  142.9850 N   0  0  0  0  0  2  0  0  0  0  0  0
  187.6210  178.3650  142.0290 C   0  0  0  0  0  0  0  0  0  0  0  0
  188.2930  178.9300  141.1250 O   0  0  0  0  0  0  0  0  0  0  0  0
  189.7100  177.4600  143.1550 C   0  0  0  0  0  2  0  0  0  0  0  0
  190.1620  178.3280  144.3200 C   0  0  2  0  0  3  0  0  0  0  0  0
  191.3270  179.1070  143.9390 N   0  0  0  0  0  1  0  0  0  0  0  0
  190.4920  177.4630  145.4930 C   0  0  0  0  0  0  0  0  0  0  0  0
  191.8190  177.2120  145.8400 O   0  0  0  0  0  0  0  0  0  0  0  0
  189.5620  176.9530  146.1700 O   0  0  0  0  0  1  0  0  0  0  0  0
  1 13  1  0  0  0  0
  1 18  1  0  0  0  0
  2  3  1  0  0  0  0
  3 14  2  0  0  0  0
  3  4  1  0  0  0  0
  4 16  1  0  0  0  0
  4 17  1  1  0  0  0
  5 10  2  0  0  0  0
  5  7  1  0  0  0  0
  6 15  1  0  0  0  0
  8  9  1  6  0  0  0
  8 22  1  0  0  0  0
 10  9  1  0  0  0  0
 12 24  1  0  0  0  0
 14  5  1  0  0  0  0
 15 26  1  1  0  0  0
 15 12  1  0  0  0  0
 16  7  2  0  0  0  0
 18 24  1  0  0  0  0
 18 23  1  1  0  0  0
 19  7  1  1  0  0  0
 19  8  1  0  0  0  0
 19 20  1  0  0  0  0
 20  1  2  0  0  0  0
 21 20  1  0  0  0  0
 21  6  1  0  0  0  0
 22 11  1  6  0  0  0
 22 13  1  0  0  0  0
 25 28  1  0  0  0  0
 26 25  1  0  0  0  0
 27 26  2  0  0  0  0
 28 29  1  0  0  0  0
 29 30  1  6  0  0  0
 29 31  1  0  0  0  0
 31 32  2  0  0  0  0
 31 33  1  0  0  0  0
M  END
>  <MODEL>
3

>  <REMARK>
 VINA RESULT:      -7.1      6.052      9.232
  Name = 
  4 active torsions:
  status: ('A' for Active; 'I' for Inactive)
    1  A    between atoms: CA_3  and  C_15
    2  A    between atoms: CA_3  and  C_28
    3  A    between atoms: C_17  and  C_20
    4  A    between atoms: N_19  and  C_28
                            x       y       z     vdW  Elec       q    Type
                         _______ _______ _______ _____ _____    ______ ____

>  <TORSDO>
F 4

$$$$
=
 OpenBabel11042409523D

 33 36  0  0  1  0  0  0  0  0999 V2000
  182.7760  177.8570  137.6730 C   0  0  0  0  0  0  0  0  0  0  0  0
  179.0290  179.7630  143.6410 C   0  0  0  0  0  1  0  0  0  0  0  0
  179.7820  179.7050  142.3570 C   0  0  0  0  0  0  0  0  0  0  0  0
  180.6310  178.4920  142.0420 C   0  0  2  0  0  3  0  0  0  0  0  0
  180.3350  180.6820  140.2500 C   0  0  0  0  0  0  0  0  0  0  0  0
  185.5660  178.9970  137.9870 O   0  0  0  0  0  0  0  0  0  0  0  0
  181.4680  179.7520  140.0660 C   0  0  0  0  0  0  0  0  0  0  0  0
  181.5710  180.4590  137.6900 C   0  0  1  0  0  3  0  0  0  0  0  0
  180.7410  181.7000  138.0650 C   0  0  0  0  0  2  0  0  0  0  0  0
  179.9990  181.5210  139.3170 N   0  0  0  0  0  0  0  0  0  0  0  0
  179.4150  179.3680  137.2910 O   0  0  0  0  0  1  0  0  0  0  0  0
  186.0780  177.0700  136.6190 C   0  0  0  0  0  2  0  0  0  0  0  0
  181.3110  177.9080  137.2950 C   0  0  0  0  0  2  0  0  0  0  0  0
  179.5950  180.6420  141.4740 N   0  0  0  0  0  0  0  0  0  0  0  0
  186.3190  177.8160  137.9340 C   0  0  1  0  0  3  0  0  0  0  0  0
  181.6330  178.7600  140.9480 C   0  0  0  0  0  3  0  0  0  0  0  0
  179.7190  177.3570  141.6100 C   0  0  0  0  0  1  0  0  0  0  0  0
  183.6250  176.6840  137.2100 C   0  0  1  0  0  3  0  0  0  0  0  0
  182.3960  179.9900  138.8990 C   0  0  2  0  0  3  0  0  0  0  0  0
  183.2620  178.8160  138.5080 C   0  0  0  0  0  0  0  0  0  0  0  0
  184.6620  178.7930  139.0340 C   0  0  0  0  0  2  0  0  0  0  0  0
  180.7780  179.3180  136.9890 C   0  0  2  0  0  3  0  0  0  0  0  0
  182.8340  175.6450  136.7000 O   0  0  0  0  0  1  0  0  0  0  0  0
  184.6180  177.1310  136.1390 C   0  0  0  0  0  2  0  0  0  0  0  0
  188.5030  177.3010  139.0580 N   0  0  0  0  0  2  0  0  0  0  0  0
  187.7600  178.1370  138.1710 C   0  0  0  0  0  0  0  0  0  0  0  0
  188.2910  179.1630  137.6660 O   0  0  0  0  0  0  0  0  0  0  0  0
  189.7820  177.6910  139.6400 C   0  0  0  0  0  2  0  0  0  0  0  0
  189.8890  177.2350  141.0880 C   0  0  2  0  0  3  0  0  0  0  0  0
  188.9190  177.9410  141.9060 N   0  0  0  0  0  1  0  0  0  0  0  0
  191.2690  177.4990  141.5970 C   0  0  0  0  0  0  0  0  0  0  0  0
  191.4920  177.7460  142.9510 O   0  0  0  0  0  1  0  0  0  0  0  0
  192.2370  177.5020  140.7940 O   0  0  0  0  0  0  0  0  0  0  0  0
  1 20  2  0  0  0  0
  3  2  1  0  0  0  0
  4 17  1  6  0  0  0
  4  3  1  0  0  0  0
  5 14  1  0  0  0  0
  6 21  1  0  0  0  0
  7  5  1  0  0  0  0
  7 16  2  0  0  0  0
  8  9  1  1  0  0  0
  8 19  1  0  0  0  0
  9 10  1  0  0  0  0
 10  5  2  0  0  0  0
 12 15  1  0  0  0  0
 13  1  1  0  0  0  0
 14  3  2  0  0  0  0
 15  6  1  0  0  0  0
 15 26  1  6  0  0  0
 16  4  1  0  0  0  0
 18 23  1  6  0  0  0
 18  1  1  0  0  0  0
 19 20  1  6  0  0  0
 19  7  1  0  0  0  0
 20 21  1  0  0  0  0
 22 11  1  1  0  0  0
 22 13  1  0  0  0  0
 22  8  1  0  0  0  0
 24 12  1  0  0  0  0
 24 18  1  0  0  0  0
 25 28  1  0  0  0  0
 26 25  1  0  0  0  0
 27 26  2  0  0  0  0
 28 29  1  0  0  0  0
 29 31  1  0  0  0  0
 29 30  1  1  0  0  0
 31 32  1  0  0  0  0
 33 31  2  0  0  0  0
M  END
>  <MODEL>
4

>  <REMARK>
 VINA RESULT:      -7.1      6.237     10.043
  Name = 
  4 active torsions:
  status: ('A' for Active; 'I' for Inactive)
    1  A    between atoms: CA_3  and  C_15
    2  A    between atoms: CA_3  and  C_28
    3  A    between atoms: C_17  and  C_20
    4  A    between atoms: N_19  and  C_28
                            x       y       z     vdW  Elec       q    Type
                         _______ _______ _______ _____ _____    ______ ____

>  <TORSDO>
F 4

$$$$
=
 OpenBabel11042409523D

 33 36  0  0  1  0  0  0  0  0999 V2000
  182.7670  178.7610  141.3980 C   0  0  0  0  0  0  0  0  0  0  0  0
  179.4890  182.1180  135.8040 C   0  0  0  0  0  1  0  0  0  0  0  0
  180.1420  181.1620  136.7430 C   0  0  0  0  0  0  0  0  0  0  0  0
  180.9640  181.6940  137.8980 C   0  0  2  0  0  3  0  0  0  0  0  0
  180.5300  178.9170  137.4530 C   0  0  0  0  0  0  0  0  0  0  0  0
  185.5720  178.0700  140.4850 O   0  0  0  0  0  0  0  0  0  0  0  0
  181.6460  179.3380  138.3250 C   0  0  0  0  0  0  0  0  0  0  0  0
  181.5650  177.1000  139.3930 C   0  0  1  0  0  3  0  0  0  0  0  0
  180.7660  176.5940  138.1780 C   0  0  0  0  0  2  0  0  0  0  0  0
  180.1230  177.6830  137.4370 N   0  0  0  0  0  0  0  0  0  0  0  0
  179.3860  177.6590  140.3590 O   0  0  0  0  0  1  0  0  0  0  0  0
  185.9780  178.3190  142.8550 C   0  0  0  0  0  2  0  0  0  0  0  0
  181.2770  178.5320  141.5370 C   0  0  0  0  0  2  0  0  0  0  0  0
  179.8860  179.8920  136.6280 N   0  0  0  0  0  0  0  0  0  0  0  0
  186.3190  178.7790  141.4350 C   0  0  1  0  0  3  0  0  0  0  0  0
  181.8780  180.6470  138.4810 C   0  0  0  0  0  3  0  0  0  0  0  0
  180.0220  182.1860  138.9830 C   0  0  0  0  0  1  0  0  0  0  0  0
  183.5780  179.1560  142.6210 C   0  0  1  0  0  3  0  0  0  0  0  0
  182.4810  178.2620  138.9760 C   0  0  2  0  0  3  0  0  0  0  0  0
  183.3150  178.7100  140.1530 C   0  0  0  0  0  0  0  0  0  0  0  0
  184.7520  179.0340  139.8900 C   0  0  0  0  0  2  0  0  0  0  0  0
  180.7210  177.3910  140.6670 C   0  0  2  0  0  3  0  0  0  0  0  0
  182.7500  179.5200  143.6930 O   0  0  0  0  0  1  0  0  0  0  0  0
  184.4860  178.0070  143.0560 C   0  0  0  0  0  2  0  0  0  0  0  0
  188.1620  178.6200  139.7390 N   0  0  0  0  0  2  0  0  0  0  0  0
  187.7740  178.6560  141.1130 C   0  0  0  0  0  0  0  0  0  0  0  0
  188.6340  178.5090  142.0220 O   0  0  0  0  0  0  0  0  0  0  0  0
  189.4720  178.1600  139.2900 C   0  0  0  0  0  2  0  0  0  0  0  0
  189.5680  178.1720  137.7720 C   0  0  2  0  0  3  0  0  0  0  0  0
  188.9460  179.3730  137.2410 N   0  0  0  0  0  1  0  0  0  0  0  0
  188.8890  176.9620  137.2160 C   0  0  0  0  0  0  0  0  0  0  0  0
  189.2480  175.6850  137.6450 O   0  0  0  0  0  1  0  0  0  0  0  0
  187.9870  177.0980  136.3490 O   0  0  0  0  0  0  0  0  0  0  0  0
  1 13  1  0  0  0  0
  1 18  1  0  0  0  0
  2  3  1  0  0  0  0
  3  4  1  0  0  0  0
  4 16  1  0  0  0  0
  4 17  1  1  0  0  0
  5  7  1  0  0  0  0
  6 15  1  0  0  0  0
  7 16  2  0  0  0  0
  8  9  1  6  0  0  0
  8 22  1  0  0  0  0
 10  5  2  0  0  0  0
 10  9  1  0  0  0  0
 12 24  1  0  0  0  0
 14  3  2  0  0  0  0
 14  5  1  0  0  0  0
 15 26  1  6  0  0  0
 15 12  1  0  0  0  0
 18 24  1  0  0  0  0
 18 23  1  1  0  0  0
 19  7  1  1  0  0  0
 19  8  1  0  0  0  0
 19 20  1  0  0  0  0
 20  1  2  0  0  0  0
 21 20  1  0  0  0  0
 21  6  1  0  0  0  0
 22 11  1  6  0  0  0
 22 13  1  0  0  0  0
 25 26  1  0  0  0  0
 26 27  2  0  0  0  0
 28 25  1  0  0  0  0
 29 30  1  6  0  0  0
 29 28  1  0  0  0  0
 31 32  1  0  0  0  0
 31 29  1  0  0  0  0
 33 31  2  0  0  0  0
M  END
>  <MODEL>
5

>  <REMARK>
 VINA RESULT:      -6.8      6.289     10.057
  Name = 
  4 active torsions:
  status: ('A' for Active; 'I' for Inactive)
    1  A    between atoms: CA_3  and  C_15
    2  A    between atoms: CA_3  and  C_28
    3  A    between atoms: C_17  and  C_20
    4  A    between atoms: N_19  and  C_28
                            x       y       z     vdW  Elec       q    Type
                         _______ _______ _______ _____ _____    ______ ____

>  <TORSDO>
F 4

$$$$
=
 OpenBabel11042409523D

 33 36  0  0  1  0  0  0  0  0999 V2000
  182.8470  177.8500  137.5480 C   0  0  0  0  0  0  0  0  0  0  0  0
  178.9330  179.5470  143.4730 C   0  0  0  0  0  1  0  0  0  0  0  0
  179.7420  179.5360  142.2220 C   0  0  0  0  0  0  0  0  0  0  0  0
  180.5360  178.3000  141.8560 C   0  0  2  0  0  3  0  0  0  0  0  0
  180.4460  180.6240  140.2170 C   0  0  0  0  0  0  0  0  0  0  0  0
  185.6780  178.8000  138.0640 O   0  0  0  0  0  0  0  0  0  0  0  0
  181.5340  179.6450  140.0150 C   0  0  0  0  0  0  0  0  0  0  0  0
  181.7870  180.5100  137.7030 C   0  0  1  0  0  3  0  0  0  0  0  0
  181.0100  181.7680  138.1310 C   0  0  0  0  0  2  0  0  0  0  0  0
  180.2010  181.5450  139.3340 N   0  0  0  0  0  0  0  0  0  0  0  0
  179.5960  179.5770  137.1330 O   0  0  0  0  0  1  0  0  0  0  0  0
  186.1470  176.9480  136.5830 C   0  0  0  0  0  2  0  0  0  0  0  0
  181.4060  178.0120  137.1130 C   0  0  0  0  0  2  0  0  0  0  0  0
  179.6480  180.5410  141.4020 N   0  0  0  0  0  0  0  0  0  0  0  0
  186.3660  177.5840  137.9580 C   0  0  1  0  0  3  0  0  0  0  0  0
  181.6020  178.5850  140.8290 C   0  0  0  0  0  3  0  0  0  0  0  0
  179.5850  177.2530  141.3030 C   0  0  0  0  0  1  0  0  0  0  0  0
  183.6510  176.6650  137.0390 C   0  0  1  0  0  3  0  0  0  0  0  0
  182.5280  179.9100  138.9090 C   0  0  2  0  0  3  0  0  0  0  0  0
  183.3450  178.7170  138.4720 C   0  0  0  0  0  0  0  0  0  0  0  0
  184.7150  178.5760  139.0540 C   0  0  0  0  0  2  0  0  0  0  0  0
  180.9670  179.4690  136.8880 C   0  0  2  0  0  3  0  0  0  0  0  0
  182.8280  175.7120  136.4210 O   0  0  0  0  0  1  0  0  0  0  0  0
  184.7160  177.1270  136.0470 C   0  0  0  0  0  2  0  0  0  0  0  0
  188.6880  176.6780  138.2490 N   0  0  0  0  0  2  0  0  0  0  0  0
  187.8100  177.8030  138.2800 C   0  0  0  0  0  0  0  0  0  0  0  0
  188.2320  178.9330  138.6450 O   0  0  0  0  0  0  0  0  0  0  0  0
  190.0100  176.6790  138.8670 C   0  0  0  0  0  2  0  0  0  0  0  0
  191.0840  176.2780  137.8670 C   0  0  2  0  0  3  0  0  0  0  0  0
  191.0170  174.8510  137.6070 N   0  0  0  0  0  1  0  0  0  0  0  0
  192.4310  176.6320  138.4080 C   0  0  0  0  0  0  0  0  0  0  0  0
  192.5640  177.1820  139.6820 O   0  0  0  0  0  1  0  0  0  0  0  0
  193.4550  176.4360  137.7030 O   0  0  0  0  0  0  0  0  0  0  0  0
  1 20  2  0  0  0  0
  3  2  1  0  0  0  0
  4 17  1  6  0  0  0
  4  3  1  0  0  0  0
  5 14  1  0  0  0  0
  6 21  1  0  0  0  0
  7  5  1  0  0  0  0
  7 16  2  0  0  0  0
  8  9  1  1  0  0  0
  8 19  1  0  0  0  0
  9 10  1  0  0  0  0
 10  5  2  0  0  0  0
 12 15  1  0  0  0  0
 13  1  1  0  0  0  0
 14  3  2  0  0  0  0
 15  6  1  0  0  0  0
 15 26  1  6  0  0  0
 16  4  1  0  0  0  0
 18 23  1  6  0  0  0
 18  1  1  0  0  0  0
 19 20  1  6  0  0  0
 19  7  1  0  0  0  0
 20 21  1  0  0  0  0
 22 13  1  0  0  0  0
 22 11  1  1  0  0  0
 22  8  1  0  0  0  0
 24 12  1  0  0  0  0
 24 18  1  0  0  0  0
 25 26  1  0  0  0  0
 25 28  1  0  0  0  0
 26 27  2  0  0  0  0
 29 30  1  1  0  0  0
 29 31  1  0  0  0  0
 29 28  1  0  0  0  0
 31 32  1  0  0  0  0
 33 31  2  0  0  0  0
M  END
>  <MODEL>
6

>  <REMARK>
 VINA RESULT:      -6.7      6.226     10.277
  Name = 
  4 active torsions:
  status: ('A' for Active; 'I' for Inactive)
    1  A    between atoms: CA_3  and  C_15
    2  A    between atoms: CA_3  and  C_28
    3  A    between atoms: C_17  and  C_20
    4  A    between atoms: N_19  and  C_28
                            x       y       z     vdW  Elec       q    Type
                         _______ _______ _______ _____ _____    ______ ____

>  <TORSDO>
F 4

$$$$
=
 OpenBabel11042409523D

 33 36  0  0  1  0  0  0  0  0999 V2000
  190.0950  176.6710  138.1590 C   0  0  0  0  0  0  0  0  0  0  0  0
  184.1070  173.5650  135.3680 C   0  0  0  0  0  1  0  0  0  0  0  0
  185.1670  174.4870  135.8630 C   0  0  0  0  0  0  0  0  0  0  0  0
  186.2260  173.9670  136.8120 C   0  0  2  0  0  3  0  0  0  0  0  0
  186.1910  176.6430  135.8470 C   0  0  0  0  0  0  0  0  0  0  0  0
  189.2650  178.0080  140.7480 O   0  0  0  0  0  0  0  0  0  0  0  0
  186.9820  176.3260  137.0540 C   0  0  0  0  0  0  0  0  0  0  0  0
  188.3630  178.3350  136.5920 C   0  0  1  0  0  3  0  0  0  0  0  0
  187.2420  178.8440  135.6680 C   0  0  0  0  0  2  0  0  0  0  0  0
  186.3570  177.7660  135.2140 N   0  0  0  0  0  0  0  0  0  0  0  0
  189.2580  177.2390  134.5950 O   0  0  0  0  0  1  0  0  0  0  0  0
  191.5710  177.5130  141.2810 C   0  0  0  0  0  2  0  0  0  0  0  0
  190.2800  176.5890  136.6580 C   0  0  0  0  0  2  0  0  0  0  0  0
  185.2390  175.6880  135.3690 N   0  0  0  0  0  0  0  0  0  0  0  0
  190.0960  177.3300  141.6500 C   0  0  1  0  0  3  0  0  0  0  0  0
  186.9450  175.0780  137.5340 C   0  0  0  0  0  3  0  0  0  0  0  0
  187.2370  173.1560  136.0210 C   0  0  0  0  0  1  0  0  0  0  0  0
  191.2410  176.2720  139.0740 C   0  0  1  0  0  3  0  0  0  0  0  0
  187.7730  177.4400  137.6950 C   0  0  2  0  0  3  0  0  0  0  0  0
  188.8660  177.0010  138.6410 C   0  0  0  0  0  0  0  0  0  0  0  0
  188.5450  176.9980  140.1020 C   0  0  0  0  0  2  0  0  0  0  0  0
  189.5900  177.7120  135.8660 C   0  0  2  0  0  3  0  0  0  0  0  0
  192.2560  175.6090  138.3700 O   0  0  0  0  0  1  0  0  0  0  0  0
  191.8280  177.5010  139.7650 C   0  0  0  0  0  2  0  0  0  0  0  0
  188.6650  177.1780  143.7060 N   0  0  0  0  0  2  0  0  0  0  0  0
  189.7800  177.7730  143.0420 C   0  0  0  0  0  0  0  0  0  0  0  0
  190.4290  178.7030  143.5940 O   0  0  0  0  0  0  0  0  0  0  0  0
  188.0450  177.7490  144.8960 C   0  0  0  0  0  2  0  0  0  0  0  0
  186.5360  177.5520  144.8780 C   0  0  2  0  0  3  0  0  0  0  0  0
  185.9860  178.0250  143.6200 N   0  0  0  0  0  1  0  0  0  0  0  0
  185.9190  178.3010  146.0150 C   0  0  0  0  0  0  0  0  0  0  0  0
  184.7740  179.0730  145.8200 O   0  0  0  0  0  0  0  0  0  0  0  0
  186.4410  178.2370  147.1580 O   0  0  0  0  0  1  0  0  0  0  0  0
  1 20  2  0  0  0  0
  1 18  1  0  0  0  0
  2  3  1  0  0  0  0
  3  4  1  0  0  0  0
  4 17  1  6  0  0  0
  4 16  1  0  0  0  0
  5  7  1  0  0  0  0
  6 15  1  0  0  0  0
  7 16  2  0  0  0  0
  8  9  1  6  0  0  0
  8 19  1  0  0  0  0
 10  9  1  0  0  0  0
 10  5  2  0  0  0  0
 12 15  1  0  0  0  0
 13  1  1  0  0  0  0
 14  5  1  0  0  0  0
 14  3  2  0  0  0  0
 15 26  1  1  0  0  0
 18 23  1  6  0  0  0
 18 24  1  0  0  0  0
 19  7  1  6  0  0  0
 19 20  1  0  0  0  0
 20 21  1  0  0  0  0
 21  6  1  0  0  0  0
 22 11  1  6  0  0  0
 22  8  1  0  0  0  0
 22 13  1  0  0  0  0
 24 12  1  0  0  0  0
 25 28  1  0  0  0  0
 26 27  2  0  0  0  0
 26 25  1  0  0  0  0
 29 30  1  6  0  0  0
 29 28  1  0  0  0  0
 29 31  1  0  0  0  0
 31 33  1  0  0  0  0
 32 31  2  0  0  0  0
M  END
>  <MODEL>
7

>  <REMARK>
 VINA RESULT:      -6.5      3.379      5.392
  Name = 
  4 active torsions:
  status: ('A' for Active; 'I' for Inactive)
    1  A    between atoms: CA_3  and  C_15
    2  A    between atoms: CA_3  and  C_28
    3  A    between atoms: C_17  and  C_20
    4  A    between atoms: N_19  and  C_28
                            x       y       z     vdW  Elec       q    Type
                         _______ _______ _______ _____ _____    ______ ____

>  <TORSDO>
F 4

$$$$
=
 OpenBabel11042409523D

 33 36  0  0  1  0  0  0  0  0999 V2000
  190.5340  176.6490  138.0370 C   0  0  0  0  0  0  0  0  0  0  0  0
  184.6140  173.1520  135.5810 C   0  0  0  0  0  1  0  0  0  0  0  0
  185.6220  174.1380  136.0620 C   0  0  0  0  0  0  0  0  0  0  0  0
  186.8430  173.6520  136.8150 C   0  0  2  0  0  3  0  0  0  0  0  0
  186.3950  176.3920  136.1950 C   0  0  0  0  0  0  0  0  0  0  0  0
  189.8970  177.5850  140.8480 O   0  0  0  0  0  0  0  0  0  0  0  0
  187.3620  176.0450  137.2570 C   0  0  0  0  0  0  0  0  0  0  0  0
  188.4460  178.2470  136.8920 C   0  0  1  0  0  3  0  0  0  0  0  0
  187.1690  178.7110  136.1690 C   0  0  0  0  0  2  0  0  0  0  0  0
  186.3560  177.5890  135.6900 N   0  0  0  0  0  0  0  0  0  0  0  0
  189.1960  177.4920  134.6870 O   0  0  0  0  0  1  0  0  0  0  0  0
  192.2920  177.3210  141.0520 C   0  0  0  0  0  2  0  0  0  0  0  0
  190.5350  176.7530  136.5260 C   0  0  0  0  0  2  0  0  0  0  0  0
  185.5000  175.3850  135.7140 N   0  0  0  0  0  0  0  0  0  0  0  0
  190.9040  176.9200  141.5590 C   0  0  1  0  0  3  0  0  0  0  0  0
  187.5220  174.7580  137.5820 C   0  0  0  0  0  3  0  0  0  0  0  0
  187.8270  173.0620  135.8210 C   0  0  0  0  0  1  0  0  0  0  0  0
  191.8230  176.2960  138.7610 C   0  0  1  0  0  3  0  0  0  0  0  0
  188.1020  177.1730  137.9360 C   0  0  2  0  0  3  0  0  0  0  0  0
  189.3470  176.7700  138.6920 C   0  0  0  0  0  0  0  0  0  0  0  0
  189.2160  176.5700  140.1680 C   0  0  0  0  0  2  0  0  0  0  0  0
  189.6320  177.8620  135.9610 C   0  0  2  0  0  3  0  0  0  0  0  0
  192.8070  175.8440  137.8710 O   0  0  0  0  0  1  0  0  0  0  0  0
  192.3550  177.5060  139.5260 C   0  0  0  0  0  2  0  0  0  0  0  0
  189.4520  177.6390  143.4760 N   0  0  0  0  0  2  0  0  0  0  0  0
  190.7210  177.1670  143.0230 C   0  0  0  0  0  0  0  0  0  0  0  0
  191.6800  177.0410  143.8310 O   0  0  0  0  0  0  0  0  0  0  0  0
  189.2460  178.2430  144.7880 C   0  0  0  0  0  2  0  0  0  0  0  0
  188.7390  177.2180  145.7910 C   0  0  2  0  0  3  0  0  0  0  0  0
  187.3640  177.5110  146.1550 N   0  0  0  0  0  1  0  0  0  0  0  0
  189.6020  177.2400  147.0110 C   0  0  0  0  0  0  0  0  0  0  0  0
  189.2490  178.0120  148.1180 O   0  0  0  0  0  1  0  0  0  0  0  0
  190.6600  176.5600  147.0370 O   0  0  0  0  0  0  0  0  0  0  0  0
  1 20  2  0  0  0  0
  1 18  1  0  0  0  0
  2  3  1  0  0  0  0
  3  4  1  0  0  0  0
  4 17  1  6  0  0  0
  4 16  1  0  0  0  0
  5  7  1  0  0  0  0
  6 15  1  0  0  0  0
  7 16  2  0  0  0  0
  8  9  1  6  0  0  0
  8 19  1  0  0  0  0
 10  9  1  0  0  0  0
 10  5  2  0  0  0  0
 12 15  1  0  0  0  0
 13  1  1  0  0  0  0
 14  3  2  0  0  0  0
 14  5  1  0  0  0  0
 15 26  1  1  0  0  0
 18 23  1  6  0  0  0
 18 24  1  0  0  0  0
 19  7  1  6  0  0  0
 19 20  1  0  0  0  0
 20 21  1  0  0  0  0
 21  6  1  0  0  0  0
 22 11  1  6  0  0  0
 22 13  1  0  0  0  0
 22  8  1  0  0  0  0
 24 12  1  0  0  0  0
 25 28  1  0  0  0  0
 26 25  1  0  0  0  0
 26 27  2  0  0  0  0
 28 29  1  0  0  0  0
 29 30  1  1  0  0  0
 29 31  1  0  0  0  0
 31 33  2  0  0  0  0
 31 32  1  0  0  0  0
M  END
>  <MODEL>
8

>  <REMARK>
 VINA RESULT:      -6.3      2.969      4.847
  Name = 
  4 active torsions:
  status: ('A' for Active; 'I' for Inactive)
    1  A    between atoms: CA_3  and  C_15
    2  A    between atoms: CA_3  and  C_28
    3  A    between atoms: C_17  and  C_20
    4  A    between atoms: N_19  and  C_28
                            x       y       z     vdW  Elec       q    Type
                         _______ _______ _______ _____ _____    ______ ____

>  <TORSDO>
F 4

$$$$
=
 OpenBabel11042409523D

 33 36  0  0  1  0  0  0  0  0999 V2000
  184.0830  177.4010  136.7250 C   0  0  0  0  0  0  0  0  0  0  0  0
  178.9310  174.6870  141.1290 C   0  0  0  0  0  1  0  0  0  0  0  0
  179.8670  175.5380  140.3420 C   0  0  0  0  0  0  0  0  0  0  0  0
  181.1290  174.9290  139.7680 C   0  0  2  0  0  3  0  0  0  0  0  0
  180.3970  177.6480  139.3590 C   0  0  0  0  0  0  0  0  0  0  0  0
  186.1940  178.6450  138.5070 O   0  0  0  0  0  0  0  0  0  0  0  0
  181.7980  177.2400  139.1310 C   0  0  0  0  0  0  0  0  0  0  0  0
  182.0560  179.2090  137.6430 C   0  0  1  0  0  3  0  0  0  0  0  0
  180.7910  179.8090  138.2840 C   0  0  0  0  0  2  0  0  0  0  0  0
  179.9540  178.7920  138.9300 N   0  0  0  0  0  0  0  0  0  0  0  0
  180.5260  178.1740  136.0370 O   0  0  0  0  0  1  0  0  0  0  0  0
  187.5800  178.0280  136.6240 C   0  0  0  0  0  2  0  0  0  0  0  0
  182.7820  177.3830  135.9500 C   0  0  0  0  0  2  0  0  0  0  0  0
  179.5180  176.7580  140.0530 N   0  0  0  0  0  0  0  0  0  0  0  0
  187.3110  177.8900  138.1250 C   0  0  1  0  0  3  0  0  0  0  0  0
  182.1450  175.9730  139.3820 C   0  0  0  0  0  3  0  0  0  0  0  0
  180.7640  174.1160  138.5390 C   0  0  0  0  0  1  0  0  0  0  0  0
  185.3560  176.9100  136.0550 C   0  0  1  0  0  3  0  0  0  0  0  0
  182.7710  178.2880  138.6450 C   0  0  2  0  0  3  0  0  0  0  0  0
  184.0480  177.7580  138.0380 C   0  0  0  0  0  0  0  0  0  0  0  0
  185.2530  177.6980  138.9220 C   0  0  0  0  0  2  0  0  0  0  0  0
  181.8490  178.5710  136.2390 C   0  0  2  0  0  3  0  0  0  0  0  0
  185.0820  176.2400  134.8550 O   0  0  0  0  0  1  0  0  0  0  0  0
  186.2980  178.0790  135.7750 C   0  0  0  0  0  2  0  0  0  0  0  0
  188.6510  177.6340  140.2320 N   0  0  0  0  0  2  0  0  0  0  0  0
  188.4830  178.2780  138.9680 C   0  0  0  0  0  0  0  0  0  0  0  0
  189.2620  179.2040  138.6160 O   0  0  0  0  0  0  0  0  0  0  0  0
  189.5200  178.1500  141.2830 C   0  0  0  0  0  2  0  0  0  0  0  0
  188.9930  177.7830  142.6620 C   0  0  2  0  0  3  0  0  0  0  0  0
  189.7640  178.4620  143.6890 N   0  0  0  0  0  1  0  0  0  0  0  0
  189.0810  176.3040  142.8560 C   0  0  0  0  0  0  0  0  0  0  0  0
  190.2550  175.6160  142.5550 O   0  0  0  0  0  0  0  0  0  0  0  0
  188.0820  175.6740  143.2910 O   0  0  0  0  0  1  0  0  0  0  0  0
  1 20  2  0  0  0  0
  3  2  1  0  0  0  0
  4 17  1  6  0  0  0
  4  3  1  0  0  0  0
  5 14  1  0  0  0  0
  6 21  1  0  0  0  0
  7  5  1  0  0  0  0
  7 16  2  0  0  0  0
  8  9  1  1  0  0  0
  8 19  1  0  0  0  0
  9 10  1  0  0  0  0
 10  5  2  0  0  0  0
 12 15  1  0  0  0  0
 13 22  1  0  0  0  0
 13  1  1  0  0  0  0
 14  3  2  0  0  0  0
 15  6  1  0  0  0  0
 15 26  1  1  0  0  0
 16  4  1  0  0  0  0
 18 23  1  6  0  0  0
 18  1  1  0  0  0  0
 19 20  1  6  0  0  0
 19  7  1  0  0  0  0
 20 21  1  0  0  0  0
 22 11  1  1  0  0  0
 22  8  1  0  0  0  0
 24 18  1  0  0  0  0
 24 12  1  0  0  0  0
 25 28  1  0  0  0  0
 26 25  1  0  0  0  0
 27 26  2  0  0  0  0
 28 29  1  0  0  0  0
 29 31  1  0  0  0  0
 29 30  1  1  0  0  0
 31 33  1  0  0  0  0
 32 31  2  0  0  0  0
M  END
>  <MODEL>
9

>  <REMARK>
 VINA RESULT:      -5.9      5.793      8.924
  Name = 
  4 active torsions:
  status: ('A' for Active; 'I' for Inactive)
    1  A    between atoms: CA_3  and  C_15
    2  A    between atoms: CA_3  and  C_28
    3  A    between atoms: C_17  and  C_20
    4  A    between atoms: N_19  and  C_28
                            x       y       z     vdW  Elec       q    Type
                         _______ _______ _______ _____ _____    ______ ____

>  <TORSDO>
F 4

$$$$
