=
 OpenBabel11042411573D

 37 40  0  0  1  0  0  0  0  0999 V2000
  185.2260  177.8710  137.5250 C   0  0  0  0  0  3  0  0  0  0  0  0
  188.9650  177.2010  139.2530 C   0  0  0  0  0  0  0  0  0  0  0  0
  189.3010  177.8170  140.4950 N   0  0  0  0  0  2  0  0  0  0  0  0
  189.5200  175.7550  137.3980 C   0  0  0  0  0  3  0  0  0  0  0  0
  186.6080  177.6300  145.2730 C   0  0  1  0  0  3  0  0  0  0  0  0
  189.8670  176.3380  138.6210 C   0  0  0  0  0  3  0  0  0  0  0  0
  186.1550  177.0620  136.8610 C   0  0  0  0  0  3  0  0  0  0  0  0
  189.4540  177.0320  141.7080 C   0  0  0  0  0  2  0  0  0  0  0  0
  184.3960  178.6230  140.8430 N   0  0  0  0  0  0  0  0  0  0  0  0
  188.3100  176.0150  136.8310 N   0  0  0  0  0  0  0  0  0  0  0  0
  184.5730  179.2330  139.5290 C   0  0  0  0  0  2  0  0  0  0  0  0
  185.9440  180.0210  141.8940 O   0  0  0  0  0  0  0  0  0  0  0  0
  185.5760  178.4540  138.7470 C   0  0  0  0  0  0  0  0  0  0  0  0
  187.4110  176.8410  137.4300 C   0  0  0  0  0  0  0  0  0  0  0  0
  185.5970  177.9070  142.9790 C   0  0  0  0  0  2  0  0  0  0  0  0
  188.1730  176.9450  142.4000 N   0  0  0  0  0  2  0  0  0  0  0  0
  187.7280  177.4570  138.6540 C   0  0  0  0  0  0  0  0  0  0  0  0
  188.7870  177.4420  144.6690 C   0  0  0  0  0  2  0  0  0  0  0  0
  188.1600  177.9800  143.4310 C   0  0  2  0  0  3  0  0  0  0  0  0
  186.8110  178.2450  139.2720 N   0  0  0  0  0  0  0  0  0  0  0  0
  185.3320  178.9170  141.8950 C   0  0  0  0  0  0  0  0  0  0  0  0
  186.7370  178.3160  143.9150 C   0  0  2  0  0  3  0  0  0  0  0  0
  187.9550  177.2620  145.6190 N   0  0  0  0  0  2  0  0  0  0  0  0
  184.6390  178.2810  146.5710 N   0  0  0  0  0  1  0  0  0  0  0  0
  186.0380  178.5870  146.3190 C   0  0  1  0  0  3  0  0  0  0  0  0
  186.8070  178.4660  147.6210 C   0  0  0  0  0  1  0  0  0  0  0  0
  183.4570  177.5140  140.9590 C   0  0  0  0  0  2  0  0  0  0  0  0
  182.2270  177.7630  140.1000 C   0  0  0  0  0  2  0  0  0  0  0  0
  180.8310  179.9020  139.9670 C   0  0  0  0  0  0  0  0  0  0  0  0
  181.4020  178.8030  140.6900 N   0  0  0  0  0  2  0  0  0  0  0  0
  180.2900  180.8280  140.6260 O   0  0  0  0  0  0  0  0  0  0  0  0
  180.8590  179.9660  138.5220 N   0  0  0  0  0  0  0  0  0  0  0  0
  181.1710  178.8520  137.8150 O   0  0  0  0  0  1  0  0  0  0  0  0
  181.4540  182.3230  138.1580 C   0  0  0  0  0  1  0  0  0  0  0  0
  179.0880  181.6520  138.1540 C   0  0  0  0  0  1  0  0  0  0  0  0
  180.5390  180.9610  136.2970 C   0  0  0  0  0  1  0  0  0  0  0  0
  180.4960  181.1980  137.7980 C   0  0  0  0  0  0  0  0  0  0  0  0
  1 13  1  0  0  0  0
  2  3  1  0  0  0  0
  3  8  1  0  0  0  0
  4  6  1  0  0  0  0
  5 23  1  0  0  0  0
  5 25  1  1  0  0  0
  6  2  2  0  0  0  0
  7 14  1  0  0  0  0
  7  1  2  0  0  0  0
  8 16  1  0  0  0  0
  9 27  1  0  0  0  0
  9 21  1  0  0  0  0
 10  4  2  0  0  0  0
 10 14  1  0  0  0  0
 11  9  1  0  0  0  0
 12 21  2  0  0  0  0
 13 20  2  0  0  0  0
 13 11  1  0  0  0  0
 14 17  2  0  0  0  0
 16 19  1  0  0  0  0
 17  2  1  0  0  0  0
 17 20  1  0  0  0  0
 18 23  1  0  0  0  0
 19 22  1  0  0  0  0
 19 18  1  1  0  0  0
 21 15  1  0  0  0  0
 22 15  1  6  0  0  0
 22  5  1  0  0  0  0
 25 24  1  0  0  0  0
 25 26  1  1  0  0  0
 28 30  1  0  0  0  0
 28 27  1  0  0  0  0
 29 31  2  0  0  0  0
 29 30  1  0  0  0  0
 32 29  1  0  0  0  0
 33 32  1  0  0  0  0
 36 37  1  0  0  0  0
 37 35  1  0  0  0  0
 37 34  1  0  0  0  0
 37 32  1  0  0  0  0
M  END
>  <MODEL>
1

>  <REMARK>
 VINA RESULT:      -8.4      0.000      0.000
  Name = 
  5 active torsions:
  status: ('A' for Active; 'I' for Inactive)
    1  A    between atoms: C_7  and  C_9
    2  A    between atoms: N_13  and  C_34
    3  A    between atoms: N_14  and  C_25
    4  A    between atoms: C_22  and  N_36
    5  A    between atoms: C_25  and  C_34
                            x       y       z     vdW  Elec       q    Type
                         _______ _______ _______ _____ _____    ______ ____

>  <TORSDO>
F 5

$$$$
=
 OpenBabel11042411573D

 37 40  0  0  1  0  0  0  0  0999 V2000
  185.4550  177.8350  137.4580 C   0  0  0  0  0  3  0  0  0  0  0  0
  189.1210  177.1500  139.3300 C   0  0  0  0  0  0  0  0  0  0  0  0
  189.4140  177.7730  140.5800 N   0  0  0  0  0  2  0  0  0  0  0  0
  189.7350  175.6870  137.5080 C   0  0  0  0  0  3  0  0  0  0  0  0
  186.5410  177.6400  145.2530 C   0  0  1  0  0  3  0  0  0  0  0  0
  190.0400  176.2770  138.7390 C   0  0  0  0  0  3  0  0  0  0  0  0
  186.4030  177.0150  136.8340 C   0  0  0  0  0  3  0  0  0  0  0  0
  189.5150  176.9950  141.8030 C   0  0  0  0  0  2  0  0  0  0  0  0
  184.5060  178.6170  140.7360 N   0  0  0  0  0  0  0  0  0  0  0  0
  188.5500  175.9520  136.8930 N   0  0  0  0  0  0  0  0  0  0  0  0
  184.7370  179.2160  139.4250 C   0  0  0  0  0  2  0  0  0  0  0  0
  186.0240  180.0110  141.8360 O   0  0  0  0  0  0  0  0  0  0  0  0
  185.7630  178.4250  138.6880 C   0  0  0  0  0  0  0  0  0  0  0  0
  187.6350  176.7880  137.4520 C   0  0  0  0  0  0  0  0  0  0  0  0
  185.6190  177.9080  142.9210 C   0  0  0  0  0  2  0  0  0  0  0  0
  188.2080  176.9230  142.4470 N   0  0  0  0  0  2  0  0  0  0  0  0
  187.9100  177.4110  138.6830 C   0  0  0  0  0  0  0  0  0  0  0  0
  188.7400  177.4320  144.7340 C   0  0  0  0  0  2  0  0  0  0  0  0
  188.1640  177.9660  143.4690 C   0  0  2  0  0  3  0  0  0  0  0  0
  186.9760  178.2100  139.2610 N   0  0  0  0  0  0  0  0  0  0  0  0
  185.4040  178.9110  141.8210 C   0  0  0  0  0  0  0  0  0  0  0  0
  186.7260  178.3150  143.8960 C   0  0  2  0  0  3  0  0  0  0  0  0
  187.8710  177.2650  145.6530 N   0  0  0  0  0  2  0  0  0  0  0  0
  184.5450  178.2760  146.5190 N   0  0  0  0  0  1  0  0  0  0  0  0
  185.9390  178.6090  146.2700 C   0  0  1  0  0  3  0  0  0  0  0  0
  186.6990  178.5400  147.5810 C   0  0  0  0  0  1  0  0  0  0  0  0
  183.5540  177.5160  140.8240 C   0  0  0  0  0  2  0  0  0  0  0  0
  182.4660  177.6650  139.7720 C   0  0  0  0  0  2  0  0  0  0  0  0
  180.6570  175.8760  139.5130 C   0  0  0  0  0  0  0  0  0  0  0  0
  181.2560  176.9830  140.1990 N   0  0  0  0  0  2  0  0  0  0  0  0
  179.5160  175.4950  139.8840 O   0  0  0  0  0  0  0  0  0  0  0  0
  181.3260  175.1960  138.4250 N   0  0  0  0  0  0  0  0  0  0  0  0
  182.6490  175.4090  138.2220 O   0  0  0  0  0  1  0  0  0  0  0  0
  179.5200  174.9280  136.7780 C   0  0  0  0  0  1  0  0  0  0  0  0
  179.9640  173.1320  138.3970 C   0  0  0  0  0  1  0  0  0  0  0  0
  181.5850  173.5640  136.6040 C   0  0  0  0  0  1  0  0  0  0  0  0
  180.6150  174.2280  137.5680 C   0  0  0  0  0  0  0  0  0  0  0  0
  1 13  1  0  0  0  0
  2  3  1  0  0  0  0
  3  8  1  0  0  0  0
  4  6  2  0  0  0  0
  5 23  1  0  0  0  0
  5 25  1  1  0  0  0
  6  2  1  0  0  0  0
  7 14  1  0  0  0  0
  7  1  2  0  0  0  0
  8 16  1  0  0  0  0
  9 27  1  0  0  0  0
  9 21  1  0  0  0  0
 10 14  2  0  0  0  0
 10  4  1  0  0  0  0
 11  9  1  0  0  0  0
 13 20  2  0  0  0  0
 13 11  1  0  0  0  0
 14 17  1  0  0  0  0
 16 19  1  0  0  0  0
 17 20  1  0  0  0  0
 17  2  2  0  0  0  0
 18 23  1  0  0  0  0
 19 22  1  0  0  0  0
 19 18  1  1  0  0  0
 21 12  2  0  0  0  0
 21 15  1  0  0  0  0
 22 15  1  6  0  0  0
 22  5  1  0  0  0  0
 25 24  1  0  0  0  0
 25 26  1  1  0  0  0
 28 30  1  0  0  0  0
 28 27  1  0  0  0  0
 29 31  2  0  0  0  0
 29 30  1  0  0  0  0
 32 29  1  0  0  0  0
 33 32  1  0  0  0  0
 34 37  1  0  0  0  0
 36 37  1  0  0  0  0
 37 35  1  0  0  0  0
 37 32  1  0  0  0  0
M  END
>  <MODEL>
2

>  <REMARK>
 VINA RESULT:      -8.0      2.138      2.968
  Name = 
  5 active torsions:
  status: ('A' for Active; 'I' for Inactive)
    1  A    between atoms: C_7  and  C_9
    2  A    between atoms: N_13  and  C_34
    3  A    between atoms: N_14  and  C_25
    4  A    between atoms: C_22  and  N_36
    5  A    between atoms: C_25  and  C_34
                            x       y       z     vdW  Elec       q    Type
                         _______ _______ _______ _____ _____    ______ ____

>  <TORSDO>
F 5

$$$$
=
 OpenBabel11042411573D

 37 40  0  0  1  0  0  0  0  0999 V2000
  185.2320  177.4280  136.6400 C   0  0  0  0  0  3  0  0  0  0  0  0
  186.7080  173.5270  136.5420 C   0  0  0  0  0  0  0  0  0  0  0  0
  187.9700  173.2530  135.9340 N   0  0  0  0  0  2  0  0  0  0  0  0
  184.7320  172.7900  137.7220 C   0  0  0  0  0  3  0  0  0  0  0  0
  192.8600  175.5090  136.9840 C   0  0  1  0  0  3  0  0  0  0  0  0
  185.9720  172.5000  137.1430 C   0  0  0  0  0  3  0  0  0  0  0  0
  184.4650  176.3900  137.1800 C   0  0  0  0  0  3  0  0  0  0  0  0
  189.1160  172.8480  136.7300 C   0  0  0  0  0  2  0  0  0  0  0  0
  188.6330  178.1800  136.2760 N   0  0  0  0  0  0  0  0  0  0  0  0
  184.2490  174.0630  137.7110 N   0  0  0  0  0  0  0  0  0  0  0  0
  187.3560  178.2310  135.5710 C   0  0  0  0  0  2  0  0  0  0  0  0
  189.6930  176.9130  134.6240 O   0  0  0  0  0  0  0  0  0  0  0  0
  186.4700  177.1360  136.0600 C   0  0  0  0  0  0  0  0  0  0  0  0
  184.9500  175.0810  137.1440 C   0  0  0  0  0  0  0  0  0  0  0  0
  190.6480  176.7090  136.8180 C   0  0  0  0  0  2  0  0  0  0  0  0
  189.8680  174.0290  137.1410 N   0  0  0  0  0  2  0  0  0  0  0  0
  186.1950  174.8270  136.5390 C   0  0  0  0  0  0  0  0  0  0  0  0
  192.1300  173.3890  136.6430 C   0  0  0  0  0  2  0  0  0  0  0  0
  190.9660  174.2010  136.1930 C   0  0  2  0  0  3  0  0  0  0  0  0
  186.9130  175.8520  136.0140 N   0  0  0  0  0  0  0  0  0  0  0  0
  189.6510  177.2630  135.8370 C   0  0  0  0  0  0  0  0  0  0  0  0
  191.5470  175.6270  136.2140 C   0  0  2  0  0  3  0  0  0  0  0  0
  193.1080  174.0950  137.0580 N   0  0  0  0  0  2  0  0  0  0  0  0
  195.2650  175.5580  136.5340 N   0  0  0  0  0  1  0  0  0  0  0  0
  193.9980  176.2060  136.2390 C   0  0  1  0  0  3  0  0  0  0  0  0
  193.7590  176.1550  134.7420 C   0  0  0  0  0  1  0  0  0  0  0  0
  188.7220  178.8400  137.5730 C   0  0  0  0  0  2  0  0  0  0  0  0
  188.4570  177.8500  138.6960 C   0  0  0  0  0  2  0  0  0  0  0  0
  188.0590  178.2360  141.1920 C   0  0  0  0  0  0  0  0  0  0  0  0
  187.8020  178.5140  139.8100 N   0  0  0  0  0  2  0  0  0  0  0  0
  187.2970  178.7500  142.0530 O   0  0  0  0  0  0  0  0  0  0  0  0
  189.1580  177.3940  141.6130 N   0  0  0  0  0  0  0  0  0  0  0  0
  190.1350  177.0860  140.7260 O   0  0  0  0  0  1  0  0  0  0  0  0
  189.7020  178.0480  143.9200 C   0  0  0  0  0  1  0  0  0  0  0  0
  190.3030  175.8020  143.1200 C   0  0  0  0  0  1  0  0  0  0  0  0
  187.9390  176.3590  143.4810 C   0  0  0  0  0  1  0  0  0  0  0  0
  189.2720  176.9140  143.0040 C   0  0  0  0  0  0  0  0  0  0  0  0
  1  7  1  0  0  0  0
  2  6  2  0  0  0  0
  3  2  1  0  0  0  0
  3  8  1  0  0  0  0
  5 25  1  6  0  0  0
  5 23  1  0  0  0  0
  6  4  1  0  0  0  0
  8 16  1  0  0  0  0
  9 27  1  0  0  0  0
 10  4  2  0  0  0  0
 11 13  1  0  0  0  0
 11  9  1  0  0  0  0
 12 21  2  0  0  0  0
 13  1  2  0  0  0  0
 14  7  2  0  0  0  0
 14 10  1  0  0  0  0
 17  2  1  0  0  0  0
 17 14  1  0  0  0  0
 18 23  1  0  0  0  0
 19 22  1  0  0  0  0
 19 18  1  1  0  0  0
 19 16  1  0  0  0  0
 20 13  1  0  0  0  0
 20 17  2  0  0  0  0
 21  9  1  0  0  0  0
 21 15  1  0  0  0  0
 22 15  1  1  0  0  0
 22  5  1  0  0  0  0
 25 26  1  6  0  0  0
 25 24  1  0  0  0  0
 27 28  1  0  0  0  0
 28 30  1  0  0  0  0
 29 32  1  0  0  0  0
 29 31  2  0  0  0  0
 30 29  1  0  0  0  0
 32 37  1  0  0  0  0
 33 32  1  0  0  0  0
 37 35  1  0  0  0  0
 37 36  1  0  0  0  0
 37 34  1  0  0  0  0
M  END
>  <MODEL>
3

>  <REMARK>
 VINA RESULT:      -7.7      4.107      8.397
  Name = 
  5 active torsions:
  status: ('A' for Active; 'I' for Inactive)
    1  A    between atoms: C_7  and  C_9
    2  A    between atoms: N_13  and  C_34
    3  A    between atoms: N_14  and  C_25
    4  A    between atoms: C_22  and  N_36
    5  A    between atoms: C_25  and  C_34
                            x       y       z     vdW  Elec       q    Type
                         _______ _______ _______ _____ _____    ______ ____

>  <TORSDO>
F 5

$$$$
=
 OpenBabel11042411573D

 37 40  0  0  1  0  0  0  0  0999 V2000
  185.3210  178.8300  142.0550 C   0  0  0  0  0  3  0  0  0  0  0  0
  184.3560  177.9080  138.1010 C   0  0  0  0  0  0  0  0  0  0  0  0
  185.3500  178.0010  137.0810 N   0  0  0  0  0  2  0  0  0  0  0  0
  182.1030  177.4020  138.8090 C   0  0  0  0  0  3  0  0  0  0  0  0
  190.2890  175.6200  136.8580 C   0  0  1  0  0  3  0  0  0  0  0  0
  183.0630  177.4730  137.7950 C   0  0  0  0  0  3  0  0  0  0  0  0
  184.0100  178.4600  141.7360 C   0  0  0  0  0  3  0  0  0  0  0  0
  185.8670  176.8120  136.4250 C   0  0  0  0  0  2  0  0  0  0  0  0
  188.5440  178.0870  140.9040 N   0  0  0  0  0  0  0  0  0  0  0  0
  182.4260  177.7430  140.0870 N   0  0  0  0  0  0  0  0  0  0  0  0
  187.7060  179.1910  141.3610 C   0  0  0  0  0  2  0  0  0  0  0  0
  189.0560  179.0910  138.8590 O   0  0  0  0  0  0  0  0  0  0  0  0
  186.2790  178.9030  141.0390 C   0  0  0  0  0  0  0  0  0  0  0  0
  183.6780  178.1580  140.4130 C   0  0  0  0  0  0  0  0  0  0  0  0
  189.2210  176.6960  138.8740 C   0  0  0  0  0  2  0  0  0  0  0  0
  187.0340  176.3210  137.1480 N   0  0  0  0  0  2  0  0  0  0  0  0
  184.6690  178.2560  139.4190 C   0  0  0  0  0  0  0  0  0  0  0  0
  188.6010  175.9180  135.3720 C   0  0  0  0  0  2  0  0  0  0  0  0
  188.2200  176.8440  136.4740 C   0  0  2  0  0  3  0  0  0  0  0  0
  185.9310  178.6270  139.7540 N   0  0  0  0  0  0  0  0  0  0  0  0
  188.9480  178.0240  139.5250 C   0  0  0  0  0  0  0  0  0  0  0  0
  189.4740  176.8060  137.3680 C   0  0  2  0  0  3  0  0  0  0  0  0
  189.6860  175.2840  135.5970 N   0  0  0  0  0  2  0  0  0  0  0  0
  192.5330  175.6660  137.8340 N   0  0  0  0  0  1  0  0  0  0  0  0
  191.7540  176.0080  136.6550 C   0  0  1  0  0  3  0  0  0  0  0  0
  192.3320  175.2780  135.4580 C   0  0  0  0  0  1  0  0  0  0  0  0
  188.6950  176.9350  141.7860 C   0  0  0  0  0  2  0  0  0  0  0  0
  188.8940  177.3860  143.2250 C   0  0  0  0  0  2  0  0  0  0  0  0
  187.4930  177.4970  145.3610 C   0  0  0  0  0  0  0  0  0  0  0  0
  187.6300  177.3640  143.9400 N   0  0  0  0  0  2  0  0  0  0  0  0
  186.3630  177.2800  145.8710 O   0  0  0  0  0  0  0  0  0  0  0  0
  188.6050  177.8740  146.2060 N   0  0  0  0  0  0  0  0  0  0  0  0
  189.7250  178.3850  145.6390 O   0  0  0  0  0  1  0  0  0  0  0  0
  187.3840  178.6280  148.2020 C   0  0  0  0  0  1  0  0  0  0  0  0
  189.8100  178.2530  148.3320 C   0  0  0  0  0  1  0  0  0  0  0  0
  188.3060  176.3270  148.0940 C   0  0  0  0  0  1  0  0  0  0  0  0
  188.5250  177.7730  147.6750 C   0  0  0  0  0  0  0  0  0  0  0  0
  2 17  1  0  0  0  0
  3  2  1  0  0  0  0
  4 10  2  0  0  0  0
  5 25  1  6  0  0  0
  5 22  1  0  0  0  0
  6  2  2  0  0  0  0
  6  4  1  0  0  0  0
  7  1  1  0  0  0  0
  8  3  1  0  0  0  0
  8 16  1  0  0  0  0
  9 11  1  0  0  0  0
  9 27  1  0  0  0  0
 10 14  1  0  0  0  0
 12 21  2  0  0  0  0
 13 11  1  0  0  0  0
 13  1  2  0  0  0  0
 14  7  2  0  0  0  0
 15 21  1  0  0  0  0
 17 20  2  0  0  0  0
 17 14  1  0  0  0  0
 18 23  1  0  0  0  0
 19 18  1  6  0  0  0
 19 16  1  0  0  0  0
 19 22  1  0  0  0  0
 20 13  1  0  0  0  0
 21  9  1  0  0  0  0
 22 15  1  1  0  0  0
 23  5  1  0  0  0  0
 25 26  1  6  0  0  0
 25 24  1  0  0  0  0
 27 28  1  0  0  0  0
 28 30  1  0  0  0  0
 29 31  2  0  0  0  0
 29 32  1  0  0  0  0
 30 29  1  0  0  0  0
 32 37  1  0  0  0  0
 33 32  1  0  0  0  0
 37 36  1  0  0  0  0
 37 34  1  0  0  0  0
 37 35  1  0  0  0  0
M  END
>  <MODEL>
4

>  <REMARK>
 VINA RESULT:      -7.6      2.974      8.461
  Name = 
  5 active torsions:
  status: ('A' for Active; 'I' for Inactive)
    1  A    between atoms: C_7  and  C_9
    2  A    between atoms: N_13  and  C_34
    3  A    between atoms: N_14  and  C_25
    4  A    between atoms: C_22  and  N_36
    5  A    between atoms: C_25  and  C_34
                            x       y       z     vdW  Elec       q    Type
                         _______ _______ _______ _____ _____    ______ ____

>  <TORSDO>
F 5

$$$$
=
 OpenBabel11042411573D

 37 40  0  0  1  0  0  0  0  0999 V2000
  191.3140  177.2640  144.5890 C   0  0  0  0  0  3  0  0  0  0  0  0
  187.6700  178.0730  146.4540 C   0  0  0  0  0  0  0  0  0  0  0  0
  186.7000  178.8940  145.8050 N   0  0  0  0  0  2  0  0  0  0  0  0
  188.3690  176.7120  148.3240 C   0  0  0  0  0  3  0  0  0  0  0  0
  184.4810  178.3160  140.8200 C   0  0  1  0  0  3  0  0  0  0  0  0
  187.3970  177.5030  147.7020 C   0  0  0  0  0  3  0  0  0  0  0  0
  191.0670  176.7500  145.8660 C   0  0  0  0  0  3  0  0  0  0  0  0
  185.4500  178.3370  145.3170 C   0  0  0  0  0  2  0  0  0  0  0  0
  189.4400  178.0380  141.7330 N   0  0  0  0  0  0  0  0  0  0  0  0
  189.5670  176.4900  147.7170 N   0  0  0  0  0  0  0  0  0  0  0  0
  190.5310  178.5310  142.5690 C   0  0  0  0  0  2  0  0  0  0  0  0
  188.1570  179.9760  141.9600 O   0  0  0  0  0  0  0  0  0  0  0  0
  190.3420  178.0560  143.9690 C   0  0  0  0  0  0  0  0  0  0  0  0
  189.8530  177.0240  146.5000 C   0  0  0  0  0  0  0  0  0  0  0  0
  186.9050  177.9950  141.4400 C   0  0  0  0  0  2  0  0  0  0  0  0
  185.6150  177.8990  143.9360 N   0  0  0  0  0  2  0  0  0  0  0  0
  188.9070  177.8350  145.8480 C   0  0  0  0  0  0  0  0  0  0  0  0
  183.6600  178.8080  142.8760 C   0  0  0  0  0  2  0  0  0  0  0  0
  185.1270  178.9720  143.0730 C   0  0  2  0  0  3  0  0  0  0  0  0
  189.1760  178.3300  144.6120 N   0  0  0  0  0  0  0  0  0  0  0  0
  188.1830  178.7370  141.7190 C   0  0  0  0  0  0  0  0  0  0  0  0
  185.6550  178.8580  141.6310 C   0  0  2  0  0  3  0  0  0  0  0  0
  183.3460  178.4600  141.6890 N   0  0  0  0  0  2  0  0  0  0  0  0
  185.4310  179.0030  138.6710 N   0  0  0  0  0  1  0  0  0  0  0  0
  184.2740  179.1300  139.5430 C   0  0  1  0  0  3  0  0  0  0  0  0
  183.0450  178.6420  138.7990 C   0  0  0  0  0  1  0  0  0  0  0  0
  189.5620  176.6960  141.1750 C   0  0  0  0  0  2  0  0  0  0  0  0
  190.1020  176.7550  139.7550 C   0  0  0  0  0  2  0  0  0  0  0  0
  189.1260  178.1740  137.8650 C   0  0  0  0  0  0  0  0  0  0  0  0
  189.7660  178.0270  139.1390 N   0  0  0  0  0  2  0  0  0  0  0  0
  189.0550  179.3280  137.3660 O   0  0  0  0  0  0  0  0  0  0  0  0
  188.5650  177.0460  137.1550 N   0  0  0  0  0  0  0  0  0  0  0  0
  188.3800  175.8740  137.8110 O   0  0  0  0  0  1  0  0  0  0  0  0
  189.3140  177.4980  134.8580 C   0  0  0  0  0  1  0  0  0  0  0  0
  187.0890  178.2530  135.5800 C   0  0  0  0  0  1  0  0  0  0  0  0
  187.5080  175.8520  135.2830 C   0  0  0  0  0  1  0  0  0  0  0  0
  188.1310  177.1580  135.7490 C   0  0  0  0  0  0  0  0  0  0  0  0
  1  7  1  0  0  0  0
  2  6  2  0  0  0  0
  3  2  1  0  0  0  0
  5 25  1  6  0  0  0
  5 22  1  0  0  0  0
  5 23  1  0  0  0  0
  6  4  1  0  0  0  0
  7 14  2  0  0  0  0
  8  3  1  0  0  0  0
  9 11  1  0  0  0  0
 10  4  2  0  0  0  0
 11 13  1  0  0  0  0
 13  1  2  0  0  0  0
 13 20  1  0  0  0  0
 14 10  1  0  0  0  0
 15 21  1  0  0  0  0
 16  8  1  0  0  0  0
 17  2  1  0  0  0  0
 17 14  1  0  0  0  0
 19 18  1  6  0  0  0
 19 16  1  0  0  0  0
 20 17  2  0  0  0  0
 21  9  1  0  0  0  0
 21 12  2  0  0  0  0
 22 15  1  1  0  0  0
 22 19  1  0  0  0  0
 23 18  1  0  0  0  0
 24 25  1  0  0  0  0
 25 26  1  6  0  0  0
 27  9  1  0  0  0  0
 28 27  1  0  0  0  0
 29 30  1  0  0  0  0
 30 28  1  0  0  0  0
 31 29  2  0  0  0  0
 32 33  1  0  0  0  0
 32 29  1  0  0  0  0
 34 37  1  0  0  0  0
 35 37  1  0  0  0  0
 36 37  1  0  0  0  0
 37 32  1  0  0  0  0
M  END
>  <MODEL>
5

>  <REMARK>
 VINA RESULT:      -7.5      2.866      7.515
  Name = 
  5 active torsions:
  status: ('A' for Active; 'I' for Inactive)
    1  A    between atoms: C_7  and  C_9
    2  A    between atoms: N_13  and  C_34
    3  A    between atoms: N_14  and  C_25
    4  A    between atoms: C_22  and  N_36
    5  A    between atoms: C_25  and  C_34
                            x       y       z     vdW  Elec       q    Type
                         _______ _______ _______ _____ _____    ______ ____

>  <TORSDO>
F 5

$$$$
=
 OpenBabel11042411573D

 37 40  0  0  1  0  0  0  0  0999 V2000
  189.4030  177.4890  139.7270 C   0  0  0  0  0  3  0  0  0  0  0  0
  186.6810  178.2520  142.7950 C   0  0  0  0  0  0  0  0  0  0  0  0
  185.4620  178.9420  142.5170 N   0  0  0  0  0  2  0  0  0  0  0  0
  188.1630  177.1310  144.3380 C   0  0  0  0  0  3  0  0  0  0  0  0
  181.5850  177.7320  138.8270 C   0  0  1  0  0  3  0  0  0  0  0  0
  186.9570  177.7930  144.0870 C   0  0  0  0  0  3  0  0  0  0  0  0
  189.7100  177.0900  141.0330 C   0  0  0  0  0  3  0  0  0  0  0  0
  184.1800  178.2620  142.5890 C   0  0  0  0  0  2  0  0  0  0  0  0
  186.5220  177.8560  137.7710 N   0  0  0  0  0  0  0  0  0  0  0  0
  189.0560  176.9240  143.3320 N   0  0  0  0  0  0  0  0  0  0  0  0
  187.7950  178.4970  138.0850 C   0  0  0  0  0  2  0  0  0  0  0  0
  185.2420  179.7240  138.3440 O   0  0  0  0  0  0  0  0  0  0  0  0
  188.1980  178.1530  139.4780 C   0  0  0  0  0  0  0  0  0  0  0  0
  188.8070  177.3500  142.0660 C   0  0  0  0  0  0  0  0  0  0  0  0
  184.0810  177.6270  138.4840 C   0  0  0  0  0  2  0  0  0  0  0  0
  183.8500  177.6990  141.2840 N   0  0  0  0  0  2  0  0  0  0  0  0
  187.6110  178.0320  141.7760 C   0  0  0  0  0  0  0  0  0  0  0  0
  181.5620  178.3760  141.0030 C   0  0  0  0  0  2  0  0  0  0  0  0
  182.9710  178.6490  140.6060 C   0  0  2  0  0  3  0  0  0  0  0  0
  187.3430  178.4170  140.5010 N   0  0  0  0  0  0  0  0  0  0  0  0
  185.2930  178.4710  138.1960 C   0  0  0  0  0  0  0  0  0  0  0  0
  182.9210  178.4250  139.0830 C   0  0  2  0  0  3  0  0  0  0  0  0
  180.8560  177.8910  140.0560 N   0  0  0  0  0  2  0  0  0  0  0  0
  179.3980  178.3400  137.9110 N   0  0  0  0  0  1  0  0  0  0  0  0
  180.8320  178.4000  137.6770 C   0  0  1  0  0  3  0  0  0  0  0  0
  181.2460  179.8540  137.5480 C   0  0  0  0  0  1  0  0  0  0  0  0
  186.5500  176.4760  137.3020 C   0  0  0  0  0  2  0  0  0  0  0  0
  187.8930  176.1550  136.6650 C   0  0  0  0  0  2  0  0  0  0  0  0
  189.8170  174.5400  137.1410 C   0  0  0  0  0  0  0  0  0  0  0  0
  188.4420  174.9350  137.2320 N   0  0  0  0  0  2  0  0  0  0  0  0
  190.1260  173.3780  137.5160 O   0  0  0  0  0  0  0  0  0  0  0  0
  190.8400  175.4320  136.6410 N   0  0  0  0  0  0  0  0  0  0  0  0
  190.5650  176.7530  136.5170 O   0  0  0  0  0  1  0  0  0  0  0  0
  192.9350  174.5680  137.5930 C   0  0  0  0  0  1  0  0  0  0  0  0
  193.0090  176.0150  135.6070 C   0  0  0  0  0  1  0  0  0  0  0  0
  192.1210  173.7360  135.4040 C   0  0  0  0  0  1  0  0  0  0  0  0
  192.1960  174.9460  136.3200 C   0  0  0  0  0  0  0  0  0  0  0  0
  1  7  1  0  0  0  0
  2  6  2  0  0  0  0
  3  8  1  0  0  0  0
  3  2  1  0  0  0  0
  5 25  1  6  0  0  0
  5 22  1  0  0  0  0
  5 23  1  0  0  0  0
  6  4  1  0  0  0  0
  7 14  2  0  0  0  0
  9 11  1  0  0  0  0
  9 21  1  0  0  0  0
 10  4  2  0  0  0  0
 11 13  1  0  0  0  0
 13  1  2  0  0  0  0
 13 20  1  0  0  0  0
 14 10  1  0  0  0  0
 16  8  1  0  0  0  0
 17 14  1  0  0  0  0
 17  2  1  0  0  0  0
 19 18  1  1  0  0  0
 19 16  1  0  0  0  0
 20 17  2  0  0  0  0
 21 12  2  0  0  0  0
 21 15  1  0  0  0  0
 22 15  1  1  0  0  0
 22 19  1  0  0  0  0
 23 18  1  0  0  0  0
 25 26  1  1  0  0  0
 25 24  1  0  0  0  0
 27  9  1  0  0  0  0
 28 30  1  0  0  0  0
 28 27  1  0  0  0  0
 29 30  1  0  0  0  0
 29 31  2  0  0  0  0
 32 29  1  0  0  0  0
 33 32  1  0  0  0  0
 35 37  1  0  0  0  0
 36 37  1  0  0  0  0
 37 32  1  0  0  0  0
 37 34  1  0  0  0  0
M  END
>  <MODEL>
6

>  <REMARK>
 VINA RESULT:      -7.4      2.695      8.153
  Name = 
  5 active torsions:
  status: ('A' for Active; 'I' for Inactive)
    1  A    between atoms: C_7  and  C_9
    2  A    between atoms: N_13  and  C_34
    3  A    between atoms: N_14  and  C_25
    4  A    between atoms: C_22  and  N_36
    5  A    between atoms: C_25  and  C_34
                            x       y       z     vdW  Elec       q    Type
                         _______ _______ _______ _____ _____    ______ ____

>  <TORSDO>
F 5

$$$$
=
 OpenBabel11042411573D

 37 40  0  0  1  0  0  0  0  0999 V2000
  191.4250  177.1730  144.6580 C   0  0  0  0  0  3  0  0  0  0  0  0
  187.7150  178.0710  146.3430 C   0  0  0  0  0  0  0  0  0  0  0  0
  186.7870  178.8910  145.6350 N   0  0  0  0  0  2  0  0  0  0  0  0
  188.3100  176.7380  148.2690 C   0  0  0  0  0  3  0  0  0  0  0  0
  184.7830  178.2420  140.5680 C   0  0  1  0  0  3  0  0  0  0  0  0
  187.3790  177.5290  147.5880 C   0  0  0  0  0  3  0  0  0  0  0  0
  191.1140  176.6880  145.9330 C   0  0  0  0  0  3  0  0  0  0  0  0
  185.5510  178.3420  145.1030 C   0  0  0  0  0  2  0  0  0  0  0  0
  189.6920  177.9140  141.7070 N   0  0  0  0  0  0  0  0  0  0  0  0
  189.5310  176.4870  147.7200 N   0  0  0  0  0  0  0  0  0  0  0  0
  190.7520  178.4090  142.5800 C   0  0  0  0  0  2  0  0  0  0  0  0
  188.4290  179.8750  141.8380 O   0  0  0  0  0  0  0  0  0  0  0  0
  190.4940  177.9650  143.9800 C   0  0  0  0  0  0  0  0  0  0  0  0
  189.8780  176.9920  146.5060 C   0  0  0  0  0  0  0  0  0  0  0  0
  187.1710  177.9010  141.3020 C   0  0  0  0  0  2  0  0  0  0  0  0
  185.7710  177.8730  143.7390 N   0  0  0  0  0  2  0  0  0  0  0  0
  188.9740  177.8030  145.7960 C   0  0  0  0  0  0  0  0  0  0  0  0
  183.8780  178.7880  142.5760 C   0  0  0  0  0  2  0  0  0  0  0  0
  185.3380  178.9350  142.8350 C   0  0  2  0  0  3  0  0  0  0  0  0
  189.3050  178.2680  144.5650 N   0  0  0  0  0  0  0  0  0  0  0  0
  188.4470  178.6310  141.6230 C   0  0  0  0  0  0  0  0  0  0  0  0
  185.9280  178.7850  141.4200 C   0  0  2  0  0  3  0  0  0  0  0  0
  183.6120  178.4200  141.3830 N   0  0  0  0  0  2  0  0  0  0  0  0
  185.6480  178.6030  138.3070 N   0  0  0  0  0  1  0  0  0  0  0  0
  184.6440  179.0330  139.2670 C   0  0  1  0  0  3  0  0  0  0  0  0
  183.2690  178.8210  138.6640 C   0  0  0  0  0  1  0  0  0  0  0  0
  189.8180  176.5600  141.1810 C   0  0  0  0  0  2  0  0  0  0  0  0
  190.0870  176.5900  139.6850 C   0  0  0  0  0  2  0  0  0  0  0  0
  192.3800  176.5170  138.5550 C   0  0  0  0  0  0  0  0  0  0  0  0
  191.4130  177.1240  139.4210 N   0  0  0  0  0  2  0  0  0  0  0  0
  193.5500  176.9820  138.5540 O   0  0  0  0  0  0  0  0  0  0  0  0
  192.0460  175.4040  137.6930 N   0  0  0  0  0  0  0  0  0  0  0  0
  190.7430  175.1000  137.4780 O   0  0  0  0  0  1  0  0  0  0  0  0
  193.7120  175.4680  135.8860 C   0  0  0  0  0  1  0  0  0  0  0  0
  192.5130  173.3740  136.3610 C   0  0  0  0  0  1  0  0  0  0  0  0
  194.1730  174.2030  137.9690 C   0  0  0  0  0  1  0  0  0  0  0  0
  193.0890  174.6320  136.9930 C   0  0  0  0  0  0  0  0  0  0  0  0
  1  7  1  0  0  0  0
  2  6  2  0  0  0  0
  3  2  1  0  0  0  0
  5 25  1  6  0  0  0
  5 23  1  0  0  0  0
  5 22  1  0  0  0  0
  6  4  1  0  0  0  0
  7 14  2  0  0  0  0
  8  3  1  0  0  0  0
  9 11  1  0  0  0  0
 10  4  2  0  0  0  0
 11 13  1  0  0  0  0
 13 20  1  0  0  0  0
 13  1  2  0  0  0  0
 14 10  1  0  0  0  0
 15 21  1  0  0  0  0
 16  8  1  0  0  0  0
 17  2  1  0  0  0  0
 17 14  1  0  0  0  0
 19 18  1  6  0  0  0
 19 16  1  0  0  0  0
 20 17  2  0  0  0  0
 21  9  1  0  0  0  0
 21 12  2  0  0  0  0
 22 15  1  1  0  0  0
 22 19  1  0  0  0  0
 23 18  1  0  0  0  0
 24 25  1  0  0  0  0
 25 26  1  6  0  0  0
 27  9  1  0  0  0  0
 28 27  1  0  0  0  0
 29 30  1  0  0  0  0
 30 28  1  0  0  0  0
 31 29  2  0  0  0  0
 32 29  1  0  0  0  0
 33 32  1  0  0  0  0
 34 37  1  0  0  0  0
 35 37  1  0  0  0  0
 37 32  1  0  0  0  0
 37 36  1  0  0  0  0
M  END
>  <MODEL>
7

>  <REMARK>
 VINA RESULT:      -7.3      3.089      8.996
  Name = 
  5 active torsions:
  status: ('A' for Active; 'I' for Inactive)
    1  A    between atoms: C_7  and  C_9
    2  A    between atoms: N_13  and  C_34
    3  A    between atoms: N_14  and  C_25
    4  A    between atoms: C_22  and  N_36
    5  A    between atoms: C_25  and  C_34
                            x       y       z     vdW  Elec       q    Type
                         _______ _______ _______ _____ _____    ______ ____

>  <TORSDO>
F 5

$$$$
=
 OpenBabel11042411573D

 37 40  0  0  1  0  0  0  0  0999 V2000
  188.5750  177.0500  137.6120 C   0  0  0  0  0  3  0  0  0  0  0  0
  188.5110  178.1010  141.6490 C   0  0  0  0  0  0  0  0  0  0  0  0
  187.4840  178.9560  142.1510 N   0  0  0  0  0  2  0  0  0  0  0  0
  190.4850  176.7520  141.9930 C   0  0  0  0  0  3  0  0  0  0  0  0
  182.0390  178.3720  141.7980 C   0  0  1  0  0  3  0  0  0  0  0  0
  189.4820  177.5770  142.5100 C   0  0  0  0  0  3  0  0  0  0  0  0
  189.5850  176.5820  138.4600 C   0  0  0  0  0  3  0  0  0  0  0  0
  186.4640  178.4550  143.0560 C   0  0  0  0  0  2  0  0  0  0  0  0
  185.1770  177.8520  137.8750 N   0  0  0  0  0  0  0  0  0  0  0  0
  190.5120  176.4500  140.6660 N   0  0  0  0  0  0  0  0  0  0  0  0
  186.4290  178.3060  137.2770 C   0  0  0  0  0  2  0  0  0  0  0  0
  184.7800  179.8610  138.9970 O   0  0  0  0  0  0  0  0  0  0  0  0
  187.5740  177.8770  138.1300 C   0  0  0  0  0  0  0  0  0  0  0  0
  189.5740  176.9370  139.8110 C   0  0  0  0  0  0  0  0  0  0  0  0
  183.7260  177.9380  139.9740 C   0  0  0  0  0  2  0  0  0  0  0  0
  185.3210  177.9730  142.2870 N   0  0  0  0  0  2  0  0  0  0  0  0
  188.5560  177.7820  140.2890 C   0  0  0  0  0  0  0  0  0  0  0  0
  183.4690  178.9600  143.4580 C   0  0  0  0  0  2  0  0  0  0  0  0
  184.3330  179.0490  142.2490 C   0  0  2  0  0  3  0  0  0  0  0  0
  187.5940  178.2290  139.4420 N   0  0  0  0  0  0  0  0  0  0  0  0
  184.5760  178.6170  138.9340 C   0  0  0  0  0  0  0  0  0  0  0  0
  183.3090  178.8710  141.1120 C   0  0  2  0  0  3  0  0  0  0  0  0
  182.2730  178.5990  143.1980 N   0  0  0  0  0  2  0  0  0  0  0  0
  180.4260  180.1290  142.3460 N   0  0  0  0  0  1  0  0  0  0  0  0
  180.8170  179.1640  141.3320 C   0  0  1  0  0  3  0  0  0  0  0  0
  181.1260  179.9040  140.0450 C   0  0  0  0  0  1  0  0  0  0  0  0
  184.7370  176.4920  137.5850 C   0  0  0  0  0  2  0  0  0  0  0  0
  183.6460  176.4960  136.5270 C   0  0  0  0  0  2  0  0  0  0  0  0
  181.7260  174.9620  137.2340 C   0  0  0  0  0  0  0  0  0  0  0  0
  182.9420  175.2250  136.5220 N   0  0  0  0  0  2  0  0  0  0  0  0
  181.3180  173.7720  137.2920 O   0  0  0  0  0  0  0  0  0  0  0  0
  180.9680  176.0160  137.8720 N   0  0  0  0  0  0  0  0  0  0  0  0
  181.2410  177.3080  137.5660 O   0  0  0  0  0  1  0  0  0  0  0  0
  180.4120  175.2470  140.1390 C   0  0  0  0  0  1  0  0  0  0  0  0
  178.9650  174.6180  138.2540 C   0  0  0  0  0  1  0  0  0  0  0  0
  179.0030  176.9510  139.0160 C   0  0  0  0  0  1  0  0  0  0  0  0
  179.8630  175.7160  138.8020 C   0  0  0  0  0  0  0  0  0  0  0  0
  1 13  2  0  0  0  0
  1  7  1  0  0  0  0
  2  3  1  0  0  0  0
  2  6  2  0  0  0  0
  3  8  1  0  0  0  0
  4  6  1  0  0  0  0
  5 25  1  6  0  0  0
  5 23  1  0  0  0  0
  7 14  2  0  0  0  0
  9 21  1  0  0  0  0
 10  4  2  0  0  0  0
 11  9  1  0  0  0  0
 11 13  1  0  0  0  0
 13 20  1  0  0  0  0
 14 17  1  0  0  0  0
 14 10  1  0  0  0  0
 16  8  1  0  0  0  0
 17  2  1  0  0  0  0
 19 16  1  0  0  0  0
 19 18  1  1  0  0  0
 20 17  2  0  0  0  0
 21 12  2  0  0  0  0
 21 15  1  0  0  0  0
 22 15  1  6  0  0  0
 22  5  1  0  0  0  0
 22 19  1  0  0  0  0
 23 18  1  0  0  0  0
 25 26  1  6  0  0  0
 25 24  1  0  0  0  0
 27  9  1  0  0  0  0
 28 27  1  0  0  0  0
 29 31  2  0  0  0  0
 29 32  1  0  0  0  0
 30 28  1  0  0  0  0
 30 29  1  0  0  0  0
 32 37  1  0  0  0  0
 33 32  1  0  0  0  0
 35 37  1  0  0  0  0
 37 36  1  0  0  0  0
 37 34  1  0  0  0  0
M  END
>  <MODEL>
8

>  <REMARK>
 VINA RESULT:      -7.3      2.449      4.810
  Name = 
  5 active torsions:
  status: ('A' for Active; 'I' for Inactive)
    1  A    between atoms: C_7  and  C_9
    2  A    between atoms: N_13  and  C_34
    3  A    between atoms: N_14  and  C_25
    4  A    between atoms: C_22  and  N_36
    5  A    between atoms: C_25  and  C_34
                            x       y       z     vdW  Elec       q    Type
                         _______ _______ _______ _____ _____    ______ ____

>  <TORSDO>
F 5

$$$$
=
 OpenBabel11042411573D

 37 40  0  0  1  0  0  0  0  0999 V2000
  188.2440  177.0590  137.3190 C   0  0  0  0  0  3  0  0  0  0  0  0
  188.5670  178.0630  141.3560 C   0  0  0  0  0  0  0  0  0  0  0  0
  187.6110  178.9360  141.9560 N   0  0  0  0  0  2  0  0  0  0  0  0
  190.5290  176.6620  141.5090 C   0  0  0  0  0  3  0  0  0  0  0  0
  182.1430  178.4900  142.0860 C   0  0  1  0  0  3  0  0  0  0  0  0
  189.5970  177.5050  142.1210 C   0  0  0  0  0  3  0  0  0  0  0  0
  189.3140  176.5560  138.0690 C   0  0  0  0  0  3  0  0  0  0  0  0
  186.6630  178.4500  142.9430 C   0  0  0  0  0  2  0  0  0  0  0  0
  184.9040  177.9390  137.8930 N   0  0  0  0  0  0  0  0  0  0  0  0
  190.4300  176.3760  140.1810 N   0  0  0  0  0  0  0  0  0  0  0  0
  186.1090  178.3700  137.1900 C   0  0  0  0  0  2  0  0  0  0  0  0
  184.6600  179.9450  139.0650 O   0  0  0  0  0  0  0  0  0  0  0  0
  187.3140  177.9040  137.9330 C   0  0  0  0  0  0  0  0  0  0  0  0
  189.4320  176.8950  139.4190 C   0  0  0  0  0  0  0  0  0  0  0  0
  183.6490  178.0360  140.1140 C   0  0  0  0  0  2  0  0  0  0  0  0
  185.4450  178.0050  142.2760 N   0  0  0  0  0  2  0  0  0  0  0  0
  188.4820  177.7590  139.9950 C   0  0  0  0  0  0  0  0  0  0  0  0
  183.7300  179.0230  143.6170 C   0  0  0  0  0  2  0  0  0  0  0  0
  184.4850  179.1050  142.3360 C   0  0  2  0  0  3  0  0  0  0  0  0
  187.4600  178.2400  139.2410 N   0  0  0  0  0  0  0  0  0  0  0  0
  184.4190  178.7060  139.0090 C   0  0  0  0  0  0  0  0  0  0  0  0
  183.3590  178.9660  141.2940 C   0  0  2  0  0  3  0  0  0  0  0  0
  182.5070  178.6940  143.4620 N   0  0  0  0  0  2  0  0  0  0  0  0
  180.0350  178.5700  140.8460 N   0  0  0  0  0  1  0  0  0  0  0  0
  180.9050  179.3160  141.7390 C   0  0  1  0  0  3  0  0  0  0  0  0
  180.1320  179.6630  142.9970 C   0  0  0  0  0  1  0  0  0  0  0  0
  184.4060  176.5940  137.6310 C   0  0  0  0  0  2  0  0  0  0  0  0
  183.6600  176.5490  136.3070 C   0  0  0  0  0  2  0  0  0  0  0  0
  183.7080  174.1320  135.4710 C   0  0  0  0  0  0  0  0  0  0  0  0
  184.1840  175.4840  135.4680 N   0  0  0  0  0  2  0  0  0  0  0  0
  184.3660  173.2700  134.8310 O   0  0  0  0  0  0  0  0  0  0  0  0
  182.5070  173.7440  136.1780 N   0  0  0  0  0  0  0  0  0  0  0  0
  181.6540  174.7040  136.6120 O   0  0  0  0  0  1  0  0  0  0  0  0
  180.9830  172.2050  137.3400 C   0  0  0  0  0  1  0  0  0  0  0  0
  183.3240  171.5500  136.9730 C   0  0  0  0  0  1  0  0  0  0  0  0
  181.7950  171.6750  135.0570 C   0  0  0  0  0  1  0  0  0  0  0  0
  182.1570  172.3260  136.3820 C   0  0  0  0  0  0  0  0  0  0  0  0
  1 13  2  0  0  0  0
  1  7  1  0  0  0  0
  2  3  1  0  0  0  0
  2  6  2  0  0  0  0
  3  8  1  0  0  0  0
  4  6  1  0  0  0  0
  5 25  1  6  0  0  0
  5 23  1  0  0  0  0
  7 14  2  0  0  0  0
  9 21  1  0  0  0  0
 10  4  2  0  0  0  0
 11  9  1  0  0  0  0
 11 13  1  0  0  0  0
 13 20  1  0  0  0  0
 14 17  1  0  0  0  0
 14 10  1  0  0  0  0
 16 19  1  0  0  0  0
 16  8  1  0  0  0  0
 17  2  1  0  0  0  0
 19 18  1  1  0  0  0
 20 17  2  0  0  0  0
 21 12  2  0  0  0  0
 21 15  1  0  0  0  0
 22 15  1  6  0  0  0
 22  5  1  0  0  0  0
 22 19  1  0  0  0  0
 23 18  1  0  0  0  0
 24 25  1  0  0  0  0
 25 26  1  1  0  0  0
 27  9  1  0  0  0  0
 28 27  1  0  0  0  0
 29 32  1  0  0  0  0
 30 29  1  0  0  0  0
 30 28  1  0  0  0  0
 31 29  2  0  0  0  0
 32 37  1  0  0  0  0
 32 33  1  0  0  0  0
 36 37  1  0  0  0  0
 37 35  1  0  0  0  0
 37 34  1  0  0  0  0
M  END
>  <MODEL>
9

>  <REMARK>
 VINA RESULT:      -7.2      3.268      5.634
  Name = 
  5 active torsions:
  status: ('A' for Active; 'I' for Inactive)
    1  A    between atoms: C_7  and  C_9
    2  A    between atoms: N_13  and  C_34
    3  A    between atoms: N_14  and  C_25
    4  A    between atoms: C_22  and  N_36
    5  A    between atoms: C_25  and  C_34
                            x       y       z     vdW  Elec       q    Type
                         _______ _______ _______ _____ _____    ______ ____

>  <TORSDO>
F 5

$$$$
