=
 OpenBabel11032419283D

 36 39  0  0  1  0  0  0  0  0999 V2000
  188.3510  176.6540  137.1210 C   0  0  1  0  0  3  0  0  0  0  0  0
  190.5390  176.9820  139.3190 C   0  0  0  0  0  0  0  0  0  0  0  0
  190.5340  173.8900  137.4140 O   0  0  0  0  0  0  0  0  0  0  0  0
  189.4060  175.7550  136.5290 C   0  0  0  0  0  2  0  0  0  0  0  0
  189.0310  177.9600  137.4480 C   0  0  0  0  0  2  0  0  0  0  0  0
  190.2350  175.0990  137.5850 C   0  0  0  0  0  0  0  0  0  0  0  0
  190.7930  175.7770  138.7750 C   0  0  0  0  0  3  0  0  0  0  0  0
  189.5830  177.9150  138.7890 N   0  0  0  0  0  2  0  0  0  0  0  0
  185.6750  177.4590  137.9160 N   0  0  0  0  0  2  0  0  0  0  0  0
  186.0080  177.3510  136.5310 C   0  0  0  0  0  0  0  0  0  0  0  0
  187.3030  176.8890  136.1400 N   0  0  0  0  0  2  0  0  0  0  0  0
  185.1650  177.6570  135.6470 O   0  0  0  0  0  0  0  0  0  0  0  0
  184.4340  178.0580  138.3810 C   0  0  0  0  0  2  0  0  0  0  0  0
  185.9670  178.6060  140.0980 F   0  0  0  0  0  0  0  0  0  0  0  0
  184.1900  179.9550  139.8110 F   0  0  0  0  0  0  0  0  0  0  0  0
  184.6230  178.6380  139.7770 C   0  0  0  0  0  0  0  0  0  0  0  0
  183.8590  177.8060  140.8040 C   0  0  0  0  0  2  0  0  0  0  0  0
  183.9730  178.3480  142.1970 C   0  0  0  0  0  0  0  0  0  0  0  0
  183.8870  178.9020  144.9450 C   0  0  0  0  0  2  0  0  0  0  0  0
  185.1000  178.1480  142.9020 C   0  0  0  0  0  3  0  0  0  0  0  0
  185.2520  178.6460  144.3130 C   0  0  0  0  0  2  0  0  0  0  0  0
  183.0830  179.7200  144.0390 N   0  0  0  0  0  2  0  0  0  0  0  0
  182.7430  178.9130  142.8660 C   0  0  0  0  0  2  0  0  0  0  0  0
  192.5020  177.8210  140.4430 O   0  0  0  0  0  1  0  0  0  0  0  0
  191.2380  177.3330  140.5290 N   0  0  0  0  0  0  0  0  0  0  0  0
  190.7850  176.8550  144.1580 C   0  0  0  0  0  0  0  0  0  0  0  0
  191.5500  176.6670  145.3930 C   0  0  0  0  0  3  0  0  0  0  0  0
  190.6180  177.2580  141.7940 N   0  0  0  0  0  0  0  0  0  0  0  0
  191.3920  176.9920  142.9800 C   0  0  0  0  0  3  0  0  0  0  0  0
  189.2530  177.6940  141.9410 C   0  0  0  0  0  3  0  0  0  0  0  0
  189.2770  176.8180  144.2390 C   0  0  2  0  0  3  0  0  0  0  0  0
  190.9370  176.8300  146.5680 C   0  0  0  0  0  3  0  0  0  0  0  0
  188.6120  177.5420  143.1030 C   0  0  0  0  0  3  0  0  0  0  0  0
  188.9260  177.6480  147.9210 C   0  0  0  0  0  1  0  0  0  0  0  0
  188.7900  177.2830  145.5410 N   0  0  0  0  0  0  0  0  0  0  0  0
  189.5130  177.2280  146.6230 C   0  0  0  0  0  0  0  0  0  0  0  0
  1 11  1  6  0  0  0
  1  5  1  0  0  0  0
  2 25  1  0  0  0  0
  3  6  2  0  0  0  0
  4  1  1  0  0  0  0
  4  6  1  0  0  0  0
  5  8  1  0  0  0  0
  6  7  1  0  0  0  0
  7  2  2  0  0  0  0
  8  2  1  0  0  0  0
  9 13  1  0  0  0  0
 10  9  1  0  0  0  0
 11 10  1  0  0  0  0
 12 10  2  0  0  0  0
 13 16  1  0  0  0  0
 16 15  1  0  0  0  0
 16 14  1  0  0  0  0
 16 17  1  0  0  0  0
 17 18  1  0  0  0  0
 18 23  1  0  0  0  0
 18 20  2  0  0  0  0
 20 21  1  0  0  0  0
 21 19  1  0  0  0  0
 22 19  1  0  0  0  0
 23 22  1  0  0  0  0
 24 25  1  0  0  0  0
 25 28  1  0  0  0  0
 26 31  1  0  0  0  0
 26 27  1  0  0  0  0
 27 32  2  0  0  0  0
 28 30  1  0  0  0  0
 28 29  1  0  0  0  0
 29 26  2  0  0  0  0
 30 33  2  0  0  0  0
 31 33  1  6  0  0  0
 31 35  1  0  0  0  0
 32 36  1  0  0  0  0
 35 36  2  0  0  0  0
 36 34  1  0  0  0  0
M  END
>  <MODEL>
1

>  <REMARK>
 VINA RESULT:      -9.3      0.000      0.000
  Name = 
  7 active torsions:
  status: ('A' for Active; 'I' for Inactive)
    1  A    between atoms: C_2  and  C_12
    2  A    between atoms: N_4  and  N_29
    3  A    between atoms: C_5  and  N_16
    4  A    between atoms: C_5  and  C_20
    5  A    between atoms: C_6  and  N_24
    6  A    between atoms: C_7  and  N_29
    7  A    between atoms: C_12  and  C_20
                            x       y       z     vdW  Elec       q    Type
                         _______ _______ _______ _____ _____    ______ ____

>  <TORSDO>
F 7

$$$$
=
 OpenBabel11032419283D

 36 39  0  0  1  0  0  0  0  0999 V2000
  182.7530  178.3240  139.9000 C   0  0  1  0  0  3  0  0  0  0  0  0
  185.4510  178.2490  138.3390 C   0  0  0  0  0  0  0  0  0  0  0  0
  183.1450  175.4910  137.8230 O   0  0  0  0  0  0  0  0  0  0  0  0
  182.3100  177.5000  138.7190 C   0  0  0  0  0  2  0  0  0  0  0  0
  183.4400  179.5440  139.3420 C   0  0  0  0  0  2  0  0  0  0  0  0
  183.4230  176.6670  138.1720 C   0  0  0  0  0  0  0  0  0  0  0  0
  184.8070  177.1370  137.9390 C   0  0  0  0  0  3  0  0  0  0  0  0
  184.8530  179.2780  139.1430 N   0  0  0  0  0  2  0  0  0  0  0  0
  182.8920  178.6970  142.7790 N   0  0  0  0  0  2  0  0  0  0  0  0
  181.6810  178.9840  142.0770 C   0  0  0  0  0  0  0  0  0  0  0  0
  181.5910  178.7350  140.6730 N   0  0  0  0  0  2  0  0  0  0  0  0
  180.6860  179.4530  142.6890 O   0  0  0  0  0  0  0  0  0  0  0  0
  183.0990  179.0620  144.1710 C   0  0  0  0  0  2  0  0  0  0  0  0
  185.0780  177.8270  143.7760 F   0  0  0  0  0  0  0  0  0  0  0  0
  185.2910  179.9920  144.3490 F   0  0  0  0  0  0  0  0  0  0  0  0
  184.5540  178.8380  144.5610 C   0  0  0  0  0  0  0  0  0  0  0  0
  184.6500  178.4130  146.0250 C   0  0  0  0  0  2  0  0  0  0  0  0
  186.0640  178.2290  146.4890 C   0  0  0  0  0  0  0  0  0  0  0  0
  188.4900  177.4640  147.6690 C   0  0  0  0  0  2  0  0  0  0  0  0
  186.9360  177.5540  145.7220 C   0  0  0  0  0  3  0  0  0  0  0  0
  188.3560  177.3170  146.1560 C   0  0  0  0  0  2  0  0  0  0  0  0
  187.8730  178.7210  148.0870 N   0  0  0  0  0  2  0  0  0  0  0  0
  186.4240  178.6090  147.9050 C   0  0  0  0  0  2  0  0  0  0  0  0
  187.1500  179.0000  136.7980 O   0  0  0  0  0  1  0  0  0  0  0  0
  186.8370  178.3900  137.9690 N   0  0  0  0  0  0  0  0  0  0  0  0
  188.9070  178.0250  141.0000 C   0  0  0  0  0  0  0  0  0  0  0  0
  188.9000  178.3230  142.4350 C   0  0  0  0  0  3  0  0  0  0  0  0
  187.8800  177.9810  138.8280 N   0  0  0  0  0  0  0  0  0  0  0  0
  187.8820  178.3600  140.2180 C   0  0  0  0  0  3  0  0  0  0  0  0
  188.8120  176.9770  138.3820 C   0  0  0  0  0  3  0  0  0  0  0  0
  190.1430  177.3900  140.4090 C   0  0  2  0  0  3  0  0  0  0  0  0
  189.7900  177.7210  143.2270 C   0  0  0  0  0  3  0  0  0  0  0  0
  189.8640  176.6440  139.1340 C   0  0  0  0  0  3  0  0  0  0  0  0
  191.5510  175.9020  143.5980 C   0  0  0  0  0  1  0  0  0  0  0  0
  190.8470  176.5540  141.3850 N   0  0  0  0  0  0  0  0  0  0  0  0
  190.7490  176.7410  142.6710 C   0  0  0  0  0  0  0  0  0  0  0  0
  1 11  1  6  0  0  0
  2  8  1  0  0  0  0
  3  6  2  0  0  0  0
  4  1  1  0  0  0  0
  5  1  1  0  0  0  0
  6  4  1  0  0  0  0
  7  6  1  0  0  0  0
  7  2  2  0  0  0  0
  8  5  1  0  0  0  0
  9 13  1  0  0  0  0
 10 12  2  0  0  0  0
 10  9  1  0  0  0  0
 11 10  1  0  0  0  0
 13 16  1  0  0  0  0
 14 16  1  0  0  0  0
 15 16  1  0  0  0  0
 16 17  1  0  0  0  0
 17 18  1  0  0  0  0
 18 23  1  0  0  0  0
 19 22  1  0  0  0  0
 20 21  1  0  0  0  0
 20 18  2  0  0  0  0
 21 19  1  0  0  0  0
 23 22  1  0  0  0  0
 24 25  1  0  0  0  0
 25  2  1  0  0  0  0
 25 28  1  0  0  0  0
 26 27  1  0  0  0  0
 27 32  2  0  0  0  0
 28 29  1  0  0  0  0
 29 26  2  0  0  0  0
 30 28  1  0  0  0  0
 30 33  2  0  0  0  0
 31 33  1  6  0  0  0
 31 26  1  0  0  0  0
 31 35  1  0  0  0  0
 35 36  2  0  0  0  0
 36 32  1  0  0  0  0
 36 34  1  0  0  0  0
M  END
>  <MODEL>
2

>  <REMARK>
 VINA RESULT:      -9.1      2.487      5.538
  Name = 
  7 active torsions:
  status: ('A' for Active; 'I' for Inactive)
    1  A    between atoms: C_2  and  C_12
    2  A    between atoms: N_4  and  N_29
    3  A    between atoms: C_5  and  N_16
    4  A    between atoms: C_5  and  C_20
    5  A    between atoms: C_6  and  N_24
    6  A    between atoms: C_7  and  N_29
    7  A    between atoms: C_12  and  C_20
                            x       y       z     vdW  Elec       q    Type
                         _______ _______ _______ _____ _____    ______ ____

>  <TORSDO>
F 7

$$$$
=
 OpenBabel11032419283D

 36 39  0  0  1  0  0  0  0  0999 V2000
  188.4830  176.6540  136.9270 C   0  0  1  0  0  3  0  0  0  0  0  0
  190.7580  176.9390  139.0410 C   0  0  0  0  0  0  0  0  0  0  0  0
  190.2800  173.6710  137.5300 O   0  0  0  0  0  0  0  0  0  0  0  0
  189.3880  175.5540  136.4370 C   0  0  0  0  0  2  0  0  0  0  0  0
  189.3410  177.8830  137.0830 C   0  0  0  0  0  2  0  0  0  0  0  0
  190.1520  174.9220  137.5540 C   0  0  0  0  0  0  0  0  0  0  0  0
  190.8310  175.6540  138.6460 C   0  0  0  0  0  3  0  0  0  0  0  0
  189.9220  177.9240  138.4120 N   0  0  0  0  0  2  0  0  0  0  0  0
  185.8420  177.5910  137.6970 N   0  0  0  0  0  2  0  0  0  0  0  0
  186.1730  177.4380  136.3150 C   0  0  0  0  0  0  0  0  0  0  0  0
  187.4470  176.9120  135.9390 N   0  0  0  0  0  2  0  0  0  0  0  0
  185.3460  177.7600  135.4220 O   0  0  0  0  0  0  0  0  0  0  0  0
  184.6270  178.2530  138.1440 C   0  0  0  0  0  2  0  0  0  0  0  0
  186.0580  178.4770  140.0160 F   0  0  0  0  0  0  0  0  0  0  0  0
  184.3470  179.9250  139.8260 F   0  0  0  0  0  0  0  0  0  0  0  0
  184.7400  178.6120  139.6210 C   0  0  0  0  0  0  0  0  0  0  0  0
  183.8830  177.6680  140.4610 C   0  0  0  0  0  2  0  0  0  0  0  0
  183.3060  178.3290  141.6770 C   0  0  0  0  0  0  0  0  0  0  0  0
  181.9840  179.0600  144.0410 C   0  0  0  0  0  2  0  0  0  0  0  0
  184.0530  178.4550  142.7870 C   0  0  0  0  0  3  0  0  0  0  0  0
  183.5110  179.0840  144.0410 C   0  0  0  0  0  2  0  0  0  0  0  0
  181.4960  179.5920  142.7710 N   0  0  0  0  0  2  0  0  0  0  0  0
  181.8280  178.6390  141.7100 C   0  0  0  0  0  2  0  0  0  0  0  0
  192.8620  177.5670  140.0410 O   0  0  0  0  0  1  0  0  0  0  0  0
  191.5340  177.3330  140.1900 N   0  0  0  0  0  0  0  0  0  0  0  0
  188.9650  177.6030  142.8230 C   0  0  0  0  0  0  0  0  0  0  0  0
  187.5560  177.2970  143.0840 C   0  0  0  0  0  3  0  0  0  0  0  0
  190.9360  177.5570  141.4480 N   0  0  0  0  0  0  0  0  0  0  0  0
  189.5290  177.3210  141.6490 C   0  0  0  0  0  3  0  0  0  0  0  0
  191.7720  177.7820  142.5990 C   0  0  0  0  0  3  0  0  0  0  0  0
  189.7510  178.3180  143.8950 C   0  0  2  0  0  3  0  0  0  0  0  0
  187.1100  177.3160  144.3430 C   0  0  0  0  0  3  0  0  0  0  0  0
  191.2330  178.0940  143.7810 C   0  0  0  0  0  3  0  0  0  0  0  0
  187.5790  177.3800  146.8570 C   0  0  0  0  0  1  0  0  0  0  0  0
  189.2560  178.0010  145.2370 N   0  0  0  0  0  0  0  0  0  0  0  0
  188.0330  177.6110  145.4610 C   0  0  0  0  0  0  0  0  0  0  0  0
  1 11  1  6  0  0  0
  1  5  1  0  0  0  0
  2 25  1  0  0  0  0
  3  6  2  0  0  0  0
  4  1  1  0  0  0  0
  4  6  1  0  0  0  0
  5  8  1  0  0  0  0
  6  7  1  0  0  0  0
  7  2  2  0  0  0  0
  8  2  1  0  0  0  0
  9 13  1  0  0  0  0
 10  9  1  0  0  0  0
 11 10  1  0  0  0  0
 12 10  2  0  0  0  0
 13 16  1  0  0  0  0
 16 15  1  0  0  0  0
 16 14  1  0  0  0  0
 16 17  1  0  0  0  0
 17 18  1  0  0  0  0
 18 23  1  0  0  0  0
 18 20  2  0  0  0  0
 19 21  1  0  0  0  0
 20 21  1  0  0  0  0
 22 19  1  0  0  0  0
 23 22  1  0  0  0  0
 24 25  1  0  0  0  0
 25 28  1  0  0  0  0
 26 27  1  0  0  0  0
 26 31  1  0  0  0  0
 27 32  2  0  0  0  0
 28 29  1  0  0  0  0
 28 30  1  0  0  0  0
 29 26  2  0  0  0  0
 30 33  2  0  0  0  0
 31 33  1  1  0  0  0
 31 35  1  0  0  0  0
 32 36  1  0  0  0  0
 35 36  2  0  0  0  0
 36 34  1  0  0  0  0
M  END
>  <MODEL>
3

>  <REMARK>
 VINA RESULT:      -9.1      1.081      1.630
  Name = 
  7 active torsions:
  status: ('A' for Active; 'I' for Inactive)
    1  A    between atoms: C_2  and  C_12
    2  A    between atoms: N_4  and  N_29
    3  A    between atoms: C_5  and  N_16
    4  A    between atoms: C_5  and  C_20
    5  A    between atoms: C_6  and  N_24
    6  A    between atoms: C_7  and  N_29
    7  A    between atoms: C_12  and  C_20
                            x       y       z     vdW  Elec       q    Type
                         _______ _______ _______ _____ _____    ______ ____

>  <TORSDO>
F 7

$$$$
=
 OpenBabel11032419283D

 36 39  0  0  1  0  0  0  0  0999 V2000
  188.6630  177.1550  137.1530 C   0  0  1  0  0  3  0  0  0  0  0  0
  190.1070  177.3030  139.9130 C   0  0  0  0  0  0  0  0  0  0  0  0
  191.0000  174.5620  137.7040 O   0  0  0  0  0  0  0  0  0  0  0  0
  189.9400  176.4480  136.7800 C   0  0  0  0  0  2  0  0  0  0  0  0
  189.0630  178.4420  137.8290 C   0  0  0  0  0  2  0  0  0  0  0  0
  190.5210  175.7010  137.9360 C   0  0  0  0  0  0  0  0  0  0  0  0
  190.6450  176.2240  139.3140 C   0  0  0  0  0  3  0  0  0  0  0  0
  189.2280  178.2300  139.2550 N   0  0  0  0  0  2  0  0  0  0  0  0
  185.7570  177.1600  137.1490 N   0  0  0  0  0  2  0  0  0  0  0  0
  186.4750  177.5270  135.9700 C   0  0  0  0  0  0  0  0  0  0  0  0
  187.9030  177.4580  135.9500 N   0  0  0  0  0  2  0  0  0  0  0  0
  185.8580  177.9090  134.9400 O   0  0  0  0  0  0  0  0  0  0  0  0
  184.3210  177.3470  137.2840 C   0  0  0  0  0  2  0  0  0  0  0  0
  185.2000  178.5570  139.1170 F   0  0  0  0  0  0  0  0  0  0  0  0
  183.2490  179.2540  138.2410 F   0  0  0  0  0  0  0  0  0  0  0  0
  184.0120  178.1380  138.5480 C   0  0  0  0  0  0  0  0  0  0  0  0
  183.2750  177.2580  139.5560 C   0  0  0  0  0  2  0  0  0  0  0  0
  182.8420  178.0070  140.7800 C   0  0  0  0  0  0  0  0  0  0  0  0
  181.8100  178.9110  143.2260 C   0  0  0  0  0  2  0  0  0  0  0  0
  183.7180  178.2220  141.7760 C   0  0  0  0  0  3  0  0  0  0  0  0
  183.3240  178.9420  143.0370 C   0  0  0  0  0  2  0  0  0  0  0  0
  181.1620  179.3410  141.9890 N   0  0  0  0  0  2  0  0  0  0  0  0
  181.3760  178.3110  140.9710 C   0  0  0  0  0  2  0  0  0  0  0  0
  191.6830  177.7460  141.6850 O   0  0  0  0  0  1  0  0  0  0  0  0
  190.4010  177.5130  141.3080 N   0  0  0  0  0  0  0  0  0  0  0  0
  188.7260  177.4940  144.5940 C   0  0  0  0  0  0  0  0  0  0  0  0
  189.0190  177.5360  146.0290 C   0  0  0  0  0  3  0  0  0  0  0  0
  189.3820  177.5600  142.2820 N   0  0  0  0  0  0  0  0  0  0  0  0
  189.7020  177.5180  143.6870 C   0  0  0  0  0  3  0  0  0  0  0  0
  188.0390  177.9010  141.8870 C   0  0  0  0  0  3  0  0  0  0  0  0
  187.2860  177.3470  144.1630 C   0  0  2  0  0  3  0  0  0  0  0  0
  188.0310  177.8070  146.8850 C   0  0  0  0  0  3  0  0  0  0  0  0
  187.0380  177.8560  142.7710 C   0  0  0  0  0  3  0  0  0  0  0  0
  185.6520  178.6360  147.3310 C   0  0  0  0  0  1  0  0  0  0  0  0
  186.3630  177.9440  145.1320 N   0  0  0  0  0  0  0  0  0  0  0  0
  186.6660  178.0930  146.3910 C   0  0  0  0  0  0  0  0  0  0  0  0
  1 11  1  6  0  0  0
  1  5  1  0  0  0  0
  2 25  1  0  0  0  0
  3  6  2  0  0  0  0
  4  1  1  0  0  0  0
  4  6  1  0  0  0  0
  5  8  1  0  0  0  0
  6  7  1  0  0  0  0
  7  2  2  0  0  0  0
  8  2  1  0  0  0  0
  9 13  1  0  0  0  0
 10  9  1  0  0  0  0
 11 10  1  0  0  0  0
 12 10  2  0  0  0  0
 13 16  1  0  0  0  0
 15 16  1  0  0  0  0
 16 14  1  0  0  0  0
 16 17  1  0  0  0  0
 17 18  1  0  0  0  0
 18 23  1  0  0  0  0
 18 20  2  0  0  0  0
 20 21  1  0  0  0  0
 21 19  1  0  0  0  0
 22 19  1  0  0  0  0
 23 22  1  0  0  0  0
 25 24  1  0  0  0  0
 25 28  1  0  0  0  0
 26 27  1  0  0  0  0
 27 32  2  0  0  0  0
 28 29  1  0  0  0  0
 29 26  2  0  0  0  0
 30 28  1  0  0  0  0
 30 33  2  0  0  0  0
 31 33  1  6  0  0  0
 31 26  1  0  0  0  0
 31 35  1  0  0  0  0
 35 36  2  0  0  0  0
 36 32  1  0  0  0  0
 36 34  1  0  0  0  0
M  END
>  <MODEL>
4

>  <REMARK>
 VINA RESULT:      -8.9      1.410      1.818
  Name = 
  7 active torsions:
  status: ('A' for Active; 'I' for Inactive)
    1  A    between atoms: C_2  and  C_12
    2  A    between atoms: N_4  and  N_29
    3  A    between atoms: C_5  and  N_16
    4  A    between atoms: C_5  and  C_20
    5  A    between atoms: C_6  and  N_24
    6  A    between atoms: C_7  and  N_29
    7  A    between atoms: C_12  and  C_20
                            x       y       z     vdW  Elec       q    Type
                         _______ _______ _______ _____ _____    ______ ____

>  <TORSDO>
F 7

$$$$
=
 OpenBabel11032419283D

 36 39  0  0  1  0  0  0  0  0999 V2000
  185.8860  177.0870  137.3430 C   0  0  1  0  0  3  0  0  0  0  0  0
  188.9700  176.6600  137.5150 C   0  0  0  0  0  0  0  0  0  0  0  0
  186.9900  173.9840  136.0610 O   0  0  0  0  0  0  0  0  0  0  0  0
  186.0490  176.1370  136.1850 C   0  0  0  0  0  2  0  0  0  0  0  0
  186.9020  178.1830  137.1480 C   0  0  0  0  0  2  0  0  0  0  0  0
  187.1750  175.1790  136.4050 C   0  0  0  0  0  0  0  0  0  0  0  0
  188.5120  175.5400  136.9240 C   0  0  0  0  0  3  0  0  0  0  0  0
  188.1600  177.8180  137.7740 N   0  0  0  0  0  2  0  0  0  0  0  0
  184.7250  178.3390  139.6940 N   0  0  0  0  0  2  0  0  0  0  0  0
  184.0090  178.3360  138.4580 C   0  0  0  0  0  0  0  0  0  0  0  0
  184.5490  177.6600  137.3200 N   0  0  0  0  0  2  0  0  0  0  0  0
  182.8990  178.9220  138.3630 O   0  0  0  0  0  0  0  0  0  0  0  0
  184.3060  179.1270  140.8430 C   0  0  0  0  0  2  0  0  0  0  0  0
  186.4470  178.3640  141.5020 F   0  0  0  0  0  0  0  0  0  0  0  0
  185.6130  180.1750  142.5440 F   0  0  0  0  0  0  0  0  0  0  0  0
  185.2920  178.9460  141.9900 C   0  0  0  0  0  0  0  0  0  0  0  0
  184.6990  178.0260  143.0560 C   0  0  0  0  0  2  0  0  0  0  0  0
  185.2960  178.2450  144.4140 C   0  0  0  0  0  0  0  0  0  0  0  0
  186.0340  178.2660  147.1200 C   0  0  0  0  0  2  0  0  0  0  0  0
  186.4490  177.6390  144.7420 C   0  0  0  0  0  3  0  0  0  0  0  0
  187.0730  177.8030  146.1020 C   0  0  0  0  0  2  0  0  0  0  0  0
  185.3110  179.4150  146.5810 N   0  0  0  0  0  2  0  0  0  0  0  0
  184.4810  178.9600  145.4650 C   0  0  0  0  0  2  0  0  0  0  0  0
  191.3300  176.5590  137.0240 O   0  0  0  0  0  1  0  0  0  0  0  0
  190.3440  176.6750  137.9490 N   0  0  0  0  0  0  0  0  0  0  0  0
  190.0920  176.8220  141.6260 C   0  0  0  0  0  0  0  0  0  0  0  0
  189.2180  176.4210  142.7320 C   0  0  0  0  0  3  0  0  0  0  0  0
  190.6930  176.8870  139.3000 N   0  0  0  0  0  0  0  0  0  0  0  0
  189.7760  176.5540  140.3600 C   0  0  0  0  0  3  0  0  0  0  0  0
  192.0580  177.2000  139.6380 C   0  0  0  0  0  3  0  0  0  0  0  0
  191.3330  177.6190  141.9500 C   0  0  2  0  0  3  0  0  0  0  0  0
  189.6970  176.4390  143.9770 C   0  0  0  0  0  3  0  0  0  0  0  0
  192.3960  177.5010  140.8940 C   0  0  0  0  0  3  0  0  0  0  0  0
  191.6810  176.5980  145.5840 C   0  0  0  0  0  1  0  0  0  0  0  0
  191.8530  177.2990  143.2830 N   0  0  0  0  0  0  0  0  0  0  0  0
  191.1010  176.8270  144.2360 C   0  0  0  0  0  0  0  0  0  0  0  0
  1 11  1  6  0  0  0
  2  8  1  0  0  0  0
  2 25  1  0  0  0  0
  3  6  2  0  0  0  0
  4  6  1  0  0  0  0
  4  1  1  0  0  0  0
  5  1  1  0  0  0  0
  5  8  1  0  0  0  0
  6  7  1  0  0  0  0
  7  2  2  0  0  0  0
  9 13  1  0  0  0  0
 10  9  1  0  0  0  0
 11 10  1  0  0  0  0
 12 10  2  0  0  0  0
 13 16  1  0  0  0  0
 14 16  1  0  0  0  0
 16 15  1  0  0  0  0
 16 17  1  0  0  0  0
 17 18  1  0  0  0  0
 18 20  2  0  0  0  0
 18 23  1  0  0  0  0
 20 21  1  0  0  0  0
 21 19  1  0  0  0  0
 22 19  1  0  0  0  0
 23 22  1  0  0  0  0
 24 25  1  0  0  0  0
 25 28  1  0  0  0  0
 26 31  1  0  0  0  0
 26 27  1  0  0  0  0
 27 32  2  0  0  0  0
 28 30  1  0  0  0  0
 28 29  1  0  0  0  0
 29 26  2  0  0  0  0
 30 33  2  0  0  0  0
 31 33  1  6  0  0  0
 31 35  1  0  0  0  0
 32 36  1  0  0  0  0
 35 36  2  0  0  0  0
 36 34  1  0  0  0  0
M  END
>  <MODEL>
5

>  <REMARK>
 VINA RESULT:      -8.8      1.921      3.025
  Name = 
  7 active torsions:
  status: ('A' for Active; 'I' for Inactive)
    1  A    between atoms: C_2  and  C_12
    2  A    between atoms: N_4  and  N_29
    3  A    between atoms: C_5  and  N_16
    4  A    between atoms: C_5  and  C_20
    5  A    between atoms: C_6  and  N_24
    6  A    between atoms: C_7  and  N_29
    7  A    between atoms: C_12  and  C_20
                            x       y       z     vdW  Elec       q    Type
                         _______ _______ _______ _____ _____    ______ ____

>  <TORSDO>
F 7

$$$$
=
 OpenBabel11032419283D

 36 39  0  0  1  0  0  0  0  0999 V2000
  188.9190  177.4110  144.4470 C   0  0  1  0  0  3  0  0  0  0  0  0
  189.3600  177.5800  141.3640 C   0  0  0  0  0  0  0  0  0  0  0  0
  192.1930  178.3520  143.5030 O   0  0  0  0  0  0  0  0  0  0  0  0
  190.3990  177.1300  144.4130 C   0  0  0  0  0  2  0  0  0  0  0  0
  188.2790  176.4780  143.4490 C   0  0  0  0  0  2  0  0  0  0  0  0
  191.0720  177.8280  143.2750 C   0  0  0  0  0  0  0  0  0  0  0  0
  190.5610  177.8880  141.8880 C   0  0  0  0  0  3  0  0  0  0  0  0
  188.2500  177.0930  142.1350 N   0  0  0  0  0  2  0  0  0  0  0  0
  186.4590  178.6220  145.4090 N   0  0  0  0  0  2  0  0  0  0  0  0
  187.1530  177.6700  146.2180 C   0  0  0  0  0  0  0  0  0  0  0  0
  188.3980  177.1270  145.7750 N   0  0  0  0  0  2  0  0  0  0  0  0
  186.6760  177.3070  147.3250 O   0  0  0  0  0  0  0  0  0  0  0  0
  185.1240  179.1000  145.7300 C   0  0  0  0  0  2  0  0  0  0  0  0
  182.9750  178.8890  144.7620 F   0  0  0  0  0  0  0  0  0  0  0  0
  184.3270  180.5030  143.9690 F   0  0  0  0  0  0  0  0  0  0  0  0
  184.2870  179.2080  144.4620 C   0  0  0  0  0  0  0  0  0  0  0  0
  184.7950  178.2270  143.4070 C   0  0  0  0  0  2  0  0  0  0  0  0
  184.4020  178.6120  142.0130 C   0  0  0  0  0  0  0  0  0  0  0  0
  183.9070  178.8380  139.2610 C   0  0  0  0  0  2  0  0  0  0  0  0
  183.1400  178.4140  141.5960 C   0  0  0  0  0  3  0  0  0  0  0  0
  182.7040  178.7560  140.1970 C   0  0  0  0  0  2  0  0  0  0  0  0
  184.9270  179.6930  139.8630 N   0  0  0  0  0  2  0  0  0  0  0  0
  185.4800  179.0050  141.0310 C   0  0  0  0  0  2  0  0  0  0  0  0
  188.5700  178.9380  139.5330 O   0  0  0  0  0  1  0  0  0  0  0  0
  189.1700  177.7950  139.9520 N   0  0  0  0  0  0  0  0  0  0  0  0
  191.5200  175.7430  137.9840 C   0  0  0  0  0  0  0  0  0  0  0  0
  192.9210  175.3140  137.9570 C   0  0  0  0  0  3  0  0  0  0  0  0
  189.6600  176.8870  138.9900 N   0  0  0  0  0  0  0  0  0  0  0  0
  191.0600  176.5490  138.9410 C   0  0  0  0  0  3  0  0  0  0  0  0
  188.7310  176.1040  138.2160 C   0  0  0  0  0  3  0  0  0  0  0  0
  190.6180  175.3080  136.8540 C   0  0  2  0  0  3  0  0  0  0  0  0
  193.2710  174.2910  137.1750 C   0  0  0  0  0  3  0  0  0  0  0  0
  189.1640  175.3110  137.2330 C   0  0  0  0  0  3  0  0  0  0  0  0
  192.6170  172.2960  135.7130 C   0  0  0  0  0  1  0  0  0  0  0  0
  191.0310  174.0190  136.2930 N   0  0  0  0  0  0  0  0  0  0  0  0
  192.2550  173.5770  136.3710 C   0  0  0  0  0  0  0  0  0  0  0  0
  1 11  1  1  0  0  0
  2  7  2  0  0  0  0
  2  8  1  0  0  0  0
  4  1  1  0  0  0  0
  5  1  1  0  0  0  0
  6  3  2  0  0  0  0
  6  4  1  0  0  0  0
  7  6  1  0  0  0  0
  8  5  1  0  0  0  0
  9 13  1  0  0  0  0
  9 10  1  0  0  0  0
 10 12  2  0  0  0  0
 11 10  1  0  0  0  0
 15 16  1  0  0  0  0
 16 14  1  0  0  0  0
 16 13  1  0  0  0  0
 17 16  1  0  0  0  0
 18 17  1  0  0  0  0
 19 22  1  0  0  0  0
 19 21  1  0  0  0  0
 20 18  2  0  0  0  0
 21 20  1  0  0  0  0
 22 23  1  0  0  0  0
 23 18  1  0  0  0  0
 24 25  1  0  0  0  0
 25  2  1  0  0  0  0
 26 29  2  0  0  0  0
 27 26  1  0  0  0  0
 28 25  1  0  0  0  0
 29 28  1  0  0  0  0
 30 28  1  0  0  0  0
 31 33  1  1  0  0  0
 31 26  1  0  0  0  0
 32 27  2  0  0  0  0
 33 30  2  0  0  0  0
 34 36  1  0  0  0  0
 35 36  2  0  0  0  0
 35 31  1  0  0  0  0
 36 32  1  0  0  0  0
M  END
>  <MODEL>
6

>  <REMARK>
 VINA RESULT:      -8.7      2.726      6.845
  Name = 
  7 active torsions:
  status: ('A' for Active; 'I' for Inactive)
    1  A    between atoms: C_2  and  C_12
    2  A    between atoms: N_4  and  N_29
    3  A    between atoms: C_5  and  N_16
    4  A    between atoms: C_5  and  C_20
    5  A    between atoms: C_6  and  N_24
    6  A    between atoms: C_7  and  N_29
    7  A    between atoms: C_12  and  C_20
                            x       y       z     vdW  Elec       q    Type
                         _______ _______ _______ _____ _____    ______ ____

>  <TORSDO>
F 7

$$$$
=
 OpenBabel11032419283D

 36 39  0  0  1  0  0  0  0  0999 V2000
  188.2930  177.8330  146.3790 C   0  0  1  0  0  3  0  0  0  0  0  0
  190.2460  177.1980  144.0320 C   0  0  0  0  0  0  0  0  0  0  0  0
  191.6030  177.1280  147.4000 O   0  0  0  0  0  0  0  0  0  0  0  0
  189.2720  176.9640  147.1250 C   0  0  0  0  0  2  0  0  0  0  0  0
  187.9020  177.0740  145.1360 C   0  0  0  0  0  2  0  0  0  0  0  0
  190.6560  177.0830  146.5740 C   0  0  0  0  0  0  0  0  0  0  0  0
  191.0050  177.0770  145.1370 C   0  0  0  0  0  3  0  0  0  0  0  0
  188.8210  177.3760  144.0540 N   0  0  0  0  0  2  0  0  0  0  0  0
  185.7760  178.7080  145.2200 N   0  0  0  0  0  2  0  0  0  0  0  0
  185.8590  178.4190  146.6170 C   0  0  0  0  0  0  0  0  0  0  0  0
  187.1130  178.0560  147.1990 N   0  0  0  0  0  2  0  0  0  0  0  0
  184.8340  178.4870  147.3440 O   0  0  0  0  0  0  0  0  0  0  0  0
  184.5120  178.9390  144.5400 C   0  0  0  0  0  2  0  0  0  0  0  0
  185.2910  180.1100  142.6380 F   0  0  0  0  0  0  0  0  0  0  0  0
  185.5640  177.8770  142.6780 F   0  0  0  0  0  0  0  0  0  0  0  0
  184.7160  178.9150  143.0310 C   0  0  0  0  0  0  0  0  0  0  0  0
  183.3740  178.7660  142.3170 C   0  0  0  0  0  2  0  0  0  0  0  0
  183.5170  178.3380  140.8870 C   0  0  0  0  0  0  0  0  0  0  0  0
  183.3040  177.8300  138.1370 C   0  0  0  0  0  2  0  0  0  0  0  0
  184.3540  179.0010  140.0720 C   0  0  0  0  0  3  0  0  0  0  0  0
  184.5110  178.6300  138.6230 C   0  0  0  0  0  2  0  0  0  0  0  0
  183.0410  176.7400  139.0740 N   0  0  0  0  0  2  0  0  0  0  0  0
  182.5560  177.3160  140.3300 C   0  0  0  0  0  2  0  0  0  0  0  0
  192.1960  176.7520  142.6830 O   0  0  0  0  0  1  0  0  0  0  0  0
  190.9150  177.1920  142.7550 N   0  0  0  0  0  0  0  0  0  0  0  0
  190.1210  177.5020  139.1660 C   0  0  0  0  0  0  0  0  0  0  0  0
  190.5230  176.9850  137.8550 C   0  0  0  0  0  3  0  0  0  0  0  0
  190.2480  177.5570  141.5660 N   0  0  0  0  0  0  0  0  0  0  0  0
  190.7190  177.0940  140.2850 C   0  0  0  0  0  3  0  0  0  0  0  0
  188.9540  178.1840  141.6430 C   0  0  0  0  0  3  0  0  0  0  0  0
  189.0560  178.5710  139.2170 C   0  0  2  0  0  3  0  0  0  0  0  0
  189.7220  177.1830  136.8060 C   0  0  0  0  0  3  0  0  0  0  0  0
  188.3460  178.6280  140.5400 C   0  0  0  0  0  3  0  0  0  0  0  0
  187.4500  177.8750  135.8540 C   0  0  0  0  0  1  0  0  0  0  0  0
  188.1150  178.4560  138.0990 N   0  0  0  0  0  0  0  0  0  0  0  0
  188.4310  177.8880  136.9700 C   0  0  0  0  0  0  0  0  0  0  0  0
  1  4  1  0  0  0  0
  1 11  1  1  0  0  0
  2  8  1  0  0  0  0
  2  7  2  0  0  0  0
  5  1  1  0  0  0  0
  6  4  1  0  0  0  0
  6  3  2  0  0  0  0
  7  6  1  0  0  0  0
  8  5  1  0  0  0  0
  9 10  1  0  0  0  0
 10 11  1  0  0  0  0
 10 12  2  0  0  0  0
 13  9  1  0  0  0  0
 14 16  1  0  0  0  0
 15 16  1  0  0  0  0
 16 13  1  0  0  0  0
 17 16  1  0  0  0  0
 18 17  1  0  0  0  0
 19 21  1  0  0  0  0
 19 22  1  0  0  0  0
 20 18  2  0  0  0  0
 21 20  1  0  0  0  0
 22 23  1  0  0  0  0
 23 18  1  0  0  0  0
 24 25  1  0  0  0  0
 25  2  1  0  0  0  0
 26 31  1  0  0  0  0
 26 29  2  0  0  0  0
 27 26  1  0  0  0  0
 28 30  1  0  0  0  0
 28 25  1  0  0  0  0
 29 28  1  0  0  0  0
 31 33  1  1  0  0  0
 32 36  1  0  0  0  0
 32 27  2  0  0  0  0
 33 30  2  0  0  0  0
 34 36  1  0  0  0  0
 35 31  1  0  0  0  0
 36 35  2  0  0  0  0
M  END
>  <MODEL>
7

>  <REMARK>
 VINA RESULT:      -8.6      2.608      6.908
  Name = 
  7 active torsions:
  status: ('A' for Active; 'I' for Inactive)
    1  A    between atoms: C_2  and  C_12
    2  A    between atoms: N_4  and  N_29
    3  A    between atoms: C_5  and  N_16
    4  A    between atoms: C_5  and  C_20
    5  A    between atoms: C_6  and  N_24
    6  A    between atoms: C_7  and  N_29
    7  A    between atoms: C_12  and  C_20
                            x       y       z     vdW  Elec       q    Type
                         _______ _______ _______ _____ _____    ______ ____

>  <TORSDO>
F 7

$$$$
=
 OpenBabel11032419283D

 36 39  0  0  1  0  0  0  0  0999 V2000
  186.5590  178.3250  146.3280 C   0  0  1  0  0  3  0  0  0  0  0  0
  189.3550  177.4150  145.2880 C   0  0  0  0  0  0  0  0  0  0  0  0
  189.1230  178.4710  148.7560 O   0  0  0  0  0  0  0  0  0  0  0  0
  187.1470  177.8590  147.6340 C   0  0  0  0  0  2  0  0  0  0  0  0
  186.7690  177.2080  145.3370 C   0  0  0  0  0  2  0  0  0  0  0  0
  188.6280  178.0520  147.6790 C   0  0  0  0  0  0  0  0  0  0  0  0
  189.5650  177.7200  146.5830 C   0  0  0  0  0  3  0  0  0  0  0  0
  188.0540  177.3560  144.6800 N   0  0  0  0  0  2  0  0  0  0  0  0
  184.8960  179.1980  144.1100 N   0  0  0  0  0  2  0  0  0  0  0  0
  184.3070  178.9250  145.3830 C   0  0  0  0  0  0  0  0  0  0  0  0
  185.1330  178.5630  146.4910 N   0  0  0  0  0  2  0  0  0  0  0  0
  183.0600  179.0050  145.5380 O   0  0  0  0  0  0  0  0  0  0  0  0
  184.1060  179.4280  142.9120 C   0  0  0  0  0  2  0  0  0  0  0  0
  185.6170  177.7310  142.2510 F   0  0  0  0  0  0  0  0  0  0  0  0
  183.4920  177.5810  141.5270 F   0  0  0  0  0  0  0  0  0  0  0  0
  184.5260  178.4590  141.8130 C   0  0  0  0  0  0  0  0  0  0  0  0
  184.9290  179.2270  140.5560 C   0  0  0  0  0  2  0  0  0  0  0  0
  184.0360  178.9420  139.3860 C   0  0  0  0  0  0  0  0  0  0  0  0
  182.1680  177.9890  137.5240 C   0  0  0  0  0  2  0  0  0  0  0  0
  182.9220  179.6710  139.2040 C   0  0  0  0  0  3  0  0  0  0  0  0
  181.9780  179.4040  138.0630 C   0  0  0  0  0  2  0  0  0  0  0  0
  183.5880  177.7550  137.2750 N   0  0  0  0  0  2  0  0  0  0  0  0
  184.2820  177.7010  138.5630 C   0  0  0  0  0  2  0  0  0  0  0  0
  191.6790  176.8180  145.0440 O   0  0  0  0  0  1  0  0  0  0  0  0
  190.5090  177.1780  144.4590 N   0  0  0  0  0  0  0  0  0  0  0  0
  189.1320  177.5650  141.0590 C   0  0  0  0  0  0  0  0  0  0  0  0
  187.9210  177.9960  140.3560 C   0  0  0  0  0  3  0  0  0  0  0  0
  190.4360  177.2330  143.0510 N   0  0  0  0  0  0  0  0  0  0  0  0
  189.2050  177.5840  142.3900 C   0  0  0  0  0  3  0  0  0  0  0  0
  191.6500  177.1860  142.2760 C   0  0  0  0  0  3  0  0  0  0  0  0
  190.2800  177.0250  140.2400 C   0  0  2  0  0  3  0  0  0  0  0  0
  187.9850  178.2440  139.0460 C   0  0  0  0  0  3  0  0  0  0  0  0
  191.6030  177.1370  140.9430 C   0  0  0  0  0  3  0  0  0  0  0  0
  189.3700  178.6360  136.9310 C   0  0  0  0  0  1  0  0  0  0  0  0
  190.3220  177.6210  138.9020 N   0  0  0  0  0  0  0  0  0  0  0  0
  189.2670  178.1160  138.3190 C   0  0  0  0  0  0  0  0  0  0  0  0
  1 11  1  1  0  0  0
  1  4  1  0  0  0  0
  2  7  2  0  0  0  0
  4  6  1  0  0  0  0
  5  1  1  0  0  0  0
  6  3  2  0  0  0  0
  7  6  1  0  0  0  0
  8  2  1  0  0  0  0
  8  5  1  0  0  0  0
  9 10  1  0  0  0  0
 10 12  2  0  0  0  0
 10 11  1  0  0  0  0
 13  9  1  0  0  0  0
 15 16  1  0  0  0  0
 16 14  1  0  0  0  0
 16 13  1  0  0  0  0
 17 16  1  0  0  0  0
 18 17  1  0  0  0  0
 19 21  1  0  0  0  0
 20 18  2  0  0  0  0
 21 20  1  0  0  0  0
 22 19  1  0  0  0  0
 22 23  1  0  0  0  0
 23 18  1  0  0  0  0
 25 24  1  0  0  0  0
 25  2  1  0  0  0  0
 26 29  2  0  0  0  0
 27 26  1  0  0  0  0
 28 25  1  0  0  0  0
 29 28  1  0  0  0  0
 30 28  1  0  0  0  0
 31 33  1  1  0  0  0
 31 26  1  0  0  0  0
 32 27  2  0  0  0  0
 33 30  2  0  0  0  0
 34 36  1  0  0  0  0
 35 31  1  0  0  0  0
 36 35  2  0  0  0  0
 36 32  1  0  0  0  0
M  END
>  <MODEL>
8

>  <REMARK>
 VINA RESULT:      -8.4      2.912      6.949
  Name = 
  7 active torsions:
  status: ('A' for Active; 'I' for Inactive)
    1  A    between atoms: C_2  and  C_12
    2  A    between atoms: N_4  and  N_29
    3  A    between atoms: C_5  and  N_16
    4  A    between atoms: C_5  and  C_20
    5  A    between atoms: C_6  and  N_24
    6  A    between atoms: C_7  and  N_29
    7  A    between atoms: C_12  and  C_20
                            x       y       z     vdW  Elec       q    Type
                         _______ _______ _______ _____ _____    ______ ____

>  <TORSDO>
F 7

$$$$
=
 OpenBabel11032419283D

 36 39  0  0  1  0  0  0  0  0999 V2000
  183.8520  178.1240  140.9020 C   0  0  1  0  0  3  0  0  0  0  0  0
  185.7030  178.2130  138.3940 C   0  0  0  0  0  0  0  0  0  0  0  0
  182.8590  175.9570  138.2930 O   0  0  0  0  0  0  0  0  0  0  0  0
  182.8450  177.7110  139.8610 C   0  0  0  0  0  2  0  0  0  0  0  0
  184.5170  179.3750  140.3870 C   0  0  0  0  0  2  0  0  0  0  0  0
  183.4800  176.9540  138.7400 C   0  0  0  0  0  0  0  0  0  0  0  0
  184.7440  177.3280  138.0670 C   0  0  0  0  0  3  0  0  0  0  0  0
  185.6690  179.0330  139.5740 N   0  0  0  0  0  2  0  0  0  0  0  0
  185.3060  178.3950  143.4040 N   0  0  0  0  0  2  0  0  0  0  0  0
  183.8950  178.6200  143.3670 C   0  0  0  0  0  0  0  0  0  0  0  0
  183.1700  178.4200  142.1520 N   0  0  0  0  0  2  0  0  0  0  0  0
  183.2820  178.9920  144.4020 O   0  0  0  0  0  0  0  0  0  0  0  0
  186.1230  178.7190  144.5620 C   0  0  0  0  0  2  0  0  0  0  0  0
  186.1420  176.8740  146.0430 F   0  0  0  0  0  0  0  0  0  0  0  0
  187.0240  176.5820  143.9940 F   0  0  0  0  0  0  0  0  0  0  0  0
  186.8720  177.4810  145.0380 C   0  0  0  0  0  0  0  0  0  0  0  0
  188.2370  177.8720  145.6000 C   0  0  0  0  0  2  0  0  0  0  0  0
  189.3690  177.5260  144.6790 C   0  0  0  0  0  0  0  0  0  0  0  0
  191.6780  177.3960  143.0920 C   0  0  0  0  0  2  0  0  0  0  0  0
  190.3760  176.7530  145.1190 C   0  0  0  0  0  3  0  0  0  0  0  0
  191.5480  176.4030  144.2440 C   0  0  0  0  0  2  0  0  0  0  0  0
  190.3820  177.5410  142.4340 N   0  0  0  0  0  2  0  0  0  0  0  0
  189.4720  178.2330  143.3490 C   0  0  0  0  0  2  0  0  0  0  0  0
  186.8230  179.1830  136.4890 O   0  0  0  0  0  1  0  0  0  0  0  0
  186.8510  178.3100  137.5270 N   0  0  0  0  0  0  0  0  0  0  0  0
  189.3770  175.6260  137.3770 C   0  0  0  0  0  0  0  0  0  0  0  0
  189.7120  174.4080  136.6330 C   0  0  0  0  0  3  0  0  0  0  0  0
  188.0320  177.5780  137.7750 N   0  0  0  0  0  0  0  0  0  0  0  0
  188.2910  176.3410  137.0830 C   0  0  0  0  0  3  0  0  0  0  0  0
  189.0970  178.1860  138.5300 C   0  0  0  0  0  3  0  0  0  0  0  0
  190.2560  176.0170  138.5400 C   0  0  2  0  0  3  0  0  0  0  0  0
  190.9370  173.8930  136.7510 C   0  0  0  0  0  3  0  0  0  0  0  0
  190.1820  177.4830  138.8620 C   0  0  0  0  0  3  0  0  0  0  0  0
  193.3700  174.1150  137.5120 C   0  0  0  0  0  1  0  0  0  0  0  0
  191.6390  175.5700  138.3530 N   0  0  0  0  0  0  0  0  0  0  0  0
  191.9540  174.5580  137.5950 C   0  0  0  0  0  0  0  0  0  0  0  0
  1 11  1  1  0  0  0
  2  8  1  0  0  0  0
  3  6  2  0  0  0  0
  4  1  1  0  0  0  0
  5  1  1  0  0  0  0
  6  4  1  0  0  0  0
  7  2  2  0  0  0  0
  7  6  1  0  0  0  0
  8  5  1  0  0  0  0
  9 13  1  0  0  0  0
 10  9  1  0  0  0  0
 10 12  2  0  0  0  0
 11 10  1  0  0  0  0
 13 16  1  0  0  0  0
 15 16  1  0  0  0  0
 16 17  1  0  0  0  0
 16 14  1  0  0  0  0
 18 20  2  0  0  0  0
 18 17  1  0  0  0  0
 19 21  1  0  0  0  0
 21 20  1  0  0  0  0
 22 19  1  0  0  0  0
 22 23  1  0  0  0  0
 23 18  1  0  0  0  0
 24 25  1  0  0  0  0
 25 28  1  0  0  0  0
 25  2  1  0  0  0  0
 26 31  1  0  0  0  0
 27 32  2  0  0  0  0
 27 26  1  0  0  0  0
 28 30  1  0  0  0  0
 29 26  2  0  0  0  0
 29 28  1  0  0  0  0
 30 33  2  0  0  0  0
 31 33  1  6  0  0  0
 32 36  1  0  0  0  0
 34 36  1  0  0  0  0
 35 31  1  0  0  0  0
 36 35  2  0  0  0  0
M  END
>  <MODEL>
9

>  <REMARK>
 VINA RESULT:      -8.4      2.564      7.024
  Name = 
  7 active torsions:
  status: ('A' for Active; 'I' for Inactive)
    1  A    between atoms: C_2  and  C_12
    2  A    between atoms: N_4  and  N_29
    3  A    between atoms: C_5  and  N_16
    4  A    between atoms: C_5  and  C_20
    5  A    between atoms: C_6  and  N_24
    6  A    between atoms: C_7  and  N_29
    7  A    between atoms: C_12  and  C_20
                            x       y       z     vdW  Elec       q    Type
                         _______ _______ _______ _____ _____    ______ ____

>  <TORSDO>
F 7

$$$$
