=
 OpenBabel11032421203D

 43 46  0  0  1  0  0  0  0  0999 V2000
  186.8850  175.9630  136.6920 C   0  0  2  0  0  3  0  0  0  0  0  0
  189.2090  175.5500  136.4260 N   0  0  0  0  0  0  0  0  0  0  0  0
  185.8750  173.6930  137.4580 C   0  0  0  0  0  2  0  0  0  0  0  0
  183.1250  174.7770  137.0640 C   0  0  0  0  0  2  0  0  0  0  0  0
  183.2140  172.5660  136.9620 C   0  0  0  0  0  2  0  0  0  0  0  0
  183.8890  177.7360  137.8640 C   0  0  1  0  0  3  0  0  0  0  0  0
  184.4650  171.9100  136.3760 C   0  0  0  0  0  2  0  0  0  0  0  0
  188.6580  177.6320  137.6160 C   0  0  2  0  0  3  0  0  0  0  0  0
  188.0420  175.1030  136.5070 N   0  0  0  0  0  0  0  0  0  0  0  0
  187.2410  177.1370  137.5740 C   0  0  0  0  0  0  0  0  0  0  0  0
  182.8800  177.3070  135.6570 O   0  0  0  0  0  1  0  0  0  0  0  0
  189.2340  177.7650  134.9550 Cl  0  0  0  0  0  0  0  0  0  0  0  0
  189.5090  176.9670  136.5250 C   0  0  2  0  0  3  0  0  0  0  0  0
  185.6490  175.2010  137.2470 C   0  0  2  0  0  3  0  0  0  0  0  0
  183.9970  177.0710  136.4650 C   0  0  2  0  0  3  0  0  0  0  0  0
  184.3190  175.5630  136.5200 C   0  0  2  0  0  3  0  0  0  0  0  0
  185.1350  178.5110  138.1700 C   0  0  0  0  0  3  0  0  0  0  0  0
  185.6210  172.8920  136.1880 C   0  0  0  0  0  2  0  0  0  0  0  0
  182.8540  173.6930  136.2220 O   0  0  0  0  0  0  0  0  0  0  0  0
  186.2670  177.9150  137.9380 C   0  0  0  0  0  0  0  0  0  0  0  0
  189.2600  177.4450  138.9770 C   0  0  0  0  0  0  0  0  0  0  0  0
  191.1160  176.8330  140.4150 C   0  0  0  0  0  3  0  0  0  0  0  0
  189.0140  177.5340  141.3870 C   0  0  0  0  0  3  0  0  0  0  0  0
  190.3330  177.0980  141.5480 C   0  0  0  0  0  0  0  0  0  0  0  0
  188.4790  177.7060  140.1080 C   0  0  0  0  0  3  0  0  0  0  0  0
  190.5820  177.0050  139.1360 C   0  0  0  0  0  3  0  0  0  0  0  0
  190.0040  176.9050  143.9920 C   0  0  0  0  0  1  0  0  0  0  0  0
  190.8370  176.9390  142.8410 O   0  0  0  0  0  0  0  0  0  0  0  0
  182.6720  178.6370  138.0540 C   0  0  0  0  0  2  0  0  0  0  0  0
  181.6650  178.0150  139.0100 C   0  0  0  0  0  2  0  0  0  0  0  0
  182.3530  177.5290  140.2730 C   0  0  0  0  0  2  0  0  0  0  0  0
  182.2400  178.5930  141.3450 C   0  0  0  0  0  2  0  0  0  0  0  0
  183.5680  178.7640  142.0680 C   0  0  2  0  0  3  0  0  0  0  0  0
  184.5320  178.0170  141.3910 O   0  0  0  0  0  1  0  0  0  0  0  0
  182.1580  178.5030  144.0000 O   0  0  0  0  0  1  0  0  0  0  0  0
  183.4630  178.3040  143.5340 C   0  0  2  0  0  3  0  0  0  0  0  0
  184.4660  179.0070  144.4720 C   0  0  0  0  0  0  0  0  0  0  0  0
  183.8300  179.3210  145.6780 O   0  0  0  0  0  1  0  0  0  0  0  0
  184.9270  180.1890  143.8870 O   0  0  0  0  0  1  0  0  0  0  0  0
  185.6540  178.1060  144.7370 C   0  0  0  0  0  0  0  0  0  0  0  0
  186.3610  177.7150  143.7710 O   0  0  0  0  0  0  0  0  0  0  0  0
  187.3190  177.8490  146.5610 C   0  0  0  0  0  1  0  0  0  0  0  0
  186.0110  177.6980  146.0290 O   0  0  0  0  0  0  0  0  0  0  0  0
  1  9  1  1  0  0  0
  1 14  1  0  0  0  0
  1 10  1  0  0  0  0
  2  9  2  0  0  0  0
  2 13  1  0  0  0  0
  6 29  1  6  0  0  0
  6 17  1  0  0  0  0
  7  5  1  0  0  0  0
  8 21  1  1  0  0  0
 10  8  1  0  0  0  0
 10 20  2  0  0  0  0
 13 12  1  6  0  0  0
 13  8  1  0  0  0  0
 14  3  1  6  0  0  0
 15 11  1  1  0  0  0
 15 16  1  0  0  0  0
 15  6  1  0  0  0  0
 16  4  1  1  0  0  0
 16 14  1  0  0  0  0
 18  7  1  0  0  0  0
 18  3  1  0  0  0  0
 19  5  1  0  0  0  0
 19  4  1  0  0  0  0
 20 17  2  0  0  0  0
 21 26  2  0  0  0  0
 21 25  1  0  0  0  0
 22 24  2  0  0  0  0
 23 24  1  0  0  0  0
 24 28  1  0  0  0  0
 25 23  2  0  0  0  0
 26 22  1  0  0  0  0
 28 27  1  0  0  0  0
 29 30  1  0  0  0  0
 30 31  1  0  0  0  0
 31 32  1  0  0  0  0
 32 33  1  0  0  0  0
 33 34  1  6  0  0  0
 33 36  1  0  0  0  0
 36 35  1  1  0  0  0
 36 37  1  0  0  0  0
 37 40  1  0  0  0  0
 37 38  1  0  0  0  0
 39 37  1  0  0  0  0
 40 43  1  0  0  0  0
 41 40  2  0  0  0  0
 43 42  1  0  0  0  0
M  END
>  <MODEL>
1

>  <REMARK>
 VINA RESULT:      -7.2      0.000      0.000
  Name = 
  11 active torsions:
  status: ('A' for Active; 'I' for Inactive)
    1  A    between atoms: C_1  and  C_25
    2  A    between atoms: C_1  and  C_39
    3  A    between atoms: C_2  and  C_16
    4  A    between atoms: C_2  and  O_18
    5  A    between atoms: C_4  and  C_14
    6  A    between atoms: C_11  and  C_30
    7  A    between atoms: C_16  and  C_39
    8  A    between atoms: C_22  and  O_32
    9  A    between atoms: C_25  and  C_27
   10  A    between atoms: C_27  and  C_41
   11  A    between atoms: C_30  and  C_41
                            x       y       z     vdW  Elec       q    Type
                         _______ _______ _______ _____ _____    ______ ____

>  <TORSDO>
F 11

$$$$
=
 OpenBabel11032421203D

 43 46  0  0  1  0  0  0  0  0999 V2000
  183.7000  177.8510  140.1690 C   0  0  2  0  0  3  0  0  0  0  0  0
  182.0980  177.3960  138.4760 N   0  0  0  0  0  0  0  0  0  0  0  0
  185.7330  178.8840  138.9190 C   0  0  0  0  0  2  0  0  0  0  0  0
  187.3740  178.6720  141.4000 C   0  0  0  0  0  2  0  0  0  0  0  0
  188.5920  178.7330  139.5520 C   0  0  0  0  0  2  0  0  0  0  0  0
  184.9490  179.1640  143.3640 C   0  0  1  0  0  3  0  0  0  0  0  0
  188.0350  178.0820  138.2850 C   0  0  0  0  0  2  0  0  0  0  0  0
  181.1920  178.4690  140.4970 C   0  0  2  0  0  3  0  0  0  0  0  0
  183.2870  177.6230  138.7930 N   0  0  0  0  0  0  0  0  0  0  0  0
  182.6260  178.6010  140.9200 C   0  0  0  0  0  0  0  0  0  0  0  0
  186.2820  177.1040  143.5890 O   0  0  0  0  0  1  0  0  0  0  0  0
  180.9770  175.7620  140.2510 Cl  0  0  0  0  0  0  0  0  0  0  0  0
  181.0250  177.3560  139.4530 C   0  0  2  0  0  3  0  0  0  0  0  0
  185.0700  178.5790  140.2740 C   0  0  2  0  0  3  0  0  0  0  0  0
  185.4180  177.8170  142.7510 C   0  0  2  0  0  3  0  0  0  0  0  0
  186.0230  177.9570  141.3390 C   0  0  2  0  0  3  0  0  0  0  0  0
  183.4570  179.2890  143.2690 C   0  0  0  0  0  3  0  0  0  0  0  0
  186.5570  177.7090  138.4080 C   0  0  0  0  0  2  0  0  0  0  0  0
  188.3230  177.9460  140.6720 O   0  0  0  0  0  0  0  0  0  0  0  0
  182.9180  178.9950  142.1230 C   0  0  0  0  0  0  0  0  0  0  0  0
  180.6470  179.7760  140.0030 C   0  0  0  0  0  0  0  0  0  0  0  0
  178.9310  181.4920  139.9800 C   0  0  0  0  0  3  0  0  0  0  0  0
  180.8910  181.7230  138.5790 C   0  0  0  0  0  3  0  0  0  0  0  0
  179.6680  182.2230  139.0360 C   0  0  0  0  0  0  0  0  0  0  0  0
  181.3790  180.5040  139.0590 C   0  0  0  0  0  3  0  0  0  0  0  0
  179.4180  180.2740  140.4600 C   0  0  0  0  0  3  0  0  0  0  0  0
  179.9210  184.1890  137.5570 C   0  0  0  0  0  1  0  0  0  0  0  0
  179.2110  183.4450  138.5370 O   0  0  0  0  0  0  0  0  0  0  0  0
  185.3860  179.3990  144.8070 C   0  0  0  0  0  2  0  0  0  0  0  0
  184.4600  178.6970  145.7880 C   0  0  0  0  0  2  0  0  0  0  0  0
  185.2550  178.0480  146.9070 C   0  0  0  0  0  2  0  0  0  0  0  0
  186.5580  178.7980  147.0950 C   0  0  0  0  0  2  0  0  0  0  0  0
  187.6790  177.8350  147.4570 C   0  0  2  0  0  3  0  0  0  0  0  0
  187.9590  177.9820  148.8160 O   0  0  0  0  0  1  0  0  0  0  0  0
  188.6250  178.0310  145.2540 O   0  0  0  0  0  1  0  0  0  0  0  0
  188.9380  178.1110  146.6160 C   0  0  2  0  0  3  0  0  0  0  0  0
  190.1130  177.1630  146.9370 C   0  0  0  0  0  0  0  0  0  0  0  0
  189.6160  175.8820  147.2010 O   0  0  0  0  0  1  0  0  0  0  0  0
  190.8040  177.6160  148.0640 O   0  0  0  0  0  1  0  0  0  0  0  0
  191.0770  177.1110  145.7710 C   0  0  0  0  0  0  0  0  0  0  0  0
  191.2980  176.0090  145.2010 O   0  0  0  0  0  0  0  0  0  0  0  0
  191.6770  178.6610  143.9270 C   0  0  0  0  0  1  0  0  0  0  0  0
  191.7290  178.2510  145.2860 O   0  0  0  0  0  0  0  0  0  0  0  0
  1  9  1  6  0  0  0
  1 14  1  0  0  0  0
  1 10  1  0  0  0  0
  2  9  2  0  0  0  0
  2 13  1  0  0  0  0
  5 19  1  0  0  0  0
  6 29  1  1  0  0  0
  7 18  1  0  0  0  0
  7  5  1  0  0  0  0
  8 21  1  6  0  0  0
  8 10  1  0  0  0  0
 10 20  2  0  0  0  0
 13 12  1  1  0  0  0
 13  8  1  0  0  0  0
 14  3  1  6  0  0  0
 14 16  1  0  0  0  0
 15  6  1  0  0  0  0
 15 11  1  1  0  0  0
 16  4  1  1  0  0  0
 16 15  1  0  0  0  0
 17  6  1  0  0  0  0
 18  3  1  0  0  0  0
 19  4  1  0  0  0  0
 20 17  2  0  0  0  0
 21 26  1  0  0  0  0
 22 26  2  0  0  0  0
 23 24  2  0  0  0  0
 23 25  1  0  0  0  0
 24 22  1  0  0  0  0
 25 21  2  0  0  0  0
 27 28  1  0  0  0  0
 28 24  1  0  0  0  0
 29 30  1  0  0  0  0
 30 31  1  0  0  0  0
 31 32  1  0  0  0  0
 32 33  1  0  0  0  0
 33 34  1  1  0  0  0
 36 35  1  6  0  0  0
 36 37  1  0  0  0  0
 36 33  1  0  0  0  0
 37 38  1  0  0  0  0
 37 39  1  0  0  0  0
 40 37  1  0  0  0  0
 41 40  2  0  0  0  0
 42 43  1  0  0  0  0
 43 40  1  0  0  0  0
M  END
>  <MODEL>
2

>  <REMARK>
 VINA RESULT:      -6.6      3.791      7.956
  Name = 
  11 active torsions:
  status: ('A' for Active; 'I' for Inactive)
    1  A    between atoms: C_1  and  C_25
    2  A    between atoms: C_1  and  C_39
    3  A    between atoms: C_2  and  C_16
    4  A    between atoms: C_2  and  O_18
    5  A    between atoms: C_4  and  C_14
    6  A    between atoms: C_11  and  C_30
    7  A    between atoms: C_16  and  C_39
    8  A    between atoms: C_22  and  O_32
    9  A    between atoms: C_25  and  C_27
   10  A    between atoms: C_27  and  C_41
   11  A    between atoms: C_30  and  C_41
                            x       y       z     vdW  Elec       q    Type
                         _______ _______ _______ _____ _____    ______ ____

>  <TORSDO>
F 11

$$$$
=
 OpenBabel11032421203D

 43 46  0  0  1  0  0  0  0  0999 V2000
  185.2260  177.3410  136.8740 C   0  0  2  0  0  3  0  0  0  0  0  0
  186.1490  176.8200  134.7480 N   0  0  0  0  0  0  0  0  0  0  0  0
  183.6540  175.3480  137.4390 C   0  0  0  0  0  2  0  0  0  0  0  0
  182.5490  176.8680  139.7540 C   0  0  0  0  0  2  0  0  0  0  0  0
  181.1720  175.3060  138.9980 C   0  0  0  0  0  2  0  0  0  0  0  0
  185.2530  178.3680  140.4010 C   0  0  1  0  0  3  0  0  0  0  0  0
  181.1610  175.0020  137.4990 C   0  0  0  0  0  2  0  0  0  0  0  0
  187.7700  177.6460  136.4060 C   0  0  2  0  0  3  0  0  0  0  0  0
  185.2510  176.6380  135.6020 N   0  0  0  0  0  0  0  0  0  0  0  0
  186.6330  177.5530  137.3820 C   0  0  0  0  0  0  0  0  0  0  0  0
  183.2230  179.6870  139.9400 O   0  0  0  0  0  1  0  0  0  0  0  0
  186.7470  179.4070  134.5940 Cl  0  0  0  0  0  0  0  0  0  0  0  0
  187.2530  177.7380  134.9630 C   0  0  2  0  0  3  0  0  0  0  0  0
  184.3480  176.6270  137.9400 C   0  0  2  0  0  3  0  0  0  0  0  0
  184.1470  178.7900  139.3950 C   0  0  2  0  0  3  0  0  0  0  0  0
  183.4240  177.5990  138.7340 C   0  0  2  0  0  3  0  0  0  0  0  0
  186.6090  178.5200  139.7790 C   0  0  0  0  0  3  0  0  0  0  0  0
  182.3280  175.6480  136.7520 C   0  0  0  0  0  2  0  0  0  0  0  0
  181.2680  176.6800  139.2240 O   0  0  0  0  0  0  0  0  0  0  0  0
  186.7570  178.0460  138.5780 C   0  0  0  0  0  0  0  0  0  0  0  0
  188.7290  176.5060  136.5780 C   0  0  0  0  0  0  0  0  0  0  0  0
  189.1960  174.1750  137.0610 C   0  0  0  0  0  3  0  0  0  0  0  0
  191.0150  175.6980  136.5810 C   0  0  0  0  0  3  0  0  0  0  0  0
  190.5700  174.4100  136.9010 C   0  0  0  0  0  0  0  0  0  0  0  0
  190.1000  176.7410  136.4210 C   0  0  0  0  0  3  0  0  0  0  0  0
  188.2810  175.2170  136.9020 C   0  0  0  0  0  3  0  0  0  0  0  0
  192.7990  173.4370  136.4500 C   0  0  0  0  0  1  0  0  0  0  0  0
  191.5110  173.3900  137.0510 O   0  0  0  0  0  0  0  0  0  0  0  0
  185.2210  179.1070  141.7350 C   0  0  0  0  0  2  0  0  0  0  0  0
  184.9920  178.1490  142.8950 C   0  0  0  0  0  2  0  0  0  0  0  0
  186.2030  178.1140  143.8100 C   0  0  0  0  0  2  0  0  0  0  0  0
  187.2070  177.1140  143.2730 C   0  0  0  0  0  2  0  0  0  0  0  0
  188.4580  177.0970  144.1390 C   0  0  2  0  0  3  0  0  0  0  0  0
  188.1810  177.7890  145.3190 O   0  0  0  0  0  1  0  0  0  0  0  0
  189.2940  178.0150  142.0780 O   0  0  0  0  0  1  0  0  0  0  0  0
  189.6480  177.7420  143.4050 C   0  0  2  0  0  3  0  0  0  0  0  0
  190.9290  176.8830  143.4380 C   0  0  0  0  0  0  0  0  0  0  0  0
  191.8240  177.3490  142.4690 O   0  0  0  0  0  1  0  0  0  0  0  0
  190.6220  175.5480  143.1600 O   0  0  0  0  0  1  0  0  0  0  0  0
  191.5720  176.9530  144.8070 C   0  0  0  0  0  0  0  0  0  0  0  0
  191.8440  178.0780  145.3050 O   0  0  0  0  0  0  0  0  0  0  0  0
  192.1150  175.8320  146.9540 C   0  0  0  0  0  1  0  0  0  0  0  0
  191.8650  175.8070  145.5560 O   0  0  0  0  0  0  0  0  0  0  0  0
  1  9  1  6  0  0  0
  1 10  1  0  0  0  0
  1 14  1  0  0  0  0
  2 13  1  0  0  0  0
  2  9  2  0  0  0  0
  5 19  1  0  0  0  0
  6 29  1  1  0  0  0
  7  5  1  0  0  0  0
  8 21  1  6  0  0  0
  8 10  1  0  0  0  0
 10 20  2  0  0  0  0
 13 12  1  1  0  0  0
 13  8  1  0  0  0  0
 14  3  1  6  0  0  0
 14 16  1  0  0  0  0
 15 11  1  1  0  0  0
 15  6  1  0  0  0  0
 16 15  1  0  0  0  0
 16  4  1  1  0  0  0
 17  6  1  0  0  0  0
 18  3  1  0  0  0  0
 18  7  1  0  0  0  0
 19  4  1  0  0  0  0
 20 17  2  0  0  0  0
 21 26  1  0  0  0  0
 23 24  2  0  0  0  0
 24 28  1  0  0  0  0
 24 22  1  0  0  0  0
 25 21  2  0  0  0  0
 25 23  1  0  0  0  0
 26 22  2  0  0  0  0
 27 28  1  0  0  0  0
 29 30  1  0  0  0  0
 30 31  1  0  0  0  0
 32 31  1  0  0  0  0
 32 33  1  0  0  0  0
 33 34  1  1  0  0  0
 36 35  1  6  0  0  0
 36 37  1  0  0  0  0
 36 33  1  0  0  0  0
 37 40  1  0  0  0  0
 38 37  1  0  0  0  0
 39 37  1  0  0  0  0
 40 41  2  0  0  0  0
 40 43  1  0  0  0  0
 43 42  1  0  0  0  0
M  END
>  <MODEL>
3

>  <REMARK>
 VINA RESULT:      -6.5      2.514      4.880
  Name = 
  11 active torsions:
  status: ('A' for Active; 'I' for Inactive)
    1  A    between atoms: C_1  and  C_25
    2  A    between atoms: C_1  and  C_39
    3  A    between atoms: C_2  and  C_16
    4  A    between atoms: C_2  and  O_18
    5  A    between atoms: C_4  and  C_14
    6  A    between atoms: C_11  and  C_30
    7  A    between atoms: C_16  and  C_39
    8  A    between atoms: C_22  and  O_32
    9  A    between atoms: C_25  and  C_27
   10  A    between atoms: C_27  and  C_41
   11  A    between atoms: C_30  and  C_41
                            x       y       z     vdW  Elec       q    Type
                         _______ _______ _______ _____ _____    ______ ____

>  <TORSDO>
F 11

$$$$
=
 OpenBabel11032421203D

 43 46  0  0  1  0  0  0  0  0999 V2000
  186.9420  175.6990  136.6710 C   0  0  2  0  0  3  0  0  0  0  0  0
  189.3000  175.4660  136.8500 N   0  0  0  0  0  0  0  0  0  0  0  0
  185.9720  173.4270  137.4810 C   0  0  0  0  0  2  0  0  0  0  0  0
  183.2680  174.2290  136.5140 C   0  0  0  0  0  2  0  0  0  0  0  0
  183.5280  172.0350  136.6540 C   0  0  0  0  0  2  0  0  0  0  0  0
  183.6690  177.3020  137.1290 C   0  0  1  0  0  3  0  0  0  0  0  0
  184.9060  171.4400  136.3610 C   0  0  0  0  0  2  0  0  0  0  0  0
  188.4020  177.5900  137.7100 C   0  0  2  0  0  3  0  0  0  0  0  0
  188.1710  174.9290  136.7760 N   0  0  0  0  0  0  0  0  0  0  0  0
  187.0530  176.9720  137.4770 C   0  0  0  0  0  0  0  0  0  0  0  0
  183.1020  176.5960  134.8370 O   0  0  0  0  0  1  0  0  0  0  0  0
  189.4320  177.5380  135.1870 Cl  0  0  0  0  0  0  0  0  0  0  0  0
  189.4770  176.9070  136.8540 C   0  0  2  0  0  3  0  0  0  0  0  0
  185.6830  174.8850  137.0810 C   0  0  2  0  0  3  0  0  0  0  0  0
  184.0710  176.5290  135.8430 C   0  0  2  0  0  3  0  0  0  0  0  0
  184.4820  175.0650  136.1050 C   0  0  2  0  0  3  0  0  0  0  0  0
  184.7840  178.2070  137.5630 C   0  0  0  0  0  3  0  0  0  0  0  0
  186.0050  172.4980  136.2740 C   0  0  0  0  0  2  0  0  0  0  0  0
  183.2270  173.0570  135.7530 O   0  0  0  0  0  0  0  0  0  0  0  0
  185.9770  177.6920  137.5880 C   0  0  0  0  0  0  0  0  0  0  0  0
  188.7630  177.5760  139.1660 C   0  0  0  0  0  0  0  0  0  0  0  0
  188.3030  178.1570  141.4760 C   0  0  0  0  0  3  0  0  0  0  0  0
  190.3130  176.9320  140.9150 C   0  0  0  0  0  3  0  0  0  0  0  0
  189.4930  177.5310  141.8770 C   0  0  0  0  0  0  0  0  0  0  0  0
  189.9510  176.9550  139.5650 C   0  0  0  0  0  3  0  0  0  0  0  0
  187.9410  178.1810  140.1280 C   0  0  0  0  0  3  0  0  0  0  0  0
  190.8890  178.3400  143.7520 C   0  0  0  0  0  1  0  0  0  0  0  0
  189.8840  177.4890  143.2170 O   0  0  0  0  0  0  0  0  0  0  0  0
  182.3780  178.1080  137.0150 C   0  0  0  0  0  2  0  0  0  0  0  0
  181.2500  177.4620  137.8050 C   0  0  0  0  0  2  0  0  0  0  0  0
  180.1020  178.4370  137.9950 C   0  0  0  0  0  2  0  0  0  0  0  0
  179.6350  178.3860  139.4360 C   0  0  0  0  0  2  0  0  0  0  0  0
  180.5740  177.5280  140.2710 C   0  0  2  0  0  3  0  0  0  0  0  0
  179.8150  176.5540  140.9190 O   0  0  0  0  0  1  0  0  0  0  0  0
  180.8640  179.6990  141.2650 O   0  0  0  0  0  1  0  0  0  0  0  0
  181.3410  178.3830  141.2960 C   0  0  2  0  0  3  0  0  0  0  0  0
  182.8690  178.3760  141.0820 C   0  0  0  0  0  0  0  0  0  0  0  0
  183.2180  179.4040  140.1990 O   0  0  0  0  0  1  0  0  0  0  0  0
  183.2740  177.1570  140.5340 O   0  0  0  0  0  1  0  0  0  0  0  0
  183.5830  178.5700  142.4030 C   0  0  0  0  0  0  0  0  0  0  0  0
  184.7700  178.1690  142.5290 O   0  0  0  0  0  0  0  0  0  0  0  0
  183.3300  178.9280  144.8470 C   0  0  0  0  0  1  0  0  0  0  0  0
  182.9750  179.1970  143.4980 O   0  0  0  0  0  0  0  0  0  0  0  0
  1  9  1  1  0  0  0
  1 14  1  0  0  0  0
  1 10  1  0  0  0  0
  2 13  1  0  0  0  0
  6 29  1  6  0  0  0
  6 17  1  0  0  0  0
  7  5  1  0  0  0  0
  8 21  1  1  0  0  0
  9  2  2  0  0  0  0
 10 20  2  0  0  0  0
 10  8  1  0  0  0  0
 13 12  1  6  0  0  0
 13  8  1  0  0  0  0
 14  3  1  6  0  0  0
 15 11  1  6  0  0  0
 15 16  1  0  0  0  0
 15  6  1  0  0  0  0
 16  4  1  1  0  0  0
 16 14  1  0  0  0  0
 17 20  2  0  0  0  0
 18  7  1  0  0  0  0
 18  3  1  0  0  0  0
 19  4  1  0  0  0  0
 19  5  1  0  0  0  0
 21 25  2  0  0  0  0
 21 26  1  0  0  0  0
 22 24  1  0  0  0  0
 23 24  2  0  0  0  0
 24 28  1  0  0  0  0
 25 23  1  0  0  0  0
 26 22  2  0  0  0  0
 28 27  1  0  0  0  0
 29 30  1  0  0  0  0
 30 31  1  0  0  0  0
 31 32  1  0  0  0  0
 32 33  1  0  0  0  0
 33 34  1  1  0  0  0
 33 36  1  0  0  0  0
 36 35  1  6  0  0  0
 37 36  1  0  0  0  0
 37 40  1  0  0  0  0
 38 37  1  0  0  0  0
 39 37  1  0  0  0  0
 40 41  2  0  0  0  0
 40 43  1  0  0  0  0
 43 42  1  0  0  0  0
M  END
>  <MODEL>
4

>  <REMARK>
 VINA RESULT:      -6.4      1.373      2.373
  Name = 
  11 active torsions:
  status: ('A' for Active; 'I' for Inactive)
    1  A    between atoms: C_1  and  C_25
    2  A    between atoms: C_1  and  C_39
    3  A    between atoms: C_2  and  C_16
    4  A    between atoms: C_2  and  O_18
    5  A    between atoms: C_4  and  C_14
    6  A    between atoms: C_11  and  C_30
    7  A    between atoms: C_16  and  C_39
    8  A    between atoms: C_22  and  O_32
    9  A    between atoms: C_25  and  C_27
   10  A    between atoms: C_27  and  C_41
   11  A    between atoms: C_30  and  C_41
                            x       y       z     vdW  Elec       q    Type
                         _______ _______ _______ _____ _____    ______ ____

>  <TORSDO>
F 11

$$$$
=
 OpenBabel11032421203D

 43 46  0  0  1  0  0  0  0  0999 V2000
  183.0610  177.6830  137.4980 C   0  0  2  0  0  3  0  0  0  0  0  0
  180.7210  177.5150  137.1230 N   0  0  0  0  0  0  0  0  0  0  0  0
  183.3550  177.4380  140.0700 C   0  0  0  0  0  2  0  0  0  0  0  0
  186.2140  178.2490  139.8260 C   0  0  0  0  0  2  0  0  0  0  0  0
  185.3740  178.6130  141.8430 C   0  0  0  0  0  2  0  0  0  0  0  0
  186.6200  176.9360  136.9820 C   0  0  1  0  0  3  0  0  0  0  0  0
  183.9010  179.0070  141.9620 C   0  0  0  0  0  2  0  0  0  0  0  0
  182.1140  176.2070  135.5720 C   0  0  2  0  0  3  0  0  0  0  0  0
  181.6680  177.7340  137.9130 N   0  0  0  0  0  0  0  0  0  0  0  0
  183.2580  176.6040  136.4600 C   0  0  0  0  0  0  0  0  0  0  0  0
  187.0760  179.3390  137.2750 O   0  0  0  0  0  1  0  0  0  0  0  0
  181.2160  178.6530  134.7710 Cl  0  0  0  0  0  0  0  0  0  0  0  0
  180.9340  177.1760  135.7270 C   0  0  2  0  0  3  0  0  0  0  0  0
  184.0390  177.4970  138.6920 C   0  0  2  0  0  3  0  0  0  0  0  0
  186.0820  178.3560  137.3060 C   0  0  2  0  0  3  0  0  0  0  0  0
  185.2850  178.4300  138.6250 C   0  0  2  0  0  3  0  0  0  0  0  0
  185.7690  176.2830  135.9340 C   0  0  0  0  0  3  0  0  0  0  0  0
  183.1280  178.8260  140.6560 C   0  0  0  0  0  2  0  0  0  0  0  0
  185.9740  179.2600  140.7620 O   0  0  0  0  0  0  0  0  0  0  0  0
  184.4810  176.3520  136.1000 C   0  0  0  0  0  0  0  0  0  0  0  0
  181.7000  174.7870  135.8190 C   0  0  0  0  0  0  0  0  0  0  0  0
  181.6500  172.7980  137.2070 C   0  0  0  0  0  3  0  0  0  0  0  0
  180.5730  172.7870  135.0400 C   0  0  0  0  0  3  0  0  0  0  0  0
  180.9110  172.1230  136.2240 C   0  0  0  0  0  0  0  0  0  0  0  0
  180.9670  174.1130  134.8370 C   0  0  0  0  0  3  0  0  0  0  0  0
  182.0430  174.1230  137.0050 C   0  0  0  0  0  3  0  0  0  0  0  0
  179.2850  170.2960  135.8560 C   0  0  0  0  0  1  0  0  0  0  0  0
  180.5000  170.8000  136.3950 O   0  0  0  0  0  0  0  0  0  0  0  0
  188.0820  176.8870  136.5490 C   0  0  0  0  0  2  0  0  0  0  0  0
  188.9470  176.1950  137.5920 C   0  0  0  0  0  2  0  0  0  0  0  0
  189.3670  177.1720  138.6750 C   0  0  0  0  0  2  0  0  0  0  0  0
  190.2070  176.4460  139.7060 C   0  0  0  0  0  2  0  0  0  0  0  0
  190.8360  177.4370  140.6750 C   0  0  2  0  0  3  0  0  0  0  0  0
  192.2060  177.4880  140.4170 O   0  0  0  0  0  1  0  0  0  0  0  0
  190.5490  175.6270  142.2330 O   0  0  0  0  0  1  0  0  0  0  0  0
  190.5780  177.0230  142.1340 C   0  0  2  0  0  3  0  0  0  0  0  0
  189.2800  177.6140  142.7210 C   0  0  0  0  0  0  0  0  0  0  0  0
  188.2230  176.7250  142.4980 O   0  0  0  0  0  1  0  0  0  0  0  0
  188.9800  178.8300  142.1020 O   0  0  0  0  0  1  0  0  0  0  0  0
  189.4400  177.8580  144.2070 C   0  0  0  0  0  0  0  0  0  0  0  0
  190.2190  178.7650  144.6040 O   0  0  0  0  0  0  0  0  0  0  0  0
  188.5940  177.5320  146.5180 C   0  0  0  0  0  1  0  0  0  0  0  0
  188.7390  177.1180  145.1680 O   0  0  0  0  0  0  0  0  0  0  0  0
  1 10  1  6  0  0  0
  1  9  1  0  0  0  0
  1 14  1  0  0  0  0
  2  9  2  0  0  0  0
  3 18  1  0  0  0  0
  4 19  1  0  0  0  0
  5  7  1  0  0  0  0
  6 29  1  6  0  0  0
  6 15  1  0  0  0  0
  8 13  1  0  0  0  0
  8 21  1  1  0  0  0
  8 10  1  0  0  0  0
 13 12  1  6  0  0  0
 13  2  1  0  0  0  0
 14  3  1  1  0  0  0
 15 11  1  1  0  0  0
 15 16  1  0  0  0  0
 16 14  1  0  0  0  0
 16  4  1  1  0  0  0
 17 20  2  0  0  0  0
 17  6  1  0  0  0  0
 18  7  1  0  0  0  0
 19  5  1  0  0  0  0
 20 10  2  0  0  0  0
 21 26  1  0  0  0  0
 23 24  2  0  0  0  0
 24 28  1  0  0  0  0
 24 22  1  0  0  0  0
 25 23  1  0  0  0  0
 25 21  2  0  0  0  0
 26 22  2  0  0  0  0
 27 28  1  0  0  0  0
 29 30  1  0  0  0  0
 30 31  1  0  0  0  0
 31 32  1  0  0  0  0
 32 33  1  0  0  0  0
 33 34  1  6  0  0  0
 33 36  1  0  0  0  0
 36 35  1  6  0  0  0
 36 37  1  0  0  0  0
 37 40  1  0  0  0  0
 38 37  1  0  0  0  0
 39 37  1  0  0  0  0
 40 41  2  0  0  0  0
 40 43  1  0  0  0  0
 43 42  1  0  0  0  0
M  END
>  <MODEL>
5

>  <REMARK>
 VINA RESULT:      -6.3      2.997      7.493
  Name = 
  11 active torsions:
  status: ('A' for Active; 'I' for Inactive)
    1  A    between atoms: C_1  and  C_25
    2  A    between atoms: C_1  and  C_39
    3  A    between atoms: C_2  and  C_16
    4  A    between atoms: C_2  and  O_18
    5  A    between atoms: C_4  and  C_14
    6  A    between atoms: C_11  and  C_30
    7  A    between atoms: C_16  and  C_39
    8  A    between atoms: C_22  and  O_32
    9  A    between atoms: C_25  and  C_27
   10  A    between atoms: C_27  and  C_41
   11  A    between atoms: C_30  and  C_41
                            x       y       z     vdW  Elec       q    Type
                         _______ _______ _______ _____ _____    ______ ____

>  <TORSDO>
F 11

$$$$
=
 OpenBabel11032421203D

 43 46  0  0  1  0  0  0  0  0999 V2000
  181.4490  178.3700  139.1290 C   0  0  2  0  0  3  0  0  0  0  0  0
  179.0830  178.1810  139.0210 N   0  0  0  0  0  0  0  0  0  0  0  0
  182.0780  177.6420  141.5450 C   0  0  0  0  0  2  0  0  0  0  0  0
  184.8680  178.6030  141.1140 C   0  0  0  0  0  2  0  0  0  0  0  0
  184.2900  178.5320  143.2510 C   0  0  0  0  0  2  0  0  0  0  0  0
  184.9230  177.8850  138.0380 C   0  0  1  0  0  3  0  0  0  0  0  0
  182.8390  178.8350  143.6280 C   0  0  0  0  0  2  0  0  0  0  0  0
  180.2850  177.2590  137.0810 C   0  0  2  0  0  3  0  0  0  0  0  0
  180.1210  178.2810  139.7140 N   0  0  0  0  0  0  0  0  0  0  0  0
  181.5280  177.5220  137.8810 C   0  0  0  0  0  0  0  0  0  0  0  0
  185.3740  180.2030  138.7430 O   0  0  0  0  0  1  0  0  0  0  0  0
  179.2510  179.7740  136.8970 Cl  0  0  0  0  0  0  0  0  0  0  0  0
  179.1190  178.1290  137.5700 C   0  0  2  0  0  3  0  0  0  0  0  0
  182.5760  177.9960  140.1320 C   0  0  2  0  0  3  0  0  0  0  0  0
  184.4090  179.1920  138.7010 C   0  0  2  0  0  3  0  0  0  0  0  0
  183.7880  178.9750  140.0970 C   0  0  2  0  0  3  0  0  0  0  0  0
  183.9540  177.4130  136.9950 C   0  0  0  0  0  3  0  0  0  0  0  0
  181.9060  178.8790  142.4170 C   0  0  0  0  0  2  0  0  0  0  0  0
  184.7340  179.4020  142.2540 O   0  0  0  0  0  0  0  0  0  0  0  0
  182.6980  177.3960  137.3300 C   0  0  0  0  0  0  0  0  0  0  0  0
  179.9300  175.8010  137.0910 C   0  0  0  0  0  0  0  0  0  0  0  0
  179.2910  173.7610  135.9430 C   0  0  0  0  0  3  0  0  0  0  0  0
  179.5590  173.7630  138.3480 C   0  0  0  0  0  3  0  0  0  0  0  0
  179.2580  173.0760  137.1680 C   0  0  0  0  0  0  0  0  0  0  0  0
  179.8920  175.1190  138.3110 C   0  0  0  0  0  3  0  0  0  0  0  0
  179.6240  175.1170  135.9050 C   0  0  0  0  0  3  0  0  0  0  0  0
  179.6150  170.7240  136.4930 C   0  0  0  0  0  1  0  0  0  0  0  0
  178.9310  171.7210  137.2400 O   0  0  0  0  0  0  0  0  0  0  0  0
  186.3170  177.9820  137.4260 C   0  0  0  0  0  2  0  0  0  0  0  0
  187.3510  177.2700  138.2860 C   0  0  0  0  0  2  0  0  0  0  0  0
  188.2950  178.2690  138.9300 C   0  0  0  0  0  2  0  0  0  0  0  0
  189.2560  177.5330  139.8420 C   0  0  0  0  0  2  0  0  0  0  0  0
  188.8310  177.6820  141.2950 C   0  0  2  0  0  3  0  0  0  0  0  0
  188.2750  178.9510  141.4590 O   0  0  0  0  0  1  0  0  0  0  0  0
  191.1320  177.0170  141.5250 O   0  0  0  0  0  1  0  0  0  0  0  0
  190.0290  177.4940  142.2430 C   0  0  2  0  0  3  0  0  0  0  0  0
  189.7320  176.5540  143.4300 C   0  0  0  0  0  0  0  0  0  0  0  0
  190.8150  175.6880  143.6170 O   0  0  0  0  0  1  0  0  0  0  0  0
  188.5900  175.7920  143.1680 O   0  0  0  0  0  1  0  0  0  0  0  0
  189.4950  177.3590  144.6900 C   0  0  0  0  0  0  0  0  0  0  0  0
  189.6580  178.6080  144.6650 O   0  0  0  0  0  0  0  0  0  0  0  0
  189.3240  177.3420  147.1660 C   0  0  0  0  0  1  0  0  0  0  0  0
  189.0830  176.7670  145.8900 O   0  0  0  0  0  0  0  0  0  0  0  0
  1 10  1  6  0  0  0
  1  9  1  0  0  0  0
  1 14  1  0  0  0  0
  2  9  2  0  0  0  0
  3 18  1  0  0  0  0
  4 19  1  0  0  0  0
  5  7  1  0  0  0  0
  6 29  1  6  0  0  0
  6 15  1  0  0  0  0
  8 21  1  1  0  0  0
  8 13  1  0  0  0  0
  8 10  1  0  0  0  0
 13 12  1  6  0  0  0
 13  2  1  0  0  0  0
 14  3  1  1  0  0  0
 15 11  1  1  0  0  0
 15 16  1  0  0  0  0
 16 14  1  0  0  0  0
 16  4  1  1  0  0  0
 17 20  2  0  0  0  0
 17  6  1  0  0  0  0
 18  7  1  0  0  0  0
 19  5  1  0  0  0  0
 20 10  2  0  0  0  0
 21 25  1  0  0  0  0
 22 24  2  0  0  0  0
 24 28  1  0  0  0  0
 24 23  1  0  0  0  0
 25 23  2  0  0  0  0
 26 22  1  0  0  0  0
 26 21  2  0  0  0  0
 27 28  1  0  0  0  0
 29 30  1  0  0  0  0
 30 31  1  0  0  0  0
 31 32  1  0  0  0  0
 32 33  1  0  0  0  0
 33 34  1  6  0  0  0
 33 36  1  0  0  0  0
 36 35  1  6  0  0  0
 36 37  1  0  0  0  0
 37 38  1  0  0  0  0
 37 40  1  0  0  0  0
 39 37  1  0  0  0  0
 40 43  1  0  0  0  0
 41 40  2  0  0  0  0
 43 42  1  0  0  0  0
M  END
>  <MODEL>
6

>  <REMARK>
 VINA RESULT:      -5.9      3.503      7.973
  Name = 
  11 active torsions:
  status: ('A' for Active; 'I' for Inactive)
    1  A    between atoms: C_1  and  C_25
    2  A    between atoms: C_1  and  C_39
    3  A    between atoms: C_2  and  C_16
    4  A    between atoms: C_2  and  O_18
    5  A    between atoms: C_4  and  C_14
    6  A    between atoms: C_11  and  C_30
    7  A    between atoms: C_16  and  C_39
    8  A    between atoms: C_22  and  O_32
    9  A    between atoms: C_25  and  C_27
   10  A    between atoms: C_27  and  C_41
   11  A    between atoms: C_30  and  C_41
                            x       y       z     vdW  Elec       q    Type
                         _______ _______ _______ _____ _____    ______ ____

>  <TORSDO>
F 11

$$$$
=
 OpenBabel11032421203D

 43 46  0  0  1  0  0  0  0  0999 V2000
  187.1070  175.8100  136.4170 C   0  0  2  0  0  3  0  0  0  0  0  0
  189.4420  175.5260  136.0870 N   0  0  0  0  0  0  0  0  0  0  0  0
  186.2510  173.4950  137.2360 C   0  0  0  0  0  2  0  0  0  0  0  0
  183.4330  174.4140  136.9100 C   0  0  0  0  0  2  0  0  0  0  0  0
  183.6460  172.2110  136.8280 C   0  0  0  0  0  2  0  0  0  0  0  0
  184.0480  177.4210  137.6580 C   0  0  1  0  0  3  0  0  0  0  0  0
  184.9160  171.6210  136.2130 C   0  0  0  0  0  2  0  0  0  0  0  0
  188.8060  177.5880  137.2720 C   0  0  2  0  0  3  0  0  0  0  0  0
  188.3050  175.0140  136.2080 N   0  0  0  0  0  0  0  0  0  0  0  0
  187.4200  177.0120  137.2760 C   0  0  0  0  0  0  0  0  0  0  0  0
  183.0020  176.9090  135.4860 O   0  0  0  0  0  1  0  0  0  0  0  0
  189.2970  177.7220  134.5940 Cl  0  0  0  0  0  0  0  0  0  0  0  0
  189.6620  176.9600  136.1630 C   0  0  2  0  0  3  0  0  0  0  0  0
  185.9320  174.9850  137.0150 C   0  0  2  0  0  3  0  0  0  0  0  0
  184.1540  176.7470  136.2630 C   0  0  2  0  0  3  0  0  0  0  0  0
  184.5630  175.2610  136.3240 C   0  0  2  0  0  3  0  0  0  0  0  0
  185.2560  178.2710  137.9200 C   0  0  0  0  0  3  0  0  0  0  0  0
  186.0070  172.6660  135.9810 C   0  0  0  0  0  2  0  0  0  0  0  0
  183.2010  173.3070  136.0880 O   0  0  0  0  0  0  0  0  0  0  0  0
  186.4120  177.7370  137.6600 C   0  0  0  0  0  0  0  0  0  0  0  0
  189.4560  177.4520  138.6160 C   0  0  0  0  0  0  0  0  0  0  0  0
  191.4000  177.0240  140.0040 C   0  0  0  0  0  3  0  0  0  0  0  0
  189.2600  177.4920  141.0320 C   0  0  0  0  0  3  0  0  0  0  0  0
  190.6210  177.1950  141.1580 C   0  0  0  0  0  0  0  0  0  0  0  0
  188.6790  177.6190  139.7670 C   0  0  0  0  0  3  0  0  0  0  0  0
  190.8200  177.1500  138.7400 C   0  0  0  0  0  3  0  0  0  0  0  0
  190.6770  176.1570  143.4030 C   0  0  0  0  0  1  0  0  0  0  0  0
  191.1690  177.0770  142.4370 O   0  0  0  0  0  0  0  0  0  0  0  0
  182.7870  178.2540  137.8740 C   0  0  0  0  0  2  0  0  0  0  0  0
  182.0300  177.8020  139.1130 C   0  0  0  0  0  2  0  0  0  0  0  0
  181.9330  178.9310  140.1240 C   0  0  0  0  0  2  0  0  0  0  0  0
  180.4750  179.2660  140.3620 C   0  0  0  0  0  2  0  0  0  0  0  0
  180.2330  180.7570  140.1780 C   0  0  2  0  0  3  0  0  0  0  0  0
  179.6320  181.2470  141.3370 O   0  0  0  0  0  1  0  0  0  0  0  0
  178.9430  179.8110  138.3810 O   0  0  0  0  0  1  0  0  0  0  0  0
  179.3390  181.0250  138.9540 C   0  0  2  0  0  3  0  0  0  0  0  0
  180.0110  181.9120  137.8850 C   0  0  0  0  0  0  0  0  0  0  0  0
  179.5330  181.5540  136.6200 O   0  0  0  0  0  1  0  0  0  0  0  0
  181.3960  181.7310  137.9080 O   0  0  0  0  0  1  0  0  0  0  0  0
  179.7120  183.3720  138.1530 C   0  0  0  0  0  0  0  0  0  0  0  0
  178.9310  183.6810  139.0910 O   0  0  0  0  0  0  0  0  0  0  0  0
  179.5640  185.5440  136.9590 C   0  0  0  0  0  1  0  0  0  0  0  0
  180.2870  184.4040  137.4010 O   0  0  0  0  0  0  0  0  0  0  0  0
  1  9  1  1  0  0  0
  1 14  1  0  0  0  0
  1 10  1  0  0  0  0
  2 13  1  0  0  0  0
  2  9  2  0  0  0  0
  6 29  1  6  0  0  0
  6 17  1  0  0  0  0
  7  5  1  0  0  0  0
  8 10  1  0  0  0  0
  8 21  1  1  0  0  0
 10 20  2  0  0  0  0
 13 12  1  6  0  0  0
 13  8  1  0  0  0  0
 14  3  1  6  0  0  0
 15 11  1  1  0  0  0
 15 16  1  0  0  0  0
 15  6  1  0  0  0  0
 16  4  1  1  0  0  0
 16 14  1  0  0  0  0
 18  7  1  0  0  0  0
 18  3  1  0  0  0  0
 19  5  1  0  0  0  0
 19  4  1  0  0  0  0
 20 17  2  0  0  0  0
 21 26  2  0  0  0  0
 21 25  1  0  0  0  0
 22 24  2  0  0  0  0
 23 24  1  0  0  0  0
 24 28  1  0  0  0  0
 25 23  2  0  0  0  0
 26 22  1  0  0  0  0
 28 27  1  0  0  0  0
 29 30  1  0  0  0  0
 30 31  1  0  0  0  0
 31 32  1  0  0  0  0
 33 32  1  0  0  0  0
 33 34  1  1  0  0  0
 36 35  1  6  0  0  0
 36 33  1  0  0  0  0
 37 39  1  0  0  0  0
 37 40  1  0  0  0  0
 37 36  1  0  0  0  0
 38 37  1  0  0  0  0
 40 41  2  0  0  0  0
 42 43  1  0  0  0  0
 43 40  1  0  0  0  0
M  END
>  <MODEL>
7

>  <REMARK>
 VINA RESULT:      -5.8      2.950      4.741
  Name = 
  11 active torsions:
  status: ('A' for Active; 'I' for Inactive)
    1  A    between atoms: C_1  and  C_25
    2  A    between atoms: C_1  and  C_39
    3  A    between atoms: C_2  and  C_16
    4  A    between atoms: C_2  and  O_18
    5  A    between atoms: C_4  and  C_14
    6  A    between atoms: C_11  and  C_30
    7  A    between atoms: C_16  and  C_39
    8  A    between atoms: C_22  and  O_32
    9  A    between atoms: C_25  and  C_27
   10  A    between atoms: C_27  and  C_41
   11  A    between atoms: C_30  and  C_41
                            x       y       z     vdW  Elec       q    Type
                         _______ _______ _______ _____ _____    ______ ____

>  <TORSDO>
F 11

$$$$
=
 OpenBabel11032421203D

 43 46  0  0  1  0  0  0  0  0999 V2000
  187.1720  176.4250  137.0980 C   0  0  2  0  0  3  0  0  0  0  0  0
  189.4910  176.5190  137.6040 N   0  0  0  0  0  0  0  0  0  0  0  0
  186.5570  173.9000  137.2020 C   0  0  0  0  0  2  0  0  0  0  0  0
  183.8890  174.4950  136.0100 C   0  0  0  0  0  2  0  0  0  0  0  0
  184.5390  172.4020  135.6910 C   0  0  0  0  0  2  0  0  0  0  0  0
  183.6240  177.3390  137.3600 C   0  0  1  0  0  3  0  0  0  0  0  0
  186.0300  172.1190  135.5020 C   0  0  0  0  0  2  0  0  0  0  0  0
  188.1090  178.1950  138.7630 C   0  0  2  0  0  3  0  0  0  0  0  0
  188.5020  175.8510  137.2260 N   0  0  0  0  0  0  0  0  0  0  0  0
  186.9410  177.4560  138.1780 C   0  0  0  0  0  0  0  0  0  0  0  0
  183.4860  177.1520  134.9070 O   0  0  0  0  0  1  0  0  0  0  0  0
  189.4330  178.9370  136.4980 Cl  0  0  0  0  0  0  0  0  0  0  0  0
  189.3910  177.9220  137.9630 C   0  0  2  0  0  3  0  0  0  0  0  0
  186.0490  175.3500  137.1000 C   0  0  2  0  0  3  0  0  0  0  0  0
  184.3190  176.9840  136.0170 C   0  0  2  0  0  3  0  0  0  0  0  0
  184.9640  175.5830  136.0060 C   0  0  2  0  0  3  0  0  0  0  0  0
  184.4860  178.2650  138.1650 C   0  0  0  0  0  3  0  0  0  0  0  0
  186.9120  173.3210  135.8390 C   0  0  0  0  0  2  0  0  0  0  0  0
  184.1640  173.5590  135.0080 O   0  0  0  0  0  0  0  0  0  0  0  0
  185.7430  177.9510  138.2690 C   0  0  0  0  0  0  0  0  0  0  0  0
  188.2860  177.8710  140.2170 C   0  0  0  0  0  0  0  0  0  0  0  0
  189.5430  176.8710  142.0350 C   0  0  0  0  0  3  0  0  0  0  0  0
  187.4400  177.9800  142.4860 C   0  0  0  0  0  3  0  0  0  0  0  0
  188.5590  177.2790  142.9480 C   0  0  0  0  0  0  0  0  0  0  0  0
  187.3030  178.2740  141.1270 C   0  0  0  0  0  3  0  0  0  0  0  0
  189.4060  177.1640  140.6760 C   0  0  0  0  0  3  0  0  0  0  0  0
  187.9550  177.7360  145.3020 C   0  0  0  0  0  1  0  0  0  0  0  0
  188.6660  177.0040  144.3130 O   0  0  0  0  0  0  0  0  0  0  0  0
  182.2280  177.9390  137.2200 C   0  0  0  0  0  2  0  0  0  0  0  0
  181.1820  176.8610  136.9800 C   0  0  0  0  0  2  0  0  0  0  0  0
  180.1470  176.8600  138.0900 C   0  0  0  0  0  2  0  0  0  0  0  0
  180.5180  177.9060  139.1220 C   0  0  0  0  0  2  0  0  0  0  0  0
  181.0510  177.2440  140.3840 C   0  0  2  0  0  3  0  0  0  0  0  0
  180.9950  175.8610  140.2080 O   0  0  0  0  0  1  0  0  0  0  0  0
  178.9320  178.0130  141.2250 O   0  0  0  0  0  1  0  0  0  0  0  0
  180.2300  177.6620  141.6170 C   0  0  2  0  0  3  0  0  0  0  0  0
  180.8650  178.8200  142.4150 C   0  0  0  0  0  0  0  0  0  0  0  0
  182.1850  179.0050  141.9910 O   0  0  0  0  0  1  0  0  0  0  0  0
  180.8700  178.5200  143.7790 O   0  0  0  0  0  1  0  0  0  0  0  0
  180.0750  180.0950  142.2060 C   0  0  0  0  0  0  0  0  0  0  0  0
  179.3090  180.5040  143.1180 O   0  0  0  0  0  0  0  0  0  0  0  0
  179.0510  181.4170  140.3710 C   0  0  0  0  0  1  0  0  0  0  0  0
  180.1740  180.8530  141.0330 O   0  0  0  0  0  0  0  0  0  0  0  0
  1 14  1  0  0  0  0
  1  9  1  1  0  0  0
  1 10  1  0  0  0  0
  2 13  1  0  0  0  0
  6 29  1  6  0  0  0
  6 17  1  0  0  0  0
  7  5  1  0  0  0  0
  7 18  1  0  0  0  0
  8 21  1  1  0  0  0
  9  2  2  0  0  0  0
 10 20  2  0  0  0  0
 10  8  1  0  0  0  0
 13 12  1  6  0  0  0
 13  8  1  0  0  0  0
 14  3  1  6  0  0  0
 15 11  1  6  0  0  0
 15  6  1  0  0  0  0
 16  4  1  1  0  0  0
 16 15  1  0  0  0  0
 16 14  1  0  0  0  0
 17 20  2  0  0  0  0
 18  3  1  0  0  0  0
 19  5  1  0  0  0  0
 19  4  1  0  0  0  0
 21 26  2  0  0  0  0
 21 25  1  0  0  0  0
 22 24  2  0  0  0  0
 23 24  1  0  0  0  0
 24 28  1  0  0  0  0
 25 23  2  0  0  0  0
 26 22  1  0  0  0  0
 28 27  1  0  0  0  0
 30 29  1  0  0  0  0
 30 31  1  0  0  0  0
 31 32  1  0  0  0  0
 32 33  1  0  0  0  0
 33 34  1  6  0  0  0
 33 36  1  0  0  0  0
 36 35  1  6  0  0  0
 36 37  1  0  0  0  0
 37 39  1  0  0  0  0
 38 37  1  0  0  0  0
 40 37  1  0  0  0  0
 40 41  2  0  0  0  0
 42 43  1  0  0  0  0
 43 40  1  0  0  0  0
M  END
>  <MODEL>
8

>  <REMARK>
 VINA RESULT:      -5.6      1.969      3.400
  Name = 
  11 active torsions:
  status: ('A' for Active; 'I' for Inactive)
    1  A    between atoms: C_1  and  C_25
    2  A    between atoms: C_1  and  C_39
    3  A    between atoms: C_2  and  C_16
    4  A    between atoms: C_2  and  O_18
    5  A    between atoms: C_4  and  C_14
    6  A    between atoms: C_11  and  C_30
    7  A    between atoms: C_16  and  C_39
    8  A    between atoms: C_22  and  O_32
    9  A    between atoms: C_25  and  C_27
   10  A    between atoms: C_27  and  C_41
   11  A    between atoms: C_30  and  C_41
                            x       y       z     vdW  Elec       q    Type
                         _______ _______ _______ _____ _____    ______ ____

>  <TORSDO>
F 11

$$$$
=
 OpenBabel11032421203D

 43 46  0  0  1  0  0  0  0  0999 V2000
  184.0270  178.9920  140.2760 C   0  0  2  0  0  3  0  0  0  0  0  0
  181.7500  179.6570  140.3860 N   0  0  0  0  0  0  0  0  0  0  0  0
  184.4730  177.7260  142.5030 C   0  0  0  0  0  2  0  0  0  0  0  0
  187.3970  177.7100  141.9170 C   0  0  0  0  0  2  0  0  0  0  0  0
  186.9400  177.5150  144.0750 C   0  0  0  0  0  2  0  0  0  0  0  0
  187.0370  177.5040  138.7850 C   0  0  1  0  0  3  0  0  0  0  0  0
  185.7150  178.2410  144.6330 C   0  0  0  0  0  2  0  0  0  0  0  0
  182.4420  178.6860  138.2330 C   0  0  2  0  0  3  0  0  0  0  0  0
  182.7880  179.2810  140.9780 N   0  0  0  0  0  0  0  0  0  0  0  0
  183.7350  178.3730  138.9290 C   0  0  0  0  0  0  0  0  0  0  0  0
  188.3250  179.3810  139.7290 O   0  0  0  0  0  1  0  0  0  0  0  0
  182.3720  181.4010  138.4770 Cl  0  0  0  0  0  0  0  0  0  0  0  0
  181.6920  179.8210  138.9450 C   0  0  2  0  0  3  0  0  0  0  0  0
  184.9940  178.0990  141.1040 C   0  0  2  0  0  3  0  0  0  0  0  0
  187.0600  178.7890  139.6570 C   0  0  2  0  0  3  0  0  0  0  0  0
  186.4740  178.5870  141.0700 C   0  0  2  0  0  3  0  0  0  0  0  0
  185.9120  177.5670  137.7950 C   0  0  0  0  0  3  0  0  0  0  0  0
  184.8010  178.7940  143.5390 C   0  0  0  0  0  2  0  0  0  0  0  0
  187.6160  178.3190  143.1570 O   0  0  0  0  0  0  0  0  0  0  0  0
  184.7520  177.9350  138.2510 C   0  0  0  0  0  0  0  0  0  0  0  0
  181.5880  177.4610  138.0940 C   0  0  0  0  0  0  0  0  0  0  0  0
  180.6410  175.4170  138.9940 C   0  0  0  0  0  3  0  0  0  0  0  0
  180.1430  176.0820  136.7210 C   0  0  0  0  0  3  0  0  0  0  0  0
  179.9880  175.1760  137.7750 C   0  0  0  0  0  0  0  0  0  0  0  0
  180.9400  177.2190  136.8780 C   0  0  0  0  0  3  0  0  0  0  0  0
  181.4380  176.5530  139.1520 C   0  0  0  0  0  3  0  0  0  0  0  0
  179.2970  173.2080  136.4460 C   0  0  0  0  0  1  0  0  0  0  0  0
  179.1830  174.0510  137.5850 O   0  0  0  0  0  0  0  0  0  0  0  0
  188.3410  177.2040  138.0520 C   0  0  0  0  0  2  0  0  0  0  0  0
  189.1770  176.1790  138.8040 C   0  0  0  0  0  2  0  0  0  0  0  0
  190.4040  176.8320  139.4150 C   0  0  0  0  0  2  0  0  0  0  0  0
  190.5230  176.4150  140.8670 C   0  0  0  0  0  2  0  0  0  0  0  0
  191.2650  177.4760  141.6670 C   0  0  2  0  0  3  0  0  0  0  0  0
  192.4370  177.7980  140.9820 O   0  0  0  0  0  1  0  0  0  0  0  0
  190.8740  175.7980  143.3460 O   0  0  0  0  0  1  0  0  0  0  0  0
  191.5920  176.9710  143.0840 C   0  0  2  0  0  3  0  0  0  0  0  0
  191.3120  178.0120  144.1870 C   0  0  0  0  0  0  0  0  0  0  0  0
  190.1870  178.7670  143.8380 O   0  0  0  0  0  1  0  0  0  0  0  0
  192.4030  178.8740  144.3260 O   0  0  0  0  0  1  0  0  0  0  0  0
  191.0750  177.3200  145.5130 C   0  0  0  0  0  0  0  0  0  0  0  0
  192.0530  176.8350  146.1410 O   0  0  0  0  0  0  0  0  0  0  0  0
  189.5340  177.4540  147.4550 C   0  0  0  0  0  1  0  0  0  0  0  0
  189.8000  177.2080  146.0820 O   0  0  0  0  0  0  0  0  0  0  0  0
  1 10  1  6  0  0  0
  1  9  1  0  0  0  0
  1 14  1  0  0  0  0
  2  9  2  0  0  0  0
  3 18  1  0  0  0  0
  4 19  1  0  0  0  0
  5  7  1  0  0  0  0
  6 29  1  6  0  0  0
  6 15  1  0  0  0  0
  8 21  1  1  0  0  0
  8 10  1  0  0  0  0
  8 13  1  0  0  0  0
 13 12  1  1  0  0  0
 13  2  1  0  0  0  0
 14  3  1  1  0  0  0
 15 11  1  1  0  0  0
 15 16  1  0  0  0  0
 16 14  1  0  0  0  0
 16  4  1  6  0  0  0
 17 20  2  0  0  0  0
 17  6  1  0  0  0  0
 18  7  1  0  0  0  0
 19  5  1  0  0  0  0
 20 10  2  0  0  0  0
 21 26  1  0  0  0  0
 22 26  2  0  0  0  0
 23 25  1  0  0  0  0
 23 24  2  0  0  0  0
 24 22  1  0  0  0  0
 25 21  2  0  0  0  0
 27 28  1  0  0  0  0
 28 24  1  0  0  0  0
 29 30  1  0  0  0  0
 30 31  1  0  0  0  0
 31 32  1  0  0  0  0
 32 33  1  0  0  0  0
 33 34  1  6  0  0  0
 33 36  1  0  0  0  0
 36 35  1  1  0  0  0
 36 37  1  0  0  0  0
 37 39  1  0  0  0  0
 37 40  1  0  0  0  0
 38 37  1  0  0  0  0
 40 43  1  0  0  0  0
 40 41  2  0  0  0  0
 43 42  1  0  0  0  0
M  END
>  <MODEL>
9

>  <REMARK>
 VINA RESULT:      -5.5      3.431      7.874
  Name = 
  11 active torsions:
  status: ('A' for Active; 'I' for Inactive)
    1  A    between atoms: C_1  and  C_25
    2  A    between atoms: C_1  and  C_39
    3  A    between atoms: C_2  and  C_16
    4  A    between atoms: C_2  and  O_18
    5  A    between atoms: C_4  and  C_14
    6  A    between atoms: C_11  and  C_30
    7  A    between atoms: C_16  and  C_39
    8  A    between atoms: C_22  and  O_32
    9  A    between atoms: C_25  and  C_27
   10  A    between atoms: C_27  and  C_41
   11  A    between atoms: C_30  and  C_41
                            x       y       z     vdW  Elec       q    Type
                         _______ _______ _______ _____ _____    ______ ____

>  <TORSDO>
F 11

$$$$
