=
 OpenBabel11042413283D

 56 65  0  0  1  0  0  0  0  0999 V2000
  189.8460  173.0260  136.7230 C   0  0  2  0  0  3  0  0  0  0  0  0
  192.9920  177.2270  137.8210 C   0  0  0  0  0  2  0  0  0  0  0  0
  188.5060  175.7060  137.4680 C   0  0  0  0  0  3  0  0  0  0  0  0
  188.5040  170.4150  135.5040 C   0  0  0  0  0  1  0  0  0  0  0  0
  190.7380  177.4260  142.0520 C   0  0  0  0  0  0  0  0  0  0  0  0
  189.3820  177.3200  140.0380 C   0  0  0  0  0  0  0  0  0  0  0  0
  187.4170  173.8440  136.2390 C   0  0  0  0  0  0  0  0  0  0  0  0
  192.5030  175.6830  135.8960 C   0  0  1  0  0  3  0  0  0  0  0  0
  190.9200  177.7750  143.5010 C   0  0  0  0  0  2  0  0  0  0  0  0
  188.1900  177.1250  137.8010 C   0  0  2  0  0  3  0  0  0  0  0  0
  190.8370  172.5340  135.6810 C   0  0  0  0  0  2  0  0  0  0  0  0
  192.9000  176.4450  139.1200 C   0  0  0  0  0  2  0  0  0  0  0  0
  188.2470  177.7430  142.2430 C   0  0  0  0  0  3  0  0  0  0  0  0
  188.0550  177.3740  139.3120 C   0  0  2  0  0  3  0  0  0  0  0  0
  187.4050  178.6740  139.5210 N   0  0  0  0  0  2  0  0  0  0  0  0
  186.4280  176.1510  136.6380 N   0  0  0  0  0  0  0  0  0  0  0  0
  186.8340  177.2340  137.2060 C   0  0  0  0  0  0  0  0  0  0  0  0
  188.4340  172.8890  136.2150 C   0  0  2  0  0  3  0  0  0  0  0  0
  188.9660  176.1750  144.0180 C   0  0  0  0  0  2  0  0  0  0  0  0
  186.5490  172.0660  135.3940 C   0  0  0  0  0  0  0  0  0  0  0  0
  188.0340  177.2160  143.4540 C   0  0  0  0  0  0  0  0  0  0  0  0
  191.7880  174.5740  136.6710 C   0  0  0  0  0  2  0  0  0  0  0  0
  190.5090  177.0040  139.3410 N   0  0  0  0  0  0  0  0  0  0  0  0
  185.9410  178.3760  137.5460 C   0  0  0  0  0  2  0  0  0  0  0  0
  190.3190  176.7410  144.4590 C   0  0  0  0  0  2  0  0  0  0  0  0
  186.0120  178.5920  139.0630 C   0  0  0  0  0  2  0  0  0  0  0  0
  187.8570  171.7460  135.6900 C   0  0  0  0  0  0  0  0  0  0  0  0
  186.2750  173.3410  135.7230 N   0  0  0  0  0  0  0  0  0  0  0  0
  193.5930  176.3550  136.7320 C   0  0  0  0  0  2  0  0  0  0  0  0
  191.7300  176.8930  139.9250 C   0  0  0  0  0  0  0  0  0  0  0  0
  189.4670  177.4930  141.4380 C   0  0  0  0  0  0  0  0  0  0  0  0
  190.6240  174.0170  135.8680 C   0  0  2  0  0  3  0  0  0  0  0  0
  187.4930  175.2180  136.7660 C   0  0  0  0  0  0  0  0  0  0  0  0
  191.8660  177.1120  141.2940 C   0  0  0  0  0  3  0  0  0  0  0  0
  185.6020  177.4050  143.6750 C   0  0  0  0  0  3  0  0  0  0  0  0
  186.8170  177.6060  144.1730 C   0  0  0  0  0  3  0  0  0  0  0  0
  184.6860  180.4110  143.3150 C   0  0  0  0  0  2  0  0  0  0  0  0
  181.9360  178.1210  144.0420 O   0  0  0  0  0  1  0  0  0  0  0  0
  185.6200  179.7600  145.5310 C   0  0  0  0  0  2  0  0  0  0  0  0
  184.6900  178.5660  145.7370 C   0  0  0  0  0  2  0  0  0  0  0  0
  184.3780  177.8060  144.4450 C   0  0  1  0  0  3  0  0  0  0  0  0
  183.4150  178.7950  142.2020 C   0  0  2  0  0  3  0  0  0  0  0  0
  183.2290  178.4370  143.6210 C   0  0  1  0  0  0  0  0  0  0  0  0
  184.9580  180.8730  144.7340 C   0  0  0  0  0  2  0  0  0  0  0  0
  183.3360  179.8660  143.2220 N   0  0  1  0  0  0  0  0  0  0  0  0
  182.2390  178.4610  138.8620 C   0  0  0  0  0  2  0  0  0  0  0  0
  181.5330  177.2730  139.4660 C   0  0  0  0  0  2  0  0  0  0  0  0
  180.9570  179.2790  142.0490 C   0  0  0  0  0  1  0  0  0  0  0  0
  181.9000  177.2980  140.9320 C   0  0  0  0  0  2  0  0  0  0  0  0
  182.1640  178.7500  141.2930 C   0  0  0  0  0  0  0  0  0  0  0  0
  182.2940  179.4990  139.9640 C   0  0  0  0  0  2  0  0  0  0  0  0
  184.3330  170.9430  136.1750 C   0  0  0  0  0  1  0  0  0  0  0  0
  185.3440  170.9600  134.6680 S   0  0  0  0  0  0  0  0  0  0  0  0
  193.0600  175.1850  134.6380 N   0  0  0  0  0  2  0  0  0  0  0  0
  194.3530  174.8260  134.8440 O   0  0  0  0  0  0  0  0  0  0  0  0
  194.3810  173.4540  134.5940 C   0  0  0  0  0  1  0  0  0  0  0  0
  1 11  1  6  0  0  0
  2 12  1  0  0  0  0
  4 27  1  0  0  0  0
  5  9  1  0  0  0  0
  6 31  2  0  0  0  0
  7 33  1  0  0  0  0
  8 54  1  6  0  0  0
  8 22  1  0  0  0  0
  8 29  1  0  0  0  0
  9 25  1  0  0  0  0
 10  3  1  1  0  0  0
 10 14  1  0  0  0  0
 12 30  1  0  0  0  0
 13 21  2  0  0  0  0
 14 15  1  6  0  0  0
 14  6  1  0  0  0  0
 16 33  1  0  0  0  0
 16 17  2  0  0  0  0
 17 24  1  0  0  0  0
 17 10  1  0  0  0  0
 18 27  1  1  0  0  0
 18  7  1  0  0  0  0
 18  1  1  0  0  0  0
 19 25  1  0  0  0  0
 20 27  2  0  0  0  0
 20 28  1  0  0  0  0
 21 19  1  0  0  0  0
 21 36  1  0  0  0  0
 23 30  2  0  0  0  0
 23  6  1  0  0  0  0
 24 26  1  0  0  0  0
 26 15  1  0  0  0  0
 28  7  2  0  0  0  0
 29  2  1  0  0  0  0
 30 34  1  0  0  0  0
 31  5  1  0  0  0  0
 31 13  1  0  0  0  0
 32 11  1  6  0  0  0
 32 22  1  0  0  0  0
 32  1  1  0  0  0  0
 33  3  2  0  0  0  0
 34  5  2  0  0  0  0
 35 36  2  0  0  0  0
 37 44  1  0  0  0  0
 39 40  1  0  0  0  0
 41 35  1  6  0  0  0
 41 40  1  0  0  0  0
 42 50  1  6  0  0  0
 42 45  1  0  0  0  0
 42 43  1  0  0  0  0
 43 38  1  1  0  0  0
 43 41  1  0  0  0  0
 44 39  1  0  0  0  0
 45 37  1  1  0  0  0
 45 43  1  0  0  0  0
 46 47  1  0  0  0  0
 46 51  1  0  0  0  0
 47 49  1  0  0  0  0
 49 50  1  0  0  0  0
 50 48  1  0  0  0  0
 51 50  1  0  0  0  0
 53 20  1  0  0  0  0
 53 52  1  0  0  0  0
 54 55  1  0  0  0  0
 56 55  1  0  0  0  0
M  END
>  <MODEL>
1

>  <REMARK>
 VINA RESULT:      -5.0      0.000      0.000
  Name = 
  6 active torsions:
  status: ('A' for Active; 'I' for Inactive)
    1  A    between atoms: C_9  and  C_29
    2  A    between atoms: N_13  and  C_14
    3  A    between atoms: N_13  and  O_22
    4  A    between atoms: C_23  and  C_36
    5  A    between atoms: C_34  and  S_40
    6  A    between atoms: C_37  and  C_39
                            x       y       z     vdW  Elec       q    Type
                         _______ _______ _______ _____ _____    ______ ____

>  <TORSDO>
F 6

$$$$
