=
 OpenBabel11032419593D

 64 71  0  0  1  0  0  0  0  0999 V2000
  183.2920  178.0120  141.6950 C   0  0  0  0  0  3  0  0  0  0  0  0
  183.0970  178.0950  140.3880 C   0  0  0  0  0  0  0  0  0  0  0  0
  184.6420  178.4040  142.1770 C   0  0  1  0  0  3  0  0  0  0  0  0
  184.2610  178.5520  139.5800 C   0  0  1  0  0  3  0  0  0  0  0  0
  185.5350  179.1190  140.7520 S   0  0  0  0  0  0  0  0  0  0  0  0
  181.2960  176.5080  139.4740 C   0  0  0  0  0  0  0  0  0  0  0  0
  179.6540  177.9430  138.7270 C   0  0  2  0  0  3  0  0  0  0  0  0
  180.8200  178.6790  139.3180 C   0  0  0  0  0  0  0  0  0  0  0  0
  181.8840  175.4200  139.7170 O   0  0  0  0  0  0  0  0  0  0  0  0
  180.8880  179.9350  139.4350 O   0  0  0  0  0  0  0  0  0  0  0  0
  180.0570  176.5810  138.8510 O   0  0  0  0  0  0  0  0  0  0  0  0
  181.8280  177.7860  139.7850 N   0  0  0  0  0  0  0  0  0  0  0  0
  179.4720  178.2990  137.2590 C   0  0  0  0  0  2  0  0  0  0  0  0
  180.7470  178.0020  136.4850 C   0  0  1  0  0  3  0  0  0  0  0  0
  180.6220  176.7370  135.7780 N   0  0  0  0  0  2  0  0  0  0  0  0
  182.7900  176.0400  136.2910 O   0  0  0  0  0  0  0  0  0  0  0  0
  181.6990  175.8000  135.7050 C   0  0  0  0  0  0  0  0  0  0  0  0
  181.5980  171.3750  136.5440 O   0  0  0  0  0  1  0  0  0  0  0  0
  182.7340  172.5530  134.8450 C   0  0  0  0  0  0  0  0  0  0  0  0
  181.4240  172.1080  135.3650 C   0  0  2  0  0  3  0  0  0  0  0  0
  181.5240  174.5340  134.9170 C   0  0  2  0  0  3  0  0  0  0  0  0
  183.6930  171.7740  134.6120 O   0  0  0  0  0  0  0  0  0  0  0  0
  180.5270  173.6790  136.9840 O   0  0  0  0  0  1  0  0  0  0  0  0
  180.6810  173.4340  135.6130 C   0  0  2  0  0  3  0  0  0  0  0  0
  182.8130  173.9420  134.6060 N   0  0  0  0  0  2  0  0  0  0  0  0
  181.1020  179.1340  135.5100 C   0  0  0  0  0  2  0  0  0  0  0  0
  180.8540  181.3170  136.4610 O   0  0  0  0  0  1  0  0  0  0  0  0
  180.2090  180.3610  135.6800 C   0  0  0  0  0  2  0  0  0  0  0  0
  184.7890  177.3860  138.7530 C   0  0  0  0  0  2  0  0  0  0  0  0
  186.0330  177.7550  138.0170 C   0  0  0  0  0  0  0  0  0  0  0  0
  187.1680  176.9440  138.0770 C   0  0  0  0  0  3  0  0  0  0  0  0
  188.3140  178.4840  136.6240 C   0  0  0  0  0  3  0  0  0  0  0  0
  187.2000  179.2640  136.5840 N   0  0  0  0  0  0  0  0  0  0  0  0
  188.3300  177.2980  137.3760 C   0  0  0  0  0  0  0  0  0  0  0  0
  186.0700  178.9240  137.2590 C   0  0  0  0  0  3  0  0  0  0  0  0
  194.0380  176.6000  136.6830 O   0  0  0  0  0  1  0  0  0  0  0  0
  190.8150  177.0260  137.6120 C   0  0  0  0  0  3  0  0  0  0  0  0
  193.2170  174.5620  137.5680 C   0  0  0  0  0  2  0  0  0  0  0  0
  191.8790  176.1470  137.6170 C   0  0  0  0  0  0  0  0  0  0  0  0
  189.4040  175.0140  137.2380 C   0  0  0  0  0  3  0  0  0  0  0  0
  190.5150  174.1320  137.2510 C   0  0  0  0  0  3  0  0  0  0  0  0
  193.8410  176.3600  138.9800 O   0  0  0  0  0  1  0  0  0  0  0  0
  191.7360  174.7470  137.4400 C   0  0  0  0  0  0  0  0  0  0  0  0
  189.5350  176.4350  137.4090 C   0  0  0  0  0  0  0  0  0  0  0  0
  193.3480  175.9900  137.7310 C   0  0  0  0  0  0  0  0  0  0  0  0
  184.4940  179.4440  143.2840 C   0  0  0  0  0  2  0  0  0  0  0  0
  183.5400  178.9700  144.3710 C   0  0  0  0  0  2  0  0  0  0  0  0
  185.4890  179.0240  145.8680 C   0  0  0  0  0  3  0  0  0  0  0  0
  184.2710  178.5480  145.6040 C   0  0  0  0  0  3  0  0  0  0  0  0
  186.2520  178.5590  147.0650 C   0  0  0  0  0  2  0  0  0  0  0  0
  187.4930  177.7780  146.6630 C   0  0  0  0  0  2  0  0  0  0  0  0
  187.6510  177.8060  145.1490 C   0  0  0  0  0  2  0  0  0  0  0  0
  188.8690  176.9980  144.6790 C   0  0  1  0  0  3  0  0  0  0  0  0
  190.1790  176.5590  141.1310 C   0  0  0  0  0  2  0  0  0  0  0  0
  189.4260  177.8770  141.0580 C   0  0  0  0  0  2  0  0  0  0  0  0
  190.0320  176.0390  142.5500 C   0  0  2  0  0  3  0  0  0  0  0  0
  188.4080  177.8420  142.1780 C   0  0  0  0  0  2  0  0  0  0  0  0
  188.7450  175.4690  142.7130 O   0  0  0  0  0  0  0  0  0  0  0  0
  188.9140  176.7940  143.1490 C   0  0  2  0  0  0  0  0  0  0  0  0
  190.7630  178.6770  144.3610 C   0  0  0  0  0  1  0  0  0  0  0  0
  190.1830  177.5750  145.2430 C   0  0  2  0  0  3  0  0  0  0  0  0
  191.1350  176.5690  145.4340 O   0  0  0  0  0  0  0  0  0  0  0  0
  191.6670  176.8230  146.7040 C   0  0  0  0  0  2  0  0  0  0  0  0
  190.7130  176.5210  147.6750 O   0  0  0  0  0  1  0  0  0  0  0  0
  1  3  1  0  0  0  0
  2  1  2  0  0  0  0
  3 46  1  1  0  0  0
  4 29  1  1  0  0  0
  4  2  1  0  0  0  0
  4  5  1  0  0  0  0
  5  3  1  0  0  0  0
  6  9  2  0  0  0  0
  6 12  1  0  0  0  0
  7 13  1  6  0  0  0
  7 11  1  0  0  0  0
  7  8  1  0  0  0  0
  8 10  2  0  0  0  0
  8 12  1  0  0  0  0
 11  6  1  0  0  0  0
 12  2  1  0  0  0  0
 14 26  1  6  0  0  0
 14 13  1  0  0  0  0
 15 14  1  0  0  0  0
 17 15  1  0  0  0  0
 17 16  2  0  0  0  0
 19 20  1  0  0  0  0
 20 24  1  0  0  0  0
 20 18  1  1  0  0  0
 21 24  1  0  0  0  0
 21 17  1  1  0  0  0
 22 19  2  0  0  0  0
 24 23  1  1  0  0  0
 25 19  1  0  0  0  0
 25 21  1  0  0  0  0
 26 28  1  0  0  0  0
 28 27  1  0  0  0  0
 30 31  1  0  0  0  0
 30 29  1  0  0  0  0
 32 34  1  0  0  0  0
 33 32  2  0  0  0  0
 33 35  1  0  0  0  0
 34 44  1  0  0  0  0
 34 31  2  0  0  0  0
 35 30  2  0  0  0  0
 36 45  1  0  0  0  0
 37 39  1  0  0  0  0
 38 45  1  0  0  0  0
 39 45  1  0  0  0  0
 40 41  2  0  0  0  0
 40 44  1  0  0  0  0
 41 43  1  0  0  0  0
 43 38  1  0  0  0  0
 43 39  2  0  0  0  0
 44 37  2  0  0  0  0
 45 42  1  0  0  0  0
 46 47  1  0  0  0  0
 47 49  1  0  0  0  0
 48 50  1  0  0  0  0
 49 48  2  0  0  0  0
 51 50  1  0  0  0  0
 52 51  1  0  0  0  0
 53 52  1  6  0  0  0
 53 61  1  0  0  0  0
 55 54  1  0  0  0  0
 55 57  1  0  0  0  0
 56 54  1  6  0  0  0
 56 58  1  0  0  0  0
 56 59  1  0  0  0  0
 57 59  1  0  0  0  0
 58 59  1  0  0  0  0
 59 53  1  1  0  0  0
 61 60  1  6  0  0  0
 61 62  1  0  0  0  0
 62 63  1  0  0  0  0
 63 64  1  0  0  0  0
M  END
>  <MODEL>
1

>  <REMARK>
 VINA RESULT:      -7.7      0.000      0.000
  Name = 
  21 active torsions:
  status: ('A' for Active; 'I' for Inactive)
    1  A    between atoms: C_1  and  O_17
    2  A    between atoms: C_7  and  C_15
    3  A    between atoms: C_7  and  C_39
    4  A    between atoms: C_9  and  C_12
    5  A    between atoms: C_9  and  C_28
    6  A    between atoms: O_17  and  C_29
    7  A    between atoms: C_19  and  N_61
    8  A    between atoms: C_25  and  C_44
    9  A    between atoms: N_27  and  C_28
   10  A    between atoms: C_28  and  C_54
   11  A    between atoms: C_29  and  C_63
   12  A    between atoms: C_31  and  C_48
   13  A    between atoms: C_32  and  C_62
   14  A    between atoms: C_35  and  C_48
   15  A    between atoms: C_35  and  C_60
   16  A    between atoms: C_40  and  C_52
   17  A    between atoms: C_41  and  C_56
   18  A    between atoms: C_44  and  C_52
   19  A    between atoms: C_53  and  C_63
   20  A    between atoms: C_54  and  C_57
   21  A    between atoms: C_60  and  C_63
                            x       y       z     vdW  Elec       q    Type
                         _______ _______ _______ _____ _____    ______ ____

>  <TORSDO>
F 21

$$$$
=
 OpenBabel11032419593D

 64 71  0  0  1  0  0  0  0  0999 V2000
  183.6940  177.9620  141.8100 C   0  0  0  0  0  3  0  0  0  0  0  0
  183.4350  178.0990  140.5180 C   0  0  0  0  0  0  0  0  0  0  0  0
  185.0790  178.2900  142.2340 C   0  0  1  0  0  3  0  0  0  0  0  0
  184.5720  178.5460  139.6670 C   0  0  1  0  0  3  0  0  0  0  0  0
  185.9240  179.0260  140.7900 S   0  0  0  0  0  0  0  0  0  0  0  0
  181.5530  176.6120  139.6000 C   0  0  0  0  0  0  0  0  0  0  0  0
  179.8980  178.1240  139.0630 C   0  0  2  0  0  3  0  0  0  0  0  0
  181.1110  178.7960  139.6360 C   0  0  0  0  0  0  0  0  0  0  0  0
  182.1340  175.5010  139.7250 O   0  0  0  0  0  0  0  0  0  0  0  0
  181.2100  180.0380  139.8410 O   0  0  0  0  0  0  0  0  0  0  0  0
  180.2810  176.7500  139.0600 O   0  0  0  0  0  0  0  0  0  0  0  0
  182.1280  177.8550  139.9720 N   0  0  0  0  0  0  0  0  0  0  0  0
  179.6360  178.5920  137.6390 C   0  0  0  0  0  2  0  0  0  0  0  0
  180.8380  178.2910  136.7580 C   0  0  1  0  0  3  0  0  0  0  0  0
  180.6410  177.0340  136.0530 N   0  0  0  0  0  2  0  0  0  0  0  0
  182.8270  176.2930  136.4120 O   0  0  0  0  0  0  0  0  0  0  0  0
  181.6930  176.0780  135.9010 C   0  0  0  0  0  0  0  0  0  0  0  0
  181.6310  171.6460  136.7020 O   0  0  0  0  0  1  0  0  0  0  0  0
  182.6250  172.8330  134.9230 C   0  0  0  0  0  0  0  0  0  0  0  0
  181.3620  172.3920  135.5490 C   0  0  2  0  0  3  0  0  0  0  0  0
  181.4420  174.8220  135.1190 C   0  0  2  0  0  3  0  0  0  0  0  0
  183.5560  172.0500  134.6010 O   0  0  0  0  0  0  0  0  0  0  0  0
  180.6200  173.9520  137.2550 O   0  0  0  0  0  1  0  0  0  0  0  0
  180.6530  173.7200  135.8730 C   0  0  2  0  0  3  0  0  0  0  0  0
  182.6950  174.2240  134.6910 N   0  0  0  0  0  2  0  0  0  0  0  0
  181.1210  179.4290  135.7670 C   0  0  0  0  0  2  0  0  0  0  0  0
  179.6660  181.3290  135.7060 O   0  0  0  0  0  1  0  0  0  0  0  0
  180.7920  180.8060  136.3390 C   0  0  0  0  0  2  0  0  0  0  0  0
  185.0160  177.3940  138.7740 C   0  0  0  0  0  2  0  0  0  0  0  0
  186.2560  177.7330  138.0180 C   0  0  0  0  0  0  0  0  0  0  0  0
  187.3760  176.8990  138.0680 C   0  0  0  0  0  3  0  0  0  0  0  0
  188.5320  178.4070  136.5880 C   0  0  0  0  0  3  0  0  0  0  0  0
  187.4330  179.2080  136.5590 N   0  0  0  0  0  0  0  0  0  0  0  0
  188.5340  177.2250  137.3480 C   0  0  0  0  0  0  0  0  0  0  0  0
  186.3060  178.8960  137.2520 C   0  0  0  0  0  3  0  0  0  0  0  0
  194.2320  176.4300  136.6750 O   0  0  0  0  0  1  0  0  0  0  0  0
  191.0120  176.8990  137.5940 C   0  0  0  0  0  3  0  0  0  0  0  0
  193.3660  174.3890  137.5110 C   0  0  0  0  0  2  0  0  0  0  0  0
  192.0590  176.0000  137.5860 C   0  0  0  0  0  0  0  0  0  0  0  0
  189.5640  174.9240  137.1660 C   0  0  0  0  0  3  0  0  0  0  0  0
  190.6570  174.0200  137.1670 C   0  0  0  0  0  3  0  0  0  0  0  0
  194.0150  176.1440  138.9650 O   0  0  0  0  0  1  0  0  0  0  0  0
  191.8900  174.6060  137.3780 C   0  0  0  0  0  0  0  0  0  0  0  0
  189.7220  176.3380  137.3700 C   0  0  0  0  0  0  0  0  0  0  0  0
  193.5240  175.8100  137.7060 C   0  0  0  0  0  0  0  0  0  0  0  0
  185.0250  179.2930  143.3830 C   0  0  0  0  0  2  0  0  0  0  0  0
  184.0500  178.8510  144.4640 C   0  0  0  0  0  2  0  0  0  0  0  0
  186.0570  178.7960  145.8840 C   0  0  0  0  0  3  0  0  0  0  0  0
  184.7450  178.5880  145.7610 C   0  0  0  0  0  3  0  0  0  0  0  0
  186.7690  178.4770  147.1580 C   0  0  0  0  0  2  0  0  0  0  0  0
  187.7630  177.3430  146.9680 C   0  0  0  0  0  2  0  0  0  0  0  0
  188.1840  177.2650  145.5060 C   0  0  0  0  0  2  0  0  0  0  0  0
  189.5420  177.9360  145.2590 C   0  0  1  0  0  3  0  0  0  0  0  0
  192.1430  175.3960  146.3900 C   0  0  0  0  0  2  0  0  0  0  0  0
  191.2410  175.5270  147.6050 C   0  0  0  0  0  2  0  0  0  0  0  0
  191.6060  176.3410  145.3310 C   0  0  2  0  0  3  0  0  0  0  0  0
  190.5810  176.8850  147.4940 C   0  0  0  0  0  2  0  0  0  0  0  0
  191.9910  177.6690  145.6440 O   0  0  0  0  0  0  0  0  0  0  0  0
  190.7010  177.2730  146.0350 C   0  0  2  0  0  0  0  0  0  0  0  0
  190.5410  179.3910  143.4170 C   0  0  0  0  0  1  0  0  0  0  0  0
  189.8380  178.0790  143.7530 C   0  0  2  0  0  3  0  0  0  0  0  0
  188.6680  177.9600  142.9950 O   0  0  0  0  0  0  0  0  0  0  0  0
  189.0110  177.0940  141.9500 C   0  0  0  0  0  2  0  0  0  0  0  0
  190.0250  176.2360  142.3720 O   0  0  0  0  0  1  0  0  0  0  0  0
  1  3  1  0  0  0  0
  2  1  2  0  0  0  0
  3 46  1  1  0  0  0
  4 29  1  6  0  0  0
  4  2  1  0  0  0  0
  4  5  1  0  0  0  0
  5  3  1  0  0  0  0
  6  9  2  0  0  0  0
  6 12  1  0  0  0  0
  7 13  1  6  0  0  0
  7  8  1  0  0  0  0
  8 10  2  0  0  0  0
  8 12  1  0  0  0  0
 11  7  1  0  0  0  0
 11  6  1  0  0  0  0
 12  2  1  0  0  0  0
 14 26  1  6  0  0  0
 14 13  1  0  0  0  0
 15 14  1  0  0  0  0
 17 15  1  0  0  0  0
 17 16  2  0  0  0  0
 19 20  1  0  0  0  0
 20 24  1  0  0  0  0
 20 18  1  1  0  0  0
 21 24  1  0  0  0  0
 21 17  1  1  0  0  0
 22 19  2  0  0  0  0
 24 23  1  1  0  0  0
 25 19  1  0  0  0  0
 25 21  1  0  0  0  0
 26 28  1  0  0  0  0
 27 28  1  0  0  0  0
 30 31  1  0  0  0  0
 30 29  1  0  0  0  0
 32 34  1  0  0  0  0
 33 32  2  0  0  0  0
 33 35  1  0  0  0  0
 34 44  1  0  0  0  0
 34 31  2  0  0  0  0
 35 30  2  0  0  0  0
 36 45  1  0  0  0  0
 38 45  1  0  0  0  0
 39 37  1  0  0  0  0
 39 45  1  0  0  0  0
 40 41  2  0  0  0  0
 40 44  1  0  0  0  0
 41 43  1  0  0  0  0
 43 38  1  0  0  0  0
 43 39  2  0  0  0  0
 44 37  2  0  0  0  0
 45 42  1  0  0  0  0
 46 47  1  0  0  0  0
 47 49  1  0  0  0  0
 48 50  1  0  0  0  0
 49 48  2  0  0  0  0
 51 50  1  0  0  0  0
 52 51  1  0  0  0  0
 53 52  1  6  0  0  0
 54 55  1  0  0  0  0
 56 58  1  0  0  0  0
 56 59  1  0  0  0  0
 56 54  1  1  0  0  0
 57 55  1  0  0  0  0
 58 59  1  0  0  0  0
 59 53  1  6  0  0  0
 59 57  1  0  0  0  0
 61 60  1  1  0  0  0
 61 53  1  0  0  0  0
 62 61  1  0  0  0  0
 63 64  1  0  0  0  0
 63 62  1  0  0  0  0
M  END
>  <MODEL>
2

>  <REMARK>
 VINA RESULT:      -6.9      0.743      1.987
  Name = 
  21 active torsions:
  status: ('A' for Active; 'I' for Inactive)
    1  A    between atoms: C_1  and  O_17
    2  A    between atoms: C_7  and  C_15
    3  A    between atoms: C_7  and  C_39
    4  A    between atoms: C_9  and  C_12
    5  A    between atoms: C_9  and  C_28
    6  A    between atoms: O_17  and  C_29
    7  A    between atoms: C_19  and  N_61
    8  A    between atoms: C_25  and  C_44
    9  A    between atoms: N_27  and  C_28
   10  A    between atoms: C_28  and  C_54
   11  A    between atoms: C_29  and  C_63
   12  A    between atoms: C_31  and  C_48
   13  A    between atoms: C_32  and  C_62
   14  A    between atoms: C_35  and  C_48
   15  A    between atoms: C_35  and  C_60
   16  A    between atoms: C_40  and  C_52
   17  A    between atoms: C_41  and  C_56
   18  A    between atoms: C_44  and  C_52
   19  A    between atoms: C_53  and  C_63
   20  A    between atoms: C_54  and  C_57
   21  A    between atoms: C_60  and  C_63
                            x       y       z     vdW  Elec       q    Type
                         _______ _______ _______ _____ _____    ______ ____

>  <TORSDO>
F 21

$$$$
=
 OpenBabel11032419593D

 64 71  0  0  1  0  0  0  0  0999 V2000
  188.2300  178.2030  140.7400 C   0  0  0  0  0  3  0  0  0  0  0  0
  189.0710  177.1830  140.6590 C   0  0  0  0  0  0  0  0  0  0  0  0
  187.4630  178.5140  139.5070 C   0  0  1  0  0  3  0  0  0  0  0  0
  189.1440  176.4990  139.3390 C   0  0  1  0  0  3  0  0  0  0  0  0
  187.7940  177.1680  138.3150 S   0  0  0  0  0  0  0  0  0  0  0  0
  189.4660  175.8450  142.8160 C   0  0  0  0  0  0  0  0  0  0  0  0
  191.6010  176.4530  143.4330 C   0  0  2  0  0  3  0  0  0  0  0  0
  191.1670  177.1290  142.1660 C   0  0  0  0  0  0  0  0  0  0  0  0
  188.3460  175.2690  142.8690 O   0  0  0  0  0  0  0  0  0  0  0  0
  191.8910  177.9100  141.4880 O   0  0  0  0  0  0  0  0  0  0  0  0
  190.4530  175.6800  143.7780 O   0  0  0  0  0  0  0  0  0  0  0  0
  189.8480  176.7430  141.7860 N   0  0  0  0  0  0  0  0  0  0  0  0
  191.8880  177.4720  144.5250 C   0  0  0  0  0  2  0  0  0  0  0  0
  191.4290  176.9400  145.8740 C   0  0  1  0  0  3  0  0  0  0  0  0
  189.9980  176.6800  145.8500 N   0  0  0  0  0  2  0  0  0  0  0  0
  189.4520  178.6190  147.0310 O   0  0  0  0  0  0  0  0  0  0  0  0
  189.0570  177.5600  146.4690 C   0  0  0  0  0  0  0  0  0  0  0  0
  185.3010  179.1330  144.5440 O   0  0  0  0  0  1  0  0  0  0  0  0
  185.6780  178.4740  146.7780 C   0  0  0  0  0  0  0  0  0  0  0  0
  185.5360  178.0320  145.3750 C   0  0  2  0  0  3  0  0  0  0  0  0
  187.5980  177.2090  146.4550 C   0  0  2  0  0  3  0  0  0  0  0  0
  184.8180  179.1670  147.3810 O   0  0  0  0  0  0  0  0  0  0  0  0
  187.6520  178.1360  144.1890 O   0  0  0  0  0  1  0  0  0  0  0  0
  186.8940  177.3670  145.0830 C   0  0  2  0  0  3  0  0  0  0  0  0
  186.8640  178.0300  147.4010 N   0  0  0  0  0  2  0  0  0  0  0  0
  192.2030  175.6800  146.2860 C   0  0  0  0  0  2  0  0  0  0  0  0
  192.2900  176.9280  148.3270 O   0  0  0  0  0  1  0  0  0  0  0  0
  192.6700  175.7230  147.7390 C   0  0  0  0  0  2  0  0  0  0  0  0
  190.4910  176.7970  138.6920 C   0  0  0  0  0  2  0  0  0  0  0  0
  191.0160  175.6140  137.9500 C   0  0  0  0  0  0  0  0  0  0  0  0
  192.3750  175.2930  137.9820 C   0  0  0  0  0  3  0  0  0  0  0  0
  191.9350  173.4000  136.5600 C   0  0  0  0  0  3  0  0  0  0  0  0
  190.6160  173.7340  136.5360 N   0  0  0  0  0  0  0  0  0  0  0  0
  192.8550  174.1750  137.2850 C   0  0  0  0  0  0  0  0  0  0  0  0
  190.1440  174.8140  137.2120 C   0  0  0  0  0  3  0  0  0  0  0  0
  198.3960  175.3740  136.0970 O   0  0  0  0  0  1  0  0  0  0  0  0
  195.2790  174.8300  137.2900 C   0  0  0  0  0  3  0  0  0  0  0  0
  198.4040  173.3920  137.3940 C   0  0  0  0  0  2  0  0  0  0  0  0
  196.5870  174.3940  137.3240 C   0  0  0  0  0  0  0  0  0  0  0  0
  194.6730  172.4230  137.4130 C   0  0  0  0  0  3  0  0  0  0  0  0
  196.0270  172.0010  137.4510 C   0  0  0  0  0  3  0  0  0  0  0  0
  198.3970  175.5340  138.4090 O   0  0  0  0  0  1  0  0  0  0  0  0
  196.9520  173.0250  137.4010 C   0  0  0  0  0  0  0  0  0  0  0  0
  194.2910  173.8060  137.3290 C   0  0  0  0  0  0  0  0  0  0  0  0
  198.0180  174.7800  137.3020 C   0  0  0  0  0  0  0  0  0  0  0  0
  185.9760  178.5670  139.8440 C   0  0  0  0  0  2  0  0  0  0  0  0
  185.1610  179.1200  138.6830 C   0  0  0  0  0  2  0  0  0  0  0  0
  183.4530  177.4840  139.3580 C   0  0  0  0  0  3  0  0  0  0  0  0
  183.9470  178.2900  138.4160 C   0  0  0  0  0  3  0  0  0  0  0  0
  182.2780  176.6050  139.0780 C   0  0  0  0  0  2  0  0  0  0  0  0
  182.7100  175.1760  138.7930 C   0  0  0  0  0  2  0  0  0  0  0  0
  182.7540  174.9410  137.2880 C   0  0  0  0  0  2  0  0  0  0  0  0
  183.7120  173.8040  136.9080 C   0  0  1  0  0  3  0  0  0  0  0  0
  183.0470  170.2020  135.8700 C   0  0  0  0  0  2  0  0  0  0  0  0
  182.7790  170.9810  134.5950 C   0  0  0  0  0  2  0  0  0  0  0  0
  183.4200  171.2120  136.9410 C   0  0  2  0  0  3  0  0  0  0  0  0
  182.4310  172.3900  135.0270 C   0  0  0  0  0  2  0  0  0  0  0  0
  182.2480  171.8500  137.4160 O   0  0  0  0  0  0  0  0  0  0  0  0
  182.9860  172.5280  136.4300 C   0  0  2  0  0  0  0  0  0  0  0  0
  185.8630  173.2230  135.6660 C   0  0  0  0  0  1  0  0  0  0  0  0
  184.7930  174.2810  135.9180 C   0  0  2  0  0  3  0  0  0  0  0  0
  185.3910  175.4670  136.3570 O   0  0  0  0  0  0  0  0  0  0  0  0
  185.6900  176.1670  135.1820 C   0  0  0  0  0  2  0  0  0  0  0  0
  184.7820  177.2120  135.0200 O   0  0  0  0  0  1  0  0  0  0  0  0
  2  1  2  0  0  0  0
  2 12  1  0  0  0  0
  3 46  1  1  0  0  0
  3  1  1  0  0  0  0
  4 29  1  6  0  0  0
  4  2  1  0  0  0  0
  5  4  1  0  0  0  0
  5  3  1  0  0  0  0
  6  9  2  0  0  0  0
  6 11  1  0  0  0  0
  7 11  1  0  0  0  0
  7 13  1  1  0  0  0
  8  7  1  0  0  0  0
 10  8  2  0  0  0  0
 12  8  1  0  0  0  0
 12  6  1  0  0  0  0
 14 13  1  6  0  0  0
 14 26  1  0  0  0  0
 15 14  1  0  0  0  0
 15 17  1  0  0  0  0
 17 16  2  0  0  0  0
 19 22  2  0  0  0  0
 19 25  1  0  0  0  0
 20 18  1  6  0  0  0
 20 19  1  0  0  0  0
 21 17  1  6  0  0  0
 21 25  1  0  0  0  0
 24 23  1  6  0  0  0
 24 20  1  0  0  0  0
 24 21  1  0  0  0  0
 26 28  1  0  0  0  0
 28 27  1  0  0  0  0
 30 31  1  0  0  0  0
 30 29  1  0  0  0  0
 32 34  1  0  0  0  0
 33 32  2  0  0  0  0
 33 35  1  0  0  0  0
 34 44  1  0  0  0  0
 34 31  2  0  0  0  0
 35 30  2  0  0  0  0
 36 45  1  0  0  0  0
 37 39  2  0  0  0  0
 37 44  1  0  0  0  0
 38 43  1  0  0  0  0
 39 43  1  0  0  0  0
 40 41  1  0  0  0  0
 43 41  2  0  0  0  0
 44 40  2  0  0  0  0
 45 39  1  0  0  0  0
 45 38  1  0  0  0  0
 45 42  1  0  0  0  0
 47 46  1  0  0  0  0
 49 47  1  0  0  0  0
 49 48  2  0  0  0  0
 50 48  1  0  0  0  0
 51 50  1  0  0  0  0
 52 51  1  0  0  0  0
 53 52  1  6  0  0  0
 55 57  1  0  0  0  0
 55 54  1  0  0  0  0
 56 54  1  6  0  0  0
 56 58  1  0  0  0  0
 57 59  1  0  0  0  0
 59 53  1  1  0  0  0
 59 56  1  0  0  0  0
 59 58  1  0  0  0  0
 61 60  1  1  0  0  0
 61 62  1  0  0  0  0
 61 53  1  0  0  0  0
 63 62  1  0  0  0  0
 64 63  1  0  0  0  0
M  END
>  <MODEL>
3

>  <REMARK>
 VINA RESULT:      -6.0      3.245     10.016
  Name = 
  21 active torsions:
  status: ('A' for Active; 'I' for Inactive)
    1  A    between atoms: C_1  and  O_17
    2  A    between atoms: C_7  and  C_15
    3  A    between atoms: C_7  and  C_39
    4  A    between atoms: C_9  and  C_12
    5  A    between atoms: C_9  and  C_28
    6  A    between atoms: O_17  and  C_29
    7  A    between atoms: C_19  and  N_61
    8  A    between atoms: C_25  and  C_44
    9  A    between atoms: N_27  and  C_28
   10  A    between atoms: C_28  and  C_54
   11  A    between atoms: C_29  and  C_63
   12  A    between atoms: C_31  and  C_48
   13  A    between atoms: C_32  and  C_62
   14  A    between atoms: C_35  and  C_48
   15  A    between atoms: C_35  and  C_60
   16  A    between atoms: C_40  and  C_52
   17  A    between atoms: C_41  and  C_56
   18  A    between atoms: C_44  and  C_52
   19  A    between atoms: C_53  and  C_63
   20  A    between atoms: C_54  and  C_57
   21  A    between atoms: C_60  and  C_63
                            x       y       z     vdW  Elec       q    Type
                         _______ _______ _______ _____ _____    ______ ____

>  <TORSDO>
F 21

$$$$
=
 OpenBabel11032419593D

 64 71  0  0  1  0  0  0  0  0999 V2000
  188.3660  178.0620  140.2990 C   0  0  0  0  0  3  0  0  0  0  0  0
  189.3160  177.1400  140.3310 C   0  0  0  0  0  0  0  0  0  0  0  0
  187.6850  178.2500  138.9930 C   0  0  1  0  0  3  0  0  0  0  0  0
  189.5810  176.4300  139.0500 C   0  0  1  0  0  3  0  0  0  0  0  0
  188.2650  176.9150  137.8870 S   0  0  0  0  0  0  0  0  0  0  0  0
  189.6290  175.9630  142.5930 C   0  0  0  0  0  0  0  0  0  0  0  0
  191.6690  176.7510  143.3220 C   0  0  2  0  0  3  0  0  0  0  0  0
  191.2900  177.3190  141.9860 C   0  0  0  0  0  0  0  0  0  0  0  0
  188.5470  175.3160  142.6020 O   0  0  0  0  0  0  0  0  0  0  0  0
  192.0130  178.1050  141.3130 O   0  0  0  0  0  0  0  0  0  0  0  0
  190.5490  175.9240  143.6320 O   0  0  0  0  0  0  0  0  0  0  0  0
  190.0310  176.8230  141.5370 N   0  0  0  0  0  0  0  0  0  0  0  0
  191.8050  177.8510  144.3640 C   0  0  0  0  0  2  0  0  0  0  0  0
  191.1230  177.4370  145.6580 C   0  0  1  0  0  3  0  0  0  0  0  0
  189.7210  177.1340  145.4110 N   0  0  0  0  0  2  0  0  0  0  0  0
  188.9600  178.3310  147.2670 O   0  0  0  0  0  0  0  0  0  0  0  0
  188.6820  177.6030  146.2740 C   0  0  0  0  0  0  0  0  0  0  0  0
  185.2390  179.1940  143.8440 O   0  0  0  0  0  1  0  0  0  0  0  0
  185.2660  178.4030  146.0650 C   0  0  0  0  0  0  0  0  0  0  0  0
  185.3750  178.0480  144.6350 C   0  0  2  0  0  3  0  0  0  0  0  0
  187.2590  177.2140  145.9950 C   0  0  2  0  0  3  0  0  0  0  0  0
  184.2930  179.0320  146.5560 O   0  0  0  0  0  0  0  0  0  0  0  0
  187.6520  178.2860  143.8290 O   0  0  0  0  0  1  0  0  0  0  0  0
  186.7870  177.4410  144.5350 C   0  0  2  0  0  3  0  0  0  0  0  0
  186.3490  177.9520  146.8520 N   0  0  0  0  0  2  0  0  0  0  0  0
  191.8260  176.2440  146.3210 C   0  0  0  0  0  2  0  0  0  0  0  0
  193.0880  175.9570  148.3350 O   0  0  0  0  0  1  0  0  0  0  0  0
  191.8410  176.3400  147.8440 C   0  0  0  0  0  2  0  0  0  0  0  0
  190.9410  176.8550  138.5110 C   0  0  0  0  0  2  0  0  0  0  0  0
  191.6220  175.7370  137.7960 C   0  0  0  0  0  0  0  0  0  0  0  0
  192.9690  175.8290  137.4390 C   0  0  0  0  0  3  0  0  0  0  0  0
  192.8390  173.6250  136.4790 C   0  0  0  0  0  3  0  0  0  0  0  0
  191.5260  173.5580  136.8290 N   0  0  0  0  0  0  0  0  0  0  0  0
  193.6000  174.7680  136.7740 C   0  0  0  0  0  0  0  0  0  0  0  0
  190.9100  174.5810  137.4770 C   0  0  0  0  0  3  0  0  0  0  0  0
  199.1790  174.9170  138.3210 O   0  0  0  0  0  1  0  0  0  0  0  0
  196.0120  174.3140  137.3030 C   0  0  0  0  0  3  0  0  0  0  0  0
  199.1450  174.7810  135.9560 C   0  0  0  0  0  2  0  0  0  0  0  0
  197.3220  174.4350  136.8870 C   0  0  0  0  0  0  0  0  0  0  0  0
  195.4300  175.4370  135.1640 C   0  0  0  0  0  3  0  0  0  0  0  0
  196.7850  175.5460  134.7580 C   0  0  0  0  0  3  0  0  0  0  0  0
  199.0600  172.8360  137.3080 O   0  0  0  0  0  1  0  0  0  0  0  0
  197.6990  175.0320  135.6570 C   0  0  0  0  0  0  0  0  0  0  0  0
  195.0360  174.8400  136.4100 C   0  0  0  0  0  0  0  0  0  0  0  0
  198.7480  174.1900  137.2120 C   0  0  0  0  0  0  0  0  0  0  0  0
  186.1760  178.1490  139.1970 C   0  0  0  0  0  2  0  0  0  0  0  0
  185.7340  178.8770  140.4590 C   0  0  0  0  0  2  0  0  0  0  0  0
  183.5230  177.8020  140.4330 C   0  0  0  0  0  3  0  0  0  0  0  0
  184.2450  178.9140  140.5830 C   0  0  0  0  0  3  0  0  0  0  0  0
  182.0310  177.8420  140.4940 C   0  0  0  0  0  2  0  0  0  0  0  0
  181.4180  176.5810  139.9070 C   0  0  0  0  0  2  0  0  0  0  0  0
  180.5150  176.9430  138.7340 C   0  0  0  0  0  2  0  0  0  0  0  0
  180.9550  176.2590  137.4330 C   0  0  1  0  0  3  0  0  0  0  0  0
  184.3850  175.8960  135.8210 C   0  0  0  0  0  2  0  0  0  0  0  0
  184.3970  174.8240  136.8980 C   0  0  0  0  0  2  0  0  0  0  0  0
  183.0470  176.6070  135.9140 C   0  0  2  0  0  3  0  0  0  0  0  0
  183.3900  175.2640  137.9400 C   0  0  0  0  0  2  0  0  0  0  0  0
  183.0680  177.5110  137.0050 O   0  0  0  0  0  0  0  0  0  0  0  0
  182.4860  176.2530  137.2330 C   0  0  2  0  0  0  0  0  0  0  0  0
  178.9420  174.7690  137.9190 C   0  0  0  0  0  1  0  0  0  0  0  0
  180.3290  174.8570  137.2900 C   0  0  2  0  0  3  0  0  0  0  0  0
  181.1620  173.8750  137.8370 O   0  0  0  0  0  0  0  0  0  0  0  0
  181.0590  172.7940  136.9540 C   0  0  0  0  0  2  0  0  0  0  0  0
  180.8870  171.6170  137.6800 O   0  0  0  0  0  1  0  0  0  0  0  0
  1  2  2  0  0  0  0
  2 12  1  0  0  0  0
  3 46  1  1  0  0  0
  3  1  1  0  0  0  0
  4 29  1  6  0  0  0
  4  2  1  0  0  0  0
  5  3  1  0  0  0  0
  5  4  1  0  0  0  0
  6  9  2  0  0  0  0
  6 11  1  0  0  0  0
  7 11  1  0  0  0  0
  7 13  1  1  0  0  0
  8  7  1  0  0  0  0
 10  8  2  0  0  0  0
 12  8  1  0  0  0  0
 12  6  1  0  0  0  0
 14 13  1  6  0  0  0
 14 26  1  0  0  0  0
 15 14  1  0  0  0  0
 15 17  1  0  0  0  0
 17 16  2  0  0  0  0
 19 22  2  0  0  0  0
 19 25  1  0  0  0  0
 20 18  1  6  0  0  0
 20 19  1  0  0  0  0
 21 17  1  6  0  0  0
 21 25  1  0  0  0  0
 24 23  1  1  0  0  0
 24 20  1  0  0  0  0
 24 21  1  0  0  0  0
 26 28  1  0  0  0  0
 28 27  1  0  0  0  0
 30 29  1  0  0  0  0
 31 30  2  0  0  0  0
 32 34  2  0  0  0  0
 32 33  1  0  0  0  0
 33 35  2  0  0  0  0
 34 31  1  0  0  0  0
 35 30  1  0  0  0  0
 38 45  1  0  0  0  0
 39 45  1  0  0  0  0
 39 37  1  0  0  0  0
 40 44  1  0  0  0  0
 41 40  2  0  0  0  0
 41 43  1  0  0  0  0
 43 38  1  0  0  0  0
 43 39  2  0  0  0  0
 44 34  1  0  0  0  0
 44 37  2  0  0  0  0
 45 42  1  0  0  0  0
 45 36  1  0  0  0  0
 46 47  1  0  0  0  0
 47 49  1  0  0  0  0
 48 50  1  0  0  0  0
 48 49  2  0  0  0  0
 51 50  1  0  0  0  0
 52 51  1  0  0  0  0
 53 52  1  1  0  0  0
 54 55  1  0  0  0  0
 55 57  1  0  0  0  0
 56 54  1  1  0  0  0
 56 58  1  0  0  0  0
 56 59  1  0  0  0  0
 58 59  1  0  0  0  0
 59 53  1  1  0  0  0
 59 57  1  0  0  0  0
 61 53  1  0  0  0  0
 61 62  1  0  0  0  0
 61 60  1  1  0  0  0
 63 64  1  0  0  0  0
 63 62  1  0  0  0  0
M  END
>  <MODEL>
4

>  <REMARK>
 VINA RESULT:      -5.8      3.320      9.966
  Name = 
  21 active torsions:
  status: ('A' for Active; 'I' for Inactive)
    1  A    between atoms: C_1  and  O_17
    2  A    between atoms: C_7  and  C_15
    3  A    between atoms: C_7  and  C_39
    4  A    between atoms: C_9  and  C_12
    5  A    between atoms: C_9  and  C_28
    6  A    between atoms: O_17  and  C_29
    7  A    between atoms: C_19  and  N_61
    8  A    between atoms: C_25  and  C_44
    9  A    between atoms: N_27  and  C_28
   10  A    between atoms: C_28  and  C_54
   11  A    between atoms: C_29  and  C_63
   12  A    between atoms: C_31  and  C_48
   13  A    between atoms: C_32  and  C_62
   14  A    between atoms: C_35  and  C_48
   15  A    between atoms: C_35  and  C_60
   16  A    between atoms: C_40  and  C_52
   17  A    between atoms: C_41  and  C_56
   18  A    between atoms: C_44  and  C_52
   19  A    between atoms: C_53  and  C_63
   20  A    between atoms: C_54  and  C_57
   21  A    between atoms: C_60  and  C_63
                            x       y       z     vdW  Elec       q    Type
                         _______ _______ _______ _____ _____    ______ ____

>  <TORSDO>
F 21

$$$$
=
 OpenBabel11032419593D

 64 71  0  0  1  0  0  0  0  0999 V2000
  182.1440  177.9070  139.5820 C   0  0  0  0  0  3  0  0  0  0  0  0
  182.6790  177.9140  138.3710 C   0  0  0  0  0  0  0  0  0  0  0  0
  183.0420  178.3120  140.6930 C   0  0  1  0  0  3  0  0  0  0  0  0
  184.1120  178.3100  138.2910 C   0  0  1  0  0  3  0  0  0  0  0  0
  184.5860  178.9310  139.9370 S   0  0  0  0  0  0  0  0  0  0  0  0
  181.2420  178.4670  136.3150 C   0  0  0  0  0  0  0  0  0  0  0  0
  180.7630  176.3940  135.4290 C   0  0  2  0  0  3  0  0  0  0  0  0
  181.6180  176.2980  136.6590 C   0  0  0  0  0  0  0  0  0  0  0  0
  181.2410  179.7220  136.4380 O   0  0  0  0  0  0  0  0  0  0  0  0
  182.0610  175.2180  137.1380 O   0  0  0  0  0  0  0  0  0  0  0  0
  180.5610  177.8010  135.3060 O   0  0  0  0  0  0  0  0  0  0  0  0
  181.9160  177.5830  137.1970 N   0  0  0  0  0  0  0  0  0  0  0  0
  179.4280  175.6950  135.6370 C   0  0  0  0  0  2  0  0  0  0  0  0
  179.5840  174.1960  135.4390 C   0  0  1  0  0  3  0  0  0  0  0  0
  180.9790  173.8640  135.1930 N   0  0  0  0  0  2  0  0  0  0  0  0
  180.5350  171.6300  134.6790 O   0  0  0  0  0  0  0  0  0  0  0  0
  181.3910  172.5450  134.8290 C   0  0  0  0  0  0  0  0  0  0  0  0
  185.0480  172.1590  137.4310 O   0  0  0  0  0  1  0  0  0  0  0  0
  184.7740  173.3150  135.3930 C   0  0  0  0  0  0  0  0  0  0  0  0
  184.8580  171.9970  136.0540 C   0  0  2  0  0  3  0  0  0  0  0  0
  182.8510  172.2530  134.6390 C   0  0  2  0  0  3  0  0  0  0  0  0
  185.6530  174.2080  135.5030 O   0  0  0  0  0  0  0  0  0  0  0  0
  182.6920  171.2710  136.8760 O   0  0  0  0  0  1  0  0  0  0  0  0
  183.4940  171.3590  135.7310 C   0  0  2  0  0  3  0  0  0  0  0  0
  183.6190  173.4850  134.5980 N   0  0  0  0  0  2  0  0  0  0  0  0
  179.0400  173.4010  136.6340 C   0  0  0  0  0  2  0  0  0  0  0  0
  180.1080  172.1780  138.3930 O   0  0  0  0  0  1  0  0  0  0  0  0
  179.9650  173.4520  137.8470 C   0  0  0  0  0  2  0  0  0  0  0  0
  184.9520  177.0910  137.9280 C   0  0  0  0  0  2  0  0  0  0  0  0
  186.3080  177.4850  137.4470 C   0  0  0  0  0  0  0  0  0  0  0  0
  187.3840  176.5980  137.5340 C   0  0  0  0  0  3  0  0  0  0  0  0
  188.8040  178.2640  136.5310 C   0  0  0  0  0  3  0  0  0  0  0  0
  187.7450  179.1140  136.4620 N   0  0  0  0  0  0  0  0  0  0  0  0
  188.6530  176.9770  137.0720 C   0  0  0  0  0  0  0  0  0  0  0  0
  186.5120  178.7530  136.9040 C   0  0  0  0  0  3  0  0  0  0  0  0
  194.2910  175.8690  136.3450 O   0  0  0  0  0  1  0  0  0  0  0  0
  191.1180  176.5520  137.2910 C   0  0  0  0  0  3  0  0  0  0  0  0
  193.3530  173.9350  137.3410 C   0  0  0  0  0  2  0  0  0  0  0  0
  192.1220  175.6070  137.3270 C   0  0  0  0  0  0  0  0  0  0  0  0
  189.5730  174.6220  137.0360 C   0  0  0  0  0  3  0  0  0  0  0  0
  190.6230  173.6710  137.0790 C   0  0  0  0  0  3  0  0  0  0  0  0
  194.1150  175.7560  138.6540 O   0  0  0  0  0  1  0  0  0  0  0  0
  191.8850  174.2120  137.2230 C   0  0  0  0  0  0  0  0  0  0  0  0
  189.7990  176.0380  137.1340 C   0  0  0  0  0  0  0  0  0  0  0  0
  193.5800  175.3580  137.4310 C   0  0  0  0  0  0  0  0  0  0  0  0
  182.3700  179.4160  141.5020 C   0  0  0  0  0  2  0  0  0  0  0  0
  181.8250  178.8900  142.8220 C   0  0  0  0  0  2  0  0  0  0  0  0
  183.5310  179.1840  144.5680 C   0  0  0  0  0  3  0  0  0  0  0  0
  182.9160  178.3740  143.7040 C   0  0  0  0  0  3  0  0  0  0  0  0
  184.6640  178.6920  145.4080 C   0  0  0  0  0  2  0  0  0  0  0  0
  185.6110  177.8170  144.6040 C   0  0  0  0  0  2  0  0  0  0  0  0
  187.0220  178.3860  144.6720 C   0  0  0  0  0  2  0  0  0  0  0  0
  188.0690  177.3020  144.9660 C   0  0  1  0  0  3  0  0  0  0  0  0
  191.5100  176.8560  143.3970 C   0  0  0  0  0  2  0  0  0  0  0  0
  191.2450  178.3420  143.2260 C   0  0  0  0  0  2  0  0  0  0  0  0
  190.2890  176.2600  144.0750 C   0  0  2  0  0  3  0  0  0  0  0  0
  189.7400  178.5080  143.2530 C   0  0  0  0  0  2  0  0  0  0  0  0
  189.2500  176.1050  143.1240 O   0  0  0  0  0  0  0  0  0  0  0  0
  189.2110  177.2580  143.9260 C   0  0  2  0  0  0  0  0  0  0  0  0
  187.9130  178.5090  147.2080 C   0  0  0  0  0  1  0  0  0  0  0  0
  188.5860  177.3930  146.4160 C   0  0  2  0  0  3  0  0  0  0  0  0
  189.9750  177.5590  146.4470 O   0  0  0  0  0  0  0  0  0  0  0  0
  190.3780  176.9360  147.6340 C   0  0  0  0  0  2  0  0  0  0  0  0
  191.6710  176.4370  147.4800 O   0  0  0  0  0  1  0  0  0  0  0  0
  1  3  1  0  0  0  0
  2  1  2  0  0  0  0
  3 46  1  6  0  0  0
  4 29  1  1  0  0  0
  4  2  1  0  0  0  0
  4  5  1  0  0  0  0
  5  3  1  0  0  0  0
  6  9  2  0  0  0  0
  6 12  1  0  0  0  0
  7 13  1  1  0  0  0
  7  8  1  0  0  0  0
  8 10  2  0  0  0  0
  8 12  1  0  0  0  0
 11  7  1  0  0  0  0
 11  6  1  0  0  0  0
 12  2  1  0  0  0  0
 14 13  1  1  0  0  0
 14 26  1  0  0  0  0
 15 14  1  0  0  0  0
 16 17  2  0  0  0  0
 17 15  1  0  0  0  0
 19 22  2  0  0  0  0
 19 20  1  0  0  0  0
 20 18  1  1  0  0  0
 21 17  1  1  0  0  0
 21 24  1  0  0  0  0
 24 20  1  0  0  0  0
 24 23  1  1  0  0  0
 25 21  1  0  0  0  0
 25 19  1  0  0  0  0
 26 28  1  0  0  0  0
 28 27  1  0  0  0  0
 30 31  1  0  0  0  0
 30 29  1  0  0  0  0
 32 34  1  0  0  0  0
 33 32  2  0  0  0  0
 33 35  1  0  0  0  0
 34 44  1  0  0  0  0
 34 31  2  0  0  0  0
 35 30  2  0  0  0  0
 36 45  1  0  0  0  0
 37 39  1  0  0  0  0
 38 45  1  0  0  0  0
 39 45  1  0  0  0  0
 40 41  2  0  0  0  0
 40 44  1  0  0  0  0
 41 43  1  0  0  0  0
 43 39  2  0  0  0  0
 43 38  1  0  0  0  0
 44 37  2  0  0  0  0
 45 42  1  0  0  0  0
 46 47  1  0  0  0  0
 47 49  1  0  0  0  0
 48 50  1  0  0  0  0
 49 48  2  0  0  0  0
 51 52  1  0  0  0  0
 51 50  1  0  0  0  0
 53 52  1  6  0  0  0
 53 61  1  0  0  0  0
 55 57  1  0  0  0  0
 55 54  1  0  0  0  0
 56 54  1  6  0  0  0
 57 59  1  0  0  0  0
 58 59  1  0  0  0  0
 58 56  1  0  0  0  0
 59 56  1  0  0  0  0
 59 53  1  1  0  0  0
 61 62  1  0  0  0  0
 61 60  1  6  0  0  0
 62 63  1  0  0  0  0
 64 63  1  0  0  0  0
M  END
>  <MODEL>
5

>  <REMARK>
 VINA RESULT:      -5.3      1.482      2.957
  Name = 
  21 active torsions:
  status: ('A' for Active; 'I' for Inactive)
    1  A    between atoms: C_1  and  O_17
    2  A    between atoms: C_7  and  C_15
    3  A    between atoms: C_7  and  C_39
    4  A    between atoms: C_9  and  C_12
    5  A    between atoms: C_9  and  C_28
    6  A    between atoms: O_17  and  C_29
    7  A    between atoms: C_19  and  N_61
    8  A    between atoms: C_25  and  C_44
    9  A    between atoms: N_27  and  C_28
   10  A    between atoms: C_28  and  C_54
   11  A    between atoms: C_29  and  C_63
   12  A    between atoms: C_31  and  C_48
   13  A    between atoms: C_32  and  C_62
   14  A    between atoms: C_35  and  C_48
   15  A    between atoms: C_35  and  C_60
   16  A    between atoms: C_40  and  C_52
   17  A    between atoms: C_41  and  C_56
   18  A    between atoms: C_44  and  C_52
   19  A    between atoms: C_53  and  C_63
   20  A    between atoms: C_54  and  C_57
   21  A    between atoms: C_60  and  C_63
                            x       y       z     vdW  Elec       q    Type
                         _______ _______ _______ _____ _____    ______ ____

>  <TORSDO>
F 21

$$$$
=
 OpenBabel11032419593D

 64 71  0  0  1  0  0  0  0  0999 V2000
  182.6970  178.6180  142.5700 C   0  0  0  0  0  3  0  0  0  0  0  0
  182.5170  178.8360  141.2760 C   0  0  0  0  0  0  0  0  0  0  0  0
  184.1060  178.4840  143.0180 C   0  0  1  0  0  3  0  0  0  0  0  0
  183.7520  178.8990  140.4470 C   0  0  1  0  0  3  0  0  0  0  0  0
  185.1670  178.9170  141.5940 S   0  0  0  0  0  0  0  0  0  0  0  0
  180.0130  178.3300  141.0170 C   0  0  0  0  0  0  0  0  0  0  0  0
  179.3470  179.7830  139.3570 C   0  0  2  0  0  3  0  0  0  0  0  0
  180.8070  179.9220  139.6750 C   0  0  0  0  0  0  0  0  0  0  0  0
  179.9280  177.4240  141.8900 O   0  0  0  0  0  0  0  0  0  0  0  0
  181.5800  180.7590  139.1330 O   0  0  0  0  0  0  0  0  0  0  0  0
  178.9380  178.7400  140.2400 O   0  0  0  0  0  0  0  0  0  0  0  0
  181.2100  179.0260  140.7080 N   0  0  0  0  0  0  0  0  0  0  0  0
  179.1420  179.3510  137.9130 C   0  0  0  0  0  2  0  0  0  0  0  0
  180.3510  178.5720  137.4210 C   0  0  1  0  0  3  0  0  0  0  0  0
  179.9510  177.2390  136.9970 N   0  0  0  0  0  2  0  0  0  0  0  0
  182.1430  176.4580  136.7980 O   0  0  0  0  0  0  0  0  0  0  0  0
  180.9080  176.2250  136.6820 C   0  0  0  0  0  0  0  0  0  0  0  0
  180.6340  172.0360  138.3150 O   0  0  0  0  0  1  0  0  0  0  0  0
  181.4080  172.7770  136.2140 C   0  0  0  0  0  0  0  0  0  0  0  0
  180.2360  172.5920  137.0950 C   0  0  2  0  0  3  0  0  0  0  0  0
  180.4330  174.8850  136.2010 C   0  0  2  0  0  3  0  0  0  0  0  0
  182.2070  171.8540  135.9130 O   0  0  0  0  0  0  0  0  0  0  0  0
  179.9120  174.4990  138.5620 O   0  0  0  0  0  1  0  0  0  0  0  0
  179.6970  174.0250  137.2610 C   0  0  2  0  0  3  0  0  0  0  0  0
  181.5460  174.0900  135.7130 N   0  0  0  0  0  2  0  0  0  0  0  0
  181.0830  179.3040  136.2880 C   0  0  0  0  0  2  0  0  0  0  0  0
  180.8990  181.0640  134.6750 O   0  0  0  0  0  1  0  0  0  0  0  0
  180.1520  180.1840  135.4560 C   0  0  0  0  0  2  0  0  0  0  0  0
  183.8190  177.6690  139.5490 C   0  0  0  0  0  2  0  0  0  0  0  0
  184.8700  177.8140  138.5000 C   0  0  0  0  0  0  0  0  0  0  0  0
  185.4240  176.6900  137.8820 C   0  0  0  0  0  3  0  0  0  0  0  0
  186.8120  178.1390  136.5520 C   0  0  0  0  0  3  0  0  0  0  0  0
  186.2650  179.2200  137.1700 N   0  0  0  0  0  0  0  0  0  0  0  0
  186.4070  176.8390  136.8930 C   0  0  0  0  0  0  0  0  0  0  0  0
  185.3100  179.0830  138.1280 C   0  0  0  0  0  3  0  0  0  0  0  0
  187.5020  171.1530  136.7340 O   0  0  0  0  0  1  0  0  0  0  0  0
  186.4650  174.3620  136.4850 C   0  0  0  0  0  3  0  0  0  0  0  0
  188.2030  172.0280  134.6470 C   0  0  0  0  0  2  0  0  0  0  0  0
  187.0730  173.3220  135.8120 C   0  0  0  0  0  0  0  0  0  0  0  0
  188.0670  175.8280  135.2770 C   0  0  0  0  0  3  0  0  0  0  0  0
  188.6730  174.7420  134.5950 C   0  0  0  0  0  3  0  0  0  0  0  0
  185.9610  171.3520  135.0140 O   0  0  0  0  0  1  0  0  0  0  0  0
  188.1430  173.5030  134.8980 C   0  0  0  0  0  0  0  0  0  0  0  0
  186.9870  175.6580  136.2090 C   0  0  0  0  0  0  0  0  0  0  0  0
  187.1240  171.8570  135.5900 C   0  0  0  0  0  0  0  0  0  0  0  0
  184.3560  179.4460  144.1750 C   0  0  0  0  0  2  0  0  0  0  0  0
  183.6650  178.9800  145.4490 C   0  0  0  0  0  2  0  0  0  0  0  0
  185.9220  178.9950  146.4240 C   0  0  0  0  0  3  0  0  0  0  0  0
  184.6510  178.5960  146.5040 C   0  0  0  0  0  3  0  0  0  0  0  0
  186.9270  178.5640  147.4420 C   0  0  0  0  0  2  0  0  0  0  0  0
  187.7710  177.4070  146.9320 C   0  0  0  0  0  2  0  0  0  0  0  0
  187.4550  177.1450  145.4650 C   0  0  0  0  0  2  0  0  0  0  0  0
  188.2580  178.0580  144.5280 C   0  0  1  0  0  3  0  0  0  0  0  0
  192.0080  178.4240  143.9830 C   0  0  0  0  0  2  0  0  0  0  0  0
  191.7900  176.9240  143.8750 C   0  0  0  0  0  2  0  0  0  0  0  0
  190.6570  179.0510  144.2780 C   0  0  2  0  0  3  0  0  0  0  0  0
  190.5200  176.6270  144.6430 C   0  0  0  0  0  2  0  0  0  0  0  0
  190.3370  178.8610  145.6450 O   0  0  0  0  0  0  0  0  0  0  0  0
  189.7850  177.9490  144.7310 C   0  0  2  0  0  0  0  0  0  0  0  0
  187.3120  176.4680  142.7720 C   0  0  0  0  0  1  0  0  0  0  0  0
  187.8360  177.8720  143.0570 C   0  0  2  0  0  3  0  0  0  0  0  0
  188.8910  178.1710  142.1880 O   0  0  0  0  0  0  0  0  0  0  0  0
  188.4570  177.7180  140.9370 C   0  0  0  0  0  2  0  0  0  0  0  0
  189.2070  178.3320  139.9350 O   0  0  0  0  0  1  0  0  0  0  0  0
  1  3  1  0  0  0  0
  2  1  2  0  0  0  0
  3 46  1  1  0  0  0
  4 29  1  6  0  0  0
  4  2  1  0  0  0  0
  4  5  1  0  0  0  0
  5  3  1  0  0  0  0
  6  9  2  0  0  0  0
  7 13  1  6  0  0  0
  7  8  1  0  0  0  0
  7 11  1  0  0  0  0
  8 12  1  0  0  0  0
 10  8  2  0  0  0  0
 11  6  1  0  0  0  0
 12  6  1  0  0  0  0
 12  2  1  0  0  0  0
 14 26  1  6  0  0  0
 14 13  1  0  0  0  0
 15 14  1  0  0  0  0
 17 16  2  0  0  0  0
 17 15  1  0  0  0  0
 19 20  1  0  0  0  0
 20 24  1  0  0  0  0
 20 18  1  1  0  0  0
 21 17  1  1  0  0  0
 21 24  1  0  0  0  0
 22 19  2  0  0  0  0
 24 23  1  1  0  0  0
 25 21  1  0  0  0  0
 25 19  1  0  0  0  0
 27 28  1  0  0  0  0
 28 26  1  0  0  0  0
 30 29  1  0  0  0  0
 31 30  2  0  0  0  0
 32 34  2  0  0  0  0
 32 33  1  0  0  0  0
 33 35  2  0  0  0  0
 34 31  1  0  0  0  0
 35 30  1  0  0  0  0
 38 43  1  0  0  0  0
 38 45  1  0  0  0  0
 39 37  2  0  0  0  0
 40 44  2  0  0  0  0
 41 43  2  0  0  0  0
 41 40  1  0  0  0  0
 42 45  1  0  0  0  0
 43 39  1  0  0  0  0
 44 37  1  0  0  0  0
 44 34  1  0  0  0  0
 45 39  1  0  0  0  0
 45 36  1  0  0  0  0
 46 47  1  0  0  0  0
 47 49  1  0  0  0  0
 48 49  2  0  0  0  0
 48 50  1  0  0  0  0
 51 50  1  0  0  0  0
 52 51  1  0  0  0  0
 53 52  1  1  0  0  0
 55 54  1  0  0  0  0
 55 57  1  0  0  0  0
 56 54  1  1  0  0  0
 56 59  1  0  0  0  0
 56 58  1  0  0  0  0
 57 59  1  0  0  0  0
 59 53  1  6  0  0  0
 59 58  1  0  0  0  0
 61 60  1  1  0  0  0
 61 53  1  0  0  0  0
 62 61  1  0  0  0  0
 63 62  1  0  0  0  0
 64 63  1  0  0  0  0
M  END
>  <MODEL>
6

>  <REMARK>
 VINA RESULT:      -4.7      2.259      3.377
  Name = 
  21 active torsions:
  status: ('A' for Active; 'I' for Inactive)
    1  A    between atoms: C_1  and  O_17
    2  A    between atoms: C_7  and  C_15
    3  A    between atoms: C_7  and  C_39
    4  A    between atoms: C_9  and  C_12
    5  A    between atoms: C_9  and  C_28
    6  A    between atoms: O_17  and  C_29
    7  A    between atoms: C_19  and  N_61
    8  A    between atoms: C_25  and  C_44
    9  A    between atoms: N_27  and  C_28
   10  A    between atoms: C_28  and  C_54
   11  A    between atoms: C_29  and  C_63
   12  A    between atoms: C_31  and  C_48
   13  A    between atoms: C_32  and  C_62
   14  A    between atoms: C_35  and  C_48
   15  A    between atoms: C_35  and  C_60
   16  A    between atoms: C_40  and  C_52
   17  A    between atoms: C_41  and  C_56
   18  A    between atoms: C_44  and  C_52
   19  A    between atoms: C_53  and  C_63
   20  A    between atoms: C_54  and  C_57
   21  A    between atoms: C_60  and  C_63
                            x       y       z     vdW  Elec       q    Type
                         _______ _______ _______ _____ _____    ______ ____

>  <TORSDO>
F 21

$$$$
