=
 OpenBabel11042413153D

 61 64  0  0  1  0  0  0  0  0999 V2000
  185.8780  178.3060  143.3050 C   0  0  2  0  0  3  0  0  0  0  0  0
  184.3560  178.2880  143.0200 C   0  0  1  0  0  3  0  0  0  0  0  0
  183.5620  179.2380  143.9360 C   0  0  0  0  0  2  0  0  0  0  0  0
  182.0640  179.1880  143.6360 C   0  0  0  0  0  1  0  0  0  0  0  0
  184.0090  178.5600  141.5310 C   0  0  0  0  0  2  0  0  0  0  0  0
  183.3280  177.3820  140.8470 C   0  0  0  0  0  2  0  0  0  0  0  0
  183.0170  177.6090  139.3650 C   0  0  1  0  0  3  0  0  0  0  0  0
  184.2780  178.1180  138.6610 C   0  0  0  0  0  1  0  0  0  0  0  0
  182.5230  176.3520  138.6460 C   0  0  0  0  0  2  0  0  0  0  0  0
  182.4590  176.5850  137.2170 N   0  0  0  0  0  2  0  0  0  0  0  0
  180.7260  177.1440  135.6760 N   0  0  0  0  0  2  0  0  0  0  0  0
  181.2800  177.4130  137.0040 C   0  0  2  0  0  3  0  0  0  0  0  0
  181.5030  178.3810  135.9230 C   0  0  2  0  0  3  0  0  0  0  0  0
  180.5660  179.5800  136.0070 C   0  0  0  0  0  0  0  0  0  0  0  0
  179.5580  179.7000  135.0730 O   0  0  0  0  0  1  0  0  0  0  0  0
  180.6910  180.4870  136.9880 C   0  0  0  0  0  3  0  0  0  0  0  0
  179.9280  181.7790  137.1610 C   0  0  2  0  0  3  0  0  0  0  0  0
  180.5490  183.2080  136.2650 S   0  0  0  0  0  0  0  0  0  0  0  0
  180.9370  182.7470  134.8920 O   0  0  0  0  0  0  0  0  0  0  0  0
  179.4370  184.2200  136.1300 O   0  0  0  0  0  0  0  0  0  0  0  0
  181.5090  185.1890  137.5800 C   0  0  0  0  0  1  0  0  0  0  0  0
  181.9280  183.9060  137.0470 N   0  0  0  0  0  2  0  0  0  0  0  0
  179.7010  182.0790  138.6430 C   0  0  0  0  0  2  0  0  0  0  0  0
  179.2620  180.8260  139.3800 C   0  0  0  0  0  2  0  0  0  0  0  0
  180.3840  180.3560  140.2870 C   0  0  0  0  0  1  0  0  0  0  0  0
  186.7180  177.6520  142.1890 C   0  0  0  0  0  2  0  0  0  0  0  0
  187.1710  178.7250  141.2230 C   0  0  0  0  0  2  0  0  0  0  0  0
  187.5570  178.1130  139.8900 C   0  0  0  0  0  2  0  0  0  0  0  0
  188.8300  178.8000  139.4160 C   0  0  0  0  0  2  0  0  0  0  0  0
  190.1500  174.6580  137.2800 C   0  0  0  0  0  2  0  0  0  0  0  0
  188.8320  174.5310  136.4880 C   0  0  1  0  0  3  0  0  0  0  0  0
  188.6600  177.0660  136.0410 C   0  0  0  0  0  0  0  0  0  0  0  0
  187.7920  175.1700  137.1860 O   0  0  0  0  0  0  0  0  0  0  0  0
  189.4460  177.4980  135.2130 O   0  0  0  0  0  0  0  0  0  0  0  0
  188.2620  177.9260  137.2010 C   0  0  0  0  0  2  0  0  0  0  0  0
  189.3920  178.0550  138.2190 C   0  0  2  0  0  3  0  0  0  0  0  0
  189.9060  176.6940  138.6980 C   0  0  0  0  0  2  0  0  0  0  0  0
  190.7390  176.0320  137.6210 C   0  0  1  0  0  3  0  0  0  0  0  0
  188.0810  175.6900  135.8990 C   0  0  2  0  0  3  0  0  0  0  0  0
  192.1590  175.8590  138.1560 C   0  0  0  0  0  2  0  0  0  0  0  0
  193.1150  175.3530  137.0740 C   0  0  0  0  0  2  0  0  0  0  0  0
  195.1370  171.2210  137.3440 C   0  0  0  0  0  2  0  0  0  0  0  0
  193.8820  171.6410  136.5970 C   0  0  0  0  0  2  0  0  0  0  0  0
  193.7860  174.0240  137.4280 C   0  0  2  0  0  3  0  0  0  0  0  0
  195.9840  173.0140  138.3090 C   0  0  0  0  0  2  0  0  0  0  0  0
  195.2020  171.8870  138.5750 O   0  0  0  0  0  0  0  0  0  0  0  0
  195.1040  174.2580  138.1880 C   0  0  0  0  0  2  0  0  0  0  0  0
  193.9210  173.1090  136.2010 C   0  0  0  0  0  2  0  0  0  0  0  0
  186.1150  177.6520  144.6810 C   0  0  0  0  0  2  0  0  0  0  0  0
  185.6910  178.1460  146.9070 C   0  0  0  0  0  1  0  0  0  0  0  0
  186.4630  178.5850  145.7490 N   0  0  0  0  0  0  0  0  0  0  0  0
  187.8800  178.3400  146.0350 C   0  0  0  0  0  2  0  0  0  0  0  0
  188.4320  176.9980  145.5440 C   0  0  0  0  0  2  0  0  0  0  0  0
  189.5470  177.0500  144.4980 C   0  0  2  0  0  3  0  0  0  0  0  0
  190.9200  179.1130  144.4940 C   0  0  0  0  0  1  0  0  0  0  0  0
  189.6560  178.4690  143.9620 C   0  0  0  0  0  2  0  0  0  0  0  0
  189.1930  176.1750  143.3870 N   0  0  0  0  0  2  0  0  0  0  0  0
  190.3250  175.2900  143.1300 C   0  0  0  0  0  2  0  0  0  0  0  0
  192.2490  176.8320  142.7350 O   0  0  0  0  0  0  0  0  0  0  0  0
  191.5880  175.9530  143.5690 C   0  0  0  0  0  0  0  0  0  0  0  0
  192.0320  175.7240  144.7260 O   0  0  0  0  0  1  0  0  0  0  0  0
  1 26  1  6  0  0  0
  1 49  1  0  0  0  0
  2  5  1  6  0  0  0
  2  1  1  0  0  0  0
  2  3  1  0  0  0  0
  4  3  1  0  0  0  0
  6  5  1  0  0  0  0
  7  8  1  6  0  0  0
  7  6  1  0  0  0  0
  9  7  1  0  0  0  0
 10  9  1  0  0  0  0
 11 13  1  0  0  0  0
 11 12  1  0  0  0  0
 12 10  1  6  0  0  0
 13 14  1  1  0  0  0
 13 12  1  0  0  0  0
 14 16  2  0  0  0  0
 15 14  1  0  0  0  0
 17 16  1  1  0  0  0
 17 23  1  0  0  0  0
 18 22  1  0  0  0  0
 18 17  1  0  0  0  0
 19 18  2  0  0  0  0
 20 18  2  0  0  0  0
 22 21  1  0  0  0  0
 23 24  1  0  0  0  0
 24 25  1  0  0  0  0
 27 26  1  0  0  0  0
 28 27  1  0  0  0  0
 29 28  1  0  0  0  0
 30 38  1  0  0  0  0
 31 33  1  0  0  0  0
 31 30  1  1  0  0  0
 32 35  1  0  0  0  0
 34 32  2  0  0  0  0
 35 36  1  0  0  0  0
 36 37  1  0  0  0  0
 36 29  1  1  0  0  0
 38 40  1  1  0  0  0
 38 37  1  0  0  0  0
 39 32  1  1  0  0  0
 39 31  1  0  0  0  0
 39 33  1  0  0  0  0
 41 40  1  0  0  0  0
 42 46  1  0  0  0  0
 43 42  1  0  0  0  0
 44 41  1  6  0  0  0
 44 47  1  0  0  0  0
 45 46  1  0  0  0  0
 47 45  1  0  0  0  0
 48 43  1  0  0  0  0
 48 44  1  0  0  0  0
 49 51  1  0  0  0  0
 51 52  1  0  0  0  0
 51 50  1  0  0  0  0
 53 52  1  0  0  0  0
 54 56  1  6  0  0  0
 54 53  1  0  0  0  0
 56 55  1  0  0  0  0
 57 54  1  0  0  0  0
 58 57  1  0  0  0  0
 58 60  1  0  0  0  0
 59 60  2  0  0  0  0
 60 61  1  0  0  0  0
M  END
>  <MODEL>
1

>  <REMARK>
 VINA RESULT:      -5.8      0.000      0.000
  Name = 
  31 active torsions:
  status: ('A' for Active; 'I' for Inactive)
    1  A    between atoms: C_1  and  N_8
    2  A    between atoms: C_1  and  C_21
    3  A    between atoms: C_1  and  C_28
    4  A    between atoms: C_4  and  S_15
    5  A    between atoms: C_4  and  C_46
    6  A    between atoms: C_4  and  C_51
    7  A    between atoms: C_7  and  N_8
    8  A    between atoms: C_7  and  C_42
    9  A    between atoms: C_9  and  C_34
   10  A    between atoms: C_9  and  C_39
   11  A    between atoms: C_10  and  C_53
   12  A    between atoms: C_11  and  C_29
   13  A    between atoms: C_11  and  C_39
   14  A    between atoms: C_14  and  C_36
   15  A    between atoms: C_14  and  C_43
   16  A    between atoms: S_15  and  N_38
   17  A    between atoms: C_19  and  C_45
   18  A    between atoms: C_23  and  N_41
   19  A    between atoms: C_23  and  C_43
   20  A    between atoms: C_25  and  C_58
   21  A    between atoms: C_26  and  C_28
   22  A    between atoms: C_26  and  N_59
   23  A    between atoms: C_32  and  C_55
   24  A    between atoms: C_32  and  N_59
   25  A    between atoms: C_33  and  C_51
   26  A    between atoms: C_34  and  C_55
   27  A    between atoms: C_35  and  N_41
   28  A    between atoms: C_36  and  C_53
   29  A    between atoms: C_47  and  C_49
   30  A    between atoms: C_47  and  C_58
   31  A    between atoms: C_53  and  C_55
                            x       y       z     vdW  Elec       q    Type
                         _______ _______ _______ _____ _____    ______ ____

>  <TORSDO>
F 31

$$$$
=
 OpenBabel11042413153D

 61 64  0  0  1  0  0  0  0  0999 V2000
  186.0650  178.5230  143.4290 C   0  0  2  0  0  3  0  0  0  0  0  0
  184.5350  178.4870  143.6690 C   0  0  1  0  0  3  0  0  0  0  0  0
  184.0770  179.4570  144.7730 C   0  0  0  0  0  2  0  0  0  0  0  0
  183.5370  178.7100  145.9910 C   0  0  0  0  0  1  0  0  0  0  0  0
  183.7080  178.7110  142.3750 C   0  0  0  0  0  2  0  0  0  0  0  0
  182.2090  178.8040  142.6270 C   0  0  0  0  0  2  0  0  0  0  0  0
  181.3440  178.5060  141.3990 C   0  0  1  0  0  3  0  0  0  0  0  0
  180.3460  179.6510  141.2000 C   0  0  0  0  0  1  0  0  0  0  0  0
  182.1520  178.3260  140.1120 C   0  0  0  0  0  2  0  0  0  0  0  0
  182.7690  177.0150  140.0880 N   0  0  0  0  0  2  0  0  0  0  0  0
  181.0570  176.8410  138.4360 N   0  0  0  0  0  2  0  0  0  0  0  0
  182.4170  176.4370  138.7970 C   0  0  2  0  0  3  0  0  0  0  0  0
  181.3210  175.4700  138.9350 C   0  0  2  0  0  3  0  0  0  0  0  0
  181.2700  174.4750  137.7810 C   0  0  0  0  0  0  0  0  0  0  0  0
  180.1090  173.7600  137.5740 O   0  0  0  0  0  1  0  0  0  0  0  0
  182.3180  174.3180  136.9570 C   0  0  0  0  0  3  0  0  0  0  0  0
  182.4780  173.3120  135.8420 C   0  0  2  0  0  3  0  0  0  0  0  0
  183.3210  171.7790  136.2550 S   0  0  0  0  0  0  0  0  0  0  0  0
  182.7550  171.2860  137.5530 O   0  0  0  0  0  0  0  0  0  0  0  0
  183.0220  170.7560  135.1860 O   0  0  0  0  0  0  0  0  0  0  0  0
  185.6610  171.3700  135.2890 C   0  0  0  0  0  1  0  0  0  0  0  0
  185.0300  172.0120  136.4260 N   0  0  0  0  0  2  0  0  0  0  0  0
  183.0640  173.9770  134.5950 C   0  0  0  0  0  2  0  0  0  0  0  0
  183.9590  175.1410  134.9820 C   0  0  0  0  0  2  0  0  0  0  0  0
  183.2710  176.4460  134.6270 C   0  0  0  0  0  1  0  0  0  0  0  0
  186.4600  178.2910  141.9560 C   0  0  0  0  0  2  0  0  0  0  0  0
  187.9670  178.2010  141.8600 C   0  0  0  0  0  2  0  0  0  0  0  0
  188.4200  178.3800  140.4240 C   0  0  0  0  0  2  0  0  0  0  0  0
  189.3410  177.2180  140.0800 C   0  0  0  0  0  2  0  0  0  0  0  0
  190.8300  175.0400  136.0170 C   0  0  0  0  0  2  0  0  0  0  0  0
  189.4020  174.9140  135.4450 C   0  0  1  0  0  3  0  0  0  0  0  0
  188.6560  177.2130  136.3450 C   0  0  0  0  0  0  0  0  0  0  0  0
  188.4700  174.8460  136.4960 O   0  0  0  0  0  0  0  0  0  0  0  0
  189.1130  178.1740  135.7470 O   0  0  0  0  0  0  0  0  0  0  0  0
  188.4080  177.3090  137.8180 C   0  0  0  0  0  2  0  0  0  0  0  0
  189.7130  177.2830  138.6100 C   0  0  2  0  0  3  0  0  0  0  0  0
  190.5750  176.0610  138.2780 C   0  0  0  0  0  2  0  0  0  0  0  0
  191.2190  176.2200  136.9170 C   0  0  1  0  0  3  0  0  0  0  0  0
  188.3260  175.9460  135.6130 C   0  0  2  0  0  3  0  0  0  0  0  0
  192.7350  176.2360  137.1070 C   0  0  0  0  0  2  0  0  0  0  0  0
  193.2260  174.9910  137.8490 C   0  0  0  0  0  2  0  0  0  0  0  0
  196.9700  173.0060  136.0400 C   0  0  0  0  0  2  0  0  0  0  0  0
  196.6950  174.4710  136.3350 C   0  0  0  0  0  2  0  0  0  0  0  0
  194.2960  174.2100  137.0830 C   0  0  2  0  0  3  0  0  0  0  0  0
  195.2250  171.8380  136.7150 C   0  0  0  0  0  2  0  0  0  0  0  0
  195.8040  172.3890  135.5680 O   0  0  0  0  0  0  0  0  0  0  0  0
  194.0490  172.6950  137.1830 C   0  0  0  0  0  2  0  0  0  0  0  0
  195.7150  174.6440  137.4850 C   0  0  0  0  0  2  0  0  0  0  0  0
  186.7240  177.5070  144.3830 C   0  0  0  0  0  2  0  0  0  0  0  0
  186.7120  178.5730  146.4430 C   0  0  0  0  0  1  0  0  0  0  0  0
  187.6030  178.0940  145.3900 N   0  0  0  0  0  0  0  0  0  0  0  0
  188.3790  176.9750  145.9310 C   0  0  0  0  0  2  0  0  0  0  0  0
  189.5810  177.3610  146.7990 C   0  0  0  0  0  2  0  0  0  0  0  0
  190.8640  176.5530  146.6020 C   0  0  2  0  0  3  0  0  0  0  0  0
  192.9260  175.7640  147.7270 C   0  0  0  0  0  1  0  0  0  0  0  0
  191.5800  176.4270  147.9380 C   0  0  0  0  0  2  0  0  0  0  0  0
  191.7410  177.2750  145.6880 N   0  0  0  0  0  2  0  0  0  0  0  0
  191.4840  176.7900  144.3350 C   0  0  0  0  0  2  0  0  0  0  0  0
  190.9340  179.1700  143.8170 O   0  0  0  0  0  1  0  0  0  0  0  0
  191.4130  177.9470  143.3940 C   0  0  0  0  0  0  0  0  0  0  0  0
  191.8250  177.8030  142.2110 O   0  0  0  0  0  0  0  0  0  0  0  0
  1 26  1  6  0  0  0
  1  2  1  0  0  0  0
  1 49  1  0  0  0  0
  2  5  1  6  0  0  0
  2  3  1  0  0  0  0
  3  4  1  0  0  0  0
  5  6  1  0  0  0  0
  7  8  1  6  0  0  0
  7  6  1  0  0  0  0
  9  7  1  0  0  0  0
 10  9  1  0  0  0  0
 11 12  1  0  0  0  0
 11 13  1  0  0  0  0
 12 13  1  0  0  0  0
 12 10  1  1  0  0  0
 13 14  1  6  0  0  0
 15 14  1  0  0  0  0
 16 14  2  0  0  0  0
 17 23  1  6  0  0  0
 17 18  1  0  0  0  0
 17 16  1  0  0  0  0
 18 22  1  0  0  0  0
 18 19  2  0  0  0  0
 20 18  2  0  0  0  0
 21 22  1  0  0  0  0
 23 24  1  0  0  0  0
 25 24  1  0  0  0  0
 27 26  1  0  0  0  0
 28 27  1  0  0  0  0
 29 28  1  0  0  0  0
 30 38  1  0  0  0  0
 31 39  1  0  0  0  0
 31 30  1  1  0  0  0
 31 33  1  0  0  0  0
 32 35  1  0  0  0  0
 34 32  2  0  0  0  0
 35 36  1  0  0  0  0
 36 29  1  1  0  0  0
 37 36  1  0  0  0  0
 38 40  1  1  0  0  0
 38 37  1  0  0  0  0
 39 32  1  1  0  0  0
 39 33  1  0  0  0  0
 40 41  1  0  0  0  0
 42 43  1  0  0  0  0
 43 48  1  0  0  0  0
 44 47  1  0  0  0  0
 44 48  1  0  0  0  0
 44 41  1  1  0  0  0
 45 47  1  0  0  0  0
 46 42  1  0  0  0  0
 46 45  1  0  0  0  0
 49 51  1  0  0  0  0
 51 52  1  0  0  0  0
 51 50  1  0  0  0  0
 52 53  1  0  0  0  0
 54 53  1  1  0  0  0
 54 56  1  0  0  0  0
 55 56  1  0  0  0  0
 57 54  1  0  0  0  0
 58 57  1  0  0  0  0
 60 59  1  0  0  0  0
 60 58  1  0  0  0  0
 61 60  2  0  0  0  0
M  END
>  <MODEL>
2

>  <REMARK>
 VINA RESULT:      -5.6      3.318      4.997
  Name = 
  31 active torsions:
  status: ('A' for Active; 'I' for Inactive)
    1  A    between atoms: C_1  and  N_8
    2  A    between atoms: C_1  and  C_21
    3  A    between atoms: C_1  and  C_28
    4  A    between atoms: C_4  and  S_15
    5  A    between atoms: C_4  and  C_46
    6  A    between atoms: C_4  and  C_51
    7  A    between atoms: C_7  and  N_8
    8  A    between atoms: C_7  and  C_42
    9  A    between atoms: C_9  and  C_34
   10  A    between atoms: C_9  and  C_39
   11  A    between atoms: C_10  and  C_53
   12  A    between atoms: C_11  and  C_29
   13  A    between atoms: C_11  and  C_39
   14  A    between atoms: C_14  and  C_36
   15  A    between atoms: C_14  and  C_43
   16  A    between atoms: S_15  and  N_38
   17  A    between atoms: C_19  and  C_45
   18  A    between atoms: C_23  and  N_41
   19  A    between atoms: C_23  and  C_43
   20  A    between atoms: C_25  and  C_58
   21  A    between atoms: C_26  and  C_28
   22  A    between atoms: C_26  and  N_59
   23  A    between atoms: C_32  and  C_55
   24  A    between atoms: C_32  and  N_59
   25  A    between atoms: C_33  and  C_51
   26  A    between atoms: C_34  and  C_55
   27  A    between atoms: C_35  and  N_41
   28  A    between atoms: C_36  and  C_53
   29  A    between atoms: C_47  and  C_49
   30  A    between atoms: C_47  and  C_58
   31  A    between atoms: C_53  and  C_55
                            x       y       z     vdW  Elec       q    Type
                         _______ _______ _______ _____ _____    ______ ____

>  <TORSDO>
F 31

$$$$
=
 OpenBabel11042413153D

 61 64  0  0  1  0  0  0  0  0999 V2000
  189.3230  177.3650  141.8200 C   0  0  2  0  0  3  0  0  0  0  0  0
  189.7400  177.7170  140.3700 C   0  0  1  0  0  3  0  0  0  0  0  0
  190.4040  176.5390  139.6330 C   0  0  0  0  0  2  0  0  0  0  0  0
  191.8010  176.9030  139.1330 C   0  0  0  0  0  1  0  0  0  0  0  0
  188.5770  178.2970  139.5220 C   0  0  0  0  0  2  0  0  0  0  0  0
  187.9750  177.2870  138.5540 C   0  0  0  0  0  2  0  0  0  0  0  0
  188.0220  177.7180  137.0850 C   0  0  1  0  0  3  0  0  0  0  0  0
  187.3110  179.0650  136.9350 C   0  0  0  0  0  1  0  0  0  0  0  0
  189.4430  177.8440  136.5310 C   0  0  0  0  0  2  0  0  0  0  0  0
  189.4530  177.5680  135.1080 N   0  0  0  0  0  2  0  0  0  0  0  0
  189.4580  175.2360  134.6070 N   0  0  0  0  0  2  0  0  0  0  0  0
  190.2940  176.3910  134.9410 C   0  0  2  0  0  3  0  0  0  0  0  0
  190.0080  175.3880  135.9750 C   0  0  2  0  0  3  0  0  0  0  0  0
  191.1640  174.4170  136.1850 C   0  0  0  0  0  0  0  0  0  0  0  0
  190.8930  173.1660  136.6970 O   0  0  0  0  0  1  0  0  0  0  0  0
  192.4190  174.7530  135.8480 C   0  0  0  0  0  3  0  0  0  0  0  0
  193.6850  173.9650  136.0830 C   0  0  2  0  0  3  0  0  0  0  0  0
  195.0400  174.8370  136.8800 S   0  0  0  0  0  0  0  0  0  0  0  0
  195.3330  176.0610  136.0660 O   0  0  0  0  0  0  0  0  0  0  0  0
  194.5960  175.2740  138.2550 O   0  0  0  0  0  0  0  0  0  0  0  0
  197.4580  174.6200  137.7090 C   0  0  0  0  0  1  0  0  0  0  0  0
  196.4660  173.8570  136.9750 N   0  0  0  0  0  2  0  0  0  0  0  0
  194.1270  173.2580  134.8010 C   0  0  0  0  0  2  0  0  0  0  0  0
  195.2850  172.3160  135.0840 C   0  0  0  0  0  2  0  0  0  0  0  0
  194.9320  170.9230  134.5960 C   0  0  0  0  0  1  0  0  0  0  0  0
  187.8290  177.0060  141.9560 C   0  0  0  0  0  2  0  0  0  0  0  0
  187.0300  178.2820  142.1100 C   0  0  0  0  0  2  0  0  0  0  0  0
  185.6530  178.1250  141.4940 C   0  0  0  0  0  2  0  0  0  0  0  0
  185.3500  179.3910  140.7050 C   0  0  0  0  0  2  0  0  0  0  0  0
  182.4710  176.3190  138.3100 C   0  0  0  0  0  2  0  0  0  0  0  0
  181.3470  176.3960  139.3630 C   0  0  1  0  0  3  0  0  0  0  0  0
  181.6930  178.9160  139.7950 C   0  0  0  0  0  0  0  0  0  0  0  0
  181.8930  176.6940  140.6240 O   0  0  0  0  0  0  0  0  0  0  0  0
  181.2960  179.6510  138.9060 O   0  0  0  0  0  0  0  0  0  0  0  0
  182.9060  179.3000  140.5850 C   0  0  0  0  0  2  0  0  0  0  0  0
  184.1850  179.1370  139.7670 C   0  0  2  0  0  3  0  0  0  0  0  0
  184.3330  177.7260  139.1880 C   0  0  0  0  0  2  0  0  0  0  0  0
  183.3780  177.5240  138.0310 C   0  0  1  0  0  3  0  0  0  0  0  0
  180.9700  177.6410  140.1130 C   0  0  2  0  0  3  0  0  0  0  0  0
  184.2030  177.2600  136.7730 C   0  0  0  0  0  2  0  0  0  0  0  0
  183.6300  176.1030  135.9520 C   0  0  0  0  0  2  0  0  0  0  0  0
  185.4560  171.8730  136.0180 C   0  0  0  0  0  2  0  0  0  0  0  0
  184.0430  172.3140  135.6770 C   0  0  0  0  0  2  0  0  0  0  0  0
  184.3250  174.7660  136.2180 C   0  0  2  0  0  3  0  0  0  0  0  0
  186.6480  173.6790  136.4450 C   0  0  0  0  0  2  0  0  0  0  0  0
  185.9530  172.6440  137.0770 O   0  0  0  0  0  0  0  0  0  0  0  0
  185.8290  174.9690  136.4760 C   0  0  0  0  0  2  0  0  0  0  0  0
  184.0090  173.7320  135.1260 C   0  0  0  0  0  2  0  0  0  0  0  0
  189.7340  178.5350  142.7340 C   0  0  0  0  0  2  0  0  0  0  0  0
  191.1780  179.5040  144.2700 C   0  0  0  0  0  1  0  0  0  0  0  0
  191.0910  178.4470  143.2660 N   0  0  0  0  0  0  0  0  0  0  0  0
  191.1540  177.1600  143.9630 C   0  0  0  0  0  2  0  0  0  0  0  0
  190.3290  177.0610  145.2500 C   0  0  0  0  0  2  0  0  0  0  0  0
  191.1030  177.0570  146.5690 C   0  0  2  0  0  3  0  0  0  0  0  0
  192.6660  175.7320  147.9610 C   0  0  0  0  0  1  0  0  0  0  0  0
  192.0430  175.8610  146.5870 C   0  0  0  0  0  2  0  0  0  0  0  0
  190.1590  176.9030  147.6690 N   0  0  0  0  0  2  0  0  0  0  0  0
  189.2770  178.0670  147.6740 C   0  0  0  0  0  2  0  0  0  0  0  0
  186.8890  177.7770  147.0060 O   0  0  0  0  0  0  0  0  0  0  0  0
  187.8770  177.6330  147.9580 C   0  0  0  0  0  0  0  0  0  0  0  0
  187.6110  177.1030  149.0700 O   0  0  0  0  0  1  0  0  0  0  0  0
  1 26  1  6  0  0  0
  1 49  1  0  0  0  0
  2  5  1  6  0  0  0
  2  1  1  0  0  0  0
  3  2  1  0  0  0  0
  4  3  1  0  0  0  0
  6  5  1  0  0  0  0
  7  8  1  1  0  0  0
  7  6  1  0  0  0  0
  9  7  1  0  0  0  0
 10  9  1  0  0  0  0
 11 12  1  0  0  0  0
 11 13  1  0  0  0  0
 12 10  1  1  0  0  0
 12 13  1  0  0  0  0
 13 14  1  6  0  0  0
 14 15  1  0  0  0  0
 16 17  1  0  0  0  0
 16 14  2  0  0  0  0
 17 23  1  6  0  0  0
 17 18  1  0  0  0  0
 18 22  1  0  0  0  0
 18 20  2  0  0  0  0
 19 18  2  0  0  0  0
 22 21  1  0  0  0  0
 23 24  1  0  0  0  0
 25 24  1  0  0  0  0
 26 27  1  0  0  0  0
 28 27  1  0  0  0  0
 29 28  1  0  0  0  0
 31 30  1  6  0  0  0
 31 39  1  0  0  0  0
 31 33  1  0  0  0  0
 32 35  1  0  0  0  0
 34 32  2  0  0  0  0
 36 35  1  0  0  0  0
 36 29  1  1  0  0  0
 37 36  1  0  0  0  0
 38 40  1  6  0  0  0
 38 30  1  0  0  0  0
 38 37  1  0  0  0  0
 39 32  1  6  0  0  0
 39 33  1  0  0  0  0
 41 40  1  0  0  0  0
 42 46  1  0  0  0  0
 43 42  1  0  0  0  0
 44 41  1  6  0  0  0
 44 47  1  0  0  0  0
 45 47  1  0  0  0  0
 45 46  1  0  0  0  0
 48 43  1  0  0  0  0
 48 44  1  0  0  0  0
 49 51  1  0  0  0  0
 51 52  1  0  0  0  0
 51 50  1  0  0  0  0
 52 53  1  0  0  0  0
 54 53  1  6  0  0  0
 54 56  1  0  0  0  0
 54 57  1  0  0  0  0
 56 55  1  0  0  0  0
 57 58  1  0  0  0  0
 58 60  1  0  0  0  0
 59 60  2  0  0  0  0
 60 61  1  0  0  0  0
M  END
>  <MODEL>
3

>  <REMARK>
 VINA RESULT:      -5.3      3.999      9.642
  Name = 
  31 active torsions:
  status: ('A' for Active; 'I' for Inactive)
    1  A    between atoms: C_1  and  N_8
    2  A    between atoms: C_1  and  C_21
    3  A    between atoms: C_1  and  C_28
    4  A    between atoms: C_4  and  S_15
    5  A    between atoms: C_4  and  C_46
    6  A    between atoms: C_4  and  C_51
    7  A    between atoms: C_7  and  N_8
    8  A    between atoms: C_7  and  C_42
    9  A    between atoms: C_9  and  C_34
   10  A    between atoms: C_9  and  C_39
   11  A    between atoms: C_10  and  C_53
   12  A    between atoms: C_11  and  C_29
   13  A    between atoms: C_11  and  C_39
   14  A    between atoms: C_14  and  C_36
   15  A    between atoms: C_14  and  C_43
   16  A    between atoms: S_15  and  N_38
   17  A    between atoms: C_19  and  C_45
   18  A    between atoms: C_23  and  N_41
   19  A    between atoms: C_23  and  C_43
   20  A    between atoms: C_25  and  C_58
   21  A    between atoms: C_26  and  C_28
   22  A    between atoms: C_26  and  N_59
   23  A    between atoms: C_32  and  C_55
   24  A    between atoms: C_32  and  N_59
   25  A    between atoms: C_33  and  C_51
   26  A    between atoms: C_34  and  C_55
   27  A    between atoms: C_35  and  N_41
   28  A    between atoms: C_36  and  C_53
   29  A    between atoms: C_47  and  C_49
   30  A    between atoms: C_47  and  C_58
   31  A    between atoms: C_53  and  C_55
                            x       y       z     vdW  Elec       q    Type
                         _______ _______ _______ _____ _____    ______ ____

>  <TORSDO>
F 31

$$$$
=
 OpenBabel11042413153D

 61 64  0  0  1  0  0  0  0  0999 V2000
  188.6440  177.3160  141.3020 C   0  0  2  0  0  3  0  0  0  0  0  0
  189.2990  177.7070  139.9540 C   0  0  1  0  0  3  0  0  0  0  0  0
  190.4220  176.7430  139.5290 C   0  0  0  0  0  2  0  0  0  0  0  0
  190.9420  177.0660  138.1290 C   0  0  0  0  0  1  0  0  0  0  0  0
  188.2720  177.8800  138.8030 C   0  0  0  0  0  2  0  0  0  0  0  0
  187.9140  176.5700  138.1140 C   0  0  0  0  0  2  0  0  0  0  0  0
  187.3990  176.7330  136.6810 C   0  0  1  0  0  3  0  0  0  0  0  0
  187.0640  178.2060  136.4330 C   0  0  0  0  0  1  0  0  0  0  0  0
  188.3950  176.2660  135.6170 C   0  0  0  0  0  2  0  0  0  0  0  0
  188.1220  174.8940  135.2420 N   0  0  0  0  0  2  0  0  0  0  0  0
  189.5440  173.0310  135.6880 N   0  0  0  0  0  2  0  0  0  0  0  0
  189.4200  174.2960  134.9610 C   0  0  2  0  0  3  0  0  0  0  0  0
  190.2480  174.2420  136.1720 C   0  0  2  0  0  3  0  0  0  0  0  0
  191.7370  174.1410  135.8600 C   0  0  0  0  0  0  0  0  0  0  0  0
  192.1720  174.4730  134.5940 O   0  0  0  0  0  1  0  0  0  0  0  0
  192.6180  173.7730  136.8040 C   0  0  0  0  0  3  0  0  0  0  0  0
  194.0980  173.5200  136.6430 C   0  0  2  0  0  3  0  0  0  0  0  0
  195.1640  174.9660  136.6210 S   0  0  0  0  0  0  0  0  0  0  0  0
  195.7560  175.1140  137.9910 O   0  0  0  0  0  0  0  0  0  0  0  0
  196.2870  174.7280  135.6400 O   0  0  0  0  0  0  0  0  0  0  0  0
  195.1850  177.2490  135.4520 C   0  0  0  0  0  1  0  0  0  0  0  0
  194.2870  176.4050  136.2170 N   0  0  0  0  0  2  0  0  0  0  0  0
  194.3610  172.5890  135.4590 C   0  0  0  0  0  2  0  0  0  0  0  0
  195.2720  171.4450  135.8730 C   0  0  0  0  0  2  0  0  0  0  0  0
  194.6910  170.7540  137.0920 C   0  0  0  0  0  1  0  0  0  0  0  0
  187.1030  177.2910  141.2490 C   0  0  0  0  0  2  0  0  0  0  0  0
  186.6010  178.6810  140.9220 C   0  0  0  0  0  2  0  0  0  0  0  0
  185.0900  178.6830  140.7900 C   0  0  0  0  0  2  0  0  0  0  0  0
  184.7200  179.6840  139.7050 C   0  0  0  0  0  2  0  0  0  0  0  0
  180.4640  177.3740  139.8130 C   0  0  0  0  0  2  0  0  0  0  0  0
  179.6540  178.6710  140.0220 C   0  0  1  0  0  3  0  0  0  0  0  0
  181.1550  180.0630  138.4530 C   0  0  0  0  0  0  0  0  0  0  0  0
  180.4450  179.6280  140.6820 O   0  0  0  0  0  0  0  0  0  0  0  0
  181.0110  179.8310  137.2630 O   0  0  0  0  0  0  0  0  0  0  0  0
  182.5080  180.4360  138.9750 C   0  0  0  0  0  2  0  0  0  0  0  0
  183.4470  179.2330  139.0120 C   0  0  2  0  0  3  0  0  0  0  0  0
  182.8620  178.0570  139.8000 C   0  0  0  0  0  2  0  0  0  0  0  0
  181.7670  177.3780  139.0040 C   0  0  1  0  0  3  0  0  0  0  0  0
  179.9870  179.9910  139.3910 C   0  0  2  0  0  3  0  0  0  0  0  0
  182.2000  175.9390  138.7310 C   0  0  0  0  0  2  0  0  0  0  0  0
  183.7220  175.8150  138.6360 C   0  0  0  0  0  2  0  0  0  0  0  0
  185.0110  172.8950  135.3120 C   0  0  0  0  0  2  0  0  0  0  0  0
  185.4370  172.9550  136.7690 C   0  0  0  0  0  2  0  0  0  0  0  0
  184.1940  175.0660  137.3870 C   0  0  2  0  0  3  0  0  0  0  0  0
  183.5100  174.4760  134.9760 C   0  0  0  0  0  2  0  0  0  0  0  0
  184.8680  174.1930  134.8040 O   0  0  0  0  0  0  0  0  0  0  0  0
  183.3060  175.4010  136.1760 C   0  0  0  0  0  2  0  0  0  0  0  0
  184.3560  173.5610  137.6510 C   0  0  0  0  0  2  0  0  0  0  0  0
  189.1820  178.2680  142.3900 C   0  0  0  0  0  2  0  0  0  0  0  0
  191.2010  178.9790  143.2820 C   0  0  0  0  0  1  0  0  0  0  0  0
  190.3750  177.7920  143.0830 N   0  0  0  0  0  0  0  0  0  0  0  0
  189.9090  177.3440  144.3980 C   0  0  0  0  0  2  0  0  0  0  0  0
  188.3910  177.3640  144.6050 C   0  0  0  0  0  2  0  0  0  0  0  0
  187.8800  177.9660  145.9150 C   0  0  2  0  0  3  0  0  0  0  0  0
  187.5970  177.2650  148.2750 C   0  0  0  0  0  1  0  0  0  0  0  0
  188.5290  177.2370  147.0810 C   0  0  0  0  0  2  0  0  0  0  0  0
  186.4400  177.7570  146.0000 N   0  0  0  0  0  2  0  0  0  0  0  0
  185.8700  177.9900  144.6750 C   0  0  0  0  0  2  0  0  0  0  0  0
  183.4780  178.3810  144.0750 O   0  0  0  0  0  0  0  0  0  0  0  0
  184.5890  178.7450  144.8080 C   0  0  0  0  0  0  0  0  0  0  0  0
  184.5240  179.7050  145.6210 O   0  0  0  0  0  1  0  0  0  0  0  0
  1 26  1  6  0  0  0
  1 49  1  0  0  0  0
  2  5  1  6  0  0  0
  2  1  1  0  0  0  0
  3  2  1  0  0  0  0
  4  3  1  0  0  0  0
  6  5  1  0  0  0  0
  7  8  1  6  0  0  0
  7  6  1  0  0  0  0
  9  7  1  0  0  0  0
 10  9  1  0  0  0  0
 11 13  1  0  0  0  0
 12 10  1  1  0  0  0
 12 11  1  0  0  0  0
 12 13  1  0  0  0  0
 13 14  1  6  0  0  0
 14 16  2  0  0  0  0
 15 14  1  0  0  0  0
 17 23  1  6  0  0  0
 17 16  1  0  0  0  0
 18 17  1  0  0  0  0
 18 19  2  0  0  0  0
 20 18  2  0  0  0  0
 21 22  1  0  0  0  0
 22 18  1  0  0  0  0
 23 24  1  0  0  0  0
 24 25  1  0  0  0  0
 27 26  1  0  0  0  0
 28 27  1  0  0  0  0
 29 28  1  0  0  0  0
 31 30  1  6  0  0  0
 31 33  1  0  0  0  0
 32 35  1  0  0  0  0
 34 32  2  0  0  0  0
 35 36  1  0  0  0  0
 36 29  1  1  0  0  0
 36 37  1  0  0  0  0
 38 40  1  1  0  0  0
 38 37  1  0  0  0  0
 38 30  1  0  0  0  0
 39 32  1  6  0  0  0
 39 31  1  0  0  0  0
 39 33  1  0  0  0  0
 41 40  1  0  0  0  0
 42 43  1  0  0  0  0
 43 48  1  0  0  0  0
 44 48  1  0  0  0  0
 44 41  1  1  0  0  0
 45 47  1  0  0  0  0
 46 45  1  0  0  0  0
 46 42  1  0  0  0  0
 47 44  1  0  0  0  0
 49 51  1  0  0  0  0
 51 50  1  0  0  0  0
 51 52  1  0  0  0  0
 52 53  1  0  0  0  0
 54 53  1  6  0  0  0
 54 57  1  0  0  0  0
 54 56  1  0  0  0  0
 56 55  1  0  0  0  0
 58 60  1  0  0  0  0
 58 57  1  0  0  0  0
 59 60  2  0  0  0  0
 60 61  1  0  0  0  0
M  END
>  <MODEL>
4

>  <REMARK>
 VINA RESULT:      -5.1      3.809      9.966
  Name = 
  31 active torsions:
  status: ('A' for Active; 'I' for Inactive)
    1  A    between atoms: C_1  and  N_8
    2  A    between atoms: C_1  and  C_21
    3  A    between atoms: C_1  and  C_28
    4  A    between atoms: C_4  and  S_15
    5  A    between atoms: C_4  and  C_46
    6  A    between atoms: C_4  and  C_51
    7  A    between atoms: C_7  and  N_8
    8  A    between atoms: C_7  and  C_42
    9  A    between atoms: C_9  and  C_34
   10  A    between atoms: C_9  and  C_39
   11  A    between atoms: C_10  and  C_53
   12  A    between atoms: C_11  and  C_29
   13  A    between atoms: C_11  and  C_39
   14  A    between atoms: C_14  and  C_36
   15  A    between atoms: C_14  and  C_43
   16  A    between atoms: S_15  and  N_38
   17  A    between atoms: C_19  and  C_45
   18  A    between atoms: C_23  and  N_41
   19  A    between atoms: C_23  and  C_43
   20  A    between atoms: C_25  and  C_58
   21  A    between atoms: C_26  and  C_28
   22  A    between atoms: C_26  and  N_59
   23  A    between atoms: C_32  and  C_55
   24  A    between atoms: C_32  and  N_59
   25  A    between atoms: C_33  and  C_51
   26  A    between atoms: C_34  and  C_55
   27  A    between atoms: C_35  and  N_41
   28  A    between atoms: C_36  and  C_53
   29  A    between atoms: C_47  and  C_49
   30  A    between atoms: C_47  and  C_58
   31  A    between atoms: C_53  and  C_55
                            x       y       z     vdW  Elec       q    Type
                         _______ _______ _______ _____ _____    ______ ____

>  <TORSDO>
F 31

$$$$
=
 OpenBabel11042413153D

 61 64  0  0  1  0  0  0  0  0999 V2000
  187.6810  176.1750  136.2960 C   0  0  2  0  0  3  0  0  0  0  0  0
  187.6370  177.2580  137.4030 C   0  0  1  0  0  3  0  0  0  0  0  0
  188.4700  178.5050  137.0570 C   0  0  0  0  0  2  0  0  0  0  0  0
  189.4370  178.2340  135.9050 C   0  0  0  0  0  1  0  0  0  0  0  0
  186.1930  177.6670  137.8010 C   0  0  0  0  0  2  0  0  0  0  0  0
  186.1240  178.4160  139.1250 C   0  0  0  0  0  2  0  0  0  0  0  0
  184.7060  178.8040  139.5560 C   0  0  1  0  0  3  0  0  0  0  0  0
  183.8060  178.8650  138.3190 C   0  0  0  0  0  1  0  0  0  0  0  0
  184.0900  177.8360  140.5690 C   0  0  0  0  0  2  0  0  0  0  0  0
  184.0490  178.4450  141.8830 N   0  0  0  0  0  2  0  0  0  0  0  0
  185.5260  178.6680  143.7430 N   0  0  0  0  0  2  0  0  0  0  0  0
  185.0950  177.7880  142.6550 C   0  0  2  0  0  3  0  0  0  0  0  0
  186.3690  178.5070  142.5340 C   0  0  2  0  0  3  0  0  0  0  0  0
  187.5720  177.6250  142.8480 C   0  0  0  0  0  0  0  0  0  0  0  0
  187.3590  176.4060  143.4550 O   0  0  0  0  0  1  0  0  0  0  0  0
  188.8140  178.0060  142.5110 C   0  0  0  0  0  3  0  0  0  0  0  0
  190.1170  177.3150  142.8370 C   0  0  2  0  0  3  0  0  0  0  0  0
  190.9290  177.8050  144.3630 S   0  0  0  0  0  0  0  0  0  0  0  0
  191.9460  178.8520  144.0190 O   0  0  0  0  0  0  0  0  0  0  0  0
  189.9040  178.4210  145.2850 O   0  0  0  0  0  0  0  0  0  0  0  0
  191.5140  176.6110  146.5560 C   0  0  0  0  0  1  0  0  0  0  0  0
  191.7210  176.4660  145.1280 N   0  0  0  0  0  2  0  0  0  0  0  0
  191.0650  177.3560  141.6380 C   0  0  0  0  0  2  0  0  0  0  0  0
  190.4020  176.7530  140.4120 C   0  0  0  0  0  2  0  0  0  0  0  0
  191.3500  176.8410  139.2310 C   0  0  0  0  0  1  0  0  0  0  0  0
  186.8100  176.5170  135.0700 C   0  0  0  0  0  2  0  0  0  0  0  0
  185.7440  177.5080  135.4870 C   0  0  0  0  0  2  0  0  0  0  0  0
  184.3790  177.0550  135.0030 C   0  0  0  0  0  2  0  0  0  0  0  0
  184.4860  175.5850  134.6220 C   0  0  0  0  0  2  0  0  0  0  0  0
  180.9340  173.3660  137.0540 C   0  0  0  0  0  2  0  0  0  0  0  0
  181.2170  171.9930  136.4100 C   0  0  1  0  0  3  0  0  0  0  0  0
  183.7750  172.3220  136.4290 C   0  0  0  0  0  0  0  0  0  0  0  0
  181.7840  172.1710  135.1350 O   0  0  0  0  0  0  0  0  0  0  0  0
  184.2990  172.2290  137.5270 O   0  0  0  0  0  0  0  0  0  0  0  0
  184.3370  173.2760  135.4200 C   0  0  0  0  0  2  0  0  0  0  0  0
  184.0220  174.7260  135.7830 C   0  0  2  0  0  3  0  0  0  0  0  0
  182.5230  174.9650  135.9880 C   0  0  0  0  0  2  0  0  0  0  0  0
  182.0660  174.3710  137.3040 C   0  0  1  0  0  3  0  0  0  0  0  0
  182.5870  171.4780  136.0760 C   0  0  2  0  0  3  0  0  0  0  0  0
  181.5520  175.5070  138.1860 C   0  0  0  0  0  2  0  0  0  0  0  0
  180.6240  176.4470  137.4160 C   0  0  0  0  0  2  0  0  0  0  0  0
  179.4930  179.6380  140.5420 C   0  0  0  0  0  2  0  0  0  0  0  0
  179.6200  178.1320  140.6950 C   0  0  0  0  0  2  0  0  0  0  0  0
  180.0740  177.5930  138.2690 C   0  0  2  0  0  3  0  0  0  0  0  0
  180.0370  180.1590  138.4690 C   0  0  0  0  0  2  0  0  0  0  0  0
  178.9310  179.9440  139.2960 O   0  0  0  0  0  0  0  0  0  0  0  0
  180.2730  178.9470  137.5670 C   0  0  0  0  0  2  0  0  0  0  0  0
  180.6150  177.5430  139.7070 C   0  0  0  0  0  2  0  0  0  0  0  0
  187.2980  174.8240  136.9320 C   0  0  0  0  0  2  0  0  0  0  0  0
  187.7700  172.5540  137.0100 C   0  0  0  0  0  1  0  0  0  0  0  0
  188.3980  173.8720  137.0530 N   0  0  0  0  0  0  0  0  0  0  0  0
  189.1890  174.0330  135.8300 C   0  0  0  0  0  2  0  0  0  0  0  0
  190.3920  173.0950  135.6910 C   0  0  0  0  0  2  0  0  0  0  0  0
  191.7750  173.7040  135.9310 C   0  0  2  0  0  3  0  0  0  0  0  0
  192.6550  176.0150  136.0790 C   0  0  0  0  0  1  0  0  0  0  0  0
  191.8500  175.0520  135.2310 C   0  0  0  0  0  2  0  0  0  0  0  0
  192.7830  172.8330  135.3400 N   0  0  0  0  0  2  0  0  0  0  0  0
  193.8770  172.6930  136.2970 C   0  0  0  0  0  2  0  0  0  0  0  0
  193.5660  170.2170  136.2170 O   0  0  0  0  0  1  0  0  0  0  0  0
  194.4170  171.3020  136.2380 C   0  0  0  0  0  0  0  0  0  0  0  0
  195.6650  171.1290  136.1770 O   0  0  0  0  0  0  0  0  0  0  0  0
  1 26  1  6  0  0  0
  1 49  1  0  0  0  0
  1  2  1  0  0  0  0
  2  3  1  6  0  0  0
  2  5  1  0  0  0  0
  4  3  1  0  0  0  0
  5  6  1  0  0  0  0
  6  7  1  0  0  0  0
  7  8  1  6  0  0  0
  7  9  1  0  0  0  0
  9 10  1  0  0  0  0
 12 10  1  6  0  0  0
 12 11  1  0  0  0  0
 13 12  1  0  0  0  0
 13 14  1  1  0  0  0
 13 11  1  0  0  0  0
 14 15  1  0  0  0  0
 16 17  1  0  0  0  0
 16 14  2  0  0  0  0
 17 23  1  6  0  0  0
 17 18  1  0  0  0  0
 18 22  1  0  0  0  0
 18 20  2  0  0  0  0
 19 18  2  0  0  0  0
 22 21  1  0  0  0  0
 24 23  1  0  0  0  0
 25 24  1  0  0  0  0
 26 27  1  0  0  0  0
 28 27  1  0  0  0  0
 29 28  1  0  0  0  0
 30 38  1  0  0  0  0
 31 30  1  1  0  0  0
 32 34  2  0  0  0  0
 33 31  1  0  0  0  0
 35 36  1  0  0  0  0
 35 32  1  0  0  0  0
 36 29  1  6  0  0  0
 36 37  1  0  0  0  0
 37 38  1  0  0  0  0
 38 40  1  1  0  0  0
 39 33  1  6  0  0  0
 39 31  1  0  0  0  0
 39 32  1  0  0  0  0
 41 40  1  0  0  0  0
 42 43  1  0  0  0  0
 44 41  1  6  0  0  0
 44 48  1  0  0  0  0
 45 46  1  0  0  0  0
 46 42  1  0  0  0  0
 47 44  1  0  0  0  0
 47 45  1  0  0  0  0
 48 43  1  0  0  0  0
 49 51  1  0  0  0  0
 50 51  1  0  0  0  0
 52 51  1  0  0  0  0
 53 52  1  0  0  0  0
 53 54  1  0  0  0  0
 54 56  1  6  0  0  0
 56 55  1  0  0  0  0
 57 54  1  0  0  0  0
 57 58  1  0  0  0  0
 59 60  1  0  0  0  0
 60 58  1  0  0  0  0
 61 60  2  0  0  0  0
M  END
>  <MODEL>
5

>  <REMARK>
 VINA RESULT:      -4.9      3.595     10.535
  Name = 
  31 active torsions:
  status: ('A' for Active; 'I' for Inactive)
    1  A    between atoms: C_1  and  N_8
    2  A    between atoms: C_1  and  C_21
    3  A    between atoms: C_1  and  C_28
    4  A    between atoms: C_4  and  S_15
    5  A    between atoms: C_4  and  C_46
    6  A    between atoms: C_4  and  C_51
    7  A    between atoms: C_7  and  N_8
    8  A    between atoms: C_7  and  C_42
    9  A    between atoms: C_9  and  C_34
   10  A    between atoms: C_9  and  C_39
   11  A    between atoms: C_10  and  C_53
   12  A    between atoms: C_11  and  C_29
   13  A    between atoms: C_11  and  C_39
   14  A    between atoms: C_14  and  C_36
   15  A    between atoms: C_14  and  C_43
   16  A    between atoms: S_15  and  N_38
   17  A    between atoms: C_19  and  C_45
   18  A    between atoms: C_23  and  N_41
   19  A    between atoms: C_23  and  C_43
   20  A    between atoms: C_25  and  C_58
   21  A    between atoms: C_26  and  C_28
   22  A    between atoms: C_26  and  N_59
   23  A    between atoms: C_32  and  C_55
   24  A    between atoms: C_32  and  N_59
   25  A    between atoms: C_33  and  C_51
   26  A    between atoms: C_34  and  C_55
   27  A    between atoms: C_35  and  N_41
   28  A    between atoms: C_36  and  C_53
   29  A    between atoms: C_47  and  C_49
   30  A    between atoms: C_47  and  C_58
   31  A    between atoms: C_53  and  C_55
                            x       y       z     vdW  Elec       q    Type
                         _______ _______ _______ _____ _____    ______ ____

>  <TORSDO>
F 31

$$$$
=
 OpenBabel11042413153D

 61 64  0  0  1  0  0  0  0  0999 V2000
  183.0400  178.0710  141.8900 C   0  0  2  0  0  3  0  0  0  0  0  0
  184.4180  178.2180  142.5830 C   0  0  1  0  0  3  0  0  0  0  0  0
  185.2380  179.4060  142.0450 C   0  0  0  0  0  2  0  0  0  0  0  0
  186.5210  178.9400  141.3590 C   0  0  0  0  0  1  0  0  0  0  0  0
  184.3210  178.2860  144.1310 C   0  0  0  0  0  2  0  0  0  0  0  0
  185.1140  179.4380  144.7340 C   0  0  0  0  0  2  0  0  0  0  0  0
  186.0090  179.0380  145.9100 C   0  0  1  0  0  3  0  0  0  0  0  0
  185.2930  179.3750  147.2210 C   0  0  0  0  0  1  0  0  0  0  0  0
  186.3820  177.5540  145.9170 C   0  0  0  0  0  2  0  0  0  0  0  0
  186.8550  177.1630  147.2310 N   0  0  0  0  0  2  0  0  0  0  0  0
  189.0570  177.9460  147.7060 N   0  0  0  0  0  2  0  0  0  0  0  0
  188.2750  176.8830  147.0710 C   0  0  2  0  0  3  0  0  0  0  0  0
  188.9210  177.9000  146.2310 C   0  0  2  0  0  3  0  0  0  0  0  0
  190.2170  177.4030  145.6010 C   0  0  0  0  0  0  0  0  0  0  0  0
  191.3630  177.3900  146.3660 O   0  0  0  0  0  1  0  0  0  0  0  0
  190.2410  176.9510  144.3370 C   0  0  0  0  0  3  0  0  0  0  0  0
  191.4430  176.5270  143.5270 C   0  0  2  0  0  3  0  0  0  0  0  0
  191.5680  177.1920  141.8620 S   0  0  0  0  0  0  0  0  0  0  0  0
  191.2080  178.6460  141.9270 O   0  0  0  0  0  0  0  0  0  0  0  0
  193.0000  177.0760  141.3970 O   0  0  0  0  0  0  0  0  0  0  0  0
  189.3270  177.2280  140.6160 C   0  0  0  0  0  1  0  0  0  0  0  0
  190.4960  176.3840  140.7660 N   0  0  0  0  0  2  0  0  0  0  0  0
  191.6040  175.0060  143.5560 C   0  0  0  0  0  2  0  0  0  0  0  0
  192.4350  174.5810  144.7540 C   0  0  0  0  0  2  0  0  0  0  0  0
  192.2630  173.0910  144.9830 C   0  0  0  0  0  1  0  0  0  0  0  0
  183.1000  178.2670  140.3620 C   0  0  0  0  0  2  0  0  0  0  0  0
  182.9680  176.9180  139.6880 C   0  0  0  0  0  2  0  0  0  0  0  0
  181.6810  176.2360  140.1130 C   0  0  0  0  0  2  0  0  0  0  0  0
  181.4970  175.0060  139.2350 C   0  0  0  0  0  2  0  0  0  0  0  0
  184.2080  174.7350  135.2310 C   0  0  0  0  0  2  0  0  0  0  0  0
  183.3320  173.6360  134.5940 C   0  0  1  0  0  3  0  0  0  0  0  0
  181.1280  174.6470  135.4730 C   0  0  0  0  0  0  0  0  0  0  0  0
  182.7110  172.8760  135.6000 O   0  0  0  0  0  0  0  0  0  0  0  0
  180.7640  175.6630  134.9030 O   0  0  0  0  0  0  0  0  0  0  0  0
  180.8490  174.4790  136.9340 C   0  0  0  0  0  2  0  0  0  0  0  0
  181.7460  175.3750  137.7850 C   0  0  2  0  0  3  0  0  0  0  0  0
  183.2330  175.1690  137.4850 C   0  0  0  0  0  2  0  0  0  0  0  0
  183.5980  175.7960  136.1550 C   0  0  1  0  0  3  0  0  0  0  0  0
  181.8380  173.5620  134.7190 C   0  0  2  0  0  3  0  0  0  0  0  0
  184.6250  176.8960  136.4140 C   0  0  0  0  0  2  0  0  0  0  0  0
  185.6660  176.9740  135.2950 C   0  0  0  0  0  2  0  0  0  0  0  0
  189.7670  177.6350  137.2900 C   0  0  0  0  0  2  0  0  0  0  0  0
  188.8440  178.6360  136.6140 C   0  0  0  0  0  2  0  0  0  0  0  0
  187.1090  176.9870  135.8070 C   0  0  2  0  0  3  0  0  0  0  0  0
  188.7760  175.6650  137.2560 C   0  0  0  0  0  2  0  0  0  0  0  0
  189.7460  176.4210  136.5910 O   0  0  0  0  0  0  0  0  0  0  0  0
  187.4760  175.6390  136.4530 C   0  0  0  0  0  2  0  0  0  0  0  0
  187.3870  178.2080  136.6980 C   0  0  0  0  0  2  0  0  0  0  0  0
  182.0560  179.0420  142.5720 C   0  0  0  0  0  2  0  0  0  0  0  0
  180.0500  178.8390  143.7180 C   0  0  0  0  0  1  0  0  0  0  0  0
  180.6460  178.7090  142.3920 N   0  0  0  0  0  0  0  0  0  0  0  0
  180.0990  179.7740  141.5470 C   0  0  0  0  0  2  0  0  0  0  0  0
  179.1220  179.3190  140.4580 C   0  0  0  0  0  2  0  0  0  0  0  0
  179.4270  179.7610  139.0260 C   0  0  2  0  0  3  0  0  0  0  0  0
  180.9860  178.9220  137.2930 C   0  0  0  0  0  1  0  0  0  0  0  0
  179.8420  178.5460  138.2110 C   0  0  0  0  0  2  0  0  0  0  0  0
  180.5490  180.6910  139.0490 N   0  0  0  0  0  2  0  0  0  0  0  0
  180.0110  182.0490  139.0730 C   0  0  0  0  0  2  0  0  0  0  0  0
  179.8100  183.9900  137.5160 O   0  0  0  0  0  1  0  0  0  0  0  0
  180.2050  182.6870  137.7370 C   0  0  0  0  0  0  0  0  0  0  0  0
  180.7610  182.0290  136.8170 O   0  0  0  0  0  0  0  0  0  0  0  0
  1 26  1  6  0  0  0
  1 49  1  0  0  0  0
  1  2  1  0  0  0  0
  2  3  1  6  0  0  0
  2  5  1  0  0  0  0
  4  3  1  0  0  0  0
  5  6  1  0  0  0  0
  6  7  1  0  0  0  0
  7  9  1  0  0  0  0
  7  8  1  1  0  0  0
  9 10  1  0  0  0  0
 12 10  1  1  0  0  0
 12 11  1  0  0  0  0
 13 14  1  6  0  0  0
 13 12  1  0  0  0  0
 13 11  1  0  0  0  0
 14 15  1  0  0  0  0
 16 14  2  0  0  0  0
 17 23  1  6  0  0  0
 17 16  1  0  0  0  0
 18 19  2  0  0  0  0
 18 17  1  0  0  0  0
 20 18  2  0  0  0  0
 21 22  1  0  0  0  0
 22 18  1  0  0  0  0
 23 24  1  0  0  0  0
 24 25  1  0  0  0  0
 27 28  1  0  0  0  0
 27 26  1  0  0  0  0
 29 28  1  0  0  0  0
 30 38  1  0  0  0  0
 31 39  1  0  0  0  0
 31 30  1  1  0  0  0
 31 33  1  0  0  0  0
 32 35  1  0  0  0  0
 34 32  2  0  0  0  0
 35 36  1  0  0  0  0
 36 29  1  1  0  0  0
 37 36  1  0  0  0  0
 38 40  1  1  0  0  0
 38 37  1  0  0  0  0
 39 32  1  1  0  0  0
 39 33  1  0  0  0  0
 41 40  1  0  0  0  0
 43 48  1  0  0  0  0
 43 42  1  0  0  0  0
 44 41  1  1  0  0  0
 44 47  1  0  0  0  0
 44 48  1  0  0  0  0
 46 45  1  0  0  0  0
 46 42  1  0  0  0  0
 47 45  1  0  0  0  0
 51 49  1  0  0  0  0
 51 50  1  0  0  0  0
 52 51  1  0  0  0  0
 53 52  1  0  0  0  0
 54 56  1  6  0  0  0
 54 57  1  0  0  0  0
 54 53  1  0  0  0  0
 55 56  1  0  0  0  0
 57 58  1  0  0  0  0
 59 60  1  0  0  0  0
 60 58  1  0  0  0  0
 61 60  2  0  0  0  0
M  END
>  <MODEL>
6

>  <REMARK>
 VINA RESULT:      -4.8      3.394     10.114
  Name = 
  31 active torsions:
  status: ('A' for Active; 'I' for Inactive)
    1  A    between atoms: C_1  and  N_8
    2  A    between atoms: C_1  and  C_21
    3  A    between atoms: C_1  and  C_28
    4  A    between atoms: C_4  and  S_15
    5  A    between atoms: C_4  and  C_46
    6  A    between atoms: C_4  and  C_51
    7  A    between atoms: C_7  and  N_8
    8  A    between atoms: C_7  and  C_42
    9  A    between atoms: C_9  and  C_34
   10  A    between atoms: C_9  and  C_39
   11  A    between atoms: C_10  and  C_53
   12  A    between atoms: C_11  and  C_29
   13  A    between atoms: C_11  and  C_39
   14  A    between atoms: C_14  and  C_36
   15  A    between atoms: C_14  and  C_43
   16  A    between atoms: S_15  and  N_38
   17  A    between atoms: C_19  and  C_45
   18  A    between atoms: C_23  and  N_41
   19  A    between atoms: C_23  and  C_43
   20  A    between atoms: C_25  and  C_58
   21  A    between atoms: C_26  and  C_28
   22  A    between atoms: C_26  and  N_59
   23  A    between atoms: C_32  and  C_55
   24  A    between atoms: C_32  and  N_59
   25  A    between atoms: C_33  and  C_51
   26  A    between atoms: C_34  and  C_55
   27  A    between atoms: C_35  and  N_41
   28  A    between atoms: C_36  and  C_53
   29  A    between atoms: C_47  and  C_49
   30  A    between atoms: C_47  and  C_58
   31  A    between atoms: C_53  and  C_55
                            x       y       z     vdW  Elec       q    Type
                         _______ _______ _______ _____ _____    ______ ____

>  <TORSDO>
F 31

$$$$
=
 OpenBabel11042413153D

 61 64  0  0  1  0  0  0  0  0999 V2000
  185.8020  178.4030  143.6280 C   0  0  2  0  0  3  0  0  0  0  0  0
  184.2710  178.5500  143.8160 C   0  0  1  0  0  3  0  0  0  0  0  0
  183.8740  179.8670  144.5070 C   0  0  0  0  0  2  0  0  0  0  0  0
  184.9630  180.9290  144.3640 C   0  0  0  0  0  1  0  0  0  0  0  0
  183.4730  178.3710  142.4970 C   0  0  0  0  0  2  0  0  0  0  0  0
  181.9820  178.6410  142.6540 C   0  0  0  0  0  2  0  0  0  0  0  0
  181.2140  178.7240  141.3310 C   0  0  1  0  0  3  0  0  0  0  0  0
  180.4170  180.0310  141.2970 C   0  0  0  0  0  1  0  0  0  0  0  0
  182.1170  178.6630  140.0960 C   0  0  0  0  0  2  0  0  0  0  0  0
  182.6030  177.3120  139.8980 N   0  0  0  0  0  2  0  0  0  0  0  0
  180.4780  176.8870  138.9010 N   0  0  0  0  0  2  0  0  0  0  0  0
  181.9270  176.8220  138.7050 C   0  0  2  0  0  3  0  0  0  0  0  0
  181.1850  175.5870  138.9900 C   0  0  2  0  0  3  0  0  0  0  0  0
  180.9190  174.7600  137.7370 C   0  0  0  0  0  0  0  0  0  0  0  0
  179.6180  174.6120  137.3060 O   0  0  0  0  0  1  0  0  0  0  0  0
  181.9300  174.2150  137.0420 C   0  0  0  0  0  3  0  0  0  0  0  0
  181.8440  173.2880  135.8530 C   0  0  2  0  0  3  0  0  0  0  0  0
  181.6680  171.5350  136.2100 S   0  0  0  0  0  0  0  0  0  0  0  0
  182.7950  171.1430  137.1180 O   0  0  0  0  0  0  0  0  0  0  0  0
  180.3670  171.3140  136.9420 O   0  0  0  0  0  0  0  0  0  0  0  0
  182.9650  169.8120  134.8210 C   0  0  0  0  0  1  0  0  0  0  0  0
  181.7340  170.5770  134.7670 N   0  0  0  0  0  2  0  0  0  0  0  0
  182.9790  173.5670  134.8670 C   0  0  0  0  0  2  0  0  0  0  0  0
  184.3010  173.7100  135.6020 C   0  0  0  0  0  2  0  0  0  0  0  0
  185.4310  173.8010  134.5940 C   0  0  0  0  0  1  0  0  0  0  0  0
  186.1970  177.8220  142.2550 C   0  0  0  0  0  2  0  0  0  0  0  0
  187.4590  178.5070  141.7770 C   0  0  0  0  0  2  0  0  0  0  0  0
  188.0190  177.7980  140.5580 C   0  0  0  0  0  2  0  0  0  0  0  0
  189.1290  178.6680  139.9850 C   0  0  0  0  0  2  0  0  0  0  0  0
  190.4120  174.9710  137.1310 C   0  0  0  0  0  2  0  0  0  0  0  0
  188.9950  174.8020  136.5460 C   0  0  1  0  0  3  0  0  0  0  0  0
  188.5370  177.3400  136.4770 C   0  0  0  0  0  0  0  0  0  0  0  0
  188.0370  175.2400  137.4780 O   0  0  0  0  0  0  0  0  0  0  0  0
  189.1320  177.9470  135.6010 O   0  0  0  0  0  0  0  0  0  0  0  0
  188.2700  178.0100  137.7890 C   0  0  0  0  0  2  0  0  0  0  0  0
  189.5410  178.1350  138.6260 C   0  0  2  0  0  3  0  0  0  0  0  0
  190.2420  176.7880  138.8310 C   0  0  0  0  0  2  0  0  0  0  0  0
  190.9330  176.3500  137.5570 C   0  0  1  0  0  3  0  0  0  0  0  0
  188.0600  175.9380  136.2440 C   0  0  2  0  0  3  0  0  0  0  0  0
  192.4320  176.2640  137.8350 C   0  0  0  0  0  2  0  0  0  0  0  0
  193.2010  175.7190  136.6290 C   0  0  0  0  0  2  0  0  0  0  0  0
  196.8600  173.1280  137.6930 C   0  0  0  0  0  2  0  0  0  0  0  0
  195.4550  173.1060  138.2710 C   0  0  0  0  0  2  0  0  0  0  0  0
  194.5470  175.0920  137.0000 C   0  0  2  0  0  3  0  0  0  0  0  0
  196.9130  174.6410  136.0890 C   0  0  0  0  0  2  0  0  0  0  0  0
  197.2470  174.4490  137.4330 O   0  0  0  0  0  0  0  0  0  0  0  0
  195.6290  175.4630  135.9710 C   0  0  0  0  0  2  0  0  0  0  0  0
  194.4200  173.5830  137.2630 C   0  0  0  0  0  2  0  0  0  0  0  0
  186.3510  177.5690  144.8020 C   0  0  0  0  0  2  0  0  0  0  0  0
  186.0930  177.9550  147.0740 C   0  0  0  0  0  1  0  0  0  0  0  0
  186.8830  178.3520  145.9120 N   0  0  0  0  0  0  0  0  0  0  0  0
  188.2510  177.8680  146.1120 C   0  0  0  0  0  2  0  0  0  0  0  0
  188.8850  177.1590  144.9110 C   0  0  0  0  0  2  0  0  0  0  0  0
  190.3800  177.3880  144.6830 C   0  0  2  0  0  3  0  0  0  0  0  0
  190.5180  179.5430  143.4700 C   0  0  0  0  0  1  0  0  0  0  0  0
  190.6800  178.8730  144.8180 C   0  0  0  0  0  2  0  0  0  0  0  0
  190.7180  176.9820  143.3240 N   0  0  0  0  0  2  0  0  0  0  0  0
  191.9580  176.2130  143.3770 C   0  0  0  0  0  2  0  0  0  0  0  0
  192.3820  174.3940  145.0340 O   0  0  0  0  0  1  0  0  0  0  0  0
  191.6820  174.8580  143.9390 C   0  0  0  0  0  0  0  0  0  0  0  0
  190.7790  174.1490  143.4180 O   0  0  0  0  0  0  0  0  0  0  0  0
  1 26  1  6  0  0  0
  1  2  1  0  0  0  0
  1 49  1  0  0  0  0
  2  5  1  6  0  0  0
  2  3  1  0  0  0  0
  4  3  1  0  0  0  0
  5  6  1  0  0  0  0
  7  8  1  1  0  0  0
  7  6  1  0  0  0  0
  9  7  1  0  0  0  0
 10  9  1  0  0  0  0
 11 13  1  0  0  0  0
 12 11  1  0  0  0  0
 12 13  1  0  0  0  0
 12 10  1  1  0  0  0
 13 14  1  6  0  0  0
 15 14  1  0  0  0  0
 16 14  2  0  0  0  0
 17 23  1  1  0  0  0
 17 18  1  0  0  0  0
 17 16  1  0  0  0  0
 18 20  2  0  0  0  0
 18 19  2  0  0  0  0
 22 21  1  0  0  0  0
 22 18  1  0  0  0  0
 23 24  1  0  0  0  0
 25 24  1  0  0  0  0
 27 26  1  0  0  0  0
 28 27  1  0  0  0  0
 29 28  1  0  0  0  0
 30 38  1  0  0  0  0
 31 30  1  1  0  0  0
 31 33  1  0  0  0  0
 32 35  1  0  0  0  0
 34 32  2  0  0  0  0
 35 36  1  0  0  0  0
 36 37  1  0  0  0  0
 36 29  1  1  0  0  0
 38 40  1  1  0  0  0
 38 37  1  0  0  0  0
 39 32  1  1  0  0  0
 39 31  1  0  0  0  0
 39 33  1  0  0  0  0
 41 40  1  0  0  0  0
 42 43  1  0  0  0  0
 44 41  1  6  0  0  0
 44 48  1  0  0  0  0
 45 46  1  0  0  0  0
 46 42  1  0  0  0  0
 47 45  1  0  0  0  0
 47 44  1  0  0  0  0
 48 43  1  0  0  0  0
 49 51  1  0  0  0  0
 51 52  1  0  0  0  0
 51 50  1  0  0  0  0
 53 52  1  0  0  0  0
 54 56  1  6  0  0  0
 54 53  1  0  0  0  0
 55 56  1  0  0  0  0
 57 58  1  0  0  0  0
 57 54  1  0  0  0  0
 58 60  1  0  0  0  0
 60 59  1  0  0  0  0
 61 60  2  0  0  0  0
M  END
>  <MODEL>
7

>  <REMARK>
 VINA RESULT:      -4.8      3.139      4.999
  Name = 
  31 active torsions:
  status: ('A' for Active; 'I' for Inactive)
    1  A    between atoms: C_1  and  N_8
    2  A    between atoms: C_1  and  C_21
    3  A    between atoms: C_1  and  C_28
    4  A    between atoms: C_4  and  S_15
    5  A    between atoms: C_4  and  C_46
    6  A    between atoms: C_4  and  C_51
    7  A    between atoms: C_7  and  N_8
    8  A    between atoms: C_7  and  C_42
    9  A    between atoms: C_9  and  C_34
   10  A    between atoms: C_9  and  C_39
   11  A    between atoms: C_10  and  C_53
   12  A    between atoms: C_11  and  C_29
   13  A    between atoms: C_11  and  C_39
   14  A    between atoms: C_14  and  C_36
   15  A    between atoms: C_14  and  C_43
   16  A    between atoms: S_15  and  N_38
   17  A    between atoms: C_19  and  C_45
   18  A    between atoms: C_23  and  N_41
   19  A    between atoms: C_23  and  C_43
   20  A    between atoms: C_25  and  C_58
   21  A    between atoms: C_26  and  C_28
   22  A    between atoms: C_26  and  N_59
   23  A    between atoms: C_32  and  C_55
   24  A    between atoms: C_32  and  N_59
   25  A    between atoms: C_33  and  C_51
   26  A    between atoms: C_34  and  C_55
   27  A    between atoms: C_35  and  N_41
   28  A    between atoms: C_36  and  C_53
   29  A    between atoms: C_47  and  C_49
   30  A    between atoms: C_47  and  C_58
   31  A    between atoms: C_53  and  C_55
                            x       y       z     vdW  Elec       q    Type
                         _______ _______ _______ _____ _____    ______ ____

>  <TORSDO>
F 31

$$$$
=
 OpenBabel11042413153D

 61 64  0  0  1  0  0  0  0  0999 V2000
  186.1250  178.2470  142.6700 C   0  0  2  0  0  3  0  0  0  0  0  0
  184.7680  178.0750  141.9430 C   0  0  1  0  0  3  0  0  0  0  0  0
  183.6340  178.8970  142.5850 C   0  0  0  0  0  2  0  0  0  0  0  0
  182.5510  179.2520  141.5670 C   0  0  0  0  0  1  0  0  0  0  0  0
  184.8490  178.3650  140.4200 C   0  0  0  0  0  2  0  0  0  0  0  0
  184.5670  177.1410  139.5590 C   0  0  0  0  0  2  0  0  0  0  0  0
  184.2570  177.4600  138.0930 C   0  0  1  0  0  3  0  0  0  0  0  0
  185.5400  177.9280  137.4010 C   0  0  0  0  0  1  0  0  0  0  0  0
  183.6810  176.2730  137.3180 C   0  0  0  0  0  2  0  0  0  0  0  0
  183.2330  176.7000  136.0080 N   0  0  0  0  0  2  0  0  0  0  0  0
  181.3850  177.7690  134.9440 N   0  0  0  0  0  2  0  0  0  0  0  0
  181.8730  177.1860  136.1950 C   0  0  2  0  0  3  0  0  0  0  0  0
  181.8120  178.6460  136.0590 C   0  0  2  0  0  3  0  0  0  0  0  0
  180.5920  179.2480  136.7470 C   0  0  0  0  0  0  0  0  0  0  0  0
  179.5980  179.8010  135.9690 O   0  0  0  0  0  1  0  0  0  0  0  0
  180.4650  179.2120  138.0830 C   0  0  0  0  0  3  0  0  0  0  0  0
  179.3870  179.8470  138.9300 C   0  0  2  0  0  3  0  0  0  0  0  0
  179.6250  181.5730  139.3740 S   0  0  0  0  0  0  0  0  0  0  0  0
  178.9400  182.4070  138.3330 O   0  0  0  0  0  0  0  0  0  0  0  0
  178.9570  181.8300  140.7040 O   0  0  0  0  0  0  0  0  0  0  0  0
  181.6960  182.3710  138.0910 C   0  0  0  0  0  1  0  0  0  0  0  0
  181.3040  181.9950  139.4350 N   0  0  0  0  0  2  0  0  0  0  0  0
  179.0710  178.9750  140.1450 C   0  0  0  0  0  2  0  0  0  0  0  0
  178.9410  177.5180  139.7380 C   0  0  0  0  0  2  0  0  0  0  0  0
  180.3180  176.8830  139.6900 C   0  0  0  0  0  1  0  0  0  0  0  0
  187.2880  177.5100  141.9760 C   0  0  0  0  0  2  0  0  0  0  0  0
  187.8490  178.3960  140.8850 C   0  0  0  0  0  2  0  0  0  0  0  0
  188.5780  177.5650  139.8470 C   0  0  0  0  0  2  0  0  0  0  0  0
  189.6290  178.4530  139.1950 C   0  0  0  0  0  2  0  0  0  0  0  0
  191.6930  174.6580  137.0060 C   0  0  0  0  0  2  0  0  0  0  0  0
  190.3490  174.0870  136.5100 C   0  0  1  0  0  3  0  0  0  0  0  0
  189.3550  176.4130  136.0030 C   0  0  0  0  0  0  0  0  0  0  0  0
  189.3150  174.4730  137.3810 O   0  0  0  0  0  0  0  0  0  0  0  0
  189.8090  176.9630  135.0130 O   0  0  0  0  0  0  0  0  0  0  0  0
  188.9430  177.2380  137.1830 C   0  0  0  0  0  2  0  0  0  0  0  0
  190.1530  177.7810  137.9400 C   0  0  2  0  0  3  0  0  0  0  0  0
  191.1260  176.6740  138.3580 C   0  0  0  0  0  2  0  0  0  0  0  0
  191.9020  176.1690  137.1600 C   0  0  1  0  0  3  0  0  0  0  0  0
  189.1930  174.9230  136.0410 C   0  0  2  0  0  3  0  0  0  0  0  0
  193.3840  176.4570  137.3970 C   0  0  0  0  0  2  0  0  0  0  0  0
  194.2550  175.9100  136.2640 C   0  0  0  0  0  2  0  0  0  0  0  0
  197.2100  172.6270  137.5780 C   0  0  0  0  0  2  0  0  0  0  0  0
  195.7540  172.8340  137.9640 C   0  0  0  0  0  2  0  0  0  0  0  0
  195.4020  175.0230  136.7530 C   0  0  2  0  0  3  0  0  0  0  0  0
  197.7560  174.1930  136.1240 C   0  0  0  0  0  2  0  0  0  0  0  0
  197.8560  173.8660  137.4800 O   0  0  0  0  0  0  0  0  0  0  0  0
  196.6680  175.2450  135.9080 C   0  0  0  0  0  2  0  0  0  0  0  0
  194.9750  173.5520  136.8730 C   0  0  0  0  0  2  0  0  0  0  0  0
  185.9410  177.8100  144.1370 C   0  0  0  0  0  2  0  0  0  0  0  0
  184.9950  178.6090  146.0980 C   0  0  0  0  0  1  0  0  0  0  0  0
  186.0340  178.8920  145.1130 N   0  0  0  0  0  0  0  0  0  0  0  0
  187.3340  178.7170  145.7670 C   0  0  0  0  0  2  0  0  0  0  0  0
  187.9240  177.3050  145.7000 C   0  0  0  0  0  2  0  0  0  0  0  0
  188.9970  176.9550  146.7320 C   0  0  2  0  0  3  0  0  0  0  0  0
  188.0570  177.8560  148.8390 C   0  0  0  0  0  1  0  0  0  0  0  0
  189.0880  178.0790  147.7520 C   0  0  0  0  0  2  0  0  0  0  0  0
  190.2860  176.8550  146.0570 N   0  0  0  0  0  2  0  0  0  0  0  0
  190.2450  177.7110  144.8750 C   0  0  0  0  0  2  0  0  0  0  0  0
  191.1650  177.7080  142.5530 O   0  0  0  0  0  0  0  0  0  0  0  0
  191.0010  177.0630  143.7630 C   0  0  0  0  0  0  0  0  0  0  0  0
  191.5160  175.9280  143.9490 O   0  0  0  0  0  1  0  0  0  0  0  0
  1 26  1  6  0  0  0
  1 49  1  0  0  0  0
  2  5  1  6  0  0  0
  2  3  1  0  0  0  0
  2  1  1  0  0  0  0
  4  3  1  0  0  0  0
  6  5  1  0  0  0  0
  7  8  1  6  0  0  0
  7  6  1  0  0  0  0
  9  7  1  0  0  0  0
 10  9  1  0  0  0  0
 11 13  1  0  0  0  0
 11 12  1  0  0  0  0
 12 10  1  6  0  0  0
 13 12  1  0  0  0  0
 13 14  1  1  0  0  0
 14 16  2  0  0  0  0
 15 14  1  0  0  0  0
 17 16  1  1  0  0  0
 17 18  1  0  0  0  0
 17 23  1  0  0  0  0
 18 22  1  0  0  0  0
 18 20  2  0  0  0  0
 19 18  2  0  0  0  0
 21 22  1  0  0  0  0
 24 23  1  0  0  0  0
 25 24  1  0  0  0  0
 27 26  1  0  0  0  0
 28 27  1  0  0  0  0
 29 28  1  0  0  0  0
 30 38  1  0  0  0  0
 31 30  1  1  0  0  0
 31 33  1  0  0  0  0
 32 35  1  0  0  0  0
 34 32  2  0  0  0  0
 35 36  1  0  0  0  0
 36 37  1  0  0  0  0
 36 29  1  1  0  0  0
 38 40  1  1  0  0  0
 38 37  1  0  0  0  0
 39 32  1  1  0  0  0
 39 31  1  0  0  0  0
 39 33  1  0  0  0  0
 41 40  1  0  0  0  0
 42 43  1  0  0  0  0
 44 41  1  6  0  0  0
 44 48  1  0  0  0  0
 45 46  1  0  0  0  0
 46 42  1  0  0  0  0
 47 45  1  0  0  0  0
 47 44  1  0  0  0  0
 48 43  1  0  0  0  0
 49 51  1  0  0  0  0
 51 52  1  0  0  0  0
 51 50  1  0  0  0  0
 53 52  1  0  0  0  0
 54 53  1  6  0  0  0
 54 56  1  0  0  0  0
 56 55  1  0  0  0  0
 57 54  1  0  0  0  0
 58 57  1  0  0  0  0
 59 60  2  0  0  0  0
 60 61  1  0  0  0  0
 60 58  1  0  0  0  0
M  END
>  <MODEL>
8

>  <REMARK>
 VINA RESULT:      -4.5      1.797      2.204
  Name = 
  31 active torsions:
  status: ('A' for Active; 'I' for Inactive)
    1  A    between atoms: C_1  and  N_8
    2  A    between atoms: C_1  and  C_21
    3  A    between atoms: C_1  and  C_28
    4  A    between atoms: C_4  and  S_15
    5  A    between atoms: C_4  and  C_46
    6  A    between atoms: C_4  and  C_51
    7  A    between atoms: C_7  and  N_8
    8  A    between atoms: C_7  and  C_42
    9  A    between atoms: C_9  and  C_34
   10  A    between atoms: C_9  and  C_39
   11  A    between atoms: C_10  and  C_53
   12  A    between atoms: C_11  and  C_29
   13  A    between atoms: C_11  and  C_39
   14  A    between atoms: C_14  and  C_36
   15  A    between atoms: C_14  and  C_43
   16  A    between atoms: S_15  and  N_38
   17  A    between atoms: C_19  and  C_45
   18  A    between atoms: C_23  and  N_41
   19  A    between atoms: C_23  and  C_43
   20  A    between atoms: C_25  and  C_58
   21  A    between atoms: C_26  and  C_28
   22  A    between atoms: C_26  and  N_59
   23  A    between atoms: C_32  and  C_55
   24  A    between atoms: C_32  and  N_59
   25  A    between atoms: C_33  and  C_51
   26  A    between atoms: C_34  and  C_55
   27  A    between atoms: C_35  and  N_41
   28  A    between atoms: C_36  and  C_53
   29  A    between atoms: C_47  and  C_49
   30  A    between atoms: C_47  and  C_58
   31  A    between atoms: C_53  and  C_55
                            x       y       z     vdW  Elec       q    Type
                         _______ _______ _______ _____ _____    ______ ____

>  <TORSDO>
F 31

$$$$
=
 OpenBabel11042413153D

 61 64  0  0  1  0  0  0  0  0999 V2000
  186.8520  177.9240  143.0910 C   0  0  2  0  0  3  0  0  0  0  0  0
  185.5090  178.0130  142.3250 C   0  0  1  0  0  3  0  0  0  0  0  0
  184.4250  178.7870  143.0990 C   0  0  0  0  0  2  0  0  0  0  0  0
  183.1180  178.8640  142.3110 C   0  0  0  0  0  1  0  0  0  0  0  0
  185.6600  178.5860  140.8900 C   0  0  0  0  0  2  0  0  0  0  0  0
  185.6270  177.5140  139.8080 C   0  0  0  0  0  2  0  0  0  0  0  0
  185.3860  178.0540  138.3950 C   0  0  1  0  0  3  0  0  0  0  0  0
  186.5930  178.8920  137.9660 C   0  0  0  0  0  1  0  0  0  0  0  0
  185.1510  176.9560  137.3540 C   0  0  0  0  0  2  0  0  0  0  0  0
  185.0050  177.5400  136.0360 N   0  0  0  0  0  2  0  0  0  0  0  0
  182.9640  177.6910  134.8100 N   0  0  0  0  0  2  0  0  0  0  0  0
  183.9530  176.7740  135.3800 C   0  0  2  0  0  3  0  0  0  0  0  0
  182.6660  176.9570  136.0620 C   0  0  2  0  0  3  0  0  0  0  0  0
  181.6880  175.8220  135.7840 C   0  0  0  0  0  0  0  0  0  0  0  0
  180.3410  176.1070  135.7250 O   0  0  0  0  0  1  0  0  0  0  0  0
  182.1260  174.5720  135.5630 C   0  0  0  0  0  3  0  0  0  0  0  0
  181.3020  173.3200  135.3790 C   0  0  2  0  0  3  0  0  0  0  0  0
  180.5340  172.6370  136.8540 S   0  0  0  0  0  0  0  0  0  0  0  0
  179.0500  172.6570  136.6430 O   0  0  0  0  0  0  0  0  0  0  0  0
  180.9730  171.2010  137.0110 O   0  0  0  0  0  0  0  0  0  0  0  0
  179.6890  174.1480  138.7460 C   0  0  0  0  0  1  0  0  0  0  0  0
  180.9260  173.5600  138.2670 N   0  0  0  0  0  2  0  0  0  0  0  0
  182.0860  172.2670  134.5950 C   0  0  0  0  0  2  0  0  0  0  0  0
  182.5920  171.1770  135.5240 C   0  0  0  0  0  2  0  0  0  0  0  0
  184.1050  171.2500  135.6100 C   0  0  0  0  0  1  0  0  0  0  0  0
  187.9040  177.0470  142.3810 C   0  0  0  0  0  2  0  0  0  0  0  0
  188.3810  177.7640  141.1370 C   0  0  0  0  0  2  0  0  0  0  0  0
  189.3300  176.8830  140.3460 C   0  0  0  0  0  2  0  0  0  0  0  0
  190.2500  177.7940  139.5460 C   0  0  0  0  0  2  0  0  0  0  0  0
  190.4460  174.2020  136.3020 C   0  0  0  0  0  2  0  0  0  0  0  0
  188.9280  174.2370  136.0250 C   0  0  1  0  0  3  0  0  0  0  0  0
  188.7870  176.8080  136.1830 C   0  0  0  0  0  0  0  0  0  0  0  0
  188.2460  174.7080  137.1610 O   0  0  0  0  0  0  0  0  0  0  0  0
  189.2600  177.4100  135.2320 O   0  0  0  0  0  0  0  0  0  0  0  0
  188.8820  177.4030  137.5540 C   0  0  0  0  0  2  0  0  0  0  0  0
  190.3030  177.3210  138.1050 C   0  0  2  0  0  3  0  0  0  0  0  0
  190.8570  175.8930  138.0880 C   0  0  0  0  0  2  0  0  0  0  0  0
  191.2110  175.4780  136.6760 C   0  0  1  0  0  3  0  0  0  0  0  0
  188.1010  175.4890  135.9870 C   0  0  2  0  0  3  0  0  0  0  0  0
  192.7130  175.2040  136.6220 C   0  0  0  0  0  2  0  0  0  0  0  0
  193.0110  173.7650  136.1960 C   0  0  0  0  0  2  0  0  0  0  0  0
  197.4950  172.9340  135.5370 C   0  0  0  0  0  2  0  0  0  0  0  0
  196.2950  172.4880  134.7180 C   0  0  0  0  0  2  0  0  0  0  0  0
  194.5010  173.4160  136.2350 C   0  0  2  0  0  3  0  0  0  0  0  0
  196.7610  174.2020  137.1860 C   0  0  0  0  0  2  0  0  0  0  0  0
  197.1800  172.8990  136.9020 O   0  0  0  0  0  0  0  0  0  0  0  0
  195.2370  174.2620  137.2900 C   0  0  0  0  0  2  0  0  0  0  0  0
  195.1350  173.4650  134.8360 C   0  0  0  0  0  2  0  0  0  0  0  0
  186.5540  177.4430  144.5250 C   0  0  0  0  0  2  0  0  0  0  0  0
  185.6740  178.4400  146.4250 C   0  0  0  0  0  1  0  0  0  0  0  0
  186.8570  178.4160  145.5710 N   0  0  0  0  0  0  0  0  0  0  0  0
  187.9570  177.8300  146.3420 C   0  0  0  0  0  2  0  0  0  0  0  0
  189.0680  177.1730  145.5170 C   0  0  0  0  0  2  0  0  0  0  0  0
  190.4380  177.8520  145.5370 C   0  0  2  0  0  3  0  0  0  0  0  0
  191.2500  178.4800  143.2820 C   0  0  0  0  0  1  0  0  0  0  0  0
  190.4610  178.9510  144.4860 C   0  0  0  0  0  2  0  0  0  0  0  0
  191.4570  176.8700  145.1840 N   0  0  0  0  0  2  0  0  0  0  0  0
  191.4720  175.8410  146.2200 C   0  0  0  0  0  2  0  0  0  0  0  0
  193.0210  175.7640  148.1760 O   0  0  0  0  0  1  0  0  0  0  0  0
  192.0190  176.4140  147.4850 C   0  0  0  0  0  0  0  0  0  0  0  0
  191.5740  177.5170  147.9020 O   0  0  0  0  0  0  0  0  0  0  0  0
  1 26  1  6  0  0  0
  1 49  1  0  0  0  0
  2  5  1  6  0  0  0
  2  1  1  0  0  0  0
  2  3  1  0  0  0  0
  4  3  1  0  0  0  0
  6  5  1  0  0  0  0
  7  8  1  6  0  0  0
  7  6  1  0  0  0  0
  9  7  1  0  0  0  0
 10  9  1  0  0  0  0
 11 12  1  0  0  0  0
 11 13  1  0  0  0  0
 12 10  1  1  0  0  0
 12 13  1  0  0  0  0
 13 14  1  6  0  0  0
 15 14  1  0  0  0  0
 16 14  2  0  0  0  0
 17 23  1  1  0  0  0
 17 16  1  0  0  0  0
 17 18  1  0  0  0  0
 18 20  2  0  0  0  0
 18 22  1  0  0  0  0
 19 18  2  0  0  0  0
 22 21  1  0  0  0  0
 23 24  1  0  0  0  0
 24 25  1  0  0  0  0
 27 26  1  0  0  0  0
 28 27  1  0  0  0  0
 29 28  1  0  0  0  0
 30 38  1  0  0  0  0
 31 30  1  1  0  0  0
 31 33  1  0  0  0  0
 32 35  1  0  0  0  0
 34 32  2  0  0  0  0
 35 36  1  0  0  0  0
 36 29  1  1  0  0  0
 37 36  1  0  0  0  0
 38 40  1  1  0  0  0
 38 37  1  0  0  0  0
 39 31  1  0  0  0  0
 39 32  1  1  0  0  0
 39 33  1  0  0  0  0
 41 40  1  0  0  0  0
 42 46  1  0  0  0  0
 43 48  1  0  0  0  0
 43 42  1  0  0  0  0
 44 41  1  6  0  0  0
 44 47  1  0  0  0  0
 45 47  1  0  0  0  0
 46 45  1  0  0  0  0
 48 44  1  0  0  0  0
 49 51  1  0  0  0  0
 51 52  1  0  0  0  0
 51 50  1  0  0  0  0
 53 54  1  0  0  0  0
 53 52  1  0  0  0  0
 54 56  1  6  0  0  0
 55 56  1  0  0  0  0
 57 54  1  0  0  0  0
 57 58  1  0  0  0  0
 58 60  1  0  0  0  0
 60 61  2  0  0  0  0
 60 59  1  0  0  0  0
M  END
>  <MODEL>
9

>  <REMARK>
 VINA RESULT:      -3.7      3.243      4.707
  Name = 
  31 active torsions:
  status: ('A' for Active; 'I' for Inactive)
    1  A    between atoms: C_1  and  N_8
    2  A    between atoms: C_1  and  C_21
    3  A    between atoms: C_1  and  C_28
    4  A    between atoms: C_4  and  S_15
    5  A    between atoms: C_4  and  C_46
    6  A    between atoms: C_4  and  C_51
    7  A    between atoms: C_7  and  N_8
    8  A    between atoms: C_7  and  C_42
    9  A    between atoms: C_9  and  C_34
   10  A    between atoms: C_9  and  C_39
   11  A    between atoms: C_10  and  C_53
   12  A    between atoms: C_11  and  C_29
   13  A    between atoms: C_11  and  C_39
   14  A    between atoms: C_14  and  C_36
   15  A    between atoms: C_14  and  C_43
   16  A    between atoms: S_15  and  N_38
   17  A    between atoms: C_19  and  C_45
   18  A    between atoms: C_23  and  N_41
   19  A    between atoms: C_23  and  C_43
   20  A    between atoms: C_25  and  C_58
   21  A    between atoms: C_26  and  C_28
   22  A    between atoms: C_26  and  N_59
   23  A    between atoms: C_32  and  C_55
   24  A    between atoms: C_32  and  N_59
   25  A    between atoms: C_33  and  C_51
   26  A    between atoms: C_34  and  C_55
   27  A    between atoms: C_35  and  N_41
   28  A    between atoms: C_36  and  C_53
   29  A    between atoms: C_47  and  C_49
   30  A    between atoms: C_47  and  C_58
   31  A    between atoms: C_53  and  C_55
                            x       y       z     vdW  Elec       q    Type
                         _______ _______ _______ _____ _____    ______ ____

>  <TORSDO>
F 31

$$$$
