=
 OpenBabel11032421073D

 54 57  0  0  1  0  0  0  0  0999 V2000
  192.6300  175.4240  136.5130 C   0  0  0  0  0  0  0  0  0  0  0  0
  189.0190  176.4030  137.0920 C   0  0  0  0  0  0  0  0  0  0  0  0
  188.3260  177.1200  137.9240 N   0  0  0  0  0  0  0  0  0  0  0  0
  188.1930  178.5120  139.7800 O   0  0  0  0  0  0  0  0  0  0  0  0
  188.8950  177.7290  139.0890 C   0  0  0  0  0  0  0  0  0  0  0  0
  191.1000  176.7520  138.4280 C   0  0  0  0  0  0  0  0  0  0  0  0
  193.2140  175.9740  137.6590 C   0  0  0  0  0  3  0  0  0  0  0  0
  190.3080  177.4260  139.5150 C   0  0  2  0  0  3  0  0  0  0  0  0
  191.2540  175.5620  136.3320 C   0  0  0  0  0  3  0  0  0  0  0  0
  192.4450  176.6120  138.5820 N   0  0  0  0  0  0  0  0  0  0  0  0
  190.4740  176.2240  137.2870 C   0  0  0  0  0  0  0  0  0  0  0  0
  190.3320  176.2050  143.1360 N   0  0  0  0  0  2  0  0  0  0  0  0
  190.3030  176.5810  140.7020 N   0  0  0  0  0  2  0  0  0  0  0  0
  190.3680  177.1080  142.0280 C   0  0  0  0  0  0  0  0  0  0  0  0
  190.4690  178.3510  142.2120 O   0  0  0  0  0  0  0  0  0  0  0  0
  189.3690  177.2120  145.1310 C   0  0  0  0  0  0  0  0  0  0  0  0
  191.5000  176.4080  145.4580 C   0  0  0  0  0  2  0  0  0  0  0  0
  190.3560  176.5870  144.5170 C   0  0  0  0  0  0  0  0  0  0  0  0
  191.0190  177.0370  146.6830 N   0  0  0  0  0  0  0  0  0  0  0  0
  189.8250  177.4810  146.4910 C   0  0  0  0  0  0  0  0  0  0  0  0
  188.2740  177.4510  148.4180 C   0  0  0  0  0  1  0  0  0  0  0  0
  189.1170  178.1320  147.5040 O   0  0  0  0  0  0  0  0  0  0  0  0
  186.9130  176.9770  145.1670 C   0  0  0  0  0  1  0  0  0  0  0  0
  188.0920  177.6500  144.4900 C   0  0  0  0  0  2  0  0  0  0  0  0
  193.4310  174.7310  135.4500 C   0  0  0  0  0  2  0  0  0  0  0  0
  194.6390  174.1180  135.9880 N   0  0  0  0  0  0  0  0  0  0  0  0
  193.1530  172.4030  135.4690 O   0  0  0  0  0  1  0  0  0  0  0  0
  194.4120  172.6830  136.0080 C   0  0  0  0  0  2  0  0  0  0  0  0
  195.6890  174.3690  135.0160 C   0  0  0  0  0  2  0  0  0  0  0  0
  196.9760  174.7370  135.7250 C   0  0  0  0  0  2  0  0  0  0  0  0
  196.6900  175.3330  136.9540 O   0  0  0  0  0  0  0  0  0  0  0  0
  197.5220  174.3500  138.1180 P   0  0  1  0  0  0  0  0  0  0  0  0
  198.3550  175.6780  138.8660 O   0  0  0  0  0  1  0  0  0  0  0  0
  196.1260  174.3080  139.3440 C   0  0  0  0  0  1  0  0  0  0  0  0
  188.3370  175.8400  135.8890 C   0  0  0  0  0  2  0  0  0  0  0  0
  187.6560  174.5350  136.2450 C   0  0  0  0  0  2  0  0  0  0  0  0
  186.2890  174.5080  135.6650 C   0  0  0  0  0  3  0  0  0  0  0  0
  185.3100  175.1730  136.2630 C   0  0  0  0  0  3  0  0  0  0  0  0
  184.0020  175.1730  135.7000 N   0  0  0  0  0  2  0  0  0  0  0  0
  183.1600  176.2950  137.5690 O   0  0  0  0  0  0  0  0  0  0  0  0
  180.3940  175.2250  138.4410 C   0  0  0  0  0  2  0  0  0  0  0  0
  182.3900  178.5240  138.1430 C   0  0  2  0  0  3  0  0  0  0  0  0
  181.2880  177.9460  139.0250 C   0  0  0  0  0  2  0  0  0  0  0  0
  182.2730  174.1160  137.0910 C   0  0  0  0  0  0  0  0  0  0  0  0
  182.8720  173.0270  136.8700 O   0  0  0  0  0  0  0  0  0  0  0  0
  181.0350  174.0780  137.8130 N   0  0  0  0  0  2  0  0  0  0  0  0
  179.8140  176.4200  137.1920 S   0  0  0  0  0  0  0  0  0  0  0  0
  182.8450  177.5600  137.0510 C   0  0  0  0  0  2  0  0  0  0  0  0
  182.8330  175.4070  136.5390 C   0  0  2  0  0  3  0  0  0  0  0  0
  179.9370  177.8550  138.3180 C   0  0  0  0  0  2  0  0  0  0  0  0
  183.8000  179.0310  139.1720 P   0  0  0  0  0  0  0  0  0  0  0  0
  183.5070  178.7490  140.6270 O   0  0  0  0  0  1  0  0  0  0  0  0
  185.1820  178.1760  138.7020 O   0  0  0  0  0  0  0  0  0  0  0  0
  184.0740  180.6870  138.9670 O   0  0  0  0  0  1  0  0  0  0  0  0
  1  7  1  0  0  0  0
  2 11  1  0  0  0  0
  2  3  2  0  0  0  0
  3  5  1  0  0  0  0
  5  8  1  0  0  0  0
  5  4  2  0  0  0  0
  6 10  1  0  0  0  0
  6  8  1  0  0  0  0
  7 10  2  0  0  0  0
  8 13  1  1  0  0  0
  9  1  2  0  0  0  0
  9 11  1  0  0  0  0
 11  6  2  0  0  0  0
 12 18  1  0  0  0  0
 13 14  1  0  0  0  0
 14 15  2  0  0  0  0
 14 12  1  0  0  0  0
 16 20  1  0  0  0  0
 17 19  1  0  0  0  0
 18 16  2  0  0  0  0
 18 17  1  0  0  0  0
 20 19  2  0  0  0  0
 20 22  1  0  0  0  0
 22 21  1  0  0  0  0
 24 16  1  0  0  0  0
 24 23  1  0  0  0  0
 25 26  1  0  0  0  0
 25  1  1  0  0  0  0
 26 28  1  0  0  0  0
 27 28  1  0  0  0  0
 29 30  1  0  0  0  0
 29 26  1  0  0  0  0
 30 31  1  0  0  0  0
 31 32  1  0  0  0  0
 32 33  1  0  0  0  0
 32 34  1  1  0  0  0
 35 36  1  0  0  0  0
 35  2  1  0  0  0  0
 37 36  1  0  0  0  0
 37 38  2  0  0  0  0
 39 38  1  0  0  0  0
 42 43  1  0  0  0  0
 42 51  1  1  0  0  0
 44 46  1  0  0  0  0
 45 44  2  0  0  0  0
 46 41  1  0  0  0  0
 47 50  1  0  0  0  0
 47 41  1  0  0  0  0
 48 40  1  0  0  0  0
 48 42  1  0  0  0  0
 49 39  1  1  0  0  0
 49 44  1  0  0  0  0
 49 40  1  0  0  0  0
 50 43  1  0  0  0  0
 51 52  1  0  0  0  0
 53 51  2  0  0  0  0
 54 51  1  0  0  0  0
M  END
>  <MODEL>
1

>  <REMARK>
 VINA RESULT:      -7.5      0.000      0.000
  Name = 
  17 active torsions:
  status: ('A' for Active; 'I' for Inactive)
    1  A    between atoms: C_1  and  C_13
    2  A    between atoms: C_2  and  C_9
    3  A    between atoms: P_3  and  C_35
    4  A    between atoms: C_4  and  C_27
    5  A    between atoms: C_4  and  N_36
    6  A    between atoms: C_9  and  C_49
    7  A    between atoms: N_10  and  C_25
    8  A    between atoms: C_11  and  C_14
    9  A    between atoms: C_13  and  N_36
   10  A    between atoms: N_15  and  C_30
   11  A    between atoms: C_20  and  C_49
   12  A    between atoms: C_21  and  N_24
   13  A    between atoms: N_24  and  C_50
   14  A    between atoms: C_27  and  O_54
   15  A    between atoms: P_28  and  O_54
   16  A    between atoms: O_33  and  C_51
   17  A    between atoms: N_36  and  C_42
                            x       y       z     vdW  Elec       q    Type
                         _______ _______ _______ _____ _____    ______ ____

>  <TORSDO>
F 17

$$$$
=
 OpenBabel11032421073D

 54 57  0  0  1  0  0  0  0  0999 V2000
  189.5320  177.5550  141.0350 C   0  0  0  0  0  0  0  0  0  0  0  0
  189.0660  177.9290  137.2960 C   0  0  0  0  0  0  0  0  0  0  0  0
  189.4560  177.3450  136.2040 N   0  0  0  0  0  0  0  0  0  0  0  0
  190.6560  175.6840  135.1080 O   0  0  0  0  0  0  0  0  0  0  0  0
  190.4210  176.2860  136.1880 C   0  0  0  0  0  0  0  0  0  0  0  0
  190.5540  176.4740  138.6770 C   0  0  0  0  0  0  0  0  0  0  0  0
  190.5030  176.5480  141.0560 C   0  0  0  0  0  3  0  0  0  0  0  0
  191.1750  175.9010  137.4330 C   0  0  2  0  0  3  0  0  0  0  0  0
  189.0670  178.0100  139.8010 C   0  0  0  0  0  3  0  0  0  0  0  0
  190.9900  176.0400  139.8920 N   0  0  0  0  0  0  0  0  0  0  0  0
  189.5730  177.4770  138.6100 C   0  0  0  0  0  0  0  0  0  0  0  0
  194.9220  176.0630  136.7010 N   0  0  0  0  0  2  0  0  0  0  0  0
  192.5590  176.3450  137.3370 N   0  0  0  0  0  2  0  0  0  0  0  0
  193.5960  175.5360  136.7790 C   0  0  0  0  0  0  0  0  0  0  0  0
  193.3410  174.3700  136.3740 O   0  0  0  0  0  0  0  0  0  0  0  0
  196.7900  174.5080  136.7920 C   0  0  0  0  0  0  0  0  0  0  0  0
  196.6170  175.5990  134.7750 C   0  0  0  0  0  2  0  0  0  0  0  0
  196.0520  175.3850  136.1400 C   0  0  0  0  0  0  0  0  0  0  0  0
  197.7860  174.7280  134.7640 N   0  0  0  0  0  0  0  0  0  0  0  0
  197.8730  174.1200  135.8950 C   0  0  0  0  0  0  0  0  0  0  0  0
  198.9830  171.9330  135.5610 C   0  0  0  0  0  1  0  0  0  0  0  0
  198.9050  173.2160  136.1600 O   0  0  0  0  0  0  0  0  0  0  0  0
  195.8730  172.7700  138.2860 C   0  0  0  0  0  1  0  0  0  0  0  0
  196.5930  174.1040  138.2180 C   0  0  0  0  0  2  0  0  0  0  0  0
  188.9410  178.1350  142.2870 C   0  0  0  0  0  2  0  0  0  0  0  0
  189.3950  177.4340  143.4810 N   0  0  0  0  0  0  0  0  0  0  0  0
  190.8310  179.2350  143.8220 O   0  0  0  0  0  1  0  0  0  0  0  0
  189.8430  178.4480  144.4210 C   0  0  0  0  0  2  0  0  0  0  0  0
  188.2160  176.8120  144.0590 C   0  0  0  0  0  2  0  0  0  0  0  0
  187.0010  177.6880  143.8300 C   0  0  0  0  0  2  0  0  0  0  0  0
  186.0120  177.3840  144.7660 O   0  0  0  0  0  0  0  0  0  0  0  0
  185.8870  178.8120  145.7460 P   0  0  1  0  0  0  0  0  0  0  0  0
  184.2920  178.4510  146.3320 O   0  0  0  0  0  1  0  0  0  0  0  0
  186.7760  178.0960  147.2130 C   0  0  0  0  0  1  0  0  0  0  0  0
  188.0300  179.0010  137.2080 C   0  0  0  0  0  2  0  0  0  0  0  0
  186.8300  178.4950  136.4340 C   0  0  0  0  0  2  0  0  0  0  0  0
  185.9660  177.6800  137.3270 C   0  0  0  0  0  3  0  0  0  0  0  0
  185.1820  178.2840  138.2090 C   0  0  0  0  0  3  0  0  0  0  0  0
  184.3320  177.5120  139.0520 N   0  0  0  0  0  2  0  0  0  0  0  0
  182.1530  177.6260  139.8870 O   0  0  0  0  0  0  0  0  0  0  0  0
  180.0810  176.4000  137.9480 C   0  0  0  0  0  2  0  0  0  0  0  0
  180.5140  179.3310  140.4340 C   0  0  2  0  0  3  0  0  0  0  0  0
  179.3830  178.4500  139.9110 C   0  0  0  0  0  2  0  0  0  0  0  0
  182.6040  175.9970  138.1820 C   0  0  0  0  0  0  0  0  0  0  0  0
  183.5130  175.1250  138.1130 O   0  0  0  0  0  0  0  0  0  0  0  0
  181.3080  175.6730  137.6590 N   0  0  0  0  0  2  0  0  0  0  0  0
  180.1260  178.0770  137.2330 S   0  0  0  0  0  0  0  0  0  0  0  0
  181.8650  178.9960  139.8090 C   0  0  0  0  0  2  0  0  0  0  0  0
  182.9150  177.3650  138.7430 C   0  0  2  0  0  3  0  0  0  0  0  0
  178.9810  178.7790  138.4740 C   0  0  0  0  0  2  0  0  0  0  0  0
  180.6030  179.2070  142.2450 P   0  0  0  0  0  0  0  0  0  0  0  0
  179.6950  178.1020  142.7340 O   0  0  0  0  0  1  0  0  0  0  0  0
  182.1940  178.8750  142.7130 O   0  0  0  0  0  0  0  0  0  0  0  0
  180.1160  180.6740  142.9300 O   0  0  0  0  0  1  0  0  0  0  0  0
  1  7  1  0  0  0  0
  1 25  1  0  0  0  0
  2 11  1  0  0  0  0
  3  2  2  0  0  0  0
  4  5  2  0  0  0  0
  5  3  1  0  0  0  0
  5  8  1  0  0  0  0
  6 10  1  0  0  0  0
  8 13  1  6  0  0  0
  8  6  1  0  0  0  0
  9  1  2  0  0  0  0
 10  7  2  0  0  0  0
 11  6  2  0  0  0  0
 11  9  1  0  0  0  0
 12 14  1  0  0  0  0
 14 13  1  0  0  0  0
 15 14  2  0  0  0  0
 16 24  1  0  0  0  0
 17 18  1  0  0  0  0
 18 12  1  0  0  0  0
 18 16  2  0  0  0  0
 19 17  1  0  0  0  0
 19 20  2  0  0  0  0
 20 22  1  0  0  0  0
 20 16  1  0  0  0  0
 21 22  1  0  0  0  0
 24 23  1  0  0  0  0
 25 26  1  0  0  0  0
 26 29  1  0  0  0  0
 26 28  1  0  0  0  0
 27 28  1  0  0  0  0
 30 29  1  0  0  0  0
 30 31  1  0  0  0  0
 31 32  1  0  0  0  0
 32 33  1  0  0  0  0
 32 34  1  1  0  0  0
 35  2  1  0  0  0  0
 36 35  1  0  0  0  0
 36 37  1  0  0  0  0
 37 38  2  0  0  0  0
 38 39  1  0  0  0  0
 42 51  1  1  0  0  0
 43 42  1  0  0  0  0
 44 49  1  0  0  0  0
 45 44  2  0  0  0  0
 46 41  1  0  0  0  0
 46 44  1  0  0  0  0
 47 41  1  0  0  0  0
 47 50  1  0  0  0  0
 48 40  1  0  0  0  0
 48 42  1  0  0  0  0
 49 39  1  1  0  0  0
 49 40  1  0  0  0  0
 50 43  1  0  0  0  0
 51 53  2  0  0  0  0
 51 52  1  0  0  0  0
 51 54  1  0  0  0  0
M  END
>  <MODEL>
2

>  <REMARK>
 VINA RESULT:      -7.3      3.023      8.274
  Name = 
  17 active torsions:
  status: ('A' for Active; 'I' for Inactive)
    1  A    between atoms: C_1  and  C_13
    2  A    between atoms: C_2  and  C_9
    3  A    between atoms: P_3  and  C_35
    4  A    between atoms: C_4  and  C_27
    5  A    between atoms: C_4  and  N_36
    6  A    between atoms: C_9  and  C_49
    7  A    between atoms: N_10  and  C_25
    8  A    between atoms: C_11  and  C_14
    9  A    between atoms: C_13  and  N_36
   10  A    between atoms: N_15  and  C_30
   11  A    between atoms: C_20  and  C_49
   12  A    between atoms: C_21  and  N_24
   13  A    between atoms: N_24  and  C_50
   14  A    between atoms: C_27  and  O_54
   15  A    between atoms: P_28  and  O_54
   16  A    between atoms: O_33  and  C_51
   17  A    between atoms: N_36  and  C_42
                            x       y       z     vdW  Elec       q    Type
                         _______ _______ _______ _____ _____    ______ ____

>  <TORSDO>
F 17

$$$$
=
 OpenBabel11032421073D

 54 57  0  0  1  0  0  0  0  0999 V2000
  189.2350  177.6130  140.6000 C   0  0  0  0  0  0  0  0  0  0  0  0
  188.9850  177.7740  136.8260 C   0  0  0  0  0  0  0  0  0  0  0  0
  189.4410  177.1340  135.7920 N   0  0  0  0  0  0  0  0  0  0  0  0
  190.7130  175.4260  134.8610 O   0  0  0  0  0  0  0  0  0  0  0  0
  190.4120  176.0850  135.8910 C   0  0  0  0  0  0  0  0  0  0  0  0
  190.3990  176.4120  138.3690 C   0  0  0  0  0  0  0  0  0  0  0  0
  190.2090  176.6170  140.7330 C   0  0  0  0  0  3  0  0  0  0  0  0
  191.0950  175.7770  137.1970 C   0  0  2  0  0  3  0  0  0  0  0  0
  188.8400  177.9940  139.3180 C   0  0  0  0  0  3  0  0  0  0  0  0
  190.7660  176.0500  139.6290 N   0  0  0  0  0  0  0  0  0  0  0  0
  189.4170  177.4000  138.1900 C   0  0  0  0  0  0  0  0  0  0  0  0
  194.8940  175.8930  136.7990 N   0  0  0  0  0  2  0  0  0  0  0  0
  192.4790  176.2270  137.1560 N   0  0  0  0  0  2  0  0  0  0  0  0
  193.5680  175.3590  136.8420 C   0  0  0  0  0  0  0  0  0  0  0  0
  193.3590  174.1360  136.6170 O   0  0  0  0  0  0  0  0  0  0  0  0
  196.6980  174.3410  137.2980 C   0  0  0  0  0  0  0  0  0  0  0  0
  196.8260  175.2290  135.1810 C   0  0  0  0  0  2  0  0  0  0  0  0
  196.0750  175.1550  136.4680 C   0  0  0  0  0  0  0  0  0  0  0  0
  197.9680  174.3520  135.4150 N   0  0  0  0  0  0  0  0  0  0  0  0
  197.8860  173.8580  136.6020 C   0  0  0  0  0  0  0  0  0  0  0  0
  198.6780  171.5700  137.1150 C   0  0  0  0  0  1  0  0  0  0  0  0
  198.8520  172.9770  137.0930 O   0  0  0  0  0  0  0  0  0  0  0  0
  197.2160  174.8380  139.6600 C   0  0  0  0  0  1  0  0  0  0  0  0
  196.3000  174.0810  138.7150 C   0  0  0  0  0  2  0  0  0  0  0  0
  188.5690  178.2560  141.7810 C   0  0  0  0  0  2  0  0  0  0  0  0
  188.4980  177.3570  142.9260 N   0  0  0  0  0  0  0  0  0  0  0  0
  189.8350  177.0270  144.8020 O   0  0  0  0  0  1  0  0  0  0  0  0
  189.2170  178.0000  144.0130 C   0  0  0  0  0  2  0  0  0  0  0  0
  187.1000  177.3040  143.3140 C   0  0  0  0  0  2  0  0  0  0  0  0
  186.3170  178.3770  142.5850 C   0  0  0  0  0  2  0  0  0  0  0  0
  184.9690  178.0230  142.5210 O   0  0  0  0  0  0  0  0  0  0  0  0
  184.2840  178.6510  143.9880 P   0  0  1  0  0  0  0  0  0  0  0  0
  184.8940  180.2610  143.7610 O   0  0  0  0  0  1  0  0  0  0  0  0
  182.6070  178.9980  143.2660 C   0  0  0  0  0  1  0  0  0  0  0  0
  187.9490  178.8290  136.6170 C   0  0  0  0  0  2  0  0  0  0  0  0
  186.7080  178.2190  136.0010 C   0  0  0  0  0  2  0  0  0  0  0  0
  186.0210  177.3610  137.0010 C   0  0  0  0  0  3  0  0  0  0  0  0
  185.6010  176.1550  136.6500 C   0  0  0  0  0  3  0  0  0  0  0  0
  184.9640  175.3160  137.6090 N   0  0  0  0  0  2  0  0  0  0  0  0
  182.7190  174.9130  138.1200 O   0  0  0  0  0  0  0  0  0  0  0  0
  181.6060  172.4220  136.6680 C   0  0  0  0  0  2  0  0  0  0  0  0
  180.5670  175.9800  137.7710 C   0  0  2  0  0  3  0  0  0  0  0  0
  179.9010  174.6250  137.5500 C   0  0  0  0  0  2  0  0  0  0  0  0
  184.0120  173.0740  137.2770 C   0  0  0  0  0  0  0  0  0  0  0  0
  185.1310  172.6290  137.6540 O   0  0  0  0  0  0  0  0  0  0  0  0
  183.0270  172.1400  136.8150 N   0  0  0  0  0  2  0  0  0  0  0  0
  181.3110  173.6350  135.3390 S   0  0  0  0  0  0  0  0  0  0  0  0
  182.0620  175.9640  137.4640 C   0  0  0  0  0  2  0  0  0  0  0  0
  183.7640  174.5650  137.2580 C   0  0  2  0  0  3  0  0  0  0  0  0
  179.7580  174.2590  136.0740 C   0  0  0  0  0  2  0  0  0  0  0  0
  180.2740  176.5410  139.4750 P   0  0  0  0  0  0  0  0  0  0  0  0
  181.4980  177.2510  140.0040 O   0  0  0  0  0  1  0  0  0  0  0  0
  178.9540  177.5980  139.5050 O   0  0  0  0  0  0  0  0  0  0  0  0
  179.9380  175.2030  140.4530 O   0  0  0  0  0  1  0  0  0  0  0  0
  1  7  1  0  0  0  0
  1 25  1  0  0  0  0
  2 11  1  0  0  0  0
  3  5  1  0  0  0  0
  3  2  2  0  0  0  0
  4  5  2  0  0  0  0
  5  8  1  0  0  0  0
  6 10  1  0  0  0  0
  8 13  1  6  0  0  0
  8  6  1  0  0  0  0
  9  1  2  0  0  0  0
 10  7  2  0  0  0  0
 11  6  2  0  0  0  0
 11  9  1  0  0  0  0
 12 14  1  0  0  0  0
 14 13  1  0  0  0  0
 15 14  2  0  0  0  0
 16 24  1  0  0  0  0
 17 19  1  0  0  0  0
 17 18  1  0  0  0  0
 18 12  1  0  0  0  0
 18 16  2  0  0  0  0
 19 20  2  0  0  0  0
 20 22  1  0  0  0  0
 20 16  1  0  0  0  0
 22 21  1  0  0  0  0
 24 23  1  0  0  0  0
 25 26  1  0  0  0  0
 26 29  1  0  0  0  0
 26 28  1  0  0  0  0
 28 27  1  0  0  0  0
 30 29  1  0  0  0  0
 31 30  1  0  0  0  0
 31 32  1  0  0  0  0
 32 34  1  6  0  0  0
 33 32  1  0  0  0  0
 35  2  1  0  0  0  0
 36 35  1  0  0  0  0
 36 37  1  0  0  0  0
 38 37  2  0  0  0  0
 38 39  1  0  0  0  0
 41 46  1  0  0  0  0
 42 51  1  1  0  0  0
 43 42  1  0  0  0  0
 44 45  2  0  0  0  0
 46 44  1  0  0  0  0
 47 50  1  0  0  0  0
 47 41  1  0  0  0  0
 48 42  1  0  0  0  0
 48 40  1  0  0  0  0
 49 44  1  0  0  0  0
 49 39  1  1  0  0  0
 49 40  1  0  0  0  0
 50 43  1  0  0  0  0
 51 53  2  0  0  0  0
 51 52  1  0  0  0  0
 51 54  1  0  0  0  0
M  END
>  <MODEL>
3

>  <REMARK>
 VINA RESULT:      -6.7      3.152      8.206
  Name = 
  17 active torsions:
  status: ('A' for Active; 'I' for Inactive)
    1  A    between atoms: C_1  and  C_13
    2  A    between atoms: C_2  and  C_9
    3  A    between atoms: P_3  and  C_35
    4  A    between atoms: C_4  and  C_27
    5  A    between atoms: C_4  and  N_36
    6  A    between atoms: C_9  and  C_49
    7  A    between atoms: N_10  and  C_25
    8  A    between atoms: C_11  and  C_14
    9  A    between atoms: C_13  and  N_36
   10  A    between atoms: N_15  and  C_30
   11  A    between atoms: C_20  and  C_49
   12  A    between atoms: C_21  and  N_24
   13  A    between atoms: N_24  and  C_50
   14  A    between atoms: C_27  and  O_54
   15  A    between atoms: P_28  and  O_54
   16  A    between atoms: O_33  and  C_51
   17  A    between atoms: N_36  and  C_42
                            x       y       z     vdW  Elec       q    Type
                         _______ _______ _______ _____ _____    ______ ____

>  <TORSDO>
F 17

$$$$
=
 OpenBabel11032421073D

 54 57  0  0  1  0  0  0  0  0999 V2000
  192.4410  175.8300  136.4260 C   0  0  0  0  0  0  0  0  0  0  0  0
  188.8320  176.7570  137.0910 C   0  0  0  0  0  0  0  0  0  0  0  0
  188.1430  177.4190  137.9710 N   0  0  0  0  0  0  0  0  0  0  0  0
  188.0200  178.6940  139.9100 O   0  0  0  0  0  0  0  0  0  0  0  0
  188.7200  177.9570  139.1670 C   0  0  0  0  0  0  0  0  0  0  0  0
  190.9220  177.0310  138.4310 C   0  0  0  0  0  0  0  0  0  0  0  0
  193.0330  176.3110  137.5990 C   0  0  0  0  0  3  0  0  0  0  0  0
  190.1370  177.6340  139.5630 C   0  0  2  0  0  3  0  0  0  0  0  0
  191.0640  175.9730  136.2640 C   0  0  0  0  0  3  0  0  0  0  0  0
  192.2690  176.8880  138.5650 N   0  0  0  0  0  0  0  0  0  0  0  0
  190.2890  176.5720  137.2640 C   0  0  0  0  0  0  0  0  0  0  0  0
  190.1610  176.1950  143.1020 N   0  0  0  0  0  2  0  0  0  0  0  0
  190.1440  176.7190  140.6960 N   0  0  0  0  0  2  0  0  0  0  0  0
  190.1840  177.1640  142.0520 C   0  0  0  0  0  0  0  0  0  0  0  0
  190.2500  178.3960  142.3130 O   0  0  0  0  0  0  0  0  0  0  0  0
  189.0750  176.7120  145.2170 C   0  0  0  0  0  0  0  0  0  0  0  0
  191.3700  176.6640  145.3640 C   0  0  0  0  0  2  0  0  0  0  0  0
  190.1630  176.4910  144.5040 C   0  0  0  0  0  0  0  0  0  0  0  0
  190.8030  177.0300  146.6570 N   0  0  0  0  0  0  0  0  0  0  0  0
  189.5180  177.0510  146.5650 C   0  0  0  0  0  0  0  0  0  0  0  0
  188.9220  178.5200  148.4650 C   0  0  0  0  0  1  0  0  0  0  0  0
  188.7140  177.3700  147.6620 O   0  0  0  0  0  0  0  0  0  0  0  0
  186.9880  178.0190  145.0590 C   0  0  0  0  0  1  0  0  0  0  0  0
  187.6800  176.7220  144.6830 C   0  0  0  0  0  2  0  0  0  0  0  0
  193.2370  175.2060  135.3160 C   0  0  0  0  0  2  0  0  0  0  0  0
  193.7690  173.9020  135.6910 N   0  0  0  0  0  0  0  0  0  0  0  0
  191.8880  172.5720  136.0230 O   0  0  0  0  0  1  0  0  0  0  0  0
  192.8900  172.9040  135.1070 C   0  0  0  0  0  2  0  0  0  0  0  0
  195.0530  173.7800  135.0220 C   0  0  0  0  0  2  0  0  0  0  0  0
  196.1370  173.4620  136.0320 C   0  0  0  0  0  2  0  0  0  0  0  0
  196.5790  174.6350  136.6430 O   0  0  0  0  0  0  0  0  0  0  0  0
  197.4260  174.0960  138.0600 P   0  0  1  0  0  0  0  0  0  0  0  0
  198.1760  175.6300  138.3770 O   0  0  0  0  0  1  0  0  0  0  0  0
  196.0020  174.3560  139.2250 C   0  0  0  0  0  1  0  0  0  0  0  0
  188.1420  176.2660  135.8610 C   0  0  0  0  0  2  0  0  0  0  0  0
  187.0360  177.2250  135.4730 C   0  0  0  0  0  2  0  0  0  0  0  0
  185.7370  176.7300  136.0000 C   0  0  0  0  0  3  0  0  0  0  0  0
  184.6200  177.3790  135.7020 C   0  0  0  0  0  3  0  0  0  0  0  0
  183.3690  176.8990  136.1820 N   0  0  0  0  0  2  0  0  0  0  0  0
  181.7770  177.8000  137.6360 O   0  0  0  0  0  0  0  0  0  0  0  0
  179.5120  179.2770  136.1370 C   0  0  0  0  0  2  0  0  0  0  0  0
  181.6590  179.5200  139.3450 C   0  0  2  0  0  3  0  0  0  0  0  0
  180.2560  179.9130  138.8910 C   0  0  0  0  0  2  0  0  0  0  0  0
  181.1150  177.4310  135.3580 C   0  0  0  0  0  0  0  0  0  0  0  0
  181.2190  176.3990  134.6400 O   0  0  0  0  0  0  0  0  0  0  0  0
  179.9590  178.2630  135.1920 N   0  0  0  0  0  2  0  0  0  0  0  0
  180.6940  180.6620  136.2250 S   0  0  0  0  0  0  0  0  0  0  0  0
  182.4760  178.8550  138.2410 C   0  0  0  0  0  2  0  0  0  0  0  0
  182.2280  177.7980  136.3120 C   0  0  2  0  0  3  0  0  0  0  0  0
  180.2440  181.1090  137.9400 C   0  0  0  0  0  2  0  0  0  0  0  0
  181.5540  178.4360  140.8000 P   0  0  0  0  0  0  0  0  0  0  0  0
  181.1000  179.2290  142.0040 O   0  0  0  0  0  1  0  0  0  0  0  0
  180.4530  177.1890  140.5000 O   0  0  0  0  0  0  0  0  0  0  0  0
  183.0770  177.7710  141.1110 O   0  0  0  0  0  1  0  0  0  0  0  0
  1  7  1  0  0  0  0
  2 11  1  0  0  0  0
  2  3  2  0  0  0  0
  3  5  1  0  0  0  0
  5  8  1  0  0  0  0
  5  4  2  0  0  0  0
  6 10  1  0  0  0  0
  6  8  1  0  0  0  0
  7 10  2  0  0  0  0
  8 13  1  1  0  0  0
  9  1  2  0  0  0  0
  9 11  1  0  0  0  0
 11  6  2  0  0  0  0
 12 18  1  0  0  0  0
 13 14  1  0  0  0  0
 14 15  2  0  0  0  0
 14 12  1  0  0  0  0
 16 20  1  0  0  0  0
 17 19  1  0  0  0  0
 18 16  2  0  0  0  0
 18 17  1  0  0  0  0
 20 19  2  0  0  0  0
 20 22  1  0  0  0  0
 22 21  1  0  0  0  0
 24 23  1  0  0  0  0
 24 16  1  0  0  0  0
 25 26  1  0  0  0  0
 25  1  1  0  0  0  0
 28 26  1  0  0  0  0
 28 27  1  0  0  0  0
 29 26  1  0  0  0  0
 29 30  1  0  0  0  0
 30 31  1  0  0  0  0
 31 32  1  0  0  0  0
 32 33  1  0  0  0  0
 32 34  1  1  0  0  0
 35  2  1  0  0  0  0
 36 35  1  0  0  0  0
 36 37  1  0  0  0  0
 38 37  2  0  0  0  0
 38 39  1  0  0  0  0
 40 48  1  0  0  0  0
 41 47  1  0  0  0  0
 42 51  1  1  0  0  0
 43 42  1  0  0  0  0
 44 49  1  0  0  0  0
 45 44  2  0  0  0  0
 46 44  1  0  0  0  0
 46 41  1  0  0  0  0
 47 50  1  0  0  0  0
 48 42  1  0  0  0  0
 49 39  1  1  0  0  0
 49 40  1  0  0  0  0
 50 43  1  0  0  0  0
 51 54  1  0  0  0  0
 51 52  1  0  0  0  0
 53 51  2  0  0  0  0
M  END
>  <MODEL>
4

>  <REMARK>
 VINA RESULT:      -6.7      1.761      2.071
  Name = 
  17 active torsions:
  status: ('A' for Active; 'I' for Inactive)
    1  A    between atoms: C_1  and  C_13
    2  A    between atoms: C_2  and  C_9
    3  A    between atoms: P_3  and  C_35
    4  A    between atoms: C_4  and  C_27
    5  A    between atoms: C_4  and  N_36
    6  A    between atoms: C_9  and  C_49
    7  A    between atoms: N_10  and  C_25
    8  A    between atoms: C_11  and  C_14
    9  A    between atoms: C_13  and  N_36
   10  A    between atoms: N_15  and  C_30
   11  A    between atoms: C_20  and  C_49
   12  A    between atoms: C_21  and  N_24
   13  A    between atoms: N_24  and  C_50
   14  A    between atoms: C_27  and  O_54
   15  A    between atoms: P_28  and  O_54
   16  A    between atoms: O_33  and  C_51
   17  A    between atoms: N_36  and  C_42
                            x       y       z     vdW  Elec       q    Type
                         _______ _______ _______ _____ _____    ______ ____

>  <TORSDO>
F 17

$$$$
=
 OpenBabel11032421073D

 54 57  0  0  1  0  0  0  0  0999 V2000
  192.2910  175.3390  136.8890 C   0  0  0  0  0  0  0  0  0  0  0  0
  188.5980  176.1680  136.8010 C   0  0  0  0  0  0  0  0  0  0  0  0
  187.7520  176.9140  137.4450 N   0  0  0  0  0  0  0  0  0  0  0  0
  187.2660  178.4460  139.1240 O   0  0  0  0  0  0  0  0  0  0  0  0
  188.1010  177.6460  138.6260 C   0  0  0  0  0  0  0  0  0  0  0  0
  190.4200  176.7370  138.4120 C   0  0  0  0  0  0  0  0  0  0  0  0
  192.6600  176.0120  138.0590 C   0  0  0  0  0  3  0  0  0  0  0  0
  189.4380  177.4560  139.2950 C   0  0  2  0  0  3  0  0  0  0  0  0
  190.9580  175.3870  136.4820 C   0  0  0  0  0  3  0  0  0  0  0  0
  191.7280  176.6820  138.7880 N   0  0  0  0  0  0  0  0  0  0  0  0
  190.0090  176.0840  137.2380 C   0  0  0  0  0  0  0  0  0  0  0  0
  188.8060  176.5350  142.9490 N   0  0  0  0  0  2  0  0  0  0  0  0
  189.2740  176.7140  140.5370 N   0  0  0  0  0  2  0  0  0  0  0  0
  188.9760  177.3450  141.7830 C   0  0  0  0  0  0  0  0  0  0  0  0
  188.8770  178.6000  141.8510 O   0  0  0  0  0  0  0  0  0  0  0  0
  189.3640  177.3840  145.1590 C   0  0  0  0  0  0  0  0  0  0  0  0
  187.1020  177.1330  144.8290 C   0  0  0  0  0  2  0  0  0  0  0  0
  188.4740  177.0210  144.2550 C   0  0  0  0  0  0  0  0  0  0  0  0
  187.3510  177.5960  146.1890 N   0  0  0  0  0  0  0  0  0  0  0  0
  188.6190  177.7360  146.3640 C   0  0  0  0  0  0  0  0  0  0  0  0
  188.3930  178.1920  148.7850 C   0  0  0  0  0  1  0  0  0  0  0  0
  189.1440  178.1720  147.5830 O   0  0  0  0  0  0  0  0  0  0  0  0
  191.4500  176.3810  146.0170 C   0  0  0  0  0  1  0  0  0  0  0  0
  190.8470  177.3190  144.9870 C   0  0  0  0  0  2  0  0  0  0  0  0
  193.2800  174.6030  136.0330 C   0  0  0  0  0  2  0  0  0  0  0  0
  194.1300  175.5130  135.2750 N   0  0  0  0  0  0  0  0  0  0  0  0
  195.3260  177.4820  135.6110 O   0  0  0  0  0  1  0  0  0  0  0  0
  194.2190  176.7450  136.0410 C   0  0  0  0  0  2  0  0  0  0  0  0
  195.4560  174.9200  135.2680 C   0  0  0  0  0  2  0  0  0  0  0  0
  195.4530  173.6330  136.0680 C   0  0  0  0  0  2  0  0  0  0  0  0
  196.3570  173.7280  137.1270 O   0  0  0  0  0  0  0  0  0  0  0  0
  197.6970  174.6200  136.4770 P   0  0  1  0  0  0  0  0  0  0  0  0
  198.1220  175.3700  137.9840 O   0  0  0  0  0  1  0  0  0  0  0  0
  198.9220  173.2300  136.6240 C   0  0  0  0  0  1  0  0  0  0  0  0
  188.1420  175.4720  135.5610 C   0  0  0  0  0  2  0  0  0  0  0  0
  186.8640  176.1060  135.0540 C   0  0  0  0  0  2  0  0  0  0  0  0
  185.8760  175.0460  134.7240 C   0  0  0  0  0  3  0  0  0  0  0  0
  185.2370  174.4190  135.7020 C   0  0  0  0  0  3  0  0  0  0  0  0
  184.2710  173.4190  135.3940 N   0  0  0  0  0  2  0  0  0  0  0  0
  182.9490  174.3970  137.0540 O   0  0  0  0  0  0  0  0  0  0  0  0
  180.4780  172.6780  137.7600 C   0  0  0  0  0  2  0  0  0  0  0  0
  181.5580  176.3670  137.3290 C   0  0  2  0  0  3  0  0  0  0  0  0
  180.5500  175.5730  138.1550 C   0  0  0  0  0  2  0  0  0  0  0  0
  182.7290  172.0310  136.7110 C   0  0  0  0  0  0  0  0  0  0  0  0
  183.6140  171.1330  136.6570 O   0  0  0  0  0  0  0  0  0  0  0  0
  181.4670  171.7080  137.3120 N   0  0  0  0  0  2  0  0  0  0  0  0
  179.7570  173.5800  136.3490 S   0  0  0  0  0  0  0  0  0  0  0  0
  182.3760  175.4890  136.3860 C   0  0  0  0  0  2  0  0  0  0  0  0
  182.9910  173.3840  136.0910 C   0  0  2  0  0  3  0  0  0  0  0  0
  179.3640  175.0700  137.3340 C   0  0  0  0  0  2  0  0  0  0  0  0
  182.6530  177.3080  138.4320 P   0  0  0  0  0  0  0  0  0  0  0  0
  183.9820  177.5550  137.7550 O   0  0  0  0  0  0  0  0  0  0  0  0
  181.9350  178.7910  138.8150 O   0  0  0  0  0  1  0  0  0  0  0  0
  182.9050  176.4280  139.8530 O   0  0  0  0  0  1  0  0  0  0  0  0
  1  7  1  0  0  0  0
  2 11  1  0  0  0  0
  2  3  2  0  0  0  0
  3  5  1  0  0  0  0
  5  4  2  0  0  0  0
  5  8  1  0  0  0  0
  6 10  1  0  0  0  0
  6  8  1  0  0  0  0
  7 10  2  0  0  0  0
  8 13  1  1  0  0  0
  9  1  2  0  0  0  0
  9 11  1  0  0  0  0
 11  6  2  0  0  0  0
 12 18  1  0  0  0  0
 13 14  1  0  0  0  0
 14 15  2  0  0  0  0
 14 12  1  0  0  0  0
 16 20  1  0  0  0  0
 17 19  1  0  0  0  0
 18 17  1  0  0  0  0
 18 16  2  0  0  0  0
 19 20  2  0  0  0  0
 20 22  1  0  0  0  0
 22 21  1  0  0  0  0
 24 16  1  0  0  0  0
 24 23  1  0  0  0  0
 25  1  1  0  0  0  0
 26 25  1  0  0  0  0
 26 28  1  0  0  0  0
 27 28  1  0  0  0  0
 29 26  1  0  0  0  0
 29 30  1  0  0  0  0
 30 31  1  0  0  0  0
 32 34  1  1  0  0  0
 32 31  1  0  0  0  0
 32 33  1  0  0  0  0
 35  2  1  0  0  0  0
 36 35  1  0  0  0  0
 37 36  1  0  0  0  0
 37 38  2  0  0  0  0
 39 38  1  0  0  0  0
 42 43  1  0  0  0  0
 42 51  1  1  0  0  0
 44 46  1  0  0  0  0
 45 44  2  0  0  0  0
 46 41  1  0  0  0  0
 47 50  1  0  0  0  0
 47 41  1  0  0  0  0
 48 40  1  0  0  0  0
 48 42  1  0  0  0  0
 49 39  1  1  0  0  0
 49 44  1  0  0  0  0
 49 40  1  0  0  0  0
 50 43  1  0  0  0  0
 51 53  1  0  0  0  0
 51 54  1  0  0  0  0
 52 51  2  0  0  0  0
M  END
>  <MODEL>
5

>  <REMARK>
 VINA RESULT:      -6.6      1.631      2.291
  Name = 
  17 active torsions:
  status: ('A' for Active; 'I' for Inactive)
    1  A    between atoms: C_1  and  C_13
    2  A    between atoms: C_2  and  C_9
    3  A    between atoms: P_3  and  C_35
    4  A    between atoms: C_4  and  C_27
    5  A    between atoms: C_4  and  N_36
    6  A    between atoms: C_9  and  C_49
    7  A    between atoms: N_10  and  C_25
    8  A    between atoms: C_11  and  C_14
    9  A    between atoms: C_13  and  N_36
   10  A    between atoms: N_15  and  C_30
   11  A    between atoms: C_20  and  C_49
   12  A    between atoms: C_21  and  N_24
   13  A    between atoms: N_24  and  C_50
   14  A    between atoms: C_27  and  O_54
   15  A    between atoms: P_28  and  O_54
   16  A    between atoms: O_33  and  C_51
   17  A    between atoms: N_36  and  C_42
                            x       y       z     vdW  Elec       q    Type
                         _______ _______ _______ _____ _____    ______ ____

>  <TORSDO>
F 17

$$$$
=
 OpenBabel11032421073D

 54 57  0  0  1  0  0  0  0  0999 V2000
  189.3890  177.5330  141.1190 C   0  0  0  0  0  0  0  0  0  0  0  0
  188.8410  177.6570  137.3750 C   0  0  0  0  0  0  0  0  0  0  0  0
  189.2350  177.0230  136.3120 N   0  0  0  0  0  0  0  0  0  0  0  0
  190.4830  175.3480  135.2950 O   0  0  0  0  0  0  0  0  0  0  0  0
  190.2420  176.0060  136.3410 C   0  0  0  0  0  0  0  0  0  0  0  0
  190.4130  176.3510  138.8110 C   0  0  0  0  0  0  0  0  0  0  0  0
  190.4010  176.5690  141.1810 C   0  0  0  0  0  3  0  0  0  0  0  0
  191.0350  175.7280  137.5920 C   0  0  2  0  0  3  0  0  0  0  0  0
  188.8830  177.8920  139.8700 C   0  0  0  0  0  3  0  0  0  0  0  0
  190.8880  176.0110  140.0410 N   0  0  0  0  0  0  0  0  0  0  0  0
  189.3890  177.3080  138.7030 C   0  0  0  0  0  0  0  0  0  0  0  0
  194.7820  175.9630  136.8820 N   0  0  0  0  0  2  0  0  0  0  0  0
  192.3970  176.2210  137.4410 N   0  0  0  0  0  2  0  0  0  0  0  0
  193.4820  175.3880  137.0300 C   0  0  0  0  0  0  0  0  0  0  0  0
  193.2910  174.1600  136.8130 O   0  0  0  0  0  0  0  0  0  0  0  0
  196.6060  174.3810  137.1830 C   0  0  0  0  0  0  0  0  0  0  0  0
  196.6610  175.4530  135.1490 C   0  0  0  0  0  2  0  0  0  0  0  0
  195.9540  175.2620  136.4490 C   0  0  0  0  0  0  0  0  0  0  0  0
  197.8120  174.5660  135.2670 N   0  0  0  0  0  0  0  0  0  0  0  0
  197.7710  173.9680  136.4070 C   0  0  0  0  0  0  0  0  0  0  0  0
  198.4670  171.7120  137.1490 C   0  0  0  0  0  1  0  0  0  0  0  0
  198.7550  173.0520  136.7870 O   0  0  0  0  0  0  0  0  0  0  0  0
  196.9930  174.8850  139.5680 C   0  0  0  0  0  1  0  0  0  0  0  0
  196.2560  173.9960  138.5840 C   0  0  0  0  0  2  0  0  0  0  0  0
  188.7970  178.1650  142.3450 C   0  0  0  0  0  2  0  0  0  0  0  0
  188.7550  177.2400  143.4710 N   0  0  0  0  0  0  0  0  0  0  0  0
  189.1120  177.3160  145.7700 O   0  0  0  0  0  1  0  0  0  0  0  0
  189.5230  177.8480  144.5450 C   0  0  0  0  0  2  0  0  0  0  0  0
  187.3710  177.1970  143.9100 C   0  0  0  0  0  2  0  0  0  0  0  0
  186.5700  178.2740  143.2060 C   0  0  0  0  0  2  0  0  0  0  0  0
  185.2480  177.8570  143.0460 O   0  0  0  0  0  0  0  0  0  0  0  0
  184.3820  179.3030  142.6310 P   0  0  1  0  0  0  0  0  0  0  0  0
  185.1010  179.4610  141.0580 O   0  0  0  0  0  1  0  0  0  0  0  0
  182.8540  178.4290  142.0360 C   0  0  0  0  0  1  0  0  0  0  0  0
  187.7600  178.6780  137.2420 C   0  0  0  0  0  2  0  0  0  0  0  0
  186.5130  178.0380  136.6690 C   0  0  0  0  0  2  0  0  0  0  0  0
  185.3800  178.2120  137.6150 C   0  0  0  0  0  3  0  0  0  0  0  0
  184.5730  177.1900  137.8650 C   0  0  0  0  0  3  0  0  0  0  0  0
  183.5000  177.3400  138.7890 N   0  0  0  0  0  2  0  0  0  0  0  0
  181.6070  178.6920  138.5670 O   0  0  0  0  0  0  0  0  0  0  0  0
  179.0880  177.0790  137.7900 C   0  0  0  0  0  2  0  0  0  0  0  0
  180.8170  180.4720  137.1170 C   0  0  2  0  0  3  0  0  0  0  0  0
  179.3970  179.9170  137.1650 C   0  0  0  0  0  2  0  0  0  0  0  0
  181.2570  176.3480  138.9510 C   0  0  0  0  0  0  0  0  0  0  0  0
  181.7410  175.5900  139.8350 O   0  0  0  0  0  0  0  0  0  0  0  0
  179.9050  176.1250  138.5270 N   0  0  0  0  0  2  0  0  0  0  0  0
  179.7400  177.3430  136.1080 S   0  0  0  0  0  0  0  0  0  0  0  0
  181.8790  179.4110  137.3930 C   0  0  0  0  0  2  0  0  0  0  0  0
  182.1220  177.4160  138.3190 C   0  0  2  0  0  3  0  0  0  0  0  0
  179.0560  179.0320  135.9670 C   0  0  0  0  0  2  0  0  0  0  0  0
  180.9790  181.8530  138.2870 P   0  0  0  0  0  0  0  0  0  0  0  0
  180.1590  181.5800  139.5270 O   0  0  0  0  0  1  0  0  0  0  0  0
  182.6030  182.0440  138.7190 O   0  0  0  0  0  1  0  0  0  0  0  0
  180.4270  183.2730  137.5540 O   0  0  0  0  0  0  0  0  0  0  0  0
  1  7  1  0  0  0  0
  1 25  1  0  0  0  0
  2 11  1  0  0  0  0
  3  5  1  0  0  0  0
  3  2  2  0  0  0  0
  4  5  2  0  0  0  0
  5  8  1  0  0  0  0
  6 10  1  0  0  0  0
  8 13  1  6  0  0  0
  8  6  1  0  0  0  0
  9  1  2  0  0  0  0
 10  7  2  0  0  0  0
 11  6  2  0  0  0  0
 11  9  1  0  0  0  0
 12 14  1  0  0  0  0
 14 13  1  0  0  0  0
 15 14  2  0  0  0  0
 16 24  1  0  0  0  0
 17 19  1  0  0  0  0
 17 18  1  0  0  0  0
 18 12  1  0  0  0  0
 18 16  2  0  0  0  0
 19 20  2  0  0  0  0
 20 22  1  0  0  0  0
 20 16  1  0  0  0  0
 22 21  1  0  0  0  0
 24 23  1  0  0  0  0
 25 26  1  0  0  0  0
 26 29  1  0  0  0  0
 26 28  1  0  0  0  0
 28 27  1  0  0  0  0
 30 29  1  0  0  0  0
 31 30  1  0  0  0  0
 32 34  1  6  0  0  0
 32 31  1  0  0  0  0
 33 32  1  0  0  0  0
 35  2  1  0  0  0  0
 36 35  1  0  0  0  0
 36 37  1  0  0  0  0
 37 38  2  0  0  0  0
 38 39  1  0  0  0  0
 41 46  1  0  0  0  0
 42 43  1  0  0  0  0
 42 48  1  0  0  0  0
 42 51  1  1  0  0  0
 44 45  2  0  0  0  0
 46 44  1  0  0  0  0
 47 41  1  0  0  0  0
 48 40  1  0  0  0  0
 49 40  1  0  0  0  0
 49 39  1  1  0  0  0
 49 44  1  0  0  0  0
 50 47  1  0  0  0  0
 50 43  1  0  0  0  0
 51 53  1  0  0  0  0
 51 52  1  0  0  0  0
 54 51  2  0  0  0  0
M  END
>  <MODEL>
6

>  <REMARK>
 VINA RESULT:      -6.4      3.030      8.148
  Name = 
  17 active torsions:
  status: ('A' for Active; 'I' for Inactive)
    1  A    between atoms: C_1  and  C_13
    2  A    between atoms: C_2  and  C_9
    3  A    between atoms: P_3  and  C_35
    4  A    between atoms: C_4  and  C_27
    5  A    between atoms: C_4  and  N_36
    6  A    between atoms: C_9  and  C_49
    7  A    between atoms: N_10  and  C_25
    8  A    between atoms: C_11  and  C_14
    9  A    between atoms: C_13  and  N_36
   10  A    between atoms: N_15  and  C_30
   11  A    between atoms: C_20  and  C_49
   12  A    between atoms: C_21  and  N_24
   13  A    between atoms: N_24  and  C_50
   14  A    between atoms: C_27  and  O_54
   15  A    between atoms: P_28  and  O_54
   16  A    between atoms: O_33  and  C_51
   17  A    between atoms: N_36  and  C_42
                            x       y       z     vdW  Elec       q    Type
                         _______ _______ _______ _____ _____    ______ ____

>  <TORSDO>
F 17

$$$$
=
 OpenBabel11032421073D

 54 57  0  0  1  0  0  0  0  0999 V2000
  189.5740  177.4900  140.6920 C   0  0  0  0  0  0  0  0  0  0  0  0
  189.1950  177.9220  136.9500 C   0  0  0  0  0  0  0  0  0  0  0  0
  189.6030  177.3490  135.8580 N   0  0  0  0  0  0  0  0  0  0  0  0
  190.8080  175.6900  134.7650 O   0  0  0  0  0  0  0  0  0  0  0  0
  190.5560  176.2800  135.8480 C   0  0  0  0  0  0  0  0  0  0  0  0
  190.6360  176.4300  138.3430 C   0  0  0  0  0  0  0  0  0  0  0  0
  190.5320  176.4700  140.7200 C   0  0  0  0  0  3  0  0  0  0  0  0
  191.2780  175.8680  137.1050 C   0  0  2  0  0  3  0  0  0  0  0  0
  189.1410  177.9670  139.4550 C   0  0  0  0  0  3  0  0  0  0  0  0
  191.0390  175.9740  139.5600 N   0  0  0  0  0  0  0  0  0  0  0  0
  189.6680  177.4450  138.2680 C   0  0  0  0  0  0  0  0  0  0  0  0
  195.0540  175.9670  136.5250 N   0  0  0  0  0  2  0  0  0  0  0  0
  192.6690  176.2960  137.0460 N   0  0  0  0  0  2  0  0  0  0  0  0
  193.7200  175.4540  136.5730 C   0  0  0  0  0  0  0  0  0  0  0  0
  193.4720  174.2700  136.2150 O   0  0  0  0  0  0  0  0  0  0  0  0
  196.9300  174.4410  136.7870 C   0  0  0  0  0  0  0  0  0  0  0  0
  196.7930  175.3570  134.6820 C   0  0  0  0  0  2  0  0  0  0  0  0
  196.2000  175.2540  136.0470 C   0  0  0  0  0  0  0  0  0  0  0  0
  197.9680  174.4980  134.7680 N   0  0  0  0  0  0  0  0  0  0  0  0
  198.0340  173.9880  135.9490 C   0  0  0  0  0  0  0  0  0  0  0  0
  198.8590  171.7440  136.5900 C   0  0  0  0  0  1  0  0  0  0  0  0
  199.0670  173.1190  136.3110 O   0  0  0  0  0  0  0  0  0  0  0  0
  197.7370  174.8890  139.0760 C   0  0  0  0  0  1  0  0  0  0  0  0
  196.7050  174.1570  138.2370 C   0  0  0  0  0  2  0  0  0  0  0  0
  188.9620  178.0590  141.9390 C   0  0  0  0  0  2  0  0  0  0  0  0
  189.5830  177.5260  143.1450 N   0  0  0  0  0  0  0  0  0  0  0  0
  190.6160  178.2410  145.1060 O   0  0  0  0  0  1  0  0  0  0  0  0
  190.1900  178.6490  143.8390 C   0  0  0  0  0  2  0  0  0  0  0  0
  188.4970  177.0470  143.9830 C   0  0  0  0  0  2  0  0  0  0  0  0
  187.1650  177.4780  143.4040 C   0  0  0  0  0  2  0  0  0  0  0  0
  186.3300  177.9430  144.4210 O   0  0  0  0  0  0  0  0  0  0  0  0
  184.8140  178.2500  143.6340 P   0  0  1  0  0  0  0  0  0  0  0  0
  184.3100  179.4770  144.7560 O   0  0  0  0  0  1  0  0  0  0  0  0
  185.5040  179.4350  142.3790 C   0  0  0  0  0  1  0  0  0  0  0  0
  188.1740  179.0070  136.8540 C   0  0  0  0  0  2  0  0  0  0  0  0
  186.8150  178.4100  136.5530 C   0  0  0  0  0  2  0  0  0  0  0  0
  185.8500  178.8030  137.6130 C   0  0  0  0  0  3  0  0  0  0  0  0
  185.4120  177.8910  138.4700 C   0  0  0  0  0  3  0  0  0  0  0  0
  184.5060  178.2630  139.5030 N   0  0  0  0  0  2  0  0  0  0  0  0
  182.8280  177.1450  138.3240 O   0  0  0  0  0  0  0  0  0  0  0  0
  180.0310  178.3710  138.8010 C   0  0  0  0  0  2  0  0  0  0  0  0
  181.7780  174.9560  138.3140 C   0  0  2  0  0  3  0  0  0  0  0  0
  180.4160  175.5810  138.0250 C   0  0  0  0  0  2  0  0  0  0  0  0
  182.3740  179.3920  139.0360 C   0  0  0  0  0  0  0  0  0  0  0  0
  183.0530  180.4440  138.8830 O   0  0  0  0  0  0  0  0  0  0  0  0
  180.9440  179.4910  138.9840 N   0  0  0  0  0  2  0  0  0  0  0  0
  180.0610  177.2570  140.2440 S   0  0  0  0  0  0  0  0  0  0  0  0
  182.7400  175.9200  139.0020 C   0  0  0  0  0  2  0  0  0  0  0  0
  183.0690  178.0830  139.3320 C   0  0  2  0  0  3  0  0  0  0  0  0
  179.5700  175.7830  139.2800 C   0  0  0  0  0  2  0  0  0  0  0  0
  182.5050  174.3250  136.7720 P   0  0  0  0  0  0  0  0  0  0  0  0
  182.4970  172.8130  136.7770 O   0  0  0  0  0  1  0  0  0  0  0  0
  181.6120  174.8870  135.4510 O   0  0  0  0  0  0  0  0  0  0  0  0
  184.0990  174.8730  136.6410 O   0  0  0  0  0  1  0  0  0  0  0  0
  1  7  1  0  0  0  0
  1 25  1  0  0  0  0
  2 11  1  0  0  0  0
  3  2  2  0  0  0  0
  4  5  2  0  0  0  0
  5  3  1  0  0  0  0
  5  8  1  0  0  0  0
  6 10  1  0  0  0  0
  8 13  1  6  0  0  0
  8  6  1  0  0  0  0
  9  1  2  0  0  0  0
 10  7  2  0  0  0  0
 11  6  2  0  0  0  0
 11  9  1  0  0  0  0
 12 14  1  0  0  0  0
 14 13  1  0  0  0  0
 15 14  2  0  0  0  0
 16 24  1  0  0  0  0
 17 19  1  0  0  0  0
 17 18  1  0  0  0  0
 18 12  1  0  0  0  0
 18 16  2  0  0  0  0
 19 20  2  0  0  0  0
 20 22  1  0  0  0  0
 20 16  1  0  0  0  0
 22 21  1  0  0  0  0
 24 23  1  0  0  0  0
 25 26  1  0  0  0  0
 26 28  1  0  0  0  0
 26 29  1  0  0  0  0
 28 27  1  0  0  0  0
 30 29  1  0  0  0  0
 30 31  1  0  0  0  0
 32 34  1  6  0  0  0
 32 31  1  0  0  0  0
 32 33  1  0  0  0  0
 35  2  1  0  0  0  0
 36 35  1  0  0  0  0
 36 37  1  0  0  0  0
 37 38  2  0  0  0  0
 38 39  1  0  0  0  0
 40 48  1  0  0  0  0
 40 49  1  0  0  0  0
 41 46  1  0  0  0  0
 41 47  1  0  0  0  0
 42 51  1  6  0  0  0
 42 48  1  0  0  0  0
 43 42  1  0  0  0  0
 43 50  1  0  0  0  0
 44 49  1  0  0  0  0
 45 44  2  0  0  0  0
 46 44  1  0  0  0  0
 49 39  1  6  0  0  0
 50 47  1  0  0  0  0
 51 52  1  0  0  0  0
 53 51  2  0  0  0  0
 54 51  1  0  0  0  0
M  END
>  <MODEL>
7

>  <REMARK>
 VINA RESULT:      -6.3      3.183      8.438
  Name = 
  17 active torsions:
  status: ('A' for Active; 'I' for Inactive)
    1  A    between atoms: C_1  and  C_13
    2  A    between atoms: C_2  and  C_9
    3  A    between atoms: P_3  and  C_35
    4  A    between atoms: C_4  and  C_27
    5  A    between atoms: C_4  and  N_36
    6  A    between atoms: C_9  and  C_49
    7  A    between atoms: N_10  and  C_25
    8  A    between atoms: C_11  and  C_14
    9  A    between atoms: C_13  and  N_36
   10  A    between atoms: N_15  and  C_30
   11  A    between atoms: C_20  and  C_49
   12  A    between atoms: C_21  and  N_24
   13  A    between atoms: N_24  and  C_50
   14  A    between atoms: C_27  and  O_54
   15  A    between atoms: P_28  and  O_54
   16  A    between atoms: O_33  and  C_51
   17  A    between atoms: N_36  and  C_42
                            x       y       z     vdW  Elec       q    Type
                         _______ _______ _______ _____ _____    ______ ____

>  <TORSDO>
F 17

$$$$
=
 OpenBabel11032421073D

 54 57  0  0  1  0  0  0  0  0999 V2000
  190.1350  177.5130  140.9840 C   0  0  0  0  0  0  0  0  0  0  0  0
  189.8320  176.3780  137.3850 C   0  0  0  0  0  0  0  0  0  0  0  0
  189.1230  176.6560  136.3330 N   0  0  0  0  0  0  0  0  0  0  0  0
  187.4540  177.8810  135.2770 O   0  0  0  0  0  0  0  0  0  0  0  0
  188.0160  177.5640  136.3580 C   0  0  0  0  0  0  0  0  0  0  0  0
  188.4600  177.9190  138.7930 C   0  0  0  0  0  0  0  0  0  0  0  0
  189.0390  178.3800  141.0540 C   0  0  0  0  0  3  0  0  0  0  0  0
  187.4970  178.1250  137.6560 C   0  0  2  0  0  3  0  0  0  0  0  0
  190.3900  176.8540  139.7810 C   0  0  0  0  0  3  0  0  0  0  0  0
  188.2330  178.5560  139.9740 N   0  0  0  0  0  0  0  0  0  0  0  0
  189.5560  177.0470  138.6740 C   0  0  0  0  0  0  0  0  0  0  0  0
  183.8450  177.5880  138.6470 N   0  0  0  0  0  2  0  0  0  0  0  0
  186.2180  177.5120  137.9910 N   0  0  0  0  0  2  0  0  0  0  0  0
  185.0670  178.2720  138.3600 C   0  0  0  0  0  0  0  0  0  0  0  0
  185.1370  179.5290  138.4430 O   0  0  0  0  0  0  0  0  0  0  0  0
  182.4180  178.9230  140.0950 C   0  0  0  0  0  0  0  0  0  0  0  0
  181.3270  178.1210  138.2350 C   0  0  0  0  0  2  0  0  0  0  0  0
  182.6060  178.2150  138.9980 C   0  0  0  0  0  0  0  0  0  0  0  0
  180.3910  178.8650  139.0710 N   0  0  0  0  0  0  0  0  0  0  0  0
  181.0120  179.3120  140.1070 C   0  0  0  0  0  0  0  0  0  0  0  0
  179.6080  179.4840  142.1380 C   0  0  0  0  0  1  0  0  0  0  0  0
  180.3540  180.0660  141.0820 O   0  0  0  0  0  0  0  0  0  0  0  0
  183.7590  177.8590  141.8720 C   0  0  0  0  0  1  0  0  0  0  0  0
  183.4420  179.1590  141.1570 C   0  0  0  0  0  2  0  0  0  0  0  0
  191.0720  177.2980  142.1360 C   0  0  0  0  0  2  0  0  0  0  0  0
  190.3580  177.0800  143.3880 N   0  0  0  0  0  0  0  0  0  0  0  0
  191.9790  175.4310  143.6580 O   0  0  0  0  0  1  0  0  0  0  0  0
  190.6150  175.7070  143.7870 C   0  0  0  0  0  2  0  0  0  0  0  0
  190.9960  177.9350  144.3740 C   0  0  0  0  0  2  0  0  0  0  0  0
  190.5660  177.5310  145.7690 C   0  0  0  0  0  2  0  0  0  0  0  0
  189.4510  178.2730  146.1580 O   0  0  0  0  0  0  0  0  0  0  0  0
  188.5890  177.2280  147.2450 P   0  0  1  0  0  0  0  0  0  0  0  0
  188.7510  178.2770  148.6200 O   0  0  0  0  0  1  0  0  0  0  0  0
  186.8980  177.8310  146.7650 C   0  0  0  0  0  1  0  0  0  0  0  0
  190.9870  175.4420  137.2450 C   0  0  0  0  0  2  0  0  0  0  0  0
  190.9050  174.7160  135.9180 C   0  0  0  0  0  2  0  0  0  0  0  0
  192.0840  175.0630  135.0830 C   0  0  0  0  0  3  0  0  0  0  0  0
  193.2940  174.6870  135.4710 C   0  0  0  0  0  3  0  0  0  0  0  0
  194.4270  174.9940  134.6650 N   0  0  0  0  0  2  0  0  0  0  0  0
  195.7090  173.6780  136.1080 O   0  0  0  0  0  0  0  0  0  0  0  0
  198.6470  174.6250  136.2740 C   0  0  0  0  0  2  0  0  0  0  0  0
  196.5230  171.3940  136.2280 C   0  0  2  0  0  3  0  0  0  0  0  0
  197.8470  171.8680  136.8200 C   0  0  0  0  0  2  0  0  0  0  0  0
  196.5120  175.8860  135.6130 C   0  0  0  0  0  0  0  0  0  0  0  0
  195.9170  176.9970  135.6730 O   0  0  0  0  0  0  0  0  0  0  0  0
  197.9020  175.8370  135.9620 N   0  0  0  0  0  2  0  0  0  0  0  0
  198.8140  173.5600  134.8040 S   0  0  0  0  0  0  0  0  0  0  0  0
  195.8210  172.4700  135.4040 C   0  0  0  0  0  2  0  0  0  0  0  0
  195.7730  174.6640  135.1180 C   0  0  2  0  0  3  0  0  0  0  0  0
  198.9520  172.0180  135.7760 C   0  0  0  0  0  2  0  0  0  0  0  0
  195.4340  170.7980  137.5560 P   0  0  0  0  0  0  0  0  0  0  0  0
  196.0760  169.6300  138.2670 O   0  0  0  0  0  1  0  0  0  0  0  0
  195.1540  172.0450  138.6630 O   0  0  0  0  0  1  0  0  0  0  0  0
  193.9600  170.3050  136.8890 O   0  0  0  0  0  0  0  0  0  0  0  0
  1  7  1  0  0  0  0
  1 25  1  0  0  0  0
  2 11  1  0  0  0  0
  3  5  1  0  0  0  0
  3  2  2  0  0  0  0
  4  5  2  0  0  0  0
  5  8  1  0  0  0  0
  6 10  1  0  0  0  0
  8 13  1  1  0  0  0
  8  6  1  0  0  0  0
  9  1  2  0  0  0  0
 10  7  2  0  0  0  0
 11  6  2  0  0  0  0
 11  9  1  0  0  0  0
 12 18  1  0  0  0  0
 13 14  1  0  0  0  0
 14 15  2  0  0  0  0
 14 12  1  0  0  0  0
 16 20  1  0  0  0  0
 16 24  1  0  0  0  0
 17 18  1  0  0  0  0
 17 19  1  0  0  0  0
 18 16  2  0  0  0  0
 19 20  2  0  0  0  0
 20 22  1  0  0  0  0
 22 21  1  0  0  0  0
 24 23  1  0  0  0  0
 25 26  1  0  0  0  0
 26 28  1  0  0  0  0
 26 29  1  0  0  0  0
 27 28  1  0  0  0  0
 29 30  1  0  0  0  0
 30 31  1  0  0  0  0
 31 32  1  0  0  0  0
 32 34  1  6  0  0  0
 32 33  1  0  0  0  0
 35  2  1  0  0  0  0
 36 35  1  0  0  0  0
 37 38  2  0  0  0  0
 37 36  1  0  0  0  0
 39 38  1  0  0  0  0
 42 43  1  0  0  0  0
 42 51  1  1  0  0  0
 44 45  2  0  0  0  0
 44 46  1  0  0  0  0
 46 41  1  0  0  0  0
 47 50  1  0  0  0  0
 47 41  1  0  0  0  0
 48 40  1  0  0  0  0
 48 42  1  0  0  0  0
 49 39  1  1  0  0  0
 49 44  1  0  0  0  0
 49 40  1  0  0  0  0
 50 43  1  0  0  0  0
 51 52  1  0  0  0  0
 51 53  1  0  0  0  0
 54 51  2  0  0  0  0
M  END
>  <MODEL>
8

>  <REMARK>
 VINA RESULT:      -6.3      3.924     10.910
  Name = 
  17 active torsions:
  status: ('A' for Active; 'I' for Inactive)
    1  A    between atoms: C_1  and  C_13
    2  A    between atoms: C_2  and  C_9
    3  A    between atoms: P_3  and  C_35
    4  A    between atoms: C_4  and  C_27
    5  A    between atoms: C_4  and  N_36
    6  A    between atoms: C_9  and  C_49
    7  A    between atoms: N_10  and  C_25
    8  A    between atoms: C_11  and  C_14
    9  A    between atoms: C_13  and  N_36
   10  A    between atoms: N_15  and  C_30
   11  A    between atoms: C_20  and  C_49
   12  A    between atoms: C_21  and  N_24
   13  A    between atoms: N_24  and  C_50
   14  A    between atoms: C_27  and  O_54
   15  A    between atoms: P_28  and  O_54
   16  A    between atoms: O_33  and  C_51
   17  A    between atoms: N_36  and  C_42
                            x       y       z     vdW  Elec       q    Type
                         _______ _______ _______ _____ _____    ______ ____

>  <TORSDO>
F 17

$$$$
=
 OpenBabel11032421073D

 54 57  0  0  1  0  0  0  0  0999 V2000
  189.6100  176.8120  137.3700 C   0  0  0  0  0  0  0  0  0  0  0  0
  186.2010  177.9110  138.5950 C   0  0  0  0  0  0  0  0  0  0  0  0
  185.6900  178.5670  139.5930 N   0  0  0  0  0  0  0  0  0  0  0  0
  185.9290  179.7470  141.5810 O   0  0  0  0  0  0  0  0  0  0  0  0
  186.4650  179.0090  140.7130 C   0  0  0  0  0  0  0  0  0  0  0  0
  188.4750  177.9960  139.6240 C   0  0  0  0  0  0  0  0  0  0  0  0
  190.3930  177.1980  138.4630 C   0  0  0  0  0  3  0  0  0  0  0  0
  187.9010  178.5850  140.8830 C   0  0  2  0  0  3  0  0  0  0  0  0
  188.2350  177.0430  137.4180 C   0  0  0  0  0  3  0  0  0  0  0  0
  189.8150  177.7680  139.5540 N   0  0  0  0  0  0  0  0  0  0  0  0
  187.6530  177.6340  138.5440 C   0  0  0  0  0  0  0  0  0  0  0  0
  188.7530  176.8780  144.1940 N   0  0  0  0  0  2  0  0  0  0  0  0
  188.0110  177.6140  141.9630 N   0  0  0  0  0  2  0  0  0  0  0  0
  188.7190  177.8800  143.1750 C   0  0  0  0  0  0  0  0  0  0  0  0
  189.3120  178.9810  143.3340 O   0  0  0  0  0  0  0  0  0  0  0  0
  190.6790  176.8100  145.6780 C   0  0  0  0  0  0  0  0  0  0  0  0
  188.7180  177.3320  146.7600 C   0  0  0  0  0  2  0  0  0  0  0  0
  189.3920  177.0130  145.4680 C   0  0  0  0  0  0  0  0  0  0  0  0
  189.8080  177.2620  147.7260 N   0  0  0  0  0  0  0  0  0  0  0  0
  190.9010  176.9730  147.1110 C   0  0  0  0  0  0  0  0  0  0  0  0
  192.7830  175.6050  147.9550 C   0  0  0  0  0  1  0  0  0  0  0  0
  192.1120  176.8440  147.7970 O   0  0  0  0  0  0  0  0  0  0  0  0
  192.0160  174.9140  144.8340 C   0  0  0  0  0  1  0  0  0  0  0  0
  191.6660  176.3780  144.6430 C   0  0  0  0  0  2  0  0  0  0  0  0
  190.1960  176.2010  136.1300 C   0  0  0  0  0  2  0  0  0  0  0  0
  191.3470  175.3580  136.4280 N   0  0  0  0  0  0  0  0  0  0  0  0
  189.9650  173.6440  137.1830 O   0  0  0  0  0  1  0  0  0  0  0  0
  190.9260  173.9820  136.2270 C   0  0  0  0  0  2  0  0  0  0  0  0
  192.3400  175.6520  135.4090 C   0  0  0  0  0  2  0  0  0  0  0  0
  193.7320  175.3980  135.9510 C   0  0  0  0  0  2  0  0  0  0  0  0
  194.6740  176.0870  135.1870 O   0  0  0  0  0  0  0  0  0  0  0  0
  196.1200  175.1330  135.3150 P   0  0  1  0  0  0  0  0  0  0  0  0
  197.0970  176.4250  135.9410 O   0  0  0  0  0  1  0  0  0  0  0  0
  195.7060  174.4080  136.9760 C   0  0  0  0  0  1  0  0  0  0  0  0
  185.3110  177.5250  137.4590 C   0  0  0  0  0  2  0  0  0  0  0  0
  186.1210  177.4190  136.1830 C   0  0  0  0  0  2  0  0  0  0  0  0
  185.4230  176.5280  135.2200 C   0  0  0  0  0  3  0  0  0  0  0  0
  185.0610  175.3110  135.5990 C   0  0  0  0  0  3  0  0  0  0  0  0
  184.3710  174.4590  134.6900 N   0  0  0  0  0  2  0  0  0  0  0  0
  182.8610  173.9510  136.4000 O   0  0  0  0  0  0  0  0  0  0  0  0
  181.7710  171.0650  136.1940 C   0  0  0  0  0  2  0  0  0  0  0  0
  180.6520  174.6480  137.1260 C   0  0  2  0  0  3  0  0  0  0  0  0
  180.2990  173.2160  137.5160 C   0  0  0  0  0  2  0  0  0  0  0  0
  183.9280  172.1140  135.2810 C   0  0  0  0  0  0  0  0  0  0  0  0
  185.1500  171.9060  135.0480 O   0  0  0  0  0  0  0  0  0  0  0  0
  183.0900  170.9900  135.5820 N   0  0  0  0  0  2  0  0  0  0  0  0
  180.5720  171.8630  135.0760 S   0  0  0  0  0  0  0  0  0  0  0  0
  181.7400  174.7220  136.0590 C   0  0  0  0  0  2  0  0  0  0  0  0
  183.3690  173.5150  135.1730 C   0  0  2  0  0  3  0  0  0  0  0  0
  179.5130  172.4750  136.4360 C   0  0  0  0  0  2  0  0  0  0  0  0
  181.1460  175.5850  138.6040 P   0  0  0  0  0  0  0  0  0  0  0  0
  180.6620  177.0120  138.4980 O   0  0  0  0  0  0  0  0  0  0  0  0
  180.4780  174.8660  139.9810 O   0  0  0  0  0  1  0  0  0  0  0  0
  182.8320  175.5750  138.7330 O   0  0  0  0  0  1  0  0  0  0  0  0
  1  9  2  0  0  0  0
  1  7  1  0  0  0  0
  2  3  2  0  0  0  0
  3  5  1  0  0  0  0
  5  8  1  0  0  0  0
  5  4  2  0  0  0  0
  6  8  1  0  0  0  0
  7 10  2  0  0  0  0
  8 13  1  1  0  0  0
  9 11  1  0  0  0  0
 10  6  1  0  0  0  0
 11  2  1  0  0  0  0
 11  6  2  0  0  0  0
 12 18  1  0  0  0  0
 13 14  1  0  0  0  0
 14 15  2  0  0  0  0
 14 12  1  0  0  0  0
 16 20  1  0  0  0  0
 17 19  1  0  0  0  0
 18 16  2  0  0  0  0
 18 17  1  0  0  0  0
 20 19  2  0  0  0  0
 20 22  1  0  0  0  0
 22 21  1  0  0  0  0
 24 23  1  0  0  0  0
 24 16  1  0  0  0  0
 25 26  1  0  0  0  0
 25  1  1  0  0  0  0
 28 26  1  0  0  0  0
 28 27  1  0  0  0  0
 29 30  1  0  0  0  0
 29 26  1  0  0  0  0
 31 32  1  0  0  0  0
 31 30  1  0  0  0  0
 32 33  1  0  0  0  0
 32 34  1  1  0  0  0
 35  2  1  0  0  0  0
 36 35  1  0  0  0  0
 37 38  2  0  0  0  0
 37 36  1  0  0  0  0
 39 38  1  0  0  0  0
 42 43  1  0  0  0  0
 42 51  1  1  0  0  0
 44 46  1  0  0  0  0
 45 44  2  0  0  0  0
 46 41  1  0  0  0  0
 47 41  1  0  0  0  0
 47 50  1  0  0  0  0
 48 40  1  0  0  0  0
 48 42  1  0  0  0  0
 49 39  1  1  0  0  0
 49 44  1  0  0  0  0
 49 40  1  0  0  0  0
 50 43  1  0  0  0  0
 51 54  1  0  0  0  0
 51 53  1  0  0  0  0
 52 51  2  0  0  0  0
M  END
>  <MODEL>
9

>  <REMARK>
 VINA RESULT:      -5.9      2.396      3.517
  Name = 
  17 active torsions:
  status: ('A' for Active; 'I' for Inactive)
    1  A    between atoms: C_1  and  C_13
    2  A    between atoms: C_2  and  C_9
    3  A    between atoms: P_3  and  C_35
    4  A    between atoms: C_4  and  C_27
    5  A    between atoms: C_4  and  N_36
    6  A    between atoms: C_9  and  C_49
    7  A    between atoms: N_10  and  C_25
    8  A    between atoms: C_11  and  C_14
    9  A    between atoms: C_13  and  N_36
   10  A    between atoms: N_15  and  C_30
   11  A    between atoms: C_20  and  C_49
   12  A    between atoms: C_21  and  N_24
   13  A    between atoms: N_24  and  C_50
   14  A    between atoms: C_27  and  O_54
   15  A    between atoms: P_28  and  O_54
   16  A    between atoms: O_33  and  C_51
   17  A    between atoms: N_36  and  C_42
                            x       y       z     vdW  Elec       q    Type
                         _______ _______ _______ _____ _____    ______ ____

>  <TORSDO>
F 17

$$$$
