=
 OpenBabel11042410553D

 26 27  0  0  1  0  0  0  0  0999 V2000
  190.4840  177.5880  145.4740 C   0  0  0  0  0  0  0  0  0  0  0  0
  189.3680  177.2730  146.1500 C   0  0  0  0  0  3  0  0  0  0  0  0
  184.3680  178.3740  142.7680 C   0  0  0  0  0  3  0  0  0  0  0  0
  185.6920  178.0060  143.0230 C   0  0  0  0  0  3  0  0  0  0  0  0
  183.5370  178.7860  143.8200 C   0  0  0  0  0  0  0  0  0  0  0  0
  182.1270  179.1630  143.5440 C   0  0  0  0  0  1  0  0  0  0  0  0
  186.1870  178.0380  144.3340 C   0  0  0  0  0  0  0  0  0  0  0  0
  187.9760  177.6650  145.8580 C   0  0  0  0  0  0  0  0  0  0  0  0
  185.3430  178.4320  145.3930 C   0  0  0  0  0  0  0  0  0  0  0  0
  185.8460  178.4510  146.6950 C   0  0  0  0  0  3  0  0  0  0  0  0
  187.4700  177.6730  144.5910 N   0  0  0  0  0  0  0  0  0  0  0  0
  187.1680  178.0640  146.9290 C   0  0  0  0  0  3  0  0  0  0  0  0
  184.0230  178.8110  145.1340 C   0  0  0  0  0  3  0  0  0  0  0  0
  191.7590  177.1440  145.9540 N   0  0  0  0  0  2  0  0  0  0  0  0
  192.0490  175.3410  147.7500 N   0  0  0  0  0  0  0  0  0  0  0  0
  191.9190  176.1550  146.9360 C   0  0  0  0  0  0  0  0  0  0  0  0
  190.4670  178.5890  143.9770 S   0  0  0  0  0  0  0  0  0  0  0  0
  191.2350  177.2940  142.9450 C   0  0  0  0  0  2  0  0  0  0  0  0
  190.2470  176.3340  142.4810 N   0  0  0  0  0  2  0  0  0  0  0  0
  189.3120  177.0380  141.6280 C   0  0  0  0  0  2  0  0  0  0  0  0
  190.0050  177.4260  140.3450 C   0  0  0  0  0  2  0  0  0  0  0  0
  189.9280  176.5650  138.0240 C   0  0  0  0  0  1  0  0  0  0  0  0
  189.1040  177.1140  139.1700 C   0  0  2  0  0  3  0  0  0  0  0  0
  186.9770  178.4010  138.8450 O   0  0  0  0  0  1  0  0  0  0  0  0
  189.0050  179.3060  138.2620 O   0  0  0  0  0  0  0  0  0  0  0  0
  188.3650  178.3340  138.7400 C   0  0  0  0  0  0  0  0  0  0  0  0
  1 14  1  0  0  0  0
  1  2  2  0  0  0  0
  3  4  2  0  0  0  0
  3  5  1  0  0  0  0
  4  7  1  0  0  0  0
  5 13  2  0  0  0  0
  6  5  1  0  0  0  0
  7 11  2  0  0  0  0
  7  9  1  0  0  0  0
  8  2  1  0  0  0  0
  8 12  2  0  0  0  0
  9 10  2  0  0  0  0
 10 12  1  0  0  0  0
 11  8  1  0  0  0  0
 13  9  1  0  0  0  0
 14 16  1  0  0  0  0
 16 15  3  0  0  0  0
 17  1  1  0  0  0  0
 18 17  1  0  0  0  0
 19 18  1  0  0  0  0
 20 19  1  0  0  0  0
 21 20  1  0  0  0  0
 23 22  1  6  0  0  0
 23 21  1  0  0  0  0
 25 26  2  0  0  0  0
 26 24  1  0  0  0  0
 26 23  1  0  0  0  0
M  END
>  <MODEL>
1

>  <REMARK>
 VINA RESULT:      -8.3      0.000      0.000
  Name = 
  10 active torsions:
  status: ('A' for Active; 'I' for Inactive)
    1  A    between atoms: N_5  and  C_7
    2  A    between atoms: N_5  and  C_14
    3  A    between atoms: C_7  and  S_20
    4  A    between atoms: N_8  and  C_9
    5  A    between atoms: N_8  and  C_25
    6  A    between atoms: C_9  and  S_20
    7  A    between atoms: C_12  and  C_13
    8  A    between atoms: C_22  and  C_26
    9  A    between atoms: C_24  and  C_25
   10  A    between atoms: C_24  and  C_26
                            x       y       z     vdW  Elec       q    Type
                         _______ _______ _______ _____ _____    ______ ____

>  <TORSDO>
F 10

$$$$
=
 OpenBabel11042410553D

 26 27  0  0  1  0  0  0  0  0999 V2000
  190.7670  177.5180  145.2240 C   0  0  0  0  0  0  0  0  0  0  0  0
  189.5450  177.1310  145.6210 C   0  0  0  0  0  3  0  0  0  0  0  0
  183.6970  178.9720  145.3590 C   0  0  0  0  0  3  0  0  0  0  0  0
  184.9250  178.6710  145.9550 C   0  0  0  0  0  3  0  0  0  0  0  0
  183.5180  178.7730  143.9810 C   0  0  0  0  0  0  0  0  0  0  0  0
  182.2140  179.1070  143.3510 C   0  0  0  0  0  1  0  0  0  0  0  0
  185.9810  178.1820  145.1750 C   0  0  0  0  0  0  0  0  0  0  0  0
  188.2380  177.4460  145.0120 C   0  0  0  0  0  0  0  0  0  0  0  0
  185.8050  178.0040  143.7870 C   0  0  0  0  0  0  0  0  0  0  0  0
  186.8670  177.5240  143.0200 C   0  0  0  0  0  3  0  0  0  0  0  0
  187.1810  177.8960  145.7460 N   0  0  0  0  0  0  0  0  0  0  0  0
  188.0910  177.2460  143.6350 C   0  0  0  0  0  3  0  0  0  0  0  0
  184.5720  178.2930  143.1950 C   0  0  0  0  0  3  0  0  0  0  0  0
  191.9180  177.1420  145.9900 N   0  0  0  0  0  2  0  0  0  0  0  0
  191.9000  175.3200  147.7910 N   0  0  0  0  0  0  0  0  0  0  0  0
  191.9050  176.1430  146.9760 C   0  0  0  0  0  0  0  0  0  0  0  0
  191.0410  178.5340  143.7640 S   0  0  0  0  0  0  0  0  0  0  0  0
  191.6670  177.1470  142.7550 C   0  0  0  0  0  2  0  0  0  0  0  0
  191.6240  177.4650  141.3380 N   0  0  0  0  0  2  0  0  0  0  0  0
  190.3500  177.0100  140.8200 C   0  0  0  0  0  2  0  0  0  0  0  0
  190.4090  176.9760  139.3130 C   0  0  0  0  0  2  0  0  0  0  0  0
  189.0330  176.4030  137.3340 C   0  0  0  0  0  1  0  0  0  0  0  0
  189.0040  176.9310  138.7540 C   0  0  2  0  0  3  0  0  0  0  0  0
  187.0920  178.4650  139.2820 O   0  0  0  0  0  1  0  0  0  0  0  0
  189.0310  179.2720  138.3550 O   0  0  0  0  0  0  0  0  0  0  0  0
  188.3830  178.2850  138.7910 C   0  0  0  0  0  0  0  0  0  0  0  0
  1  2  2  0  0  0  0
  1 14  1  0  0  0  0
  3  4  1  0  0  0  0
  5  3  2  0  0  0  0
  6  5  1  0  0  0  0
  7 11  1  0  0  0  0
  7  4  2  0  0  0  0
  8  2  1  0  0  0  0
  8 11  2  0  0  0  0
  9  7  1  0  0  0  0
 10 12  2  0  0  0  0
 10  9  1  0  0  0  0
 12  8  1  0  0  0  0
 13  9  2  0  0  0  0
 13  5  1  0  0  0  0
 14 16  1  0  0  0  0
 16 15  3  0  0  0  0
 17  1  1  0  0  0  0
 18 17  1  0  0  0  0
 19 18  1  0  0  0  0
 20 19  1  0  0  0  0
 21 20  1  0  0  0  0
 23 22  1  6  0  0  0
 23 26  1  0  0  0  0
 23 21  1  0  0  0  0
 25 26  2  0  0  0  0
 26 24  1  0  0  0  0
M  END
>  <MODEL>
2

>  <REMARK>
 VINA RESULT:      -8.0      0.877      1.592
  Name = 
  10 active torsions:
  status: ('A' for Active; 'I' for Inactive)
    1  A    between atoms: N_5  and  C_7
    2  A    between atoms: N_5  and  C_14
    3  A    between atoms: C_7  and  S_20
    4  A    between atoms: N_8  and  C_9
    5  A    between atoms: N_8  and  C_25
    6  A    between atoms: C_9  and  S_20
    7  A    between atoms: C_12  and  C_13
    8  A    between atoms: C_22  and  C_26
    9  A    between atoms: C_24  and  C_25
   10  A    between atoms: C_24  and  C_26
                            x       y       z     vdW  Elec       q    Type
                         _______ _______ _______ _____ _____    ______ ____

>  <TORSDO>
F 10

$$$$
=
 OpenBabel11042410553D

 26 27  0  0  1  0  0  0  0  0999 V2000
  182.5360  178.7210  142.1220 C   0  0  0  0  0  0  0  0  0  0  0  0
  182.8030  178.9610  143.4150 C   0  0  0  0  0  3  0  0  0  0  0  0
  188.5990  177.1750  144.3500 C   0  0  0  0  0  3  0  0  0  0  0  0
  187.4410  177.4540  143.6170 C   0  0  0  0  0  3  0  0  0  0  0  0
  188.6040  177.3360  145.7430 C   0  0  0  0  0  0  0  0  0  0  0  0
  189.8420  177.0510  146.5150 C   0  0  0  0  0  1  0  0  0  0  0  0
  186.2890  177.9050  144.2740 C   0  0  0  0  0  0  0  0  0  0  0  0
  184.0320  178.6540  144.1720 C   0  0  0  0  0  0  0  0  0  0  0  0
  186.3030  178.0860  145.6730 C   0  0  0  0  0  0  0  0  0  0  0  0
  185.1510  178.5440  146.3140 C   0  0  0  0  0  3  0  0  0  0  0  0
  185.1620  178.1860  143.5680 N   0  0  0  0  0  0  0  0  0  0  0  0
  184.0110  178.8320  145.5600 C   0  0  0  0  0  3  0  0  0  0  0  0
  187.4580  177.7950  146.4050 C   0  0  0  0  0  3  0  0  0  0  0  0
  181.2500  179.0540  141.5850 N   0  0  0  0  0  2  0  0  0  0  0  0
  179.6390  180.7170  142.6810 N   0  0  0  0  0  0  0  0  0  0  0  0
  180.3690  179.9680  142.1850 C   0  0  0  0  0  0  0  0  0  0  0  0
  183.7240  177.9560  141.0070 S   0  0  0  0  0  0  0  0  0  0  0  0
  183.5380  179.2360  139.7190 C   0  0  0  0  0  2  0  0  0  0  0  0
  184.8280  179.6300  139.1780 N   0  0  0  0  0  2  0  0  0  0  0  0
  185.7950  178.6210  139.5570 C   0  0  0  0  0  2  0  0  0  0  0  0
  186.5640  178.1850  138.3340 C   0  0  0  0  0  2  0  0  0  0  0  0
  188.2620  178.3170  140.1340 C   0  0  0  0  0  1  0  0  0  0  0  0
  187.9790  177.8230  138.7300 C   0  0  2  0  0  3  0  0  0  0  0  0
  188.8970  179.7540  137.4210 O   0  0  0  0  0  1  0  0  0  0  0  0
  189.8320  177.6650  137.2530 O   0  0  0  0  0  0  0  0  0  0  0  0
  188.9560  178.4070  137.7680 C   0  0  0  0  0  0  0  0  0  0  0  0
  1  2  2  0  0  0  0
  2  8  1  0  0  0  0
  3  5  1  0  0  0  0
  4  7  1  0  0  0  0
  4  3  2  0  0  0  0
  5 13  2  0  0  0  0
  5  6  1  0  0  0  0
  7  9  1  0  0  0  0
  8 12  2  0  0  0  0
  9 10  2  0  0  0  0
  9 13  1  0  0  0  0
 11  8  1  0  0  0  0
 11  7  2  0  0  0  0
 12 10  1  0  0  0  0
 14  1  1  0  0  0  0
 14 16  1  0  0  0  0
 16 15  3  0  0  0  0
 17  1  1  0  0  0  0
 18 17  1  0  0  0  0
 19 20  1  0  0  0  0
 19 18  1  0  0  0  0
 21 23  1  0  0  0  0
 21 20  1  0  0  0  0
 23 22  1  1  0  0  0
 24 26  1  0  0  0  0
 25 26  2  0  0  0  0
 26 23  1  0  0  0  0
M  END
>  <MODEL>
3

>  <REMARK>
 VINA RESULT:      -7.4      3.242      6.404
  Name = 
  10 active torsions:
  status: ('A' for Active; 'I' for Inactive)
    1  A    between atoms: N_5  and  C_7
    2  A    between atoms: N_5  and  C_14
    3  A    between atoms: C_7  and  S_20
    4  A    between atoms: N_8  and  C_9
    5  A    between atoms: N_8  and  C_25
    6  A    between atoms: C_9  and  S_20
    7  A    between atoms: C_12  and  C_13
    8  A    between atoms: C_22  and  C_26
    9  A    between atoms: C_24  and  C_25
   10  A    between atoms: C_24  and  C_26
                            x       y       z     vdW  Elec       q    Type
                         _______ _______ _______ _____ _____    ______ ____

>  <TORSDO>
F 10

$$$$
=
 OpenBabel11042410553D

 26 27  0  0  1  0  0  0  0  0999 V2000
  189.7740  176.8490  144.6860 C   0  0  0  0  0  0  0  0  0  0  0  0
  188.9740  177.5550  145.5010 C   0  0  0  0  0  3  0  0  0  0  0  0
  183.7200  178.6440  142.5240 C   0  0  0  0  0  3  0  0  0  0  0  0
  185.0760  178.3370  142.6690 C   0  0  0  0  0  3  0  0  0  0  0  0
  182.9340  178.9070  143.6560 C   0  0  0  0  0  0  0  0  0  0  0  0
  181.4900  179.2190  143.4970 C   0  0  0  0  0  1  0  0  0  0  0  0
  185.6480  178.2810  143.9470 C   0  0  0  0  0  0  0  0  0  0  0  0
  187.5460  177.8850  145.3270 C   0  0  0  0  0  0  0  0  0  0  0  0
  184.8510  178.5260  145.0850 C   0  0  0  0  0  0  0  0  0  0  0  0
  185.4310  178.4590  146.3520 C   0  0  0  0  0  3  0  0  0  0  0  0
  186.9640  177.9750  144.0970 N   0  0  0  0  0  0  0  0  0  0  0  0
  186.7840  178.1340  146.4740 C   0  0  0  0  0  3  0  0  0  0  0  0
  183.4980  178.8440  144.9370 C   0  0  0  0  0  3  0  0  0  0  0  0
  191.1580  176.6810  145.0150 N   0  0  0  0  0  2  0  0  0  0  0  0
  192.0420  176.5780  147.4170 N   0  0  0  0  0  0  0  0  0  0  0  0
  191.6440  176.6220  146.3310 C   0  0  0  0  0  0  0  0  0  0  0  0
  189.1930  176.1100  143.1510 S   0  0  0  0  0  0  0  0  0  0  0  0
  190.3740  177.0310  142.1080 C   0  0  0  0  0  2  0  0  0  0  0  0
  190.5370  176.3960  140.8100 N   0  0  0  0  0  2  0  0  0  0  0  0
  190.5620  177.4390  139.8060 C   0  0  0  0  0  2  0  0  0  0  0  0
  189.3080  177.3580  138.9720 C   0  0  0  0  0  2  0  0  0  0  0  0
  189.0010  179.0330  137.1730 C   0  0  0  0  0  1  0  0  0  0  0  0
  189.6330  177.7050  137.5360 C   0  0  2  0  0  3  0  0  0  0  0  0
  188.1890  175.7170  137.0340 O   0  0  0  0  0  1  0  0  0  0  0  0
  189.6380  176.5500  135.4610 O   0  0  0  0  0  0  0  0  0  0  0  0
  189.1520  176.6340  136.6180 C   0  0  0  0  0  0  0  0  0  0  0  0
  1 14  1  0  0  0  0
  1  2  2  0  0  0  0
  3  4  2  0  0  0  0
  3  5  1  0  0  0  0
  4  7  1  0  0  0  0
  5 13  2  0  0  0  0
  6  5  1  0  0  0  0
  7 11  2  0  0  0  0
  7  9  1  0  0  0  0
  8  2  1  0  0  0  0
  8 12  2  0  0  0  0
  9 10  2  0  0  0  0
 10 12  1  0  0  0  0
 11  8  1  0  0  0  0
 13  9  1  0  0  0  0
 14 16  1  0  0  0  0
 16 15  3  0  0  0  0
 17  1  1  0  0  0  0
 18 17  1  0  0  0  0
 19 18  1  0  0  0  0
 20 19  1  0  0  0  0
 21 20  1  0  0  0  0
 23 22  1  6  0  0  0
 23 21  1  0  0  0  0
 25 26  2  0  0  0  0
 26 24  1  0  0  0  0
 26 23  1  0  0  0  0
M  END
>  <MODEL>
4

>  <REMARK>
 VINA RESULT:      -7.4      1.515      1.732
  Name = 
  10 active torsions:
  status: ('A' for Active; 'I' for Inactive)
    1  A    between atoms: N_5  and  C_7
    2  A    between atoms: N_5  and  C_14
    3  A    between atoms: C_7  and  S_20
    4  A    between atoms: N_8  and  C_9
    5  A    between atoms: N_8  and  C_25
    6  A    between atoms: C_9  and  S_20
    7  A    between atoms: C_12  and  C_13
    8  A    between atoms: C_22  and  C_26
    9  A    between atoms: C_24  and  C_25
   10  A    between atoms: C_24  and  C_26
                            x       y       z     vdW  Elec       q    Type
                         _______ _______ _______ _____ _____    ______ ____

>  <TORSDO>
F 10

$$$$
=
 OpenBabel11042410553D

 26 27  0  0  1  0  0  0  0  0999 V2000
  189.8070  177.2160  139.9550 C   0  0  0  0  0  0  0  0  0  0  0  0
  190.4620  176.6960  141.0050 C   0  0  0  0  0  3  0  0  0  0  0  0
  187.2350  177.5390  146.1550 C   0  0  0  0  0  3  0  0  0  0  0  0
  187.4460  177.3320  144.7890 C   0  0  0  0  0  3  0  0  0  0  0  0
  188.3300  177.6730  147.0220 C   0  0  0  0  0  0  0  0  0  0  0  0
  188.1000  177.8790  148.4760 C   0  0  0  0  0  1  0  0  0  0  0  0
  188.7510  177.2470  144.2860 C   0  0  0  0  0  0  0  0  0  0  0  0
  190.2200  176.9220  142.4430 C   0  0  0  0  0  0  0  0  0  0  0  0
  189.8500  177.3610  145.1640 C   0  0  0  0  0  0  0  0  0  0  0  0
  191.1440  177.2660  144.6510 C   0  0  0  0  0  3  0  0  0  0  0  0
  188.9630  177.0380  142.9610 N   0  0  0  0  0  0  0  0  0  0  0  0
  191.3300  177.0420  143.2850 C   0  0  0  0  0  3  0  0  0  0  0  0
  189.6370  177.5800  146.5280 C   0  0  0  0  0  3  0  0  0  0  0  0
  190.2340  176.9070  138.6230 N   0  0  0  0  0  2  0  0  0  0  0  0
  191.1590  174.6220  137.9230 N   0  0  0  0  0  0  0  0  0  0  0  0
  190.7390  175.6550  138.2380 C   0  0  0  0  0  0  0  0  0  0  0  0
  188.4060  178.3320  140.1370 S   0  0  0  0  0  0  0  0  0  0  0  0
  187.6460  177.8460  138.5500 C   0  0  0  0  0  2  0  0  0  0  0  0
  186.5900  178.7690  138.1670 N   0  0  0  0  0  2  0  0  0  0  0  0
  185.3200  178.1140  138.4060 C   0  0  0  0  0  2  0  0  0  0  0  0
  184.4390  179.0210  139.2290 C   0  0  0  0  0  2  0  0  0  0  0  0
  182.4640  178.5220  140.6380 C   0  0  0  0  0  1  0  0  0  0  0  0
  183.9460  178.2760  140.4500 C   0  0  2  0  0  3  0  0  0  0  0  0
  184.5170  178.0540  142.8810 O   0  0  0  0  0  1  0  0  0  0  0  0
  185.4990  179.6710  141.5810 O   0  0  0  0  0  0  0  0  0  0  0  0
  184.7010  178.7020  141.6620 C   0  0  0  0  0  0  0  0  0  0  0  0
  1 17  1  0  0  0  0
  1  2  2  0  0  0  0
  2  8  1  0  0  0  0
  3  5  1  0  0  0  0
  4  3  2  0  0  0  0
  5  6  1  0  0  0  0
  7  4  1  0  0  0  0
  7  9  1  0  0  0  0
  8 11  1  0  0  0  0
  8 12  2  0  0  0  0
  9 13  1  0  0  0  0
 10  9  2  0  0  0  0
 11  7  2  0  0  0  0
 12 10  1  0  0  0  0
 13  5  2  0  0  0  0
 14  1  1  0  0  0  0
 15 16  3  0  0  0  0
 16 14  1  0  0  0  0
 18 17  1  0  0  0  0
 19 20  1  0  0  0  0
 19 18  1  0  0  0  0
 20 21  1  0  0  0  0
 21 23  1  0  0  0  0
 23 22  1  1  0  0  0
 23 26  1  0  0  0  0
 25 26  2  0  0  0  0
 26 24  1  0  0  0  0
M  END
>  <MODEL>
5

>  <REMARK>
 VINA RESULT:      -7.4      2.689      5.820
  Name = 
  10 active torsions:
  status: ('A' for Active; 'I' for Inactive)
    1  A    between atoms: N_5  and  C_7
    2  A    between atoms: N_5  and  C_14
    3  A    between atoms: C_7  and  S_20
    4  A    between atoms: N_8  and  C_9
    5  A    between atoms: N_8  and  C_25
    6  A    between atoms: C_9  and  S_20
    7  A    between atoms: C_12  and  C_13
    8  A    between atoms: C_22  and  C_26
    9  A    between atoms: C_24  and  C_25
   10  A    between atoms: C_24  and  C_26
                            x       y       z     vdW  Elec       q    Type
                         _______ _______ _______ _____ _____    ______ ____

>  <TORSDO>
F 10

$$$$
=
 OpenBabel11042410553D

 26 27  0  0  1  0  0  0  0  0999 V2000
  183.6570  178.7790  143.5750 C   0  0  0  0  0  0  0  0  0  0  0  0
  184.0710  179.0320  144.8270 C   0  0  0  0  0  3  0  0  0  0  0  0
  189.8890  177.1260  145.2380 C   0  0  0  0  0  3  0  0  0  0  0  0
  188.6990  177.4970  144.6050 C   0  0  0  0  0  3  0  0  0  0  0  0
  189.9650  177.1140  146.6390 C   0  0  0  0  0  0  0  0  0  0  0  0
  191.2370  176.7310  147.3050 C   0  0  0  0  0  1  0  0  0  0  0  0
  187.5850  177.8670  145.3700 C   0  0  0  0  0  0  0  0  0  0  0  0
  185.3330  178.6300  145.4760 C   0  0  0  0  0  0  0  0  0  0  0  0
  187.6710  177.8740  146.7780 C   0  0  0  0  0  0  0  0  0  0  0  0
  186.5570  178.2530  147.5280 C   0  0  0  0  0  3  0  0  0  0  0  0
  186.4270  178.2370  144.7630 N   0  0  0  0  0  0  0  0  0  0  0  0
  185.3840  178.6350  146.8750 C   0  0  0  0  0  3  0  0  0  0  0  0
  188.8590  177.4910  147.4090 C   0  0  0  0  0  3  0  0  0  0  0  0
  182.3620  179.2190  143.1490 N   0  0  0  0  0  2  0  0  0  0  0  0
  180.1640  178.3330  144.1210 N   0  0  0  0  0  0  0  0  0  0  0  0
  181.1590  178.7320  143.6840 C   0  0  0  0  0  0  0  0  0  0  0  0
  184.6540  177.8660  142.3860 S   0  0  0  0  0  0  0  0  0  0  0  0
  185.3370  179.3700  141.6080 C   0  0  0  0  0  2  0  0  0  0  0  0
  186.3160  179.0360  140.5860 N   0  0  0  0  0  2  0  0  0  0  0  0
  187.5310  178.6220  141.2560 C   0  0  0  0  0  2  0  0  0  0  0  0
  188.2480  177.6050  140.4020 C   0  0  0  0  0  2  0  0  0  0  0  0
  189.3050  178.6320  138.4110 C   0  0  0  0  0  1  0  0  0  0  0  0
  189.5190  178.2130  139.8510 C   0  0  2  0  0  3  0  0  0  0  0  0
  190.5250  175.9550  139.4340 O   0  0  0  0  0  0  0  0  0  0  0  0
  191.7130  177.5940  140.5160 O   0  0  0  0  0  1  0  0  0  0  0  0
  190.6460  177.2440  139.9480 C   0  0  0  0  0  0  0  0  0  0  0  0
  1  2  2  0  0  0  0
  2  8  1  0  0  0  0
  3  5  1  0  0  0  0
  4  3  2  0  0  0  0
  4  7  1  0  0  0  0
  5  6  1  0  0  0  0
  5 13  2  0  0  0  0
  7  9  1  0  0  0  0
  8 12  2  0  0  0  0
  9 13  1  0  0  0  0
  9 10  2  0  0  0  0
 11  7  2  0  0  0  0
 11  8  1  0  0  0  0
 12 10  1  0  0  0  0
 14  1  1  0  0  0  0
 14 16  1  0  0  0  0
 16 15  3  0  0  0  0
 17  1  1  0  0  0  0
 18 17  1  0  0  0  0
 19 20  1  0  0  0  0
 19 18  1  0  0  0  0
 21 20  1  0  0  0  0
 23 22  1  6  0  0  0
 23 26  1  0  0  0  0
 23 21  1  0  0  0  0
 24 26  2  0  0  0  0
 26 25  1  0  0  0  0
M  END
>  <MODEL>
6

>  <REMARK>
 VINA RESULT:      -7.3      2.815      5.895
  Name = 
  10 active torsions:
  status: ('A' for Active; 'I' for Inactive)
    1  A    between atoms: N_5  and  C_7
    2  A    between atoms: N_5  and  C_14
    3  A    between atoms: C_7  and  S_20
    4  A    between atoms: N_8  and  C_9
    5  A    between atoms: N_8  and  C_25
    6  A    between atoms: C_9  and  S_20
    7  A    between atoms: C_12  and  C_13
    8  A    between atoms: C_22  and  C_26
    9  A    between atoms: C_24  and  C_25
   10  A    between atoms: C_24  and  C_26
                            x       y       z     vdW  Elec       q    Type
                         _______ _______ _______ _____ _____    ______ ____

>  <TORSDO>
F 10

$$$$
=
 OpenBabel11042410553D

 26 27  0  0  1  0  0  0  0  0999 V2000
  186.1560  178.6660  140.7320 C   0  0  0  0  0  0  0  0  0  0  0  0
  185.3300  178.4540  141.7690 C   0  0  0  0  0  3  0  0  0  0  0  0
  188.5920  177.3380  146.8450 C   0  0  0  0  0  3  0  0  0  0  0  0
  188.3030  177.3420  145.4770 C   0  0  0  0  0  3  0  0  0  0  0  0
  187.6660  177.8590  147.7610 C   0  0  0  0  0  0  0  0  0  0  0  0
  187.9850  177.8630  149.2120 C   0  0  0  0  0  1  0  0  0  0  0  0
  187.0920  177.8780  145.0200 C   0  0  0  0  0  0  0  0  0  0  0  0
  185.6500  178.4330  143.2090 C   0  0  0  0  0  0  0  0  0  0  0  0
  186.1710  178.4200  145.9410 C   0  0  0  0  0  0  0  0  0  0  0  0
  184.9730  178.9580  145.4710 C   0  0  0  0  0  3  0  0  0  0  0  0
  186.8070  177.8940  143.6910 N   0  0  0  0  0  0  0  0  0  0  0  0
  184.7120  178.9670  144.0990 C   0  0  0  0  0  3  0  0  0  0  0  0
  186.4580  178.4040  147.3090 C   0  0  0  0  0  3  0  0  0  0  0  0
  185.6530  178.5950  139.3930 N   0  0  0  0  0  2  0  0  0  0  0  0
  183.1650  178.4050  138.8150 N   0  0  0  0  0  0  0  0  0  0  0  0
  184.2890  178.4890  139.0780 C   0  0  0  0  0  0  0  0  0  0  0  0
  187.9110  179.0110  140.9400 S   0  0  0  0  0  0  0  0  0  0  0  0
  188.4440  177.6020  139.9090 C   0  0  0  0  0  2  0  0  0  0  0  0
  189.8670  177.6700  139.6200 N   0  0  0  0  0  2  0  0  0  0  0  0
  190.5430  176.7390  140.5000 C   0  0  0  0  0  2  0  0  0  0  0  0
  191.4990  177.4970  141.3880 C   0  0  0  0  0  2  0  0  0  0  0  0
  190.3440  175.9040  142.8920 C   0  0  0  0  0  1  0  0  0  0  0  0
  191.4780  176.9010  142.7780 C   0  0  2  0  0  3  0  0  0  0  0  0
  191.8500  177.8080  145.0860 O   0  0  0  0  0  1  0  0  0  0  0  0
  190.7180  179.0300  143.5060 O   0  0  0  0  0  0  0  0  0  0  0  0
  191.3320  177.9730  143.8030 C   0  0  0  0  0  0  0  0  0  0  0  0
  1 17  1  0  0  0  0
  1  2  2  0  0  0  0
  2  8  1  0  0  0  0
  3  5  1  0  0  0  0
  4  3  2  0  0  0  0
  5  6  1  0  0  0  0
  7  4  1  0  0  0  0
  7  9  1  0  0  0  0
  8 11  1  0  0  0  0
  8 12  2  0  0  0  0
  9 13  1  0  0  0  0
 10  9  2  0  0  0  0
 11  7  2  0  0  0  0
 12 10  1  0  0  0  0
 13  5  2  0  0  0  0
 14  1  1  0  0  0  0
 15 16  3  0  0  0  0
 16 14  1  0  0  0  0
 18 17  1  0  0  0  0
 19 18  1  0  0  0  0
 19 20  1  0  0  0  0
 20 21  1  0  0  0  0
 21 23  1  0  0  0  0
 23 22  1  6  0  0  0
 23 26  1  0  0  0  0
 25 26  2  0  0  0  0
 26 24  1  0  0  0  0
M  END
>  <MODEL>
7

>  <REMARK>
 VINA RESULT:      -7.2      3.049      5.788
  Name = 
  10 active torsions:
  status: ('A' for Active; 'I' for Inactive)
    1  A    between atoms: N_5  and  C_7
    2  A    between atoms: N_5  and  C_14
    3  A    between atoms: C_7  and  S_20
    4  A    between atoms: N_8  and  C_9
    5  A    between atoms: N_8  and  C_25
    6  A    between atoms: C_9  and  S_20
    7  A    between atoms: C_12  and  C_13
    8  A    between atoms: C_22  and  C_26
    9  A    between atoms: C_24  and  C_25
   10  A    between atoms: C_24  and  C_26
                            x       y       z     vdW  Elec       q    Type
                         _______ _______ _______ _____ _____    ______ ____

>  <TORSDO>
F 10

$$$$
=
 OpenBabel11042410553D

 26 27  0  0  1  0  0  0  0  0999 V2000
  183.6000  178.8440  141.7140 C   0  0  0  0  0  0  0  0  0  0  0  0
  183.4520  178.6220  143.0300 C   0  0  0  0  0  3  0  0  0  0  0  0
  188.9370  177.1350  145.3460 C   0  0  0  0  0  3  0  0  0  0  0  0
  187.9550  177.2890  144.3630 C   0  0  0  0  0  3  0  0  0  0  0  0
  188.6530  177.4620  146.6800 C   0  0  0  0  0  0  0  0  0  0  0  0
  189.7050  177.3080  147.7180 C   0  0  0  0  0  1  0  0  0  0  0  0
  186.6890  177.7810  144.7080 C   0  0  0  0  0  0  0  0  0  0  0  0
  184.5000  178.4450  144.0540 C   0  0  0  0  0  0  0  0  0  0  0  0
  186.4130  178.1290  146.0470 C   0  0  0  0  0  0  0  0  0  0  0  0
  185.1510  178.6250  146.3770 C   0  0  0  0  0  3  0  0  0  0  0  0
  185.7320  177.9420  143.7570 N   0  0  0  0  0  0  0  0  0  0  0  0
  184.1910  178.7870  145.3750 C   0  0  0  0  0  3  0  0  0  0  0  0
  187.3920  177.9620  147.0310 C   0  0  0  0  0  3  0  0  0  0  0  0
  182.4440  178.9390  140.8730 N   0  0  0  0  0  2  0  0  0  0  0  0
  180.2000  177.8240  141.4040 N   0  0  0  0  0  0  0  0  0  0  0  0
  181.2150  178.3290  141.1670 C   0  0  0  0  0  0  0  0  0  0  0  0
  185.2110  179.0030  140.9270 S   0  0  0  0  0  0  0  0  0  0  0  0
  184.5270  179.0430  139.2350 C   0  0  0  0  0  2  0  0  0  0  0  0
  185.5830  178.9800  138.2380 N   0  0  0  0  0  2  0  0  0  0  0  0
  185.6940  177.6050  137.7960 C   0  0  0  0  0  2  0  0  0  0  0  0
  187.0920  177.3580  137.2860 C   0  0  0  0  0  2  0  0  0  0  0  0
  189.0570  178.8510  137.0700 C   0  0  0  0  0  1  0  0  0  0  0  0
  188.0670  178.2370  138.0380 C   0  0  2  0  0  3  0  0  0  0  0  0
  188.4550  177.5910  140.4290 O   0  0  0  0  0  1  0  0  0  0  0  0
  189.7040  176.6660  138.7390 O   0  0  0  0  0  0  0  0  0  0  0  0
  188.7820  177.4510  139.0820 C   0  0  0  0  0  0  0  0  0  0  0  0
  1  2  2  0  0  0  0
  2  8  1  0  0  0  0
  3  5  1  0  0  0  0
  4  7  1  0  0  0  0
  4  3  2  0  0  0  0
  5 13  2  0  0  0  0
  5  6  1  0  0  0  0
  7  9  1  0  0  0  0
  8 12  2  0  0  0  0
  9 10  2  0  0  0  0
  9 13  1  0  0  0  0
 11  8  1  0  0  0  0
 11  7  2  0  0  0  0
 12 10  1  0  0  0  0
 14 16  1  0  0  0  0
 14  1  1  0  0  0  0
 16 15  3  0  0  0  0
 17  1  1  0  0  0  0
 18 17  1  0  0  0  0
 19 18  1  0  0  0  0
 20 19  1  0  0  0  0
 21 20  1  0  0  0  0
 21 23  1  0  0  0  0
 23 22  1  6  0  0  0
 23 26  1  0  0  0  0
 25 26  2  0  0  0  0
 26 24  1  0  0  0  0
M  END
>  <MODEL>
8

>  <REMARK>
 VINA RESULT:      -7.1      3.122      6.145
  Name = 
  10 active torsions:
  status: ('A' for Active; 'I' for Inactive)
    1  A    between atoms: N_5  and  C_7
    2  A    between atoms: N_5  and  C_14
    3  A    between atoms: C_7  and  S_20
    4  A    between atoms: N_8  and  C_9
    5  A    between atoms: N_8  and  C_25
    6  A    between atoms: C_9  and  S_20
    7  A    between atoms: C_12  and  C_13
    8  A    between atoms: C_22  and  C_26
    9  A    between atoms: C_24  and  C_25
   10  A    between atoms: C_24  and  C_26
                            x       y       z     vdW  Elec       q    Type
                         _______ _______ _______ _____ _____    ______ ____

>  <TORSDO>
F 10

$$$$
=
 OpenBabel11042410553D

 26 27  0  0  1  0  0  0  0  0999 V2000
  183.9900  178.9000  143.3200 C   0  0  0  0  0  0  0  0  0  0  0  0
  184.1800  178.6270  144.6210 C   0  0  0  0  0  3  0  0  0  0  0  0
  189.9800  176.7540  145.3280 C   0  0  0  0  0  3  0  0  0  0  0  0
  188.7880  177.0170  144.6480 C   0  0  0  0  0  3  0  0  0  0  0  0
  190.0710  176.9980  146.7070 C   0  0  0  0  0  0  0  0  0  0  0  0
  191.3460  176.7290  147.4220 C   0  0  0  0  0  1  0  0  0  0  0  0
  187.6860  177.5360  145.3410 C   0  0  0  0  0  0  0  0  0  0  0  0
  185.4450  178.3340  145.3230 C   0  0  0  0  0  0  0  0  0  0  0  0
  187.7870  177.8010  146.7230 C   0  0  0  0  0  0  0  0  0  0  0  0
  186.6850  178.3250  147.3990 C   0  0  0  0  0  3  0  0  0  0  0  0
  186.5260  177.8030  144.6850 N   0  0  0  0  0  0  0  0  0  0  0  0
  185.5090  178.5960  146.6960 C   0  0  0  0  0  3  0  0  0  0  0  0
  188.9770  177.5250  147.4030 C   0  0  0  0  0  3  0  0  0  0  0  0
  182.6630  179.1080  142.8210 N   0  0  0  0  0  2  0  0  0  0  0  0
  180.5420  178.6410  144.1810 N   0  0  0  0  0  0  0  0  0  0  0  0
  181.5020  178.8490  143.5660 C   0  0  0  0  0  0  0  0  0  0  0  0
  185.3430  178.9910  142.1360 S   0  0  0  0  0  0  0  0  0  0  0  0
  184.2810  178.6280  140.6960 C   0  0  0  0  0  2  0  0  0  0  0  0
  184.4100  179.6530  139.6740 N   0  0  0  0  0  2  0  0  0  0  0  0
  184.4690  178.9920  138.3870 C   0  0  0  0  0  2  0  0  0  0  0  0
  185.3310  177.7590  138.5000 C   0  0  0  0  0  2  0  0  0  0  0  0
  186.5610  176.6990  136.6300 C   0  0  0  0  0  1  0  0  0  0  0  0
  186.5170  177.8860  137.5690 C   0  0  2  0  0  3  0  0  0  0  0  0
  188.9440  177.3500  137.9000 O   0  0  0  0  0  0  0  0  0  0  0  0
  187.7970  178.6190  139.4310 O   0  0  0  0  0  1  0  0  0  0  0  0
  187.7840  177.9790  138.3480 C   0  0  0  0  0  0  0  0  0  0  0  0
  1  2  2  0  0  0  0
  2  8  1  0  0  0  0
  3  5  1  0  0  0  0
  4  3  2  0  0  0  0
  4  7  1  0  0  0  0
  5 13  2  0  0  0  0
  5  6  1  0  0  0  0
  7  9  1  0  0  0  0
  8 12  2  0  0  0  0
  9 10  2  0  0  0  0
  9 13  1  0  0  0  0
 11  8  1  0  0  0  0
 11  7  2  0  0  0  0
 12 10  1  0  0  0  0
 14  1  1  0  0  0  0
 14 16  1  0  0  0  0
 16 15  3  0  0  0  0
 17  1  1  0  0  0  0
 18 17  1  0  0  0  0
 19 18  1  0  0  0  0
 20 21  1  0  0  0  0
 20 19  1  0  0  0  0
 23 22  1  6  0  0  0
 23 26  1  0  0  0  0
 23 21  1  0  0  0  0
 24 26  2  0  0  0  0
 26 25  1  0  0  0  0
M  END
>  <MODEL>
9

>  <REMARK>
 VINA RESULT:      -7.0      2.816      6.085
  Name = 
  10 active torsions:
  status: ('A' for Active; 'I' for Inactive)
    1  A    between atoms: N_5  and  C_7
    2  A    between atoms: N_5  and  C_14
    3  A    between atoms: C_7  and  S_20
    4  A    between atoms: N_8  and  C_9
    5  A    between atoms: N_8  and  C_25
    6  A    between atoms: C_9  and  S_20
    7  A    between atoms: C_12  and  C_13
    8  A    between atoms: C_22  and  C_26
    9  A    between atoms: C_24  and  C_25
   10  A    between atoms: C_24  and  C_26
                            x       y       z     vdW  Elec       q    Type
                         _______ _______ _______ _____ _____    ______ ____

>  <TORSDO>
F 10

$$$$
