=
 OpenBabel11042412523D

 43 47  0  0  1  0  0  0  0  0999 V2000
  191.4640  175.9100  138.3970 C   0  0  0  0  0  3  0  0  0  0  0  0
  189.3820  175.9700  137.4820 C   0  0  1  0  0  3  0  0  0  0  0  0
  189.5310  177.1540  138.0640 C   0  0  1  0  0  3  0  0  0  0  0  0
  189.0500  177.4320  140.4170 C   0  0  1  0  0  3  0  0  0  0  0  0
  188.2340  178.0230  138.8950 S   0  0  0  0  0  0  0  0  0  0  0  0
  190.8600  177.2470  138.7120 C   0  0  1  0  0  3  0  0  0  0  0  0
  190.6120  175.2170  137.6570 C   0  0  0  0  0  0  0  0  0  0  0  0
  190.5690  177.4190  140.2020 C   0  0  0  0  0  2  0  0  0  0  0  0
  192.1570  173.4410  136.7290 C   0  0  0  0  0  1  0  0  0  0  0  0
  190.8620  173.8800  137.2180 N   0  0  0  0  0  2  0  0  0  0  0  0
  188.2020  175.4590  136.9380 O   0  0  0  0  0  0  0  0  0  0  0  0
  187.1090  176.2620  136.7040 N   0  0  0  0  0  2  0  0  0  0  0  0
  184.1390  174.2770  136.0080 C   0  0  1  0  0  3  0  0  0  0  0  0
  184.8650  176.4600  135.9490 N   0  0  0  0  0  0  0  0  0  0  0  0
  185.7500  173.4560  137.4010 C   0  0  0  0  0  3  0  0  0  0  0  0
  185.6100  174.2440  136.1370 C   0  0  2  0  0  3  0  0  0  0  0  0
  184.6020  173.0730  137.8560 N   0  0  0  0  0  0  0  0  0  0  0  0
  185.8700  175.7080  136.2700 C   0  0  0  0  0  0  0  0  0  0  0  0
  183.5890  173.6220  137.0250 C   0  0  0  0  0  2  0  0  0  0  0  0
  183.7160  175.6460  135.5700 C   0  0  2  0  0  3  0  0  0  0  0  0
  182.4580  176.1460  136.2220 C   0  0  0  0  0  0  0  0  0  0  0  0
  182.5530  177.0350  137.3370 N   0  0  0  0  0  2  0  0  0  0  0  0
  181.3280  175.8290  135.7560 O   0  0  0  0  0  0  0  0  0  0  0  0
  181.1570  178.9940  137.5960 C   0  0  0  0  0  1  0  0  0  0  0  0
  181.3800  177.5560  138.0220 C   0  0  2  0  0  3  0  0  0  0  0  0
  181.5910  177.4870  139.5260 C   0  0  0  0  0  2  0  0  0  0  0  0
  183.0030  177.0270  139.8370 C   0  0  0  0  0  2  0  0  0  0  0  0
  182.5300  178.6350  141.4560 C   0  0  0  0  0  1  0  0  0  0  0  0
  184.3540  178.9190  140.0380 C   0  0  0  0  0  1  0  0  0  0  0  0
  183.6150  177.9270  140.8000 N   0  0  0  0  0  0  0  0  0  0  0  0
  188.7080  178.2880  141.5450 N   0  0  0  0  0  2  0  0  0  0  0  0
  189.1400  177.5290  144.9900 C   0  0  0  0  0  0  0  0  0  0  0  0
  188.1150  177.7210  145.8360 C   0  0  0  0  0  0  0  0  0  0  0  0
  188.1170  177.7970  142.7540 C   0  0  0  0  0  0  0  0  0  0  0  0
  186.8310  178.0360  143.0310 C   0  0  0  0  0  3  0  0  0  0  0  0
  186.1400  177.6050  144.2580 C   0  0  0  0  0  3  0  0  0  0  0  0
  188.9350  176.9150  143.6350 C   0  0  0  0  0  2  0  0  0  0  0  0
  186.6980  177.4610  145.4680 C   0  0  0  0  0  3  0  0  0  0  0  0
  188.4120  178.1700  147.1290 O   0  0  0  0  0  0  0  0  0  0  0  0
  188.4380  177.3080  148.2580 C   0  0  0  0  0  1  0  0  0  0  0  0
  190.4310  177.8690  145.4140 O   0  0  0  0  0  0  0  0  0  0  0  0
  191.4930  176.9290  145.5100 C   0  0  0  0  0  2  0  0  0  0  0  0
  191.8560  176.7590  146.8470 O   0  0  0  0  0  1  0  0  0  0  0  0
  2 11  1  1  0  0  0
  2  7  1  0  0  0  0
  2  3  1  0  0  0  0
  3  6  1  0  0  0  0
  3  5  1  1  0  0  0
  4 31  1  1  0  0  0
  5  4  1  0  0  0  0
  6  1  1  1  0  0  0
  6  8  1  0  0  0  0
  7  1  2  0  0  0  0
  8  4  1  0  0  0  0
  9 10  1  0  0  0  0
 10  7  1  0  0  0  0
 12 11  1  0  0  0  0
 13 16  1  0  0  0  0
 13 19  1  1  0  0  0
 14 18  2  0  0  0  0
 15 17  2  0  0  0  0
 16 18  1  0  0  0  0
 16 15  1  1  0  0  0
 18 12  1  0  0  0  0
 19 17  1  0  0  0  0
 20 14  1  0  0  0  0
 20 13  1  0  0  0  0
 20 21  1  1  0  0  0
 21 22  1  0  0  0  0
 22 25  1  0  0  0  0
 23 21  2  0  0  0  0
 25 24  1  6  0  0  0
 25 26  1  0  0  0  0
 26 27  1  0  0  0  0
 27 30  1  0  0  0  0
 29 30  1  0  0  0  0
 30 28  1  0  0  0  0
 31 34  1  0  0  0  0
 32 41  1  0  0  0  0
 32 33  2  0  0  0  0
 33 39  1  0  0  0  0
 34 35  2  0  0  0  0
 34 37  1  0  0  0  0
 35 36  1  0  0  0  0
 36 38  2  0  0  0  0
 37 32  1  0  0  0  0
 38 33  1  0  0  0  0
 39 40  1  0  0  0  0
 41 42  1  0  0  0  0
 42 43  1  0  0  0  0
M  END
>  <MODEL>
1

>  <REMARK>
 VINA RESULT:      -7.3      0.000      0.000
  Name = 
  13 active torsions:
  status: ('A' for Active; 'I' for Inactive)
    1  A    between atoms: C_2  and  O_18
    2  A    between atoms: O_4  and  C_12
    3  A    between atoms: C_6  and  C_14
    4  A    between atoms: C_6  and  N_25
    5  A    between atoms: C_8  and  O_11
    6  A    between atoms: N_10  and  O_11
    7  A    between atoms: C_13  and  C_41
    8  A    between atoms: C_14  and  C_22
    9  A    between atoms: C_15  and  N_23
   10  A    between atoms: N_17  and  C_22
   11  A    between atoms: O_18  and  C_30
   12  A    between atoms: N_23  and  C_28
   13  A    between atoms: N_26  and  C_38
                            x       y       z     vdW  Elec       q    Type
                         _______ _______ _______ _____ _____    ______ ____

>  <TORSDO>
F 13

$$$$
=
 OpenBabel11042412523D

 43 47  0  0  1  0  0  0  0  0999 V2000
  182.7650  178.6130  141.6410 C   0  0  0  0  0  3  0  0  0  0  0  0
  184.8680  178.6580  140.7780 C   0  0  1  0  0  3  0  0  0  0  0  0
  184.9950  178.0440  141.9490 C   0  0  1  0  0  3  0  0  0  0  0  0
  185.2620  179.3240  143.9820 C   0  0  1  0  0  3  0  0  0  0  0  0
  186.3810  178.2410  143.0300 S   0  0  0  0  0  0  0  0  0  0  0  0
  183.6810  177.9510  142.6280 C   0  0  1  0  0  3  0  0  0  0  0  0
  183.4650  178.9690  140.5760 C   0  0  0  0  0  0  0  0  0  0  0  0
  183.8370  178.7620  143.9130 C   0  0  0  0  0  2  0  0  0  0  0  0
  181.7950  179.1330  138.6810 C   0  0  0  0  0  1  0  0  0  0  0  0
  182.8980  179.6640  139.4610 N   0  0  0  0  0  2  0  0  0  0  0  0
  185.9100  179.0840  139.9520 O   0  0  0  0  0  0  0  0  0  0  0  0
  186.2030  178.4400  138.7710 N   0  0  0  0  0  2  0  0  0  0  0  0
  189.7860  177.9080  138.4140 C   0  0  1  0  0  3  0  0  0  0  0  0
  187.8400  177.7410  137.1960 N   0  0  0  0  0  0  0  0  0  0  0  0
  188.8460  177.9310  140.4930 C   0  0  0  0  0  3  0  0  0  0  0  0
  188.7420  178.6270  139.1730 C   0  0  2  0  0  3  0  0  0  0  0  0
  189.7900  177.0490  140.4970 N   0  0  0  0  0  0  0  0  0  0  0  0
  187.5520  178.2550  138.3510 C   0  0  0  0  0  0  0  0  0  0  0  0
  190.3480  176.9890  139.1920 C   0  0  0  0  0  2  0  0  0  0  0  0
  189.2840  177.6340  137.0280 C   0  0  2  0  0  3  0  0  0  0  0  0
  189.6690  176.2880  136.4820 C   0  0  0  0  0  0  0  0  0  0  0  0
  191.0510  175.9840  136.2810 N   0  0  0  0  0  2  0  0  0  0  0  0
  188.7850  175.4160  136.2550 O   0  0  0  0  0  0  0  0  0  0  0  0
  191.2560  173.6280  136.7930 C   0  0  0  0  0  1  0  0  0  0  0  0
  191.4970  174.7040  135.7530 C   0  0  2  0  0  3  0  0  0  0  0  0
  192.9790  174.7770  135.4170 C   0  0  0  0  0  2  0  0  0  0  0  0
  193.7890  175.0420  136.6730 C   0  0  0  0  0  2  0  0  0  0  0  0
  194.8560  176.1750  134.9390 C   0  0  0  0  0  1  0  0  0  0  0  0
  196.1110  174.9420  136.4630 C   0  0  0  0  0  1  0  0  0  0  0  0
  194.9650  175.8280  136.3440 N   0  0  0  0  0  0  0  0  0  0  0  0
  185.7020  179.4200  145.3670 N   0  0  0  0  0  2  0  0  0  0  0  0
  188.6590  177.4530  145.2310 C   0  0  0  0  0  0  0  0  0  0  0  0
  189.3140  177.1770  146.3690 C   0  0  0  0  0  0  0  0  0  0  0  0
  186.5230  178.4330  146.0020 C   0  0  0  0  0  0  0  0  0  0  0  0
  186.6270  178.3870  147.3350 C   0  0  0  0  0  3  0  0  0  0  0  0
  187.4690  177.4360  148.0810 C   0  0  0  0  0  3  0  0  0  0  0  0
  187.1600  177.3880  145.1520 C   0  0  0  0  0  2  0  0  0  0  0  0
  188.6260  176.9070  147.6590 C   0  0  0  0  0  3  0  0  0  0  0  0
  190.7130  177.1270  146.3210 O   0  0  0  0  0  0  0  0  0  0  0  0
  191.4860  176.3030  147.1820 C   0  0  0  0  0  1  0  0  0  0  0  0
  189.4050  177.7600  144.0850 O   0  0  0  0  0  0  0  0  0  0  0  0
  190.3470  178.8220  144.0300 C   0  0  0  0  0  2  0  0  0  0  0  0
  191.5070  178.3940  143.3820 O   0  0  0  0  0  1  0  0  0  0  0  0
  2 11  1  1  0  0  0
  2  3  1  0  0  0  0
  3  6  1  0  0  0  0
  3  5  1  1  0  0  0
  4 31  1  1  0  0  0
  5  4  1  0  0  0  0
  6  1  1  6  0  0  0
  6  8  1  0  0  0  0
  7  2  1  0  0  0  0
  7  1  2  0  0  0  0
  8  4  1  0  0  0  0
  9 10  1  0  0  0  0
 10  7  1  0  0  0  0
 12 11  1  0  0  0  0
 13 16  1  0  0  0  0
 13 19  1  1  0  0  0
 14 18  2  0  0  0  0
 15 17  2  0  0  0  0
 16 15  1  1  0  0  0
 18 12  1  0  0  0  0
 18 16  1  0  0  0  0
 19 17  1  0  0  0  0
 20 21  1  1  0  0  0
 20 14  1  0  0  0  0
 20 13  1  0  0  0  0
 22 21  1  0  0  0  0
 23 21  2  0  0  0  0
 25 22  1  0  0  0  0
 25 24  1  1  0  0  0
 26 25  1  0  0  0  0
 26 27  1  0  0  0  0
 28 30  1  0  0  0  0
 30 29  1  0  0  0  0
 30 27  1  0  0  0  0
 31 34  1  0  0  0  0
 32 33  2  0  0  0  0
 33 38  1  0  0  0  0
 34 35  2  0  0  0  0
 35 36  1  0  0  0  0
 37 32  1  0  0  0  0
 37 34  1  0  0  0  0
 38 36  2  0  0  0  0
 39 33  1  0  0  0  0
 39 40  1  0  0  0  0
 41 32  1  0  0  0  0
 42 41  1  0  0  0  0
 43 42  1  0  0  0  0
M  END
>  <MODEL>
2

>  <REMARK>
 VINA RESULT:      -6.4      2.925      7.431
  Name = 
  13 active torsions:
  status: ('A' for Active; 'I' for Inactive)
    1  A    between atoms: C_2  and  O_18
    2  A    between atoms: O_4  and  C_12
    3  A    between atoms: C_6  and  C_14
    4  A    between atoms: C_6  and  N_25
    5  A    between atoms: C_8  and  O_11
    6  A    between atoms: N_10  and  O_11
    7  A    between atoms: C_13  and  C_41
    8  A    between atoms: C_14  and  C_22
    9  A    between atoms: C_15  and  N_23
   10  A    between atoms: N_17  and  C_22
   11  A    between atoms: O_18  and  C_30
   12  A    between atoms: N_23  and  C_28
   13  A    between atoms: N_26  and  C_38
                            x       y       z     vdW  Elec       q    Type
                         _______ _______ _______ _____ _____    ______ ____

>  <TORSDO>
F 13

$$$$
=
 OpenBabel11042412523D

 43 47  0  0  1  0  0  0  0  0999 V2000
  180.5650  179.0430  143.8100 C   0  0  0  0  0  3  0  0  0  0  0  0
  181.3940  178.5920  141.7410 C   0  0  1  0  0  3  0  0  0  0  0  0
  182.3190  178.1440  142.5820 C   0  0  1  0  0  3  0  0  0  0  0  0
  183.9930  179.6430  143.4750 C   0  0  1  0  0  3  0  0  0  0  0  0
  184.0610  178.2530  142.2950 S   0  0  0  0  0  0  0  0  0  0  0  0
  181.9010  178.3840  143.9830 C   0  0  1  0  0  3  0  0  0  0  0  0
  180.2830  179.1110  142.5180 C   0  0  0  0  0  0  0  0  0  0  0  0
  182.9500  179.3350  144.5570 C   0  0  0  0  0  2  0  0  0  0  0  0
  179.1040  180.9990  141.3150 C   0  0  0  0  0  1  0  0  0  0  0  0
  179.0970  179.7220  142.0050 N   0  0  0  0  0  2  0  0  0  0  0  0
  181.5230  178.7030  140.3550 O   0  0  0  0  0  0  0  0  0  0  0  0
  181.3730  177.6130  139.5270 N   0  0  0  0  0  2  0  0  0  0  0  0
  183.7490  177.7140  136.7720 C   0  0  1  0  0  3  0  0  0  0  0  0
  181.8920  176.5460  137.4690 N   0  0  0  0  0  0  0  0  0  0  0  0
  184.3110  178.6260  138.7870 C   0  0  0  0  0  3  0  0  0  0  0  0
  183.1380  178.4940  137.8680 C   0  0  2  0  0  3  0  0  0  0  0  0
  185.3750  178.0890  138.2860 N   0  0  0  0  0  0  0  0  0  0  0  0
  182.0980  177.5150  138.3050 C   0  0  0  0  0  0  0  0  0  0  0  0
  185.0250  177.4730  137.0550 C   0  0  0  0  0  2  0  0  0  0  0  0
  182.7810  176.6630  136.3190 C   0  0  2  0  0  3  0  0  0  0  0  0
  183.4120  175.3410  135.9830 C   0  0  0  0  0  0  0  0  0  0  0  0
  183.5040  174.3340  136.9920 N   0  0  0  0  0  2  0  0  0  0  0  0
  183.8050  175.1030  134.8070 O   0  0  0  0  0  0  0  0  0  0  0  0
  183.0810  171.9520  137.0290 C   0  0  0  0  0  1  0  0  0  0  0  0
  184.1050  173.0330  136.7410 C   0  0  2  0  0  3  0  0  0  0  0  0
  185.3190  172.8470  137.6380 C   0  0  0  0  0  2  0  0  0  0  0  0
  186.5400  173.4910  137.0050 C   0  0  0  0  0  2  0  0  0  0  0  0
  188.8620  173.3850  136.8390 C   0  0  0  0  0  1  0  0  0  0  0  0
  187.5600  171.6490  135.9980 C   0  0  0  0  0  1  0  0  0  0  0  0
  187.6760  172.5890  137.1000 N   0  0  0  0  0  0  0  0  0  0  0  0
  185.2990  179.8640  144.0800 N   0  0  0  0  0  2  0  0  0  0  0  0
  188.0340  177.7170  144.8200 C   0  0  0  0  0  0  0  0  0  0  0  0
  188.4520  177.6050  146.0900 C   0  0  0  0  0  0  0  0  0  0  0  0
  185.9000  178.9540  145.0090 C   0  0  0  0  0  0  0  0  0  0  0  0
  185.7660  179.1370  146.3270 C   0  0  0  0  0  3  0  0  0  0  0  0
  186.3700  178.2790  147.3610 C   0  0  0  0  0  3  0  0  0  0  0  0
  186.5720  177.7360  144.4730 C   0  0  0  0  0  2  0  0  0  0  0  0
  187.5270  177.6120  147.2550 C   0  0  0  0  0  3  0  0  0  0  0  0
  189.8260  177.4570  146.3140 O   0  0  0  0  0  0  0  0  0  0  0  0
  190.3580  176.6030  147.3170 C   0  0  0  0  0  1  0  0  0  0  0  0
  188.9930  177.7680  143.8000 O   0  0  0  0  0  0  0  0  0  0  0  0
  188.9330  176.9610  142.6320 C   0  0  0  0  0  2  0  0  0  0  0  0
  189.6260  175.7680  142.8440 O   0  0  0  0  0  1  0  0  0  0  0  0
  2 11  1  1  0  0  0
  2  7  1  0  0  0  0
  2  3  1  0  0  0  0
  3  5  1  6  0  0  0
  3  6  1  0  0  0  0
  4 31  1  1  0  0  0
  4  8  1  0  0  0  0
  5  4  1  0  0  0  0
  6  1  1  6  0  0  0
  6  8  1  0  0  0  0
  7  1  2  0  0  0  0
  9 10  1  0  0  0  0
 10  7  1  0  0  0  0
 12 11  1  0  0  0  0
 13 19  1  1  0  0  0
 13 16  1  0  0  0  0
 14 18  2  0  0  0  0
 16 18  1  0  0  0  0
 16 15  1  1  0  0  0
 17 15  2  0  0  0  0
 18 12  1  0  0  0  0
 19 17  1  0  0  0  0
 20 21  1  1  0  0  0
 20 13  1  0  0  0  0
 20 14  1  0  0  0  0
 21 22  1  0  0  0  0
 23 21  2  0  0  0  0
 25 22  1  0  0  0  0
 25 24  1  1  0  0  0
 25 26  1  0  0  0  0
 27 30  1  0  0  0  0
 27 26  1  0  0  0  0
 28 30  1  0  0  0  0
 29 30  1  0  0  0  0
 31 34  1  0  0  0  0
 32 33  2  0  0  0  0
 33 39  1  0  0  0  0
 33 38  1  0  0  0  0
 34 35  2  0  0  0  0
 35 36  1  0  0  0  0
 37 32  1  0  0  0  0
 37 34  1  0  0  0  0
 38 36  2  0  0  0  0
 39 40  1  0  0  0  0
 41 32  1  0  0  0  0
 42 43  1  0  0  0  0
 42 41  1  0  0  0  0
M  END
>  <MODEL>
3

>  <REMARK>
 VINA RESULT:      -6.4      2.520      6.723
  Name = 
  13 active torsions:
  status: ('A' for Active; 'I' for Inactive)
    1  A    between atoms: C_2  and  O_18
    2  A    between atoms: O_4  and  C_12
    3  A    between atoms: C_6  and  C_14
    4  A    between atoms: C_6  and  N_25
    5  A    between atoms: C_8  and  O_11
    6  A    between atoms: N_10  and  O_11
    7  A    between atoms: C_13  and  C_41
    8  A    between atoms: C_14  and  C_22
    9  A    between atoms: C_15  and  N_23
   10  A    between atoms: N_17  and  C_22
   11  A    between atoms: O_18  and  C_30
   12  A    between atoms: N_23  and  C_28
   13  A    between atoms: N_26  and  C_38
                            x       y       z     vdW  Elec       q    Type
                         _______ _______ _______ _____ _____    ______ ____

>  <TORSDO>
F 13

$$$$
=
 OpenBabel11042412523D

 43 47  0  0  1  0  0  0  0  0999 V2000
  185.8730  178.1760  143.6200 C   0  0  0  0  0  3  0  0  0  0  0  0
  186.7680  178.6270  141.5780 C   0  0  1  0  0  3  0  0  0  0  0  0
  185.5900  179.2390  141.5750 C   0  0  1  0  0  3  0  0  0  0  0  0
  183.5820  178.0290  140.9830 C   0  0  1  0  0  3  0  0  0  0  0  0
  184.5330  179.3530  140.1600 S   0  0  0  0  0  0  0  0  0  0  0  0
  184.8900  179.0180  142.8620 C   0  0  1  0  0  3  0  0  0  0  0  0
  186.9550  178.0030  142.8760 C   0  0  0  0  0  0  0  0  0  0  0  0
  183.6200  178.2500  142.5000 C   0  0  0  0  0  2  0  0  0  0  0  0
  189.0150  177.6470  144.3010 C   0  0  0  0  0  1  0  0  0  0  0  0
  188.0710  177.2110  143.2880 N   0  0  0  0  0  2  0  0  0  0  0  0
  187.6170  178.4620  140.4820 O   0  0  0  0  0  0  0  0  0  0  0  0
  188.8760  177.9200  140.6190 N   0  0  0  0  0  2  0  0  0  0  0  0
  189.8780  176.1340  137.6110 C   0  0  1  0  0  3  0  0  0  0  0  0
  190.5550  176.4610  139.7860 N   0  0  0  0  0  0  0  0  0  0  0  0
  188.4890  177.9370  137.4480 C   0  0  0  0  0  3  0  0  0  0  0  0
  188.7430  176.7530  138.3250 C   0  0  2  0  0  3  0  0  0  0  0  0
  189.2750  177.9500  136.4220 N   0  0  0  0  0  0  0  0  0  0  0  0
  189.4160  177.0570  139.6240 C   0  0  0  0  0  0  0  0  0  0  0  0
  190.1780  176.8600  136.5400 C   0  0  0  0  0  2  0  0  0  0  0  0
  190.8900  175.6640  138.6120 C   0  0  2  0  0  3  0  0  0  0  0  0
  192.3180  175.8790  138.1990 C   0  0  0  0  0  0  0  0  0  0  0  0
  192.9660  174.9010  137.3830 N   0  0  0  0  0  2  0  0  0  0  0  0
  192.9230  176.9390  138.5230 O   0  0  0  0  0  0  0  0  0  0  0  0
  194.4240  174.7870  135.4560 C   0  0  0  0  0  1  0  0  0  0  0  0
  194.3480  175.0390  136.9490 C   0  0  2  0  0  3  0  0  0  0  0  0
  195.2210  174.0380  137.6890 C   0  0  0  0  0  2  0  0  0  0  0  0
  195.5060  174.5310  139.0960 C   0  0  0  0  0  2  0  0  0  0  0  0
  197.2820  175.2520  140.4210 C   0  0  0  0  0  1  0  0  0  0  0  0
  197.6820  174.5020  138.2540 C   0  0  0  0  0  1  0  0  0  0  0  0
  196.8890  174.2520  139.4450 N   0  0  0  0  0  0  0  0  0  0  0  0
  182.2050  178.0200  140.5080 N   0  0  0  0  0  2  0  0  0  0  0  0
  182.9550  175.8430  137.8000 C   0  0  0  0  0  0  0  0  0  0  0  0
  182.2680  174.6970  137.6730 C   0  0  0  0  0  0  0  0  0  0  0  0
  181.7120  177.0850  139.5410 C   0  0  0  0  0  0  0  0  0  0  0  0
  180.6990  176.2650  139.8400 C   0  0  0  0  0  3  0  0  0  0  0  0
  180.1430  175.2480  138.9310 C   0  0  0  0  0  3  0  0  0  0  0  0
  182.2720  177.1320  138.1600 C   0  0  0  0  0  2  0  0  0  0  0  0
  180.8200  174.5770  137.9890 C   0  0  0  0  0  3  0  0  0  0  0  0
  182.9570  173.5730  137.2010 O   0  0  0  0  0  0  0  0  0  0  0  0
  182.3150  172.5040  136.5190 C   0  0  0  0  0  1  0  0  0  0  0  0
  184.3320  175.8320  137.5410 O   0  0  0  0  0  0  0  0  0  0  0  0
  184.9330  176.5760  136.4910 C   0  0  0  0  0  2  0  0  0  0  0  0
  185.4680  177.7630  136.9960 O   0  0  0  0  0  1  0  0  0  0  0  0
  2 11  1  6  0  0  0
  2  7  1  0  0  0  0
  3  5  1  6  0  0  0
  3  2  1  0  0  0  0
  3  6  1  0  0  0  0
  4 31  1  6  0  0  0
  4  8  1  0  0  0  0
  5  4  1  0  0  0  0
  6  8  1  6  0  0  0
  6  1  1  0  0  0  0
  7 10  1  0  0  0  0
  7  1  2  0  0  0  0
 10  9  1  0  0  0  0
 11 12  1  0  0  0  0
 13 19  1  6  0  0  0
 13 16  1  0  0  0  0
 13 20  1  0  0  0  0
 16 15  1  6  0  0  0
 16 18  1  0  0  0  0
 17 19  1  0  0  0  0
 17 15  2  0  0  0  0
 18 14  2  0  0  0  0
 18 12  1  0  0  0  0
 20 21  1  6  0  0  0
 20 14  1  0  0  0  0
 21 23  2  0  0  0  0
 22 21  1  0  0  0  0
 25 24  1  6  0  0  0
 25 22  1  0  0  0  0
 25 26  1  0  0  0  0
 26 27  1  0  0  0  0
 27 30  1  0  0  0  0
 29 30  1  0  0  0  0
 30 28  1  0  0  0  0
 32 37  1  0  0  0  0
 33 32  2  0  0  0  0
 33 38  1  0  0  0  0
 34 35  2  0  0  0  0
 34 31  1  0  0  0  0
 36 35  1  0  0  0  0
 37 34  1  0  0  0  0
 38 36  2  0  0  0  0
 39 33  1  0  0  0  0
 40 39  1  0  0  0  0
 41 32  1  0  0  0  0
 42 43  1  0  0  0  0
 42 41  1  0  0  0  0
M  END
>  <MODEL>
4

>  <REMARK>
 VINA RESULT:      -6.3      2.903      9.479
  Name = 
  13 active torsions:
  status: ('A' for Active; 'I' for Inactive)
    1  A    between atoms: C_2  and  O_18
    2  A    between atoms: O_4  and  C_12
    3  A    between atoms: C_6  and  C_14
    4  A    between atoms: C_6  and  N_25
    5  A    between atoms: C_8  and  O_11
    6  A    between atoms: N_10  and  O_11
    7  A    between atoms: C_13  and  C_41
    8  A    between atoms: C_14  and  C_22
    9  A    between atoms: C_15  and  N_23
   10  A    between atoms: N_17  and  C_22
   11  A    between atoms: O_18  and  C_30
   12  A    between atoms: N_23  and  C_28
   13  A    between atoms: N_26  and  C_38
                            x       y       z     vdW  Elec       q    Type
                         _______ _______ _______ _____ _____    ______ ____

>  <TORSDO>
F 13

$$$$
=
 OpenBabel11042412523D

 43 47  0  0  1  0  0  0  0  0999 V2000
  189.1740  176.5450  143.8470 C   0  0  0  0  0  3  0  0  0  0  0  0
  188.0460  177.9440  142.4530 C   0  0  1  0  0  3  0  0  0  0  0  0
  188.6830  177.1040  141.6470 C   0  0  1  0  0  3  0  0  0  0  0  0
  190.9790  177.5160  141.0140 C   0  0  1  0  0  3  0  0  0  0  0  0
  189.4020  177.5650  140.0970 S   0  0  0  0  0  0  0  0  0  0  0  0
  189.4710  176.1290  142.4360 C   0  0  1  0  0  3  0  0  0  0  0  0
  188.3230  177.5590  143.8260 C   0  0  0  0  0  0  0  0  0  0  0  0
  190.9270  176.3830  142.0480 C   0  0  0  0  0  2  0  0  0  0  0  0
  186.9970  177.5860  145.9810 C   0  0  0  0  0  1  0  0  0  0  0  0
  187.8650  178.2230  145.0060 N   0  0  0  0  0  2  0  0  0  0  0  0
  187.3600  179.0990  142.0690 O   0  0  0  0  0  0  0  0  0  0  0  0
  186.4100  179.0750  141.0740 N   0  0  0  0  0  2  0  0  0  0  0  0
  183.1250  178.2520  142.4060 C   0  0  1  0  0  3  0  0  0  0  0  0
  184.2040  178.5130  140.3910 N   0  0  0  0  0  0  0  0  0  0  0  0
  184.6250  179.3780  143.7060 C   0  0  0  0  0  3  0  0  0  0  0  0
  184.5730  178.2760  142.6960 C   0  0  2  0  0  3  0  0  0  0  0  0
  183.4460  179.8360  143.9760 N   0  0  0  0  0  0  0  0  0  0  0  0
  185.0810  178.6360  141.3380 C   0  0  0  0  0  0  0  0  0  0  0  0
  182.5100  179.1780  143.1350 C   0  0  0  0  0  2  0  0  0  0  0  0
  182.9220  178.0790  140.9320 C   0  0  2  0  0  3  0  0  0  0  0  0
  181.7910  178.8870  140.3610 C   0  0  0  0  0  0  0  0  0  0  0  0
  182.0460  179.7770  139.2730 N   0  0  0  0  0  2  0  0  0  0  0  0
  180.6160  178.7400  140.8010 O   0  0  0  0  0  0  0  0  0  0  0  0
  180.5110  179.9170  137.4080 C   0  0  0  0  0  1  0  0  0  0  0  0
  181.0020  180.5940  138.6730 C   0  0  2  0  0  3  0  0  0  0  0  0
  181.5550  181.9710  138.3420 C   0  0  0  0  0  2  0  0  0  0  0  0
  180.4300  182.9030  137.9310 C   0  0  0  0  0  2  0  0  0  0  0  0
  180.0710  185.1770  137.5690 C   0  0  0  0  0  1  0  0  0  0  0  0
  180.9010  183.8470  135.8490 C   0  0  0  0  0  1  0  0  0  0  0  0
  180.9790  184.0810  137.2810 N   0  0  0  0  0  0  0  0  0  0  0  0
  192.0950  177.3130  140.0990 N   0  0  0  0  0  2  0  0  0  0  0  0
  193.8050  175.3430  137.6850 C   0  0  0  0  0  0  0  0  0  0  0  0
  193.1890  174.2720  137.1600 C   0  0  0  0  0  0  0  0  0  0  0  0
  192.0050  176.5140  138.9140 C   0  0  0  0  0  0  0  0  0  0  0  0
  190.9300  175.7530  138.6840 C   0  0  0  0  0  3  0  0  0  0  0  0
  190.7570  174.8720  137.5160 C   0  0  0  0  0  3  0  0  0  0  0  0
  193.0800  176.6430  137.8890 C   0  0  0  0  0  2  0  0  0  0  0  0
  191.7340  174.2400  136.8530 C   0  0  0  0  0  3  0  0  0  0  0  0
  193.9700  173.1450  136.8750 O   0  0  0  0  0  0  0  0  0  0  0  0
  194.5660  172.9200  135.6060 C   0  0  0  0  0  1  0  0  0  0  0  0
  195.1670  175.2460  138.0000 O   0  0  0  0  0  0  0  0  0  0  0  0
  195.6490  174.6710  139.2060 C   0  0  0  0  0  2  0  0  0  0  0  0
  195.6390  175.6250  140.2240 O   0  0  0  0  0  1  0  0  0  0  0  0
  2 11  1  1  0  0  0
  2  7  1  0  0  0  0
  3  5  1  6  0  0  0
  3  6  1  0  0  0  0
  3  2  1  0  0  0  0
  4 31  1  6  0  0  0
  4  8  1  0  0  0  0
  5  4  1  0  0  0  0
  6  8  1  6  0  0  0
  6  1  1  0  0  0  0
  7  1  2  0  0  0  0
  7 10  1  0  0  0  0
 10  9  1  0  0  0  0
 12 18  1  0  0  0  0
 12 11  1  0  0  0  0
 13 16  1  0  0  0  0
 13 19  1  6  0  0  0
 14 20  1  0  0  0  0
 14 18  2  0  0  0  0
 15 17  2  0  0  0  0
 16 15  1  1  0  0  0
 18 16  1  0  0  0  0
 19 17  1  0  0  0  0
 20 21  1  6  0  0  0
 20 13  1  0  0  0  0
 21 23  2  0  0  0  0
 22 21  1  0  0  0  0
 25 24  1  6  0  0  0
 25 22  1  0  0  0  0
 26 25  1  0  0  0  0
 27 26  1  0  0  0  0
 29 30  1  0  0  0  0
 30 28  1  0  0  0  0
 30 27  1  0  0  0  0
 32 37  1  0  0  0  0
 32 41  1  0  0  0  0
 33 32  2  0  0  0  0
 34 31  1  0  0  0  0
 35 34  2  0  0  0  0
 36 35  1  0  0  0  0
 37 34  1  0  0  0  0
 38 33  1  0  0  0  0
 38 36  2  0  0  0  0
 39 33  1  0  0  0  0
 40 39  1  0  0  0  0
 41 42  1  0  0  0  0
 42 43  1  0  0  0  0
M  END
>  <MODEL>
5

>  <REMARK>
 VINA RESULT:      -6.3      3.627      7.324
  Name = 
  13 active torsions:
  status: ('A' for Active; 'I' for Inactive)
    1  A    between atoms: C_2  and  O_18
    2  A    between atoms: O_4  and  C_12
    3  A    between atoms: C_6  and  C_14
    4  A    between atoms: C_6  and  N_25
    5  A    between atoms: C_8  and  O_11
    6  A    between atoms: N_10  and  O_11
    7  A    between atoms: C_13  and  C_41
    8  A    between atoms: C_14  and  C_22
    9  A    between atoms: C_15  and  N_23
   10  A    between atoms: N_17  and  C_22
   11  A    between atoms: O_18  and  C_30
   12  A    between atoms: N_23  and  C_28
   13  A    between atoms: N_26  and  C_38
                            x       y       z     vdW  Elec       q    Type
                         _______ _______ _______ _____ _____    ______ ____

>  <TORSDO>
F 13

$$$$
=
 OpenBabel11042412523D

 43 47  0  0  1  0  0  0  0  0999 V2000
  191.3140  175.4960  138.4010 C   0  0  0  0  0  3  0  0  0  0  0  0
  189.4060  176.3740  137.5290 C   0  0  1  0  0  3  0  0  0  0  0  0
  189.9030  177.3370  138.2950 C   0  0  1  0  0  3  0  0  0  0  0  0
  189.4340  177.3810  140.6670 C   0  0  1  0  0  3  0  0  0  0  0  0
  188.9200  178.4390  139.2710 S   0  0  0  0  0  0  0  0  0  0  0  0
  191.1610  176.8890  138.9360 C   0  0  1  0  0  3  0  0  0  0  0  0
  190.3180  175.2440  137.5660 C   0  0  0  0  0  0  0  0  0  0  0  0
  190.8750  176.9080  140.4370 C   0  0  0  0  0  2  0  0  0  0  0  0
  190.2020  173.8350  135.4680 C   0  0  0  0  0  1  0  0  0  0  0  0
  190.1420  173.9860  136.9100 N   0  0  0  0  0  2  0  0  0  0  0  0
  188.1490  176.3680  136.9190 O   0  0  0  0  0  0  0  0  0  0  0  0
  187.0070  176.6880  137.6190 N   0  0  0  0  0  2  0  0  0  0  0  0
  184.1150  176.8530  135.4150 C   0  0  1  0  0  3  0  0  0  0  0  0
  184.7250  177.3490  137.5780 N   0  0  0  0  0  0  0  0  0  0  0  0
  185.8250  175.4190  134.9360 C   0  0  0  0  0  3  0  0  0  0  0  0
  185.5910  176.7970  135.4680 C   0  0  2  0  0  3  0  0  0  0  0  0
  184.7180  174.8420  134.5960 N   0  0  0  0  0  0  0  0  0  0  0  0
  185.7810  176.9490  136.9420 C   0  0  0  0  0  0  0  0  0  0  0  0
  183.6440  175.7050  134.9380 C   0  0  0  0  0  2  0  0  0  0  0  0
  183.6040  177.5120  136.6600 C   0  0  2  0  0  3  0  0  0  0  0  0
  182.3520  176.8970  137.2190 C   0  0  0  0  0  0  0  0  0  0  0  0
  181.1330  177.6430  137.1890 N   0  0  0  0  0  2  0  0  0  0  0  0
  182.3630  175.7150  137.6600 O   0  0  0  0  0  0  0  0  0  0  0  0
  178.9310  176.8590  136.5640 C   0  0  0  0  0  1  0  0  0  0  0  0
  179.8830  177.1160  137.7160 C   0  0  2  0  0  3  0  0  0  0  0  0
  179.2700  178.1170  138.6820 C   0  0  0  0  0  2  0  0  0  0  0  0
  180.3210  179.1110  139.1430 C   0  0  0  0  0  2  0  0  0  0  0  0
  181.5780  178.6320  141.0450 C   0  0  0  0  0  1  0  0  0  0  0  0
  179.2740  178.3000  141.0640 C   0  0  0  0  0  1  0  0  0  0  0  0
  180.3180  179.1940  140.5930 N   0  0  0  0  0  0  0  0  0  0  0  0
  189.3360  178.1120  141.9230 N   0  0  0  0  0  2  0  0  0  0  0  0
  189.1180  177.3290  145.3830 C   0  0  0  0  0  0  0  0  0  0  0  0
  187.9950  177.6350  146.0530 C   0  0  0  0  0  0  0  0  0  0  0  0
  188.5080  177.6940  143.0140 C   0  0  0  0  0  0  0  0  0  0  0  0
  187.2260  178.0720  143.0810 C   0  0  0  0  0  3  0  0  0  0  0  0
  186.3030  177.7240  144.1750 C   0  0  0  0  0  3  0  0  0  0  0  0
  189.0710  176.7340  144.0050 C   0  0  0  0  0  2  0  0  0  0  0  0
  186.6370  177.5280  145.4570 C   0  0  0  0  0  3  0  0  0  0  0  0
  188.1240  178.0560  147.3820 O   0  0  0  0  0  0  0  0  0  0  0  0
  187.9280  177.1870  148.4900 C   0  0  0  0  0  1  0  0  0  0  0  0
  190.3520  177.5300  146.0150 O   0  0  0  0  0  0  0  0  0  0  0  0
  191.5920  177.1270  145.4500 C   0  0  0  0  0  2  0  0  0  0  0  0
  191.9950  175.9120  146.0080 O   0  0  0  0  0  1  0  0  0  0  0  0
  2 11  1  1  0  0  0
  2  7  1  0  0  0  0
  2  3  1  0  0  0  0
  3  6  1  0  0  0  0
  3  5  1  1  0  0  0
  4 31  1  1  0  0  0
  5  4  1  0  0  0  0
  6  1  1  6  0  0  0
  6  8  1  0  0  0  0
  7  1  2  0  0  0  0
  8  4  1  0  0  0  0
  9 10  1  0  0  0  0
 10  7  1  0  0  0  0
 11 12  1  0  0  0  0
 13 19  1  1  0  0  0
 13 16  1  0  0  0  0
 13 20  1  0  0  0  0
 16 15  1  1  0  0  0
 16 18  1  0  0  0  0
 17 15  2  0  0  0  0
 17 19  1  0  0  0  0
 18 14  2  0  0  0  0
 18 12  1  0  0  0  0
 20 21  1  1  0  0  0
 20 14  1  0  0  0  0
 21 23  2  0  0  0  0
 22 21  1  0  0  0  0
 22 25  1  0  0  0  0
 25 24  1  6  0  0  0
 25 26  1  0  0  0  0
 26 27  1  0  0  0  0
 27 30  1  0  0  0  0
 30 28  1  0  0  0  0
 30 29  1  0  0  0  0
 31 34  1  0  0  0  0
 32 41  1  0  0  0  0
 32 33  2  0  0  0  0
 33 39  1  0  0  0  0
 34 35  2  0  0  0  0
 34 37  1  0  0  0  0
 35 36  1  0  0  0  0
 36 38  2  0  0  0  0
 37 32  1  0  0  0  0
 38 33  1  0  0  0  0
 39 40  1  0  0  0  0
 42 43  1  0  0  0  0
 42 41  1  0  0  0  0
M  END
>  <MODEL>
6

>  <REMARK>
 VINA RESULT:      -6.2      1.556      1.880
  Name = 
  13 active torsions:
  status: ('A' for Active; 'I' for Inactive)
    1  A    between atoms: C_2  and  O_18
    2  A    between atoms: O_4  and  C_12
    3  A    between atoms: C_6  and  C_14
    4  A    between atoms: C_6  and  N_25
    5  A    between atoms: C_8  and  O_11
    6  A    between atoms: N_10  and  O_11
    7  A    between atoms: C_13  and  C_41
    8  A    between atoms: C_14  and  C_22
    9  A    between atoms: C_15  and  N_23
   10  A    between atoms: N_17  and  C_22
   11  A    between atoms: O_18  and  C_30
   12  A    between atoms: N_23  and  C_28
   13  A    between atoms: N_26  and  C_38
                            x       y       z     vdW  Elec       q    Type
                         _______ _______ _______ _____ _____    ______ ____

>  <TORSDO>
F 13

$$$$
=
 OpenBabel11042412523D

 43 47  0  0  1  0  0  0  0  0999 V2000
  190.6290  177.0970  142.0660 C   0  0  0  0  0  3  0  0  0  0  0  0
  188.6140  178.0490  141.6160 C   0  0  1  0  0  3  0  0  0  0  0  0
  188.7890  177.1530  140.6520 C   0  0  1  0  0  3  0  0  0  0  0  0
  190.0590  177.7140  138.6720 C   0  0  1  0  0  3  0  0  0  0  0  0
  188.2870  177.3900  138.9710 S   0  0  0  0  0  0  0  0  0  0  0  0
  190.0840  176.4550  140.8250 C   0  0  1  0  0  3  0  0  0  0  0  0
  189.7480  177.9750  142.5190 C   0  0  0  0  0  0  0  0  0  0  0  0
  190.8980  176.8060  139.5810 C   0  0  0  0  0  2  0  0  0  0  0  0
  190.1570  178.2460  145.0010 C   0  0  0  0  0  1  0  0  0  0  0  0
  189.9770  178.7930  143.6690 N   0  0  0  0  0  2  0  0  0  0  0  0
  187.6060  179.0140  141.6750 O   0  0  0  0  0  0  0  0  0  0  0  0
  186.5530  179.0110  140.7880 N   0  0  0  0  0  2  0  0  0  0  0  0
  183.4160  178.2510  142.4700 C   0  0  1  0  0  3  0  0  0  0  0  0
  184.2750  178.4940  140.3490 N   0  0  0  0  0  0  0  0  0  0  0  0
  185.0710  179.3450  143.5990 C   0  0  0  0  0  3  0  0  0  0  0  0
  184.8880  178.2470  142.6010 C   0  0  2  0  0  3  0  0  0  0  0  0
  183.9380  179.8260  143.9950 N   0  0  0  0  0  0  0  0  0  0  0  0
  185.2520  178.5980  141.1960 C   0  0  0  0  0  0  0  0  0  0  0  0
  182.9030  179.1880  143.2610 C   0  0  0  0  0  2  0  0  0  0  0  0
  183.0510  178.0850  141.0270 C   0  0  2  0  0  3  0  0  0  0  0  0
  181.8810  178.9160  140.5820 C   0  0  0  0  0  0  0  0  0  0  0  0
  182.0580  179.8690  139.5320 N   0  0  0  0  0  2  0  0  0  0  0  0
  180.7400  178.7370  141.0920 O   0  0  0  0  0  0  0  0  0  0  0  0
  180.1010  179.9060  138.1100 C   0  0  0  0  0  1  0  0  0  0  0  0
  180.9730  180.7120  139.0530 C   0  0  2  0  0  3  0  0  0  0  0  0
  181.5440  181.9190  138.3250 C   0  0  0  0  0  2  0  0  0  0  0  0
  180.8090  182.1380  137.0160 C   0  0  0  0  0  2  0  0  0  0  0  0
  181.5600  184.3290  137.2700 C   0  0  0  0  0  1  0  0  0  0  0  0
  179.4020  183.7600  137.9290 C   0  0  0  0  0  1  0  0  0  0  0  0
  180.4050  183.5290  136.9040 N   0  0  0  0  0  0  0  0  0  0  0  0
  190.3910  177.4760  137.2740 N   0  0  0  0  0  2  0  0  0  0  0  0
  193.2810  175.6590  136.2840 C   0  0  0  0  0  0  0  0  0  0  0  0
  193.3500  174.3450  136.5500 C   0  0  0  0  0  0  0  0  0  0  0  0
  190.9310  176.2400  136.7930 C   0  0  0  0  0  0  0  0  0  0  0  0
  190.4000  175.0720  137.1680 C   0  0  0  0  0  3  0  0  0  0  0  0
  190.9000  173.7490  136.7560 C   0  0  0  0  0  3  0  0  0  0  0  0
  192.0170  176.2900  135.7730 C   0  0  0  0  0  2  0  0  0  0  0  0
  192.1740  173.4380  136.4820 C   0  0  0  0  0  3  0  0  0  0  0  0
  194.6010  173.8140  136.8890 O   0  0  0  0  0  0  0  0  0  0  0  0
  195.0370  173.6620  138.2330 C   0  0  0  0  0  1  0  0  0  0  0  0
  194.4350  176.4380  136.4440 O   0  0  0  0  0  0  0  0  0  0  0  0
  195.2410  176.8680  135.3560 C   0  0  0  0  0  2  0  0  0  0  0  0
  195.4340  178.2490  135.4250 O   0  0  0  0  0  1  0  0  0  0  0  0
  1  7  2  0  0  0  0
  2 11  1  6  0  0  0
  2  7  1  0  0  0  0
  3  5  1  6  0  0  0
  3  6  1  0  0  0  0
  3  2  1  0  0  0  0
  4 31  1  6  0  0  0
  4  5  1  0  0  0  0
  4  8  1  0  0  0  0
  6  8  1  6  0  0  0
  6  1  1  0  0  0  0
  7 10  1  0  0  0  0
 10  9  1  0  0  0  0
 12 18  1  0  0  0  0
 12 11  1  0  0  0  0
 13 16  1  0  0  0  0
 13 19  1  6  0  0  0
 14 20  1  0  0  0  0
 14 18  2  0  0  0  0
 15 17  2  0  0  0  0
 16 15  1  1  0  0  0
 18 16  1  0  0  0  0
 19 17  1  0  0  0  0
 20 21  1  6  0  0  0
 20 13  1  0  0  0  0
 21 23  2  0  0  0  0
 22 21  1  0  0  0  0
 25 24  1  6  0  0  0
 25 22  1  0  0  0  0
 26 25  1  0  0  0  0
 27 26  1  0  0  0  0
 30 27  1  0  0  0  0
 30 28  1  0  0  0  0
 30 29  1  0  0  0  0
 32 41  1  0  0  0  0
 32 33  2  0  0  0  0
 33 39  1  0  0  0  0
 34 35  2  0  0  0  0
 34 31  1  0  0  0  0
 36 35  1  0  0  0  0
 37 32  1  0  0  0  0
 37 34  1  0  0  0  0
 38 33  1  0  0  0  0
 38 36  2  0  0  0  0
 39 40  1  0  0  0  0
 42 43  1  0  0  0  0
 42 41  1  0  0  0  0
M  END
>  <MODEL>
7

>  <REMARK>
 VINA RESULT:      -6.0      3.620      7.433
  Name = 
  13 active torsions:
  status: ('A' for Active; 'I' for Inactive)
    1  A    between atoms: C_2  and  O_18
    2  A    between atoms: O_4  and  C_12
    3  A    between atoms: C_6  and  C_14
    4  A    between atoms: C_6  and  N_25
    5  A    between atoms: C_8  and  O_11
    6  A    between atoms: N_10  and  O_11
    7  A    between atoms: C_13  and  C_41
    8  A    between atoms: C_14  and  C_22
    9  A    between atoms: C_15  and  N_23
   10  A    between atoms: N_17  and  C_22
   11  A    between atoms: O_18  and  C_30
   12  A    between atoms: N_23  and  C_28
   13  A    between atoms: N_26  and  C_38
                            x       y       z     vdW  Elec       q    Type
                         _______ _______ _______ _____ _____    ______ ____

>  <TORSDO>
F 13

$$$$
=
 OpenBabel11042412523D

 43 47  0  0  1  0  0  0  0  0999 V2000
  187.6510  176.9880  144.8490 C   0  0  0  0  0  3  0  0  0  0  0  0
  186.4720  178.2450  143.3650 C   0  0  1  0  0  3  0  0  0  0  0  0
  187.1100  177.3490  142.6200 C   0  0  1  0  0  3  0  0  0  0  0  0
  189.3870  177.7440  141.9100 C   0  0  1  0  0  3  0  0  0  0  0  0
  187.7920  177.6890  141.0240 S   0  0  0  0  0  0  0  0  0  0  0  0
  187.9300  176.4580  143.4740 C   0  0  1  0  0  3  0  0  0  0  0  0
  186.7820  177.9820  144.7590 C   0  0  0  0  0  0  0  0  0  0  0  0
  189.3740  176.7030  143.0370 C   0  0  0  0  0  2  0  0  0  0  0  0
  185.0430  178.5170  146.5180 C   0  0  0  0  0  1  0  0  0  0  0  0
  186.3320  178.7360  145.8880 N   0  0  0  0  0  2  0  0  0  0  0  0
  185.7590  179.3510  142.8980 O   0  0  0  0  0  0  0  0  0  0  0  0
  185.2060  179.3730  141.6380 N   0  0  0  0  0  2  0  0  0  0  0  0
  181.7430  178.2540  141.6990 C   0  0  1  0  0  3  0  0  0  0  0  0
  183.4140  178.7620  140.2010 N   0  0  0  0  0  0  0  0  0  0  0  0
  182.6190  179.3280  143.5120 C   0  0  0  0  0  3  0  0  0  0  0  0
  183.0020  178.3270  142.4700 C   0  0  2  0  0  3  0  0  0  0  0  0
  181.3850  179.6960  143.3930 N   0  0  0  0  0  0  0  0  0  0  0  0
  183.9060  178.8410  141.3980 C   0  0  0  0  0  0  0  0  0  0  0  0
  180.8450  179.0730  142.2370 C   0  0  0  0  0  2  0  0  0  0  0  0
  182.0640  178.2110  140.2370 C   0  0  2  0  0  3  0  0  0  0  0  0
  181.1300  179.0090  139.3720 C   0  0  0  0  0  0  0  0  0  0  0  0
  181.6060  180.1980  138.7380 N   0  0  0  0  0  2  0  0  0  0  0  0
  179.9520  178.6050  139.1630 O   0  0  0  0  0  0  0  0  0  0  0  0
  180.8520  180.5230  136.4620 C   0  0  0  0  0  1  0  0  0  0  0  0
  180.7590  181.0230  137.8900 C   0  0  2  0  0  3  0  0  0  0  0  0
  181.2150  182.4710  137.9640 C   0  0  0  0  0  2  0  0  0  0  0  0
  180.0670  183.4010  137.6140 C   0  0  0  0  0  2  0  0  0  0  0  0
  180.8100  184.2180  135.5620 C   0  0  0  0  0  1  0  0  0  0  0  0
  181.8830  184.8640  137.5230 C   0  0  0  0  0  1  0  0  0  0  0  0
  180.5790  184.5860  136.9470 N   0  0  0  0  0  0  0  0  0  0  0  0
  190.4890  177.4830  140.9940 N   0  0  0  0  0  2  0  0  0  0  0  0
  190.8920  175.9330  137.8210 C   0  0  0  0  0  0  0  0  0  0  0  0
  190.0260  176.2240  136.8370 C   0  0  0  0  0  0  0  0  0  0  0  0
  190.3750  177.6030  139.5720 C   0  0  0  0  0  0  0  0  0  0  0  0
  189.3940  178.3290  139.0240 C   0  0  0  0  0  3  0  0  0  0  0  0
  189.1710  178.4870  137.5770 C   0  0  0  0  0  3  0  0  0  0  0  0
  191.4420  177.0020  138.7220 C   0  0  0  0  0  2  0  0  0  0  0  0
  189.4520  177.5800  136.6320 C   0  0  0  0  0  3  0  0  0  0  0  0
  189.6690  175.1940  135.9570 O   0  0  0  0  0  0  0  0  0  0  0  0
  188.3760  175.0840  135.3800 C   0  0  0  0  0  1  0  0  0  0  0  0
  191.3200  174.6080  137.9680 O   0  0  0  0  0  0  0  0  0  0  0  0
  192.5660  174.1320  137.4780 C   0  0  0  0  0  2  0  0  0  0  0  0
  193.5880  175.0050  137.8550 O   0  0  0  0  0  1  0  0  0  0  0  0
  2 11  1  6  0  0  0
  2  7  1  0  0  0  0
  3  5  1  6  0  0  0
  3  2  1  0  0  0  0
  3  6  1  0  0  0  0
  4 31  1  6  0  0  0
  4  8  1  0  0  0  0
  5  4  1  0  0  0  0
  6  8  1  6  0  0  0
  6  1  1  0  0  0  0
  7  1  2  0  0  0  0
  7 10  1  0  0  0  0
 10  9  1  0  0  0  0
 12 11  1  0  0  0  0
 13 19  1  6  0  0  0
 13 16  1  0  0  0  0
 14 20  1  0  0  0  0
 14 18  2  0  0  0  0
 16 15  1  1  0  0  0
 17 15  2  0  0  0  0
 18 12  1  0  0  0  0
 18 16  1  0  0  0  0
 19 17  1  0  0  0  0
 20 21  1  6  0  0  0
 20 13  1  0  0  0  0
 22 21  1  0  0  0  0
 23 21  2  0  0  0  0
 25 24  1  6  0  0  0
 25 26  1  0  0  0  0
 25 22  1  0  0  0  0
 27 26  1  0  0  0  0
 28 30  1  0  0  0  0
 30 29  1  0  0  0  0
 30 27  1  0  0  0  0
 32 41  1  0  0  0  0
 32 37  1  0  0  0  0
 33 32  2  0  0  0  0
 34 31  1  0  0  0  0
 35 34  2  0  0  0  0
 36 35  1  0  0  0  0
 37 34  1  0  0  0  0
 38 33  1  0  0  0  0
 38 36  2  0  0  0  0
 39 33  1  0  0  0  0
 40 39  1  0  0  0  0
 42 43  1  0  0  0  0
 42 41  1  0  0  0  0
M  END
>  <MODEL>
8

>  <REMARK>
 VINA RESULT:      -6.0      3.264      7.332
  Name = 
  13 active torsions:
  status: ('A' for Active; 'I' for Inactive)
    1  A    between atoms: C_2  and  O_18
    2  A    between atoms: O_4  and  C_12
    3  A    between atoms: C_6  and  C_14
    4  A    between atoms: C_6  and  N_25
    5  A    between atoms: C_8  and  O_11
    6  A    between atoms: N_10  and  O_11
    7  A    between atoms: C_13  and  C_41
    8  A    between atoms: C_14  and  C_22
    9  A    between atoms: C_15  and  N_23
   10  A    between atoms: N_17  and  C_22
   11  A    between atoms: O_18  and  C_30
   12  A    between atoms: N_23  and  C_28
   13  A    between atoms: N_26  and  C_38
                            x       y       z     vdW  Elec       q    Type
                         _______ _______ _______ _____ _____    ______ ____

>  <TORSDO>
F 13

$$$$
=
 OpenBabel11042412523D

 43 47  0  0  1  0  0  0  0  0999 V2000
  181.3080  178.9880  143.3480 C   0  0  0  0  0  3  0  0  0  0  0  0
  182.8030  178.6380  141.6710 C   0  0  1  0  0  3  0  0  0  0  0  0
  183.3870  178.1420  142.7560 C   0  0  1  0  0  3  0  0  0  0  0  0
  184.6340  179.5840  144.2430 C   0  0  1  0  0  3  0  0  0  0  0  0
  185.1210  178.2550  143.0910 S   0  0  0  0  0  0  0  0  0  0  0  0
  182.5100  178.3130  143.9380 C   0  0  1  0  0  3  0  0  0  0  0  0
  181.4860  179.1230  142.0430 C   0  0  0  0  0  0  0  0  0  0  0  0
  183.2870  179.2270  144.8840 C   0  0  0  0  0  2  0  0  0  0  0  0
  179.4060  180.5190  141.6870 C   0  0  0  0  0  1  0  0  0  0  0  0
  180.5420  179.7670  141.1850 N   0  0  0  0  0  2  0  0  0  0  0  0
  183.3990  178.8190  140.4210 O   0  0  0  0  0  0  0  0  0  0  0  0
  183.4200  177.8140  139.4800 N   0  0  0  0  0  2  0  0  0  0  0  0
  186.4700  177.9260  137.4990 C   0  0  1  0  0  3  0  0  0  0  0  0
  184.4260  176.8710  137.5450 N   0  0  0  0  0  0  0  0  0  0  0  0
  186.5040  178.6260  139.6700 C   0  0  0  0  0  3  0  0  0  0  0  0
  185.6270  178.6670  138.4590 C   0  0  2  0  0  3  0  0  0  0  0  0
  187.6300  178.0400  139.4270 N   0  0  0  0  0  0  0  0  0  0  0  0
  184.4490  177.7500  138.4970 C   0  0  0  0  0  0  0  0  0  0  0  0
  187.6000  177.5550  138.0930 C   0  0  0  0  0  2  0  0  0  0  0  0
  185.6050  177.0020  136.6980 C   0  0  2  0  0  3  0  0  0  0  0  0
  186.2230  175.6610  136.4160 C   0  0  0  0  0  0  0  0  0  0  0  0
  187.5760  175.5950  135.9630 N   0  0  0  0  0  2  0  0  0  0  0  0
  185.5710  174.6010  136.6310 O   0  0  0  0  0  0  0  0  0  0  0  0
  188.0640  173.3950  136.8450 C   0  0  0  0  0  1  0  0  0  0  0  0
  188.2380  174.3340  135.6670 C   0  0  2  0  0  3  0  0  0  0  0  0
  189.7170  174.5780  135.4140 C   0  0  0  0  0  2  0  0  0  0  0  0
  190.4420  174.8140  136.7260 C   0  0  0  0  0  2  0  0  0  0  0  0
  192.4090  175.9430  136.1890 C   0  0  0  0  0  1  0  0  0  0  0  0
  191.2210  176.5310  138.1020 C   0  0  0  0  0  1  0  0  0  0  0  0
  191.0680  176.1250  136.7150 N   0  0  0  0  0  0  0  0  0  0  0  0
  185.6500  179.7650  145.2710 N   0  0  0  0  0  2  0  0  0  0  0  0
  188.3690  177.5030  144.9130 C   0  0  0  0  0  0  0  0  0  0  0  0
  189.0600  177.1330  146.0030 C   0  0  0  0  0  0  0  0  0  0  0  0
  186.4000  178.6830  145.8360 C   0  0  0  0  0  0  0  0  0  0  0  0
  186.5810  178.5950  147.1580 C   0  0  0  0  0  3  0  0  0  0  0  0
  187.3610  177.5430  147.8320 C   0  0  0  0  0  3  0  0  0  0  0  0
  186.8700  177.5970  144.9290 C   0  0  0  0  0  2  0  0  0  0  0  0
  188.4270  176.9060  147.3290 C   0  0  0  0  0  3  0  0  0  0  0  0
  190.4390  176.9380  145.8640 O   0  0  0  0  0  0  0  0  0  0  0  0
  191.3030  176.7180  146.9700 C   0  0  0  0  0  1  0  0  0  0  0  0
  189.0710  177.7560  143.7270 O   0  0  0  0  0  0  0  0  0  0  0  0
  188.9980  176.9160  142.5840 C   0  0  0  0  0  2  0  0  0  0  0  0
  189.4710  175.6420  142.9000 O   0  0  0  0  0  1  0  0  0  0  0  0
  2 11  1  1  0  0  0
  2  7  1  0  0  0  0
  2  3  1  0  0  0  0
  3  5  1  1  0  0  0
  3  6  1  0  0  0  0
  4  8  1  0  0  0  0
  4 31  1  1  0  0  0
  5  4  1  0  0  0  0
  6  1  1  6  0  0  0
  6  8  1  0  0  0  0
  7  1  2  0  0  0  0
 10  9  1  0  0  0  0
 10  7  1  0  0  0  0
 12 11  1  0  0  0  0
 13 19  1  1  0  0  0
 13 16  1  0  0  0  0
 14 18  2  0  0  0  0
 16 18  1  0  0  0  0
 16 15  1  1  0  0  0
 17 15  2  0  0  0  0
 18 12  1  0  0  0  0
 19 17  1  0  0  0  0
 20 21  1  1  0  0  0
 20 13  1  0  0  0  0
 20 14  1  0  0  0  0
 21 23  2  0  0  0  0
 22 21  1  0  0  0  0
 25 22  1  0  0  0  0
 25 24  1  1  0  0  0
 26 25  1  0  0  0  0
 26 27  1  0  0  0  0
 28 30  1  0  0  0  0
 30 27  1  0  0  0  0
 30 29  1  0  0  0  0
 31 34  1  0  0  0  0
 32 37  1  0  0  0  0
 32 33  2  0  0  0  0
 33 38  1  0  0  0  0
 34 35  2  0  0  0  0
 35 36  1  0  0  0  0
 37 34  1  0  0  0  0
 38 36  2  0  0  0  0
 39 33  1  0  0  0  0
 39 40  1  0  0  0  0
 41 32  1  0  0  0  0
 42 43  1  0  0  0  0
 42 41  1  0  0  0  0
M  END
>  <MODEL>
9

>  <REMARK>
 VINA RESULT:      -5.9      2.439      6.881
  Name = 
  13 active torsions:
  status: ('A' for Active; 'I' for Inactive)
    1  A    between atoms: C_2  and  O_18
    2  A    between atoms: O_4  and  C_12
    3  A    between atoms: C_6  and  C_14
    4  A    between atoms: C_6  and  N_25
    5  A    between atoms: C_8  and  O_11
    6  A    between atoms: N_10  and  O_11
    7  A    between atoms: C_13  and  C_41
    8  A    between atoms: C_14  and  C_22
    9  A    between atoms: C_15  and  N_23
   10  A    between atoms: N_17  and  C_22
   11  A    between atoms: O_18  and  C_30
   12  A    between atoms: N_23  and  C_28
   13  A    between atoms: N_26  and  C_38
                            x       y       z     vdW  Elec       q    Type
                         _______ _______ _______ _____ _____    ______ ____

>  <TORSDO>
F 13

$$$$
