=
 OpenBabel11042410553D

 26 27  0  0  1  0  0  0  0  0999 V2000
  188.0710  177.5880  145.1060 C   0  0  0  0  0  0  0  0  0  0  0  0
  189.9910  176.9200  146.3880 N   0  0  0  0  0  0  0  0  0  0  0  0
  187.4690  177.7750  143.8580 C   0  0  0  0  0  3  0  0  0  0  0  0
  190.1110  176.8430  143.9890 C   0  0  0  0  0  0  0  0  0  0  0  0
  191.4270  176.3730  144.0920 C   0  0  0  0  0  3  0  0  0  0  0  0
  188.1750  177.5050  142.6850 C   0  0  0  0  0  3  0  0  0  0  0  0
  189.3940  177.1170  145.1790 C   0  0  0  0  0  0  0  0  0  0  0  0
  189.4980  177.0430  142.7360 C   0  0  0  0  0  0  0  0  0  0  0  0
  192.0090  176.1820  145.3450 C   0  0  0  0  0  3  0  0  0  0  0  0
  191.2680  176.4640  146.4930 C   0  0  0  0  0  0  0  0  0  0  0  0
  191.8750  176.2660  147.8340 C   0  0  0  0  0  1  0  0  0  0  0  0
  191.3590  177.5620  141.3440 O   0  0  0  0  0  1  0  0  0  0  0  0
  190.2310  176.7480  141.4580 C   0  0  2  0  0  3  0  0  0  0  0  0
  189.3160  176.9470  140.2620 C   0  0  0  0  0  2  0  0  0  0  0  0
  189.8970  177.8480  139.3660 O   0  0  0  0  0  0  0  0  0  0  0  0
  187.1970  178.4630  139.1510 O   0  0  0  0  0  1  0  0  0  0  0  0
  188.9970  179.6030  137.6280 O   0  0  0  0  0  1  0  0  0  0  0  0
  188.6520  178.2950  138.3050 P   0  0  0  0  0  0  0  0  0  0  0  0
  188.4730  177.0940  137.1290 O   0  0  0  0  0  0  0  0  0  0  0  0
  187.2780  177.8720  146.3400 C   0  0  0  0  0  2  0  0  0  0  0  0
  185.8220  177.8440  146.0310 C   0  0  0  0  0  3  0  0  0  0  0  0
  185.1600  178.9780  145.8650 C   0  0  0  0  0  3  0  0  0  0  0  0
  183.7640  178.9520  145.5690 N   0  0  0  0  0  2  0  0  0  0  0  0
  183.2430  178.9630  144.2360 C   0  0  0  0  0  0  0  0  0  0  0  0
  181.9400  178.8720  143.9960 C   0  0  0  0  0  2  0  0  0  0  0  0
  184.1830  179.0810  143.0900 C   0  0  0  0  0  1  0  0  0  0  0  0
  1  7  1  0  0  0  0
  1 20  1  0  0  0  0
  2 10  1  0  0  0  0
  3  1  2  0  0  0  0
  4  5  2  0  0  0  0
  4  7  1  0  0  0  0
  5  9  1  0  0  0  0
  6  8  2  0  0  0  0
  6  3  1  0  0  0  0
  7  2  2  0  0  0  0
  8  4  1  0  0  0  0
  9 10  2  0  0  0  0
 10 11  1  0  0  0  0
 13 12  1  6  0  0  0
 13  8  1  0  0  0  0
 14 13  1  0  0  0  0
 15 14  1  0  0  0  0
 17 18  1  0  0  0  0
 18 16  1  0  0  0  0
 18 15  1  0  0  0  0
 19 18  2  0  0  0  0
 21 20  1  0  0  0  0
 22 21  2  0  0  0  0
 23 22  1  0  0  0  0
 24 23  1  0  0  0  0
 25 24  2  0  0  0  0
 26 24  1  0  0  0  0
M  END
>  <MODEL>
1

>  <REMARK>
 VINA RESULT:      -8.5      0.000      0.000
  Name = 
  8 active torsions:
  status: ('A' for Active; 'I' for Inactive)
    1  A    between atoms: C_1  and  C_13
    2  A    between atoms: N_4  and  C_7
    3  A    between atoms: N_4  and  C_17
    4  A    between atoms: C_8  and  C_13
    5  A    between atoms: O_9  and  C_11
    6  A    between atoms: O_9  and  P_23
    7  A    between atoms: C_11  and  C_20
    8  A    between atoms: C_19  and  C_20
                            x       y       z     vdW  Elec       q    Type
                         _______ _______ _______ _____ _____    ______ ____

>  <TORSDO>
F 8

$$$$
=
 OpenBabel11042410553D

 26 27  0  0  1  0  0  0  0  0999 V2000
  185.7760  178.3350  144.6840 C   0  0  0  0  0  0  0  0  0  0  0  0
  186.9780  178.0810  146.7500 N   0  0  0  0  0  0  0  0  0  0  0  0
  185.7650  178.2630  143.2880 C   0  0  0  0  0  3  0  0  0  0  0  0
  188.1220  177.6550  144.6800 C   0  0  0  0  0  0  0  0  0  0  0  0
  189.2810  177.3520  145.4080 C   0  0  0  0  0  3  0  0  0  0  0  0
  186.9160  177.8970  142.5890 C   0  0  0  0  0  3  0  0  0  0  0  0
  186.9540  178.0270  145.3880 C   0  0  0  0  0  0  0  0  0  0  0  0
  188.1020  177.5950  143.2720 C   0  0  0  0  0  0  0  0  0  0  0  0
  189.2720  177.4180  146.8010 C   0  0  0  0  0  3  0  0  0  0  0  0
  188.1000  177.7890  147.4610 C   0  0  0  0  0  0  0  0  0  0  0  0
  188.0770  177.8630  148.9450 C   0  0  0  0  0  1  0  0  0  0  0  0
  190.3260  178.1540  142.6280 O   0  0  0  0  0  1  0  0  0  0  0  0
  189.3240  177.1910  142.4960 C   0  0  2  0  0  3  0  0  0  0  0  0
  188.9800  176.9890  141.0300 C   0  0  0  0  0  2  0  0  0  0  0  0
  189.4790  178.0550  140.2760 O   0  0  0  0  0  0  0  0  0  0  0  0
  188.5610  176.6430  138.0660 O   0  0  0  0  0  1  0  0  0  0  0  0
  187.0750  178.4280  139.2770 O   0  0  0  0  0  1  0  0  0  0  0  0
  188.5040  178.1200  138.8890 P   0  0  0  0  0  0  0  0  0  0  0  0
  189.0770  179.3430  137.8710 O   0  0  0  0  0  0  0  0  0  0  0  0
  184.5200  178.7140  145.3980 C   0  0  0  0  0  2  0  0  0  0  0  0
  183.5540  179.3270  144.4460 C   0  0  0  0  0  3  0  0  0  0  0  0
  182.4040  178.7240  144.1900 C   0  0  0  0  0  3  0  0  0  0  0  0
  181.4790  179.3130  143.2760 N   0  0  0  0  0  2  0  0  0  0  0  0
  181.1560  178.7370  142.0060 C   0  0  0  0  0  0  0  0  0  0  0  0
  179.9110  178.4000  141.6910 C   0  0  0  0  0  2  0  0  0  0  0  0
  182.2400  178.5120  141.0150 C   0  0  0  0  0  1  0  0  0  0  0  0
  1  7  1  0  0  0  0
  1 20  1  0  0  0  0
  2 10  1  0  0  0  0
  3  1  2  0  0  0  0
  4  7  1  0  0  0  0
  4  5  2  0  0  0  0
  5  9  1  0  0  0  0
  6  8  2  0  0  0  0
  6  3  1  0  0  0  0
  7  2  2  0  0  0  0
  8  4  1  0  0  0  0
  9 10  2  0  0  0  0
 10 11  1  0  0  0  0
 13 12  1  6  0  0  0
 13  8  1  0  0  0  0
 14 13  1  0  0  0  0
 15 14  1  0  0  0  0
 16 18  1  0  0  0  0
 18 17  1  0  0  0  0
 18 15  1  0  0  0  0
 19 18  2  0  0  0  0
 21 20  1  0  0  0  0
 22 21  2  0  0  0  0
 23 22  1  0  0  0  0
 24 23  1  0  0  0  0
 25 24  2  0  0  0  0
 26 24  1  0  0  0  0
M  END
>  <MODEL>
2

>  <REMARK>
 VINA RESULT:      -8.3      1.669      2.636
  Name = 
  8 active torsions:
  status: ('A' for Active; 'I' for Inactive)
    1  A    between atoms: C_1  and  C_13
    2  A    between atoms: N_4  and  C_7
    3  A    between atoms: N_4  and  C_17
    4  A    between atoms: C_8  and  C_13
    5  A    between atoms: O_9  and  C_11
    6  A    between atoms: O_9  and  P_23
    7  A    between atoms: C_11  and  C_20
    8  A    between atoms: C_19  and  C_20
                            x       y       z     vdW  Elec       q    Type
                         _______ _______ _______ _____ _____    ______ ____

>  <TORSDO>
F 8

$$$$
=
 OpenBabel11042410553D

 26 27  0  0  1  0  0  0  0  0999 V2000
  186.4810  178.0000  144.2560 C   0  0  0  0  0  0  0  0  0  0  0  0
  187.5450  177.8750  146.4080 N   0  0  0  0  0  0  0  0  0  0  0  0
  186.5680  177.8730  142.8670 C   0  0  0  0  0  3  0  0  0  0  0  0
  188.8440  177.4130  144.4400 C   0  0  0  0  0  0  0  0  0  0  0  0
  189.9600  177.1850  145.2570 C   0  0  0  0  0  3  0  0  0  0  0  0
  187.7770  177.5250  142.2630 C   0  0  0  0  0  3  0  0  0  0  0  0
  187.6170  177.7660  145.0510 C   0  0  0  0  0  0  0  0  0  0  0  0
  188.9240  177.2970  143.0380 C   0  0  0  0  0  0  0  0  0  0  0  0
  189.8520  177.3050  146.6420 C   0  0  0  0  0  3  0  0  0  0  0  0
  188.6240  177.6550  147.2050 C   0  0  0  0  0  0  0  0  0  0  0  0
  188.4960  177.7870  148.6790 C   0  0  0  0  0  1  0  0  0  0  0  0
  191.1860  177.8850  142.5800 O   0  0  0  0  0  1  0  0  0  0  0  0
  190.2100  176.9110  142.3630 C   0  0  2  0  0  3  0  0  0  0  0  0
  189.9910  176.7100  140.8740 C   0  0  0  0  0  2  0  0  0  0  0  0
  190.4080  177.8470  140.1760 O   0  0  0  0  0  0  0  0  0  0  0  0
  189.0890  179.3240  138.2280 O   0  0  0  0  0  1  0  0  0  0  0  0
  190.5340  177.2250  137.6250 O   0  0  0  0  0  0  0  0  0  0  0  0
  189.6060  177.7790  138.6830 P   0  0  0  0  0  0  0  0  0  0  0  0
  188.2610  176.7650  138.8260 O   0  0  0  0  0  1  0  0  0  0  0  0
  185.1650  178.3570  144.8670 C   0  0  0  0  0  2  0  0  0  0  0  0
  184.1600  178.6240  143.8010 C   0  0  0  0  0  3  0  0  0  0  0  0
  182.9180  178.9420  144.1280 C   0  0  0  0  0  3  0  0  0  0  0  0
  181.9550  179.1970  143.1060 N   0  0  0  0  0  2  0  0  0  0  0  0
  180.5420  179.1780  143.3360 C   0  0  0  0  0  0  0  0  0  0  0  0
  179.9740  178.2560  144.1050 C   0  0  0  0  0  2  0  0  0  0  0  0
  179.6890  180.2140  142.6980 C   0  0  0  0  0  1  0  0  0  0  0  0
  1 20  1  0  0  0  0
  1  7  1  0  0  0  0
  2 10  1  0  0  0  0
  3  1  2  0  0  0  0
  4  7  1  0  0  0  0
  4  5  2  0  0  0  0
  5  9  1  0  0  0  0
  6  3  1  0  0  0  0
  6  8  2  0  0  0  0
  7  2  2  0  0  0  0
  8  4  1  0  0  0  0
  9 10  2  0  0  0  0
 10 11  1  0  0  0  0
 13 12  1  6  0  0  0
 13  8  1  0  0  0  0
 14 13  1  0  0  0  0
 15 14  1  0  0  0  0
 16 18  1  0  0  0  0
 17 18  2  0  0  0  0
 18 19  1  0  0  0  0
 18 15  1  0  0  0  0
 21 22  2  0  0  0  0
 21 20  1  0  0  0  0
 23 24  1  0  0  0  0
 23 22  1  0  0  0  0
 24 25  2  0  0  0  0
 26 24  1  0  0  0  0
M  END
>  <MODEL>
3

>  <REMARK>
 VINA RESULT:      -8.1      1.561      2.340
  Name = 
  8 active torsions:
  status: ('A' for Active; 'I' for Inactive)
    1  A    between atoms: C_1  and  C_13
    2  A    between atoms: N_4  and  C_7
    3  A    between atoms: N_4  and  C_17
    4  A    between atoms: C_8  and  C_13
    5  A    between atoms: O_9  and  C_11
    6  A    between atoms: O_9  and  P_23
    7  A    between atoms: C_11  and  C_20
    8  A    between atoms: C_19  and  C_20
                            x       y       z     vdW  Elec       q    Type
                         _______ _______ _______ _____ _____    ______ ____

>  <TORSDO>
F 8

$$$$
=
 OpenBabel11042410553D

 26 27  0  0  1  0  0  0  0  0999 V2000
  187.6780  177.2950  143.8460 C   0  0  0  0  0  0  0  0  0  0  0  0
  188.1560  177.5570  146.1870 N   0  0  0  0  0  0  0  0  0  0  0  0
  186.8170  177.5150  142.7670 C   0  0  0  0  0  3  0  0  0  0  0  0
  186.0930  178.4290  145.3170 C   0  0  0  0  0  0  0  0  0  0  0  0
  185.7650  178.8770  146.6040 C   0  0  0  0  0  3  0  0  0  0  0  0
  185.6040  178.1800  142.9540 C   0  0  0  0  0  3  0  0  0  0  0  0
  187.3230  177.7550  145.1260 C   0  0  0  0  0  0  0  0  0  0  0  0
  185.2280  178.6380  144.2250 C   0  0  0  0  0  0  0  0  0  0  0  0
  186.6410  178.6580  147.6680 C   0  0  0  0  0  3  0  0  0  0  0  0
  187.8430  177.9890  147.4370 C   0  0  0  0  0  0  0  0  0  0  0  0
  188.7850  177.7490  148.5610 C   0  0  0  0  0  1  0  0  0  0  0  0
  183.3700  179.0810  145.6470 O   0  0  0  0  0  1  0  0  0  0  0  0
  183.9220  179.3610  144.3960 C   0  0  2  0  0  3  0  0  0  0  0  0
  182.9500  178.9740  143.2950 C   0  0  0  0  0  2  0  0  0  0  0  0
  181.6840  178.7460  143.8390 O   0  0  0  0  0  0  0  0  0  0  0  0
  180.0350  180.7490  142.8470 O   0  0  0  0  0  1  0  0  0  0  0  0
  181.2510  179.0530  141.2640 O   0  0  0  0  0  0  0  0  0  0  0  0
  180.5850  179.1660  142.6180 P   0  0  0  0  0  0  0  0  0  0  0  0
  179.2670  178.1080  142.6760 O   0  0  0  0  0  1  0  0  0  0  0  0
  188.9750  176.5950  143.6030 C   0  0  0  0  0  2  0  0  0  0  0  0
  189.3650  176.7200  142.1720 C   0  0  0  0  0  3  0  0  0  0  0  0
  190.5150  177.2890  141.8470 C   0  0  0  0  0  3  0  0  0  0  0  0
  190.8880  177.4100  140.4750 N   0  0  0  0  0  2  0  0  0  0  0  0
  189.9450  177.3750  139.3990 C   0  0  0  0  0  0  0  0  0  0  0  0
  189.9340  176.3840  138.5140 C   0  0  0  0  0  2  0  0  0  0  0  0
  188.9530  178.4740  139.2670 C   0  0  0  0  0  1  0  0  0  0  0  0
  1  7  1  0  0  0  0
  2 10  1  0  0  0  0
  3  6  1  0  0  0  0
  3  1  2  0  0  0  0
  4  5  2  0  0  0  0
  5  9  1  0  0  0  0
  6  8  2  0  0  0  0
  7  4  1  0  0  0  0
  7  2  2  0  0  0  0
  8 13  1  0  0  0  0
  8  4  1  0  0  0  0
 10  9  2  0  0  0  0
 10 11  1  0  0  0  0
 13 12  1  1  0  0  0
 14 15  1  0  0  0  0
 14 13  1  0  0  0  0
 17 18  2  0  0  0  0
 18 19  1  0  0  0  0
 18 16  1  0  0  0  0
 18 15  1  0  0  0  0
 20  1  1  0  0  0  0
 21 20  1  0  0  0  0
 22 21  2  0  0  0  0
 23 22  1  0  0  0  0
 24 23  1  0  0  0  0
 25 24  2  0  0  0  0
 26 24  1  0  0  0  0
M  END
>  <MODEL>
4

>  <REMARK>
 VINA RESULT:      -7.9      4.474      6.730
  Name = 
  8 active torsions:
  status: ('A' for Active; 'I' for Inactive)
    1  A    between atoms: C_1  and  C_13
    2  A    between atoms: N_4  and  C_7
    3  A    between atoms: N_4  and  C_17
    4  A    between atoms: C_8  and  C_13
    5  A    between atoms: O_9  and  C_11
    6  A    between atoms: O_9  and  P_23
    7  A    between atoms: C_11  and  C_20
    8  A    between atoms: C_19  and  C_20
                            x       y       z     vdW  Elec       q    Type
                         _______ _______ _______ _____ _____    ______ ____

>  <TORSDO>
F 8

$$$$
=
 OpenBabel11042410553D

 26 27  0  0  1  0  0  0  0  0999 V2000
  187.1190  178.1010  143.0840 C   0  0  0  0  0  0  0  0  0  0  0  0
  184.8190  178.5560  143.6160 N   0  0  0  0  0  0  0  0  0  0  0  0
  188.4090  177.7820  143.5190 C   0  0  0  0  0  3  0  0  0  0  0  0
  186.3570  178.0950  145.4040 C   0  0  0  0  0  0  0  0  0  0  0  0
  185.3060  178.2530  146.3180 C   0  0  0  0  0  3  0  0  0  0  0  0
  188.6780  177.6240  144.8790 C   0  0  0  0  0  3  0  0  0  0  0  0
  186.0850  178.2550  144.0240 C   0  0  0  0  0  0  0  0  0  0  0  0
  187.6620  177.7820  145.8330 C   0  0  0  0  0  0  0  0  0  0  0  0
  184.0230  178.5610  145.8670 C   0  0  0  0  0  3  0  0  0  0  0  0
  183.7970  178.7110  144.4980 C   0  0  0  0  0  0  0  0  0  0  0  0
  182.4350  179.0390  144.0040 C   0  0  0  0  0  1  0  0  0  0  0  0
  187.4140  178.6220  148.0470 O   0  0  0  0  0  1  0  0  0  0  0  0
  187.9760  177.5940  147.2890 C   0  0  2  0  0  3  0  0  0  0  0  0
  189.4790  177.5430  147.5080 C   0  0  0  0  0  2  0  0  0  0  0  0
  189.9370  176.2330  147.3440 O   0  0  0  0  0  0  0  0  0  0  0  0
  192.2400  177.2490  148.5190 O   0  0  0  0  0  1  0  0  0  0  0  0
  192.2440  174.9790  147.2140 O   0  0  0  0  0  1  0  0  0  0  0  0
  191.6250  176.3580  147.2200 P   0  0  0  0  0  0  0  0  0  0  0  0
  192.0130  177.1460  145.7750 O   0  0  0  0  0  0  0  0  0  0  0  0
  186.8660  178.2460  141.6190 C   0  0  0  0  0  2  0  0  0  0  0  0
  188.1410  178.5230  140.9030 C   0  0  0  0  0  3  0  0  0  0  0  0
  188.5820  177.6760  139.9870 C   0  0  0  0  0  3  0  0  0  0  0  0
  189.8060  177.9410  139.3010 N   0  0  0  0  0  2  0  0  0  0  0  0
  191.0060  177.1920  139.5170 C   0  0  0  0  0  0  0  0  0  0  0  0
  191.3820  176.2240  138.6880 C   0  0  0  0  0  2  0  0  0  0  0  0
  191.8530  177.5030  140.6980 C   0  0  0  0  0  1  0  0  0  0  0  0
  1  3  2  0  0  0  0
  1  7  1  0  0  0  0
  2  7  2  0  0  0  0
  2 10  1  0  0  0  0
  3  6  1  0  0  0  0
  4  8  1  0  0  0  0
  4  5  2  0  0  0  0
  6  8  2  0  0  0  0
  7  4  1  0  0  0  0
  8 13  1  0  0  0  0
  9  5  1  0  0  0  0
 10  9  2  0  0  0  0
 11 10  1  0  0  0  0
 13 14  1  0  0  0  0
 13 12  1  1  0  0  0
 15 14  1  0  0  0  0
 17 18  1  0  0  0  0
 18 15  1  0  0  0  0
 18 16  1  0  0  0  0
 19 18  2  0  0  0  0
 20  1  1  0  0  0  0
 21 20  1  0  0  0  0
 22 21  2  0  0  0  0
 23 24  1  0  0  0  0
 23 22  1  0  0  0  0
 24 26  1  0  0  0  0
 25 24  2  0  0  0  0
M  END
>  <MODEL>
5

>  <REMARK>
 VINA RESULT:      -7.9      4.350      7.545
  Name = 
  8 active torsions:
  status: ('A' for Active; 'I' for Inactive)
    1  A    between atoms: C_1  and  C_13
    2  A    between atoms: N_4  and  C_7
    3  A    between atoms: N_4  and  C_17
    4  A    between atoms: C_8  and  C_13
    5  A    between atoms: O_9  and  C_11
    6  A    between atoms: O_9  and  P_23
    7  A    between atoms: C_11  and  C_20
    8  A    between atoms: C_19  and  C_20
                            x       y       z     vdW  Elec       q    Type
                         _______ _______ _______ _____ _____    ______ ____

>  <TORSDO>
F 8

$$$$
=
 OpenBabel11042410553D

 26 27  0  0  1  0  0  0  0  0999 V2000
  183.8830  178.7790  143.7790 C   0  0  0  0  0  0  0  0  0  0  0  0
  181.4910  178.9180  143.9700 N   0  0  0  0  0  0  0  0  0  0  0  0
  185.0150  178.6420  142.9700 C   0  0  0  0  0  3  0  0  0  0  0  0
  182.4680  178.6200  141.7950 C   0  0  0  0  0  0  0  0  0  0  0  0
  181.1810  178.6190  141.2410 C   0  0  0  0  0  3  0  0  0  0  0  0
  184.8820  178.4900  141.5890 C   0  0  0  0  0  3  0  0  0  0  0  0
  182.6040  178.7740  143.1960 C   0  0  0  0  0  0  0  0  0  0  0  0
  183.6150  178.4720  140.9890 C   0  0  0  0  0  0  0  0  0  0  0  0
  180.0630  178.7690  142.0620 C   0  0  0  0  0  3  0  0  0  0  0  0
  180.2400  178.9180  143.4380 C   0  0  0  0  0  0  0  0  0  0  0  0
  179.0580  179.0770  144.3240 C   0  0  0  0  0  1  0  0  0  0  0  0
  183.2380  176.9910  139.1630 O   0  0  0  0  0  1  0  0  0  0  0  0
  183.5010  178.3200  139.4990 C   0  0  2  0  0  3  0  0  0  0  0  0
  184.7740  178.7920  138.8170 C   0  0  0  0  0  2  0  0  0  0  0  0
  185.2450  177.7990  137.9550 O   0  0  0  0  0  0  0  0  0  0  0  0
  187.6850  176.5600  137.4750 O   0  0  0  0  0  1  0  0  0  0  0  0
  187.2780  179.0790  136.8860 O   0  0  0  0  0  0  0  0  0  0  0  0
  186.9270  178.0120  137.8980 P   0  0  0  0  0  0  0  0  0  0  0  0
  187.4720  178.4960  139.4240 O   0  0  0  0  0  1  0  0  0  0  0  0
  184.0660  178.9570  145.2510 C   0  0  0  0  0  2  0  0  0  0  0  0
  185.5130  178.9220  145.5960 C   0  0  0  0  0  3  0  0  0  0  0  0
  186.0250  177.8600  146.1970 C   0  0  0  0  0  3  0  0  0  0  0  0
  187.4130  177.8270  146.5280 N   0  0  0  0  0  2  0  0  0  0  0  0
  188.4370  177.4950  145.5850 C   0  0  0  0  0  0  0  0  0  0  0  0
  189.7220  177.7080  145.8490 C   0  0  0  0  0  2  0  0  0  0  0  0
  188.0560  176.8970  144.2790 C   0  0  0  0  0  1  0  0  0  0  0  0
  1 20  1  0  0  0  0
  3  1  2  0  0  0  0
  4  7  1  0  0  0  0
  5  4  2  0  0  0  0
  5  9  1  0  0  0  0
  6  3  1  0  0  0  0
  7  1  1  0  0  0  0
  7  2  2  0  0  0  0
  8  6  2  0  0  0  0
  8  4  1  0  0  0  0
  9 10  2  0  0  0  0
 10  2  1  0  0  0  0
 10 11  1  0  0  0  0
 13 12  1  1  0  0  0
 13  8  1  0  0  0  0
 14 13  1  0  0  0  0
 15 14  1  0  0  0  0
 16 18  1  0  0  0  0
 17 18  2  0  0  0  0
 18 15  1  0  0  0  0
 18 19  1  0  0  0  0
 20 21  1  0  0  0  0
 21 22  2  0  0  0  0
 22 23  1  0  0  0  0
 24 25  2  0  0  0  0
 24 23  1  0  0  0  0
 26 24  1  0  0  0  0
M  END
>  <MODEL>
6

>  <REMARK>
 VINA RESULT:      -7.6      2.227      6.866
  Name = 
  8 active torsions:
  status: ('A' for Active; 'I' for Inactive)
    1  A    between atoms: C_1  and  C_13
    2  A    between atoms: N_4  and  C_7
    3  A    between atoms: N_4  and  C_17
    4  A    between atoms: C_8  and  C_13
    5  A    between atoms: O_9  and  C_11
    6  A    between atoms: O_9  and  P_23
    7  A    between atoms: C_11  and  C_20
    8  A    between atoms: C_19  and  C_20
                            x       y       z     vdW  Elec       q    Type
                         _______ _______ _______ _____ _____    ______ ____

>  <TORSDO>
F 8

$$$$
=
 OpenBabel11042410553D

 26 27  0  0  1  0  0  0  0  0999 V2000
  185.5130  178.5040  143.4750 C   0  0  0  0  0  0  0  0  0  0  0  0
  187.3290  177.8430  142.0450 N   0  0  0  0  0  0  0  0  0  0  0  0
  184.9820  178.6150  144.7630 C   0  0  0  0  0  3  0  0  0  0  0  0
  187.5300  177.4980  144.4140 C   0  0  0  0  0  0  0  0  0  0  0  0
  188.8030  176.9500  144.2040 C   0  0  0  0  0  3  0  0  0  0  0  0
  185.7090  178.1710  145.8680 C   0  0  0  0  0  3  0  0  0  0  0  0
  186.7920  177.9490  143.2930 C   0  0  0  0  0  0  0  0  0  0  0  0
  186.9820  177.6060  145.7080 C   0  0  0  0  0  0  0  0  0  0  0  0
  189.3230  176.8570  142.9130 C   0  0  0  0  0  3  0  0  0  0  0  0
  188.5620  177.3130  141.8350 C   0  0  0  0  0  0  0  0  0  0  0  0
  189.1040  177.2190  140.4550 C   0  0  0  0  0  1  0  0  0  0  0  0
  187.3680  177.8800  148.0420 O   0  0  0  0  0  1  0  0  0  0  0  0
  187.7480  177.1480  146.9160 C   0  0  2  0  0  3  0  0  0  0  0  0
  189.2430  177.2840  146.6820 C   0  0  0  0  0  2  0  0  0  0  0  0
  189.9330  176.3680  147.4800 O   0  0  0  0  0  0  0  0  0  0  0  0
  191.7260  177.6400  145.7820 O   0  0  0  0  0  0  0  0  0  0  0  0
  192.3450  177.0640  148.2600 O   0  0  0  0  0  1  0  0  0  0  0  0
  191.5680  176.5530  147.0680 P   0  0  0  0  0  0  0  0  0  0  0  0
  192.1920  175.0510  146.6030 O   0  0  0  0  0  1  0  0  0  0  0  0
  184.7120  179.0060  142.3180 C   0  0  0  0  0  2  0  0  0  0  0  0
  183.2630  178.7620  142.5530 C   0  0  0  0  0  3  0  0  0  0  0  0
  182.4370  178.6470  141.5250 C   0  0  0  0  0  3  0  0  0  0  0  0
  181.0470  178.4140  141.7510 N   0  0  0  0  0  2  0  0  0  0  0  0
  180.3250  178.9740  142.8530 C   0  0  0  0  0  0  0  0  0  0  0  0
  180.1050  178.2830  143.9650 C   0  0  0  0  0  2  0  0  0  0  0  0
  179.8100  180.3650  142.7510 C   0  0  0  0  0  1  0  0  0  0  0  0
  1  3  1  0  0  0  0
  2  7  1  0  0  0  0
  3  6  2  0  0  0  0
  4  8  2  0  0  0  0
  5  4  1  0  0  0  0
  7  1  2  0  0  0  0
  7  4  1  0  0  0  0
  8  6  1  0  0  0  0
  8 13  1  0  0  0  0
  9  5  2  0  0  0  0
 10  2  2  0  0  0  0
 10  9  1  0  0  0  0
 11 10  1  0  0  0  0
 13 12  1  1  0  0  0
 14 13  1  0  0  0  0
 14 15  1  0  0  0  0
 16 18  2  0  0  0  0
 18 15  1  0  0  0  0
 18 17  1  0  0  0  0
 19 18  1  0  0  0  0
 20 21  1  0  0  0  0
 20  1  1  0  0  0  0
 22 23  1  0  0  0  0
 22 21  2  0  0  0  0
 23 24  1  0  0  0  0
 24 25  2  0  0  0  0
 26 24  1  0  0  0  0
M  END
>  <MODEL>
7

>  <REMARK>
 VINA RESULT:      -7.4      4.289      5.994
  Name = 
  8 active torsions:
  status: ('A' for Active; 'I' for Inactive)
    1  A    between atoms: C_1  and  C_13
    2  A    between atoms: N_4  and  C_7
    3  A    between atoms: N_4  and  C_17
    4  A    between atoms: C_8  and  C_13
    5  A    between atoms: O_9  and  C_11
    6  A    between atoms: O_9  and  P_23
    7  A    between atoms: C_11  and  C_20
    8  A    between atoms: C_19  and  C_20
                            x       y       z     vdW  Elec       q    Type
                         _______ _______ _______ _____ _____    ______ ____

>  <TORSDO>
F 8

$$$$
=
 OpenBabel11042410553D

 26 27  0  0  1  0  0  0  0  0999 V2000
  187.1330  177.8540  143.6000 C   0  0  0  0  0  0  0  0  0  0  0  0
  184.8300  178.4290  143.2210 N   0  0  0  0  0  0  0  0  0  0  0  0
  188.4170  177.6510  143.0870 C   0  0  0  0  0  3  0  0  0  0  0  0
  186.3370  178.3680  141.3500 C   0  0  0  0  0  0  0  0  0  0  0  0
  185.2750  178.7330  140.5110 C   0  0  0  0  0  3  0  0  0  0  0  0
  188.6650  177.7990  141.7220 C   0  0  0  0  0  3  0  0  0  0  0  0
  186.0860  178.2180  142.7350 C   0  0  0  0  0  0  0  0  0  0  0  0
  187.6330  178.1520  140.8410 C   0  0  0  0  0  0  0  0  0  0  0  0
  184.0010  178.9420  141.0400 C   0  0  0  0  0  3  0  0  0  0  0  0
  183.7960  178.7830  142.4120 C   0  0  0  0  0  0  0  0  0  0  0  0
  182.4450  179.0020  142.9890 C   0  0  0  0  0  1  0  0  0  0  0  0
  187.4420  177.2270  138.6550 O   0  0  0  0  0  1  0  0  0  0  0  0
  187.9300  178.3170  139.3780 C   0  0  2  0  0  3  0  0  0  0  0  0
  189.4250  178.4700  139.1520 C   0  0  0  0  0  2  0  0  0  0  0  0
  189.8150  177.7150  138.0430 O   0  0  0  0  0  0  0  0  0  0  0  0
  191.6060  177.2340  140.1110 O   0  0  0  0  0  1  0  0  0  0  0  0
  190.5590  175.2840  138.7120 O   0  0  0  0  0  1  0  0  0  0  0  0
  191.0600  176.7060  138.6000 P   0  0  0  0  0  0  0  0  0  0  0  0
  192.3430  176.7560  137.5000 O   0  0  0  0  0  0  0  0  0  0  0  0
  186.9100  177.7030  145.0700 C   0  0  0  0  0  2  0  0  0  0  0  0
  188.0770  177.0260  145.6990 C   0  0  0  0  0  3  0  0  0  0  0  0
  188.8860  177.7070  146.4940 C   0  0  0  0  0  3  0  0  0  0  0  0
  190.0060  177.0570  147.0970 N   0  0  0  0  0  2  0  0  0  0  0  0
  191.1960  176.7160  146.3780 C   0  0  0  0  0  0  0  0  0  0  0  0
  192.0490  175.8070  146.8350 C   0  0  0  0  0  2  0  0  0  0  0  0
  191.4840  177.3950  145.0880 C   0  0  0  0  0  1  0  0  0  0  0  0
  1 20  1  0  0  0  0
  3  1  1  0  0  0  0
  4  7  1  0  0  0  0
  5  9  2  0  0  0  0
  5  4  1  0  0  0  0
  6  3  2  0  0  0  0
  7  2  1  0  0  0  0
  7  1  2  0  0  0  0
  8  4  2  0  0  0  0
  8  6  1  0  0  0  0
  9 10  1  0  0  0  0
 10 11  1  0  0  0  0
 10  2  2  0  0  0  0
 13 12  1  6  0  0  0
 13  8  1  0  0  0  0
 14 13  1  0  0  0  0
 15 18  1  0  0  0  0
 15 14  1  0  0  0  0
 18 17  1  0  0  0  0
 18 16  1  0  0  0  0
 19 18  2  0  0  0  0
 20 21  1  0  0  0  0
 21 22  2  0  0  0  0
 22 23  1  0  0  0  0
 24 25  2  0  0  0  0
 24 23  1  0  0  0  0
 26 24  1  0  0  0  0
M  END
>  <MODEL>
8

>  <REMARK>
 VINA RESULT:      -7.3      1.799      5.778
  Name = 
  8 active torsions:
  status: ('A' for Active; 'I' for Inactive)
    1  A    between atoms: C_1  and  C_13
    2  A    between atoms: N_4  and  C_7
    3  A    between atoms: N_4  and  C_17
    4  A    between atoms: C_8  and  C_13
    5  A    between atoms: O_9  and  C_11
    6  A    between atoms: O_9  and  P_23
    7  A    between atoms: C_11  and  C_20
    8  A    between atoms: C_19  and  C_20
                            x       y       z     vdW  Elec       q    Type
                         _______ _______ _______ _____ _____    ______ ____

>  <TORSDO>
F 8

$$$$
=
 OpenBabel11042410553D

 26 27  0  0  1  0  0  0  0  0999 V2000
  186.7460  178.3890  141.8110 C   0  0  0  0  0  0  0  0  0  0  0  0
  187.8420  178.4620  139.6730 N   0  0  0  0  0  0  0  0  0  0  0  0
  186.8120  178.1300  143.1830 C   0  0  0  0  0  3  0  0  0  0  0  0
  189.0920  177.7470  141.5960 C   0  0  0  0  0  0  0  0  0  0  0  0
  190.2140  177.5720  140.7750 C   0  0  0  0  0  3  0  0  0  0  0  0
  187.9990  177.6800  143.7610 C   0  0  0  0  0  3  0  0  0  0  0  0
  187.8870  178.2040  141.0100 C   0  0  0  0  0  0  0  0  0  0  0  0
  189.1460  177.4800  142.9790 C   0  0  0  0  0  0  0  0  0  0  0  0
  190.1340  177.8460  139.4090 C   0  0  0  0  0  3  0  0  0  0  0  0
  188.9270  178.2940  138.8710 C   0  0  0  0  0  0  0  0  0  0  0  0
  188.8280  178.5880  137.4190 C   0  0  0  0  0  1  0  0  0  0  0  0
  190.5280  175.6190  143.5270 O   0  0  0  0  0  1  0  0  0  0  0  0
  190.4150  177.0070  143.6290 C   0  0  2  0  0  3  0  0  0  0  0  0
  190.4560  177.4300  145.0880 C   0  0  0  0  0  2  0  0  0  0  0  0
  191.7570  177.3070  145.5800 O   0  0  0  0  0  0  0  0  0  0  0  0
  192.4580  174.9710  146.9090 O   0  0  0  0  0  0  0  0  0  0  0  0
  192.1600  177.2430  148.1780 O   0  0  0  0  0  1  0  0  0  0  0  0
  191.6120  176.4310  147.0250 P   0  0  0  0  0  0  0  0  0  0  0  0
  189.9780  176.1020  147.3080 O   0  0  0  0  0  1  0  0  0  0  0  0
  185.4620  178.8860  141.2310 C   0  0  0  0  0  2  0  0  0  0  0  0
  184.4910  179.1870  142.3180 C   0  0  0  0  0  3  0  0  0  0  0  0
  183.2970  178.6160  142.3140 C   0  0  0  0  0  3  0  0  0  0  0  0
  182.3650  178.9050  143.3570 N   0  0  0  0  0  2  0  0  0  0  0  0
  180.9530  178.9990  143.1440 C   0  0  0  0  0  0  0  0  0  0  0  0
  180.0820  178.5640  144.0470 C   0  0  0  0  0  2  0  0  0  0  0  0
  180.4470  179.5980  141.8810 C   0  0  0  0  0  1  0  0  0  0  0  0
  1  3  1  0  0  0  0
  2  7  1  0  0  0  0
  3  6  2  0  0  0  0
  4  8  2  0  0  0  0
  5  4  1  0  0  0  0
  7  4  1  0  0  0  0
  7  1  2  0  0  0  0
  8 13  1  0  0  0  0
  8  6  1  0  0  0  0
  9  5  2  0  0  0  0
 10  9  1  0  0  0  0
 10  2  2  0  0  0  0
 11 10  1  0  0  0  0
 13 12  1  1  0  0  0
 13 14  1  0  0  0  0
 14 15  1  0  0  0  0
 15 18  1  0  0  0  0
 16 18  2  0  0  0  0
 18 19  1  0  0  0  0
 18 17  1  0  0  0  0
 20  1  1  0  0  0  0
 20 21  1  0  0  0  0
 22 21  2  0  0  0  0
 22 23  1  0  0  0  0
 24 23  1  0  0  0  0
 24 25  2  0  0  0  0
 26 24  1  0  0  0  0
M  END
>  <MODEL>
9

>  <REMARK>
 VINA RESULT:      -7.3      3.817      6.018
  Name = 
  8 active torsions:
  status: ('A' for Active; 'I' for Inactive)
    1  A    between atoms: C_1  and  C_13
    2  A    between atoms: N_4  and  C_7
    3  A    between atoms: N_4  and  C_17
    4  A    between atoms: C_8  and  C_13
    5  A    between atoms: O_9  and  C_11
    6  A    between atoms: O_9  and  P_23
    7  A    between atoms: C_11  and  C_20
    8  A    between atoms: C_19  and  C_20
                            x       y       z     vdW  Elec       q    Type
                         _______ _______ _______ _____ _____    ______ ____

>  <TORSDO>
F 8

$$$$
