=
 OpenBabel11032421313D

 60 68  0  0  1  0  0  0  0  0999 V2000
  181.3600  180.0170  138.3740 C   0  0  2  0  0  3  0  0  0  0  0  0
  183.7410  178.2730  139.8430 C   0  0  2  0  0  3  0  0  0  0  0  0
  182.0140  178.9480  143.2560 C   0  0  0  0  0  2  0  0  0  0  0  0
  183.6440  178.8780  138.4250 C   0  0  2  0  0  3  0  0  0  0  0  0
  182.7090  178.8230  140.8480 C   0  0  2  0  0  3  0  0  0  0  0  0
  185.3230  178.9710  141.7290 C   0  0  0  0  0  2  0  0  0  0  0  0
  180.8720  179.8230  139.8120 C   0  0  0  0  0  2  0  0  0  0  0  0
  182.8610  179.1970  144.4880 C   0  0  0  0  0  2  0  0  0  0  0  0
  184.3560  178.3890  142.7640 C   0  0  2  0  0  3  0  0  0  0  0  0
  185.1830  178.2100  140.4160 C   0  0  2  0  0  3  0  0  0  0  0  0
  182.9090  178.2370  142.2510 C   0  0  1  0  0  3  0  0  0  0  0  0
  182.8760  180.2010  138.3260 C   0  0  0  0  0  2  0  0  0  0  0  0
  181.3600  178.5710  140.3650 N   0  0  0  0  0  2  0  0  0  0  0  0
  184.2840  179.2930  143.9750 C   0  0  2  0  0  3  0  0  0  0  0  0
  186.1930  178.6570  139.4600 N   0  0  0  0  0  2  0  0  0  0  0  0
  187.5620  178.2590  139.5760 C   0  0  0  0  0  0  0  0  0  0  0  0
  187.9490  177.5870  140.5780 O   0  0  0  0  0  0  0  0  0  0  0  0
  189.9640  177.2040  137.3920 C   0  0  0  0  0  0  0  0  0  0  0  0
  188.5390  178.6830  138.5290 C   0  0  2  0  0  3  0  0  0  0  0  0
  188.0710  178.3010  137.2070 N   0  0  0  0  0  2  0  0  0  0  0  0
  189.8610  177.9260  138.6910 C   0  0  0  0  0  2  0  0  0  0  0  0
  188.9750  177.4290  136.6040 N   0  0  0  0  0  0  0  0  0  0  0  0
  191.0120  176.3570  137.0440 O   0  0  0  0  0  0  0  0  0  0  0  0
  191.5370  176.3970  135.8110 O   0  0  0  0  0  0  0  0  0  0  0  0
  193.6810  174.7780  137.8590 C   0  0  2  0  0  3  0  0  0  0  0  0
  193.0870  173.7020  137.0760 N   0  0  0  0  0  2  0  0  0  0  0  0
  192.6550  175.5610  135.8720 C   0  0  2  0  0  3  0  0  0  0  0  0
  193.9160  177.0640  137.2330 O   0  0  0  0  0  0  0  0  0  0  0  0
  192.2250  174.2400  136.1390 O   0  0  0  0  0  0  0  0  0  0  0  0
  193.4980  175.9390  137.0070 C   0  0  0  0  0  0  0  0  0  0  0  0
  195.5320  174.0080  139.3550 O   0  0  0  0  0  1  0  0  0  0  0  0
  196.0090  174.7360  137.2330 O   0  0  0  0  0  0  0  0  0  0  0  0
  195.1380  174.5090  138.1200 C   0  0  0  0  0  0  0  0  0  0  0  0
  180.7080  181.2530  137.7830 C   0  0  0  0  0  2  0  0  0  0  0  0
  180.5660  181.1120  136.2800 C   0  0  0  0  0  1  0  0  0  0  0  0
  183.1460  177.9360  137.5230 O   0  0  0  0  0  0  0  0  0  0  0  0
  183.7140  176.7240  137.9250 C   0  0  0  0  0  2  0  0  0  0  0  0
  184.7950  176.0970  136.6110 P   0  0  0  0  0  0  0  0  0  0  0  0
  185.1990  177.3560  135.5550 O   0  0  0  0  0  0  0  0  0  0  0  0
  186.0560  175.5380  137.2260 O   0  0  0  0  0  1  0  0  0  0  0  0
  183.9960  174.8770  135.7460 O   0  0  0  0  0  1  0  0  0  0  0  0
  185.3150  178.9330  145.0410 C   0  0  0  0  0  2  0  0  0  0  0  0
  185.7890  178.8450  147.5700 C   0  0  1  0  0  3  0  0  0  0  0  0
  184.7420  178.9820  146.4600 C   0  0  2  0  0  3  0  0  0  0  0  0
  184.9740  177.6430  147.1330 C   0  0  0  0  0  2  0  0  0  0  0  0
  188.2280  178.1940  147.8020 C   0  0  0  0  0  0  0  0  0  0  0  0
  187.1500  178.7470  147.0460 N   0  0  0  0  0  2  0  0  0  0  0  0
  188.0360  177.7950  148.9860 O   0  0  0  0  0  0  0  0  0  0  0  0
  190.4310  175.8900  146.8040 C   0  0  0  0  0  2  0  0  0  0  0  0
  189.9540  178.8190  144.8870 N   0  0  0  0  0  2  0  0  0  0  0  0
  191.4610  176.9130  144.7930 C   0  0  1  0  0  3  0  0  0  0  0  0
  192.5500  176.5780  142.6650 O   0  0  0  0  0  0  0  0  0  0  0  0
  190.1700  176.4670  145.4300 C   0  0  2  0  0  3  0  0  0  0  0  0
  191.8930  175.9190  143.7120 C   0  0  0  0  0  2  0  0  0  0  0  0
  190.3250  176.9630  147.7780 N   0  0  0  0  0  2  0  0  0  0  0  0
  191.5330  177.2320  141.9710 C   0  0  0  0  0  2  0  0  0  0  0  0
  189.3910  177.7280  145.6800 C   0  0  1  0  0  3  0  0  0  0  0  0
  189.5590  178.0350  147.1520 C   0  0  1  0  0  3  0  0  0  0  0  0
  191.0810  178.4760  142.7340 C   0  0  0  0  0  2  0  0  0  0  0  0
  191.1780  178.3250  144.2640 C   0  0  1  0  0  3  0  0  0  0  0  0
  1 34  1  1  0  0  0
  1  7  1  0  0  0  0
  2 10  1  0  0  0  0
  2  5  1  0  0  0  0
  3  8  1  0  0  0  0
  4  2  1  0  0  0  0
  5 11  1  0  0  0  0
  6  9  1  0  0  0  0
  7 13  1  0  0  0  0
  9 14  1  0  0  0  0
 10  6  1  0  0  0  0
 11  9  1  0  0  0  0
 11  3  1  0  0  0  0
 12  1  1  0  0  0  0
 12  4  1  0  0  0  0
 13  5  1  0  0  0  0
 14  8  1  0  0  0  0
 14 42  1  0  0  0  0
 15 16  1  0  0  0  0
 15 10  1  0  0  0  0
 16 17  2  0  0  0  0
 18 21  1  0  0  0  0
 19 21  1  0  0  0  0
 19 16  1  0  0  0  0
 20 19  1  0  0  0  0
 22 20  1  0  0  0  0
 22 18  2  0  0  0  0
 23 18  1  0  0  0  0
 24 27  1  0  0  0  0
 24 23  1  0  0  0  0
 25 33  1  0  0  0  0
 26 25  1  0  0  0  0
 27 29  1  0  0  0  0
 27 30  1  0  0  0  0
 29 26  1  0  0  0  0
 30 28  2  0  0  0  0
 30 25  1  0  0  0  0
 32 33  2  0  0  0  0
 33 31  1  0  0  0  0
 35 34  1  0  0  0  0
 36 37  1  0  0  0  0
 36  4  1  0  0  0  0
 38 40  1  0  0  0  0
 38 37  1  0  0  0  0
 39 38  2  0  0  0  0
 41 38  1  0  0  0  0
 42 44  1  0  0  0  0
 44 45  1  0  0  0  0
 44 43  1  0  0  0  0
 45 43  1  0  0  0  0
 46 48  2  0  0  0  0
 47 43  1  0  0  0  0
 47 46  1  0  0  0  0
 49 55  1  0  0  0  0
 50 57  1  0  0  0  0
 51 53  1  0  0  0  0
 52 54  1  0  0  0  0
 53 57  1  0  0  0  0
 53 49  1  0  0  0  0
 54 51  1  0  0  0  0
 56 52  1  0  0  0  0
 56 59  1  0  0  0  0
 57 58  1  0  0  0  0
 58 55  1  0  0  0  0
 58 46  1  0  0  0  0
 59 60  1  0  0  0  0
 60 51  1  0  0  0  0
 60 50  1  0  0  0  0
M  END
>  <MODEL>
1

>  <REMARK>
 VINA RESULT:      -8.1      0.000      0.000
  Name = 
  14 active torsions:
  status: ('A' for Active; 'I' for Inactive)
    1  A    between atoms: C_1  and  C_44
    2  A    between atoms: P_2  and  C_9
    3  A    between atoms: C_5  and  N_43
    4  A    between atoms: C_7  and  C_22
    5  A    between atoms: N_8  and  C_48
    6  A    between atoms: C_9  and  O_35
    7  A    between atoms: C_10  and  C_57
    8  A    between atoms: C_13  and  O_46
    9  A    between atoms: C_16  and  C_33
   10  A    between atoms: C_18  and  C_27
   11  A    between atoms: C_19  and  O_35
   12  A    between atoms: O_23  and  C_28
   13  A    between atoms: O_23  and  O_46
   14  A    between atoms: C_56  and  C_57
                            x       y       z     vdW  Elec       q    Type
                         _______ _______ _______ _____ _____    ______ ____

>  <TORSDO>
F 14

$$$$
=
 OpenBabel11032421313D

 60 68  0  0  1  0  0  0  0  0999 V2000
  186.7430  177.9000  143.9830 C   0  0  2  0  0  3  0  0  0  0  0  0
  187.6010  178.5190  140.8610 C   0  0  2  0  0  3  0  0  0  0  0  0
  183.8420  179.0070  140.0120 C   0  0  0  0  0  2  0  0  0  0  0  0
  188.3900  177.8940  142.0320 C   0  0  2  0  0  3  0  0  0  0  0  0
  186.0760  178.5840  141.0760 C   0  0  2  0  0  3  0  0  0  0  0  0
  186.8240  177.3630  138.7140 C   0  0  0  0  0  2  0  0  0  0  0  0
  185.4650  178.4230  143.3230 C   0  0  0  0  0  2  0  0  0  0  0  0
  183.3050  178.5190  138.6820 C   0  0  0  0  0  2  0  0  0  0  0  0
  185.7200  178.4090  138.5440 C   0  0  2  0  0  3  0  0  0  0  0  0
  188.0010  177.9820  139.4600 C   0  0  2  0  0  3  0  0  0  0  0  0
  185.3490  179.1460  139.8480 C   0  0  1  0  0  3  0  0  0  0  0  0
  187.5600  177.0520  143.0090 C   0  0  0  0  0  2  0  0  0  0  0  0
  185.7730  179.3690  142.2640 N   0  0  0  0  0  2  0  0  0  0  0  0
  184.4490  177.7490  138.0540 C   0  0  2  0  0  3  0  0  0  0  0  0
  189.1200  177.0430  139.5100 N   0  0  0  0  0  2  0  0  0  0  0  0
  190.1330  177.0310  138.5010 C   0  0  0  0  0  0  0  0  0  0  0  0
  190.0260  177.7720  137.4790 O   0  0  0  0  0  0  0  0  0  0  0  0
  193.1160  176.0530  137.1610 C   0  0  0  0  0  0  0  0  0  0  0  0
  191.2950  176.1020  138.6400 C   0  0  2  0  0  3  0  0  0  0  0  0
  192.4680  176.8180  139.1150 N   0  0  0  0  0  2  0  0  0  0  0  0
  191.7150  175.5600  137.2710 C   0  0  0  0  0  2  0  0  0  0  0  0
  193.4990  176.7350  138.1810 N   0  0  0  0  0  0  0  0  0  0  0  0
  193.9480  175.8210  136.0700 O   0  0  0  0  0  0  0  0  0  0  0  0
  195.1580  176.3950  136.0030 O   0  0  0  0  0  0  0  0  0  0  0  0
  196.7800  173.4800  136.5390 C   0  0  2  0  0  3  0  0  0  0  0  0
  195.8820  173.1680  135.4340 N   0  0  0  0  0  2  0  0  0  0  0  0
  195.9850  175.4210  135.4360 C   0  0  2  0  0  3  0  0  0  0  0  0
  197.6560  175.6140  137.1300 O   0  0  0  0  0  0  0  0  0  0  0  0
  195.1950  174.3090  135.0650 O   0  0  0  0  0  0  0  0  0  0  0  0
  196.9250  174.9220  136.4410 C   0  0  0  0  0  0  0  0  0  0  0  0
  198.3660  171.6320  137.1080 O   0  0  0  0  0  1  0  0  0  0  0  0
  198.9730  173.2230  135.5710 O   0  0  0  0  0  0  0  0  0  0  0  0
  198.1010  172.7800  136.3710 C   0  0  0  0  0  0  0  0  0  0  0  0
  186.3770  177.0380  145.1770 C   0  0  0  0  0  2  0  0  0  0  0  0
  186.4790  177.8380  146.4620 C   0  0  0  0  0  1  0  0  0  0  0  0
  189.1240  178.8710  142.7060 O   0  0  0  0  0  0  0  0  0  0  0  0
  189.5590  178.2460  143.8770 C   0  0  0  0  0  2  0  0  0  0  0  0
  191.3570  178.0170  143.8090 P   0  0  0  0  0  0  0  0  0  0  0  0
  192.1320  179.4800  144.1580 O   0  0  0  0  0  1  0  0  0  0  0  0
  191.7670  176.9800  144.8290 O   0  0  0  0  0  1  0  0  0  0  0  0
  191.8100  177.5000  142.2590 O   0  0  0  0  0  0  0  0  0  0  0  0
  184.3570  177.7050  136.5310 C   0  0  0  0  0  2  0  0  0  0  0  0
  182.5880  176.1280  135.5270 C   0  0  1  0  0  3  0  0  0  0  0  0
  184.0350  176.3080  135.9970 C   0  0  2  0  0  3  0  0  0  0  0  0
  183.0090  175.6560  136.9050 C   0  0  0  0  0  2  0  0  0  0  0  0
  180.4200  177.3660  135.9730 C   0  0  0  0  0  0  0  0  0  0  0  0
  181.8080  177.3600  135.6340 N   0  0  0  0  0  2  0  0  0  0  0  0
  179.8070  176.2760  136.1620 O   0  0  0  0  0  0  0  0  0  0  0  0
  179.6760  179.6540  138.2900 C   0  0  0  0  0  2  0  0  0  0  0  0
  180.4710  180.6700  135.0010 N   0  0  0  0  0  2  0  0  0  0  0  0
  179.7130  181.7870  137.0230 C   0  0  1  0  0  3  0  0  0  0  0  0
  180.0600  184.1750  137.0610 O   0  0  0  0  0  0  0  0  0  0  0  0
  180.5100  180.5710  137.4220 C   0  0  2  0  0  3  0  0  0  0  0  0
  180.1660  183.0070  137.8280 C   0  0  0  0  0  2  0  0  0  0  0  0
  179.0000  178.7000  137.4280 N   0  0  0  0  0  2  0  0  0  0  0  0
  181.1200  184.0980  136.1590 C   0  0  0  0  0  2  0  0  0  0  0  0
  180.7330  179.8040  136.1490 C   0  0  1  0  0  3  0  0  0  0  0  0
  179.7290  178.6720  136.1650 C   0  0  1  0  0  3  0  0  0  0  0  0
  180.8030  183.1020  135.0460 C   0  0  0  0  0  2  0  0  0  0  0  0
  179.9240  181.9240  135.5100 C   0  0  1  0  0  3  0  0  0  0  0  0
  1 34  1  1  0  0  0
  2  5  1  0  0  0  0
  2  4  1  0  0  0  0
  4 36  1  0  0  0  0
  4 12  1  0  0  0  0
  5 13  1  0  0  0  0
  6 10  1  0  0  0  0
  7  1  1  0  0  0  0
  8  3  1  0  0  0  0
  9  6  1  0  0  0  0
  9 11  1  0  0  0  0
 10 15  1  0  0  0  0
 10  2  1  0  0  0  0
 11  3  1  0  0  0  0
 11  5  1  0  0  0  0
 12  1  1  0  0  0  0
 13  7  1  0  0  0  0
 14  9  1  0  0  0  0
 14  8  1  0  0  0  0
 16 19  1  0  0  0  0
 16 15  1  0  0  0  0
 17 16  2  0  0  0  0
 18 21  1  0  0  0  0
 18 22  2  0  0  0  0
 19 20  1  0  0  0  0
 21 19  1  0  0  0  0
 22 20  1  0  0  0  0
 23 18  1  0  0  0  0
 24 23  1  0  0  0  0
 26 25  1  0  0  0  0
 27 24  1  0  0  0  0
 27 30  1  0  0  0  0
 29 26  1  0  0  0  0
 29 27  1  0  0  0  0
 30 25  1  0  0  0  0
 30 28  2  0  0  0  0
 32 33  2  0  0  0  0
 33 25  1  0  0  0  0
 33 31  1  0  0  0  0
 34 35  1  0  0  0  0
 36 37  1  0  0  0  0
 38 37  1  0  0  0  0
 38 39  1  0  0  0  0
 38 40  1  0  0  0  0
 41 38  2  0  0  0  0
 42 14  1  0  0  0  0
 43 47  1  0  0  0  0
 43 44  1  0  0  0  0
 43 45  1  0  0  0  0
 44 42  1  0  0  0  0
 44 45  1  0  0  0  0
 46 48  2  0  0  0  0
 46 58  1  0  0  0  0
 47 46  1  0  0  0  0
 50 60  1  0  0  0  0
 50 57  1  0  0  0  0
 51 53  1  0  0  0  0
 51 54  1  0  0  0  0
 52 54  1  0  0  0  0
 53 49  1  0  0  0  0
 55 49  1  0  0  0  0
 56 52  1  0  0  0  0
 57 58  1  0  0  0  0
 57 53  1  0  0  0  0
 58 55  1  0  0  0  0
 59 60  1  0  0  0  0
 59 56  1  0  0  0  0
 60 51  1  0  0  0  0
M  END
>  <MODEL>
2

>  <REMARK>
 VINA RESULT:      -7.6      3.060      9.132
  Name = 
  14 active torsions:
  status: ('A' for Active; 'I' for Inactive)
    1  A    between atoms: C_1  and  C_44
    2  A    between atoms: P_2  and  C_9
    3  A    between atoms: C_5  and  N_43
    4  A    between atoms: C_7  and  C_22
    5  A    between atoms: N_8  and  C_48
    6  A    between atoms: C_9  and  O_35
    7  A    between atoms: C_10  and  C_57
    8  A    between atoms: C_13  and  O_46
    9  A    between atoms: C_16  and  C_33
   10  A    between atoms: C_18  and  C_27
   11  A    between atoms: C_19  and  O_35
   12  A    between atoms: O_23  and  C_28
   13  A    between atoms: O_23  and  O_46
   14  A    between atoms: C_56  and  C_57
                            x       y       z     vdW  Elec       q    Type
                         _______ _______ _______ _____ _____    ______ ____

>  <TORSDO>
F 14

$$$$
=
 OpenBabel11032421313D

 60 68  0  0  1  0  0  0  0  0999 V2000
  187.5490  177.6580  146.6390 C   0  0  2  0  0  3  0  0  0  0  0  0
  186.9040  178.6860  143.5740 C   0  0  2  0  0  3  0  0  0  0  0  0
  183.2390  179.3710  144.6650 C   0  0  0  0  0  2  0  0  0  0  0  0
  188.0910  177.8860  144.1550 C   0  0  2  0  0  3  0  0  0  0  0  0
  185.6660  178.7550  144.4910 C   0  0  2  0  0  3  0  0  0  0  0  0
  185.1210  177.8580  141.9360 C   0  0  0  0  0  2  0  0  0  0  0  0
  186.1610  178.2970  146.7250 C   0  0  0  0  0  2  0  0  0  0  0  0
  182.1050  179.0860  143.7020 C   0  0  0  0  0  2  0  0  0  0  0  0
  184.1580  178.9420  142.4270 C   0  0  2  0  0  3  0  0  0  0  0  0
  186.5580  178.3400  142.1010 C   0  0  2  0  0  3  0  0  0  0  0  0
  184.5010  179.4980  143.8240 C   0  0  1  0  0  3  0  0  0  0  0  0
  187.7430  176.9360  145.3070 C   0  0  0  0  0  2  0  0  0  0  0  0
  186.0200  179.3730  145.7600 N   0  0  0  0  0  2  0  0  0  0  0  0
  182.7540  178.3850  142.5250 C   0  0  2  0  0  3  0  0  0  0  0  0
  187.4860  177.3790  141.5100 N   0  0  0  0  0  2  0  0  0  0  0  0
  188.3570  177.7420  140.4360 C   0  0  0  0  0  0  0  0  0  0  0  0
  188.2680  178.8860  139.9000 O   0  0  0  0  0  0  0  0  0  0  0  0
  190.5290  176.9920  137.9110 C   0  0  0  0  0  0  0  0  0  0  0  0
  189.3400  176.7420  139.9190 C   0  0  2  0  0  3  0  0  0  0  0  0
  190.7000  177.2280  140.0880 N   0  0  0  0  0  2  0  0  0  0  0  0
  189.1870  176.5720  138.4050 C   0  0  0  0  0  2  0  0  0  0  0  0
  191.3320  177.3420  138.8510 N   0  0  0  0  0  0  0  0  0  0  0  0
  190.9000  177.0190  136.5710 O   0  0  0  0  0  0  0  0  0  0  0  0
  191.7210  176.0830  136.0730 O   0  0  0  0  0  0  0  0  0  0  0  0
  194.5070  174.4350  137.0410 C   0  0  2  0  0  3  0  0  0  0  0  0
  195.0260  175.6830  136.4980 N   0  0  0  0  0  2  0  0  0  0  0  0
  192.8500  176.1230  136.8970 C   0  0  2  0  0  3  0  0  0  0  0  0
  192.3470  174.0490  137.9690 O   0  0  0  0  0  0  0  0  0  0  0  0
  193.9720  176.4920  136.1190 O   0  0  0  0  0  0  0  0  0  0  0  0
  193.1430  174.7810  137.4020 C   0  0  0  0  0  0  0  0  0  0  0  0
  195.2470  172.6750  138.6580 O   0  0  0  0  0  0  0  0  0  0  0  0
  196.0160  174.8250  138.8800 O   0  0  0  0  0  1  0  0  0  0  0  0
  195.3020  174.0010  138.2420 C   0  0  0  0  0  0  0  0  0  0  0  0
  187.7100  176.6470  147.7590 C   0  0  0  0  0  2  0  0  0  0  0  0
  189.1670  176.2600  147.9210 C   0  0  0  0  0  1  0  0  0  0  0  0
  189.1350  178.7440  144.5060 O   0  0  0  0  0  0  0  0  0  0  0  0
  190.0480  178.6420  143.4530 C   0  0  0  0  0  2  0  0  0  0  0  0
  191.1250  177.2080  143.7240 P   0  0  0  0  0  0  0  0  0  0  0  0
  190.3410  175.8000  143.2070 O   0  0  0  0  0  1  0  0  0  0  0  0
  192.4010  177.3860  142.9350 O   0  0  0  0  0  0  0  0  0  0  0  0
  191.4900  177.0700  145.3740 O   0  0  0  0  0  1  0  0  0  0  0  0
  181.9600  178.5560  141.2330 C   0  0  0  0  0  2  0  0  0  0  0  0
  179.8080  177.5690  140.2210 C   0  0  1  0  0  3  0  0  0  0  0  0
  180.4670  178.2710  141.4140 C   0  0  2  0  0  3  0  0  0  0  0  0
  179.6850  179.0710  140.3900 C   0  0  0  0  0  2  0  0  0  0  0  0
  181.1230  175.9220  138.8120 C   0  0  0  0  0  0  0  0  0  0  0  0
  180.7630  177.2600  139.1580 N   0  0  0  0  0  2  0  0  0  0  0  0
  180.6390  174.9470  139.4540 O   0  0  0  0  0  0  0  0  0  0  0  0
  183.5260  177.3680  136.9960 C   0  0  0  0  0  2  0  0  0  0  0  0
  183.6560  173.8980  137.6490 N   0  0  0  0  0  2  0  0  0  0  0  0
  184.9560  175.4590  136.3130 C   0  0  1  0  0  3  0  0  0  0  0  0
  187.1510  174.6800  135.6820 O   0  0  0  0  0  0  0  0  0  0  0  0
  184.3680  176.2080  137.4810 C   0  0  2  0  0  3  0  0  0  0  0  0
  186.4430  175.7890  136.1630 C   0  0  0  0  0  2  0  0  0  0  0  0
  182.1570  176.9040  136.8420 N   0  0  0  0  0  2  0  0  0  0  0  0
  187.2250  173.8120  136.7700 C   0  0  0  0  0  2  0  0  0  0  0  0
  183.3920  175.2580  138.1160 C   0  0  1  0  0  3  0  0  0  0  0  0
  182.0220  175.6940  137.6460 C   0  0  1  0  0  3  0  0  0  0  0  0
  185.8850  173.1120  136.9860 C   0  0  0  0  0  2  0  0  0  0  0  0
  184.6710  173.9800  136.6030 C   0  0  1  0  0  3  0  0  0  0  0  0
  1  7  1  0  0  0  0
  1 34  1  1  0  0  0
  2  4  1  0  0  0  0
  2  5  1  0  0  0  0
  4 36  1  0  0  0  0
  4 12  1  0  0  0  0
  5 13  1  0  0  0  0
  6 10  1  0  0  0  0
  6  9  1  0  0  0  0
  8  3  1  0  0  0  0
  9 14  1  0  0  0  0
  9 11  1  0  0  0  0
 10  2  1  0  0  0  0
 11  5  1  0  0  0  0
 11  3  1  0  0  0  0
 12  1  1  0  0  0  0
 13  7  1  0  0  0  0
 14  8  1  0  0  0  0
 15 10  1  0  0  0  0
 16 15  1  0  0  0  0
 17 16  2  0  0  0  0
 18 21  1  0  0  0  0
 18 22  2  0  0  0  0
 19 20  1  0  0  0  0
 19 16  1  0  0  0  0
 21 19  1  0  0  0  0
 22 20  1  0  0  0  0
 23 18  1  0  0  0  0
 24 23  1  0  0  0  0
 24 27  1  0  0  0  0
 25 30  1  0  0  0  0
 25 33  1  0  0  0  0
 26 25  1  0  0  0  0
 27 30  1  0  0  0  0
 29 26  1  0  0  0  0
 29 27  1  0  0  0  0
 30 28  2  0  0  0  0
 33 31  2  0  0  0  0
 33 32  1  0  0  0  0
 34 35  1  0  0  0  0
 37 38  1  0  0  0  0
 37 36  1  0  0  0  0
 38 41  1  0  0  0  0
 39 38  1  0  0  0  0
 40 38  2  0  0  0  0
 42 44  1  0  0  0  0
 42 14  1  0  0  0  0
 43 45  1  0  0  0  0
 43 44  1  0  0  0  0
 45 44  1  0  0  0  0
 46 47  1  0  0  0  0
 46 48  2  0  0  0  0
 47 43  1  0  0  0  0
 49 53  1  0  0  0  0
 50 57  1  0  0  0  0
 51 60  1  0  0  0  0
 51 53  1  0  0  0  0
 52 54  1  0  0  0  0
 52 56  1  0  0  0  0
 53 57  1  0  0  0  0
 54 51  1  0  0  0  0
 55 49  1  0  0  0  0
 55 58  1  0  0  0  0
 56 59  1  0  0  0  0
 58 57  1  0  0  0  0
 58 46  1  0  0  0  0
 60 59  1  0  0  0  0
 60 50  1  0  0  0  0
M  END
>  <MODEL>
3

>  <REMARK>
 VINA RESULT:      -7.5      2.575      7.623
  Name = 
  14 active torsions:
  status: ('A' for Active; 'I' for Inactive)
    1  A    between atoms: C_1  and  C_44
    2  A    between atoms: P_2  and  C_9
    3  A    between atoms: C_5  and  N_43
    4  A    between atoms: C_7  and  C_22
    5  A    between atoms: N_8  and  C_48
    6  A    between atoms: C_9  and  O_35
    7  A    between atoms: C_10  and  C_57
    8  A    between atoms: C_13  and  O_46
    9  A    between atoms: C_16  and  C_33
   10  A    between atoms: C_18  and  C_27
   11  A    between atoms: C_19  and  O_35
   12  A    between atoms: O_23  and  C_28
   13  A    between atoms: O_23  and  O_46
   14  A    between atoms: C_56  and  C_57
                            x       y       z     vdW  Elec       q    Type
                         _______ _______ _______ _____ _____    ______ ____

>  <TORSDO>
F 14

$$$$
=
 OpenBabel11032421313D

 60 68  0  0  1  0  0  0  0  0999 V2000
  187.4880  174.7320  135.8370 C   0  0  2  0  0  3  0  0  0  0  0  0
  187.3180  177.3850  137.7860 C   0  0  2  0  0  3  0  0  0  0  0  0
  191.0830  176.9110  138.6180 C   0  0  0  0  0  2  0  0  0  0  0  0
  186.2150  176.5070  137.1570 C   0  0  2  0  0  3  0  0  0  0  0  0
  188.7260  176.7570  137.7680 C   0  0  2  0  0  3  0  0  0  0  0  0
  187.9080  177.6060  140.2660 C   0  0  0  0  0  2  0  0  0  0  0  0
  188.9430  175.0510  136.1900 C   0  0  0  0  0  2  0  0  0  0  0  0
  191.5810  177.1900  140.0210 C   0  0  0  0  0  2  0  0  0  0  0  0
  189.3240  178.0560  139.8960 C   0  0  2  0  0  3  0  0  0  0  0  0
  186.9400  178.0050  139.1580 C   0  0  2  0  0  3  0  0  0  0  0  0
  189.7580  177.6460  138.4730 C   0  0  1  0  0  3  0  0  0  0  0  0
  186.5580  175.0200  137.0140 C   0  0  0  0  0  2  0  0  0  0  0  0
  189.1300  176.4770  136.3980 N   0  0  0  0  0  2  0  0  0  0  0  0
  190.3310  177.4380  140.8410 C   0  0  2  0  0  3  0  0  0  0  0  0
  185.5650  177.7090  139.5550 N   0  0  0  0  0  2  0  0  0  0  0  0
  184.7680  178.6640  140.2610 C   0  0  0  0  0  0  0  0  0  0  0  0
  185.2760  179.7570  140.6510 O   0  0  0  0  0  0  0  0  0  0  0  0
  181.5260  179.0060  139.2510 C   0  0  0  0  0  0  0  0  0  0  0  0
  183.3440  178.3390  140.5760 C   0  0  2  0  0  3  0  0  0  0  0  0
  182.8460  177.3050  139.6830 N   0  0  0  0  0  2  0  0  0  0  0  0
  182.4440  179.5450  140.2920 C   0  0  0  0  0  2  0  0  0  0  0  0
  181.7680  177.7830  138.9400 N   0  0  0  0  0  0  0  0  0  0  0  0
  180.5030  179.7340  138.6500 O   0  0  0  0  0  0  0  0  0  0  0  0
  180.5160  179.9610  137.3290 O   0  0  0  0  0  0  0  0  0  0  0  0
  180.5320  182.9620  135.7780 C   0  0  2  0  0  3  0  0  0  0  0  0
  179.2820  182.3600  135.3320 N   0  0  0  0  0  2  0  0  0  0  0  0
  179.8380  181.1730  137.1680 C   0  0  2  0  0  3  0  0  0  0  0  0
  181.7230  182.5010  137.7880 O   0  0  0  0  0  0  0  0  0  0  0  0
  179.1160  181.1370  135.9540 O   0  0  0  0  0  0  0  0  0  0  0  0
  180.8020  182.2650  137.0220 C   0  0  0  0  0  0  0  0  0  0  0  0
  179.0890  184.9880  136.0390 O   0  0  0  0  0  0  0  0  0  0  0  0
  181.3720  185.1920  136.1440 O   0  0  0  0  0  1  0  0  0  0  0  0
  180.3660  184.4410  135.9980 C   0  0  0  0  0  0  0  0  0  0  0  0
  187.3670  173.2620  135.4790 C   0  0  0  0  0  2  0  0  0  0  0  0
  187.6900  172.3940  136.6800 C   0  0  0  0  0  1  0  0  0  0  0  0
  185.7930  177.0470  135.9410 O   0  0  0  0  0  0  0  0  0  0  0  0
  184.4760  177.4540  136.1700 C   0  0  0  0  0  2  0  0  0  0  0  0
  183.3350  176.1690  135.5890 P   0  0  0  0  0  0  0  0  0  0  0  0
  181.9980  176.8880  134.8420 O   0  0  0  0  0  1  0  0  0  0  0  0
  184.0460  175.2830  134.5940 O   0  0  0  0  0  0  0  0  0  0  0  0
  182.8070  175.2370  136.9040 O   0  0  0  0  0  1  0  0  0  0  0  0
  190.5990  178.3060  142.0670 C   0  0  0  0  0  2  0  0  0  0  0  0
  191.7760  177.3010  144.1240 C   0  0  1  0  0  3  0  0  0  0  0  0
  191.9250  177.9690  142.7530 C   0  0  2  0  0  3  0  0  0  0  0  0
  192.0460  178.7900  144.0230 C   0  0  0  0  0  2  0  0  0  0  0  0
  189.9340  176.9950  145.8390 C   0  0  0  0  0  0  0  0  0  0  0  0
  190.3780  177.0670  144.4830 N   0  0  0  0  0  2  0  0  0  0  0  0
  190.7630  177.1030  146.7870 O   0  0  0  0  0  0  0  0  0  0  0  0
  187.4820  178.1800  147.7740 C   0  0  0  0  0  2  0  0  0  0  0  0
  186.8230  177.3500  144.4030 N   0  0  0  0  0  2  0  0  0  0  0  0
  185.4880  178.0760  146.3010 C   0  0  1  0  0  3  0  0  0  0  0  0
  183.3190  178.9740  145.7400 O   0  0  0  0  0  0  0  0  0  0  0  0
  186.8810  178.6300  146.4600 C   0  0  2  0  0  3  0  0  0  0  0  0
  184.4480  179.1720  146.5450 C   0  0  0  0  0  2  0  0  0  0  0  0
  188.2010  176.9380  147.5440 N   0  0  0  0  0  2  0  0  0  0  0  0
  183.7330  179.3420  144.4600 C   0  0  0  0  0  2  0  0  0  0  0  0
  187.7040  177.9500  145.4030 C   0  0  1  0  0  3  0  0  0  0  0  0
  188.4760  176.8600  146.1140 C   0  0  1  0  0  3  0  0  0  0  0  0
  184.6080  178.2500  143.8470 C   0  0  0  0  0  2  0  0  0  0  0  0
  185.4520  177.4850  144.8860 C   0  0  1  0  0  3  0  0  0  0  0  0
  1 34  1  1  0  0  0
  1  7  1  0  0  0  0
  1 12  1  0  0  0  0
  2 10  1  0  0  0  0
  3  8  1  0  0  0  0
  4  2  1  0  0  0  0
  5  2  1  0  0  0  0
  5 11  1  0  0  0  0
  7 13  1  0  0  0  0
  8 14  1  0  0  0  0
  9  6  1  0  0  0  0
  9 14  1  0  0  0  0
 10 15  1  0  0  0  0
 10  6  1  0  0  0  0
 11  3  1  0  0  0  0
 11  9  1  0  0  0  0
 12  4  1  0  0  0  0
 13  5  1  0  0  0  0
 14 42  1  0  0  0  0
 15 16  1  0  0  0  0
 16 19  1  0  0  0  0
 16 17  2  0  0  0  0
 18 21  1  0  0  0  0
 20 19  1  0  0  0  0
 21 19  1  0  0  0  0
 22 18  2  0  0  0  0
 22 20  1  0  0  0  0
 23 18  1  0  0  0  0
 24 23  1  0  0  0  0
 25 33  1  0  0  0  0
 25 30  1  0  0  0  0
 26 25  1  0  0  0  0
 26 29  1  0  0  0  0
 27 24  1  0  0  0  0
 29 27  1  0  0  0  0
 30 27  1  0  0  0  0
 30 28  2  0  0  0  0
 33 31  2  0  0  0  0
 33 32  1  0  0  0  0
 34 35  1  0  0  0  0
 36 37  1  0  0  0  0
 36  4  1  0  0  0  0
 38 37  1  0  0  0  0
 38 41  1  0  0  0  0
 39 38  1  0  0  0  0
 40 38  2  0  0  0  0
 42 44  1  0  0  0  0
 43 47  1  0  0  0  0
 44 45  1  0  0  0  0
 44 43  1  0  0  0  0
 45 43  1  0  0  0  0
 46 58  1  0  0  0  0
 46 48  2  0  0  0  0
 47 46  1  0  0  0  0
 50 60  1  0  0  0  0
 50 57  1  0  0  0  0
 51 53  1  0  0  0  0
 51 54  1  0  0  0  0
 52 54  1  0  0  0  0
 53 49  1  0  0  0  0
 55 49  1  0  0  0  0
 56 52  1  0  0  0  0
 57 58  1  0  0  0  0
 57 53  1  0  0  0  0
 58 55  1  0  0  0  0
 59 56  1  0  0  0  0
 59 60  1  0  0  0  0
 60 51  1  0  0  0  0
M  END
>  <MODEL>
4

>  <REMARK>
 VINA RESULT:      -7.3      3.160      8.758
  Name = 
  14 active torsions:
  status: ('A' for Active; 'I' for Inactive)
    1  A    between atoms: C_1  and  C_44
    2  A    between atoms: P_2  and  C_9
    3  A    between atoms: C_5  and  N_43
    4  A    between atoms: C_7  and  C_22
    5  A    between atoms: N_8  and  C_48
    6  A    between atoms: C_9  and  O_35
    7  A    between atoms: C_10  and  C_57
    8  A    between atoms: C_13  and  O_46
    9  A    between atoms: C_16  and  C_33
   10  A    between atoms: C_18  and  C_27
   11  A    between atoms: C_19  and  O_35
   12  A    between atoms: O_23  and  C_28
   13  A    between atoms: O_23  and  O_46
   14  A    between atoms: C_56  and  C_57
                            x       y       z     vdW  Elec       q    Type
                         _______ _______ _______ _____ _____    ______ ____

>  <TORSDO>
F 14

$$$$
=
 OpenBabel11032421313D

 60 68  0  0  1  0  0  0  0  0999 V2000
  187.4500  177.7010  146.2200 C   0  0  2  0  0  3  0  0  0  0  0  0
  186.5510  178.7990  143.2440 C   0  0  2  0  0  3  0  0  0  0  0  0
  182.9530  179.3150  144.6130 C   0  0  0  0  0  2  0  0  0  0  0  0
  187.8040  178.0260  143.7130 C   0  0  2  0  0  3  0  0  0  0  0  0
  185.3810  178.7940  144.2480 C   0  0  2  0  0  3  0  0  0  0  0  0
  184.6850  177.9570  141.7090 C   0  0  0  0  0  2  0  0  0  0  0  0
  186.0500  178.2850  146.4250 C   0  0  0  0  0  2  0  0  0  0  0  0
  181.7630  179.0180  143.7230 C   0  0  0  0  0  2  0  0  0  0  0  0
  183.7230  178.9890  142.3020 C   0  0  2  0  0  3  0  0  0  0  0  0
  186.1130  178.4860  141.7880 C   0  0  2  0  0  3  0  0  0  0  0  0
  184.1470  179.5140  143.6900 C   0  0  1  0  0  3  0  0  0  0  0  0
  187.5720  177.0280  144.8540 C   0  0  0  0  0  2  0  0  0  0  0  0
  185.8030  179.3850  145.5090 N   0  0  0  0  0  2  0  0  0  0  0  0
  182.3500  178.3790  142.4810 C   0  0  2  0  0  3  0  0  0  0  0  0
  187.0290  177.5780  141.1020 N   0  0  0  0  0  2  0  0  0  0  0  0
  188.0660  178.0660  140.2460 C   0  0  0  0  0  0  0  0  0  0  0  0
  188.1470  179.3020  139.9820 O   0  0  0  0  0  0  0  0  0  0  0  0
  191.3460  177.1670  139.9540 C   0  0  0  0  0  0  0  0  0  0  0  0
  189.0230  177.0990  139.6290 C   0  0  2  0  0  3  0  0  0  0  0  0
  189.5140  176.1590  140.6250 N   0  0  0  0  0  2  0  0  0  0  0  0
  190.2820  177.8240  139.1450 C   0  0  0  0  0  2  0  0  0  0  0  0
  190.8970  176.2640  140.7500 N   0  0  0  0  0  0  0  0  0  0  0  0
  192.6980  177.4860  139.8820 O   0  0  0  0  0  0  0  0  0  0  0  0
  193.3550  177.4030  138.7160 O   0  0  0  0  0  0  0  0  0  0  0  0
  194.4670  175.0650  136.5470 C   0  0  2  0  0  3  0  0  0  0  0  0
  195.1990  174.7640  137.7710 N   0  0  0  0  0  2  0  0  0  0  0  0
  193.4690  176.0330  138.4650 C   0  0  2  0  0  3  0  0  0  0  0  0
  192.3600  176.1580  136.3540 O   0  0  0  0  0  0  0  0  0  0  0  0
  194.7840  175.6180  138.7750 O   0  0  0  0  0  0  0  0  0  0  0  0
  193.2980  175.7750  137.0350 C   0  0  0  0  0  0  0  0  0  0  0  0
  192.9170  173.1360  136.1850 O   0  0  0  0  0  1  0  0  0  0  0  0
  194.8090  173.3350  134.9030 O   0  0  0  0  0  0  0  0  0  0  0  0
  194.0840  173.8010  135.8270 C   0  0  0  0  0  0  0  0  0  0  0  0
  187.7250  176.6620  147.2920 C   0  0  0  0  0  2  0  0  0  0  0  0
  188.2430  177.3240  148.5540 C   0  0  0  0  0  1  0  0  0  0  0  0
  188.8400  178.9100  144.0180 O   0  0  0  0  0  0  0  0  0  0  0  0
  189.9150  178.4820  143.2340 C   0  0  0  0  0  2  0  0  0  0  0  0
  191.3020  178.0230  144.3080 P   0  0  0  0  0  0  0  0  0  0  0  0
  192.4250  179.2880  144.3600 O   0  0  0  0  0  1  0  0  0  0  0  0
  190.7870  177.7560  145.7020 O   0  0  0  0  0  1  0  0  0  0  0  0
  192.0570  176.6300  143.7040 O   0  0  0  0  0  0  0  0  0  0  0  0
  181.4600  178.5600  141.2550 C   0  0  0  0  0  2  0  0  0  0  0  0
  179.5520  177.1180  140.3020 C   0  0  1  0  0  3  0  0  0  0  0  0
  180.0520  177.9950  141.4550 C   0  0  2  0  0  3  0  0  0  0  0  0
  179.1320  178.5730  140.3970 C   0  0  0  0  0  2  0  0  0  0  0  0
  181.0580  175.6730  138.8640 C   0  0  0  0  0  0  0  0  0  0  0  0
  180.5540  176.9520  139.2510 N   0  0  0  0  0  2  0  0  0  0  0  0
  180.6640  174.6280  139.4570 O   0  0  0  0  0  0  0  0  0  0  0  0
  183.0390  177.5260  136.9140 C   0  0  0  0  0  2  0  0  0  0  0  0
  184.0330  174.2660  137.8460 N   0  0  0  0  0  2  0  0  0  0  0  0
  184.9120  175.9920  136.3760 C   0  0  1  0  0  3  0  0  0  0  0  0
  187.2400  175.7440  135.7900 O   0  0  0  0  0  0  0  0  0  0  0  0
  184.1400  176.6600  137.4840 C   0  0  2  0  0  3  0  0  0  0  0  0
  186.2700  176.6730  136.1860 C   0  0  0  0  0  2  0  0  0  0  0  0
  181.8330  176.7210  136.8110 N   0  0  0  0  0  2  0  0  0  0  0  0
  187.5180  175.0130  136.9440 C   0  0  0  0  0  2  0  0  0  0  0  0
  183.4280  175.5490  138.2030 C   0  0  1  0  0  3  0  0  0  0  0  0
  181.9980  175.5860  137.7120 C   0  0  1  0  0  3  0  0  0  0  0  0
  186.3950  174.0170  137.2290 C   0  0  0  0  0  2  0  0  0  0  0  0
  185.0060  174.5170  136.7870 C   0  0  1  0  0  3  0  0  0  0  0  0
  1  7  1  0  0  0  0
  1 34  1  1  0  0  0
  2  4  1  0  0  0  0
  2  5  1  0  0  0  0
  4 36  1  0  0  0  0
  4 12  1  0  0  0  0
  5 13  1  0  0  0  0
  6 10  1  0  0  0  0
  6  9  1  0  0  0  0
  8  3  1  0  0  0  0
  9 14  1  0  0  0  0
  9 11  1  0  0  0  0
 10  2  1  0  0  0  0
 11  5  1  0  0  0  0
 11  3  1  0  0  0  0
 12  1  1  0  0  0  0
 13  7  1  0  0  0  0
 14  8  1  0  0  0  0
 15 10  1  0  0  0  0
 16 15  1  0  0  0  0
 17 16  2  0  0  0  0
 18 22  2  0  0  0  0
 19 16  1  0  0  0  0
 19 20  1  0  0  0  0
 20 22  1  0  0  0  0
 21 19  1  0  0  0  0
 21 18  1  0  0  0  0
 23 18  1  0  0  0  0
 24 23  1  0  0  0  0
 25 30  1  0  0  0  0
 25 26  1  0  0  0  0
 26 29  1  0  0  0  0
 27 24  1  0  0  0  0
 27 29  1  0  0  0  0
 28 30  2  0  0  0  0
 30 27  1  0  0  0  0
 32 33  2  0  0  0  0
 33 31  1  0  0  0  0
 33 25  1  0  0  0  0
 34 35  1  0  0  0  0
 37 36  1  0  0  0  0
 37 38  1  0  0  0  0
 38 39  1  0  0  0  0
 38 40  1  0  0  0  0
 41 38  2  0  0  0  0
 42 44  1  0  0  0  0
 42 14  1  0  0  0  0
 43 45  1  0  0  0  0
 43 44  1  0  0  0  0
 45 44  1  0  0  0  0
 46 47  1  0  0  0  0
 46 48  2  0  0  0  0
 47 43  1  0  0  0  0
 49 53  1  0  0  0  0
 50 57  1  0  0  0  0
 51 60  1  0  0  0  0
 51 53  1  0  0  0  0
 52 54  1  0  0  0  0
 52 56  1  0  0  0  0
 53 57  1  0  0  0  0
 54 51  1  0  0  0  0
 55 49  1  0  0  0  0
 55 58  1  0  0  0  0
 56 59  1  0  0  0  0
 58 57  1  0  0  0  0
 58 46  1  0  0  0  0
 60 59  1  0  0  0  0
 60 50  1  0  0  0  0
M  END
>  <MODEL>
5

>  <REMARK>
 VINA RESULT:      -7.3      2.706      7.660
  Name = 
  14 active torsions:
  status: ('A' for Active; 'I' for Inactive)
    1  A    between atoms: C_1  and  C_44
    2  A    between atoms: P_2  and  C_9
    3  A    between atoms: C_5  and  N_43
    4  A    between atoms: C_7  and  C_22
    5  A    between atoms: N_8  and  C_48
    6  A    between atoms: C_9  and  O_35
    7  A    between atoms: C_10  and  C_57
    8  A    between atoms: C_13  and  O_46
    9  A    between atoms: C_16  and  C_33
   10  A    between atoms: C_18  and  C_27
   11  A    between atoms: C_19  and  O_35
   12  A    between atoms: O_23  and  C_28
   13  A    between atoms: O_23  and  O_46
   14  A    between atoms: C_56  and  C_57
                            x       y       z     vdW  Elec       q    Type
                         _______ _______ _______ _____ _____    ______ ____

>  <TORSDO>
F 14

$$$$
=
 OpenBabel11032421313D

 60 68  0  0  1  0  0  0  0  0999 V2000
  179.4340  181.0880  139.3100 C   0  0  2  0  0  3  0  0  0  0  0  0
  181.5560  178.5980  139.7190 C   0  0  2  0  0  3  0  0  0  0  0  0
  181.6200  179.3880  143.5220 C   0  0  0  0  0  2  0  0  0  0  0  0
  181.0900  179.3470  138.4500 C   0  0  2  0  0  3  0  0  0  0  0  0
  181.2270  179.3150  141.0440 C   0  0  2  0  0  3  0  0  0  0  0  0
  183.8880  178.6210  140.7730 C   0  0  0  0  0  2  0  0  0  0  0  0
  179.5250  180.8970  140.8260 C   0  0  0  0  0  2  0  0  0  0  0  0
  182.9190  179.2590  144.2920 C   0  0  0  0  0  2  0  0  0  0  0  0
  183.2850  178.2370  142.1270 C   0  0  2  0  0  3  0  0  0  0  0  0
  183.0140  178.0690  139.6520 C   0  0  2  0  0  3  0  0  0  0  0  0
  181.7810  178.5570  142.2570 C   0  0  1  0  0  3  0  0  0  0  0  0
  180.7840  180.8370  138.6410 C   0  0  0  0  0  2  0  0  0  0  0  0
  179.7900  179.5080  141.1630 N   0  0  0  0  0  2  0  0  0  0  0  0
  183.9770  178.9970  143.2390 C   0  0  2  0  0  3  0  0  0  0  0  0
  183.6450  178.3050  138.3550 N   0  0  0  0  0  2  0  0  0  0  0  0
  184.1180  177.2250  137.5460 C   0  0  0  0  0  0  0  0  0  0  0  0
  184.0940  176.0380  137.9870 O   0  0  0  0  0  0  0  0  0  0  0  0
  186.3260  176.1990  135.1530 C   0  0  0  0  0  0  0  0  0  0  0  0
  184.6860  177.5160  136.1950 C   0  0  2  0  0  3  0  0  0  0  0  0
  184.1640  176.5840  135.2090 N   0  0  0  0  0  2  0  0  0  0  0  0
  186.1970  177.2670  136.1840 C   0  0  0  0  0  2  0  0  0  0  0  0
  185.2020  175.8480  134.6390 N   0  0  0  0  0  0  0  0  0  0  0  0
  187.5290  175.6150  134.7710 O   0  0  0  0  0  0  0  0  0  0  0  0
  188.5860  175.6330  135.5950 O   0  0  0  0  0  0  0  0  0  0  0  0
  191.6170  174.1750  135.9070 C   0  0  2  0  0  3  0  0  0  0  0  0
  190.6890  173.0860  136.1880 N   0  0  0  0  0  2  0  0  0  0  0  0
  189.4260  174.6210  135.1220 C   0  0  2  0  0  3  0  0  0  0  0  0
  191.2090  176.1190  134.5940 O   0  0  0  0  0  0  0  0  0  0  0  0
  189.3930  173.5370  136.0290 O   0  0  0  0  0  0  0  0  0  0  0  0
  190.8130  175.0900  135.1170 C   0  0  0  0  0  0  0  0  0  0  0  0
  193.7610  174.5860  134.6860 O   0  0  0  0  0  0  0  0  0  0  0  0
  192.9520  172.4480  134.8820 O   0  0  0  0  0  1  0  0  0  0  0  0
  192.8080  173.6780  135.1330 C   0  0  0  0  0  0  0  0  0  0  0  0
  179.0070  182.5120  139.0060 C   0  0  0  0  0  2  0  0  0  0  0  0
  179.2440  182.8380  137.5440 C   0  0  0  0  0  1  0  0  0  0  0  0
  180.0170  178.6820  137.8560 O   0  0  0  0  0  0  0  0  0  0  0  0
  180.0620  177.3890  138.3830 C   0  0  0  0  0  2  0  0  0  0  0  0
  179.8020  176.1830  137.0530 P   0  0  0  0  0  0  0  0  0  0  0  0
  178.9310  176.9030  135.7940 O   0  0  0  0  0  0  0  0  0  0  0  0
  181.1410  175.7180  136.5320 O   0  0  0  0  0  1  0  0  0  0  0  0
  178.9310  174.8550  137.6470 O   0  0  0  0  0  1  0  0  0  0  0  0
  185.1860  178.2520  143.7980 C   0  0  0  0  0  2  0  0  0  0  0  0
  186.6840  178.4880  145.8780 C   0  0  1  0  0  3  0  0  0  0  0  0
  185.2650  178.3140  145.3250 C   0  0  2  0  0  3  0  0  0  0  0  0
  186.0450  177.1140  145.8280 C   0  0  0  0  0  2  0  0  0  0  0  0
  188.8450  177.7870  144.7550 C   0  0  0  0  0  0  0  0  0  0  0  0
  187.6850  178.6160  144.8200 N   0  0  0  0  0  2  0  0  0  0  0  0
  189.0600  176.9200  145.6500 O   0  0  0  0  0  0  0  0  0  0  0  0
  190.9750  176.0490  142.8550 C   0  0  0  0  0  2  0  0  0  0  0  0
  188.9100  178.5120  141.3880 N   0  0  0  0  0  2  0  0  0  0  0  0
  190.7110  177.0750  140.6120 C   0  0  1  0  0  3  0  0  0  0  0  0
  190.8400  176.8020  138.2180 O   0  0  0  0  0  0  0  0  0  0  0  0
  190.0020  176.3780  141.7450 C   0  0  2  0  0  3  0  0  0  0  0  0
  190.9090  176.1150  139.4360 C   0  0  0  0  0  2  0  0  0  0  0  0
  190.9890  177.1600  143.7930 N   0  0  0  0  0  2  0  0  0  0  0  0
  189.4840  177.0810  138.0500 C   0  0  0  0  0  2  0  0  0  0  0  0
  189.0770  177.4080  142.3310 C   0  0  1  0  0  3  0  0  0  0  0  0
  189.7580  177.9130  143.5840 C   0  0  1  0  0  3  0  0  0  0  0  0
  189.0620  178.2390  138.9530 C   0  0  0  0  0  2  0  0  0  0  0  0
  189.8390  178.2930  140.2830 C   0  0  1  0  0  3  0  0  0  0  0  0
  1 34  1  1  0  0  0
  1  7  1  0  0  0  0
  2  5  1  0  0  0  0
  3  8  1  0  0  0  0
  4 12  1  0  0  0  0
  4  2  1  0  0  0  0
  5 13  1  0  0  0  0
  5 11  1  0  0  0  0
  6  9  1  0  0  0  0
  7 13  1  0  0  0  0
  9 11  1  0  0  0  0
  9 14  1  0  0  0  0
 10  2  1  0  0  0  0
 10  6  1  0  0  0  0
 11  3  1  0  0  0  0
 12  1  1  0  0  0  0
 14 42  1  0  0  0  0
 14  8  1  0  0  0  0
 15 10  1  0  0  0  0
 16 17  2  0  0  0  0
 16 15  1  0  0  0  0
 18 21  1  0  0  0  0
 19 16  1  0  0  0  0
 20 19  1  0  0  0  0
 21 19  1  0  0  0  0
 22 18  2  0  0  0  0
 22 20  1  0  0  0  0
 23 18  1  0  0  0  0
 23 24  1  0  0  0  0
 25 26  1  0  0  0  0
 27 24  1  0  0  0  0
 27 29  1  0  0  0  0
 28 30  2  0  0  0  0
 29 26  1  0  0  0  0
 30 27  1  0  0  0  0
 30 25  1  0  0  0  0
 31 33  2  0  0  0  0
 32 33  1  0  0  0  0
 33 25  1  0  0  0  0
 35 34  1  0  0  0  0
 36 37  1  0  0  0  0
 36  4  1  0  0  0  0
 38 41  1  0  0  0  0
 38 37  1  0  0  0  0
 39 38  2  0  0  0  0
 40 38  1  0  0  0  0
 42 44  1  0  0  0  0
 44 45  1  0  0  0  0
 44 43  1  0  0  0  0
 45 43  1  0  0  0  0
 46 47  1  0  0  0  0
 46 48  2  0  0  0  0
 47 43  1  0  0  0  0
 49 55  1  0  0  0  0
 50 57  1  0  0  0  0
 51 53  1  0  0  0  0
 52 54  1  0  0  0  0
 53 57  1  0  0  0  0
 53 49  1  0  0  0  0
 54 51  1  0  0  0  0
 56 52  1  0  0  0  0
 56 59  1  0  0  0  0
 57 58  1  0  0  0  0
 58 55  1  0  0  0  0
 58 46  1  0  0  0  0
 59 60  1  0  0  0  0
 60 51  1  0  0  0  0
 60 50  1  0  0  0  0
M  END
>  <MODEL>
6

>  <REMARK>
 VINA RESULT:      -6.8      2.435      3.516
  Name = 
  14 active torsions:
  status: ('A' for Active; 'I' for Inactive)
    1  A    between atoms: C_1  and  C_44
    2  A    between atoms: P_2  and  C_9
    3  A    between atoms: C_5  and  N_43
    4  A    between atoms: C_7  and  C_22
    5  A    between atoms: N_8  and  C_48
    6  A    between atoms: C_9  and  O_35
    7  A    between atoms: C_10  and  C_57
    8  A    between atoms: C_13  and  O_46
    9  A    between atoms: C_16  and  C_33
   10  A    between atoms: C_18  and  C_27
   11  A    between atoms: C_19  and  O_35
   12  A    between atoms: O_23  and  C_28
   13  A    between atoms: O_23  and  O_46
   14  A    between atoms: C_56  and  C_57
                            x       y       z     vdW  Elec       q    Type
                         _______ _______ _______ _____ _____    ______ ____

>  <TORSDO>
F 14

$$$$
=
 OpenBabel11032421313D

 60 68  0  0  1  0  0  0  0  0999 V2000
  189.2600  177.6940  141.4760 C   0  0  2  0  0  3  0  0  0  0  0  0
  188.5440  177.3070  138.2810 C   0  0  2  0  0  3  0  0  0  0  0  0
  184.9320  178.5230  139.0300 C   0  0  0  0  0  2  0  0  0  0  0  0
  189.7300  176.8010  139.1310 C   0  0  2  0  0  3  0  0  0  0  0  0
  187.3370  177.8110  139.0980 C   0  0  2  0  0  3  0  0  0  0  0  0
  186.6930  175.9110  137.1990 C   0  0  0  0  0  2  0  0  0  0  0  0
  187.8900  178.3530  141.3000 C   0  0  0  0  0  2  0  0  0  0  0  0
  183.7620  177.8860  138.3080 C   0  0  0  0  0  2  0  0  0  0  0  0
  185.7710  177.1320  137.1860 C   0  0  2  0  0  3  0  0  0  0  0  0
  188.1450  176.3670  137.1120 C   0  0  2  0  0  3  0  0  0  0  0  0
  186.1700  178.2290  138.1950 C   0  0  1  0  0  3  0  0  0  0  0  0
  189.3960  176.4580  140.5880 C   0  0  0  0  0  2  0  0  0  0  0  0
  187.7440  178.9070  139.9640 N   0  0  0  0  0  2  0  0  0  0  0  0
  184.3580  176.7220  137.5420 C   0  0  2  0  0  3  0  0  0  0  0  0
  189.0330  175.2140  136.9830 N   0  0  0  0  0  2  0  0  0  0  0  0
  189.9930  175.1230  135.9280 C   0  0  0  0  0  0  0  0  0  0  0  0
  190.0250  176.0010  135.0150 O   0  0  0  0  0  0  0  0  0  0  0  0
  193.2660  174.1530  135.9360 C   0  0  0  0  0  0  0  0  0  0  0  0
  190.9280  173.9580  135.8860 C   0  0  2  0  0  3  0  0  0  0  0  0
  191.5170  173.7280  137.1950 N   0  0  0  0  0  2  0  0  0  0  0  0
  192.1260  174.2640  134.9830 C   0  0  0  0  0  2  0  0  0  0  0  0
  192.9030  173.8590  137.1330 N   0  0  0  0  0  0  0  0  0  0  0  0
  194.6000  174.3510  135.5930 O   0  0  0  0  0  0  0  0  0  0  0  0
  195.5760  173.7430  136.2820 O   0  0  0  0  0  0  0  0  0  0  0  0
  197.9170  174.4670  138.6080 C   0  0  2  0  0  3  0  0  0  0  0  0
  198.1720  175.4450  137.5580 N   0  0  0  0  0  2  0  0  0  0  0  0
  196.0750  174.7270  137.1400 C   0  0  2  0  0  3  0  0  0  0  0  0
  195.8590  173.3700  139.0930 O   0  0  0  0  0  0  0  0  0  0  0  0
  197.2290  175.3010  136.5590 O   0  0  0  0  0  0  0  0  0  0  0  0
  196.5250  174.1130  138.3900 C   0  0  0  0  0  0  0  0  0  0  0  0
  197.1450  175.8980  140.5080 O   0  0  0  0  0  0  0  0  0  0  0  0
  199.1800  174.8470  140.6260 O   0  0  0  0  0  1  0  0  0  0  0  0
  198.1260  175.0740  139.9690 C   0  0  0  0  0  0  0  0  0  0  0  0
  189.4320  177.2660  142.9220 C   0  0  0  0  0  2  0  0  0  0  0  0
  190.0650  178.3790  143.7340 C   0  0  0  0  0  1  0  0  0  0  0  0
  190.8030  177.6890  139.0540 O   0  0  0  0  0  0  0  0  0  0  0  0
  191.8940  176.8990  138.6830 C   0  0  0  0  0  2  0  0  0  0  0  0
  193.2510  177.1490  139.8590 P   0  0  0  0  0  0  0  0  0  0  0  0
  194.3900  175.9100  139.6880 O   0  0  0  0  0  1  0  0  0  0  0  0
  193.9150  178.4770  139.5810 O   0  0  0  0  0  0  0  0  0  0  0  0
  192.6450  177.1360  141.4430 O   0  0  0  0  0  1  0  0  0  0  0  0
  183.5290  176.3400  136.3190 C   0  0  0  0  0  2  0  0  0  0  0  0
  182.0720  174.2750  136.8060 C   0  0  1  0  0  3  0  0  0  0  0  0
  183.3520  174.8280  136.1710 C   0  0  2  0  0  3  0  0  0  0  0  0
  183.3930  174.1890  137.5470 C   0  0  0  0  0  2  0  0  0  0  0  0
  180.0930  175.0420  138.1920 C   0  0  0  0  0  0  0  0  0  0  0  0
  181.2370  175.3260  137.3870 N   0  0  0  0  0  2  0  0  0  0  0  0
  179.7430  173.8450  138.4030 O   0  0  0  0  0  0  0  0  0  0  0  0
  179.9180  176.8280  141.0100 C   0  0  0  0  0  2  0  0  0  0  0  0
  179.4310  178.4090  137.8880 N   0  0  0  0  0  2  0  0  0  0  0  0
  179.2790  179.0900  140.2170 C   0  0  1  0  0  3  0  0  0  0  0  0
  179.3410  181.4740  140.5890 O   0  0  0  0  0  0  0  0  0  0  0  0
  180.2970  177.9840  140.1110 C   0  0  2  0  0  3  0  0  0  0  0  0
  179.8340  180.2470  141.0510 C   0  0  0  0  0  2  0  0  0  0  0  0
  179.1050  175.9010  140.2420 N   0  0  0  0  0  2  0  0  0  0  0  0
  180.0340  181.7040  139.4010 C   0  0  0  0  0  2  0  0  0  0  0  0
  180.1630  177.4490  138.7130 C   0  0  1  0  0  3  0  0  0  0  0  0
  179.3620  176.1720  138.8320 C   0  0  1  0  0  3  0  0  0  0  0  0
  179.4760  180.8310  138.2790 C   0  0  0  0  0  2  0  0  0  0  0  0
  178.9480  179.4690  138.7670 C   0  0  1  0  0  3  0  0  0  0  0  0
  1 34  1  1  0  0  0
  2  5  1  0  0  0  0
  2  4  1  0  0  0  0
  4 12  1  0  0  0  0
  5 13  1  0  0  0  0
  7  1  1  0  0  0  0
  8  3  1  0  0  0  0
  9  6  1  0  0  0  0
  9 14  1  0  0  0  0
  9 11  1  0  0  0  0
 10  6  1  0  0  0  0
 10  2  1  0  0  0  0
 11  3  1  0  0  0  0
 11  5  1  0  0  0  0
 12  1  1  0  0  0  0
 13  7  1  0  0  0  0
 14  8  1  0  0  0  0
 15 10  1  0  0  0  0
 16 15  1  0  0  0  0
 17 16  2  0  0  0  0
 18 22  2  0  0  0  0
 19 16  1  0  0  0  0
 19 20  1  0  0  0  0
 21 19  1  0  0  0  0
 21 18  1  0  0  0  0
 22 20  1  0  0  0  0
 23 18  1  0  0  0  0
 23 24  1  0  0  0  0
 24 27  1  0  0  0  0
 25 33  1  0  0  0  0
 26 25  1  0  0  0  0
 27 30  1  0  0  0  0
 29 27  1  0  0  0  0
 29 26  1  0  0  0  0
 30 25  1  0  0  0  0
 30 28  2  0  0  0  0
 33 31  2  0  0  0  0
 33 32  1  0  0  0  0
 34 35  1  0  0  0  0
 36  4  1  0  0  0  0
 37 36  1  0  0  0  0
 37 38  1  0  0  0  0
 38 41  1  0  0  0  0
 39 38  1  0  0  0  0
 40 38  2  0  0  0  0
 42 14  1  0  0  0  0
 43 47  1  0  0  0  0
 43 45  1  0  0  0  0
 44 42  1  0  0  0  0
 44 43  1  0  0  0  0
 44 45  1  0  0  0  0
 46 48  2  0  0  0  0
 46 58  1  0  0  0  0
 47 46  1  0  0  0  0
 50 57  1  0  0  0  0
 50 60  1  0  0  0  0
 51 54  1  0  0  0  0
 52 54  1  0  0  0  0
 53 51  1  0  0  0  0
 53 49  1  0  0  0  0
 55 49  1  0  0  0  0
 56 52  1  0  0  0  0
 57 58  1  0  0  0  0
 57 53  1  0  0  0  0
 58 55  1  0  0  0  0
 59 60  1  0  0  0  0
 59 56  1  0  0  0  0
 60 51  1  0  0  0  0
M  END
>  <MODEL>
7

>  <REMARK>
 VINA RESULT:      -6.6      3.712      8.883
  Name = 
  14 active torsions:
  status: ('A' for Active; 'I' for Inactive)
    1  A    between atoms: C_1  and  C_44
    2  A    between atoms: P_2  and  C_9
    3  A    between atoms: C_5  and  N_43
    4  A    between atoms: C_7  and  C_22
    5  A    between atoms: N_8  and  C_48
    6  A    between atoms: C_9  and  O_35
    7  A    between atoms: C_10  and  C_57
    8  A    between atoms: C_13  and  O_46
    9  A    between atoms: C_16  and  C_33
   10  A    between atoms: C_18  and  C_27
   11  A    between atoms: C_19  and  O_35
   12  A    between atoms: O_23  and  C_28
   13  A    between atoms: O_23  and  O_46
   14  A    between atoms: C_56  and  C_57
                            x       y       z     vdW  Elec       q    Type
                         _______ _______ _______ _____ _____    ______ ____

>  <TORSDO>
F 14

$$$$
=
 OpenBabel11032421313D

 60 68  0  0  1  0  0  0  0  0999 V2000
  190.6850  176.9680  144.5300 C   0  0  2  0  0  3  0  0  0  0  0  0
  188.3250  177.0570  142.2300 C   0  0  2  0  0  3  0  0  0  0  0  0
  191.0620  176.5540  139.5210 C   0  0  0  0  0  2  0  0  0  0  0  0
  188.3170  177.4670  143.7190 C   0  0  2  0  0  3  0  0  0  0  0  0
  189.7300  176.8660  141.6250 C   0  0  2  0  0  3  0  0  0  0  0  0
  188.1150  178.5890  140.1910 C   0  0  0  0  0  2  0  0  0  0  0  0
  191.3790  176.5250  143.2400 C   0  0  0  0  0  2  0  0  0  0  0  0
  190.9450  177.2770  138.1940 C   0  0  0  0  0  2  0  0  0  0  0  0
  188.8210  177.5430  139.3250 C   0  0  2  0  0  3  0  0  0  0  0  0
  187.3760  177.8940  141.3300 C   0  0  2  0  0  3  0  0  0  0  0  0
  189.6670  176.5330  140.1280 C   0  0  1  0  0  3  0  0  0  0  0  0
  189.6350  178.0420  144.2500 C   0  0  0  0  0  2  0  0  0  0  0  0
  190.4530  175.8370  142.3570 N   0  0  0  0  0  2  0  0  0  0  0  0
  189.7720  178.2210  138.3620 C   0  0  2  0  0  3  0  0  0  0  0  0
  186.5830  178.8610  142.0850 N   0  0  0  0  0  2  0  0  0  0  0  0
  185.2180  178.6050  142.4270 C   0  0  0  0  0  0  0  0  0  0  0  0
  184.6330  177.5700  141.9900 O   0  0  0  0  0  0  0  0  0  0  0  0
  182.2360  179.3350  143.9180 C   0  0  0  0  0  0  0  0  0  0  0  0
  184.4750  179.5930  143.2650 C   0  0  2  0  0  3  0  0  0  0  0  0
  184.3030  179.0890  144.6180 N   0  0  0  0  0  2  0  0  0  0  0  0
  183.0460  179.7700  142.7460 C   0  0  0  0  0  2  0  0  0  0  0  0
  182.9480  178.9710  144.9230 N   0  0  0  0  0  0  0  0  0  0  0  0
  180.8450  179.3080  143.9460 O   0  0  0  0  0  0  0  0  0  0  0  0
  180.1320  180.1390  143.1740 O   0  0  0  0  0  0  0  0  0  0  0  0
  180.2750  177.7800  140.7600 C   0  0  2  0  0  3  0  0  0  0  0  0
  179.5690  177.1100  141.8450 N   0  0  0  0  0  2  0  0  0  0  0  0
  179.3830  179.3020  142.3420 C   0  0  2  0  0  3  0  0  0  0  0  0
  180.3840  180.1210  140.3350 O   0  0  0  0  0  0  0  0  0  0  0  0
  179.3820  177.9970  142.8870 O   0  0  0  0  0  0  0  0  0  0  0  0
  180.0360  179.1850  141.0380 C   0  0  0  0  0  0  0  0  0  0  0  0
  180.0570  176.1480  138.8780 O   0  0  0  0  0  1  0  0  0  0  0  0
  178.9320  178.1450  138.7910 O   0  0  0  0  0  0  0  0  0  0  0  0
  179.7120  177.3780  139.4240 C   0  0  0  0  0  0  0  0  0  0  0  0
  191.7150  177.5430  145.4850 C   0  0  0  0  0  2  0  0  0  0  0  0
  191.7570  176.7370  146.7690 C   0  0  0  0  0  1  0  0  0  0  0  0
  187.8680  176.4130  144.5160 O   0  0  0  0  0  0  0  0  0  0  0  0
  186.8370  176.9600  145.2840 C   0  0  0  0  0  2  0  0  0  0  0  0
  187.4990  177.5110  146.8800 P   0  0  0  0  0  0  0  0  0  0  0  0
  188.3110  176.2310  147.6330 O   0  0  0  0  0  1  0  0  0  0  0  0
  188.4640  178.6500  146.6550 O   0  0  0  0  0  0  0  0  0  0  0  0
  186.2290  178.0300  147.8770 O   0  0  0  0  0  1  0  0  0  0  0  0
  189.1120  178.5740  137.0320 C   0  0  0  0  0  2  0  0  0  0  0  0
  187.4950  176.8410  136.0270 C   0  0  1  0  0  3  0  0  0  0  0  0
  187.6720  178.0650  136.9320 C   0  0  2  0  0  3  0  0  0  0  0  0
  187.1880  178.2300  135.5030 C   0  0  0  0  0  2  0  0  0  0  0  0
  189.4290  175.2020  135.9700 C   0  0  0  0  0  0  0  0  0  0  0  0
  188.7640  176.3650  135.4770 N   0  0  0  0  0  2  0  0  0  0  0  0
  188.9430  174.5550  136.9410 O   0  0  0  0  0  0  0  0  0  0  0  0
  192.6700  175.9000  135.5610 C   0  0  0  0  0  2  0  0  0  0  0  0
  191.6010  172.5370  135.7490 N   0  0  0  0  0  2  0  0  0  0  0  0
  193.7120  173.6620  135.3130 C   0  0  1  0  0  3  0  0  0  0  0  0
  195.6770  172.2860  135.5860 O   0  0  0  0  0  0  0  0  0  0  0  0
  192.8780  174.5460  136.2040 C   0  0  2  0  0  3  0  0  0  0  0  0
  195.1380  173.5510  135.8580 C   0  0  0  0  0  2  0  0  0  0  0  0
  191.4470  175.8500  134.7780 N   0  0  0  0  0  2  0  0  0  0  0  0
  195.0310  171.4310  136.4780 C   0  0  0  0  0  2  0  0  0  0  0  0
  191.5140  173.9150  136.2300 C   0  0  1  0  0  3  0  0  0  0  0  0
  190.6620  174.7280  135.2810 C   0  0  1  0  0  3  0  0  0  0  0  0
  193.6060  171.1450  136.0060 C   0  0  0  0  0  2  0  0  0  0  0  0
  192.9590  172.3260  135.2580 C   0  0  1  0  0  3  0  0  0  0  0  0
  1 34  1  1  0  0  0
  2  4  1  0  0  0  0
  3 11  1  0  0  0  0
  4 12  1  0  0  0  0
  4 36  1  0  0  0  0
  5  2  1  0  0  0  0
  5 13  1  0  0  0  0
  6 10  1  0  0  0  0
  7  1  1  0  0  0  0
  8 14  1  0  0  0  0
  8  3  1  0  0  0  0
  9 11  1  0  0  0  0
  9  6  1  0  0  0  0
 10 15  1  0  0  0  0
 10  2  1  0  0  0  0
 11  5  1  0  0  0  0
 12  1  1  0  0  0  0
 13  7  1  0  0  0  0
 14  9  1  0  0  0  0
 15 16  1  0  0  0  0
 16 19  1  0  0  0  0
 17 16  2  0  0  0  0
 18 23  1  0  0  0  0
 18 22  2  0  0  0  0
 19 20  1  0  0  0  0
 20 22  1  0  0  0  0
 21 19  1  0  0  0  0
 21 18  1  0  0  0  0
 24 23  1  0  0  0  0
 25 30  1  0  0  0  0
 25 26  1  0  0  0  0
 26 29  1  0  0  0  0
 27 29  1  0  0  0  0
 27 24  1  0  0  0  0
 28 30  2  0  0  0  0
 30 27  1  0  0  0  0
 31 33  1  0  0  0  0
 32 33  2  0  0  0  0
 33 25  1  0  0  0  0
 34 35  1  0  0  0  0
 36 37  1  0  0  0  0
 37 38  1  0  0  0  0
 38 39  1  0  0  0  0
 38 41  1  0  0  0  0
 40 38  2  0  0  0  0
 42 14  1  0  0  0  0
 43 44  1  0  0  0  0
 44 42  1  0  0  0  0
 45 43  1  0  0  0  0
 45 44  1  0  0  0  0
 46 48  2  0  0  0  0
 47 46  1  0  0  0  0
 47 43  1  0  0  0  0
 49 53  1  0  0  0  0
 50 57  1  0  0  0  0
 51 54  1  0  0  0  0
 51 53  1  0  0  0  0
 52 54  1  0  0  0  0
 52 56  1  0  0  0  0
 53 57  1  0  0  0  0
 55 58  1  0  0  0  0
 55 49  1  0  0  0  0
 58 46  1  0  0  0  0
 58 57  1  0  0  0  0
 59 56  1  0  0  0  0
 60 51  1  0  0  0  0
 60 50  1  0  0  0  0
 60 59  1  0  0  0  0
M  END
>  <MODEL>
8

>  <REMARK>
 VINA RESULT:      -6.5      3.217     10.953
  Name = 
  14 active torsions:
  status: ('A' for Active; 'I' for Inactive)
    1  A    between atoms: C_1  and  C_44
    2  A    between atoms: P_2  and  C_9
    3  A    between atoms: C_5  and  N_43
    4  A    between atoms: C_7  and  C_22
    5  A    between atoms: N_8  and  C_48
    6  A    between atoms: C_9  and  O_35
    7  A    between atoms: C_10  and  C_57
    8  A    between atoms: C_13  and  O_46
    9  A    between atoms: C_16  and  C_33
   10  A    between atoms: C_18  and  C_27
   11  A    between atoms: C_19  and  O_35
   12  A    between atoms: O_23  and  C_28
   13  A    between atoms: O_23  and  O_46
   14  A    between atoms: C_56  and  C_57
                            x       y       z     vdW  Elec       q    Type
                         _______ _______ _______ _____ _____    ______ ____

>  <TORSDO>
F 14

$$$$
=
 OpenBabel11032421313D

 60 68  0  0  1  0  0  0  0  0999 V2000
  189.2170  177.6900  141.7890 C   0  0  2  0  0  3  0  0  0  0  0  0
  188.6490  177.4790  138.5490 C   0  0  2  0  0  3  0  0  0  0  0  0
  185.1080  178.9560  139.1590 C   0  0  0  0  0  2  0  0  0  0  0  0
  189.7420  176.8470  139.4380 C   0  0  2  0  0  3  0  0  0  0  0  0
  187.4420  178.0490  139.3220 C   0  0  2  0  0  3  0  0  0  0  0  0
  186.7550  176.2770  137.3170 C   0  0  0  0  0  2  0  0  0  0  0  0
  187.9150  178.4640  141.5700 C   0  0  0  0  0  2  0  0  0  0  0  0
  183.9330  178.4430  138.3520 C   0  0  0  0  0  2  0  0  0  0  0  0
  185.9340  177.5700  137.3060 C   0  0  2  0  0  3  0  0  0  0  0  0
  188.2410  176.6180  137.3230 C   0  0  2  0  0  3  0  0  0  0  0  0
  186.3630  178.5930  138.3780 C   0  0  1  0  0  3  0  0  0  0  0  0
  189.3030  176.4810  140.8600 C   0  0  0  0  0  2  0  0  0  0  0  0
  187.8860  179.0760  140.2520 N   0  0  0  0  0  2  0  0  0  0  0  0
  184.4760  177.2620  137.5720 C   0  0  2  0  0  3  0  0  0  0  0  0
  189.0400  175.4010  137.1940 N   0  0  0  0  0  2  0  0  0  0  0  0
  189.6420  175.0300  135.9510 C   0  0  0  0  0  0  0  0  0  0  0  0
  189.4080  175.7000  134.9020 O   0  0  0  0  0  0  0  0  0  0  0  0
  192.8580  173.8850  135.9260 C   0  0  0  0  0  0  0  0  0  0  0  0
  190.5120  173.8170  135.8920 C   0  0  2  0  0  3  0  0  0  0  0  0
  191.0980  173.5440  137.1940 N   0  0  0  0  0  2  0  0  0  0  0  0
  191.7190  174.0660  134.9830 C   0  0  0  0  0  2  0  0  0  0  0  0
  192.4880  173.6000  137.1230 N   0  0  0  0  0  0  0  0  0  0  0  0
  194.1980  174.0140  135.5750 O   0  0  0  0  0  0  0  0  0  0  0  0
  195.1550  173.4480  136.3250 O   0  0  0  0  0  0  0  0  0  0  0  0
  197.7900  174.3970  138.2130 C   0  0  2  0  0  3  0  0  0  0  0  0
  197.8890  175.2570  137.0410 N   0  0  0  0  0  2  0  0  0  0  0  0
  195.7600  174.5140  136.9960 C   0  0  2  0  0  3  0  0  0  0  0  0
  195.8280  173.3730  139.0930 O   0  0  0  0  0  0  0  0  0  0  0  0
  196.8170  175.0150  136.2030 O   0  0  0  0  0  0  0  0  0  0  0  0
  196.3840  174.0330  138.2300 C   0  0  0  0  0  0  0  0  0  0  0  0
  197.4280  174.9840  140.6180 O   0  0  0  0  0  1  0  0  0  0  0  0
  199.1800  175.9160  139.4680 O   0  0  0  0  0  0  0  0  0  0  0  0
  198.1800  175.1440  139.4600 C   0  0  0  0  0  0  0  0  0  0  0  0
  189.2750  177.1970  143.2230 C   0  0  0  0  0  2  0  0  0  0  0  0
  188.0350  176.3920  143.5590 C   0  0  0  0  0  1  0  0  0  0  0  0
  190.8850  177.6480  139.4520 O   0  0  0  0  0  0  0  0  0  0  0  0
  191.8430  176.8900  140.1320 C   0  0  0  0  0  2  0  0  0  0  0  0
  193.4770  177.1830  139.4020 P   0  0  0  0  0  0  0  0  0  0  0  0
  193.4560  176.7520  137.7660 O   0  0  0  0  0  0  0  0  0  0  0  0
  193.8240  178.6480  139.5270 O   0  0  0  0  0  1  0  0  0  0  0  0
  194.6400  176.2520  140.2100 O   0  0  0  0  0  1  0  0  0  0  0  0
  183.6870  176.9940  136.2940 C   0  0  0  0  0  2  0  0  0  0  0  0
  181.5030  175.6610  136.5730 C   0  0  1  0  0  3  0  0  0  0  0  0
  183.0090  175.6230  136.2930 C   0  0  2  0  0  3  0  0  0  0  0  0
  182.4800  175.3320  137.6850 C   0  0  0  0  0  2  0  0  0  0  0  0
  179.8860  177.3400  137.5710 C   0  0  0  0  0  0  0  0  0  0  0  0
  180.9990  177.0240  136.7340 N   0  0  0  0  0  2  0  0  0  0  0  0
  179.2720  176.4210  138.1850 O   0  0  0  0  0  0  0  0  0  0  0  0
  180.8010  180.1370  139.1510 C   0  0  0  0  0  2  0  0  0  0  0  0
  179.4570  180.3140  135.8880 N   0  0  0  0  0  2  0  0  0  0  0  0
  180.1360  181.9320  137.5720 C   0  0  1  0  0  3  0  0  0  0  0  0
  180.5240  184.1650  136.7440 O   0  0  0  0  0  0  0  0  0  0  0  0
  180.9630  180.6840  137.7500 C   0  0  2  0  0  3  0  0  0  0  0  0
  181.0320  183.1720  137.5910 C   0  0  0  0  0  2  0  0  0  0  0  0
  179.7030  179.1850  139.1440 N   0  0  0  0  0  2  0  0  0  0  0  0
  180.8070  183.7070  135.4580 C   0  0  0  0  0  2  0  0  0  0  0  0
  180.3330  179.6550  136.8550 C   0  0  1  0  0  3  0  0  0  0  0  0
  179.5070  178.7680  137.7610 C   0  0  1  0  0  3  0  0  0  0  0  0
  179.8380  182.5940  135.0620 C   0  0  0  0  0  2  0  0  0  0  0  0
  179.3830  181.7260  136.2510 C   0  0  1  0  0  3  0  0  0  0  0  0
  1 34  1  1  0  0  0
  2  5  1  0  0  0  0
  2  4  1  0  0  0  0
  4 36  1  0  0  0  0
  4 12  1  0  0  0  0
  5 13  1  0  0  0  0
  6 10  1  0  0  0  0
  7  1  1  0  0  0  0
  8  3  1  0  0  0  0
  9  6  1  0  0  0  0
  9 14  1  0  0  0  0
  9 11  1  0  0  0  0
 10  2  1  0  0  0  0
 11  3  1  0  0  0  0
 11  5  1  0  0  0  0
 12  1  1  0  0  0  0
 13  7  1  0  0  0  0
 14  8  1  0  0  0  0
 15 10  1  0  0  0  0
 16 15  1  0  0  0  0
 17 16  2  0  0  0  0
 18 22  2  0  0  0  0
 19 16  1  0  0  0  0
 19 20  1  0  0  0  0
 21 19  1  0  0  0  0
 21 18  1  0  0  0  0
 22 20  1  0  0  0  0
 23 18  1  0  0  0  0
 23 24  1  0  0  0  0
 24 27  1  0  0  0  0
 25 30  1  0  0  0  0
 25 33  1  0  0  0  0
 26 25  1  0  0  0  0
 27 30  1  0  0  0  0
 29 27  1  0  0  0  0
 29 26  1  0  0  0  0
 30 28  2  0  0  0  0
 33 32  2  0  0  0  0
 33 31  1  0  0  0  0
 34 35  1  0  0  0  0
 36 37  1  0  0  0  0
 38 40  1  0  0  0  0
 38 37  1  0  0  0  0
 38 41  1  0  0  0  0
 39 38  2  0  0  0  0
 42 14  1  0  0  0  0
 43 47  1  0  0  0  0
 43 45  1  0  0  0  0
 44 42  1  0  0  0  0
 44 43  1  0  0  0  0
 44 45  1  0  0  0  0
 46 58  1  0  0  0  0
 46 48  2  0  0  0  0
 47 46  1  0  0  0  0
 50 60  1  0  0  0  0
 50 57  1  0  0  0  0
 51 54  1  0  0  0  0
 51 53  1  0  0  0  0
 52 54  1  0  0  0  0
 53 49  1  0  0  0  0
 55 49  1  0  0  0  0
 56 52  1  0  0  0  0
 57 53  1  0  0  0  0
 57 58  1  0  0  0  0
 58 55  1  0  0  0  0
 59 56  1  0  0  0  0
 59 60  1  0  0  0  0
 60 51  1  0  0  0  0
M  END
>  <MODEL>
9

>  <REMARK>
 VINA RESULT:      -6.4      3.680      9.159
  Name = 
  14 active torsions:
  status: ('A' for Active; 'I' for Inactive)
    1  A    between atoms: C_1  and  C_44
    2  A    between atoms: P_2  and  C_9
    3  A    between atoms: C_5  and  N_43
    4  A    between atoms: C_7  and  C_22
    5  A    between atoms: N_8  and  C_48
    6  A    between atoms: C_9  and  O_35
    7  A    between atoms: C_10  and  C_57
    8  A    between atoms: C_13  and  O_46
    9  A    between atoms: C_16  and  C_33
   10  A    between atoms: C_18  and  C_27
   11  A    between atoms: C_19  and  O_35
   12  A    between atoms: O_23  and  C_28
   13  A    between atoms: O_23  and  O_46
   14  A    between atoms: C_56  and  C_57
                            x       y       z     vdW  Elec       q    Type
                         _______ _______ _______ _____ _____    ______ ____

>  <TORSDO>
F 14

$$$$
