=
 OpenBabel11042412523D

 43 49  0  0  1  0  0  0  0  0999 V2000
  186.9880  178.7750  143.5020 C   0  0  0  0  0  2  0  0  0  0  0  0
  187.9370  178.8170  141.1250 C   0  0  1  0  0  3  0  0  0  0  0  0
  182.6680  177.2050  138.1490 C   0  0  0  0  0  0  0  0  0  0  0  0
  181.6250  176.8370  135.9500 C   0  0  0  0  0  2  0  0  0  0  0  0
  188.7590  176.6390  139.8980 C   0  0  0  0  0  2  0  0  0  0  0  0
  181.6660  177.3470  137.3220 N   0  0  0  0  0  0  0  0  0  0  0  0
  182.3750  173.1240  136.9270 C   0  0  0  0  0  1  0  0  0  0  0  0
  183.7930  175.2740  137.0650 C   0  0  0  0  0  0  0  0  0  0  0  0
  184.9960  174.6340  136.3800 C   0  0  1  0  0  3  0  0  0  0  0  0
  184.4560  179.1290  140.3900 C   0  0  2  0  0  0  0  0  0  0  0  0
  187.2840  178.0370  142.2520 C   0  0  2  0  0  0  0  0  0  0  0  0
  184.2280  180.0570  139.3710 O   0  0  0  0  0  1  0  0  0  0  0  0
  190.1380  177.7830  138.2470 C   0  0  1  0  0  3  0  0  0  0  0  0
  186.9260  176.1530  136.9550 C   0  0  1  0  0  3  0  0  0  0  0  0
  184.5830  173.8080  135.3250 O   0  0  0  0  0  1  0  0  0  0  0  0
  187.5200  177.4470  136.6330 N   0  0  0  0  0  2  0  0  0  0  0  0
  183.5810  177.8730  140.4770 C   0  0  2  0  0  3  0  0  0  0  0  0
  189.7170  176.4010  138.7430 C   0  0  0  0  0  2  0  0  0  0  0  0
  189.0370  178.0590  140.3550 C   0  0  1  0  0  3  0  0  0  0  0  0
  188.8390  177.1820  136.0740 C   0  0  1  0  0  3  0  0  0  0  0  0
  181.5200  175.3120  135.9050 C   0  0  2  0  0  3  0  0  0  0  0  0
  182.5710  177.8550  139.4230 N   0  0  0  0  0  2  0  0  0  0  0  0
  188.8270  177.5010  134.5940 C   0  0  0  0  0  1  0  0  0  0  0  0
  186.2670  176.2130  138.2580 N   0  0  0  0  0  2  0  0  0  0  0  0
  183.2770  179.0760  141.3420 C   0  0  0  0  0  2  0  0  0  0  0  0
  189.9080  178.0430  136.7500 C   0  0  0  0  0  2  0  0  0  0  0  0
  186.5040  178.2750  140.9640 C   0  0  1  0  0  3  0  0  0  0  0  0
  187.7310  176.7400  142.5030 O   0  0  0  0  0  0  0  0  0  0  0  0
  189.4090  178.8040  139.0950 C   0  0  0  0  0  2  0  0  0  0  0  0
  187.3250  176.4740  143.7450 O   0  0  0  0  0  0  0  0  0  0  0  0
  186.7340  175.1700  134.7870 O   0  0  0  0  0  1  0  0  0  0  0  0
  182.4180  174.6480  136.9480 C   0  0  1  0  0  3  0  0  0  0  0  0
  185.6090  179.3370  141.1630 O   0  0  0  0  0  0  0  0  0  0  0  0
  185.1240  176.9810  138.1510 O   0  0  0  0  0  0  0  0  0  0  0  0
  187.3810  177.6910  144.4650 C   0  0  2  0  0  3  0  0  0  0  0  0
  181.8470  174.8760  134.6350 F   0  0  0  0  0  0  0  0  0  0  0  0
  185.9770  175.6890  135.8460 C   0  0  1  0  0  3  0  0  0  0  0  0
  183.8890  176.4360  137.7700 C   0  0  0  0  0  0  0  0  0  0  0  0
  187.1630  177.3130  146.8130 O   0  0  0  0  0  1  0  0  0  0  0  0
  186.4350  177.6300  145.6630 C   0  0  1  0  0  3  0  0  0  0  0  0
  184.5100  179.1560  145.4100 C   0  0  0  0  0  3  0  0  0  0  0  0
  185.7360  178.9360  145.8720 C   0  0  0  0  0  3  0  0  0  0  0  0
  183.8130  178.1830  144.7060 O   0  0  0  0  0  1  0  0  0  0  0  0
  1 35  1  0  0  0  0
  2 11  1  0  0  0  0
  3 22  1  0  0  0  0
  4  6  1  0  0  0  0
  5 19  1  0  0  0  0
  6  3  2  0  0  0  0
  7 32  1  0  0  0  0
  8 38  2  0  0  0  0
  9  8  1  0  0  0  0
 10 17  1  0  0  0  0
 10 33  1  0  0  0  0
 10 25  1  0  0  0  0
 11 28  1  0  0  0  0
 11  1  1  0  0  0  0
 12 10  1  0  0  0  0
 13 18  1  0  0  0  0
 13 29  1  0  0  0  0
 14 24  1  0  0  0  0
 15  9  1  0  0  0  0
 16 14  1  0  0  0  0
 17 25  1  0  0  0  0
 18  5  1  0  0  0  0
 19  2  1  0  0  0  0
 20 16  1  0  0  0  0
 20 26  1  0  0  0  0
 21  4  1  0  0  0  0
 21 32  1  0  0  0  0
 22 17  1  0  0  0  0
 23 20  1  0  0  0  0
 26 13  1  0  0  0  0
 27  2  1  0  0  0  0
 27 33  1  0  0  0  0
 27 11  1  0  0  0  0
 28 30  1  0  0  0  0
 29 19  1  0  0  0  0
 30 35  1  0  0  0  0
 31 37  1  0  0  0  0
 32  8  1  0  0  0  0
 34 24  1  0  0  0  0
 35 40  1  0  0  0  0
 36 21  1  0  0  0  0
 37  9  1  0  0  0  0
 37 14  1  0  0  0  0
 38  3  1  0  0  0  0
 38 34  1  0  0  0  0
 40 42  1  0  0  0  0
 40 39  1  0  0  0  0
 41 42  2  0  0  0  0
 43 41  1  0  0  0  0
M  END
>  <MODEL>
1

>  <REMARK>
 VINA RESULT:      -6.2      0.000      0.000
  Name = 
  2 active torsions:
  status: ('A' for Active; 'I' for Inactive)
    1  A    between atoms: C_10  and  C_24
    2  A    between atoms: C_10  and  C_40
                            x       y       z     vdW  Elec       q    Type
                         _______ _______ _______ _____ _____    ______ ____

>  <TORSDO>
F 2

$$$$
=
 OpenBabel11042412523D

 43 49  0  0  1  0  0  0  0  0999 V2000
  189.1800  174.0680  135.5030 C   0  0  0  0  0  2  0  0  0  0  0  0
  186.6760  173.7160  135.1010 C   0  0  1  0  0  3  0  0  0  0  0  0
  184.6620  178.7570  138.2230 C   0  0  0  0  0  0  0  0  0  0  0  0
  182.6880  180.0880  138.8460 C   0  0  0  0  0  2  0  0  0  0  0  0
  185.1140  172.5560  136.8740 C   0  0  0  0  0  2  0  0  0  0  0  0
  184.0660  179.9090  138.3850 N   0  0  0  0  0  0  0  0  0  0  0  0
  183.1480  178.0510  142.1530 C   0  0  0  0  0  1  0  0  0  0  0  0
  183.2030  177.3610  139.6680 C   0  0  0  0  0  0  0  0  0  0  0  0
  182.2380  176.1980  139.8770 C   0  0  1  0  0  3  0  0  0  0  0  0
  186.6750  177.1990  135.8910 C   0  0  2  0  0  0  0  0  0  0  0  0
  187.8320  173.8390  136.0770 C   0  0  2  0  0  0  0  0  0  0  0  0
  185.8110  177.9140  135.0560 O   0  0  0  0  0  1  0  0  0  0  0  0
  183.3370  171.9830  135.3090 C   0  0  1  0  0  3  0  0  0  0  0  0
  182.5590  174.7460  137.8390 C   0  0  1  0  0  3  0  0  0  0  0  0
  181.2130  176.5590  140.7620 O   0  0  0  0  0  1  0  0  0  0  0  0
  182.2470  174.6580  136.4160 N   0  0  0  0  0  2  0  0  0  0  0  0
  186.8160  177.6090  137.3600 C   0  0  2  0  0  3  0  0  0  0  0  0
  183.7760  171.8450  136.7650 C   0  0  0  0  0  2  0  0  0  0  0  0
  185.6370  172.6310  135.4510 C   0  0  1  0  0  3  0  0  0  0  0  0
  181.4170  173.4750  136.2340 C   0  0  1  0  0  3  0  0  0  0  0  0
  182.5230  179.7310  140.3230 C   0  0  2  0  0  3  0  0  0  0  0  0
  185.9840  178.7690  137.6710 N   0  0  0  0  0  2  0  0  0  0  0  0
  180.0040  173.9040  135.8970 C   0  0  0  0  0  1  0  0  0  0  0  0
  183.9660  175.0930  138.0250 N   0  0  0  0  0  2  0  0  0  0  0  0
  187.8310  178.0700  136.3400 C   0  0  0  0  0  2  0  0  0  0  0  0
  181.9450  172.5990  135.0960 C   0  0  0  0  0  2  0  0  0  0  0  0
  186.7510  174.9150  136.0650 C   0  0  1  0  0  3  0  0  0  0  0  0
  187.8690  172.9760  137.1720 O   0  0  0  0  0  0  0  0  0  0  0  0
  184.4040  172.7860  134.5940 C   0  0  0  0  0  2  0  0  0  0  0  0
  189.1360  173.0030  137.5840 O   0  0  0  0  0  0  0  0  0  0  0  0
  180.3900  175.0940  138.7750 O   0  0  0  0  0  1  0  0  0  0  0  0
  183.3020  178.4710  140.6950 C   0  0  1  0  0  3  0  0  0  0  0  0
  187.2200  176.0250  135.3470 O   0  0  0  0  0  0  0  0  0  0  0  0
  184.1580  176.4100  137.6570 O   0  0  0  0  0  0  0  0  0  0  0  0
  189.9410  173.1660  136.4320 C   0  0  2  0  0  3  0  0  0  0  0  0
  181.1780  179.5710  140.6000 F   0  0  0  0  0  0  0  0  0  0  0  0
  181.6210  175.7250  138.5510 C   0  0  1  0  0  3  0  0  0  0  0  0
  183.9800  177.4720  138.5550 C   0  0  0  0  0  0  0  0  0  0  0  0
  192.2930  173.2100  136.0210 O   0  0  0  0  0  1  0  0  0  0  0  0
  191.2910  173.7650  136.8210 C   0  0  1  0  0  3  0  0  0  0  0  0
  191.0740  176.0750  137.6660 C   0  0  0  0  0  3  0  0  0  0  0  0
  191.2970  175.2510  136.6480 C   0  0  0  0  0  3  0  0  0  0  0  0
  190.8210  175.5980  138.9450 O   0  0  0  0  0  1  0  0  0  0  0  0
  1 11  1  0  0  0  0
  1 35  1  0  0  0  0
  2 19  1  0  0  0  0
  2 27  1  0  0  0  0
  2 11  1  0  0  0  0
  3  6  2  0  0  0  0
  3 38  1  0  0  0  0
  4 21  1  0  0  0  0
  6  4  1  0  0  0  0
  8  9  1  0  0  0  0
  8 32  1  0  0  0  0
  9 15  1  0  0  0  0
 10 25  1  0  0  0  0
 10 17  1  0  0  0  0
 11 28  1  0  0  0  0
 12 10  1  0  0  0  0
 13 18  1  0  0  0  0
 14 24  1  0  0  0  0
 14 37  1  0  0  0  0
 16 14  1  0  0  0  0
 17 22  1  0  0  0  0
 18  5  1  0  0  0  0
 19  5  1  0  0  0  0
 20 16  1  0  0  0  0
 21 36  1  0  0  0  0
 21 32  1  0  0  0  0
 22  3  1  0  0  0  0
 23 20  1  0  0  0  0
 25 17  1  0  0  0  0
 26 13  1  0  0  0  0
 26 20  1  0  0  0  0
 27 11  1  0  0  0  0
 28 30  1  0  0  0  0
 29 13  1  0  0  0  0
 29 19  1  0  0  0  0
 32  7  1  0  0  0  0
 33 10  1  0  0  0  0
 33 27  1  0  0  0  0
 34 24  1  0  0  0  0
 34 38  1  0  0  0  0
 35 40  1  0  0  0  0
 35 30  1  0  0  0  0
 37 31  1  0  0  0  0
 37  9  1  0  0  0  0
 38  8  2  0  0  0  0
 39 40  1  0  0  0  0
 41 43  1  0  0  0  0
 42 40  1  0  0  0  0
 42 41  2  0  0  0  0
M  END
>  <MODEL>
2

>  <REMARK>
 VINA RESULT:      -6.0      3.488      7.264
  Name = 
  2 active torsions:
  status: ('A' for Active; 'I' for Inactive)
    1  A    between atoms: C_10  and  C_24
    2  A    between atoms: C_10  and  C_40
                            x       y       z     vdW  Elec       q    Type
                         _______ _______ _______ _____ _____    ______ ____

>  <TORSDO>
F 2

$$$$
=
 OpenBabel11042412523D

 43 49  0  0  1  0  0  0  0  0999 V2000
  179.9350  179.4590  139.6870 C   0  0  0  0  0  2  0  0  0  0  0  0
  180.5390  177.0210  139.1920 C   0  0  1  0  0  3  0  0  0  0  0  0
  186.7290  177.8310  138.6890 C   0  0  0  0  0  0  0  0  0  0  0  0
  188.8890  176.7020  138.3500 C   0  0  0  0  0  2  0  0  0  0  0  0
  180.9140  176.1330  136.7430 C   0  0  0  0  0  2  0  0  0  0  0  0
  187.9880  177.6620  138.9920 N   0  0  0  0  0  0  0  0  0  0  0  0
  188.2810  178.0150  134.7160 C   0  0  0  0  0  1  0  0  0  0  0  0
  186.7400  176.8350  136.4140 C   0  0  0  0  0  0  0  0  0  0  0  0
  186.2660  175.7980  135.4000 C   0  0  1  0  0  3  0  0  0  0  0  0
  183.7110  178.2080  140.3240 C   0  0  2  0  0  0  0  0  0  0  0  0
  180.5300  178.4750  138.7530 C   0  0  2  0  0  0  0  0  0  0  0  0
  184.3430  177.2750  141.1510 O   0  0  0  0  0  1  0  0  0  0  0  0
  180.5870  173.7780  137.2750 C   0  0  1  0  0  3  0  0  0  0  0  0
  184.1560  174.8540  136.4120 C   0  0  1  0  0  3  0  0  0  0  0  0
  187.3300  175.3720  134.5940 O   0  0  0  0  0  1  0  0  0  0  0  0
  183.6700  173.9550  137.4530 N   0  0  0  0  0  2  0  0  0  0  0  0
  184.5520  179.0580  139.3650 C   0  0  2  0  0  3  0  0  0  0  0  0
  180.8460  174.7470  136.1240 C   0  0  0  0  0  2  0  0  0  0  0  0
  180.2130  176.0010  138.0830 C   0  0  1  0  0  3  0  0  0  0  0  0
  182.9740  172.8650  136.7840 C   0  0  1  0  0  3  0  0  0  0  0  0
  189.2280  177.1010  136.9140 C   0  0  2  0  0  3  0  0  0  0  0  0
  185.9740  178.7500  139.4890 N   0  0  0  0  0  2  0  0  0  0  0  0
  183.7890  171.5960  136.9150 C   0  0  0  0  0  1  0  0  0  0  0  0
  183.9240  176.2440  136.8000 N   0  0  0  0  0  2  0  0  0  0  0  0
  184.1160  179.6200  140.6990 C   0  0  0  0  0  2  0  0  0  0  0  0
  181.5960  172.6260  137.4050 C   0  0  0  0  0  2  0  0  0  0  0  0
  181.8630  177.7910  139.0330 C   0  0  1  0  0  3  0  0  0  0  0  0
  180.2210  178.7620  137.4230 O   0  0  0  0  0  0  0  0  0  0  0  0
  180.5290  174.5980  138.5470 C   0  0  0  0  0  2  0  0  0  0  0  0
  179.8710  180.0480  137.4260 O   0  0  0  0  0  0  0  0  0  0  0  0
  185.7080  173.4490  135.2630 O   0  0  0  0  0  1  0  0  0  0  0  0
  188.0060  177.6300  136.1650 C   0  0  1  0  0  3  0  0  0  0  0  0
  182.3080  178.1650  140.3110 O   0  0  0  0  0  0  0  0  0  0  0  0
  184.7890  176.5770  137.8240 O   0  0  0  0  0  0  0  0  0  0  0  0
  179.2280  180.2970  138.6610 C   0  0  2  0  0  3  0  0  0  0  0  0
  189.7650  176.0090  136.2580 F   0  0  0  0  0  0  0  0  0  0  0  0
  185.6270  174.5810  136.0860 C   0  0  1  0  0  3  0  0  0  0  0  0
  186.0820  177.0640  137.5850 C   0  0  0  0  0  0  0  0  0  0  0  0
  179.7660  181.9420  140.3070 O   0  0  0  0  0  1  0  0  0  0  0  0
  179.3060  181.7860  138.9960 C   0  0  1  0  0  3  0  0  0  0  0  0
  180.0220  183.7690  137.7100 C   0  0  0  0  0  3  0  0  0  0  0  0
  180.2310  182.5060  138.0660 C   0  0  0  0  0  3  0  0  0  0  0  0
  178.9310  184.4860  138.1830 O   0  0  0  0  0  1  0  0  0  0  0  0
  3  6  2  0  0  0  0
  3 22  1  0  0  0  0
  4  6  1  0  0  0  0
  5 19  1  0  0  0  0
  7 32  1  0  0  0  0
  8 38  2  0  0  0  0
  9 37  1  0  0  0  0
  9  8  1  0  0  0  0
 10 25  1  0  0  0  0
 10 12  1  0  0  0  0
 11 27  1  0  0  0  0
 11  2  1  0  0  0  0
 11  1  1  0  0  0  0
 13 26  1  0  0  0  0
 13 29  1  0  0  0  0
 14 24  1  0  0  0  0
 14 16  1  0  0  0  0
 15  9  1  0  0  0  0
 17 22  1  0  0  0  0
 17 10  1  0  0  0  0
 17 25  1  0  0  0  0
 18  5  1  0  0  0  0
 18 13  1  0  0  0  0
 19 29  1  0  0  0  0
 19  2  1  0  0  0  0
 20 23  1  0  0  0  0
 20 26  1  0  0  0  0
 20 16  1  0  0  0  0
 21  4  1  0  0  0  0
 24 34  1  0  0  0  0
 27  2  1  0  0  0  0
 27 33  1  0  0  0  0
 28 30  1  0  0  0  0
 28 11  1  0  0  0  0
 30 35  1  0  0  0  0
 31 37  1  0  0  0  0
 32  8  1  0  0  0  0
 32 21  1  0  0  0  0
 33 10  1  0  0  0  0
 35 40  1  0  0  0  0
 35  1  1  0  0  0  0
 36 21  1  0  0  0  0
 37 14  1  0  0  0  0
 38 34  1  0  0  0  0
 38  3  1  0  0  0  0
 40 39  1  0  0  0  0
 41 42  2  0  0  0  0
 41 43  1  0  0  0  0
 42 40  1  0  0  0  0
M  END
>  <MODEL>
3

>  <REMARK>
 VINA RESULT:      -5.4      3.158      7.156
  Name = 
  2 active torsions:
  status: ('A' for Active; 'I' for Inactive)
    1  A    between atoms: C_10  and  C_24
    2  A    between atoms: C_10  and  C_40
                            x       y       z     vdW  Elec       q    Type
                         _______ _______ _______ _____ _____    ______ ____

>  <TORSDO>
F 2

$$$$
=
 OpenBabel11042412523D

 43 49  0  0  1  0  0  0  0  0999 V2000
  188.5090  178.2600  143.6220 C   0  0  0  0  0  2  0  0  0  0  0  0
  188.5200  178.6700  141.0940 C   0  0  1  0  0  3  0  0  0  0  0  0
  182.3990  177.7630  140.1260 C   0  0  0  0  0  0  0  0  0  0  0  0
  180.5930  177.8060  138.4550 C   0  0  0  0  0  2  0  0  0  0  0  0
  188.6240  176.7030  139.3490 C   0  0  0  0  0  2  0  0  0  0  0  0
  181.1820  178.0760  139.7680 N   0  0  0  0  0  0  0  0  0  0  0  0
  181.2950  173.9590  138.5320 C   0  0  0  0  0  1  0  0  0  0  0  0
  182.8610  176.0050  138.4330 C   0  0  0  0  0  0  0  0  0  0  0  0
  183.6620  175.4490  137.2610 C   0  0  1  0  0  3  0  0  0  0  0  0
  185.0580  179.2190  141.7790 C   0  0  2  0  0  0  0  0  0  0  0  0
  188.2550  177.7330  142.2600 C   0  0  2  0  0  0  0  0  0  0  0  0
  184.5610  180.3130  141.0660 O   0  0  0  0  0  1  0  0  0  0  0  0
  189.4040  178.0610  137.4830 C   0  0  1  0  0  3  0  0  0  0  0  0
  185.8040  176.7830  137.2780 C   0  0  1  0  0  3  0  0  0  0  0  0
  182.8150  174.8280  136.3330 O   0  0  0  0  0  1  0  0  0  0  0  0
  186.3580  178.0910  136.9450 N   0  0  0  0  0  2  0  0  0  0  0  0
  184.1610  177.9970  142.0080 C   0  0  2  0  0  3  0  0  0  0  0  0
  189.0660  176.6310  137.8970 C   0  0  0  0  0  2  0  0  0  0  0  0
  189.1840  178.0160  139.8670 C   0  0  1  0  0  3  0  0  0  0  0  0
  187.3490  177.8800  135.8980 C   0  0  1  0  0  3  0  0  0  0  0  0
  180.3360  176.3150  138.2340 C   0  0  2  0  0  3  0  0  0  0  0  0
  182.8380  178.1910  141.4210 N   0  0  0  0  0  2  0  0  0  0  0  0
  186.8250  178.4440  134.5940 C   0  0  0  0  0  1  0  0  0  0  0  0
  185.6770  176.6450  138.7270 N   0  0  0  0  0  2  0  0  0  0  0  0
  184.3100  179.0460  143.0870 C   0  0  0  0  0  2  0  0  0  0  0  0
  188.6670  178.5780  136.2370 C   0  0  0  0  0  2  0  0  0  0  0  0
  187.0830  178.2120  141.4090 C   0  0  1  0  0  3  0  0  0  0  0  0
  188.6370  176.3980  142.1350 O   0  0  0  0  0  0  0  0  0  0  0  0
  189.1370  178.9490  138.6810 C   0  0  0  0  0  2  0  0  0  0  0  0
  188.6910  175.9410  143.3860 O   0  0  0  0  0  0  0  0  0  0  0  0
  184.7390  176.1870  135.2250 O   0  0  0  0  0  1  0  0  0  0  0  0
  181.4860  175.4540  138.7550 C   0  0  1  0  0  3  0  0  0  0  0  0
  186.4280  179.2550  142.0810 O   0  0  0  0  0  0  0  0  0  0  0  0
  184.6520  177.4580  139.1700 O   0  0  0  0  0  0  0  0  0  0  0  0
  189.1220  177.0160  144.1990 C   0  0  2  0  0  3  0  0  0  0  0  0
  180.1310  176.0890  136.8860 F   0  0  0  0  0  0  0  0  0  0  0  0
  184.4750  176.5450  136.5540 C   0  0  1  0  0  3  0  0  0  0  0  0
  183.3180  177.0280  139.2080 C   0  0  0  0  0  0  0  0  0  0  0  0
  189.7980  176.8140  146.4800 O   0  0  0  0  0  1  0  0  0  0  0  0
  188.6790  176.7860  145.6430 C   0  0  1  0  0  3  0  0  0  0  0  0
  187.3600  177.9670  147.3640 C   0  0  0  0  0  3  0  0  0  0  0  0
  187.7110  177.8350  146.0890 C   0  0  0  0  0  3  0  0  0  0  0  0
  187.8750  177.1350  148.3490 O   0  0  0  0  0  1  0  0  0  0  0  0
  1 35  1  0  0  0  0
  2 27  1  0  0  0  0
  2 11  1  0  0  0  0
  3 22  1  0  0  0  0
  4  6  1  0  0  0  0
  5 19  1  0  0  0  0
  6  3  2  0  0  0  0
  7 32  1  0  0  0  0
  8 32  1  0  0  0  0
  8 38  2  0  0  0  0
  9  8  1  0  0  0  0
 10 17  1  0  0  0  0
 10 33  1  0  0  0  0
 10 25  1  0  0  0  0
 11  1  1  0  0  0  0
 12 10  1  0  0  0  0
 13 18  1  0  0  0  0
 13 29  1  0  0  0  0
 14 24  1  0  0  0  0
 15  9  1  0  0  0  0
 16 14  1  0  0  0  0
 17 25  1  0  0  0  0
 18  5  1  0  0  0  0
 19  2  1  0  0  0  0
 20 26  1  0  0  0  0
 20 16  1  0  0  0  0
 21  4  1  0  0  0  0
 21 32  1  0  0  0  0
 22 17  1  0  0  0  0
 23 20  1  0  0  0  0
 24 34  1  0  0  0  0
 26 13  1  0  0  0  0
 27 33  1  0  0  0  0
 27 11  1  0  0  0  0
 28 11  1  0  0  0  0
 28 30  1  0  0  0  0
 29 19  1  0  0  0  0
 30 35  1  0  0  0  0
 31 37  1  0  0  0  0
 34 38  1  0  0  0  0
 35 40  1  0  0  0  0
 36 21  1  0  0  0  0
 37  9  1  0  0  0  0
 37 14  1  0  0  0  0
 38  3  1  0  0  0  0
 40 42  1  0  0  0  0
 40 39  1  0  0  0  0
 41 43  1  0  0  0  0
 42 41  2  0  0  0  0
M  END
>  <MODEL>
4

>  <REMARK>
 VINA RESULT:      -5.0      1.706      2.043
  Name = 
  2 active torsions:
  status: ('A' for Active; 'I' for Inactive)
    1  A    between atoms: C_10  and  C_24
    2  A    between atoms: C_10  and  C_40
                            x       y       z     vdW  Elec       q    Type
                         _______ _______ _______ _____ _____    ______ ____

>  <TORSDO>
F 2

$$$$
=
 OpenBabel11042412523D

 43 49  0  0  1  0  0  0  0  0999 V2000
  190.5450  175.9630  136.4070 C   0  0  0  0  0  2  0  0  0  0  0  0
  188.4120  174.8590  135.5210 C   0  0  1  0  0  3  0  0  0  0  0  0
  184.3350  178.8830  138.0530 C   0  0  0  0  0  0  0  0  0  0  0  0
  181.9600  179.5010  138.2360 C   0  0  0  0  0  2  0  0  0  0  0  0
  186.9790  173.1970  136.9750 C   0  0  0  0  0  2  0  0  0  0  0  0
  183.3870  179.7820  138.0640 N   0  0  0  0  0  0  0  0  0  0  0  0
  182.3790  177.5800  141.6170 C   0  0  0  0  0  1  0  0  0  0  0  0
  183.1370  177.0420  139.2120 C   0  0  0  0  0  0  0  0  0  0  0  0
  182.5670  175.6280  139.2520 C   0  0  1  0  0  3  0  0  0  0  0  0
  187.1550  178.1300  136.2090 C   0  0  2  0  0  0  0  0  0  0  0  0
  189.2530  175.3000  136.7060 C   0  0  2  0  0  0  0  0  0  0  0  0
  186.2930  178.5710  135.2010 O   0  0  0  0  0  1  0  0  0  0  0  0
  185.8190  172.1570  135.1010 C   0  0  1  0  0  3  0  0  0  0  0  0
  183.7250  174.4330  137.3560 C   0  0  1  0  0  3  0  0  0  0  0  0
  181.3270  175.6120  139.9060 O   0  0  0  0  0  1  0  0  0  0  0  0
  183.7450  174.3080  135.9020 N   0  0  0  0  0  2  0  0  0  0  0  0
  186.8670  178.5050  137.6660 C   0  0  2  0  0  3  0  0  0  0  0  0
  185.9820  172.1060  136.6190 C   0  0  0  0  0  2  0  0  0  0  0  0
  187.7210  173.4900  135.6840 C   0  0  1  0  0  3  0  0  0  0  0  0
  183.3830  172.9330  135.5870 C   0  0  1  0  0  3  0  0  0  0  0  0
  181.6280  179.0510  139.6590 C   0  0  2  0  0  3  0  0  0  0  0  0
  185.6680  179.3310  137.7760 N   0  0  0  0  0  2  0  0  0  0  0  0
  182.0030  172.9100  134.9640 C   0  0  0  0  0  1  0  0  0  0  0  0
  184.8850  175.1960  137.8100 N   0  0  0  0  0  2  0  0  0  0  0  0
  187.8650  179.3020  136.8580 C   0  0  0  0  0  2  0  0  0  0  0  0
  184.3750  172.3140  134.6000 C   0  0  0  0  0  2  0  0  0  0  0  0
  187.9130  175.9810  136.4510 C   0  0  1  0  0  3  0  0  0  0  0  0
  189.3440  174.4490  137.8070 O   0  0  0  0  0  0  0  0  0  0  0  0
  186.6960  173.2830  134.5940 C   0  0  0  0  0  2  0  0  0  0  0  0
  190.4310  174.8560  138.4630 O   0  0  0  0  0  0  0  0  0  0  0  0
  181.4180  174.0440  137.8310 O   0  0  0  0  0  1  0  0  0  0  0  0
  182.6760  178.0850  140.2100 C   0  0  1  0  0  3  0  0  0  0  0  0
  188.1390  177.2110  135.8140 O   0  0  0  0  0  0  0  0  0  0  0  0
  184.7200  176.5210  137.4560 O   0  0  0  0  0  0  0  0  0  0  0  0
  191.3530  175.3090  137.4910 C   0  0  2  0  0  3  0  0  0  0  0  0
  180.3760  178.4650  139.6650 F   0  0  0  0  0  0  0  0  0  0  0  0
  182.4050  175.0380  137.8420 C   0  0  1  0  0  3  0  0  0  0  0  0
  184.0420  177.4370  138.2730 C   0  0  0  0  0  0  0  0  0  0  0  0
  191.7830  176.8130  139.2970 O   0  0  0  0  0  1  0  0  0  0  0  0
  192.3400  176.2860  138.1270 C   0  0  1  0  0  3  0  0  0  0  0  0
  194.5380  175.3310  137.5330 C   0  0  0  0  0  3  0  0  0  0  0  0
  193.6330  175.6130  138.4640 C   0  0  0  0  0  3  0  0  0  0  0  0
  194.3300  175.6470  136.1970 O   0  0  0  0  0  1  0  0  0  0  0  0
  1 11  1  0  0  0  0
  1 35  1  0  0  0  0
  2 19  1  0  0  0  0
  2 27  1  0  0  0  0
  2 11  1  0  0  0  0
  3  6  2  0  0  0  0
  3 38  1  0  0  0  0
  4 21  1  0  0  0  0
  6  4  1  0  0  0  0
  8  9  1  0  0  0  0
  8 32  1  0  0  0  0
  9 15  1  0  0  0  0
 10 25  1  0  0  0  0
 10 17  1  0  0  0  0
 11 28  1  0  0  0  0
 12 10  1  0  0  0  0
 13 18  1  0  0  0  0
 14 24  1  0  0  0  0
 14 37  1  0  0  0  0
 16 14  1  0  0  0  0
 17 22  1  0  0  0  0
 18  5  1  0  0  0  0
 19  5  1  0  0  0  0
 20 16  1  0  0  0  0
 21 36  1  0  0  0  0
 21 32  1  0  0  0  0
 22  3  1  0  0  0  0
 23 20  1  0  0  0  0
 25 17  1  0  0  0  0
 26 13  1  0  0  0  0
 26 20  1  0  0  0  0
 27 11  1  0  0  0  0
 28 30  1  0  0  0  0
 29 13  1  0  0  0  0
 29 19  1  0  0  0  0
 31 37  1  0  0  0  0
 32  7  1  0  0  0  0
 33 10  1  0  0  0  0
 33 27  1  0  0  0  0
 34 24  1  0  0  0  0
 34 38  1  0  0  0  0
 35 40  1  0  0  0  0
 35 30  1  0  0  0  0
 37  9  1  0  0  0  0
 38  8  2  0  0  0  0
 40 42  1  0  0  0  0
 40 39  1  0  0  0  0
 41 42  2  0  0  0  0
 43 41  1  0  0  0  0
M  END
>  <MODEL>
5

>  <REMARK>
 VINA RESULT:      -4.1      3.703      6.618
  Name = 
  2 active torsions:
  status: ('A' for Active; 'I' for Inactive)
    1  A    between atoms: C_10  and  C_24
    2  A    between atoms: C_10  and  C_40
                            x       y       z     vdW  Elec       q    Type
                         _______ _______ _______ _____ _____    ______ ____

>  <TORSDO>
F 2

$$$$
