=
 OpenBabel11032421113D

 34 37  0  0  0  0  0  0  0  0999 V2000
  189.0860  177.5440  142.0390 C   0  0  0  0  0  0  0  0  0  0  0  0
  190.1920  176.8850  138.0380 C   0  0  0  0  0  0  0  0  0  0  0  0
  190.9090  176.0820  142.7180 C   0  0  0  0  0  3  0  0  0  0  0  0
  190.5660  176.2810  144.0580 C   0  0  0  0  0  3  0  0  0  0  0  0
  188.3850  178.3590  137.3690 C   0  0  0  0  0  3  0  0  0  0  0  0
  189.4910  177.1120  144.3930 C   0  0  0  0  0  0  0  0  0  0  0  0
  188.7300  177.9440  139.6790 C   0  0  0  0  0  0  0  0  0  0  0  0
  188.7500  177.7370  143.3850 C   0  0  0  0  0  3  0  0  0  0  0  0
  188.3620  178.1630  141.0130 C   0  0  0  0  0  0  0  0  0  0  0  0
  190.1760  176.7090  141.7080 C   0  0  0  0  0  0  0  0  0  0  0  0
  188.0460  178.5480  138.6700 N   0  0  0  0  0  0  0  0  0  0  0  0
  190.5110  176.5120  140.4060 N   0  0  0  0  0  0  0  0  0  0  0  0
  187.2850  178.9930  141.3110 O   0  0  0  0  0  1  0  0  0  0  0  0
  189.8220  177.0950  139.3850 C   0  0  0  0  0  0  0  0  0  0  0  0
  189.4550  177.5290  137.0350 C   0  0  0  0  0  3  0  0  0  0  0  0
  193.4030  175.1030  137.2520 C   0  0  0  0  0  0  0  0  0  0  0  0
  192.5210  174.1460  137.0140 C   0  0  0  0  0  3  0  0  0  0  0  0
  191.2040  174.7030  137.2810 C   0  0  0  0  0  0  0  0  0  0  0  0
  192.7520  176.3740  137.6780 C   0  0  0  0  0  2  0  0  0  0  0  0
  191.3100  175.9780  137.6620 C   0  0  0  0  0  0  0  0  0  0  0  0
  189.9370  173.9300  137.1090 C   0  0  0  0  0  2  0  0  0  0  0  0
  189.4550  174.0330  135.6760 C   0  0  0  0  0  1  0  0  0  0  0  0
  194.8750  174.9420  137.0740 C   0  0  0  0  0  2  0  0  0  0  0  0
  195.8520  173.3870  138.5210 C   0  0  0  0  0  1  0  0  0  0  0  0
  195.5260  174.7930  138.3660 N   0  0  0  0  0  2  0  0  0  0  0  0
  189.1150  177.3020  145.8190 C   0  0  0  0  0  2  0  0  0  0  0  0
  187.0810  178.0840  147.0880 C   0  0  0  0  0  0  0  0  0  0  0  0
  187.8790  178.0650  145.9040 N   0  0  0  0  0  2  0  0  0  0  0  0
  187.4350  177.4280  148.1050 O   0  0  0  0  0  0  0  0  0  0  0  0
  185.8430  178.8690  147.1230 C   0  0  0  0  0  0  0  0  0  0  0  0
  185.8390  180.0120  147.6580 O   0  0  0  0  0  0  0  0  0  0  0  0
  184.6760  178.3440  146.5640 O   0  0  0  0  0  0  0  0  0  0  0  0
  184.7970  178.5180  144.1790 C   0  0  0  0  0  1  0  0  0  0  0  0
  184.0560  178.9330  145.4320 C   0  0  0  0  0  2  0  0  0  0  0  0
  1  8  2  0  0  0  0
  2 14  1  0  0  0  0
  3  4  1  0  0  0  0
  4  6  2  0  0  0  0
  5 11  2  0  0  0  0
  6 26  1  0  0  0  0
  7  9  2  0  0  0  0
  8  6  1  0  0  0  0
  9 13  1  0  0  0  0
  9  1  1  0  0  0  0
 10  1  1  0  0  0  0
 10  3  2  0  0  0  0
 11  7  1  0  0  0  0
 12 10  1  0  0  0  0
 14  7  1  0  0  0  0
 14 12  2  0  0  0  0
 15  5  1  0  0  0  0
 15  2  2  0  0  0  0
 16 19  1  0  0  0  0
 17 16  2  0  0  0  0
 17 18  1  0  0  0  0
 18 20  2  0  0  0  0
 20 19  1  0  0  0  0
 20  2  1  0  0  0  0
 21 18  1  0  0  0  0
 22 21  1  0  0  0  0
 23 16  1  0  0  0  0
 23 25  1  0  0  0  0
 25 24  1  0  0  0  0
 26 28  1  0  0  0  0
 27 30  1  0  0  0  0
 27 29  2  0  0  0  0
 28 27  1  0  0  0  0
 30 31  2  0  0  0  0
 32 30  1  0  0  0  0
 33 34  1  0  0  0  0
 34 32  1  0  0  0  0
M  END
>  <MODEL>
1

>  <REMARK>
 VINA RESULT:      -8.5      0.000      0.000
  Name = 
  9 active torsions:
  status: ('A' for Active; 'I' for Inactive)
    1  A    between atoms: C_1  and  C_11
    2  A    between atoms: C_2  and  C_20
    3  A    between atoms: C_4  and  C_8
    4  A    between atoms: C_7  and  C_30
    5  A    between atoms: C_11  and  N_21
    6  A    between atoms: C_12  and  N_15
    7  A    between atoms: C_12  and  C_17
    8  A    between atoms: C_13  and  O_27
    9  A    between atoms: C_20  and  O_27
                            x       y       z     vdW  Elec       q    Type
                         _______ _______ _______ _____ _____    ______ ____

>  <TORSDO>
F 9

$$$$
=
 OpenBabel11032421113D

 34 37  0  0  0  0  0  0  0  0999 V2000
  184.8780  178.4710  144.8360 C   0  0  0  0  0  0  0  0  0  0  0  0
  188.9120  177.5650  145.5930 C   0  0  0  0  0  0  0  0  0  0  0  0
  185.3440  178.2600  142.4560 C   0  0  0  0  0  3  0  0  0  0  0  0
  184.0070  178.5590  142.1730 C   0  0  0  0  0  3  0  0  0  0  0  0
  188.4370  177.7560  147.9650 C   0  0  0  0  0  3  0  0  0  0  0  0
  183.1050  178.8070  143.2130 C   0  0  0  0  0  0  0  0  0  0  0  0
  186.6820  178.1190  146.4120 C   0  0  0  0  0  0  0  0  0  0  0  0
  183.5410  178.7690  144.5410 C   0  0  0  0  0  3  0  0  0  0  0  0
  185.3380  178.4210  146.1580 C   0  0  0  0  0  0  0  0  0  0  0  0
  185.7830  178.2140  143.7820 C   0  0  0  0  0  0  0  0  0  0  0  0
  187.1420  178.0530  147.6890 N   0  0  0  0  0  0  0  0  0  0  0  0
  187.0820  177.9250  144.0540 N   0  0  0  0  0  0  0  0  0  0  0  0
  184.4670  178.6660  147.2170 O   0  0  0  0  0  1  0  0  0  0  0  0
  187.5590  177.8760  145.3290 C   0  0  0  0  0  0  0  0  0  0  0  0
  189.3370  177.5100  146.9270 C   0  0  0  0  0  3  0  0  0  0  0  0
  190.9320  177.2540  142.4420 C   0  0  0  0  0  0  0  0  0  0  0  0
  191.7820  176.7720  143.3330 C   0  0  0  0  0  2  0  0  0  0  0  0
  191.1230  176.8310  144.6290 C   0  0  0  0  0  0  0  0  0  0  0  0
  189.6370  177.6560  143.0610 C   0  0  0  0  0  3  0  0  0  0  0  0
  189.8930  177.3320  144.4990 C   0  0  0  0  0  0  0  0  0  0  0  0
  191.7590  176.3560  145.8940 C   0  0  0  0  0  2  0  0  0  0  0  0
  192.2350  174.9260  145.7340 C   0  0  0  0  0  1  0  0  0  0  0  0
  191.2190  177.3460  140.9820 C   0  0  0  0  0  2  0  0  0  0  0  0
  189.6430  177.1790  139.2620 C   0  0  0  0  0  1  0  0  0  0  0  0
  190.3870  176.4090  140.2440 N   0  0  0  0  0  2  0  0  0  0  0  0
  181.6910  179.1480  142.9050 C   0  0  0  0  0  2  0  0  0  0  0  0
  180.0430  177.6600  141.7070 C   0  0  0  0  0  0  0  0  0  0  0  0
  181.2550  178.4180  141.7250 N   0  0  0  0  0  2  0  0  0  0  0  0
  179.3120  177.6070  142.7330 O   0  0  0  0  0  0  0  0  0  0  0  0
  179.6480  176.9410  140.4930 C   0  0  0  0  0  0  0  0  0  0  0  0
  179.0550  177.5560  139.5640 O   0  0  0  0  0  0  0  0  0  0  0  0
  179.9300  175.5790  140.3750 O   0  0  0  0  0  0  0  0  0  0  0  0
  179.2790  173.7890  141.8280 C   0  0  0  0  0  1  0  0  0  0  0  0
  178.9370  174.5860  140.5870 C   0  0  0  0  0  2  0  0  0  0  0  0
  1  9  2  0  0  0  0
  2 15  1  0  0  0  0
  3 10  1  0  0  0  0
  4  3  2  0  0  0  0
  4  6  1  0  0  0  0
  6  8  2  0  0  0  0
  7 11  2  0  0  0  0
  8  1  1  0  0  0  0
  9  7  1  0  0  0  0
  9 13  1  0  0  0  0
 10 12  2  0  0  0  0
 10  1  1  0  0  0  0
 11  5  1  0  0  0  0
 12 14  1  0  0  0  0
 14  2  2  0  0  0  0
 14  7  1  0  0  0  0
 15  5  2  0  0  0  0
 16 19  2  0  0  0  0
 16 17  1  0  0  0  0
 17 18  1  0  0  0  0
 18 21  1  0  0  0  0
 19 20  1  0  0  0  0
 20 18  2  0  0  0  0
 20  2  1  0  0  0  0
 22 21  1  0  0  0  0
 23 16  1  0  0  0  0
 24 25  1  0  0  0  0
 25 23  1  0  0  0  0
 26  6  1  0  0  0  0
 27 28  1  0  0  0  0
 27 29  2  0  0  0  0
 28 26  1  0  0  0  0
 30 27  1  0  0  0  0
 31 30  2  0  0  0  0
 32 30  1  0  0  0  0
 32 34  1  0  0  0  0
 34 33  1  0  0  0  0
M  END
>  <MODEL>
2

>  <REMARK>
 VINA RESULT:      -8.3      3.817      7.698
  Name = 
  9 active torsions:
  status: ('A' for Active; 'I' for Inactive)
    1  A    between atoms: C_1  and  C_11
    2  A    between atoms: C_2  and  C_20
    3  A    between atoms: C_4  and  C_8
    4  A    between atoms: C_7  and  C_30
    5  A    between atoms: C_11  and  N_21
    6  A    between atoms: C_12  and  N_15
    7  A    between atoms: C_12  and  C_17
    8  A    between atoms: C_13  and  O_27
    9  A    between atoms: C_20  and  O_27
                            x       y       z     vdW  Elec       q    Type
                         _______ _______ _______ _____ _____    ______ ____

>  <TORSDO>
F 9

$$$$
=
 OpenBabel11032421113D

 34 37  0  0  0  0  0  0  0  0999 V2000
  185.1710  178.2630  144.5220 C   0  0  0  0  0  0  0  0  0  0  0  0
  183.1240  178.4580  140.8560 C   0  0  0  0  0  0  0  0  0  0  0  0
  187.0930  177.3660  143.3290 C   0  0  0  0  0  3  0  0  0  0  0  0
  187.7990  177.2900  144.5330 C   0  0  0  0  0  3  0  0  0  0  0  0
  181.2180  179.3700  142.0480 C   0  0  0  0  0  3  0  0  0  0  0  0
  187.2010  177.7020  145.7280 C   0  0  0  0  0  0  0  0  0  0  0  0
  183.1730  178.8110  143.2690 C   0  0  0  0  0  0  0  0  0  0  0  0
  185.8870  178.1820  145.7230 C   0  0  0  0  0  3  0  0  0  0  0  0
  183.8560  178.7450  144.4900 C   0  0  0  0  0  0  0  0  0  0  0  0
  185.7830  177.8510  143.3170 C   0  0  0  0  0  0  0  0  0  0  0  0
  181.9020  179.2900  143.2180 N   0  0  0  0  0  0  0  0  0  0  0  0
  185.0980  177.9230  142.1460 N   0  0  0  0  0  0  0  0  0  0  0  0
  183.2290  179.1610  145.6620 O   0  0  0  0  0  1  0  0  0  0  0  0
  183.8170  178.3820  142.0850 C   0  0  0  0  0  0  0  0  0  0  0  0
  181.8150  178.9570  140.8560 C   0  0  0  0  0  3  0  0  0  0  0  0
  185.0740  177.7900  137.7160 C   0  0  0  0  0  0  0  0  0  0  0  0
  184.2250  176.7760  137.7040 C   0  0  0  0  0  3  0  0  0  0  0  0
  183.3870  176.9050  138.8860 C   0  0  0  0  0  0  0  0  0  0  0  0
  184.8640  178.6850  138.8890 C   0  0  0  0  0  2  0  0  0  0  0  0
  183.7330  177.9920  139.5800 C   0  0  0  0  0  0  0  0  0  0  0  0
  182.2870  175.9520  139.2190 C   0  0  0  0  0  2  0  0  0  0  0  0
  181.9790  175.0730  138.0230 C   0  0  0  0  0  1  0  0  0  0  0  0
  186.0950  178.0340  136.6570 C   0  0  0  0  0  2  0  0  0  0  0  0
  188.4100  178.3560  136.7360 C   0  0  0  0  0  1  0  0  0  0  0  0
  187.1370  178.9180  137.1540 N   0  0  0  0  0  2  0  0  0  0  0  0
  187.9480  177.5960  147.0090 C   0  0  0  0  0  2  0  0  0  0  0  0
  190.3800  177.2140  147.5580 C   0  0  0  0  0  0  0  0  0  0  0  0
  189.2150  176.9190  146.7840 N   0  0  0  0  0  2  0  0  0  0  0  0
  190.3330  178.0840  148.4700 O   0  0  0  0  0  0  0  0  0  0  0  0
  191.6340  176.5040  147.2920 C   0  0  0  0  0  0  0  0  0  0  0  0
  192.4580  176.3120  148.2280 O   0  0  0  0  0  0  0  0  0  0  0  0
  191.9080  176.0460  146.0010 O   0  0  0  0  0  0  0  0  0  0  0  0
  191.3280  176.0260  143.6770 C   0  0  0  0  0  1  0  0  0  0  0  0
  191.7400  176.8750  144.8610 C   0  0  0  0  0  2  0  0  0  0  0  0
  1  8  2  0  0  0  0
  2 15  2  0  0  0  0
  2 14  1  0  0  0  0
  3  4  1  0  0  0  0
  4  6  2  0  0  0  0
  5 11  2  0  0  0  0
  6 26  1  0  0  0  0
  7  9  2  0  0  0  0
  8  6  1  0  0  0  0
  9  1  1  0  0  0  0
  9 13  1  0  0  0  0
 10  3  2  0  0  0  0
 10  1  1  0  0  0  0
 11  7  1  0  0  0  0
 12 10  1  0  0  0  0
 14 12  2  0  0  0  0
 14  7  1  0  0  0  0
 15  5  1  0  0  0  0
 16 19  1  0  0  0  0
 17 16  2  0  0  0  0
 17 18  1  0  0  0  0
 18 21  1  0  0  0  0
 18 20  2  0  0  0  0
 19 20  1  0  0  0  0
 20  2  1  0  0  0  0
 22 21  1  0  0  0  0
 23 25  1  0  0  0  0
 23 16  1  0  0  0  0
 24 25  1  0  0  0  0
 27 29  2  0  0  0  0
 28 26  1  0  0  0  0
 28 27  1  0  0  0  0
 30 27  1  0  0  0  0
 30 31  2  0  0  0  0
 32 30  1  0  0  0  0
 33 34  1  0  0  0  0
 34 32  1  0  0  0  0
M  END
>  <MODEL>
3

>  <REMARK>
 VINA RESULT:      -8.2      3.937      6.843
  Name = 
  9 active torsions:
  status: ('A' for Active; 'I' for Inactive)
    1  A    between atoms: C_1  and  C_11
    2  A    between atoms: C_2  and  C_20
    3  A    between atoms: C_4  and  C_8
    4  A    between atoms: C_7  and  C_30
    5  A    between atoms: C_11  and  N_21
    6  A    between atoms: C_12  and  N_15
    7  A    between atoms: C_12  and  C_17
    8  A    between atoms: C_13  and  O_27
    9  A    between atoms: C_20  and  O_27
                            x       y       z     vdW  Elec       q    Type
                         _______ _______ _______ _____ _____    ______ ____

>  <TORSDO>
F 9

$$$$
=
 OpenBabel11032421113D

 34 37  0  0  0  0  0  0  0  0999 V2000
  184.9430  178.4650  144.9250 C   0  0  0  0  0  0  0  0  0  0  0  0
  189.0150  177.5240  145.3720 C   0  0  0  0  0  0  0  0  0  0  0  0
  185.2260  178.2620  142.5160 C   0  0  0  0  0  3  0  0  0  0  0  0
  183.8750  178.5720  142.3360 C   0  0  0  0  0  3  0  0  0  0  0  0
  188.7220  177.7080  147.7740 C   0  0  0  0  0  3  0  0  0  0  0  0
  183.0560  178.8230  143.4420 C   0  0  0  0  0  0  0  0  0  0  0  0
  186.8580  178.0920  146.3590 C   0  0  0  0  0  0  0  0  0  0  0  0
  183.5910  178.7750  144.7330 C   0  0  0  0  0  3  0  0  0  0  0  0
  185.5010  178.4060  146.2090 C   0  0  0  0  0  0  0  0  0  0  0  0
  185.7640  178.2060  143.8050 C   0  0  0  0  0  0  0  0  0  0  0  0
  187.4120  178.0160  147.5980 N   0  0  0  0  0  0  0  0  0  0  0  0
  187.0770  177.9060  143.9770 N   0  0  0  0  0  0  0  0  0  0  0  0
  184.7150  178.6530  147.3310 O   0  0  0  0  0  1  0  0  0  0  0  0
  187.6490  177.8470  145.2130 C   0  0  0  0  0  0  0  0  0  0  0  0
  189.5390  177.4600  146.6700 C   0  0  0  0  0  3  0  0  0  0  0  0
  190.8200  177.2690  142.0880 C   0  0  0  0  0  0  0  0  0  0  0  0
  191.6740  176.6580  142.8920 C   0  0  0  0  0  2  0  0  0  0  0  0
  191.0970  176.6800  144.2270 C   0  0  0  0  0  0  0  0  0  0  0  0
  189.6010  177.7310  142.8110 C   0  0  0  0  0  3  0  0  0  0  0  0
  189.9090  177.2880  144.2060 C   0  0  0  0  0  0  0  0  0  0  0  0
  191.7610  176.0680  145.4170 C   0  0  0  0  0  2  0  0  0  0  0  0
  192.2610  174.6770  145.0760 C   0  0  0  0  0  1  0  0  0  0  0  0
  191.0310  177.4390  140.6220 C   0  0  0  0  0  2  0  0  0  0  0  0
  191.0490  176.3180  138.5690 C   0  0  0  0  0  1  0  0  0  0  0  0
  190.4590  176.3160  139.8970 N   0  0  0  0  0  2  0  0  0  0  0  0
  181.6250  179.1770  143.2430 C   0  0  0  0  0  2  0  0  0  0  0  0
  180.3670  179.8180  141.1530 C   0  0  0  0  0  0  0  0  0  0  0  0
  181.2500  178.9420  141.8570 N   0  0  0  0  0  2  0  0  0  0  0  0
  179.8850  180.8320  141.7280 O   0  0  0  0  0  0  0  0  0  0  0  0
  180.0190  179.5380  139.7570 C   0  0  0  0  0  0  0  0  0  0  0  0
  179.1620  178.6510  139.4900 O   0  0  0  0  0  0  0  0  0  0  0  0
  180.6410  180.2550  138.7330 O   0  0  0  0  0  0  0  0  0  0  0  0
  182.6940  179.0590  138.4290 C   0  0  0  0  0  1  0  0  0  0  0  0
  182.0510  180.4080  138.6750 C   0  0  0  0  0  2  0  0  0  0  0  0
  1  9  2  0  0  0  0
  2 15  1  0  0  0  0
  3 10  1  0  0  0  0
  4  3  2  0  0  0  0
  4  6  1  0  0  0  0
  6  8  2  0  0  0  0
  7 11  2  0  0  0  0
  8  1  1  0  0  0  0
  9  7  1  0  0  0  0
  9 13  1  0  0  0  0
 10 12  2  0  0  0  0
 10  1  1  0  0  0  0
 11  5  1  0  0  0  0
 12 14  1  0  0  0  0
 14  2  2  0  0  0  0
 14  7  1  0  0  0  0
 15  5  2  0  0  0  0
 16 19  2  0  0  0  0
 16 17  1  0  0  0  0
 17 18  1  0  0  0  0
 18 21  1  0  0  0  0
 19 20  1  0  0  0  0
 20 18  2  0  0  0  0
 20  2  1  0  0  0  0
 22 21  1  0  0  0  0
 23 16  1  0  0  0  0
 24 25  1  0  0  0  0
 25 23  1  0  0  0  0
 26  6  1  0  0  0  0
 27 29  2  0  0  0  0
 27 28  1  0  0  0  0
 28 26  1  0  0  0  0
 30 27  1  0  0  0  0
 31 30  2  0  0  0  0
 32 30  1  0  0  0  0
 33 34  1  0  0  0  0
 34 32  1  0  0  0  0
M  END
>  <MODEL>
4

>  <REMARK>
 VINA RESULT:      -8.2      3.591      7.518
  Name = 
  9 active torsions:
  status: ('A' for Active; 'I' for Inactive)
    1  A    between atoms: C_1  and  C_11
    2  A    between atoms: C_2  and  C_20
    3  A    between atoms: C_4  and  C_8
    4  A    between atoms: C_7  and  C_30
    5  A    between atoms: C_11  and  N_21
    6  A    between atoms: C_12  and  N_15
    7  A    between atoms: C_12  and  C_17
    8  A    between atoms: C_13  and  O_27
    9  A    between atoms: C_20  and  O_27
                            x       y       z     vdW  Elec       q    Type
                         _______ _______ _______ _____ _____    ______ ____

>  <TORSDO>
F 9

$$$$
=
 OpenBabel11032421113D

 34 37  0  0  0  0  0  0  0  0999 V2000
  184.9420  178.3680  144.4010 C   0  0  0  0  0  0  0  0  0  0  0  0
  182.3300  178.5380  141.1120 C   0  0  0  0  0  0  0  0  0  0  0  0
  186.6750  177.5470  142.9010 C   0  0  0  0  0  3  0  0  0  0  0  0
  187.5670  177.4800  143.9760 C   0  0  0  0  0  3  0  0  0  0  0  0
  180.6130  179.3750  142.6080 C   0  0  0  0  0  3  0  0  0  0  0  0
  187.1550  177.8590  145.2580 C   0  0  0  0  0  0  0  0  0  0  0  0
  182.7540  178.8650  143.4920 C   0  0  0  0  0  0  0  0  0  0  0  0
  185.8440  178.2960  145.4710 C   0  0  0  0  0  3  0  0  0  0  0  0
  183.6250  178.8070  144.5870 C   0  0  0  0  0  0  0  0  0  0  0  0
  185.3660  177.9900  143.1070 C   0  0  0  0  0  0  0  0  0  0  0  0
  181.4770  179.3030  143.6530 N   0  0  0  0  0  0  0  0  0  0  0  0
  184.5010  178.0530  142.0620 N   0  0  0  0  0  0  0  0  0  0  0  0
  183.1820  179.1890  145.8510 O   0  0  0  0  0  1  0  0  0  0  0  0
  183.2130  178.4710  142.2130 C   0  0  0  0  0  0  0  0  0  0  0  0
  181.0240  178.9950  141.3300 C   0  0  0  0  0  3  0  0  0  0  0  0
  183.3150  176.8370  137.9120 C   0  0  0  0  0  0  0  0  0  0  0  0
  183.3210  178.1050  137.5340 C   0  0  0  0  0  3  0  0  0  0  0  0
  182.9510  178.8990  138.6950 C   0  0  0  0  0  0  0  0  0  0  0  0
  182.9610  176.6820  139.3510 C   0  0  0  0  0  2  0  0  0  0  0  0
  182.7410  178.1070  139.7480 C   0  0  0  0  0  0  0  0  0  0  0  0
  182.8620  180.3900  138.6730 C   0  0  0  0  0  2  0  0  0  0  0  0
  181.5140  180.8240  138.1300 C   0  0  0  0  0  1  0  0  0  0  0  0
  183.6650  175.6990  137.0140 C   0  0  0  0  0  2  0  0  0  0  0  0
  184.5150  173.5550  137.3980 C   0  0  0  0  0  1  0  0  0  0  0  0
  183.3920  174.4330  137.6750 N   0  0  0  0  0  2  0  0  0  0  0  0
  188.1000  177.7620  146.4020 C   0  0  0  0  0  2  0  0  0  0  0  0
  190.4630  176.9910  146.8310 C   0  0  0  0  0  0  0  0  0  0  0  0
  189.3310  177.1190  145.9680 N   0  0  0  0  0  2  0  0  0  0  0  0
  190.4200  177.4420  148.0080 O   0  0  0  0  0  0  0  0  0  0  0  0
  191.6810  176.3350  146.3470 C   0  0  0  0  0  0  0  0  0  0  0  0
  192.3640  175.6210  147.1310 O   0  0  0  0  0  0  0  0  0  0  0  0
  192.0760  176.5070  145.0190 O   0  0  0  0  0  0  0  0  0  0  0  0
  190.9850  176.3400  142.8930 C   0  0  0  0  0  1  0  0  0  0  0  0
  191.6990  175.5930  144.0000 C   0  0  0  0  0  2  0  0  0  0  0  0
  1  9  1  0  0  0  0
  1  8  2  0  0  0  0
  2 15  2  0  0  0  0
  2 14  1  0  0  0  0
  3 10  2  0  0  0  0
  3  4  1  0  0  0  0
  4  6  2  0  0  0  0
  5 11  2  0  0  0  0
  6  8  1  0  0  0  0
  6 26  1  0  0  0  0
  7 11  1  0  0  0  0
  7  9  2  0  0  0  0
  9 13  1  0  0  0  0
 10  1  1  0  0  0  0
 12 14  2  0  0  0  0
 12 10  1  0  0  0  0
 14  7  1  0  0  0  0
 15  5  1  0  0  0  0
 16 19  1  0  0  0  0
 17 16  2  0  0  0  0
 17 18  1  0  0  0  0
 18 20  2  0  0  0  0
 19 20  1  0  0  0  0
 20  2  1  0  0  0  0
 21 18  1  0  0  0  0
 22 21  1  0  0  0  0
 23 25  1  0  0  0  0
 23 16  1  0  0  0  0
 24 25  1  0  0  0  0
 27 29  2  0  0  0  0
 28 26  1  0  0  0  0
 28 27  1  0  0  0  0
 30 27  1  0  0  0  0
 30 31  2  0  0  0  0
 32 30  1  0  0  0  0
 33 34  1  0  0  0  0
 34 32  1  0  0  0  0
M  END
>  <MODEL>
5

>  <REMARK>
 VINA RESULT:      -7.9      4.540      7.740
  Name = 
  9 active torsions:
  status: ('A' for Active; 'I' for Inactive)
    1  A    between atoms: C_1  and  C_11
    2  A    between atoms: C_2  and  C_20
    3  A    between atoms: C_4  and  C_8
    4  A    between atoms: C_7  and  C_30
    5  A    between atoms: C_11  and  N_21
    6  A    between atoms: C_12  and  N_15
    7  A    between atoms: C_12  and  C_17
    8  A    between atoms: C_13  and  O_27
    9  A    between atoms: C_20  and  O_27
                            x       y       z     vdW  Elec       q    Type
                         _______ _______ _______ _____ _____    ______ ____

>  <TORSDO>
F 9

$$$$
=
 OpenBabel11032421113D

 34 37  0  0  0  0  0  0  0  0999 V2000
  184.1140  178.7530  142.2600 C   0  0  0  0  0  0  0  0  0  0  0  0
  186.7900  178.1210  145.4380 C   0  0  0  0  0  0  0  0  0  0  0  0
  185.9690  178.4330  140.7180 C   0  0  0  0  0  3  0  0  0  0  0  0
  185.1030  178.6390  139.6390 C   0  0  0  0  0  3  0  0  0  0  0  0
  184.9330  178.4210  146.9700 C   0  0  0  0  0  3  0  0  0  0  0  0
  183.7460  178.8950  139.8650 C   0  0  0  0  0  0  0  0  0  0  0  0
  184.5350  178.5950  144.6380 C   0  0  0  0  0  0  0  0  0  0  0  0
  183.2540  178.9580  141.1730 C   0  0  0  0  0  3  0  0  0  0  0  0
  183.6440  178.8060  143.5780 C   0  0  0  0  0  0  0  0  0  0  0  0
  185.4810  178.4880  142.0250 C   0  0  0  0  0  0  0  0  0  0  0  0
  184.0930  178.6280  145.9240 N   0  0  0  0  0  0  0  0  0  0  0  0
  186.3250  178.2890  143.0710 N   0  0  0  0  0  0  0  0  0  0  0  0
  182.3000  179.0610  143.8380 O   0  0  0  0  0  1  0  0  0  0  0  0
  185.8990  178.3400  144.3640 C   0  0  0  0  0  0  0  0  0  0  0  0
  186.2860  178.1670  146.7450 C   0  0  0  0  0  3  0  0  0  0  0  0
  190.3420  177.7470  144.2760 C   0  0  0  0  0  0  0  0  0  0  0  0
  190.4490  177.3610  145.5370 C   0  0  0  0  0  2  0  0  0  0  0  0
  189.1230  177.4550  146.1270 C   0  0  0  0  0  0  0  0  0  0  0  0
  188.9420  178.1120  143.9170 C   0  0  0  0  0  3  0  0  0  0  0  0
  188.2420  177.8810  145.2190 C   0  0  0  0  0  0  0  0  0  0  0  0
  188.8280  177.0850  147.5440 C   0  0  0  0  0  2  0  0  0  0  0  0
  189.2230  178.2190  148.4700 C   0  0  0  0  0  1  0  0  0  0  0  0
  191.4810  177.7740  143.3140 C   0  0  0  0  0  2  0  0  0  0  0  0
  191.2420  177.4300  141.0130 C   0  0  0  0  0  1  0  0  0  0  0  0
  191.3050  176.7510  142.2950 N   0  0  0  0  0  2  0  0  0  0  0  0
  182.8350  179.1380  138.7150 C   0  0  0  0  0  2  0  0  0  0  0  0
  181.1560  180.8810  138.0040 C   0  0  0  0  0  0  0  0  0  0  0  0
  181.9620  180.2630  139.0100 N   0  0  0  0  0  2  0  0  0  0  0  0
  181.1860  180.4560  136.8160 O   0  0  0  0  0  0  0  0  0  0  0  0
  180.2930  182.0130  138.3510 C   0  0  0  0  0  0  0  0  0  0  0  0
  179.6700  182.0140  139.4480 O   0  0  0  0  0  0  0  0  0  0  0  0
  180.1650  183.0820  137.4610 O   0  0  0  0  0  0  0  0  0  0  0  0
  180.8020  185.0020  136.1790 C   0  0  0  0  0  1  0  0  0  0  0  0
  181.2580  183.9310  137.1470 C   0  0  0  0  0  2  0  0  0  0  0  0
  1  9  2  0  0  0  0
  2 15  1  0  0  0  0
  3 10  1  0  0  0  0
  4  6  1  0  0  0  0
  4  3  2  0  0  0  0
  6  8  2  0  0  0  0
  7 11  2  0  0  0  0
  8  1  1  0  0  0  0
  9 13  1  0  0  0  0
  9  7  1  0  0  0  0
 10  1  1  0  0  0  0
 10 12  2  0  0  0  0
 11  5  1  0  0  0  0
 12 14  1  0  0  0  0
 14  7  1  0  0  0  0
 14  2  2  0  0  0  0
 15  5  2  0  0  0  0
 16 17  1  0  0  0  0
 17 18  1  0  0  0  0
 18 21  1  0  0  0  0
 19 16  2  0  0  0  0
 19 20  1  0  0  0  0
 20  2  1  0  0  0  0
 20 18  2  0  0  0  0
 21 22  1  0  0  0  0
 23 16  1  0  0  0  0
 24 25  1  0  0  0  0
 25 23  1  0  0  0  0
 26 28  1  0  0  0  0
 26  6  1  0  0  0  0
 27 30  1  0  0  0  0
 27 28  1  0  0  0  0
 29 27  2  0  0  0  0
 30 31  2  0  0  0  0
 32 30  1  0  0  0  0
 33 34  1  0  0  0  0
 34 32  1  0  0  0  0
M  END
>  <MODEL>
6

>  <REMARK>
 VINA RESULT:      -7.7      4.617      8.778
  Name = 
  9 active torsions:
  status: ('A' for Active; 'I' for Inactive)
    1  A    between atoms: C_1  and  C_11
    2  A    between atoms: C_2  and  C_20
    3  A    between atoms: C_4  and  C_8
    4  A    between atoms: C_7  and  C_30
    5  A    between atoms: C_11  and  N_21
    6  A    between atoms: C_12  and  N_15
    7  A    between atoms: C_12  and  C_17
    8  A    between atoms: C_13  and  O_27
    9  A    between atoms: C_20  and  O_27
                            x       y       z     vdW  Elec       q    Type
                         _______ _______ _______ _____ _____    ______ ____

>  <TORSDO>
F 9

$$$$
=
 OpenBabel11032421113D

 34 37  0  0  0  0  0  0  0  0999 V2000
  190.0560  177.0380  141.5150 C   0  0  0  0  0  0  0  0  0  0  0  0
  187.4670  177.7400  144.7510 C   0  0  0  0  0  0  0  0  0  0  0  0
  188.2610  177.7120  140.0150 C   0  0  0  0  0  3  0  0  0  0  0  0
  189.0990  177.4870  138.9190 C   0  0  0  0  0  3  0  0  0  0  0  0
  189.2670  177.0870  146.2420 C   0  0  0  0  0  3  0  0  0  0  0  0
  190.4120  177.0460  139.1140 C   0  0  0  0  0  0  0  0  0  0  0  0
  189.6490  177.0550  143.9010 C   0  0  0  0  0  0  0  0  0  0  0  0
  190.8870  176.8160  140.4100 C   0  0  0  0  0  3  0  0  0  0  0  0
  190.5110  176.8210  142.8220 C   0  0  0  0  0  0  0  0  0  0  0  0
  188.7340  177.4900  141.3110 C   0  0  0  0  0  0  0  0  0  0  0  0
  190.0780  176.8620  145.1770 N   0  0  0  0  0  0  0  0  0  0  0  0
  187.9170  177.7080  142.3750 N   0  0  0  0  0  0  0  0  0  0  0  0
  191.8110  176.3780  143.0520 O   0  0  0  0  0  1  0  0  0  0  0  0
  188.3280  177.4990  143.6570 C   0  0  0  0  0  0  0  0  0  0  0  0
  187.9570  177.5250  146.0460 C   0  0  0  0  0  3  0  0  0  0  0  0
  184.0190  178.7200  143.6310 C   0  0  0  0  0  0  0  0  0  0  0  0
  183.9090  178.8690  144.9410 C   0  0  0  0  0  2  0  0  0  0  0  0
  185.1960  178.5180  145.5210 C   0  0  0  0  0  0  0  0  0  0  0  0
  185.3850  178.2770  143.2290 C   0  0  0  0  0  3  0  0  0  0  0  0
  186.0580  178.1770  144.5610 C   0  0  0  0  0  0  0  0  0  0  0  0
  185.4770  178.5760  146.9870 C   0  0  0  0  0  2  0  0  0  0  0  0
  186.0540  179.9290  147.3530 C   0  0  0  0  0  1  0  0  0  0  0  0
  182.9190  179.0030  142.6650 C   0  0  0  0  0  2  0  0  0  0  0  0
  181.9740  178.0380  140.7560 C   0  0  0  0  0  1  0  0  0  0  0  0
  183.2320  178.4360  141.3630 N   0  0  0  0  0  2  0  0  0  0  0  0
  191.2910  176.7850  137.9430 C   0  0  0  0  0  2  0  0  0  0  0  0
  193.6280  175.8580  137.7420 C   0  0  0  0  0  0  0  0  0  0  0  0
  192.3140  175.8160  138.3030 N   0  0  0  0  0  2  0  0  0  0  0  0
  193.9340  176.7520  136.9070 O   0  0  0  0  0  0  0  0  0  0  0  0
  194.6240  174.8580  138.1370 C   0  0  0  0  0  0  0  0  0  0  0  0
  194.8070  173.8360  137.4210 O   0  0  0  0  0  0  0  0  0  0  0  0
  195.3630  175.0460  139.3070 O   0  0  0  0  0  0  0  0  0  0  0  0
  197.3920  175.2520  140.5640 C   0  0  0  0  0  1  0  0  0  0  0  0
  196.6660  174.5050  139.4660 C   0  0  0  0  0  2  0  0  0  0  0  0
  1  9  2  0  0  0  0
  2 15  1  0  0  0  0
  3 10  1  0  0  0  0
  4  6  1  0  0  0  0
  4  3  2  0  0  0  0
  6  8  2  0  0  0  0
  7 11  2  0  0  0  0
  8  1  1  0  0  0  0
  9 13  1  0  0  0  0
  9  7  1  0  0  0  0
 10  1  1  0  0  0  0
 10 12  2  0  0  0  0
 11  5  1  0  0  0  0
 12 14  1  0  0  0  0
 14  7  1  0  0  0  0
 14  2  2  0  0  0  0
 15  5  2  0  0  0  0
 16 17  1  0  0  0  0
 17 18  1  0  0  0  0
 18 21  1  0  0  0  0
 19 16  2  0  0  0  0
 19 20  1  0  0  0  0
 20  2  1  0  0  0  0
 20 18  2  0  0  0  0
 21 22  1  0  0  0  0
 23 16  1  0  0  0  0
 24 25  1  0  0  0  0
 25 23  1  0  0  0  0
 26 28  1  0  0  0  0
 26  6  1  0  0  0  0
 27 30  1  0  0  0  0
 27 28  1  0  0  0  0
 29 27  2  0  0  0  0
 30 32  1  0  0  0  0
 31 30  2  0  0  0  0
 32 34  1  0  0  0  0
 34 33  1  0  0  0  0
M  END
>  <MODEL>
7

>  <REMARK>
 VINA RESULT:      -7.7      3.429      9.958
  Name = 
  9 active torsions:
  status: ('A' for Active; 'I' for Inactive)
    1  A    between atoms: C_1  and  C_11
    2  A    between atoms: C_2  and  C_20
    3  A    between atoms: C_4  and  C_8
    4  A    between atoms: C_7  and  C_30
    5  A    between atoms: C_11  and  N_21
    6  A    between atoms: C_12  and  N_15
    7  A    between atoms: C_12  and  C_17
    8  A    between atoms: C_13  and  O_27
    9  A    between atoms: C_20  and  O_27
                            x       y       z     vdW  Elec       q    Type
                         _______ _______ _______ _____ _____    ______ ____

>  <TORSDO>
F 9

$$$$
=
 OpenBabel11032421113D

 34 37  0  0  0  0  0  0  0  0999 V2000
  189.5310  177.6240  139.9290 C   0  0  0  0  0  0  0  0  0  0  0  0
  187.0850  178.0900  143.3160 C   0  0  0  0  0  0  0  0  0  0  0  0
  191.3310  176.9160  141.4060 C   0  0  0  0  0  3  0  0  0  0  0  0
  192.1690  176.7510  140.2990 C   0  0  0  0  0  3  0  0  0  0  0  0
  185.2880  178.7750  141.8370 C   0  0  0  0  0  3  0  0  0  0  0  0
  191.6930  177.0150  139.0100 C   0  0  0  0  0  0  0  0  0  0  0  0
  187.3930  178.2140  140.8990 C   0  0  0  0  0  0  0  0  0  0  0  0
  190.3780  177.4550  138.8260 C   0  0  0  0  0  3  0  0  0  0  0  0
  188.2090  178.0590  139.7710 C   0  0  0  0  0  0  0  0  0  0  0  0
  190.0160  177.3500  141.2270 C   0  0  0  0  0  0  0  0  0  0  0  0
  186.1030  178.6220  140.7620 N   0  0  0  0  0  0  0  0  0  0  0  0
  189.2040  177.5100  142.3050 N   0  0  0  0  0  0  0  0  0  0  0  0
  187.7040  178.3330  138.5020 O   0  0  0  0  0  1  0  0  0  0  0  0
  187.9160  177.9380  142.1830 C   0  0  0  0  0  0  0  0  0  0  0  0
  185.7640  178.5140  143.1220 C   0  0  0  0  0  3  0  0  0  0  0  0
  188.8670  177.2030  146.5000 C   0  0  0  0  0  0  0  0  0  0  0  0
  187.8030  177.8310  146.9750 C   0  0  0  0  0  2  0  0  0  0  0  0
  187.0030  178.2400  145.8310 C   0  0  0  0  0  0  0  0  0  0  0  0
  188.8560  177.1260  145.0120 C   0  0  0  0  0  3  0  0  0  0  0  0
  187.5850  177.8470  144.6960 C   0  0  0  0  0  0  0  0  0  0  0  0
  185.7050  178.9680  145.9580 C   0  0  0  0  0  2  0  0  0  0  0  0
  184.8070  178.2620  146.9550 C   0  0  0  0  0  1  0  0  0  0  0  0
  189.9310  176.6040  147.3560 C   0  0  0  0  0  2  0  0  0  0  0  0
  192.0760  175.7680  146.9500 C   0  0  0  0  0  1  0  0  0  0  0  0
  191.2460  176.9550  146.8460 N   0  0  0  0  0  2  0  0  0  0  0  0
  192.5960  176.8610  137.8380 C   0  0  0  0  0  2  0  0  0  0  0  0
  194.1570  174.8830  137.9280 C   0  0  0  0  0  0  0  0  0  0  0  0
  193.8410  176.2380  138.2550 N   0  0  0  0  0  2  0  0  0  0  0  0
  193.3480  174.1860  137.2580 O   0  0  0  0  0  0  0  0  0  0  0  0
  195.4260  174.3000  138.3730 C   0  0  0  0  0  0  0  0  0  0  0  0
  195.4230  173.2850  139.1210 O   0  0  0  0  0  0  0  0  0  0  0  0
  196.6310  174.8760  137.9640 O   0  0  0  0  0  0  0  0  0  0  0  0
  197.2460  175.6260  135.7740 C   0  0  0  0  0  1  0  0  0  0  0  0
  197.2820  174.4830  136.7650 C   0  0  0  0  0  2  0  0  0  0  0  0
  1 10  1  0  0  0  0
  2 20  1  0  0  0  0
  4  3  2  0  0  0  0
  5 15  2  0  0  0  0
  6  4  1  0  0  0  0
  7 14  1  0  0  0  0
  8  6  2  0  0  0  0
  8  1  1  0  0  0  0
  9  1  2  0  0  0  0
  9  7  1  0  0  0  0
 10  3  1  0  0  0  0
 10 12  2  0  0  0  0
 11  7  2  0  0  0  0
 11  5  1  0  0  0  0
 13  9  1  0  0  0  0
 14 12  1  0  0  0  0
 14  2  2  0  0  0  0
 15  2  1  0  0  0  0
 16 17  1  0  0  0  0
 16 23  1  0  0  0  0
 18 21  1  0  0  0  0
 18 17  1  0  0  0  0
 19 16  2  0  0  0  0
 20 19  1  0  0  0  0
 20 18  2  0  0  0  0
 21 22  1  0  0  0  0
 25 24  1  0  0  0  0
 25 23  1  0  0  0  0
 26 28  1  0  0  0  0
 26  6  1  0  0  0  0
 27 28  1  0  0  0  0
 27 30  1  0  0  0  0
 29 27  2  0  0  0  0
 30 31  2  0  0  0  0
 32 30  1  0  0  0  0
 33 34  1  0  0  0  0
 34 32  1  0  0  0  0
M  END
>  <MODEL>
8

>  <REMARK>
 VINA RESULT:      -7.7      3.443      9.311
  Name = 
  9 active torsions:
  status: ('A' for Active; 'I' for Inactive)
    1  A    between atoms: C_1  and  C_11
    2  A    between atoms: C_2  and  C_20
    3  A    between atoms: C_4  and  C_8
    4  A    between atoms: C_7  and  C_30
    5  A    between atoms: C_11  and  N_21
    6  A    between atoms: C_12  and  N_15
    7  A    between atoms: C_12  and  C_17
    8  A    between atoms: C_13  and  O_27
    9  A    between atoms: C_20  and  O_27
                            x       y       z     vdW  Elec       q    Type
                         _______ _______ _______ _____ _____    ______ ____

>  <TORSDO>
F 9

$$$$
=
 OpenBabel11032421113D

 34 37  0  0  0  0  0  0  0  0999 V2000
  189.6910  177.7290  140.4860 C   0  0  0  0  0  0  0  0  0  0  0  0
  189.1590  177.5980  144.6530 C   0  0  0  0  0  0  0  0  0  0  0  0
  187.3200  178.2320  140.2630 C   0  0  0  0  0  3  0  0  0  0  0  0
  187.4650  178.2830  138.8730 C   0  0  0  0  0  3  0  0  0  0  0  0
  191.5270  177.1160  144.8700 C   0  0  0  0  0  3  0  0  0  0  0  0
  188.7170  178.0640  138.2880 C   0  0  0  0  0  0  0  0  0  0  0  0
  190.6110  177.4100  142.7020 C   0  0  0  0  0  0  0  0  0  0  0  0
  189.8260  177.7820  139.0920 C   0  0  0  0  0  3  0  0  0  0  0  0
  190.7870  177.4540  141.3130 C   0  0  0  0  0  0  0  0  0  0  0  0
  188.4260  177.9570  141.0710 C   0  0  0  0  0  0  0  0  0  0  0  0
  191.6670  177.1590  143.5200 N   0  0  0  0  0  0  0  0  0  0  0  0
  188.2810  177.9080  142.4210 N   0  0  0  0  0  0  0  0  0  0  0  0
  192.0460  177.2280  140.7630 O   0  0  0  0  0  1  0  0  0  0  0  0
  189.3270  177.6360  143.2510 C   0  0  0  0  0  0  0  0  0  0  0  0
  190.2780  177.3330  145.4530 C   0  0  0  0  0  3  0  0  0  0  0  0
  185.5950  178.2340  145.6520 C   0  0  0  0  0  0  0  0  0  0  0  0
  186.1200  177.8750  146.8120 C   0  0  0  0  0  2  0  0  0  0  0  0
  187.5270  177.5930  146.5750 C   0  0  0  0  0  0  0  0  0  0  0  0
  186.6050  178.2370  144.5550 C   0  0  0  0  0  3  0  0  0  0  0  0
  187.8290  177.7940  145.2910 C   0  0  0  0  0  0  0  0  0  0  0  0
  188.4710  177.1710  147.6530 C   0  0  0  0  0  2  0  0  0  0  0  0
  188.5850  178.2600  148.7020 C   0  0  0  0  0  1  0  0  0  0  0  0
  184.1690  178.6300  145.4700 C   0  0  0  0  0  2  0  0  0  0  0  0
  182.9710  179.1620  143.5330 C   0  0  0  0  0  1  0  0  0  0  0  0
  184.0490  179.6070  144.4000 N   0  0  0  0  0  2  0  0  0  0  0  0
  188.8620  178.0940  136.8080 C   0  0  0  0  0  2  0  0  0  0  0  0
  189.4540  175.7920  135.9650 C   0  0  0  0  0  0  0  0  0  0  0  0
  189.8390  177.1020  136.3890 N   0  0  0  0  0  2  0  0  0  0  0  0
  188.2370  175.4620  135.9450 O   0  0  0  0  0  0  0  0  0  0  0  0
  190.4770  174.8270  135.5530 C   0  0  0  0  0  0  0  0  0  0  0  0
  190.1410  173.7840  134.9280 O   0  0  0  0  0  0  0  0  0  0  0  0
  191.8180  175.0710  135.8570 O   0  0  0  0  0  0  0  0  0  0  0  0
  193.0700  175.9510  137.7000 C   0  0  0  0  0  1  0  0  0  0  0  0
  192.3730  174.7380  137.1210 C   0  0  0  0  0  2  0  0  0  0  0  0
  1 10  1  0  0  0  0
  1  9  2  0  0  0  0
  2 20  1  0  0  0  0
  2 15  1  0  0  0  0
  3 10  1  0  0  0  0
  4  3  2  0  0  0  0
  5 15  2  0  0  0  0
  6  4  1  0  0  0  0
  6  8  2  0  0  0  0
  7 14  1  0  0  0  0
  7 11  2  0  0  0  0
  8  1  1  0  0  0  0
  9  7  1  0  0  0  0
 10 12  2  0  0  0  0
 11  5  1  0  0  0  0
 12 14  1  0  0  0  0
 13  9  1  0  0  0  0
 14  2  2  0  0  0  0
 16 17  1  0  0  0  0
 18 17  1  0  0  0  0
 18 21  1  0  0  0  0
 19 20  1  0  0  0  0
 19 16  2  0  0  0  0
 20 18  2  0  0  0  0
 21 22  1  0  0  0  0
 23 16  1  0  0  0  0
 24 25  1  0  0  0  0
 25 23  1  0  0  0  0
 26  6  1  0  0  0  0
 27 28  1  0  0  0  0
 28 26  1  0  0  0  0
 29 27  2  0  0  0  0
 30 32  1  0  0  0  0
 30 27  1  0  0  0  0
 31 30  2  0  0  0  0
 32 34  1  0  0  0  0
 34 33  1  0  0  0  0
M  END
>  <MODEL>
9

>  <REMARK>
 VINA RESULT:      -7.7      3.469      9.730
  Name = 
  9 active torsions:
  status: ('A' for Active; 'I' for Inactive)
    1  A    between atoms: C_1  and  C_11
    2  A    between atoms: C_2  and  C_20
    3  A    between atoms: C_4  and  C_8
    4  A    between atoms: C_7  and  C_30
    5  A    between atoms: C_11  and  N_21
    6  A    between atoms: C_12  and  N_15
    7  A    between atoms: C_12  and  C_17
    8  A    between atoms: C_13  and  O_27
    9  A    between atoms: C_20  and  O_27
                            x       y       z     vdW  Elec       q    Type
                         _______ _______ _______ _____ _____    ______ ____

>  <TORSDO>
F 9

$$$$
