=
 OpenBabel11042412093D

 37 40  0  0  1  0  0  0  0  0999 V2000
  188.5150  177.2030  139.3240 C   0  0  0  0  0  3  0  0  0  0  0  0
  190.9660  177.2190  140.2180 C   0  0  0  0  0  0  0  0  0  0  0  0
  189.7420  177.2060  139.7610 C   0  0  0  0  0  0  0  0  0  0  0  0
  191.0710  176.2070  143.9680 C   0  0  1  0  0  3  0  0  0  0  0  0
  191.2260  177.4980  141.6010 N   0  0  0  0  0  2  0  0  0  0  0  0
  190.7590  175.2270  143.0680 N   0  0  0  0  0  0  0  0  0  0  0  0
  191.0620  176.5380  142.6440 C   0  0  0  0  0  0  0  0  0  0  0  0
  188.6630  177.5280  146.6470 C   0  0  0  0  0  0  0  0  0  0  0  0
  187.5240  177.4640  144.5000 C   0  0  0  0  0  3  0  0  0  0  0  0
  187.5190  177.7420  145.8660 C   0  0  0  0  0  3  0  0  0  0  0  0
  190.9920  176.8240  146.7750 O   0  0  0  0  0  1  0  0  0  0  0  0
  189.8270  176.7090  144.6540 C   0  0  0  0  0  0  0  0  0  0  0  0
  188.6730  176.9570  143.8970 C   0  0  0  0  0  3  0  0  0  0  0  0
  189.8300  177.0180  146.0320 C   0  0  0  0  0  0  0  0  0  0  0  0
  187.7620  177.3040  148.8490 O   0  0  0  0  0  1  0  0  0  0  0  0
  188.5990  177.8580  148.0900 C   0  0  0  0  0  0  0  0  0  0  0  0
  189.4750  178.7950  148.6250 O   0  0  0  0  0  0  0  0  0  0  0  0
  191.2600  175.0170  138.3320 O   0  0  0  0  0  0  0  0  0  0  0  0
  192.1610  175.8960  138.3960 C   0  0  0  0  0  0  0  0  0  0  0  0
  192.0440  177.0020  139.3000 N   0  0  0  0  0  2  0  0  0  0  0  0
  193.8140  176.7920  136.8760 N   0  0  0  0  0  0  0  0  0  0  0  0
  194.9310  176.4050  136.1370 N   0  0  0  0  0  2  0  0  0  0  0  0
  195.1960  174.9890  136.3310 C   0  0  2  0  0  3  0  0  0  0  0  0
  194.1070  174.5310  137.3040 C   0  0  0  0  0  2  0  0  0  0  0  0
  193.3370  175.7900  137.5270 C   0  0  0  0  0  0  0  0  0  0  0  0
  197.5670  174.6660  136.1940 O   0  0  0  0  0  0  0  0  0  0  0  0
  196.5500  174.7880  136.9290 C   0  0  0  0  0  0  0  0  0  0  0  0
  196.6930  174.7650  138.3090 O   0  0  0  0  0  1  0  0  0  0  0  0
  187.6270  178.3600  139.6120 C   0  0  0  0  0  2  0  0  0  0  0  0
  187.5500  178.5800  141.1110 C   0  0  0  0  0  2  0  0  0  0  0  0
  186.2330  179.2410  141.4850 C   0  0  0  0  0  2  0  0  0  0  0  0
  184.0400  178.0500  141.4060 C   0  0  0  0  0  2  0  0  0  0  0  0
  183.7590  179.3070  138.8560 C   0  0  0  0  0  2  0  0  0  0  0  0
  185.1100  178.7730  140.5740 C   0  0  1  0  0  3  0  0  0  0  0  0
  184.5550  179.8630  139.8750 O   0  0  0  0  0  0  0  0  0  0  0  0
  182.6240  178.4210  140.9500 C   0  0  0  0  0  2  0  0  0  0  0  0
  182.5410  178.5610  139.4270 C   0  0  0  0  0  2  0  0  0  0  0  0
  1 29  1  0  0  0  0
  1  3  2  0  0  0  0
  2  5  1  0  0  0  0
  3  2  2  0  0  0  0
  4 12  1  1  0  0  0
  5  7  1  0  0  0  0
  6  4  1  0  0  0  0
  7  6  2  0  0  0  0
  7  4  1  0  0  0  0
  8 16  1  0  0  0  0
  9 10  1  0  0  0  0
 10  8  2  0  0  0  0
 12 14  2  0  0  0  0
 13  9  2  0  0  0  0
 13 12  1  0  0  0  0
 14  8  1  0  0  0  0
 14 11  1  0  0  0  0
 16 17  2  0  0  0  0
 16 15  1  0  0  0  0
 18 19  2  0  0  0  0
 19 20  1  0  0  0  0
 20  2  1  0  0  0  0
 21 25  2  0  0  0  0
 22 23  1  0  0  0  0
 22 21  1  0  0  0  0
 23 27  1  1  0  0  0
 23 24  1  0  0  0  0
 24 25  1  0  0  0  0
 25 19  1  0  0  0  0
 26 27  2  0  0  0  0
 27 28  1  0  0  0  0
 29 30  1  0  0  0  0
 30 31  1  0  0  0  0
 33 37  1  0  0  0  0
 33 35  1  0  0  0  0
 34 32  1  0  0  0  0
 34 31  1  1  0  0  0
 35 34  1  0  0  0  0
 36 32  1  0  0  0  0
 37 36  1  0  0  0  0
M  END
>  <MODEL>
1

>  <REMARK>
 VINA RESULT:      -9.0      0.000      0.000
  Name = 
  10 active torsions:
  status: ('A' for Active; 'I' for Inactive)
    1  A    between atoms: C_1  and  C_15
    2  A    between atoms: C_6  and  C_36
    3  A    between atoms: C_7  and  C_26
    4  A    between atoms: C_8  and  C_24
    5  A    between atoms: C_9  and  C_34
    6  A    between atoms: N_11  and  C_13
    7  A    between atoms: C_13  and  N_20
    8  A    between atoms: C_16  and  C_26
    9  A    between atoms: C_16  and  C_34
   10  A    between atoms: C_18  and  C_29
                            x       y       z     vdW  Elec       q    Type
                         _______ _______ _______ _____ _____    ______ ____

>  <TORSDO>
F 10

$$$$
=
 OpenBabel11042412093D

 37 40  0  0  1  0  0  0  0  0999 V2000
  191.5780  177.6570  142.4630 C   0  0  0  0  0  3  0  0  0  0  0  0
  191.1000  176.9580  139.9950 C   0  0  0  0  0  0  0  0  0  0  0  0
  191.3500  177.3120  141.2280 C   0  0  0  0  0  0  0  0  0  0  0  0
  187.7350  177.9940  138.3520 C   0  0  1  0  0  3  0  0  0  0  0  0
  189.7570  176.6830  139.5710 N   0  0  0  0  0  2  0  0  0  0  0  0
  188.7560  178.9010  138.3040 N   0  0  0  0  0  0  0  0  0  0  0  0
  188.9330  177.6330  138.8950 C   0  0  0  0  0  0  0  0  0  0  0  0
  184.4520  178.7260  140.1990 C   0  0  0  0  0  0  0  0  0  0  0  0
  186.3080  178.8840  141.7610 C   0  0  0  0  0  3  0  0  0  0  0  0
  184.9430  178.9590  141.4900 C   0  0  0  0  0  3  0  0  0  0  0  0
  184.9040  178.1480  137.8750 O   0  0  0  0  0  1  0  0  0  0  0  0
  186.7490  178.3670  139.4300 C   0  0  0  0  0  0  0  0  0  0  0  0
  187.2040  178.5820  140.7380 C   0  0  0  0  0  3  0  0  0  0  0  0
  185.3630  178.4160  139.1630 C   0  0  0  0  0  0  0  0  0  0  0  0
  182.4730  179.7800  139.3700 O   0  0  0  0  0  0  0  0  0  0  0  0
  182.9890  178.8060  139.9790 C   0  0  0  0  0  0  0  0  0  0  0  0
  182.1620  177.7920  140.4480 O   0  0  0  0  0  1  0  0  0  0  0  0
  191.5010  174.8090  138.0690 O   0  0  0  0  0  0  0  0  0  0  0  0
  192.3690  175.7180  138.1650 C   0  0  0  0  0  0  0  0  0  0  0  0
  192.1990  176.7990  139.0900 N   0  0  0  0  0  2  0  0  0  0  0  0
  193.9860  176.6910  136.6540 N   0  0  0  0  0  0  0  0  0  0  0  0
  195.1340  176.3630  135.9350 N   0  0  0  0  0  2  0  0  0  0  0  0
  195.4820  174.9680  136.1530 C   0  0  2  0  0  3  0  0  0  0  0  0
  194.4080  174.4590  137.1170 C   0  0  0  0  0  2  0  0  0  0  0  0
  193.5620  175.6710  137.3130 C   0  0  0  0  0  0  0  0  0  0  0  0
  197.1180  173.8990  137.5390 O   0  0  0  0  0  1  0  0  0  0  0  0
  196.8370  174.8590  136.7710 C   0  0  0  0  0  0  0  0  0  0  0  0
  197.8040  175.8090  136.4740 O   0  0  0  0  0  0  0  0  0  0  0  0
  191.0320  176.8320  143.5720 C   0  0  0  0  0  2  0  0  0  0  0  0
  190.9430  177.6700  144.8330 C   0  0  0  0  0  2  0  0  0  0  0  0
  190.0810  176.9750  145.8750 C   0  0  0  0  0  2  0  0  0  0  0  0
  187.9030  177.6780  144.8770 C   0  0  0  0  0  2  0  0  0  0  0  0
  187.1410  178.1900  147.5820 C   0  0  0  0  0  2  0  0  0  0  0  0
  188.7960  177.7490  146.1250 C   0  0  1  0  0  3  0  0  0  0  0  0
  188.1260  177.2400  147.2540 O   0  0  0  0  0  0  0  0  0  0  0  0
  186.4290  177.4790  145.2480 C   0  0  0  0  0  2  0  0  0  0  0  0
  186.0500  178.2760  146.5000 C   0  0  0  0  0  2  0  0  0  0  0  0
  1 29  1  0  0  0  0
  2  3  2  0  0  0  0
  3  1  2  0  0  0  0
  4  7  1  0  0  0  0
  4 12  1  1  0  0  0
  5  2  1  0  0  0  0
  6  4  1  0  0  0  0
  6  7  2  0  0  0  0
  7  5  1  0  0  0  0
  8 10  1  0  0  0  0
 10  9  2  0  0  0  0
 11 14  1  0  0  0  0
 12 13  2  0  0  0  0
 13  9  1  0  0  0  0
 14 12  1  0  0  0  0
 14  8  2  0  0  0  0
 15 16  2  0  0  0  0
 16  8  1  0  0  0  0
 16 17  1  0  0  0  0
 18 19  2  0  0  0  0
 19 20  1  0  0  0  0
 20  2  1  0  0  0  0
 21 25  2  0  0  0  0
 22 23  1  0  0  0  0
 22 21  1  0  0  0  0
 23 27  1  1  0  0  0
 23 24  1  0  0  0  0
 24 25  1  0  0  0  0
 25 19  1  0  0  0  0
 27 26  1  0  0  0  0
 28 27  2  0  0  0  0
 29 30  1  0  0  0  0
 30 31  1  0  0  0  0
 32 36  1  0  0  0  0
 32 34  1  0  0  0  0
 34 31  1  6  0  0  0
 34 35  1  0  0  0  0
 35 33  1  0  0  0  0
 36 37  1  0  0  0  0
 37 33  1  0  0  0  0
M  END
>  <MODEL>
2

>  <REMARK>
 VINA RESULT:      -8.7      1.382      5.829
  Name = 
  10 active torsions:
  status: ('A' for Active; 'I' for Inactive)
    1  A    between atoms: C_1  and  C_15
    2  A    between atoms: C_6  and  C_36
    3  A    between atoms: C_7  and  C_26
    4  A    between atoms: C_8  and  C_24
    5  A    between atoms: C_9  and  C_34
    6  A    between atoms: N_11  and  C_13
    7  A    between atoms: C_13  and  N_20
    8  A    between atoms: C_16  and  C_26
    9  A    between atoms: C_16  and  C_34
   10  A    between atoms: C_18  and  C_29
                            x       y       z     vdW  Elec       q    Type
                         _______ _______ _______ _____ _____    ______ ____

>  <TORSDO>
F 10

$$$$
=
 OpenBabel11042412093D

 37 40  0  0  1  0  0  0  0  0999 V2000
  186.9200  177.0870  146.1280 C   0  0  0  0  0  3  0  0  0  0  0  0
  186.6760  177.3020  143.5400 C   0  0  0  0  0  0  0  0  0  0  0  0
  186.7870  177.1930  144.8370 C   0  0  0  0  0  0  0  0  0  0  0  0
  188.9170  178.5220  140.6100 C   0  0  1  0  0  3  0  0  0  0  0  0
  187.8310  177.1930  142.6960 N   0  0  0  0  0  2  0  0  0  0  0  0
  187.8570  179.3120  140.9520 N   0  0  0  0  0  0  0  0  0  0  0  0
  188.1400  178.1250  141.6580 C   0  0  0  0  0  0  0  0  0  0  0  0
  189.1640  175.9740  137.7510 C   0  0  0  0  0  0  0  0  0  0  0  0
  187.0230  177.1190  137.6280 C   0  0  0  0  0  3  0  0  0  0  0  0
  187.9220  176.1770  137.1330 C   0  0  0  0  0  3  0  0  0  0  0  0
  190.7120  176.5450  139.5430 O   0  0  0  0  0  1  0  0  0  0  0  0
  188.6010  177.7200  139.3730 C   0  0  0  0  0  0  0  0  0  0  0  0
  187.3570  177.8810  138.7460 C   0  0  0  0  0  3  0  0  0  0  0  0
  189.4990  176.7450  138.8880 C   0  0  0  0  0  0  0  0  0  0  0  0
  189.9470  173.7310  137.4940 O   0  0  0  0  0  1  0  0  0  0  0  0
  190.0680  174.9460  137.1870 C   0  0  0  0  0  0  0  0  0  0  0  0
  191.0720  175.3180  136.3000 O   0  0  0  0  0  0  0  0  0  0  0  0
  184.8270  179.4020  144.3530 O   0  0  0  0  0  0  0  0  0  0  0  0
  184.4980  178.6210  143.4200 C   0  0  0  0  0  0  0  0  0  0  0  0
  185.3870  177.5860  142.9820 N   0  0  0  0  0  2  0  0  0  0  0  0
  183.0050  178.5380  141.5200 N   0  0  0  0  0  0  0  0  0  0  0  0
  181.6750  178.7710  141.1750 N   0  0  0  0  0  2  0  0  0  0  0  0
  180.9250  179.2230  142.3360 C   0  0  2  0  0  3  0  0  0  0  0  0
  181.9550  179.2320  143.4680 C   0  0  0  0  0  2  0  0  0  0  0  0
  183.1930  178.7810  142.7690 C   0  0  0  0  0  0  0  0  0  0  0  0
  179.2890  178.2460  143.7890 O   0  0  0  0  0  1  0  0  0  0  0  0
  179.8160  178.2710  142.6440 C   0  0  0  0  0  0  0  0  0  0  0  0
  179.3440  177.4250  141.6510 O   0  0  0  0  0  0  0  0  0  0  0  0
  187.9390  177.9080  146.8340 C   0  0  0  0  0  2  0  0  0  0  0  0
  189.0030  177.0020  147.4240 C   0  0  0  0  0  2  0  0  0  0  0  0
  190.3810  177.4000  146.9180 C   0  0  0  0  0  2  0  0  0  0  0  0
  190.5000  178.4390  144.6510 C   0  0  0  0  0  2  0  0  0  0  0  0
  191.5870  175.9210  143.8530 C   0  0  0  0  0  2  0  0  0  0  0  0
  190.5180  177.1160  145.4300 C   0  0  1  0  0  3  0  0  0  0  0  0
  191.7000  176.3950  145.1730 O   0  0  0  0  0  0  0  0  0  0  0  0
  191.5280  178.4400  143.5150 C   0  0  0  0  0  2  0  0  0  0  0  0
  191.6130  177.0710  142.8310 C   0  0  0  0  0  2  0  0  0  0  0  0
  1 29  1  0  0  0  0
  2  3  2  0  0  0  0
  3  1  2  0  0  0  0
  4 12  1  6  0  0  0
  4  6  1  0  0  0  0
  4  7  1  0  0  0  0
  5  2  1  0  0  0  0
  6  7  2  0  0  0  0
  7  5  1  0  0  0  0
  8 14  1  0  0  0  0
  9 13  2  0  0  0  0
 10  9  1  0  0  0  0
 10  8  2  0  0  0  0
 13 12  1  0  0  0  0
 14 12  2  0  0  0  0
 14 11  1  0  0  0  0
 16 15  1  0  0  0  0
 16  8  1  0  0  0  0
 17 16  2  0  0  0  0
 19 18  2  0  0  0  0
 20 19  1  0  0  0  0
 20  2  1  0  0  0  0
 21 25  2  0  0  0  0
 22 21  1  0  0  0  0
 22 23  1  0  0  0  0
 23 27  1  1  0  0  0
 23 24  1  0  0  0  0
 25 19  1  0  0  0  0
 25 24  1  0  0  0  0
 27 26  1  0  0  0  0
 28 27  2  0  0  0  0
 29 30  1  0  0  0  0
 31 30  1  0  0  0  0
 32 34  1  0  0  0  0
 33 35  1  0  0  0  0
 34 31  1  1  0  0  0
 35 34  1  0  0  0  0
 36 32  1  0  0  0  0
 37 36  1  0  0  0  0
 37 33  1  0  0  0  0
M  END
>  <MODEL>
3

>  <REMARK>
 VINA RESULT:      -8.7      3.744     10.235
  Name = 
  10 active torsions:
  status: ('A' for Active; 'I' for Inactive)
    1  A    between atoms: C_1  and  C_15
    2  A    between atoms: C_6  and  C_36
    3  A    between atoms: C_7  and  C_26
    4  A    between atoms: C_8  and  C_24
    5  A    between atoms: C_9  and  C_34
    6  A    between atoms: N_11  and  C_13
    7  A    between atoms: C_13  and  N_20
    8  A    between atoms: C_16  and  C_26
    9  A    between atoms: C_16  and  C_34
   10  A    between atoms: C_18  and  C_29
                            x       y       z     vdW  Elec       q    Type
                         _______ _______ _______ _____ _____    ______ ____

>  <TORSDO>
F 10

$$$$
=
 OpenBabel11042412093D

 37 40  0  0  1  0  0  0  0  0999 V2000
  185.9180  177.8510  146.0550 C   0  0  0  0  0  3  0  0  0  0  0  0
  186.4770  177.3790  143.5510 C   0  0  0  0  0  0  0  0  0  0  0  0
  186.1860  177.6160  144.8030 C   0  0  0  0  0  0  0  0  0  0  0  0
  190.0710  177.8230  142.1440 C   0  0  1  0  0  3  0  0  0  0  0  0
  187.7680  176.8710  143.1840 N   0  0  0  0  0  2  0  0  0  0  0  0
  189.3250  178.9550  142.3120 N   0  0  0  0  0  0  0  0  0  0  0  0
  188.8190  177.6880  142.6680 C   0  0  0  0  0  0  0  0  0  0  0  0
  191.2850  176.6200  138.7080 C   0  0  0  0  0  0  0  0  0  0  0  0
  188.8720  176.9060  138.6550 C   0  0  0  0  0  3  0  0  0  0  0  0
  190.0650  176.5620  138.0220 C   0  0  0  0  0  3  0  0  0  0  0  0
  192.4880  177.0770  140.7770 O   0  0  0  0  0  1  0  0  0  0  0  0
  190.0910  177.4150  140.6920 C   0  0  0  0  0  0  0  0  0  0  0  0
  188.8840  177.3240  139.9840 C   0  0  0  0  0  3  0  0  0  0  0  0
  191.2950  177.0390  140.0580 C   0  0  0  0  0  0  0  0  0  0  0  0
  192.6340  175.0790  137.4770 O   0  0  0  0  0  0  0  0  0  0  0  0
  192.5160  176.2250  137.9840 C   0  0  0  0  0  0  0  0  0  0  0  0
  193.5650  177.1280  137.8560 O   0  0  0  0  0  1  0  0  0  0  0  0
  186.2050  179.8690  142.0620 O   0  0  0  0  0  0  0  0  0  0  0  0
  185.3900  178.9320  141.8470 C   0  0  0  0  0  0  0  0  0  0  0  0
  185.5010  177.6870  142.5490 N   0  0  0  0  0  2  0  0  0  0  0  0
  184.5090  179.7120  139.7350 N   0  0  0  0  0  0  0  0  0  0  0  0
  183.3270  179.7410  138.9960 N   0  0  0  0  0  2  0  0  0  0  0  0
  182.2560  179.0940  139.7360 C   0  0  2  0  0  3  0  0  0  0  0  0
  182.9200  178.6380  141.0380 C   0  0  0  0  0  2  0  0  0  0  0  0
  184.3210  179.1160  140.8590 C   0  0  0  0  0  0  0  0  0  0  0  0
  180.9570  177.0910  139.5270 O   0  0  0  0  0  1  0  0  0  0  0  0
  181.7310  177.9200  138.9770 C   0  0  0  0  0  0  0  0  0  0  0  0
  182.0800  177.7560  137.6430 O   0  0  0  0  0  0  0  0  0  0  0  0
  186.8530  178.6740  146.8670 C   0  0  0  0  0  2  0  0  0  0  0  0
  187.5650  177.7900  147.8740 C   0  0  0  0  0  2  0  0  0  0  0  0
  189.0310  178.1780  147.9800 C   0  0  0  0  0  2  0  0  0  0  0  0
  189.9930  177.1560  145.9150 C   0  0  0  0  0  2  0  0  0  0  0  0
  191.8620  175.9530  147.7090 C   0  0  0  0  0  2  0  0  0  0  0  0
  189.9280  177.0720  147.4470 C   0  0  1  0  0  3  0  0  0  0  0  0
  191.2150  177.1660  148.0120 O   0  0  0  0  0  0  0  0  0  0  0  0
  191.4110  176.9020  145.3940 C   0  0  0  0  0  2  0  0  0  0  0  0
  192.1190  175.8070  146.1990 C   0  0  0  0  0  2  0  0  0  0  0  0
  1 29  1  0  0  0  0
  2  3  2  0  0  0  0
  3  1  2  0  0  0  0
  4 12  1  6  0  0  0
  4  6  1  0  0  0  0
  4  7  1  0  0  0  0
  5  2  1  0  0  0  0
  6  7  2  0  0  0  0
  7  5  1  0  0  0  0
  8 14  1  0  0  0  0
  9 13  2  0  0  0  0
 10  9  1  0  0  0  0
 10  8  2  0  0  0  0
 13 12  1  0  0  0  0
 14 12  2  0  0  0  0
 14 11  1  0  0  0  0
 15 16  2  0  0  0  0
 16  8  1  0  0  0  0
 17 16  1  0  0  0  0
 19 18  2  0  0  0  0
 19 20  1  0  0  0  0
 20  2  1  0  0  0  0
 21 25  2  0  0  0  0
 22 21  1  0  0  0  0
 22 23  1  0  0  0  0
 23 27  1  6  0  0  0
 23 24  1  0  0  0  0
 25 24  1  0  0  0  0
 25 19  1  0  0  0  0
 27 26  1  0  0  0  0
 28 27  2  0  0  0  0
 29 30  1  0  0  0  0
 30 31  1  0  0  0  0
 32 34  1  0  0  0  0
 33 35  1  0  0  0  0
 34 31  1  1  0  0  0
 34 35  1  0  0  0  0
 36 32  1  0  0  0  0
 36 37  1  0  0  0  0
 37 33  1  0  0  0  0
M  END
>  <MODEL>
4

>  <REMARK>
 VINA RESULT:      -8.6      2.895      9.456
  Name = 
  10 active torsions:
  status: ('A' for Active; 'I' for Inactive)
    1  A    between atoms: C_1  and  C_15
    2  A    between atoms: C_6  and  C_36
    3  A    between atoms: C_7  and  C_26
    4  A    between atoms: C_8  and  C_24
    5  A    between atoms: C_9  and  C_34
    6  A    between atoms: N_11  and  C_13
    7  A    between atoms: C_13  and  N_20
    8  A    between atoms: C_16  and  C_26
    9  A    between atoms: C_16  and  C_34
   10  A    between atoms: C_18  and  C_29
                            x       y       z     vdW  Elec       q    Type
                         _______ _______ _______ _____ _____    ______ ____

>  <TORSDO>
F 10

$$$$
=
 OpenBabel11042412093D

 37 40  0  0  1  0  0  0  0  0999 V2000
  185.7080  179.3590  141.4090 C   0  0  0  0  0  3  0  0  0  0  0  0
  188.0060  178.2440  140.8760 C   0  0  0  0  0  0  0  0  0  0  0  0
  186.8590  178.8070  141.1530 C   0  0  0  0  0  0  0  0  0  0  0  0
  187.0760  177.6200  137.1560 C   0  0  1  0  0  3  0  0  0  0  0  0
  188.2320  177.6350  139.5970 N   0  0  0  0  0  2  0  0  0  0  0  0
  186.3360  178.5460  137.8350 N   0  0  0  0  0  0  0  0  0  0  0  0
  187.4110  177.8750  138.4540 C   0  0  0  0  0  0  0  0  0  0  0  0
  186.2730  173.8900  136.7470 C   0  0  0  0  0  0  0  0  0  0  0  0
  184.2220  175.1100  137.2090 C   0  0  0  0  0  3  0  0  0  0  0  0
  184.8870  173.9130  136.9480 C   0  0  0  0  0  3  0  0  0  0  0  0
  188.3800  175.1090  136.6430 O   0  0  0  0  0  1  0  0  0  0  0  0
  186.3210  176.3200  137.0430 C   0  0  0  0  0  0  0  0  0  0  0  0
  184.9360  176.3050  137.2640 C   0  0  0  0  0  3  0  0  0  0  0  0
  186.9970  175.1030  136.8070 C   0  0  0  0  0  0  0  0  0  0  0  0
  186.6900  171.9360  135.4350 O   0  0  0  0  0  0  0  0  0  0  0  0
  186.9230  172.5840  136.4890 C   0  0  0  0  0  0  0  0  0  0  0  0
  187.8090  172.0540  137.4210 O   0  0  0  0  0  1  0  0  0  0  0  0
  188.5680  176.0450  142.7040 O   0  0  0  0  0  0  0  0  0  0  0  0
  189.2490  177.1020  142.7870 C   0  0  0  0  0  0  0  0  0  0  0  0
  189.0120  178.1990  141.8960 N   0  0  0  0  0  2  0  0  0  0  0  0
  190.8090  178.3300  144.1660 N   0  0  0  0  0  0  0  0  0  0  0  0
  191.7830  178.1320  145.1430 N   0  0  0  0  0  2  0  0  0  0  0  0
  191.9210  176.7140  145.4340 C   0  0  2  0  0  3  0  0  0  0  0  0
  190.8940  176.0400  144.5210 C   0  0  0  0  0  2  0  0  0  0  0  0
  190.3020  177.2050  143.8020 C   0  0  0  0  0  0  0  0  0  0  0  0
  192.5040  176.0570  147.6640 O   0  0  0  0  0  1  0  0  0  0  0  0
  191.6050  176.4430  146.8690 C   0  0  0  0  0  0  0  0  0  0  0  0
  190.3130  176.6430  147.3350 O   0  0  0  0  0  0  0  0  0  0  0  0
  184.4550  178.5960  141.1670 C   0  0  0  0  0  2  0  0  0  0  0  0
  183.7940  178.2700  142.4930 C   0  0  0  0  0  2  0  0  0  0  0  0
  184.2440  179.2480  143.5670 C   0  0  0  0  0  2  0  0  0  0  0  0
  186.0870  177.7990  144.4270 C   0  0  0  0  0  2  0  0  0  0  0  0
  185.1530  178.6070  147.0020 C   0  0  0  0  0  2  0  0  0  0  0  0
  184.7750  178.5110  144.7870 C   0  0  1  0  0  3  0  0  0  0  0  0
  184.9640  179.4050  145.8580 O   0  0  0  0  0  0  0  0  0  0  0  0
  187.1220  177.9190  145.5500 C   0  0  0  0  0  2  0  0  0  0  0  0
  186.4690  177.8140  146.9320 C   0  0  0  0  0  2  0  0  0  0  0  0
  2  3  2  0  0  0  0
  2 20  1  0  0  0  0
  3  1  2  0  0  0  0
  4 12  1  1  0  0  0
  4  6  1  0  0  0  0
  4  7  1  0  0  0  0
  5  2  1  0  0  0  0
  6  7  2  0  0  0  0
  7  5  1  0  0  0  0
  8 14  2  0  0  0  0
  8 10  1  0  0  0  0
  9 13  1  0  0  0  0
 10  9  2  0  0  0  0
 11 14  1  0  0  0  0
 12 13  2  0  0  0  0
 14 12  1  0  0  0  0
 15 16  2  0  0  0  0
 16  8  1  0  0  0  0
 16 17  1  0  0  0  0
 18 19  2  0  0  0  0
 19 25  1  0  0  0  0
 20 19  1  0  0  0  0
 21 22  1  0  0  0  0
 22 23  1  0  0  0  0
 23 27  1  1  0  0  0
 24 23  1  0  0  0  0
 25 21  2  0  0  0  0
 25 24  1  0  0  0  0
 27 28  2  0  0  0  0
 27 26  1  0  0  0  0
 29  1  1  0  0  0  0
 29 30  1  0  0  0  0
 30 31  1  0  0  0  0
 32 34  1  0  0  0  0
 32 36  1  0  0  0  0
 34 31  1  6  0  0  0
 34 35  1  0  0  0  0
 35 33  1  0  0  0  0
 36 37  1  0  0  0  0
 37 33  1  0  0  0  0
M  END
>  <MODEL>
5

>  <REMARK>
 VINA RESULT:      -8.4      4.303      8.261
  Name = 
  10 active torsions:
  status: ('A' for Active; 'I' for Inactive)
    1  A    between atoms: C_1  and  C_15
    2  A    between atoms: C_6  and  C_36
    3  A    between atoms: C_7  and  C_26
    4  A    between atoms: C_8  and  C_24
    5  A    between atoms: C_9  and  C_34
    6  A    between atoms: N_11  and  C_13
    7  A    between atoms: C_13  and  N_20
    8  A    between atoms: C_16  and  C_26
    9  A    between atoms: C_16  and  C_34
   10  A    between atoms: C_18  and  C_29
                            x       y       z     vdW  Elec       q    Type
                         _______ _______ _______ _____ _____    ______ ____

>  <TORSDO>
F 10

$$$$
=
 OpenBabel11042412093D

 37 40  0  0  1  0  0  0  0  0999 V2000
  188.2750  176.9690  138.4350 C   0  0  0  0  0  3  0  0  0  0  0  0
  190.5320  177.1990  139.7230 C   0  0  0  0  0  0  0  0  0  0  0  0
  189.4070  177.0780  139.0700 C   0  0  0  0  0  0  0  0  0  0  0  0
  190.2220  176.6850  143.5620 C   0  0  1  0  0  3  0  0  0  0  0  0
  190.5450  177.6840  141.0730 N   0  0  0  0  0  2  0  0  0  0  0  0
  190.1840  175.5650  142.7790 N   0  0  0  0  0  0  0  0  0  0  0  0
  190.3630  176.8450  142.2140 C   0  0  0  0  0  0  0  0  0  0  0  0
  187.2730  177.8490  145.7220 C   0  0  0  0  0  0  0  0  0  0  0  0
  186.5160  177.5170  143.4360 C   0  0  0  0  0  3  0  0  0  0  0  0
  186.2560  177.8730  144.7580 C   0  0  0  0  0  3  0  0  0  0  0  0
  189.6140  177.4510  146.2660 O   0  0  0  0  0  1  0  0  0  0  0  0
  188.8330  177.0670  144.0050 C   0  0  0  0  0  0  0  0  0  0  0  0
  187.7980  177.1240  143.0600 C   0  0  0  0  0  3  0  0  0  0  0  0
  188.5750  177.4540  145.3380 C   0  0  0  0  0  0  0  0  0  0  0  0
  186.0510  179.1190  147.3360 O   0  0  0  0  0  0  0  0  0  0  0  0
  186.9360  178.2540  147.1070 C   0  0  0  0  0  0  0  0  0  0  0  0
  187.6030  177.6740  148.1800 O   0  0  0  0  0  1  0  0  0  0  0  0
  191.1010  174.8480  138.0970 O   0  0  0  0  0  0  0  0  0  0  0  0
  192.0030  175.7120  138.2650 C   0  0  0  0  0  0  0  0  0  0  0  0
  191.7560  176.8890  139.0460 N   0  0  0  0  0  2  0  0  0  0  0  0
  193.9020  176.4250  136.9500 N   0  0  0  0  0  0  0  0  0  0  0  0
  195.1350  175.9670  136.4880 N   0  0  0  0  0  2  0  0  0  0  0  0
  195.3640  174.6030  136.9340 C   0  0  2  0  0  3  0  0  0  0  0  0
  194.1170  174.2600  137.7530 C   0  0  0  0  0  2  0  0  0  0  0  0
  193.3180  175.5150  137.6460 C   0  0  0  0  0  0  0  0  0  0  0  0
  196.6130  173.8020  138.8160 O   0  0  0  0  0  1  0  0  0  0  0  0
  196.5880  174.5300  137.7870 C   0  0  0  0  0  0  0  0  0  0  0  0
  197.7170  175.2520  137.4280 O   0  0  0  0  0  0  0  0  0  0  0  0
  187.3400  178.1250  138.3930 C   0  0  0  0  0  2  0  0  0  0  0  0
  186.0970  177.7450  137.6120 C   0  0  0  0  0  2  0  0  0  0  0  0
  186.4530  176.8150  136.4630 C   0  0  0  0  0  2  0  0  0  0  0  0
  186.5720  174.3260  136.6090 C   0  0  0  0  0  2  0  0  0  0  0  0
  183.8370  174.5140  137.4110 C   0  0  0  0  0  2  0  0  0  0  0  0
  185.6320  175.5370  136.5200 C   0  0  1  0  0  3  0  0  0  0  0  0
  184.7470  175.5690  137.6150 O   0  0  0  0  0  0  0  0  0  0  0  0
  186.0480  173.2740  137.5930 C   0  0  0  0  0  2  0  0  0  0  0  0
  184.5240  173.1420  137.5170 C   0  0  0  0  0  2  0  0  0  0  0  0
  1  3  2  0  0  0  0
  2  5  1  0  0  0  0
  3  2  2  0  0  0  0
  4 12  1  6  0  0  0
  5  7  1  0  0  0  0
  6  4  1  0  0  0  0
  7  6  2  0  0  0  0
  7  4  1  0  0  0  0
  8 16  1  0  0  0  0
  9 10  1  0  0  0  0
 10  8  2  0  0  0  0
 12 14  2  0  0  0  0
 13  9  2  0  0  0  0
 13 12  1  0  0  0  0
 14  8  1  0  0  0  0
 14 11  1  0  0  0  0
 16 15  2  0  0  0  0
 16 17  1  0  0  0  0
 18 19  2  0  0  0  0
 19 20  1  0  0  0  0
 20  2  1  0  0  0  0
 21 25  2  0  0  0  0
 22 23  1  0  0  0  0
 22 21  1  0  0  0  0
 23 24  1  0  0  0  0
 23 27  1  1  0  0  0
 25 24  1  0  0  0  0
 25 19  1  0  0  0  0
 27 26  1  0  0  0  0
 28 27  2  0  0  0  0
 29  1  1  0  0  0  0
 30 29  1  0  0  0  0
 31 30  1  0  0  0  0
 32 36  1  0  0  0  0
 33 37  1  0  0  0  0
 33 35  1  0  0  0  0
 34 31  1  1  0  0  0
 34 32  1  0  0  0  0
 34 35  1  0  0  0  0
 37 36  1  0  0  0  0
M  END
>  <MODEL>
6

>  <REMARK>
 VINA RESULT:      -8.4      2.307      2.870
  Name = 
  10 active torsions:
  status: ('A' for Active; 'I' for Inactive)
    1  A    between atoms: C_1  and  C_15
    2  A    between atoms: C_6  and  C_36
    3  A    between atoms: C_7  and  C_26
    4  A    between atoms: C_8  and  C_24
    5  A    between atoms: C_9  and  C_34
    6  A    between atoms: N_11  and  C_13
    7  A    between atoms: C_13  and  N_20
    8  A    between atoms: C_16  and  C_26
    9  A    between atoms: C_16  and  C_34
   10  A    between atoms: C_18  and  C_29
                            x       y       z     vdW  Elec       q    Type
                         _______ _______ _______ _____ _____    ______ ____

>  <TORSDO>
F 10

$$$$
=
 OpenBabel11042412093D

 37 40  0  0  1  0  0  0  0  0999 V2000
  190.5720  175.9300  143.2900 C   0  0  0  0  0  3  0  0  0  0  0  0
  190.1480  176.7980  140.8670 C   0  0  0  0  0  0  0  0  0  0  0  0
  190.3490  176.3620  142.0820 C   0  0  0  0  0  0  0  0  0  0  0  0
  191.5940  176.7540  137.2620 C   0  0  1  0  0  3  0  0  0  0  0  0
  191.2340  176.8930  139.9350 N   0  0  0  0  0  2  0  0  0  0  0  0
  190.2350  176.6840  137.3870 N   0  0  0  0  0  0  0  0  0  0  0  0
  191.0680  176.8020  138.5190 C   0  0  0  0  0  0  0  0  0  0  0  0
  193.9300  173.7100  137.2340 C   0  0  0  0  0  0  0  0  0  0  0  0
  191.8930  173.1740  136.0200 C   0  0  0  0  0  3  0  0  0  0  0  0
  193.1490  172.8070  136.4990 C   0  0  0  0  0  3  0  0  0  0  0  0
  194.1670  175.9180  138.2360 O   0  0  0  0  0  1  0  0  0  0  0  0
  192.1680  175.3910  136.9720 C   0  0  0  0  0  0  0  0  0  0  0  0
  191.4030  174.4550  136.2610 C   0  0  0  0  0  3  0  0  0  0  0  0
  193.4280  175.0080  137.4820 C   0  0  0  0  0  0  0  0  0  0  0  0
  196.2050  173.0440  136.9380 O   0  0  0  0  0  0  0  0  0  0  0  0
  195.2490  173.2540  137.7290 C   0  0  0  0  0  0  0  0  0  0  0  0
  195.4460  173.0520  139.0910 O   0  0  0  0  0  1  0  0  0  0  0  0
  188.6270  178.9930  142.0340 O   0  0  0  0  0  0  0  0  0  0  0  0
  188.1090  178.3090  141.1110 C   0  0  0  0  0  0  0  0  0  0  0  0
  188.8310  177.2310  140.5020 N   0  0  0  0  0  2  0  0  0  0  0  0
  186.4230  178.6200  139.4070 N   0  0  0  0  0  0  0  0  0  0  0  0
  185.0780  178.9550  139.2590 N   0  0  0  0  0  2  0  0  0  0  0  0
  184.4780  179.2120  140.5590 C   0  0  2  0  0  3  0  0  0  0  0  0
  185.6200  178.9830  141.5520 C   0  0  0  0  0  2  0  0  0  0  0  0
  186.7530  178.6270  140.6500 C   0  0  0  0  0  0  0  0  0  0  0  0
  183.2150  177.2270  140.1030 O   0  0  0  0  0  0  0  0  0  0  0  0
  183.3590  178.2570  140.8160 C   0  0  0  0  0  0  0  0  0  0  0  0
  182.4860  178.4930  141.8680 O   0  0  0  0  0  1  0  0  0  0  0  0
  191.6660  176.5310  144.0980 C   0  0  0  0  0  2  0  0  0  0  0  0
  191.3950  176.3010  145.5720 C   0  0  0  0  0  2  0  0  0  0  0  0
  190.6310  177.4760  146.1630 C   0  0  0  0  0  2  0  0  0  0  0  0
  188.5290  177.5010  147.5100 C   0  0  0  0  0  2  0  0  0  0  0  0
  187.2240  177.5190  144.9690 C   0  0  0  0  0  2  0  0  0  0  0  0
  189.1320  177.2270  146.1240 C   0  0  1  0  0  3  0  0  0  0  0  0
  188.5240  178.0310  145.1410 O   0  0  0  0  0  0  0  0  0  0  0  0
  187.1880  178.2360  147.4070 C   0  0  0  0  0  2  0  0  0  0  0  0
  186.3580  177.7310  146.2230 C   0  0  0  0  0  2  0  0  0  0  0  0
  1 29  1  0  0  0  0
  2  3  2  0  0  0  0
  3  1  2  0  0  0  0
  4 12  1  1  0  0  0
  4  6  1  0  0  0  0
  4  7  1  0  0  0  0
  5  2  1  0  0  0  0
  6  7  2  0  0  0  0
  7  5  1  0  0  0  0
  8 14  1  0  0  0  0
  8 16  1  0  0  0  0
  9 13  2  0  0  0  0
  9 10  1  0  0  0  0
 10  8  2  0  0  0  0
 12 14  2  0  0  0  0
 13 12  1  0  0  0  0
 14 11  1  0  0  0  0
 15 16  2  0  0  0  0
 16 17  1  0  0  0  0
 19 18  2  0  0  0  0
 20  2  1  0  0  0  0
 20 19  1  0  0  0  0
 21 25  2  0  0  0  0
 22 21  1  0  0  0  0
 22 23  1  0  0  0  0
 23 27  1  1  0  0  0
 23 24  1  0  0  0  0
 25 19  1  0  0  0  0
 25 24  1  0  0  0  0
 26 27  2  0  0  0  0
 27 28  1  0  0  0  0
 29 30  1  0  0  0  0
 30 31  1  0  0  0  0
 33 35  1  0  0  0  0
 33 37  1  0  0  0  0
 34 31  1  1  0  0  0
 34 32  1  0  0  0  0
 35 34  1  0  0  0  0
 36 32  1  0  0  0  0
 37 36  1  0  0  0  0
M  END
>  <MODEL>
7

>  <REMARK>
 VINA RESULT:      -8.4      2.351      9.122
  Name = 
  10 active torsions:
  status: ('A' for Active; 'I' for Inactive)
    1  A    between atoms: C_1  and  C_15
    2  A    between atoms: C_6  and  C_36
    3  A    between atoms: C_7  and  C_26
    4  A    between atoms: C_8  and  C_24
    5  A    between atoms: C_9  and  C_34
    6  A    between atoms: N_11  and  C_13
    7  A    between atoms: C_13  and  N_20
    8  A    between atoms: C_16  and  C_26
    9  A    between atoms: C_16  and  C_34
   10  A    between atoms: C_18  and  C_29
                            x       y       z     vdW  Elec       q    Type
                         _______ _______ _______ _____ _____    ______ ____

>  <TORSDO>
F 10

$$$$
=
 OpenBabel11042412093D

 37 40  0  0  1  0  0  0  0  0999 V2000
  186.3340  179.3410  141.2910 C   0  0  0  0  0  3  0  0  0  0  0  0
  188.6060  178.0870  141.5630 C   0  0  0  0  0  0  0  0  0  0  0  0
  187.4690  178.7200  141.4380 C   0  0  0  0  0  0  0  0  0  0  0  0
  189.4600  177.8740  137.7790 C   0  0  1  0  0  3  0  0  0  0  0  0
  189.2130  177.4430  140.4340 N   0  0  0  0  0  2  0  0  0  0  0  0
  188.8300  179.0070  138.2120 N   0  0  0  0  0  0  0  0  0  0  0  0
  189.1820  177.9790  139.1110 C   0  0  0  0  0  0  0  0  0  0  0  0
  187.7880  174.7170  136.3760 C   0  0  0  0  0  0  0  0  0  0  0  0
  186.3080  176.6210  136.0620 C   0  0  0  0  0  3  0  0  0  0  0  0
  186.5790  175.2610  135.9210 C   0  0  0  0  0  3  0  0  0  0  0  0
  189.9380  175.0550  137.4720 O   0  0  0  0  0  1  0  0  0  0  0  0
  188.4790  176.9530  137.0990 C   0  0  0  0  0  0  0  0  0  0  0  0
  187.2500  177.4600  136.6540 C   0  0  0  0  0  3  0  0  0  0  0  0
  188.7400  175.5700  136.9810 C   0  0  0  0  0  0  0  0  0  0  0  0
  187.9240  172.4750  137.1910 O   0  0  0  0  0  1  0  0  0  0  0  0
  188.0090  173.2620  136.2120 C   0  0  0  0  0  0  0  0  0  0  0  0
  188.3150  172.7450  134.9590 O   0  0  0  0  0  0  0  0  0  0  0  0
  188.6630  175.7700  143.3300 O   0  0  0  0  0  0  0  0  0  0  0  0
  189.1990  176.8460  143.7100 C   0  0  0  0  0  0  0  0  0  0  0  0
  189.2040  178.0020  142.8630 N   0  0  0  0  0  2  0  0  0  0  0  0
  189.1670  176.8090  146.1270 N   0  0  0  0  0  0  0  0  0  0  0  0
  190.0210  176.9030  147.2250 N   0  0  0  0  0  2  0  0  0  0  0  0
  191.3920  177.0940  146.7810 C   0  0  2  0  0  3  0  0  0  0  0  0
  191.2960  177.0950  145.2530 C   0  0  0  0  0  2  0  0  0  0  0  0
  189.8320  176.9110  145.0310 C   0  0  0  0  0  0  0  0  0  0  0  0
  192.7980  176.0070  148.3880 O   0  0  0  0  0  1  0  0  0  0  0  0
  192.2540  175.9690  147.2510 C   0  0  0  0  0  0  0  0  0  0  0  0
  192.4360  174.8590  146.4380 O   0  0  0  0  0  0  0  0  0  0  0  0
  185.1930  178.6470  140.6380 C   0  0  0  0  0  2  0  0  0  0  0  0
  183.9030  179.0110  141.3470 C   0  0  0  0  0  2  0  0  0  0  0  0
  183.7230  178.1610  142.5940 C   0  0  0  0  0  2  0  0  0  0  0  0
  183.5510  179.0040  144.9380 C   0  0  0  0  0  2  0  0  0  0  0  0
  186.3770  178.5970  145.0030 C   0  0  0  0  0  2  0  0  0  0  0  0
  184.5050  178.7370  143.7650 C   0  0  1  0  0  3  0  0  0  0  0  0
  185.5390  177.8600  144.1450 O   0  0  0  0  0  0  0  0  0  0  0  0
  184.1790  178.6080  146.2790 C   0  0  0  0  0  2  0  0  0  0  0  0
  185.6720  178.9490  146.3240 C   0  0  0  0  0  2  0  0  0  0  0  0
  1  3  2  0  0  0  0
  2 20  1  0  0  0  0
  3  2  2  0  0  0  0
  4 12  1  6  0  0  0
  4  6  1  0  0  0  0
  4  7  1  0  0  0  0
  5  2  1  0  0  0  0
  6  7  2  0  0  0  0
  7  5  1  0  0  0  0
  8 14  1  0  0  0  0
  9 13  2  0  0  0  0
 10  9  1  0  0  0  0
 10  8  2  0  0  0  0
 13 12  1  0  0  0  0
 14 12  2  0  0  0  0
 14 11  1  0  0  0  0
 16  8  1  0  0  0  0
 16 15  1  0  0  0  0
 17 16  2  0  0  0  0
 18 19  2  0  0  0  0
 19 25  1  0  0  0  0
 20 19  1  0  0  0  0
 21 22  1  0  0  0  0
 23 22  1  0  0  0  0
 23 27  1  6  0  0  0
 24 23  1  0  0  0  0
 25 24  1  0  0  0  0
 25 21  2  0  0  0  0
 27 26  1  0  0  0  0
 28 27  2  0  0  0  0
 29  1  1  0  0  0  0
 29 30  1  0  0  0  0
 30 31  1  0  0  0  0
 32 36  1  0  0  0  0
 33 37  1  0  0  0  0
 34 31  1  6  0  0  0
 34 35  1  0  0  0  0
 34 32  1  0  0  0  0
 35 33  1  0  0  0  0
 36 37  1  0  0  0  0
M  END
>  <MODEL>
8

>  <REMARK>
 VINA RESULT:      -8.2      3.701      8.197
  Name = 
  10 active torsions:
  status: ('A' for Active; 'I' for Inactive)
    1  A    between atoms: C_1  and  C_15
    2  A    between atoms: C_6  and  C_36
    3  A    between atoms: C_7  and  C_26
    4  A    between atoms: C_8  and  C_24
    5  A    between atoms: C_9  and  C_34
    6  A    between atoms: N_11  and  C_13
    7  A    between atoms: C_13  and  N_20
    8  A    between atoms: C_16  and  C_26
    9  A    between atoms: C_16  and  C_34
   10  A    between atoms: C_18  and  C_29
                            x       y       z     vdW  Elec       q    Type
                         _______ _______ _______ _____ _____    ______ ____

>  <TORSDO>
F 10

$$$$
=
 OpenBabel11042412093D

 37 40  0  0  1  0  0  0  0  0999 V2000
  187.4070  177.6950  137.3340 C   0  0  0  0  0  3  0  0  0  0  0  0
  186.2280  178.4810  139.5250 C   0  0  0  0  0  0  0  0  0  0  0  0
  186.8080  178.0870  138.4220 C   0  0  0  0  0  0  0  0  0  0  0  0
  188.9840  178.2030  142.2480 C   0  0  1  0  0  3  0  0  0  0  0  0
  187.0020  179.0200  140.6060 N   0  0  0  0  0  2  0  0  0  0  0  0
  188.8530  177.1510  141.3870 N   0  0  0  0  0  0  0  0  0  0  0  0
  188.0430  178.2990  141.2650 C   0  0  0  0  0  0  0  0  0  0  0  0
  188.4880  177.5340  145.9940 C   0  0  0  0  0  0  0  0  0  0  0  0
  186.3290  177.5040  144.8770 C   0  0  0  0  0  3  0  0  0  0  0  0
  187.0950  177.3900  146.0360 C   0  0  0  0  0  3  0  0  0  0  0  0
  190.4950  177.9740  144.6850 O   0  0  0  0  0  1  0  0  0  0  0  0
  188.3430  177.8820  143.5740 C   0  0  0  0  0  0  0  0  0  0  0  0
  186.9490  177.7560  143.6550 C   0  0  0  0  0  3  0  0  0  0  0  0
  189.1150  177.7950  144.7540 C   0  0  0  0  0  0  0  0  0  0  0  0
  189.0870  178.2510  148.1930 O   0  0  0  0  0  1  0  0  0  0  0  0
  189.2430  177.4180  147.2630 C   0  0  0  0  0  0  0  0  0  0  0  0
  190.1430  176.3730  147.4410 O   0  0  0  0  0  0  0  0  0  0  0  0
  184.1700  180.5000  139.0960 O   0  0  0  0  0  0  0  0  0  0  0  0
  183.8280  179.3380  139.4460 C   0  0  0  0  0  0  0  0  0  0  0  0
  184.8110  178.3150  139.6520 N   0  0  0  0  0  2  0  0  0  0  0  0
  181.6340  178.6910  138.6660 N   0  0  0  0  0  0  0  0  0  0  0  0
  180.3420  178.4540  139.1340 N   0  0  0  0  0  2  0  0  0  0  0  0
  180.2790  178.6730  140.5690 C   0  0  2  0  0  3  0  0  0  0  0  0
  181.7080  179.0670  140.9530 C   0  0  0  0  0  2  0  0  0  0  0  0
  182.4070  179.0300  139.6360 C   0  0  0  0  0  0  0  0  0  0  0  0
  179.4560  177.4520  142.4600 O   0  0  0  0  0  1  0  0  0  0  0  0
  179.8750  177.4180  141.2720 C   0  0  0  0  0  0  0  0  0  0  0  0
  179.9380  176.2060  140.5980 O   0  0  0  0  0  0  0  0  0  0  0  0
  188.5630  176.7650  137.4230 C   0  0  0  0  0  2  0  0  0  0  0  0
  189.8240  177.5500  137.7300 C   0  0  0  0  0  2  0  0  0  0  0  0
  190.7980  176.7010  138.5330 C   0  0  0  0  0  2  0  0  0  0  0  0
  193.1310  176.3260  137.7280 C   0  0  0  0  0  2  0  0  0  0  0  0
  192.1370  173.7910  136.8680 C   0  0  0  0  0  2  0  0  0  0  0  0
  191.6720  175.8600  137.6160 C   0  0  1  0  0  3  0  0  0  0  0  0
  191.5530  174.4950  137.9380 O   0  0  0  0  0  0  0  0  0  0  0  0
  194.1030  175.1420  137.7440 C   0  0  0  0  0  2  0  0  0  0  0  0
  193.6540  174.0310  136.7890 C   0  0  0  0  0  2  0  0  0  0  0  0
  1 29  1  0  0  0  0
  1  3  2  0  0  0  0
  2 20  1  0  0  0  0
  2  5  1  0  0  0  0
  3  2  2  0  0  0  0
  4 12  1  1  0  0  0
  5  7  1  0  0  0  0
  6  4  1  0  0  0  0
  7  6  2  0  0  0  0
  7  4  1  0  0  0  0
  8 10  1  0  0  0  0
  8 16  1  0  0  0  0
  9 10  2  0  0  0  0
 11 14  1  0  0  0  0
 12 13  2  0  0  0  0
 12 14  1  0  0  0  0
 13  9  1  0  0  0  0
 14  8  2  0  0  0  0
 16 17  2  0  0  0  0
 16 15  1  0  0  0  0
 18 19  2  0  0  0  0
 19 25  1  0  0  0  0
 19 20  1  0  0  0  0
 21 22  1  0  0  0  0
 21 25  2  0  0  0  0
 22 23  1  0  0  0  0
 23 24  1  0  0  0  0
 23 27  1  1  0  0  0
 25 24  1  0  0  0  0
 27 26  1  0  0  0  0
 28 27  2  0  0  0  0
 29 30  1  0  0  0  0
 30 31  1  0  0  0  0
 32 36  1  0  0  0  0
 33 35  1  0  0  0  0
 34 32  1  0  0  0  0
 34 35  1  0  0  0  0
 34 31  1  1  0  0  0
 37 33  1  0  0  0  0
 37 36  1  0  0  0  0
M  END
>  <MODEL>
9

>  <REMARK>
 VINA RESULT:      -8.2      3.440      8.978
  Name = 
  10 active torsions:
  status: ('A' for Active; 'I' for Inactive)
    1  A    between atoms: C_1  and  C_15
    2  A    between atoms: C_6  and  C_36
    3  A    between atoms: C_7  and  C_26
    4  A    between atoms: C_8  and  C_24
    5  A    between atoms: C_9  and  C_34
    6  A    between atoms: N_11  and  C_13
    7  A    between atoms: C_13  and  N_20
    8  A    between atoms: C_16  and  C_26
    9  A    between atoms: C_16  and  C_34
   10  A    between atoms: C_18  and  C_29
                            x       y       z     vdW  Elec       q    Type
                         _______ _______ _______ _____ _____    ______ ____

>  <TORSDO>
F 10

$$$$
