=
 OpenBabel11042410513D

 31 34  0  0  1  0  0  0  0  0999 V2000
  189.8300  177.7910  145.0140 C   0  0  0  0  0  0  0  0  0  0  0  0
  187.5800  177.9880  142.0580 C   0  0  0  0  0  0  0  0  0  0  0  0
  189.7440  177.2870  147.4510 C   0  0  0  0  0  0  0  0  0  0  0  0
  191.0700  178.3070  145.1050 N   0  0  0  0  0  2  0  0  0  0  0  0
  190.9250  177.0260  147.8030 O   0  0  0  0  0  0  0  0  0  0  0  0
  189.1770  176.9800  146.1070 C   0  0  1  0  0  3  0  0  0  0  0  0
  187.1840  178.3470  140.8660 C   0  0  0  0  0  0  0  0  0  0  0  0
  187.5960  177.9280  147.5640 C   0  0  0  0  0  3  0  0  0  0  0  0
  187.7650  177.4400  146.3410 C   0  0  0  0  0  0  0  0  0  0  0  0
  191.3210  178.9080  143.9240 C   0  0  0  0  0  3  0  0  0  0  0  0
  187.9750  177.6250  143.2490 C   0  0  0  0  0  0  0  0  0  0  0  0
  187.0880  176.7140  144.0390 C   0  0  0  0  0  2  0  0  0  0  0  0
  188.7950  177.8730  148.3260 N   0  0  0  0  0  2  0  0  0  0  0  0
  186.6480  177.3620  145.3450 C   0  0  0  0  0  2  0  0  0  0  0  0
  189.3010  178.0410  143.7600 C   0  0  0  0  0  0  0  0  0  0  0  0
  190.2480  178.7680  143.0620 C   0  0  0  0  0  3  0  0  0  0  0  0
  187.7040  178.6790  138.5530 N   0  0  0  0  0  0  0  0  0  0  0  0
  188.1290  178.3220  139.7320 C   0  0  0  0  0  0  0  0  0  0  0  0
  188.4910  178.6930  137.4250 O   0  0  0  0  0  1  0  0  0  0  0  0
  189.4520  177.9120  139.9780 O   0  0  0  0  0  0  0  0  0  0  0  0
  189.9920  176.6390  139.6530 C   0  0  0  0  0  2  0  0  0  0  0  0
  192.2160  177.4710  140.3390 C   0  0  0  0  0  1  0  0  0  0  0  0
  191.4360  176.8000  139.2290 C   0  0  0  0  0  2  0  0  0  0  0  0
  185.7440  178.7040  140.6620 C   0  0  0  0  0  2  0  0  0  0  0  0
  183.8920  179.6470  144.4160 C   0  0  0  0  0  3  0  0  0  0  0  0
  183.2720  178.7570  143.5350 C   0  0  0  0  0  0  0  0  0  0  0  0
  182.0610  178.1710  143.8790 O   0  0  0  0  0  1  0  0  0  0  0  0
  185.0900  179.0450  141.9600 C   0  0  0  0  0  0  0  0  0  0  0  0
  185.7120  179.9340  142.8440 C   0  0  0  0  0  3  0  0  0  0  0  0
  185.1130  180.2360  144.0710 C   0  0  0  0  0  3  0  0  0  0  0  0
  183.8710  178.4530  142.3090 C   0  0  0  0  0  3  0  0  0  0  0  0
  1  4  1  0  0  0  0
  2 11  2  0  0  0  0
  3  5  2  0  0  0  0
  3 13  1  0  0  0  0
  6  1  1  6  0  0  0
  6  9  1  0  0  0  0
  6  3  1  0  0  0  0
  7  2  2  0  0  0  0
  8 13  1  0  0  0  0
  9  8  2  0  0  0  0
 10  4  1  0  0  0  0
 11 15  1  0  0  0  0
 11 12  1  0  0  0  0
 12 14  1  0  0  0  0
 14  9  1  0  0  0  0
 15  1  2  0  0  0  0
 16 15  1  0  0  0  0
 16 10  2  0  0  0  0
 17 18  2  0  0  0  0
 18 20  1  0  0  0  0
 18  7  1  0  0  0  0
 19 17  1  0  0  0  0
 21 20  1  0  0  0  0
 23 21  1  0  0  0  0
 23 22  1  0  0  0  0
 24  7  1  0  0  0  0
 24 28  1  0  0  0  0
 26 27  1  0  0  0  0
 26 25  2  0  0  0  0
 28 31  2  0  0  0  0
 28 29  1  0  0  0  0
 29 30  2  0  0  0  0
 30 25  1  0  0  0  0
 31 26  1  0  0  0  0
M  END
>  <MODEL>
1

>  <REMARK>
 VINA RESULT:      -8.6      0.000      0.000
  Name = 
  6 active torsions:
  status: ('A' for Active; 'I' for Inactive)
    1  A    between atoms: C_5  and  O_22
    2  A    between atoms: C_5  and  C_28
    3  A    between atoms: C_13  and  C_14
    4  A    between atoms: C_13  and  C_25
    5  A    between atoms: C_14  and  C_15
    6  A    between atoms: O_22  and  C_25
                            x       y       z     vdW  Elec       q    Type
                         _______ _______ _______ _____ _____    ______ ____

>  <TORSDO>
F 6

$$$$
=
 OpenBabel11042410513D

 31 34  0  0  1  0  0  0  0  0999 V2000
  182.3580  179.2110  141.5840 C   0  0  0  0  0  0  0  0  0  0  0  0
  185.6040  178.1020  143.0230 C   0  0  0  0  0  0  0  0  0  0  0  0
  179.9900  179.5700  142.2630 C   0  0  0  0  0  0  0  0  0  0  0  0
  182.0570  179.2960  140.2740 N   0  0  0  0  0  0  0  0  0  0  0  0
  179.4780  180.3200  141.3890 O   0  0  0  0  0  0  0  0  0  0  0  0
  181.4170  179.6240  142.6890 C   0  0  1  0  0  3  0  0  0  0  0  0
  186.8230  177.6310  143.0290 C   0  0  0  0  0  0  0  0  0  0  0  0
  180.1680  178.0410  143.8960 C   0  0  0  0  0  3  0  0  0  0  0  0
  181.3750  178.5800  143.7700 C   0  0  2  0  0  3  0  0  0  0  0  0
  183.1560  178.8960  139.6030 C   0  0  0  0  0  3  0  0  0  0  0  0
  184.3870  178.5760  143.0210 C   0  0  0  0  0  0  0  0  0  0  0  0
  183.7850  178.9820  144.3290 C   0  0  0  0  0  2  0  0  0  0  0  0
  179.2380  178.6060  142.9790 N   0  0  0  0  0  0  0  0  0  0  0  0
  182.5290  178.1770  144.6360 C   0  0  0  0  0  2  0  0  0  0  0  0
  183.6630  178.7800  141.7450 C   0  0  1  0  0  3  0  0  0  0  0  0
  184.1750  178.5640  140.4780 C   0  0  0  0  0  3  0  0  0  0  0  0
  187.4150  178.2380  140.7900 N   0  0  0  0  0  0  0  0  0  0  0  0
  187.8020  178.0980  142.0270 C   0  0  0  0  0  0  0  0  0  0  0  0
  188.2370  178.6620  139.7720 O   0  0  0  0  0  1  0  0  0  0  0  0
  189.1130  178.3740  142.4550 O   0  0  0  0  0  0  0  0  0  0  0  0
  190.2240  177.4990  142.3170 C   0  0  0  0  0  2  0  0  0  0  0  0
  191.0380  179.1840  143.9310 C   0  0  0  0  0  1  0  0  0  0  0  0
  191.2150  177.7670  143.4290 C   0  0  0  0  0  2  0  0  0  0  0  0
  187.2220  176.6780  144.1120 C   0  0  0  0  0  2  0  0  0  0  0  0
  187.8590  178.7040  147.8400 C   0  0  0  0  0  3  0  0  0  0  0  0
  186.6440  178.8500  147.1650 C   0  0  0  0  0  0  0  0  0  0  0  0
  185.6410  179.6430  147.7050 O   0  0  0  0  0  1  0  0  0  0  0  0
  187.4490  177.3970  145.4000 C   0  0  0  0  0  0  0  0  0  0  0  0
  188.6640  177.2490  146.0790 C   0  0  0  0  0  3  0  0  0  0  0  0
  188.8700  177.9030  147.2980 C   0  0  0  0  0  3  0  0  0  0  0  0
  186.4380  178.1950  145.9470 C   0  0  0  0  0  3  0  0  0  0  0  0
  1 15  1  0  0  0  0
  2  7  2  0  0  0  0
  3  6  1  0  0  0  0
  3 13  1  0  0  0  0
  4  1  2  0  0  0  0
  5  3  2  0  0  0  0
  6  1  1  6  0  0  0
  6  9  1  0  0  0  0
  7 24  1  0  0  0  0
  9  8  1  1  0  0  0
  9 14  1  0  0  0  0
 10  4  1  0  0  0  0
 10 16  2  0  0  0  0
 11  2  2  0  0  0  0
 11 12  1  0  0  0  0
 12 14  1  0  0  0  0
 13  8  2  0  0  0  0
 15 16  1  1  0  0  0
 15 11  1  0  0  0  0
 17 18  2  0  0  0  0
 18 20  1  0  0  0  0
 18  7  1  0  0  0  0
 19 17  1  0  0  0  0
 21 20  1  0  0  0  0
 21 23  1  0  0  0  0
 23 22  1  0  0  0  0
 24 28  1  0  0  0  0
 26 27  1  0  0  0  0
 26 25  2  0  0  0  0
 28 31  2  0  0  0  0
 28 29  1  0  0  0  0
 29 30  2  0  0  0  0
 30 25  1  0  0  0  0
 31 26  1  0  0  0  0
M  END
>  <MODEL>
2

>  <REMARK>
 VINA RESULT:      -8.6      2.842      6.449
  Name = 
  6 active torsions:
  status: ('A' for Active; 'I' for Inactive)
    1  A    between atoms: C_5  and  O_22
    2  A    between atoms: C_5  and  C_28
    3  A    between atoms: C_13  and  C_14
    4  A    between atoms: C_13  and  C_25
    5  A    between atoms: C_14  and  C_15
    6  A    between atoms: O_22  and  C_25
                            x       y       z     vdW  Elec       q    Type
                         _______ _______ _______ _____ _____    ______ ____

>  <TORSDO>
F 6

$$$$
=
 OpenBabel11042410513D

 31 34  0  0  1  0  0  0  0  0999 V2000
  184.7430  179.0480  139.6460 C   0  0  0  0  0  0  0  0  0  0  0  0
  187.0080  177.8980  142.3630 C   0  0  0  0  0  0  0  0  0  0  0  0
  182.3390  179.5650  139.2530 C   0  0  0  0  0  0  0  0  0  0  0  0
  185.0200  179.0500  138.3290 N   0  0  0  0  0  0  0  0  0  0  0  0
  182.2920  180.2710  138.2110 O   0  0  0  0  0  0  0  0  0  0  0  0
  183.4600  179.5830  140.2350 C   0  0  1  0  0  3  0  0  0  0  0  0
  188.0780  177.3740  142.9020 C   0  0  0  0  0  0  0  0  0  0  0  0
  181.7110  178.1530  140.8810 C   0  0  0  0  0  3  0  0  0  0  0  0
  182.8970  178.6250  141.2470 C   0  0  2  0  0  3  0  0  0  0  0  0
  186.2660  178.5510  138.1990 C   0  0  0  0  0  3  0  0  0  0  0  0
  185.9400  178.4270  141.8290 C   0  0  0  0  0  0  0  0  0  0  0  0
  184.8810  178.9550  142.7440 C   0  0  0  0  0  2  0  0  0  0  0  0
  181.2900  178.6910  139.6340 N   0  0  0  0  0  0  0  0  0  0  0  0
  183.5550  178.2340  142.5350 C   0  0  0  0  0  2  0  0  0  0  0  0
  185.8280  178.5700  140.3590 C   0  0  1  0  0  3  0  0  0  0  0  0
  186.8020  178.2380  139.4350 C   0  0  0  0  0  3  0  0  0  0  0  0
  189.7240  177.3700  141.1640 N   0  0  0  0  0  0  0  0  0  0  0  0
  189.4150  177.7200  142.3810 C   0  0  0  0  0  0  0  0  0  0  0  0
  190.9380  177.6350  140.5740 O   0  0  0  0  0  1  0  0  0  0  0  0
  190.2980  178.4160  143.2250 O   0  0  0  0  0  0  0  0  0  0  0  0
  191.5910  177.9700  143.6090 C   0  0  0  0  0  2  0  0  0  0  0  0
  191.6620  176.5800  145.6510 C   0  0  0  0  0  1  0  0  0  0  0  0
  191.4960  176.5590  144.1460 C   0  0  0  0  0  2  0  0  0  0  0  0
  187.9200  176.4850  144.0960 C   0  0  0  0  0  2  0  0  0  0  0  0
  186.7430  178.7020  147.5760 C   0  0  0  0  0  3  0  0  0  0  0  0
  185.7850  178.3230  146.6320 C   0  0  0  0  0  0  0  0  0  0  0  0
  184.4510  178.6550  146.8260 O   0  0  0  0  0  1  0  0  0  0  0  0
  187.5120  177.2710  145.2970 C   0  0  0  0  0  0  0  0  0  0  0  0
  188.4710  177.6490  146.2450 C   0  0  0  0  0  3  0  0  0  0  0  0
  188.0870  178.3660  147.3830 C   0  0  0  0  0  3  0  0  0  0  0  0
  186.1680  177.6050  145.4950 C   0  0  0  0  0  3  0  0  0  0  0  0
  1  6  1  0  0  0  0
  1 15  1  0  0  0  0
  2  7  2  0  0  0  0
  3 13  1  0  0  0  0
  4  1  2  0  0  0  0
  5  3  2  0  0  0  0
  6  3  1  6  0  0  0
  6  9  1  0  0  0  0
  7 24  1  0  0  0  0
  9  8  1  1  0  0  0
  9 14  1  0  0  0  0
 10  4  1  0  0  0  0
 10 16  2  0  0  0  0
 11  2  2  0  0  0  0
 11 12  1  0  0  0  0
 13  8  2  0  0  0  0
 14 12  1  0  0  0  0
 15 16  1  6  0  0  0
 15 11  1  0  0  0  0
 17 18  2  0  0  0  0
 18  7  1  0  0  0  0
 18 20  1  0  0  0  0
 19 17  1  0  0  0  0
 20 21  1  0  0  0  0
 21 23  1  0  0  0  0
 23 22  1  0  0  0  0
 24 28  1  0  0  0  0
 26 27  1  0  0  0  0
 26 25  2  0  0  0  0
 28 31  2  0  0  0  0
 28 29  1  0  0  0  0
 29 30  2  0  0  0  0
 30 25  1  0  0  0  0
 31 26  1  0  0  0  0
M  END
>  <MODEL>
3

>  <REMARK>
 VINA RESULT:      -8.6      2.553      6.248
  Name = 
  6 active torsions:
  status: ('A' for Active; 'I' for Inactive)
    1  A    between atoms: C_5  and  O_22
    2  A    between atoms: C_5  and  C_28
    3  A    between atoms: C_13  and  C_14
    4  A    between atoms: C_13  and  C_25
    5  A    between atoms: C_14  and  C_15
    6  A    between atoms: O_22  and  C_25
                            x       y       z     vdW  Elec       q    Type
                         _______ _______ _______ _____ _____    ______ ____

>  <TORSDO>
F 6

$$$$
=
 OpenBabel11042410513D

 31 34  0  0  1  0  0  0  0  0999 V2000
  186.8100  178.3110  139.7590 C   0  0  0  0  0  0  0  0  0  0  0  0
  188.7510  177.9280  142.9100 C   0  0  0  0  0  0  0  0  0  0  0  0
  187.1440  178.2730  137.2920 C   0  0  0  0  0  0  0  0  0  0  0  0
  185.5810  178.8470  139.6440 N   0  0  0  0  0  0  0  0  0  0  0  0
  186.0070  178.0950  136.7810 O   0  0  0  0  0  0  0  0  0  0  0  0
  187.5770  177.7140  138.6040 C   0  0  1  0  0  3  0  0  0  0  0  0
  189.0220  178.0530  144.1820 C   0  0  0  0  0  0  0  0  0  0  0  0
  189.2870  178.9030  137.5170 C   0  0  0  0  0  3  0  0  0  0  0  0
  189.0000  178.1960  138.6040 C   0  0  2  0  0  3  0  0  0  0  0  0
  185.2070  179.2170  140.8860 C   0  0  0  0  0  3  0  0  0  0  0  0
  188.4810  177.7990  141.6380 C   0  0  0  0  0  0  0  0  0  0  0  0
  189.4500  177.0440  140.7840 C   0  0  0  0  0  2  0  0  0  0  0  0
  188.1700  179.0040  136.6420 N   0  0  0  0  0  0  0  0  0  0  0  0
  190.0130  177.9220  139.6740 C   0  0  0  0  0  2  0  0  0  0  0  0
  187.2080  178.3160  141.0840 C   0  0  1  0  0  3  0  0  0  0  0  0
  186.1900  178.9080  141.8090 C   0  0  0  0  0  3  0  0  0  0  0  0
  188.3010  177.7970  146.4500 N   0  0  0  0  0  0  0  0  0  0  0  0
  187.9690  177.8240  145.1900 C   0  0  0  0  0  0  0  0  0  0  0  0
  187.4080  177.5890  147.4760 O   0  0  0  0  0  1  0  0  0  0  0  0
  186.6470  177.6460  144.7430 O   0  0  0  0  0  0  0  0  0  0  0  0
  185.4790  177.9810  145.4780 C   0  0  0  0  0  2  0  0  0  0  0  0
  183.3440  179.0020  144.7650 C   0  0  0  0  0  1  0  0  0  0  0  0
  184.8390  179.2110  144.8700 C   0  0  0  0  0  2  0  0  0  0  0  0
  190.4310  178.3510  144.5920 C   0  0  0  0  0  2  0  0  0  0  0  0
  192.4520  174.7370  145.7170 C   0  0  0  0  0  3  0  0  0  0  0  0
  192.1880  175.7180  146.6780 C   0  0  0  0  0  0  0  0  0  0  0  0
  192.5710  175.5180  147.9970 O   0  0  0  0  0  1  0  0  0  0  0  0
  191.1500  177.1020  144.9810 C   0  0  0  0  0  0  0  0  0  0  0  0
  191.4120  176.1180  144.0210 C   0  0  0  0  0  3  0  0  0  0  0  0
  192.0640  174.9370  144.3880 C   0  0  0  0  0  3  0  0  0  0  0  0
  191.5350  176.8980  146.3110 C   0  0  0  0  0  3  0  0  0  0  0  0
  1 15  1  0  0  0  0
  2  7  2  0  0  0  0
  4  1  2  0  0  0  0
  4 10  1  0  0  0  0
  5  3  2  0  0  0  0
  6  3  1  6  0  0  0
  6  9  1  0  0  0  0
  6  1  1  0  0  0  0
  7 24  1  0  0  0  0
  7 18  1  0  0  0  0
  9  8  1  6  0  0  0
  9 14  1  0  0  0  0
 10 16  2  0  0  0  0
 11  2  2  0  0  0  0
 12 11  1  0  0  0  0
 13  3  1  0  0  0  0
 13  8  2  0  0  0  0
 14 12  1  0  0  0  0
 15 11  1  0  0  0  0
 15 16  1  6  0  0  0
 17 19  1  0  0  0  0
 18 17  2  0  0  0  0
 20 18  1  0  0  0  0
 20 21  1  0  0  0  0
 22 23  1  0  0  0  0
 23 21  1  0  0  0  0
 24 28  1  0  0  0  0
 25 26  1  0  0  0  0
 26 27  1  0  0  0  0
 28 31  1  0  0  0  0
 29 30  1  0  0  0  0
 29 28  2  0  0  0  0
 30 25  2  0  0  0  0
 31 26  2  0  0  0  0
M  END
>  <MODEL>
4

>  <REMARK>
 VINA RESULT:      -8.5      2.159      7.956
  Name = 
  6 active torsions:
  status: ('A' for Active; 'I' for Inactive)
    1  A    between atoms: C_5  and  O_22
    2  A    between atoms: C_5  and  C_28
    3  A    between atoms: C_13  and  C_14
    4  A    between atoms: C_13  and  C_25
    5  A    between atoms: C_14  and  C_15
    6  A    between atoms: O_22  and  C_25
                            x       y       z     vdW  Elec       q    Type
                         _______ _______ _______ _____ _____    ______ ____

>  <TORSDO>
F 6

$$$$
=
 OpenBabel11042410513D

 31 34  0  0  1  0  0  0  0  0999 V2000
  189.1580  177.2500  145.2630 C   0  0  0  0  0  0  0  0  0  0  0  0
  189.1710  177.5590  141.5560 C   0  0  0  0  0  0  0  0  0  0  0  0
  187.5860  177.4050  147.1880 C   0  0  0  0  0  0  0  0  0  0  0  0
  190.2380  177.2770  146.0660 N   0  0  0  0  0  2  0  0  0  0  0  0
  188.1450  176.8180  148.1520 O   0  0  0  0  0  0  0  0  0  0  0  0
  187.7500  177.0210  145.7570 C   0  0  1  0  0  3  0  0  0  0  0  0
  189.6710  177.7460  140.3630 C   0  0  0  0  0  0  0  0  0  0  0  0
  186.2450  178.8010  146.0520 C   0  0  0  0  0  3  0  0  0  0  0  0
  186.8020  178.0110  145.1420 C   0  0  0  0  0  0  0  0  0  0  0  0
  191.3080  177.4450  145.2630 C   0  0  0  0  0  3  0  0  0  0  0  0
  188.6690  177.3690  142.7470 C   0  0  0  0  0  0  0  0  0  0  0  0
  187.2090  177.0640  142.8560 C   0  0  0  0  0  2  0  0  0  0  0  0
  186.6900  178.4880  147.3660 N   0  0  0  0  0  2  0  0  0  0  0  0
  186.4820  178.1180  143.6820 C   0  0  0  0  0  2  0  0  0  0  0  0
  189.5460  177.3730  143.9410 C   0  0  0  0  0  0  0  0  0  0  0  0
  190.9220  177.5120  143.9360 C   0  0  0  0  0  3  0  0  0  0  0  0
  192.0630  177.6870  140.3240 N   0  0  0  0  0  0  0  0  0  0  0  0
  190.9460  177.1060  139.9850 C   0  0  0  0  0  0  0  0  0  0  0  0
  193.3100  177.1880  140.0250 O   0  0  0  0  0  1  0  0  0  0  0  0
  190.8990  175.8920  139.2770 O   0  0  0  0  0  0  0  0  0  0  0  0
  191.5450  175.6390  138.0380 C   0  0  0  0  0  2  0  0  0  0  0  0
  191.2860  174.3790  135.9270 C   0  0  0  0  0  1  0  0  0  0  0  0
  190.9440  174.4040  137.4010 C   0  0  0  0  0  2  0  0  0  0  0  0
  188.8880  178.5500  139.3720 C   0  0  0  0  0  2  0  0  0  0  0  0
  188.1470  176.3370  135.7710 C   0  0  0  0  0  3  0  0  0  0  0  0
  187.5460  175.9420  136.9700 C   0  0  0  0  0  0  0  0  0  0  0  0
  186.7030  174.8400  136.9930 O   0  0  0  0  0  1  0  0  0  0  0  0
  188.6430  177.7690  138.1240 C   0  0  0  0  0  0  0  0  0  0  0  0
  189.2410  178.1650  136.9220 C   0  0  0  0  0  3  0  0  0  0  0  0
  188.9950  177.4490  135.7470 C   0  0  0  0  0  3  0  0  0  0  0  0
  187.7920  176.6590  138.1450 C   0  0  0  0  0  3  0  0  0  0  0  0
  1  6  1  0  0  0  0
  1  4  1  0  0  0  0
  2 11  2  0  0  0  0
  3 13  1  0  0  0  0
  3  5  2  0  0  0  0
  6  9  1  6  0  0  0
  6  3  1  0  0  0  0
  7  2  2  0  0  0  0
  8 13  1  0  0  0  0
  9  8  2  0  0  0  0
 10  4  1  0  0  0  0
 11 12  1  0  0  0  0
 11 15  1  0  0  0  0
 12 14  1  0  0  0  0
 14  9  1  0  0  0  0
 15  1  2  0  0  0  0
 16 15  1  0  0  0  0
 16 10  2  0  0  0  0
 18 17  2  0  0  0  0
 18  7  1  0  0  0  0
 19 17  1  0  0  0  0
 20 18  1  0  0  0  0
 21 20  1  0  0  0  0
 22 23  1  0  0  0  0
 23 21  1  0  0  0  0
 24  7  1  0  0  0  0
 25 26  1  0  0  0  0
 26 27  1  0  0  0  0
 26 31  2  0  0  0  0
 28 31  1  0  0  0  0
 28 24  1  0  0  0  0
 29 28  2  0  0  0  0
 30 25  2  0  0  0  0
 30 29  1  0  0  0  0
M  END
>  <MODEL>
5

>  <REMARK>
 VINA RESULT:      -8.5      2.554      4.556
  Name = 
  6 active torsions:
  status: ('A' for Active; 'I' for Inactive)
    1  A    between atoms: C_5  and  O_22
    2  A    between atoms: C_5  and  C_28
    3  A    between atoms: C_13  and  C_14
    4  A    between atoms: C_13  and  C_25
    5  A    between atoms: C_14  and  C_15
    6  A    between atoms: O_22  and  C_25
                            x       y       z     vdW  Elec       q    Type
                         _______ _______ _______ _____ _____    ______ ____

>  <TORSDO>
F 6

$$$$
=
 OpenBabel11042410513D

 31 34  0  0  1  0  0  0  0  0999 V2000
  189.7610  177.4420  138.0650 C   0  0  0  0  0  0  0  0  0  0  0  0
  188.5460  177.3090  141.5780 C   0  0  0  0  0  0  0  0  0  0  0  0
  188.8780  177.5860  135.7410 C   0  0  0  0  0  0  0  0  0  0  0  0
  190.9960  177.1160  137.6380 N   0  0  0  0  0  0  0  0  0  0  0  0
  189.8340  177.9740  135.0200 O   0  0  0  0  0  0  0  0  0  0  0  0
  188.6780  177.9840  137.1640 C   0  0  1  0  0  3  0  0  0  0  0  0
  188.5880  177.0610  142.8610 C   0  0  0  0  0  0  0  0  0  0  0  0
  186.9510  176.6120  136.3540 C   0  0  0  0  0  3  0  0  0  0  0  0
  187.3730  177.2840  137.4190 C   0  0  2  0  0  3  0  0  0  0  0  0
  191.6880  176.7300  138.7290 C   0  0  0  0  0  3  0  0  0  0  0  0
  188.5020  177.5610  140.2970 C   0  0  0  0  0  0  0  0  0  0  0  0
  187.2690  178.2070  139.7470 C   0  0  0  0  0  2  0  0  0  0  0  0
  187.8450  176.7460  135.2560 N   0  0  0  0  0  0  0  0  0  0  0  0
  186.5990  177.3240  138.7010 C   0  0  0  0  0  2  0  0  0  0  0  0
  189.6770  177.2880  139.4370 C   0  0  1  0  0  3  0  0  0  0  0  0
  190.9040  176.8190  139.8660 C   0  0  0  0  0  3  0  0  0  0  0  0
  190.7260  178.1160  143.0800 N   0  0  0  0  0  0  0  0  0  0  0  0
  189.7990  177.3880  143.6380 C   0  0  0  0  0  0  0  0  0  0  0  0
  191.8970  178.4800  143.7040 O   0  0  0  0  0  1  0  0  0  0  0  0
  189.8990  176.8980  144.9530 O   0  0  0  0  0  0  0  0  0  0  0  0
  189.7880  177.6820  146.1320 C   0  0  0  0  0  2  0  0  0  0  0  0
  188.3830  177.5190  148.1590 C   0  0  0  0  0  1  0  0  0  0  0  0
  189.3870  176.7930  147.2900 C   0  0  0  0  0  2  0  0  0  0  0  0
  187.3640  176.5180  143.5300 C   0  0  0  0  0  2  0  0  0  0  0  0
  184.7580  179.7230  144.6900 C   0  0  0  0  0  3  0  0  0  0  0  0
  185.5330  179.0690  145.6530 C   0  0  0  0  0  0  0  0  0  0  0  0
  185.4660  179.4640  146.9820 O   0  0  0  0  0  1  0  0  0  0  0  0
  186.4450  177.6210  143.9380 C   0  0  0  0  0  0  0  0  0  0  0  0
  185.6710  178.2780  142.9740 C   0  0  0  0  0  3  0  0  0  0  0  0
  184.8260  179.3270  143.3500 C   0  0  0  0  0  3  0  0  0  0  0  0
  186.3780  178.0210  145.2770 C   0  0  0  0  0  3  0  0  0  0  0  0
  1 15  1  0  0  0  0
  2  7  2  0  0  0  0
  4  1  2  0  0  0  0
  4 10  1  0  0  0  0
  5  3  2  0  0  0  0
  6  3  1  6  0  0  0
  6  9  1  0  0  0  0
  6  1  1  0  0  0  0
  7 24  1  0  0  0  0
  7 18  1  0  0  0  0
  9  8  1  6  0  0  0
  9 14  1  0  0  0  0
 10 16  2  0  0  0  0
 11  2  2  0  0  0  0
 12 11  1  0  0  0  0
 13  3  1  0  0  0  0
 13  8  2  0  0  0  0
 14 12  1  0  0  0  0
 15 16  1  6  0  0  0
 15 11  1  0  0  0  0
 17 18  2  0  0  0  0
 17 19  1  0  0  0  0
 18 20  1  0  0  0  0
 20 21  1  0  0  0  0
 21 23  1  0  0  0  0
 23 22  1  0  0  0  0
 24 28  1  0  0  0  0
 25 26  1  0  0  0  0
 26 27  1  0  0  0  0
 28 31  1  0  0  0  0
 29 30  1  0  0  0  0
 29 28  2  0  0  0  0
 30 25  2  0  0  0  0
 31 26  2  0  0  0  0
M  END
>  <MODEL>
6

>  <REMARK>
 VINA RESULT:      -8.4      2.319      6.744
  Name = 
  6 active torsions:
  status: ('A' for Active; 'I' for Inactive)
    1  A    between atoms: C_5  and  O_22
    2  A    between atoms: C_5  and  C_28
    3  A    between atoms: C_13  and  C_14
    4  A    between atoms: C_13  and  C_25
    5  A    between atoms: C_14  and  C_15
    6  A    between atoms: O_22  and  C_25
                            x       y       z     vdW  Elec       q    Type
                         _______ _______ _______ _____ _____    ______ ____

>  <TORSDO>
F 6

$$$$
=
 OpenBabel11042410513D

 31 34  0  0  1  0  0  0  0  0999 V2000
  189.7690  177.7820  145.1100 C   0  0  0  0  0  0  0  0  0  0  0  0
  187.5040  177.9290  142.1630 C   0  0  0  0  0  0  0  0  0  0  0  0
  189.6870  177.3740  147.5650 C   0  0  0  0  0  0  0  0  0  0  0  0
  191.0230  178.2670  145.1720 N   0  0  0  0  0  2  0  0  0  0  0  0
  190.8630  177.0940  147.9190 O   0  0  0  0  0  0  0  0  0  0  0  0
  189.1020  177.0320  146.2370 C   0  0  1  0  0  3  0  0  0  0  0  0
  187.1080  178.2520  140.9590 C   0  0  0  0  0  0  0  0  0  0  0  0
  187.5580  178.0770  147.6670 C   0  0  0  0  0  3  0  0  0  0  0  0
  187.7050  177.5390  146.4620 C   0  0  0  0  0  0  0  0  0  0  0  0
  191.2820  178.8150  143.9680 C   0  0  0  0  0  3  0  0  0  0  0  0
  187.8970  177.6000  143.3640 C   0  0  0  0  0  0  0  0  0  0  0  0
  186.9920  176.7440  144.1930 C   0  0  0  0  0  2  0  0  0  0  0  0
  188.7610  178.0180  148.4220 N   0  0  0  0  0  2  0  0  0  0  0  0
  186.5790  177.4540  145.4770 C   0  0  0  0  0  2  0  0  0  0  0  0
  189.2380  177.9990  143.8500 C   0  0  0  0  0  0  0  0  0  0  0  0
  190.1990  178.6730  143.1190 C   0  0  0  0  0  3  0  0  0  0  0  0
  189.2260  177.6440  140.0230 N   0  0  0  0  0  0  0  0  0  0  0  0
  188.0450  178.1580  139.8220 C   0  0  0  0  0  0  0  0  0  0  0  0
  190.1810  177.5080  139.0430 O   0  0  0  0  0  1  0  0  0  0  0  0
  187.6180  178.6280  138.5670 O   0  0  0  0  0  0  0  0  0  0  0  0
  187.0320  177.8310  137.5470 C   0  0  0  0  0  2  0  0  0  0  0  0
  188.7370  177.3720  135.8180 C   0  0  0  0  0  1  0  0  0  0  0  0
  187.5740  178.2620  136.2010 C   0  0  0  0  0  2  0  0  0  0  0  0
  185.6770  178.6400  140.7520 C   0  0  0  0  0  2  0  0  0  0  0  0
  183.8500  179.6770  144.4930 C   0  0  0  0  0  3  0  0  0  0  0  0
  183.2040  178.7970  143.6200 C   0  0  0  0  0  0  0  0  0  0  0  0
  181.9750  178.2530  143.9680 O   0  0  0  0  0  1  0  0  0  0  0  0
  185.0320  179.0140  142.0450 C   0  0  0  0  0  0  0  0  0  0  0  0
  185.6810  179.8920  142.9220 C   0  0  0  0  0  3  0  0  0  0  0  0
  185.0890  180.2240  144.1450 C   0  0  0  0  0  3  0  0  0  0  0  0
  183.7950  178.4640  142.3980 C   0  0  0  0  0  3  0  0  0  0  0  0
  1  4  1  0  0  0  0
  2 11  2  0  0  0  0
  3  5  2  0  0  0  0
  3 13  1  0  0  0  0
  6  1  1  6  0  0  0
  6  9  1  0  0  0  0
  6  3  1  0  0  0  0
  7  2  2  0  0  0  0
  8 13  1  0  0  0  0
  9  8  2  0  0  0  0
 10  4  1  0  0  0  0
 11 15  1  0  0  0  0
 11 12  1  0  0  0  0
 12 14  1  0  0  0  0
 14  9  1  0  0  0  0
 15  1  2  0  0  0  0
 16 15  1  0  0  0  0
 16 10  2  0  0  0  0
 18 17  2  0  0  0  0
 18  7  1  0  0  0  0
 19 17  1  0  0  0  0
 20 18  1  0  0  0  0
 21 20  1  0  0  0  0
 22 23  1  0  0  0  0
 23 21  1  0  0  0  0
 24  7  1  0  0  0  0
 24 28  1  0  0  0  0
 26 27  1  0  0  0  0
 26 25  2  0  0  0  0
 28 31  2  0  0  0  0
 28 29  1  0  0  0  0
 29 30  2  0  0  0  0
 30 25  1  0  0  0  0
 31 26  1  0  0  0  0
M  END
>  <MODEL>
7

>  <REMARK>
 VINA RESULT:      -8.4      1.209      1.724
  Name = 
  6 active torsions:
  status: ('A' for Active; 'I' for Inactive)
    1  A    between atoms: C_5  and  O_22
    2  A    between atoms: C_5  and  C_28
    3  A    between atoms: C_13  and  C_14
    4  A    between atoms: C_13  and  C_25
    5  A    between atoms: C_14  and  C_15
    6  A    between atoms: O_22  and  C_25
                            x       y       z     vdW  Elec       q    Type
                         _______ _______ _______ _____ _____    ______ ____

>  <TORSDO>
F 6

$$$$
=
 OpenBabel11042410513D

 31 34  0  0  1  0  0  0  0  0999 V2000
  187.9350  177.9460  143.5060 C   0  0  0  0  0  0  0  0  0  0  0  0
  186.3520  178.4170  140.1730 C   0  0  0  0  0  0  0  0  0  0  0  0
  190.0960  177.2260  144.5100 C   0  0  0  0  0  0  0  0  0  0  0  0
  187.2920  177.8680  144.6860 N   0  0  0  0  0  2  0  0  0  0  0  0
  190.1000  177.6560  145.6940 O   0  0  0  0  0  0  0  0  0  0  0  0
  189.4370  177.9150  143.3640 C   0  0  1  0  0  3  0  0  0  0  0  0
  185.3840  178.5380  139.3030 C   0  0  0  0  0  0  0  0  0  0  0  0
  190.5720  175.9610  142.7180 C   0  0  0  0  0  3  0  0  0  0  0  0
  189.8490  176.9780  142.2630 C   0  0  0  0  0  0  0  0  0  0  0  0
  185.9770  177.9870  144.4140 C   0  0  0  0  0  3  0  0  0  0  0  0
  187.3220  178.3010  141.0390 C   0  0  0  0  0  0  0  0  0  0  0  0
  188.7290  178.4180  140.5440 C   0  0  0  0  0  2  0  0  0  0  0  0
  190.7680  176.0390  144.1240 N   0  0  0  0  0  2  0  0  0  0  0  0
  189.5190  177.1430  140.8110 C   0  0  0  0  0  2  0  0  0  0  0  0
  187.0250  178.1430  142.4820 C   0  0  0  0  0  0  0  0  0  0  0  0
  185.7680  178.1560  143.0570 C   0  0  0  0  0  3  0  0  0  0  0  0
  183.8880  180.3360  138.7930 N   0  0  0  0  0  0  0  0  0  0  0  0
  184.2090  179.3750  139.6140 C   0  0  0  0  0  0  0  0  0  0  0  0
  182.8190  181.1810  138.9800 O   0  0  0  0  0  1  0  0  0  0  0  0
  183.4840  179.0970  140.7870 O   0  0  0  0  0  0  0  0  0  0  0  0
  182.3230  178.2820  140.8610 C   0  0  0  0  0  2  0  0  0  0  0  0
  181.9010  179.0010  143.1870 C   0  0  0  0  0  1  0  0  0  0  0  0
  181.3180  178.9240  141.7930 C   0  0  0  0  0  2  0  0  0  0  0  0
  185.5290  177.8780  137.9670 C   0  0  0  0  0  2  0  0  0  0  0  0
  189.6530  177.4440  136.8610 C   0  0  0  0  0  3  0  0  0  0  0  0
  188.9100  176.3220  137.2430 C   0  0  0  0  0  0  0  0  0  0  0  0
  189.5040  175.0680  137.2550 O   0  0  0  0  0  1  0  0  0  0  0  0
  186.9680  177.7280  137.6000 C   0  0  0  0  0  0  0  0  0  0  0  0
  187.7120  178.8490  137.2140 C   0  0  0  0  0  3  0  0  0  0  0  0
  189.0540  178.7070  136.8460 C   0  0  0  0  0  3  0  0  0  0  0  0
  187.5680  176.4640  137.6090 C   0  0  0  0  0  3  0  0  0  0  0  0
  1  4  1  0  0  0  0
  2 11  2  0  0  0  0
  3  5  2  0  0  0  0
  6  9  1  6  0  0  0
  6  1  1  0  0  0  0
  6  3  1  0  0  0  0
  7 18  1  0  0  0  0
  7  2  2  0  0  0  0
  8 13  1  0  0  0  0
  9  8  2  0  0  0  0
 10  4  1  0  0  0  0
 11 15  1  0  0  0  0
 12 14  1  0  0  0  0
 12 11  1  0  0  0  0
 13  3  1  0  0  0  0
 14  9  1  0  0  0  0
 15 16  1  0  0  0  0
 15  1  2  0  0  0  0
 16 10  2  0  0  0  0
 17 19  1  0  0  0  0
 17 18  2  0  0  0  0
 18 20  1  0  0  0  0
 20 21  1  0  0  0  0
 21 23  1  0  0  0  0
 23 22  1  0  0  0  0
 24  7  1  0  0  0  0
 25 26  1  0  0  0  0
 26 27  1  0  0  0  0
 26 31  2  0  0  0  0
 28 31  1  0  0  0  0
 28 24  1  0  0  0  0
 29 28  2  0  0  0  0
 30 25  2  0  0  0  0
 30 29  1  0  0  0  0
M  END
>  <MODEL>
8

>  <REMARK>
 VINA RESULT:      -7.9      2.525      5.989
  Name = 
  6 active torsions:
  status: ('A' for Active; 'I' for Inactive)
    1  A    between atoms: C_5  and  O_22
    2  A    between atoms: C_5  and  C_28
    3  A    between atoms: C_13  and  C_14
    4  A    between atoms: C_13  and  C_25
    5  A    between atoms: C_14  and  C_15
    6  A    between atoms: O_22  and  C_25
                            x       y       z     vdW  Elec       q    Type
                         _______ _______ _______ _____ _____    ______ ____

>  <TORSDO>
F 6

$$$$
=
 OpenBabel11042410513D

 31 34  0  0  1  0  0  0  0  0999 V2000
  187.2310  177.8050  143.5730 C   0  0  0  0  0  0  0  0  0  0  0  0
  185.1520  178.6400  140.6040 C   0  0  0  0  0  0  0  0  0  0  0  0
  187.0840  177.7650  146.0590 C   0  0  0  0  0  0  0  0  0  0  0  0
  188.5690  177.6600  143.5910 N   0  0  0  0  0  2  0  0  0  0  0  0
  188.0150  177.0170  146.4590 O   0  0  0  0  0  0  0  0  0  0  0  0
  186.3470  177.5820  144.7760 C   0  0  1  0  0  3  0  0  0  0  0  0
  184.8940  178.9690  139.3650 C   0  0  0  0  0  0  0  0  0  0  0  0
  185.5230  179.3780  146.0480 C   0  0  0  0  0  3  0  0  0  0  0  0
  185.3510  178.6980  144.9200 C   0  0  0  0  0  0  0  0  0  0  0  0
  188.9940  177.8840  142.3310 C   0  0  0  0  0  3  0  0  0  0  0  0
  185.4060  178.3080  141.8410 C   0  0  0  0  0  0  0  0  0  0  0  0
  184.2480  178.0670  142.7590 C   0  0  0  0  0  2  0  0  0  0  0  0
  186.5980  178.8580  146.8200 N   0  0  0  0  0  2  0  0  0  0  0  0
  184.2670  179.0300  143.9400 C   0  0  0  0  0  2  0  0  0  0  0  0
  186.8010  178.0950  142.2910 C   0  0  0  0  0  0  0  0  0  0  0  0
  187.9290  178.1610  141.4940 C   0  0  0  0  0  3  0  0  0  0  0  0
  186.5570  179.0010  137.6440 N   0  0  0  0  0  0  0  0  0  0  0  0
  185.6290  178.3240  138.2600 C   0  0  0  0  0  0  0  0  0  0  0  0
  187.3030  178.5070  136.5990 O   0  0  0  0  0  1  0  0  0  0  0  0
  185.2940  177.0000  137.9200 O   0  0  0  0  0  0  0  0  0  0  0  0
  184.3370  176.6200  136.9420 C   0  0  0  0  0  2  0  0  0  0  0  0
  183.0550  175.6600  138.8240 C   0  0  0  0  0  1  0  0  0  0  0  0
  183.5800  175.4030  137.4280 C   0  0  0  0  0  2  0  0  0  0  0  0
  183.7940  179.9470  139.0940 C   0  0  0  0  0  2  0  0  0  0  0  0
  179.9700  178.0100  138.8900 C   0  0  0  0  0  3  0  0  0  0  0  0
  180.5420  178.2990  140.1330 C   0  0  0  0  0  0  0  0  0  0  0  0
  179.8680  177.9670  141.3000 O   0  0  0  0  0  1  0  0  0  0  0  0
  182.4720  179.2570  139.0250 C   0  0  0  0  0  0  0  0  0  0  0  0
  181.8970  178.9710  137.7810 C   0  0  0  0  0  3  0  0  0  0  0  0
  180.6470  178.3460  137.7140 C   0  0  0  0  0  3  0  0  0  0  0  0
  181.7900  178.9250  140.2000 C   0  0  0  0  0  3  0  0  0  0  0  0
  1  4  1  0  0  0  0
  2 11  2  0  0  0  0
  3  5  2  0  0  0  0
  3 13  1  0  0  0  0
  6  1  1  6  0  0  0
  6  9  1  0  0  0  0
  6  3  1  0  0  0  0
  7  2  2  0  0  0  0
  8 13  1  0  0  0  0
  9  8  2  0  0  0  0
 10  4  1  0  0  0  0
 11 15  1  0  0  0  0
 11 12  1  0  0  0  0
 12 14  1  0  0  0  0
 14  9  1  0  0  0  0
 15  1  2  0  0  0  0
 16 15  1  0  0  0  0
 16 10  2  0  0  0  0
 17 18  2  0  0  0  0
 18  7  1  0  0  0  0
 19 17  1  0  0  0  0
 20 18  1  0  0  0  0
 21 23  1  0  0  0  0
 21 20  1  0  0  0  0
 23 22  1  0  0  0  0
 24  7  1  0  0  0  0
 25 26  1  0  0  0  0
 26 31  2  0  0  0  0
 26 27  1  0  0  0  0
 28 24  1  0  0  0  0
 28 31  1  0  0  0  0
 29 28  2  0  0  0  0
 30 29  1  0  0  0  0
 30 25  2  0  0  0  0
M  END
>  <MODEL>
9

>  <REMARK>
 VINA RESULT:      -7.9      2.973      4.378
  Name = 
  6 active torsions:
  status: ('A' for Active; 'I' for Inactive)
    1  A    between atoms: C_5  and  O_22
    2  A    between atoms: C_5  and  C_28
    3  A    between atoms: C_13  and  C_14
    4  A    between atoms: C_13  and  C_25
    5  A    between atoms: C_14  and  C_15
    6  A    between atoms: O_22  and  C_25
                            x       y       z     vdW  Elec       q    Type
                         _______ _______ _______ _____ _____    ______ ____

>  <TORSDO>
F 6

$$$$
