=
 OpenBabel11042412443D

 57 57  0  0  1  0  0  0  0  0999 V2000
  183.7890  177.7330  139.3300 C   0  0  1  0  0  3  0  0  0  0  0  0
  185.8030  178.8830  138.7600 O   0  0  0  0  0  0  0  0  0  0  0  0
  183.7270  176.1780  137.3030 C   0  0  0  0  0  0  0  0  0  0  0  0
  182.8910  175.3850  137.8170 O   0  0  0  0  0  0  0  0  0  0  0  0
  184.3170  177.2230  138.0960 N   0  0  0  0  0  0  0  0  0  0  0  0
  184.6640  178.9610  139.5990 C   0  0  1  0  0  0  0  0  0  0  0  0
  185.5410  177.9220  137.7560 C   0  0  2  0  0  3  0  0  0  0  0  0
  183.9940  180.1600  139.3260 O   0  0  0  0  0  1  0  0  0  0  0  0
  186.7060  176.9320  137.6650 C   0  0  2  0  0  3  0  0  0  0  0  0
  187.6570  177.2250  138.6460 O   0  0  0  0  0  1  0  0  0  0  0  0
  187.3340  176.9460  136.2650 C   0  0  2  0  0  3  0  0  0  0  0  0
  188.3650  174.5470  136.4070 C   0  0  0  0  0  1  0  0  0  0  0  0
  186.9600  175.2550  134.6650 O   0  0  0  0  0  0  0  0  0  0  0  0
  187.5210  175.5610  135.7060 C   0  0  0  0  0  0  0  0  0  0  0  0
  188.6230  177.7860  136.1880 C   0  0  0  0  0  2  0  0  0  0  0  0
  189.1580  177.9540  134.7770 C   0  0  0  0  0  1  0  0  0  0  0  0
  185.0920  178.9340  141.0610 C   0  0  0  0  0  2  0  0  0  0  0  0
  186.9210  178.6080  141.2470 P   0  0  0  0  0  2  0  0  0  0  0  0
  186.7400  177.7960  142.9100 C   0  0  0  0  0  2  0  0  0  0  0  0
  185.3950  177.7850  143.2900 O   0  0  0  0  0  0  0  0  0  0  0  0
  185.4110  178.0470  144.6600 C   0  0  2  0  0  3  0  0  0  0  0  0
  184.5240  180.1490  143.9980 O   0  0  0  0  0  1  0  0  0  0  0  0
  185.4040  179.5450  144.8940 C   0  0  0  0  0  2  0  0  0  0  0  0
  186.6520  177.4340  145.2780 C   0  0  0  0  0  2  0  0  0  0  0  0
  187.4000  178.4330  145.9060 O   0  0  0  0  0  0  0  0  0  0  0  0
  187.0030  178.1690  148.6790 O   0  0  0  0  0  1  0  0  0  0  0  0
  187.9810  177.7580  147.3540 P   0  0  1  0  0  0  0  0  0  0  0  0
  187.9930  176.2510  147.2080 O   0  0  0  0  0  0  0  0  0  0  0  0
  189.6880  178.3250  147.6350 C   0  0  0  0  0  2  0  0  0  0  0  0
  190.6410  177.7010  146.6230 C   0  0  1  0  0  3  0  0  0  0  0  0
  192.2320  176.2640  147.7200 O   0  0  0  0  0  1  0  0  0  0  0  0
  191.0220  176.2790  147.0200 C   0  0  0  0  0  2  0  0  0  0  0  0
  190.0150  177.7250  145.2360 C   0  0  0  0  0  2  0  0  0  0  0  0
  191.0210  178.1710  144.2310 C   0  0  0  0  0  0  0  0  0  0  0  0
  191.0200  179.3770  143.8540 O   0  0  0  0  0  0  0  0  0  0  0  0
  191.9210  177.2510  143.6940 O   0  0  0  0  0  0  0  0  0  0  0  0
  190.9340  177.6580  141.6520 O   0  0  0  0  0  1  0  0  0  0  0  0
  191.8570  176.8580  142.3300 C   0  0  0  0  0  2  0  0  0  0  0  0
  184.0610  176.0520  135.8530 C   0  0  0  0  0  2  0  0  0  0  0  0
  181.8370  175.2340  135.0730 C   0  0  0  0  0  1  0  0  0  0  0  0
  182.8400  176.3770  135.0060 C   0  0  0  0  0  2  0  0  0  0  0  0
  182.2620  177.9440  139.2630 C   0  0  2  0  0  3  0  0  0  0  0  0
  181.9110  179.2480  138.8090 O   0  0  0  0  0  0  0  0  0  0  0  0
  181.5770  178.7320  136.5850 O   0  0  0  0  0  0  0  0  0  0  0  0
  181.3040  179.4710  137.5730 C   0  0  0  0  0  0  0  0  0  0  0  0
  180.4050  180.5280  137.4460 O   0  0  0  0  0  0  0  0  0  0  0  0
  180.3050  181.5540  138.4210 C   0  0  0  0  0  2  0  0  0  0  0  0
  180.5080  182.9100  137.7680 C   0  0  0  0  0  2  0  0  0  0  0  0
  179.4410  183.8990  138.2200 C   0  0  0  0  0  2  0  0  0  0  0  0
  179.5360  185.7350  136.9930 C   0  0  0  0  0  1  0  0  0  0  0  0
  179.9460  185.2020  138.2160 O   0  0  0  0  0  0  0  0  0  0  0  0
  181.5460  177.5560  140.5570 C   0  0  0  0  0  2  0  0  0  0  0  0
  180.6480  178.6140  140.9980 N   0  0  0  0  0  2  0  0  0  0  0  0
  180.7890  179.2580  142.2670 C   0  0  0  0  0  0  0  0  0  0  0  0
  181.7550  178.9790  143.0270 O   0  0  0  0  0  0  0  0  0  0  0  0
  179.7880  180.2710  142.7010 C   0  0  0  0  0  2  0  0  0  0  0  0
  179.3210  181.0770  141.5140 C   0  0  0  0  0  1  0  0  0  0  0  0
  1 42  1  6  0  0  0
  1  6  1  0  0  0  0
  2  6  1  0  0  0  0
  3  4  2  0  0  0  0
  3  5  1  0  0  0  0
  5  1  1  0  0  0  0
  6  8  1  6  0  0  0
  6 17  1  0  0  0  0
  7  9  1  1  0  0  0
  7  5  1  0  0  0  0
  7  2  1  0  0  0  0
  9 10  1  1  0  0  0
 11 15  1  1  0  0  0
 11  9  1  0  0  0  0
 13 14  2  0  0  0  0
 14 11  1  0  0  0  0
 14 12  1  0  0  0  0
 16 15  1  0  0  0  0
 17 18  1  0  0  0  0
 18 19  1  0  0  0  0
 19 20  1  0  0  0  0
 20 21  1  0  0  0  0
 21 23  1  6  0  0  0
 21 24  1  0  0  0  0
 22 23  1  0  0  0  0
 24 25  1  0  0  0  0
 25 27  1  0  0  0  0
 27 28  2  6  0  0  0
 27 29  1  0  0  0  0
 27 26  1  0  0  0  0
 30 33  1  6  0  0  0
 30 32  1  0  0  0  0
 30 29  1  0  0  0  0
 32 31  1  0  0  0  0
 34 33  1  0  0  0  0
 35 34  2  0  0  0  0
 36 34  1  0  0  0  0
 37 38  1  0  0  0  0
 38 36  1  0  0  0  0
 39  3  1  0  0  0  0
 41 40  1  0  0  0  0
 41 39  1  0  0  0  0
 42 52  1  1  0  0  0
 43 42  1  0  0  0  0
 44 45  2  0  0  0  0
 45 43  1  0  0  0  0
 46 45  1  0  0  0  0
 46 47  1  0  0  0  0
 48 49  1  0  0  0  0
 48 47  1  0  0  0  0
 50 51  1  0  0  0  0
 51 49  1  0  0  0  0
 52 53  1  0  0  0  0
 53 54  1  0  0  0  0
 54 56  1  0  0  0  0
 54 55  2  0  0  0  0
 57 56  1  0  0  0  0
M  END
>  <MODEL>
1

>  <REMARK>
 VINA RESULT:      -4.7      0.000      0.000
  Name = 
  33 active torsions:
  status: ('A' for Active; 'I' for Inactive)
    1  A    between atoms: C_2  and  C_19
    2  A    between atoms: C_2  and  C_38
    3  A    between atoms: C_2  and  O_44
    4  A    between atoms: C_4  and  C_14
    5  A    between atoms: C_5  and  O_10
    6  A    between atoms: C_5  and  C_26
    7  A    between atoms: C_6  and  P_8
    8  A    between atoms: C_6  and  C_27
    9  A    between atoms: P_8  and  O_13
   10  A    between atoms: C_9  and  C_31
   11  A    between atoms: O_10  and  C_17
   12  A    between atoms: O_13  and  C_19
   13  A    between atoms: C_14  and  C_35
   14  A    between atoms: C_14  and  O_36
   15  A    between atoms: O_16  and  C_28
   16  A    between atoms: O_16  and  C_30
   17  A    between atoms: C_17  and  O_36
   18  A    between atoms: C_18  and  C_23
   19  A    between atoms: C_20  and  C_56
   20  A    between atoms: C_23  and  C_43
   21  A    between atoms: C_23  and  C_46
   22  A    between atoms: C_26  and  C_39
   23  A    between atoms: C_27  and  C_42
   24  A    between atoms: C_27  and  C_50
   25  A    between atoms: N_29  and  C_35
   26  A    between atoms: C_30  and  C_42
   27  A    between atoms: C_37  and  C_54
   28  A    between atoms: C_39  and  O_45
   29  A    between atoms: C_40  and  O_44
   30  A    between atoms: C_40  and  P_49
   31  A    between atoms: C_41  and  C_46
   32  A    between atoms: P_49  and  C_54
   33  A    between atoms: C_51  and  C_56
                            x       y       z     vdW  Elec       q    Type
                         _______ _______ _______ _____ _____    ______ ____

>  <TORSDO>
F 33

$$$$
=
 OpenBabel11042412443D

 57 57  0  0  1  0  0  0  0  0999 V2000
  183.9120  177.2970  138.7530 C   0  0  1  0  0  3  0  0  0  0  0  0
  185.9020  178.5130  138.2370 O   0  0  0  0  0  0  0  0  0  0  0  0
  183.8120  175.9230  136.6020 C   0  0  0  0  0  0  0  0  0  0  0  0
  182.9970  175.0790  137.0650 O   0  0  0  0  0  0  0  0  0  0  0  0
  184.4140  176.9010  137.4670 N   0  0  0  0  0  0  0  0  0  0  0  0
  184.7830  178.5070  139.1060 C   0  0  1  0  0  0  0  0  0  0  0  0
  185.6220  177.6390  137.1600 C   0  0  2  0  0  3  0  0  0  0  0  0
  184.0970  179.7180  138.9540 O   0  0  0  0  0  1  0  0  0  0  0  0
  186.7930  176.6740  136.9550 C   0  0  2  0  0  3  0  0  0  0  0  0
  186.5060  175.4430  137.5510 O   0  0  0  0  0  1  0  0  0  0  0  0
  188.0980  177.2630  137.5070 C   0  0  2  0  0  3  0  0  0  0  0  0
  188.9460  177.6330  135.0610 C   0  0  0  0  0  1  0  0  0  0  0  0
  189.3480  179.1390  136.8160 O   0  0  0  0  0  0  0  0  0  0  0  0
  188.8380  178.0810  136.4820 C   0  0  0  0  0  0  0  0  0  0  0  0
  189.0010  176.2110  138.1770 C   0  0  0  0  0  2  0  0  0  0  0  0
  190.2620  175.8990  137.3890 C   0  0  0  0  0  1  0  0  0  0  0  0
  185.2480  178.3580  140.5500 C   0  0  0  0  0  2  0  0  0  0  0  0
  184.1380  179.2760  141.7380 P   0  0  0  0  0  2  0  0  0  0  0  0
  184.4710  178.1140  143.1500 C   0  0  0  0  0  2  0  0  0  0  0  0
  185.7540  178.3370  143.6580 O   0  0  0  0  0  0  0  0  0  0  0  0
  185.6460  178.0720  145.0230 C   0  0  2  0  0  3  0  0  0  0  0  0
  184.1820  178.3730  146.8700 O   0  0  0  0  0  1  0  0  0  0  0  0
  184.5020  178.8750  145.6100 C   0  0  0  0  0  2  0  0  0  0  0  0
  186.9430  178.4410  145.7140 C   0  0  0  0  0  2  0  0  0  0  0  0
  186.8590  178.1070  147.0690 O   0  0  0  0  0  0  0  0  0  0  0  0
  189.4920  178.8350  147.7460 O   0  0  0  0  0  0  0  0  0  0  0  0
  188.4020  177.5530  147.5220 P   0  0  1  0  0  0  0  0  0  0  0  0
  188.2730  176.7920  148.8240 O   0  0  0  0  0  1  0  0  0  0  0  0
  189.0260  176.4140  146.2470 C   0  0  0  0  0  2  0  0  0  0  0  0
  189.6620  177.1840  145.0960 C   0  0  1  0  0  3  0  0  0  0  0  0
  191.8970  178.0760  145.1390 O   0  0  0  0  0  1  0  0  0  0  0  0
  191.1560  176.9000  144.9940 C   0  0  0  0  0  2  0  0  0  0  0  0
  188.9570  176.8430  143.7910 C   0  0  0  0  0  2  0  0  0  0  0  0
  189.9510  176.3960  142.7750 C   0  0  0  0  0  0  0  0  0  0  0  0
  190.4580  175.2430  142.8770 O   0  0  0  0  0  0  0  0  0  0  0  0
  190.3370  177.2610  141.7520 O   0  0  0  0  0  0  0  0  0  0  0  0
  192.1900  177.2770  140.3820 O   0  0  0  0  0  1  0  0  0  0  0  0
  191.6830  177.6950  141.6150 C   0  0  0  0  0  2  0  0  0  0  0  0
  184.1120  175.9260  135.1390 C   0  0  0  0  0  2  0  0  0  0  0  0
  184.0700  173.4900  134.5950 C   0  0  0  0  0  1  0  0  0  0  0  0
  184.9580  174.7130  134.7770 C   0  0  0  0  0  2  0  0  0  0  0  0
  182.3820  177.4980  138.7410 C   0  0  2  0  0  3  0  0  0  0  0  0
  182.0100  178.8420  138.4530 O   0  0  0  0  0  0  0  0  0  0  0  0
  181.1110  178.4180  136.3720 O   0  0  0  0  0  0  0  0  0  0  0  0
  181.1830  179.1750  137.3810 C   0  0  0  0  0  0  0  0  0  0  0  0
  180.4520  180.3610  137.4380 O   0  0  0  0  0  0  0  0  0  0  0  0
  180.9200  181.5020  138.1380 C   0  0  0  0  0  2  0  0  0  0  0  0
  180.2120  182.7460  137.6310 C   0  0  0  0  0  2  0  0  0  0  0  0
  181.1300  183.5720  136.7410 C   0  0  0  0  0  2  0  0  0  0  0  0
  179.7180  185.2050  137.2150 C   0  0  0  0  0  1  0  0  0  0  0  0
  180.4270  184.6320  136.1590 O   0  0  0  0  0  0  0  0  0  0  0  0
  181.6960  176.9490  139.9940 C   0  0  0  0  0  2  0  0  0  0  0  0
  181.0100  178.0070  140.7210 N   0  0  0  0  0  2  0  0  0  0  0  0
  179.7480  177.8020  141.3620 C   0  0  0  0  0  0  0  0  0  0  0  0
  179.2150  176.6600  141.3820 O   0  0  0  0  0  0  0  0  0  0  0  0
  179.0520  178.9440  142.0140 C   0  0  0  0  0  2  0  0  0  0  0  0
  179.8970  179.4880  143.1410 C   0  0  0  0  0  1  0  0  0  0  0  0
  1 42  1  6  0  0  0
  1  6  1  0  0  0  0
  2  6  1  0  0  0  0
  3  4  2  0  0  0  0
  3  5  1  0  0  0  0
  5  1  1  0  0  0  0
  6  8  1  6  0  0  0
  6 17  1  0  0  0  0
  7  9  1  1  0  0  0
  7  5  1  0  0  0  0
  7  2  1  0  0  0  0
  9 11  1  0  0  0  0
  9 10  1  1  0  0  0
 11 15  1  6  0  0  0
 12 14  1  0  0  0  0
 14 13  2  0  0  0  0
 14 11  1  0  0  0  0
 16 15  1  0  0  0  0
 17 18  1  0  0  0  0
 18 19  1  0  0  0  0
 19 20  1  0  0  0  0
 20 21  1  0  0  0  0
 21 23  1  1  0  0  0
 21 24  1  0  0  0  0
 23 22  1  0  0  0  0
 24 25  1  0  0  0  0
 25 27  1  0  0  0  0
 27 26  2  1  0  0  0
 27 28  1  0  0  0  0
 29 27  1  0  0  0  0
 30 33  1  6  0  0  0
 30 29  1  0  0  0  0
 32 30  1  0  0  0  0
 32 31  1  0  0  0  0
 34 35  2  0  0  0  0
 34 33  1  0  0  0  0
 36 34  1  0  0  0  0
 37 38  1  0  0  0  0
 38 36  1  0  0  0  0
 39  3  1  0  0  0  0
 40 41  1  0  0  0  0
 41 39  1  0  0  0  0
 42 52  1  1  0  0  0
 43 42  1  0  0  0  0
 44 45  2  0  0  0  0
 45 46  1  0  0  0  0
 45 43  1  0  0  0  0
 46 47  1  0  0  0  0
 48 47  1  0  0  0  0
 49 48  1  0  0  0  0
 51 49  1  0  0  0  0
 51 50  1  0  0  0  0
 52 53  1  0  0  0  0
 53 54  1  0  0  0  0
 54 55  2  0  0  0  0
 54 56  1  0  0  0  0
 56 57  1  0  0  0  0
M  END
>  <MODEL>
2

>  <REMARK>
 VINA RESULT:      -4.5      1.614      2.050
  Name = 
  33 active torsions:
  status: ('A' for Active; 'I' for Inactive)
    1  A    between atoms: C_2  and  C_19
    2  A    between atoms: C_2  and  C_38
    3  A    between atoms: C_2  and  O_44
    4  A    between atoms: C_4  and  C_14
    5  A    between atoms: C_5  and  O_10
    6  A    between atoms: C_5  and  C_26
    7  A    between atoms: C_6  and  P_8
    8  A    between atoms: C_6  and  C_27
    9  A    between atoms: P_8  and  O_13
   10  A    between atoms: C_9  and  C_31
   11  A    between atoms: O_10  and  C_17
   12  A    between atoms: O_13  and  C_19
   13  A    between atoms: C_14  and  C_35
   14  A    between atoms: C_14  and  O_36
   15  A    between atoms: O_16  and  C_28
   16  A    between atoms: O_16  and  C_30
   17  A    between atoms: C_17  and  O_36
   18  A    between atoms: C_18  and  C_23
   19  A    between atoms: C_20  and  C_56
   20  A    between atoms: C_23  and  C_43
   21  A    between atoms: C_23  and  C_46
   22  A    between atoms: C_26  and  C_39
   23  A    between atoms: C_27  and  C_42
   24  A    between atoms: C_27  and  C_50
   25  A    between atoms: N_29  and  C_35
   26  A    between atoms: C_30  and  C_42
   27  A    between atoms: C_37  and  C_54
   28  A    between atoms: C_39  and  O_45
   29  A    between atoms: C_40  and  O_44
   30  A    between atoms: C_40  and  P_49
   31  A    between atoms: C_41  and  C_46
   32  A    between atoms: P_49  and  C_54
   33  A    between atoms: C_51  and  C_56
                            x       y       z     vdW  Elec       q    Type
                         _______ _______ _______ _____ _____    ______ ____

>  <TORSDO>
F 33

$$$$
=
 OpenBabel11042412443D

 57 57  0  0  1  0  0  0  0  0999 V2000
  187.1350  176.7930  137.2260 C   0  0  1  0  0  3  0  0  0  0  0  0
  189.2750  177.3890  136.3500 O   0  0  0  0  0  0  0  0  0  0  0  0
  187.1360  174.3630  136.4380 C   0  0  0  0  0  0  0  0  0  0  0  0
  186.1990  174.0130  137.2060 O   0  0  0  0  0  0  0  0  0  0  0  0
  187.7320  175.6650  136.5670 N   0  0  0  0  0  0  0  0  0  0  0  0
  188.0750  177.9450  136.8570 C   0  0  1  0  0  0  0  0  0  0  0  0
  189.0310  176.0310  136.0400 C   0  0  2  0  0  3  0  0  0  0  0  0
  187.5270  178.7840  135.8790 O   0  0  0  0  0  1  0  0  0  0  0  0
  190.1200  175.1510  136.6590 C   0  0  2  0  0  3  0  0  0  0  0  0
  189.7800  174.8280  137.9760 O   0  0  0  0  0  1  0  0  0  0  0  0
  191.4900  175.8400  136.5960 C   0  0  2  0  0  3  0  0  0  0  0  0
  193.3020  175.6140  134.7230 C   0  0  0  0  0  1  0  0  0  0  0  0
  192.6970  173.8610  136.1620 O   0  0  0  0  0  0  0  0  0  0  0  0
  192.5070  175.0250  135.8420 C   0  0  0  0  0  0  0  0  0  0  0  0
  192.0060  176.2870  137.9750 C   0  0  0  0  0  2  0  0  0  0  0  0
  193.4920  176.6010  137.9980 C   0  0  0  0  0  1  0  0  0  0  0  0
  188.3670  178.7490  138.1180 C   0  0  0  0  0  2  0  0  0  0  0  0
  188.6540  177.6460  139.5970 P   0  0  0  0  0  2  0  0  0  0  0  0
  188.0590  178.9130  140.8210 C   0  0  0  0  0  2  0  0  0  0  0  0
  187.7030  178.2880  142.0190 O   0  0  0  0  0  0  0  0  0  0  0  0
  186.3400  178.0250  141.8910 C   0  0  2  0  0  3  0  0  0  0  0  0
  184.5320  179.4250  141.2430 O   0  0  0  0  0  1  0  0  0  0  0  0
  185.7500  178.9070  140.8070 C   0  0  0  0  0  2  0  0  0  0  0  0
  185.6460  178.2960  143.2100 C   0  0  0  0  0  2  0  0  0  0  0  0
  186.6030  178.5570  144.1940 O   0  0  0  0  0  0  0  0  0  0  0  0
  184.2340  178.8460  145.6860 O   0  0  0  0  0  0  0  0  0  0  0  0
  185.8380  178.2890  145.6900 P   0  0  1  0  0  0  0  0  0  0  0  0
  185.8360  176.8010  145.9660 O   0  0  0  0  0  1  0  0  0  0  0  0
  186.7880  179.1190  147.0030 C   0  0  0  0  0  2  0  0  0  0  0  0
  188.1830  178.5200  147.1250 C   0  0  1  0  0  3  0  0  0  0  0  0
  188.0170  176.6260  148.6010 O   0  0  0  0  0  1  0  0  0  0  0  0
  188.4280  177.9590  148.5210 C   0  0  0  0  0  2  0  0  0  0  0  0
  188.3820  177.4440  146.0680 C   0  0  0  0  0  2  0  0  0  0  0  0
  189.7380  177.5660  145.4640 C   0  0  0  0  0  0  0  0  0  0  0  0
  190.7250  177.0480  146.0600 O   0  0  0  0  0  0  0  0  0  0  0  0
  189.9090  178.2750  144.2760 O   0  0  0  0  0  0  0  0  0  0  0  0
  191.9600  178.2600  143.2250 O   0  0  0  0  0  1  0  0  0  0  0  0
  191.0930  179.0160  144.0170 C   0  0  0  0  0  2  0  0  0  0  0  0
  187.5890  173.4300  135.3630 C   0  0  0  0  0  2  0  0  0  0  0  0
  187.0340  171.0110  135.6250 C   0  0  0  0  0  1  0  0  0  0  0  0
  188.0320  172.1080  135.9720 C   0  0  0  0  0  2  0  0  0  0  0  0
  185.6420  176.9480  136.8720 C   0  0  2  0  0  3  0  0  0  0  0  0
  184.7900  176.2750  137.7940 O   0  0  0  0  0  0  0  0  0  0  0  0
  183.3390  178.0500  138.0510 O   0  0  0  0  0  0  0  0  0  0  0  0
  183.7390  176.9190  138.4470 C   0  0  0  0  0  0  0  0  0  0  0  0
  183.1490  176.2980  139.5470 O   0  0  0  0  0  0  0  0  0  0  0  0
  181.9030  175.6280  139.4560 C   0  0  0  0  0  2  0  0  0  0  0  0
  180.7740  176.6420  139.3900 C   0  0  0  0  0  2  0  0  0  0  0  0
  180.8010  177.5680  140.5990 C   0  0  0  0  0  2  0  0  0  0  0  0
  179.0410  178.1590  139.4000 C   0  0  0  0  0  1  0  0  0  0  0  0
  179.8350  178.5690  140.4720 O   0  0  0  0  0  0  0  0  0  0  0  0
  185.3310  176.5970  135.4160 C   0  0  0  0  0  2  0  0  0  0  0  0
  184.0300  175.9550  135.2970 N   0  0  0  0  0  2  0  0  0  0  0  0
  182.8530  176.6730  134.9190 C   0  0  0  0  0  0  0  0  0  0  0  0
  182.9180  177.8910  134.5950 O   0  0  0  0  0  0  0  0  0  0  0  0
  181.5340  175.9830  134.9010 C   0  0  0  0  0  2  0  0  0  0  0  0
  180.4200  177.0010  134.8780 C   0  0  0  0  0  1  0  0  0  0  0  0
  1 42  1  6  0  0  0
  2  6  1  0  0  0  0
  3  5  1  0  0  0  0
  3  4  2  0  0  0  0
  5  1  1  0  0  0  0
  6  8  1  6  0  0  0
  6  1  1  0  0  0  0
  6 17  1  0  0  0  0
  7  2  1  0  0  0  0
  7  5  1  0  0  0  0
  7  9  1  1  0  0  0
  9 10  1  1  0  0  0
 11  9  1  0  0  0  0
 11 15  1  1  0  0  0
 12 14  1  0  0  0  0
 14 13  2  0  0  0  0
 14 11  1  0  0  0  0
 15 16  1  0  0  0  0
 17 18  1  0  0  0  0
 18 19  1  0  0  0  0
 19 20  1  0  0  0  0
 21 23  1  6  0  0  0
 21 20  1  0  0  0  0
 21 24  1  0  0  0  0
 23 22  1  0  0  0  0
 24 25  1  0  0  0  0
 25 27  1  0  0  0  0
 27 26  2  6  0  0  0
 27 28  1  0  0  0  0
 27 29  1  0  0  0  0
 29 30  1  0  0  0  0
 30 33  1  6  0  0  0
 30 32  1  0  0  0  0
 32 31  1  0  0  0  0
 34 35  2  0  0  0  0
 34 33  1  0  0  0  0
 36 34  1  0  0  0  0
 37 38  1  0  0  0  0
 38 36  1  0  0  0  0
 39 41  1  0  0  0  0
 39  3  1  0  0  0  0
 40 41  1  0  0  0  0
 42 52  1  6  0  0  0
 42 43  1  0  0  0  0
 43 45  1  0  0  0  0
 44 45  2  0  0  0  0
 45 46  1  0  0  0  0
 47 46  1  0  0  0  0
 48 47  1  0  0  0  0
 48 49  1  0  0  0  0
 50 51  1  0  0  0  0
 51 49  1  0  0  0  0
 53 52  1  0  0  0  0
 54 53  1  0  0  0  0
 55 54  2  0  0  0  0
 56 54  1  0  0  0  0
 57 56  1  0  0  0  0
M  END
>  <MODEL>
3

>  <REMARK>
 VINA RESULT:      -4.5      2.835      4.848
  Name = 
  33 active torsions:
  status: ('A' for Active; 'I' for Inactive)
    1  A    between atoms: C_2  and  C_19
    2  A    between atoms: C_2  and  C_38
    3  A    between atoms: C_2  and  O_44
    4  A    between atoms: C_4  and  C_14
    5  A    between atoms: C_5  and  O_10
    6  A    between atoms: C_5  and  C_26
    7  A    between atoms: C_6  and  P_8
    8  A    between atoms: C_6  and  C_27
    9  A    between atoms: P_8  and  O_13
   10  A    between atoms: C_9  and  C_31
   11  A    between atoms: O_10  and  C_17
   12  A    between atoms: O_13  and  C_19
   13  A    between atoms: C_14  and  C_35
   14  A    between atoms: C_14  and  O_36
   15  A    between atoms: O_16  and  C_28
   16  A    between atoms: O_16  and  C_30
   17  A    between atoms: C_17  and  O_36
   18  A    between atoms: C_18  and  C_23
   19  A    between atoms: C_20  and  C_56
   20  A    between atoms: C_23  and  C_43
   21  A    between atoms: C_23  and  C_46
   22  A    between atoms: C_26  and  C_39
   23  A    between atoms: C_27  and  C_42
   24  A    between atoms: C_27  and  C_50
   25  A    between atoms: N_29  and  C_35
   26  A    between atoms: C_30  and  C_42
   27  A    between atoms: C_37  and  C_54
   28  A    between atoms: C_39  and  O_45
   29  A    between atoms: C_40  and  O_44
   30  A    between atoms: C_40  and  P_49
   31  A    between atoms: C_41  and  C_46
   32  A    between atoms: P_49  and  C_54
   33  A    between atoms: C_51  and  C_56
                            x       y       z     vdW  Elec       q    Type
                         _______ _______ _______ _____ _____    ______ ____

>  <TORSDO>
F 33

$$$$
=
 OpenBabel11042412443D

 57 57  0  0  1  0  0  0  0  0999 V2000
  185.5700  178.9300  140.3920 C   0  0  1  0  0  3  0  0  0  0  0  0
  185.7480  177.6680  138.3720 O   0  0  0  0  0  0  0  0  0  0  0  0
  187.9100  178.4310  141.2860 C   0  0  0  0  0  0  0  0  0  0  0  0
  187.8940  179.3710  142.1270 O   0  0  0  0  0  0  0  0  0  0  0  0
  186.8650  178.3170  140.3050 N   0  0  0  0  0  0  0  0  0  0  0  0
  184.8070  178.2910  139.2270 C   0  0  1  0  0  0  0  0  0  0  0  0
  186.9700  177.5550  139.0770 C   0  0  2  0  0  3  0  0  0  0  0  0
  183.8920  177.3240  139.6600 O   0  0  0  0  0  1  0  0  0  0  0  0
  188.1180  178.0910  138.2180 C   0  0  2  0  0  3  0  0  0  0  0  0
  187.6890  179.2040  137.4890 O   0  0  0  0  0  1  0  0  0  0  0  0
  188.6690  177.0010  137.2890 C   0  0  2  0  0  3  0  0  0  0  0  0
  191.0900  177.1120  138.2730 C   0  0  0  0  0  1  0  0  0  0  0  0
  189.8930  175.1120  137.9910 O   0  0  0  0  0  0  0  0  0  0  0  0
  189.8890  176.3270  137.8560 C   0  0  0  0  0  0  0  0  0  0  0  0
  188.8910  177.4920  135.8460 C   0  0  0  0  0  2  0  0  0  0  0  0
  187.8120  177.0420  134.8760 C   0  0  0  0  0  1  0  0  0  0  0  0
  184.0710  179.3930  138.4740 C   0  0  0  0  0  2  0  0  0  0  0  0
  182.2510  179.0180  138.2930 P   0  0  0  0  0  2  0  0  0  0  0  0
  182.4900  177.9360  136.8000 C   0  0  0  0  0  2  0  0  0  0  0  0
  181.7780  176.7430  136.9570 O   0  0  0  0  0  0  0  0  0  0  0  0
  180.9880  176.6480  135.8120 C   0  0  2  0  0  3  0  0  0  0  0  0
  179.4090  176.6170  137.5870 O   0  0  0  0  0  1  0  0  0  0  0  0
  179.5220  176.6750  136.1990 C   0  0  0  0  0  2  0  0  0  0  0  0
  181.3060  175.3580  135.0830 C   0  0  0  0  0  2  0  0  0  0  0  0
  180.1380  174.6020  134.9450 O   0  0  0  0  0  0  0  0  0  0  0  0
  180.4330  173.3750  137.4600 O   0  0  0  0  0  1  0  0  0  0  0  0
  180.4080  173.1450  135.7780 P   0  0  1  0  0  0  0  0  0  0  0  0
  179.2900  172.1840  135.4360 O   0  0  0  0  0  0  0  0  0  0  0  0
  181.9820  172.4210  135.2210 C   0  0  0  0  0  2  0  0  0  0  0  0
  182.9730  172.3210  136.3740 C   0  0  1  0  0  3  0  0  0  0  0  0
  183.6850  170.0900  135.8190 O   0  0  0  0  0  1  0  0  0  0  0  0
  183.1450  170.8790  136.8380 C   0  0  0  0  0  2  0  0  0  0  0  0
  184.3110  172.9200  135.9640 C   0  0  0  0  0  2  0  0  0  0  0  0
  184.9270  173.6320  137.1190 C   0  0  0  0  0  0  0  0  0  0  0  0
  184.4400  174.7370  137.4900 O   0  0  0  0  0  0  0  0  0  0  0  0
  186.0470  173.0920  137.7500 O   0  0  0  0  0  0  0  0  0  0  0  0
  187.6970  173.7290  136.2730 O   0  0  0  0  0  1  0  0  0  0  0  0
  187.1800  172.6610  137.0110 C   0  0  0  0  0  2  0  0  0  0  0  0
  188.9990  177.4090  141.3500 C   0  0  0  0  0  2  0  0  0  0  0  0
  191.2930  176.9850  142.2350 C   0  0  0  0  0  1  0  0  0  0  0  0
  190.0200  177.8010  142.4080 C   0  0  0  0  0  2  0  0  0  0  0  0
  184.9610  178.8000  141.8030 C   0  0  2  0  0  3  0  0  0  0  0  0
  185.8260  178.1250  142.7110 O   0  0  0  0  0  0  0  0  0  0  0  0
  184.8030  178.9470  144.6080 O   0  0  0  0  0  0  0  0  0  0  0  0
  185.6120  178.1270  144.0890 C   0  0  0  0  0  0  0  0  0  0  0  0
  186.3130  177.2180  144.8800 O   0  0  0  0  0  0  0  0  0  0  0  0
  187.7080  177.3400  145.1100 C   0  0  0  0  0  2  0  0  0  0  0  0
  187.9550  177.9030  146.4990 C   0  0  0  0  0  2  0  0  0  0  0  0
  188.7330  176.9150  147.3590 C   0  0  0  0  0  2  0  0  0  0  0  0
  190.9180  176.6150  147.2110 C   0  0  0  0  0  1  0  0  0  0  0  0
  189.9540  177.4650  147.7570 O   0  0  0  0  0  0  0  0  0  0  0  0
  183.5450  178.2210  141.7930 C   0  0  0  0  0  2  0  0  0  0  0  0
  182.5480  179.2700  141.9490 N   0  0  0  0  0  2  0  0  0  0  0  0
  181.3280  179.0670  142.6670 C   0  0  0  0  0  0  0  0  0  0  0  0
  181.1060  177.9780  143.2630 O   0  0  0  0  0  0  0  0  0  0  0  0
  180.3070  180.1480  142.7170 C   0  0  0  0  0  2  0  0  0  0  0  0
  179.6050  180.2570  141.3850 C   0  0  0  0  0  1  0  0  0  0  0  0
  1 42  1  1  0  0  0
  2  7  1  0  0  0  0
  2  6  1  0  0  0  0
  3 39  1  0  0  0  0
  3  4  2  0  0  0  0
  5  1  1  0  0  0  0
  5  3  1  0  0  0  0
  6  8  1  1  0  0  0
  6  1  1  0  0  0  0
  7  9  1  6  0  0  0
  7  5  1  0  0  0  0
  9 10  1  6  0  0  0
 11 15  1  6  0  0  0
 11 14  1  0  0  0  0
 11  9  1  0  0  0  0
 14 13  2  0  0  0  0
 14 12  1  0  0  0  0
 16 15  1  0  0  0  0
 17  6  1  0  0  0  0
 18 17  1  0  0  0  0
 19 20  1  0  0  0  0
 19 18  1  0  0  0  0
 21 24  1  1  0  0  0
 21 23  1  0  0  0  0
 21 20  1  0  0  0  0
 23 22  1  0  0  0  0
 25 24  1  0  0  0  0
 25 27  1  0  0  0  0
 27 28  2  6  0  0  0
 27 26  1  0  0  0  0
 29 27  1  0  0  0  0
 30 29  1  6  0  0  0
 30 32  1  0  0  0  0
 31 32  1  0  0  0  0
 33 30  1  0  0  0  0
 33 34  1  0  0  0  0
 34 35  2  0  0  0  0
 34 36  1  0  0  0  0
 37 38  1  0  0  0  0
 38 36  1  0  0  0  0
 39 41  1  0  0  0  0
 40 41  1  0  0  0  0
 42 52  1  6  0  0  0
 42 43  1  0  0  0  0
 43 45  1  0  0  0  0
 45 44  2  0  0  0  0
 45 46  1  0  0  0  0
 46 47  1  0  0  0  0
 47 48  1  0  0  0  0
 48 49  1  0  0  0  0
 49 51  1  0  0  0  0
 50 51  1  0  0  0  0
 52 53  1  0  0  0  0
 53 54  1  0  0  0  0
 54 56  1  0  0  0  0
 54 55  2  0  0  0  0
 57 56  1  0  0  0  0
M  END
>  <MODEL>
4

>  <REMARK>
 VINA RESULT:      -4.5      3.094      9.101
  Name = 
  33 active torsions:
  status: ('A' for Active; 'I' for Inactive)
    1  A    between atoms: C_2  and  C_19
    2  A    between atoms: C_2  and  C_38
    3  A    between atoms: C_2  and  O_44
    4  A    between atoms: C_4  and  C_14
    5  A    between atoms: C_5  and  O_10
    6  A    between atoms: C_5  and  C_26
    7  A    between atoms: C_6  and  P_8
    8  A    between atoms: C_6  and  C_27
    9  A    between atoms: P_8  and  O_13
   10  A    between atoms: C_9  and  C_31
   11  A    between atoms: O_10  and  C_17
   12  A    between atoms: O_13  and  C_19
   13  A    between atoms: C_14  and  C_35
   14  A    between atoms: C_14  and  O_36
   15  A    between atoms: O_16  and  C_28
   16  A    between atoms: O_16  and  C_30
   17  A    between atoms: C_17  and  O_36
   18  A    between atoms: C_18  and  C_23
   19  A    between atoms: C_20  and  C_56
   20  A    between atoms: C_23  and  C_43
   21  A    between atoms: C_23  and  C_46
   22  A    between atoms: C_26  and  C_39
   23  A    between atoms: C_27  and  C_42
   24  A    between atoms: C_27  and  C_50
   25  A    between atoms: N_29  and  C_35
   26  A    between atoms: C_30  and  C_42
   27  A    between atoms: C_37  and  C_54
   28  A    between atoms: C_39  and  O_45
   29  A    between atoms: C_40  and  O_44
   30  A    between atoms: C_40  and  P_49
   31  A    between atoms: C_41  and  C_46
   32  A    between atoms: P_49  and  C_54
   33  A    between atoms: C_51  and  C_56
                            x       y       z     vdW  Elec       q    Type
                         _______ _______ _______ _____ _____    ______ ____

>  <TORSDO>
F 33

$$$$
=
 OpenBabel11042412443D

 57 57  0  0  1  0  0  0  0  0999 V2000
  186.5850  178.5080  142.5060 C   0  0  1  0  0  3  0  0  0  0  0  0
  186.6460  177.7490  140.2420 O   0  0  0  0  0  0  0  0  0  0  0  0
  188.8550  177.5740  143.2150 C   0  0  0  0  0  0  0  0  0  0  0  0
  188.9300  178.2850  144.2550 O   0  0  0  0  0  0  0  0  0  0  0  0
  187.8100  177.8040  142.2530 N   0  0  0  0  0  0  0  0  0  0  0  0
  185.7680  178.2440  141.2370 C   0  0  1  0  0  0  0  0  0  0  0  0
  187.8440  177.3480  140.8780 C   0  0  2  0  0  3  0  0  0  0  0  0
  184.7550  177.3000  141.4450 O   0  0  0  0  0  1  0  0  0  0  0  0
  189.0480  177.9530  140.1500 C   0  0  2  0  0  3  0  0  0  0  0  0
  188.6260  178.9860  139.3090 O   0  0  0  0  0  1  0  0  0  0  0  0
  189.8150  176.8800  139.3660 C   0  0  2  0  0  3  0  0  0  0  0  0
  191.9440  177.5370  140.7370 C   0  0  0  0  0  1  0  0  0  0  0  0
  192.0140  176.7590  138.5230 O   0  0  0  0  0  0  0  0  0  0  0  0
  191.3070  177.0460  139.4770 C   0  0  0  0  0  0  0  0  0  0  0  0
  189.3500  176.7520  137.9040 C   0  0  0  0  0  2  0  0  0  0  0  0
  189.2910  175.3180  137.4060 C   0  0  0  0  0  1  0  0  0  0  0  0
  185.1540  179.5620  140.7790 C   0  0  0  0  0  2  0  0  0  0  0  0
  183.4760  179.3170  139.9980 P   0  0  0  0  0  2  0  0  0  0  0  0
  184.1740  178.7860  138.3580 C   0  0  0  0  0  2  0  0  0  0  0  0
  183.7080  177.5090  138.0340 O   0  0  0  0  0  0  0  0  0  0  0  0
  183.2350  177.6250  136.7270 C   0  0  2  0  0  3  0  0  0  0  0  0
  181.5410  178.7910  135.5370 O   0  0  0  0  0  1  0  0  0  0  0  0
  181.8130  178.1520  136.7450 C   0  0  0  0  0  2  0  0  0  0  0  0
  183.2740  176.2690  136.0520 C   0  0  0  0  0  2  0  0  0  0  0  0
  182.0960  175.5740  136.3370 O   0  0  0  0  0  0  0  0  0  0  0  0
  183.8420  174.1310  138.0070 O   0  0  0  0  0  1  0  0  0  0  0  0
  182.5690  174.0360  136.8880 P   0  0  1  0  0  0  0  0  0  0  0  0
  181.3800  173.3820  137.5580 O   0  0  0  0  0  0  0  0  0  0  0  0
  183.0620  173.0160  135.4630 C   0  0  0  0  0  2  0  0  0  0  0  0
  184.0750  171.9560  135.8780 C   0  0  1  0  0  3  0  0  0  0  0  0
  184.5710  169.6280  135.5210 O   0  0  0  0  0  1  0  0  0  0  0  0
  183.5300  170.5500  135.6610 C   0  0  0  0  0  2  0  0  0  0  0  0
  185.3770  172.1550  135.1150 C   0  0  0  0  0  2  0  0  0  0  0  0
  186.3670  172.8650  135.9730 C   0  0  0  0  0  0  0  0  0  0  0  0
  187.0330  172.2040  136.8190 O   0  0  0  0  0  0  0  0  0  0  0  0
  186.5210  174.2460  135.8590 O   0  0  0  0  0  0  0  0  0  0  0  0
  187.1830  176.1120  134.6800 O   0  0  0  0  0  1  0  0  0  0  0  0
  186.5060  174.8940  134.5950 C   0  0  0  0  0  2  0  0  0  0  0  0
  189.8310  176.4620  143.0160 C   0  0  0  0  0  2  0  0  0  0  0  0
  191.8390  175.3140  143.9530 C   0  0  0  0  0  1  0  0  0  0  0  0
  190.8140  176.4160  144.1770 C   0  0  0  0  0  2  0  0  0  0  0  0
  185.9550  178.1090  143.8570 C   0  0  2  0  0  3  0  0  0  0  0  0
  184.5450  177.9290  143.7700 O   0  0  0  0  0  0  0  0  0  0  0  0
  183.4720  178.7210  145.6520 O   0  0  0  0  0  0  0  0  0  0  0  0
  183.6420  178.7830  144.4020 C   0  0  0  0  0  0  0  0  0  0  0  0
  182.9240  179.6940  143.6280 O   0  0  0  0  0  0  0  0  0  0  0  0
  181.5060  179.6820  143.5720 C   0  0  0  0  0  2  0  0  0  0  0  0
  181.0200  178.3370  143.0620 C   0  0  0  0  0  2  0  0  0  0  0  0
  179.9600  178.5140  141.9830 C   0  0  0  0  0  2  0  0  0  0  0  0
  178.9880  180.4370  141.4900 C   0  0  0  0  0  1  0  0  0  0  0  0
  178.9610  179.3900  142.4130 O   0  0  0  0  0  0  0  0  0  0  0  0
  186.3630  179.0350  145.0050 C   0  0  0  0  0  2  0  0  0  0  0  0
  186.9900  178.2860  146.0850 N   0  0  0  0  0  2  0  0  0  0  0  0
  186.7730  178.6030  147.4620 C   0  0  0  0  0  0  0  0  0  0  0  0
  185.9590  179.5070  147.7940 O   0  0  0  0  0  0  0  0  0  0  0  0
  187.5090  177.8600  148.5200 C   0  0  0  0  0  2  0  0  0  0  0  0
  188.9830  178.1810  148.4460 C   0  0  0  0  0  1  0  0  0  0  0  0
  1 42  1  1  0  0  0
  2  7  1  0  0  0  0
  2  6  1  0  0  0  0
  3  4  2  0  0  0  0
  5  1  1  0  0  0  0
  5  3  1  0  0  0  0
  6  8  1  1  0  0  0
  6  1  1  0  0  0  0
  7  9  1  6  0  0  0
  7  5  1  0  0  0  0
  9 10  1  6  0  0  0
 11 15  1  6  0  0  0
 11 14  1  0  0  0  0
 11  9  1  0  0  0  0
 13 14  2  0  0  0  0
 14 12  1  0  0  0  0
 16 15  1  0  0  0  0
 17  6  1  0  0  0  0
 18 17  1  0  0  0  0
 19 18  1  0  0  0  0
 20 19  1  0  0  0  0
 21 24  1  1  0  0  0
 21 23  1  0  0  0  0
 21 20  1  0  0  0  0
 22 23  1  0  0  0  0
 24 25  1  0  0  0  0
 25 27  1  0  0  0  0
 27 28  2  1  0  0  0
 27 26  1  0  0  0  0
 29 30  1  0  0  0  0
 29 27  1  0  0  0  0
 30 33  1  6  0  0  0
 31 32  1  0  0  0  0
 32 30  1  0  0  0  0
 33 34  1  0  0  0  0
 34 35  2  0  0  0  0
 36 34  1  0  0  0  0
 38 37  1  0  0  0  0
 38 36  1  0  0  0  0
 39  3  1  0  0  0  0
 39 41  1  0  0  0  0
 40 41  1  0  0  0  0
 42 52  1  1  0  0  0
 43 42  1  0  0  0  0
 43 45  1  0  0  0  0
 45 44  2  0  0  0  0
 46 45  1  0  0  0  0
 47 46  1  0  0  0  0
 48 47  1  0  0  0  0
 49 51  1  0  0  0  0
 49 48  1  0  0  0  0
 50 51  1  0  0  0  0
 52 53  1  0  0  0  0
 53 54  1  0  0  0  0
 54 55  2  0  0  0  0
 54 56  1  0  0  0  0
 57 56  1  0  0  0  0
M  END
>  <MODEL>
5

>  <REMARK>
 VINA RESULT:      -4.2      3.101      8.634
  Name = 
  33 active torsions:
  status: ('A' for Active; 'I' for Inactive)
    1  A    between atoms: C_2  and  C_19
    2  A    between atoms: C_2  and  C_38
    3  A    between atoms: C_2  and  O_44
    4  A    between atoms: C_4  and  C_14
    5  A    between atoms: C_5  and  O_10
    6  A    between atoms: C_5  and  C_26
    7  A    between atoms: C_6  and  P_8
    8  A    between atoms: C_6  and  C_27
    9  A    between atoms: P_8  and  O_13
   10  A    between atoms: C_9  and  C_31
   11  A    between atoms: O_10  and  C_17
   12  A    between atoms: O_13  and  C_19
   13  A    between atoms: C_14  and  C_35
   14  A    between atoms: C_14  and  O_36
   15  A    between atoms: O_16  and  C_28
   16  A    between atoms: O_16  and  C_30
   17  A    between atoms: C_17  and  O_36
   18  A    between atoms: C_18  and  C_23
   19  A    between atoms: C_20  and  C_56
   20  A    between atoms: C_23  and  C_43
   21  A    between atoms: C_23  and  C_46
   22  A    between atoms: C_26  and  C_39
   23  A    between atoms: C_27  and  C_42
   24  A    between atoms: C_27  and  C_50
   25  A    between atoms: N_29  and  C_35
   26  A    between atoms: C_30  and  C_42
   27  A    between atoms: C_37  and  C_54
   28  A    between atoms: C_39  and  O_45
   29  A    between atoms: C_40  and  O_44
   30  A    between atoms: C_40  and  P_49
   31  A    between atoms: C_41  and  C_46
   32  A    between atoms: P_49  and  C_54
   33  A    between atoms: C_51  and  C_56
                            x       y       z     vdW  Elec       q    Type
                         _______ _______ _______ _____ _____    ______ ____

>  <TORSDO>
F 33

$$$$
=
 OpenBabel11042412443D

 57 57  0  0  1  0  0  0  0  0999 V2000
  185.8040  176.0820  136.6350 C   0  0  1  0  0  3  0  0  0  0  0  0
  187.5290  175.4960  135.0910 O   0  0  0  0  0  0  0  0  0  0  0  0
  184.6350  173.8110  136.6810 C   0  0  0  0  0  0  0  0  0  0  0  0
  183.9890  174.0570  137.7360 O   0  0  0  0  0  0  0  0  0  0  0  0
  185.6640  174.7110  136.2340 N   0  0  0  0  0  0  0  0  0  0  0  0
  186.8890  176.6080  135.6910 C   0  0  1  0  0  0  0  0  0  0  0  0
  186.7140  174.3590  135.3000 C   0  0  2  0  0  3  0  0  0  0  0  0
  186.3630  177.4180  134.6760 O   0  0  0  0  0  1  0  0  0  0  0  0
  187.5570  173.2100  135.8600 C   0  0  2  0  0  3  0  0  0  0  0  0
  188.2600  173.6400  136.9880 O   0  0  0  0  0  1  0  0  0  0  0  0
  188.5100  172.6530  134.7940 C   0  0  2  0  0  3  0  0  0  0  0  0
  190.1170  170.5980  134.6010 C   0  0  0  0  0  1  0  0  0  0  0  0
  187.9530  170.4740  135.5020 O   0  0  0  0  0  0  0  0  0  0  0  0
  188.8030  171.1900  134.9940 C   0  0  0  0  0  0  0  0  0  0  0  0
  189.7930  173.4880  134.6340 C   0  0  0  0  0  2  0  0  0  0  0  0
  190.6280  173.5730  135.9010 C   0  0  0  0  0  1  0  0  0  0  0  0
  187.8950  177.4050  136.5130 C   0  0  0  0  0  2  0  0  0  0  0  0
  187.0550  178.5210  137.7520 P   0  0  0  0  0  2  0  0  0  0  0  0
  188.4580  178.4410  138.9700 C   0  0  0  0  0  2  0  0  0  0  0  0
  189.0610  177.1820  138.9200 O   0  0  0  0  0  0  0  0  0  0  0  0
  190.3960  177.4140  139.2450 C   0  0  2  0  0  3  0  0  0  0  0  0
  192.6270  176.9140  138.5940 O   0  0  0  0  0  1  0  0  0  0  0  0
  191.2940  176.7580  138.2150 C   0  0  0  0  0  2  0  0  0  0  0  0
  190.6890  176.8480  140.6200 C   0  0  0  0  0  2  0  0  0  0  0  0
  189.5530  176.9710  141.4250 O   0  0  0  0  0  0  0  0  0  0  0  0
  191.4120  175.9300  143.2640 O   0  0  0  0  0  0  0  0  0  0  0  0
  190.1050  176.9890  143.0330 P   0  0  1  0  0  0  0  0  0  0  0  0
  190.5530  178.3950  143.3690 O   0  0  0  0  0  1  0  0  0  0  0  0
  188.7320  176.5400  144.1410 C   0  0  0  0  0  2  0  0  0  0  0  0
  189.0560  176.9080  145.5840 C   0  0  1  0  0  3  0  0  0  0  0  0
  190.8660  176.6800  147.1550 O   0  0  0  0  0  1  0  0  0  0  0  0
  190.5610  176.9610  145.8200 C   0  0  0  0  0  2  0  0  0  0  0  0
  188.4050  178.2370  145.9400 C   0  0  0  0  0  2  0  0  0  0  0  0
  187.2570  178.0110  146.8620 C   0  0  0  0  0  0  0  0  0  0  0  0
  187.4600  178.0120  148.1090 O   0  0  0  0  0  0  0  0  0  0  0  0
  185.9860  177.7670  146.3420 O   0  0  0  0  0  0  0  0  0  0  0  0
  184.0960  179.0260  145.9520 O   0  0  0  0  0  1  0  0  0  0  0  0
  184.8230  178.3360  146.9250 C   0  0  0  0  0  2  0  0  0  0  0  0
  184.2890  172.6010  135.8760 C   0  0  0  0  0  2  0  0  0  0  0  0
  182.1790  171.5330  135.0780 C   0  0  0  0  0  1  0  0  0  0  0  0
  182.9800  172.8260  135.1330 C   0  0  0  0  0  2  0  0  0  0  0  0
  184.4500  176.8220  136.6510 C   0  0  2  0  0  3  0  0  0  0  0  0
  183.7220  176.6010  137.8550 O   0  0  0  0  0  0  0  0  0  0  0  0
  183.4820  178.8440  138.3350 O   0  0  0  0  0  0  0  0  0  0  0  0
  183.3380  177.6430  138.6990 C   0  0  0  0  0  0  0  0  0  0  0  0
  182.8090  177.3350  139.9510 O   0  0  0  0  0  0  0  0  0  0  0  0
  182.2040  178.3170  140.7760 C   0  0  0  0  0  2  0  0  0  0  0  0
  180.7560  177.9460  141.0450 C   0  0  0  0  0  2  0  0  0  0  0  0
  179.9640  177.8610  139.7470 C   0  0  0  0  0  2  0  0  0  0  0  0
  179.4010  176.0570  140.8930 C   0  0  0  0  0  1  0  0  0  0  0  0
  179.3840  176.5980  139.6060 O   0  0  0  0  0  0  0  0  0  0  0  0
  183.6120  176.5670  135.3970 C   0  0  0  0  0  2  0  0  0  0  0  0
  182.6540  177.6410  135.1800 N   0  0  0  0  0  2  0  0  0  0  0  0
  181.2430  177.4120  135.1340 C   0  0  0  0  0  0  0  0  0  0  0  0
  180.7700  176.2640  135.3590 O   0  0  0  0  0  0  0  0  0  0  0  0
  180.3180  178.5330  134.8190 C   0  0  0  0  0  2  0  0  0  0  0  0
  179.1920  178.5710  135.8240 C   0  0  0  0  0  1  0  0  0  0  0  0
  1 42  1  6  0  0  0
  2  7  1  0  0  0  0
  2  6  1  0  0  0  0
  3  4  2  0  0  0  0
  5  1  1  0  0  0  0
  5  3  1  0  0  0  0
  6  8  1  6  0  0  0
  6 17  1  0  0  0  0
  6  1  1  0  0  0  0
  7  9  1  1  0  0  0
  7  5  1  0  0  0  0
  9 10  1  1  0  0  0
 11 15  1  1  0  0  0
 11 14  1  0  0  0  0
 11  9  1  0  0  0  0
 12 14  1  0  0  0  0
 14 13  2  0  0  0  0
 15 16  1  0  0  0  0
 17 18  1  0  0  0  0
 18 19  1  0  0  0  0
 20 19  1  0  0  0  0
 20 21  1  0  0  0  0
 21 23  1  6  0  0  0
 21 24  1  0  0  0  0
 23 22  1  0  0  0  0
 24 25  1  0  0  0  0
 25 27  1  0  0  0  0
 27 26  2  1  0  0  0
 27 28  1  0  0  0  0
 27 29  1  0  0  0  0
 30 29  1  6  0  0  0
 30 32  1  0  0  0  0
 30 33  1  0  0  0  0
 32 31  1  0  0  0  0
 33 34  1  0  0  0  0
 34 35  2  0  0  0  0
 36 34  1  0  0  0  0
 36 38  1  0  0  0  0
 37 38  1  0  0  0  0
 39  3  1  0  0  0  0
 40 41  1  0  0  0  0
 41 39  1  0  0  0  0
 42 52  1  6  0  0  0
 42 43  1  0  0  0  0
 43 45  1  0  0  0  0
 44 45  2  0  0  0  0
 45 46  1  0  0  0  0
 46 47  1  0  0  0  0
 47 48  1  0  0  0  0
 49 48  1  0  0  0  0
 51 49  1  0  0  0  0
 51 50  1  0  0  0  0
 53 52  1  0  0  0  0
 54 53  1  0  0  0  0
 54 55  2  0  0  0  0
 56 54  1  0  0  0  0
 56 57  1  0  0  0  0
M  END
>  <MODEL>
6

>  <REMARK>
 VINA RESULT:      -4.1      2.837      5.562
  Name = 
  33 active torsions:
  status: ('A' for Active; 'I' for Inactive)
    1  A    between atoms: C_2  and  C_19
    2  A    between atoms: C_2  and  C_38
    3  A    between atoms: C_2  and  O_44
    4  A    between atoms: C_4  and  C_14
    5  A    between atoms: C_5  and  O_10
    6  A    between atoms: C_5  and  C_26
    7  A    between atoms: C_6  and  P_8
    8  A    between atoms: C_6  and  C_27
    9  A    between atoms: P_8  and  O_13
   10  A    between atoms: C_9  and  C_31
   11  A    between atoms: O_10  and  C_17
   12  A    between atoms: O_13  and  C_19
   13  A    between atoms: C_14  and  C_35
   14  A    between atoms: C_14  and  O_36
   15  A    between atoms: O_16  and  C_28
   16  A    between atoms: O_16  and  C_30
   17  A    between atoms: C_17  and  O_36
   18  A    between atoms: C_18  and  C_23
   19  A    between atoms: C_20  and  C_56
   20  A    between atoms: C_23  and  C_43
   21  A    between atoms: C_23  and  C_46
   22  A    between atoms: C_26  and  C_39
   23  A    between atoms: C_27  and  C_42
   24  A    between atoms: C_27  and  C_50
   25  A    between atoms: N_29  and  C_35
   26  A    between atoms: C_30  and  C_42
   27  A    between atoms: C_37  and  C_54
   28  A    between atoms: C_39  and  O_45
   29  A    between atoms: C_40  and  O_44
   30  A    between atoms: C_40  and  P_49
   31  A    between atoms: C_41  and  C_46
   32  A    between atoms: P_49  and  C_54
   33  A    between atoms: C_51  and  C_56
                            x       y       z     vdW  Elec       q    Type
                         _______ _______ _______ _____ _____    ______ ____

>  <TORSDO>
F 33

$$$$
=
 OpenBabel11042412443D

 57 57  0  0  1  0  0  0  0  0999 V2000
  190.7430  176.3090  137.0370 C   0  0  1  0  0  3  0  0  0  0  0  0
  188.5050  175.7080  137.6150 O   0  0  0  0  0  0  0  0  0  0  0  0
  191.3190  174.1830  135.7440 C   0  0  0  0  0  0  0  0  0  0  0  0
  192.3280  174.6860  135.1780 O   0  0  0  0  0  0  0  0  0  0  0  0
  190.4260  175.0130  136.5070 N   0  0  0  0  0  0  0  0  0  0  0  0
  189.5430  176.6150  137.9390 C   0  0  1  0  0  0  0  0  0  0  0  0
  189.0670  174.6540  136.8570 C   0  0  2  0  0  3  0  0  0  0  0  0
  189.8510  176.4700  139.2980 O   0  0  0  0  0  1  0  0  0  0  0  0
  188.2380  174.4230  135.5910 C   0  0  2  0  0  3  0  0  0  0  0  0
  187.6720  175.6280  135.1660 O   0  0  0  0  0  1  0  0  0  0  0  0
  187.1590  173.3570  135.8230 C   0  0  2  0  0  3  0  0  0  0  0  0
  185.1470  175.0280  135.8280 C   0  0  0  0  0  1  0  0  0  0  0  0
  185.5370  173.4610  137.5320 O   0  0  0  0  0  0  0  0  0  0  0  0
  185.9220  173.9230  136.4690 C   0  0  0  0  0  0  0  0  0  0  0  0
  187.6870  172.1140  136.5630 C   0  0  0  0  0  2  0  0  0  0  0  0
  187.9230  170.9190  135.6560 C   0  0  0  0  0  1  0  0  0  0  0  0
  189.0890  178.0440  137.6660 C   0  0  0  0  0  2  0  0  0  0  0  0
  187.4610  178.0970  136.7540 P   0  0  0  0  0  2  0  0  0  0  0  0
  186.4410  178.1030  138.3080 C   0  0  0  0  0  2  0  0  0  0  0  0
  185.1140  178.4190  138.0060 O   0  0  0  0  0  0  0  0  0  0  0  0
  184.4390  178.3180  139.2210 C   0  0  2  0  0  3  0  0  0  0  0  0
  183.5910  180.4970  138.7960 O   0  0  0  0  0  1  0  0  0  0  0  0
  183.2180  179.2170  139.2030 C   0  0  0  0  0  2  0  0  0  0  0  0
  185.3640  178.7270  140.3500 C   0  0  0  0  0  2  0  0  0  0  0  0
  184.7130  179.6500  141.1740 O   0  0  0  0  0  0  0  0  0  0  0  0
  182.9280  178.5210  143.0340 O   0  0  0  0  0  1  0  0  0  0  0  0
  184.5470  178.9020  142.6920 P   0  0  1  0  0  0  0  0  0  0  0  0
  185.3560  177.6240  142.6870 O   0  0  0  0  0  0  0  0  0  0  0  0
  185.2160  180.0050  143.9770 C   0  0  0  0  0  2  0  0  0  0  0  0
  185.5440  179.2250  145.2440 C   0  0  1  0  0  3  0  0  0  0  0  0
  184.2370  178.5030  147.1320 O   0  0  0  0  0  1  0  0  0  0  0  0
  184.3380  178.4360  145.7400 C   0  0  0  0  0  2  0  0  0  0  0  0
  186.7290  178.3030  144.9950 C   0  0  0  0  0  2  0  0  0  0  0  0
  187.1320  177.6370  146.2650 C   0  0  0  0  0  0  0  0  0  0  0  0
  187.0170  176.3830  146.3650 O   0  0  0  0  0  0  0  0  0  0  0  0
  187.5960  178.4030  147.3350 O   0  0  0  0  0  0  0  0  0  0  0  0
  189.5280  178.3210  148.5880 O   0  0  0  0  0  1  0  0  0  0  0  0
  188.2370  177.8060  148.4530 C   0  0  0  0  0  2  0  0  0  0  0  0
  191.0860  172.7100  135.6530 C   0  0  0  0  0  2  0  0  0  0  0  0
  193.3060  171.6960  136.1720 C   0  0  0  0  0  1  0  0  0  0  0  0
  192.3110  172.0240  135.0680 C   0  0  0  0  0  2  0  0  0  0  0  0
  192.1460  176.3470  137.6760 C   0  0  2  0  0  3  0  0  0  0  0  0
  192.2990  177.4270  138.5920 O   0  0  0  0  0  0  0  0  0  0  0  0
  193.9740  176.6110  139.9530 O   0  0  0  0  0  0  0  0  0  0  0  0
  192.9010  177.2690  139.8400 C   0  0  0  0  0  0  0  0  0  0  0  0
  192.2920  177.8370  140.9580 O   0  0  0  0  0  0  0  0  0  0  0  0
  191.9770  177.0760  142.1130 C   0  0  0  0  0  2  0  0  0  0  0  0
  190.8110  177.7130  142.8490 C   0  0  0  0  0  2  0  0  0  0  0  0
  189.8010  176.6610  143.2860 C   0  0  0  0  0  2  0  0  0  0  0  0
  190.5190  177.2130  145.3020 C   0  0  0  0  0  1  0  0  0  0  0  0
  190.1630  176.1140  144.5200 O   0  0  0  0  0  0  0  0  0  0  0  0
  193.2760  176.2800  136.6470 C   0  0  0  0  0  2  0  0  0  0  0  0
  194.3320  175.3800  137.0860 N   0  0  0  0  0  2  0  0  0  0  0  0
  195.6340  175.3800  136.4950 C   0  0  0  0  0  0  0  0  0  0  0  0
  195.9390  176.2260  135.6100 O   0  0  0  0  0  0  0  0  0  0  0  0
  196.6460  174.3770  136.9230 C   0  0  0  0  0  2  0  0  0  0  0  0
  196.7100  173.2480  135.9230 C   0  0  0  0  0  1  0  0  0  0  0  0
  1 42  1  1  0  0  0
  1  6  1  0  0  0  0
  2  6  1  0  0  0  0
  3  5  1  0  0  0  0
  4  3  2  0  0  0  0
  5  7  1  0  0  0  0
  5  1  1  0  0  0  0
  6  8  1  1  0  0  0
  7  9  1  6  0  0  0
  7  2  1  0  0  0  0
  9 10  1  1  0  0  0
  9 11  1  0  0  0  0
 11 14  1  0  0  0  0
 11 15  1  1  0  0  0
 12 14  1  0  0  0  0
 14 13  2  0  0  0  0
 16 15  1  0  0  0  0
 17  6  1  0  0  0  0
 18 17  1  0  0  0  0
 18 19  1  0  0  0  0
 20 19  1  0  0  0  0
 20 21  1  0  0  0  0
 21 23  1  6  0  0  0
 21 24  1  0  0  0  0
 22 23  1  0  0  0  0
 24 25  1  0  0  0  0
 25 27  1  0  0  0  0
 27 28  2  6  0  0  0
 27 26  1  0  0  0  0
 27 29  1  0  0  0  0
 30 29  1  6  0  0  0
 30 32  1  0  0  0  0
 32 31  1  0  0  0  0
 33 30  1  0  0  0  0
 33 34  1  0  0  0  0
 34 35  2  0  0  0  0
 34 36  1  0  0  0  0
 36 38  1  0  0  0  0
 38 37  1  0  0  0  0
 39  3  1  0  0  0  0
 41 39  1  0  0  0  0
 41 40  1  0  0  0  0
 42 52  1  6  0  0  0
 42 43  1  0  0  0  0
 43 45  1  0  0  0  0
 45 44  2  0  0  0  0
 45 46  1  0  0  0  0
 46 47  1  0  0  0  0
 47 48  1  0  0  0  0
 48 49  1  0  0  0  0
 49 51  1  0  0  0  0
 51 50  1  0  0  0  0
 52 53  1  0  0  0  0
 54 56  1  0  0  0  0
 54 53  1  0  0  0  0
 55 54  2  0  0  0  0
 57 56  1  0  0  0  0
M  END
>  <MODEL>
7

>  <REMARK>
 VINA RESULT:      -4.0      3.571      9.313
  Name = 
  33 active torsions:
  status: ('A' for Active; 'I' for Inactive)
    1  A    between atoms: C_2  and  C_19
    2  A    between atoms: C_2  and  C_38
    3  A    between atoms: C_2  and  O_44
    4  A    between atoms: C_4  and  C_14
    5  A    between atoms: C_5  and  O_10
    6  A    between atoms: C_5  and  C_26
    7  A    between atoms: C_6  and  P_8
    8  A    between atoms: C_6  and  C_27
    9  A    between atoms: P_8  and  O_13
   10  A    between atoms: C_9  and  C_31
   11  A    between atoms: O_10  and  C_17
   12  A    between atoms: O_13  and  C_19
   13  A    between atoms: C_14  and  C_35
   14  A    between atoms: C_14  and  O_36
   15  A    between atoms: O_16  and  C_28
   16  A    between atoms: O_16  and  C_30
   17  A    between atoms: C_17  and  O_36
   18  A    between atoms: C_18  and  C_23
   19  A    between atoms: C_20  and  C_56
   20  A    between atoms: C_23  and  C_43
   21  A    between atoms: C_23  and  C_46
   22  A    between atoms: C_26  and  C_39
   23  A    between atoms: C_27  and  C_42
   24  A    between atoms: C_27  and  C_50
   25  A    between atoms: N_29  and  C_35
   26  A    between atoms: C_30  and  C_42
   27  A    between atoms: C_37  and  C_54
   28  A    between atoms: C_39  and  O_45
   29  A    between atoms: C_40  and  O_44
   30  A    between atoms: C_40  and  P_49
   31  A    between atoms: C_41  and  C_46
   32  A    between atoms: P_49  and  C_54
   33  A    between atoms: C_51  and  C_56
                            x       y       z     vdW  Elec       q    Type
                         _______ _______ _______ _____ _____    ______ ____

>  <TORSDO>
F 33

$$$$
=
 OpenBabel11042412443D

 57 57  0  0  1  0  0  0  0  0999 V2000
  186.2030  177.8500  142.3690 C   0  0  1  0  0  3  0  0  0  0  0  0
  185.9380  178.9730  144.4590 O   0  0  0  0  0  0  0  0  0  0  0  0
  188.6790  177.2770  142.6270 C   0  0  0  0  0  0  0  0  0  0  0  0
  188.6730  176.4090  141.7120 O   0  0  0  0  0  0  0  0  0  0  0  0
  187.4450  177.8540  143.0880 N   0  0  0  0  0  0  0  0  0  0  0  0
  185.3200  178.7870  143.1990 C   0  0  1  0  0  0  0  0  0  0  0  0
  187.2780  178.5340  144.3570 C   0  0  2  0  0  3  0  0  0  0  0  0
  185.1600  180.0390  142.5930 O   0  0  0  0  0  1  0  0  0  0  0  0
  187.6050  177.5840  145.5130 C   0  0  2  0  0  3  0  0  0  0  0  0
  186.4230  177.1390  146.1120 O   0  0  0  0  0  1  0  0  0  0  0  0
  188.5250  178.2580  146.5390 C   0  0  2  0  0  3  0  0  0  0  0  0
  190.4090  177.5180  148.1960 C   0  0  0  0  0  1  0  0  0  0  0  0
  190.1520  176.6250  146.0400 O   0  0  0  0  0  0  0  0  0  0  0  0
  189.7290  177.4170  146.8700 C   0  0  0  0  0  0  0  0  0  0  0  0
  187.7800  178.7310  147.8010 C   0  0  0  0  0  2  0  0  0  0  0  0
  187.9250  177.7900  148.9840 C   0  0  0  0  0  1  0  0  0  0  0  0
  183.9580  178.1270  143.3800 C   0  0  0  0  0  2  0  0  0  0  0  0
  182.7070  179.3000  144.1190 P   0  0  0  0  0  2  0  0  0  0  0  0
  181.7790  179.5210  142.5230 C   0  0  0  0  0  2  0  0  0  0  0  0
  180.4620  179.9080  142.7880 O   0  0  0  0  0  0  0  0  0  0  0  0
  179.8480  179.9550  141.5370 C   0  0  2  0  0  3  0  0  0  0  0  0
  179.2190  177.8170  142.3620 O   0  0  0  0  0  1  0  0  0  0  0  0
  178.9350  178.7550  141.3720 C   0  0  0  0  0  2  0  0  0  0  0  0
  180.9060  179.9520  140.4530 C   0  0  0  0  0  2  0  0  0  0  0  0
  180.3170  180.2790  139.2280 O   0  0  0  0  0  0  0  0  0  0  0  0
  181.7160  182.5580  138.3510 O   0  0  0  0  0  0  0  0  0  0  0  0
  181.5670  180.8710  138.2380 P   0  0  1  0  0  0  0  0  0  0  0  0
  182.8680  180.2380  138.6830 O   0  0  0  0  0  1  0  0  0  0  0  0
  181.2460  180.3830  136.5140 C   0  0  0  0  0  2  0  0  0  0  0  0
  180.3320  179.1650  136.4560 C   0  0  1  0  0  3  0  0  0  0  0  0
  178.9310  180.8310  135.4290 O   0  0  0  0  0  1  0  0  0  0  0  0
  179.0610  179.4610  135.6690 C   0  0  0  0  0  2  0  0  0  0  0  0
  181.0780  177.9830  135.8540 C   0  0  0  0  0  2  0  0  0  0  0  0
  180.4870  176.7050  136.3410 C   0  0  0  0  0  0  0  0  0  0  0  0
  180.4650  176.4720  137.5820 O   0  0  0  0  0  0  0  0  0  0  0  0
  180.0010  175.7710  135.4260 O   0  0  0  0  0  0  0  0  0  0  0  0
  179.3550  173.5680  135.6200 O   0  0  0  0  0  1  0  0  0  0  0  0
  178.9350  174.8930  135.7570 C   0  0  0  0  0  2  0  0  0  0  0  0
  189.9830  177.7340  143.1950 C   0  0  0  0  0  2  0  0  0  0  0  0
  191.8730  177.1750  141.6640 C   0  0  0  0  0  1  0  0  0  0  0  0
  191.0730  176.7210  142.8780 C   0  0  0  0  0  2  0  0  0  0  0  0
  186.3970  178.1860  140.8760 C   0  0  2  0  0  3  0  0  0  0  0  0
  187.5090  179.0470  140.6500 O   0  0  0  0  0  0  0  0  0  0  0  0
  189.6450  179.2020  139.7920 O   0  0  0  0  0  0  0  0  0  0  0  0
  188.4540  178.8020  139.6540 C   0  0  0  0  0  0  0  0  0  0  0  0
  188.0580  178.1220  138.5040 O   0  0  0  0  0  0  0  0  0  0  0  0
  188.9780  177.7650  137.4850 C   0  0  0  0  0  2  0  0  0  0  0  0
  189.2500  176.2710  137.5330 C   0  0  0  0  0  2  0  0  0  0  0  0
  190.7160  175.9920  137.8360 C   0  0  0  0  0  2  0  0  0  0  0  0
  192.7240  175.4650  137.0760 C   0  0  0  0  0  1  0  0  0  0  0  0
  191.4240  175.7510  136.6550 O   0  0  0  0  0  0  0  0  0  0  0  0
  185.1170  178.6850  140.2020 C   0  0  0  0  0  2  0  0  0  0  0  0
  184.9750  178.1240  138.8670 N   0  0  0  0  0  2  0  0  0  0  0  0
  184.0160  177.1080  138.5610 C   0  0  0  0  0  0  0  0  0  0  0  0
  183.1980  176.7110  139.4350 O   0  0  0  0  0  0  0  0  0  0  0  0
  183.9770  176.5080  137.2000 C   0  0  0  0  0  2  0  0  0  0  0  0
  184.9380  175.3470  137.1190 C   0  0  0  0  0  1  0  0  0  0  0  0
  1 42  1  6  0  0  0
  1  5  1  0  0  0  0
  1  6  1  0  0  0  0
  3  5  1  0  0  0  0
  3 39  1  0  0  0  0
  4  3  2  0  0  0  0
  5  7  1  0  0  0  0
  6  8  1  6  0  0  0
  6 17  1  0  0  0  0
  6  2  1  0  0  0  0
  7  2  1  0  0  0  0
  7  9  1  1  0  0  0
  9 10  1  1  0  0  0
  9 11  1  0  0  0  0
 11 14  1  0  0  0  0
 11 15  1  1  0  0  0
 13 14  2  0  0  0  0
 14 12  1  0  0  0  0
 15 16  1  0  0  0  0
 17 18  1  0  0  0  0
 19 20  1  0  0  0  0
 19 18  1  0  0  0  0
 21 24  1  6  0  0  0
 21 20  1  0  0  0  0
 23 21  1  0  0  0  0
 23 22  1  0  0  0  0
 25 24  1  0  0  0  0
 27 26  2  1  0  0  0
 27 28  1  0  0  0  0
 27 25  1  0  0  0  0
 29 27  1  0  0  0  0
 30 32  1  6  0  0  0
 30 29  1  0  0  0  0
 31 32  1  0  0  0  0
 33 34  1  0  0  0  0
 33 30  1  0  0  0  0
 34 35  2  0  0  0  0
 36 38  1  0  0  0  0
 36 34  1  0  0  0  0
 37 38  1  0  0  0  0
 40 41  1  0  0  0  0
 41 39  1  0  0  0  0
 42 52  1  1  0  0  0
 43 42  1  0  0  0  0
 45 44  2  0  0  0  0
 45 43  1  0  0  0  0
 46 45  1  0  0  0  0
 47 48  1  0  0  0  0
 47 46  1  0  0  0  0
 48 49  1  0  0  0  0
 51 50  1  0  0  0  0
 51 49  1  0  0  0  0
 53 52  1  0  0  0  0
 54 53  1  0  0  0  0
 54 55  2  0  0  0  0
 56 54  1  0  0  0  0
 57 56  1  0  0  0  0
M  END
>  <MODEL>
8

>  <REMARK>
 VINA RESULT:      -3.5      2.531     10.224
  Name = 
  33 active torsions:
  status: ('A' for Active; 'I' for Inactive)
    1  A    between atoms: C_2  and  C_19
    2  A    between atoms: C_2  and  C_38
    3  A    between atoms: C_2  and  O_44
    4  A    between atoms: C_4  and  C_14
    5  A    between atoms: C_5  and  O_10
    6  A    between atoms: C_5  and  C_26
    7  A    between atoms: C_6  and  P_8
    8  A    between atoms: C_6  and  C_27
    9  A    between atoms: P_8  and  O_13
   10  A    between atoms: C_9  and  C_31
   11  A    between atoms: O_10  and  C_17
   12  A    between atoms: O_13  and  C_19
   13  A    between atoms: C_14  and  C_35
   14  A    between atoms: C_14  and  O_36
   15  A    between atoms: O_16  and  C_28
   16  A    between atoms: O_16  and  C_30
   17  A    between atoms: C_17  and  O_36
   18  A    between atoms: C_18  and  C_23
   19  A    between atoms: C_20  and  C_56
   20  A    between atoms: C_23  and  C_43
   21  A    between atoms: C_23  and  C_46
   22  A    between atoms: C_26  and  C_39
   23  A    between atoms: C_27  and  C_42
   24  A    between atoms: C_27  and  C_50
   25  A    between atoms: N_29  and  C_35
   26  A    between atoms: C_30  and  C_42
   27  A    between atoms: C_37  and  C_54
   28  A    between atoms: C_39  and  O_45
   29  A    between atoms: C_40  and  O_44
   30  A    between atoms: C_40  and  P_49
   31  A    between atoms: C_41  and  C_46
   32  A    between atoms: P_49  and  C_54
   33  A    between atoms: C_51  and  C_56
                            x       y       z     vdW  Elec       q    Type
                         _______ _______ _______ _____ _____    ______ ____

>  <TORSDO>
F 33

$$$$
=
 OpenBabel11042412443D

 57 57  0  0  1  0  0  0  0  0999 V2000
  186.4200  176.3270  136.7860 C   0  0  1  0  0  3  0  0  0  0  0  0
  188.1650  176.0390  135.1810 O   0  0  0  0  0  0  0  0  0  0  0  0
  185.3520  174.0230  136.5110 C   0  0  0  0  0  0  0  0  0  0  0  0
  184.6990  174.0910  137.5880 O   0  0  0  0  0  0  0  0  0  0  0  0
  186.3390  175.0210  136.1960 N   0  0  0  0  0  0  0  0  0  0  0  0
  187.4790  177.0270  135.9280 C   0  0  1  0  0  0  0  0  0  0  0  0
  187.4010  174.8500  135.2250 C   0  0  2  0  0  3  0  0  0  0  0  0
  186.9150  177.9470  135.0350 O   0  0  0  0  0  1  0  0  0  0  0  0
  188.2950  173.6710  135.6220 C   0  0  2  0  0  3  0  0  0  0  0  0
  188.4200  173.6150  137.0130 O   0  0  0  0  0  1  0  0  0  0  0  0
  189.6690  173.7680  134.9470 C   0  0  2  0  0  3  0  0  0  0  0  0
  189.8540  171.1620  134.8210 C   0  0  0  0  0  1  0  0  0  0  0  0
  191.6440  172.5640  135.4050 O   0  0  0  0  0  0  0  0  0  0  0  0
  190.4670  172.4990  135.0840 C   0  0  0  0  0  0  0  0  0  0  0  0
  190.4690  175.0110  135.3790 C   0  0  0  0  0  2  0  0  0  0  0  0
  191.9140  174.9990  134.9110 C   0  0  0  0  0  1  0  0  0  0  0  0
  188.4520  177.7450  136.8570 C   0  0  0  0  0  2  0  0  0  0  0  0
  187.5700  178.6080  138.2580 P   0  0  0  0  0  2  0  0  0  0  0  0
  188.9190  178.2670  139.4900 C   0  0  0  0  0  2  0  0  0  0  0  0
  189.7630  177.2630  139.0070 O   0  0  0  0  0  0  0  0  0  0  0  0
  190.9140  177.3600  139.7860 C   0  0  2  0  0  3  0  0  0  0  0  0
  193.2750  177.2930  139.5180 O   0  0  0  0  0  1  0  0  0  0  0  0
  192.0850  176.7400  139.0480 C   0  0  0  0  0  2  0  0  0  0  0  0
  190.6970  176.6440  141.1030 C   0  0  0  0  0  2  0  0  0  0  0  0
  189.3320  176.6290  141.4050 O   0  0  0  0  0  0  0  0  0  0  0  0
  190.1970  175.5690  143.8650 O   0  0  0  0  0  1  0  0  0  0  0  0
  189.2150  176.7240  143.0990 P   0  0  1  0  0  0  0  0  0  0  0  0
  189.6600  178.1040  143.5330 O   0  0  0  0  0  0  0  0  0  0  0  0
  187.4780  176.4950  143.5920 C   0  0  0  0  0  2  0  0  0  0  0  0
  186.8770  177.8050  144.0860 C   0  0  1  0  0  3  0  0  0  0  0  0
  184.7700  178.8770  143.6300 O   0  0  0  0  0  1  0  0  0  0  0  0
  185.9550  178.4240  143.0420 C   0  0  0  0  0  2  0  0  0  0  0  0
  186.1340  177.5750  145.3950 C   0  0  0  0  0  2  0  0  0  0  0  0
  186.8190  178.2960  146.5040 C   0  0  0  0  0  0  0  0  0  0  0  0
  186.1610  179.1200  147.2000 O   0  0  0  0  0  0  0  0  0  0  0  0
  188.1770  178.0830  146.7370 O   0  0  0  0  0  0  0  0  0  0  0  0
  189.0330  177.6800  148.8390 O   0  0  0  0  0  1  0  0  0  0  0  0
  188.6280  177.0850  147.6420 C   0  0  0  0  0  2  0  0  0  0  0  0
  185.0560  172.9240  135.5430 C   0  0  0  0  0  2  0  0  0  0  0  0
  185.1820  170.4590  135.1790 C   0  0  0  0  0  1  0  0  0  0  0  0
  185.2510  171.5730  136.2140 C   0  0  0  0  0  2  0  0  0  0  0  0
  185.0360  176.9980  136.9010 C   0  0  2  0  0  3  0  0  0  0  0  0
  184.4720  176.8650  138.2030 O   0  0  0  0  0  0  0  0  0  0  0  0
  183.9970  177.8520  140.2330 O   0  0  0  0  0  0  0  0  0  0  0  0
  184.1170  177.9670  138.9800 C   0  0  0  0  0  0  0  0  0  0  0  0
  183.8870  179.1890  138.3500 O   0  0  0  0  0  0  0  0  0  0  0  0
  183.8780  180.4150  139.0630 C   0  0  0  0  0  2  0  0  0  0  0  0
  182.5400  181.1100  138.8790 C   0  0  0  0  0  2  0  0  0  0  0  0
  181.5090  180.1610  138.2840 C   0  0  0  0  0  2  0  0  0  0  0  0
  179.7390  178.8800  138.6210 C   0  0  0  0  0  1  0  0  0  0  0  0
  180.4870  179.9050  139.2020 O   0  0  0  0  0  0  0  0  0  0  0  0
  184.0710  176.5770  135.7920 C   0  0  0  0  0  2  0  0  0  0  0  0
  182.7890  177.2540  135.9270 N   0  0  0  0  0  2  0  0  0  0  0  0
  181.5760  176.7090  135.4020 C   0  0  0  0  0  0  0  0  0  0  0  0
  181.5630  175.5690  134.8630 O   0  0  0  0  0  0  0  0  0  0  0  0
  180.3110  177.4880  135.4920 C   0  0  0  0  0  2  0  0  0  0  0  0
  180.5980  178.9600  135.3200 C   0  0  0  0  0  1  0  0  0  0  0  0
  1 42  1  6  0  0  0
  2  7  1  0  0  0  0
  2  6  1  0  0  0  0
  3  4  2  0  0  0  0
  5  3  1  0  0  0  0
  5  1  1  0  0  0  0
  6  8  1  6  0  0  0
  6  1  1  0  0  0  0
  6 17  1  0  0  0  0
  7  9  1  1  0  0  0
  7  5  1  0  0  0  0
  9 10  1  1  0  0  0
 11 14  1  0  0  0  0
 11 15  1  1  0  0  0
 11  9  1  0  0  0  0
 12 14  1  0  0  0  0
 14 13  2  0  0  0  0
 16 15  1  0  0  0  0
 17 18  1  0  0  0  0
 18 19  1  0  0  0  0
 20 19  1  0  0  0  0
 20 21  1  0  0  0  0
 21 23  1  6  0  0  0
 21 24  1  0  0  0  0
 23 22  1  0  0  0  0
 24 25  1  0  0  0  0
 25 27  1  0  0  0  0
 27 28  2  1  0  0  0
 27 29  1  0  0  0  0
 27 26  1  0  0  0  0
 29 30  1  0  0  0  0
 30 32  1  6  0  0  0
 30 33  1  0  0  0  0
 32 31  1  0  0  0  0
 33 34  1  0  0  0  0
 34 36  1  0  0  0  0
 34 35  2  0  0  0  0
 36 38  1  0  0  0  0
 38 37  1  0  0  0  0
 39 41  1  0  0  0  0
 39  3  1  0  0  0  0
 40 41  1  0  0  0  0
 42 52  1  6  0  0  0
 42 43  1  0  0  0  0
 43 45  1  0  0  0  0
 45 44  2  0  0  0  0
 46 45  1  0  0  0  0
 46 47  1  0  0  0  0
 48 47  1  0  0  0  0
 49 48  1  0  0  0  0
 49 51  1  0  0  0  0
 50 51  1  0  0  0  0
 52 53  1  0  0  0  0
 54 56  1  0  0  0  0
 54 53  1  0  0  0  0
 55 54  2  0  0  0  0
 57 56  1  0  0  0  0
M  END
>  <MODEL>
9

>  <REMARK>
 VINA RESULT:      -3.4      2.558      5.459
  Name = 
  33 active torsions:
  status: ('A' for Active; 'I' for Inactive)
    1  A    between atoms: C_2  and  C_19
    2  A    between atoms: C_2  and  C_38
    3  A    between atoms: C_2  and  O_44
    4  A    between atoms: C_4  and  C_14
    5  A    between atoms: C_5  and  O_10
    6  A    between atoms: C_5  and  C_26
    7  A    between atoms: C_6  and  P_8
    8  A    between atoms: C_6  and  C_27
    9  A    between atoms: P_8  and  O_13
   10  A    between atoms: C_9  and  C_31
   11  A    between atoms: O_10  and  C_17
   12  A    between atoms: O_13  and  C_19
   13  A    between atoms: C_14  and  C_35
   14  A    between atoms: C_14  and  O_36
   15  A    between atoms: O_16  and  C_28
   16  A    between atoms: O_16  and  C_30
   17  A    between atoms: C_17  and  O_36
   18  A    between atoms: C_18  and  C_23
   19  A    between atoms: C_20  and  C_56
   20  A    between atoms: C_23  and  C_43
   21  A    between atoms: C_23  and  C_46
   22  A    between atoms: C_26  and  C_39
   23  A    between atoms: C_27  and  C_42
   24  A    between atoms: C_27  and  C_50
   25  A    between atoms: N_29  and  C_35
   26  A    between atoms: C_30  and  C_42
   27  A    between atoms: C_37  and  C_54
   28  A    between atoms: C_39  and  O_45
   29  A    between atoms: C_40  and  O_44
   30  A    between atoms: C_40  and  P_49
   31  A    between atoms: C_41  and  C_46
   32  A    between atoms: P_49  and  C_54
   33  A    between atoms: C_51  and  C_56
                            x       y       z     vdW  Elec       q    Type
                         _______ _______ _______ _____ _____    ______ ____

>  <TORSDO>
F 33

$$$$
