=
 OpenBabel11032421153D

 50 54  0  0  1  0  0  0  0  0999 V2000
  186.5300  178.3500  143.5650 C   0  0  0  0  0  2  0  0  0  0  0  0
  184.5340  178.9170  145.0520 C   0  0  0  0  0  3  0  0  0  0  0  0
  181.2720  179.0260  143.5180 N   0  0  0  0  0  2  0  0  0  0  0  0
  185.0830  178.5700  143.8250 C   0  0  0  0  0  0  0  0  0  0  0  0
  182.6720  178.9020  143.7920 C   0  0  0  0  0  0  0  0  0  0  0  0
  183.1860  179.0940  145.0260 N   0  0  0  0  0  0  0  0  0  0  0  0
  183.8620  178.4970  142.6690 S   0  0  0  0  0  0  0  0  0  0  0  0
  180.6490  178.8870  142.2050 C   0  0  1  0  0  3  0  0  0  0  0  0
  179.6550  181.0500  142.5400 O   0  0  0  0  0  1  0  0  0  0  0  0
  180.0600  180.4640  140.3640 O   0  0  0  0  0  0  0  0  0  0  0  0
  180.1030  180.1990  141.7250 C   0  0  0  0  0  0  0  0  0  0  0  0
  181.5840  178.3110  141.2500 N   0  0  0  0  0  2  0  0  0  0  0  0
  180.8250  177.3980  140.4100 C   0  0  0  0  0  2  0  0  0  0  0  0
  181.8480  178.6430  137.7670 C   0  0  0  0  0  2  0  0  0  0  0  0
  181.6600  176.9200  139.2150 C   0  0  2  0  0  0  0  0  0  0  0  0
  183.2380  178.4810  138.3280 C   0  0  2  0  0  3  0  0  0  0  0  0
  183.0890  177.4220  139.3770 C   0  0  0  0  0  2  0  0  0  0  0  0
  181.1200  177.4710  138.0340 O   0  0  0  0  0  0  0  0  0  0  0  0
  183.7130  179.7620  138.9290 C   0  0  0  0  0  0  0  0  0  0  0  0
  182.9560  180.9220  138.8160 O   0  0  0  0  0  0  0  0  0  0  0  0
  184.8190  179.7940  139.5260 O   0  0  0  0  0  1  0  0  0  0  0  0
  180.4000  174.8840  139.5380 O   0  0  0  0  0  1  0  0  0  0  0  0
  181.6390  175.3830  139.1260 C   0  0  1  0  0  3  0  0  0  0  0  0
  183.0580  174.4960  137.4570 O   0  0  0  0  0  0  0  0  0  0  0  0
  181.9400  174.8910  137.7410 C   0  0  0  0  0  3  0  0  0  0  0  0
  186.9320  176.9620  144.0230 C   0  0  0  0  0  2  0  0  0  0  0  0
  189.4770  176.8240  144.3780 C   0  0  0  0  0  0  0  0  0  0  0  0
  188.1840  177.0360  144.8280 C   0  0  0  0  0  0  0  0  0  0  0  0
  190.2920  177.0390  145.4730 C   0  0  0  0  0  3  0  0  0  0  0  0
  188.2130  177.3740  146.1290 N   0  0  0  0  0  0  0  0  0  0  0  0
  189.4830  177.3670  146.4990 N   0  0  0  0  0  0  0  0  0  0  0  0
  189.9300  177.6830  147.8440 C   0  0  0  0  0  1  0  0  0  0  0  0
  189.8610  177.4220  141.9710 N   0  0  0  0  0  2  0  0  0  0  0  0
  190.3570  175.2860  142.8060 O   0  0  0  0  0  0  0  0  0  0  0  0
  189.9230  176.4490  143.0250 C   0  0  0  0  0  0  0  0  0  0  0  0
  190.1740  173.5780  136.8770 O   0  0  0  0  0  0  0  0  0  0  0  0
  189.5240  174.6430  137.0680 C   0  0  0  0  0  0  0  0  0  0  0  0
  187.7000  176.7730  137.6850 C   0  0  2  0  0  3  0  0  0  0  0  0
  191.3600  175.8210  138.1280 C   0  0  0  0  0  3  0  0  0  0  0  0
  187.7430  176.1540  136.3550 N   0  0  0  0  0  2  0  0  0  0  0  0
  191.9810  176.9750  138.8380 C   0  0  0  0  0  2  0  0  0  0  0  0
  187.2230  178.2080  137.5380 C   0  0  0  0  0  1  0  0  0  0  0  0
  190.2230  177.2410  140.5940 C   0  0  0  0  0  0  0  0  0  0  0  0
  190.0450  175.7200  137.9130 C   0  0  0  0  0  0  0  0  0  0  0  0
  191.5030  177.0680  140.2450 C   0  0  0  0  0  3  0  0  0  0  0  0
  188.2440  174.8440  136.4650 N   0  0  0  0  0  0  0  0  0  0  0  0
  189.1190  177.2960  139.6080 C   0  0  0  0  0  3  0  0  0  0  0  0
  189.0410  176.7070  138.4010 C   0  0  0  0  0  0  0  0  0  0  0  0
  186.5250  173.1430  137.3900 C   0  0  0  0  0  1  0  0  0  0  0  0
  187.3200  173.4920  135.7960 S   0  0  0  0  0  0  0  0  0  0  0  0
  1  4  1  0  0  0  0
  1 26  1  0  0  0  0
  3  5  1  0  0  0  0
  4  2  2  0  0  0  0
  5  6  2  0  0  0  0
  6  2  1  0  0  0  0
  7  5  1  0  0  0  0
  7  4  1  0  0  0  0
  8 12  1  6  0  0  0
  8  3  1  0  0  0  0
 10 11  2  0  0  0  0
 11  8  1  0  0  0  0
 11  9  1  0  0  0  0
 13 12  1  0  0  0  0
 14 18  1  0  0  0  0
 14 16  1  0  0  0  0
 15 17  1  0  0  0  0
 15 13  1  1  0  0  0
 16 19  1  1  0  0  0
 16 17  1  0  0  0  0
 18 15  1  0  0  0  0
 19 21  1  0  0  0  0
 20 19  2  0  0  0  0
 23 15  1  0  0  0  0
 23 22  1  6  0  0  0
 24 25  2  0  0  0  0
 25 23  1  0  0  0  0
 26 28  1  0  0  0  0
 27 28  1  0  0  0  0
 27 29  2  0  0  0  0
 28 30  2  0  0  0  0
 29 31  1  0  0  0  0
 30 31  1  0  0  0  0
 31 32  1  0  0  0  0
 33 35  1  0  0  0  0
 34 35  2  0  0  0  0
 35 27  1  0  0  0  0
 36 37  2  0  0  0  0
 37 44  1  0  0  0  0
 38 42  1  6  0  0  0
 38 48  1  0  0  0  0
 39 41  1  0  0  0  0
 40 46  1  0  0  0  0
 40 38  1  0  0  0  0
 41 45  1  0  0  0  0
 43 33  1  0  0  0  0
 44 39  2  0  0  0  0
 44 48  1  0  0  0  0
 45 43  2  0  0  0  0
 46 37  1  0  0  0  0
 47 43  1  0  0  0  0
 48 47  2  0  0  0  0
 50 46  1  0  0  0  0
 50 49  1  0  0  0  0
M  END
>  <MODEL>
1

>  <REMARK>
 VINA RESULT:      -8.0      0.000      0.000
  Name = 
  14 active torsions:
  status: ('A' for Active; 'I' for Inactive)
    1  A    between atoms: N_2  and  C_36
    2  A    between atoms: C_7  and  C_44
    3  A    between atoms: C_8  and  C_14
    4  A    between atoms: C_9  and  C_21
    5  A    between atoms: C_9  and  C_33
    6  A    between atoms: C_10  and  C_11
    7  A    between atoms: C_10  and  C_25
    8  A    between atoms: C_11  and  C_19
    9  A    between atoms: N_13  and  C_29
   10  A    between atoms: C_21  and  N_38
   11  A    between atoms: C_22  and  C_29
   12  A    between atoms: C_29  and  N_38
   13  A    between atoms: C_32  and  C_33
   14  A    between atoms: N_42  and  S_46
                            x       y       z     vdW  Elec       q    Type
                         _______ _______ _______ _____ _____    ______ ____

>  <TORSDO>
F 14

$$$$
=
 OpenBabel11032421153D

 50 54  0  0  1  0  0  0  0  0999 V2000
  186.7130  177.9630  143.2960 C   0  0  0  0  0  2  0  0  0  0  0  0
  184.9240  179.3440  144.4850 C   0  0  0  0  0  3  0  0  0  0  0  0
  181.5850  179.2970  143.1250 N   0  0  0  0  0  2  0  0  0  0  0  0
  185.3270  178.4690  143.4850 C   0  0  0  0  0  0  0  0  0  0  0  0
  182.9770  179.0950  143.3880 C   0  0  0  0  0  0  0  0  0  0  0  0
  183.6090  179.6840  144.4260 N   0  0  0  0  0  0  0  0  0  0  0  0
  184.0170  178.1180  142.4890 S   0  0  0  0  0  0  0  0  0  0  0  0
  180.8460  178.7410  141.9950 C   0  0  1  0  0  3  0  0  0  0  0  0
  179.3270  176.8830  141.8590 O   0  0  0  0  0  0  0  0  0  0  0  0
  178.9340  178.3700  143.5550 O   0  0  0  0  0  1  0  0  0  0  0  0
  179.6710  177.9350  142.4630 C   0  0  0  0  0  0  0  0  0  0  0  0
  180.4440  179.7940  141.0750 N   0  0  0  0  0  2  0  0  0  0  0  0
  180.1890  179.1600  139.7900 C   0  0  0  0  0  2  0  0  0  0  0  0
  180.0790  180.3800  136.9470 C   0  0  0  0  0  2  0  0  0  0  0  0
  181.2150  179.6060  138.7390 C   0  0  2  0  0  0  0  0  0  0  0  0
  180.7090  181.6140  137.5440 C   0  0  2  0  0  3  0  0  0  0  0  0
  181.3600  181.1200  138.8000 C   0  0  0  0  0  2  0  0  0  0  0  0
  180.7380  179.2500  137.4600 O   0  0  0  0  0  0  0  0  0  0  0  0
  179.6680  182.6380  137.8510 C   0  0  0  0  0  0  0  0  0  0  0  0
  179.1120  183.4100  136.8370 O   0  0  0  0  0  0  0  0  0  0  0  0
  179.3060  182.8160  139.0420 O   0  0  0  0  0  1  0  0  0  0  0  0
  182.7630  177.8610  138.1090 O   0  0  0  0  0  1  0  0  0  0  0  0
  182.5730  178.9260  138.9940 C   0  0  1  0  0  3  0  0  0  0  0  0
  184.6790  179.8000  139.6170 O   0  0  0  0  0  0  0  0  0  0  0  0
  183.7190  179.8880  138.8710 C   0  0  0  0  0  3  0  0  0  0  0  0
  186.9390  176.7390  144.1600 C   0  0  0  0  0  2  0  0  0  0  0  0
  189.4820  176.7830  144.5510 C   0  0  0  0  0  0  0  0  0  0  0  0
  188.1700  176.9150  144.9790 C   0  0  0  0  0  0  0  0  0  0  0  0
  190.2640  177.0770  145.6520 C   0  0  0  0  0  3  0  0  0  0  0  0
  188.1580  177.2830  146.2730 N   0  0  0  0  0  0  0  0  0  0  0  0
  189.4200  177.3710  146.6600 N   0  0  0  0  0  0  0  0  0  0  0  0
  189.8240  177.7460  148.0020 C   0  0  0  0  0  1  0  0  0  0  0  0
  190.0970  177.4230  142.2040 N   0  0  0  0  0  2  0  0  0  0  0  0
  190.2790  175.2130  142.9680 O   0  0  0  0  0  0  0  0  0  0  0  0
  189.9710  176.4100  143.2130 C   0  0  0  0  0  0  0  0  0  0  0  0
  190.8210  173.5770  137.1550 O   0  0  0  0  0  0  0  0  0  0  0  0
  190.1140  174.6100  137.3090 C   0  0  0  0  0  0  0  0  0  0  0  0
  188.1650  176.6530  137.8300 C   0  0  2  0  0  3  0  0  0  0  0  0
  191.8420  175.8800  138.4430 C   0  0  0  0  0  3  0  0  0  0  0  0
  188.2970  176.0310  136.5070 N   0  0  0  0  0  2  0  0  0  0  0  0
  192.3750  177.0650  139.1720 C   0  0  0  0  0  2  0  0  0  0  0  0
  187.6270  178.0640  137.6530 C   0  0  0  0  0  1  0  0  0  0  0  0
  190.5290  177.2540  140.8460 C   0  0  0  0  0  0  0  0  0  0  0  0
  190.5450  175.7150  138.1700 C   0  0  0  0  0  0  0  0  0  0  0  0
  191.8300  177.1410  140.5560 C   0  0  0  0  0  3  0  0  0  0  0  0
  188.8540  174.7470  136.6480 N   0  0  0  0  0  0  0  0  0  0  0  0
  189.4690  177.2520  139.8120 C   0  0  0  0  0  3  0  0  0  0  0  0
  189.4730  176.6550  138.6060 C   0  0  0  0  0  0  0  0  0  0  0  0
  186.6020  173.5360  137.0580 C   0  0  0  0  0  1  0  0  0  0  0  0
  188.0260  173.3500  135.9480 S   0  0  0  0  0  0  0  0  0  0  0  0
  1  4  1  0  0  0  0
  1 26  1  0  0  0  0
  3  5  1  0  0  0  0
  4  2  2  0  0  0  0
  5  6  2  0  0  0  0
  6  2  1  0  0  0  0
  7  5  1  0  0  0  0
  7  4  1  0  0  0  0
  8 12  1  6  0  0  0
  8 11  1  0  0  0  0
  8  3  1  0  0  0  0
  9 11  2  0  0  0  0
 11 10  1  0  0  0  0
 13 12  1  0  0  0  0
 14 18  1  0  0  0  0
 14 16  1  0  0  0  0
 15 17  1  0  0  0  0
 15 23  1  0  0  0  0
 15 13  1  1  0  0  0
 16 19  1  1  0  0  0
 16 17  1  0  0  0  0
 18 15  1  0  0  0  0
 19 21  1  0  0  0  0
 20 19  2  0  0  0  0
 23 22  1  6  0  0  0
 25 23  1  0  0  0  0
 25 24  2  0  0  0  0
 26 28  1  0  0  0  0
 27 28  1  0  0  0  0
 27 29  2  0  0  0  0
 28 30  2  0  0  0  0
 29 31  1  0  0  0  0
 30 31  1  0  0  0  0
 31 32  1  0  0  0  0
 33 35  1  0  0  0  0
 34 35  2  0  0  0  0
 35 27  1  0  0  0  0
 36 37  2  0  0  0  0
 37 44  1  0  0  0  0
 38 42  1  6  0  0  0
 38 48  1  0  0  0  0
 39 41  1  0  0  0  0
 40 46  1  0  0  0  0
 40 38  1  0  0  0  0
 41 45  1  0  0  0  0
 43 33  1  0  0  0  0
 44 39  2  0  0  0  0
 44 48  1  0  0  0  0
 45 43  2  0  0  0  0
 46 37  1  0  0  0  0
 47 43  1  0  0  0  0
 48 47  2  0  0  0  0
 50 46  1  0  0  0  0
 50 49  1  0  0  0  0
M  END
>  <MODEL>
2

>  <REMARK>
 VINA RESULT:      -8.0      1.559      2.417
  Name = 
  14 active torsions:
  status: ('A' for Active; 'I' for Inactive)
    1  A    between atoms: N_2  and  C_36
    2  A    between atoms: C_7  and  C_44
    3  A    between atoms: C_8  and  C_14
    4  A    between atoms: C_9  and  C_21
    5  A    between atoms: C_9  and  C_33
    6  A    between atoms: C_10  and  C_11
    7  A    between atoms: C_10  and  C_25
    8  A    between atoms: C_11  and  C_19
    9  A    between atoms: N_13  and  C_29
   10  A    between atoms: C_21  and  N_38
   11  A    between atoms: C_22  and  C_29
   12  A    between atoms: C_29  and  N_38
   13  A    between atoms: C_32  and  C_33
   14  A    between atoms: N_42  and  S_46
                            x       y       z     vdW  Elec       q    Type
                         _______ _______ _______ _____ _____    ______ ____

>  <TORSDO>
F 14

$$$$
=
 OpenBabel11032421153D

 50 54  0  0  1  0  0  0  0  0999 V2000
  186.8030  178.2430  143.4340 C   0  0  0  0  0  2  0  0  0  0  0  0
  184.7560  179.2680  144.5640 C   0  0  0  0  0  3  0  0  0  0  0  0
  181.6100  179.1080  142.8080 N   0  0  0  0  0  2  0  0  0  0  0  0
  185.3580  178.5860  143.5150 C   0  0  0  0  0  0  0  0  0  0  0  0
  182.9790  179.0000  143.2120 C   0  0  0  0  0  0  0  0  0  0  0  0
  183.4260  179.4890  144.3890 N   0  0  0  0  0  0  0  0  0  0  0  0
  184.2110  178.2630  142.3280 S   0  0  0  0  0  0  0  0  0  0  0  0
  181.0640  178.6540  141.5330 C   0  0  1  0  0  3  0  0  0  0  0  0
  178.9310  178.2700  142.5710 O   0  0  0  0  0  1  0  0  0  0  0  0
  179.5730  176.7230  141.0100 O   0  0  0  0  0  0  0  0  0  0  0  0
  179.7910  177.8870  141.7330 C   0  0  0  0  0  0  0  0  0  0  0  0
  180.8800  179.7750  140.6230 N   0  0  0  0  0  2  0  0  0  0  0  0
  180.5750  179.2150  139.3150 C   0  0  0  0  0  2  0  0  0  0  0  0
  183.6390  178.9750  138.9510 C   0  0  0  0  0  2  0  0  0  0  0  0
  181.6000  179.6650  138.2660 C   0  0  2  0  0  0  0  0  0  0  0  0
  183.3430  178.1120  137.7500 C   0  0  2  0  0  3  0  0  0  0  0  0
  181.9410  178.4820  137.3700 C   0  0  0  0  0  2  0  0  0  0  0  0
  182.7740  180.0820  138.9290 O   0  0  0  0  0  0  0  0  0  0  0  0
  183.4320  176.6660  138.1080 C   0  0  0  0  0  0  0  0  0  0  0  0
  184.4330  175.8630  137.5720 O   0  0  0  0  0  0  0  0  0  0  0  0
  182.5820  176.1660  138.8890 O   0  0  0  0  0  1  0  0  0  0  0  0
  179.6760  180.6340  137.1740 O   0  0  0  0  0  1  0  0  0  0  0  0
  181.0360  180.8270  137.4280 C   0  0  1  0  0  3  0  0  0  0  0  0
  181.0500  183.1900  137.4790 O   0  0  0  0  0  0  0  0  0  0  0  0
  181.2360  182.1560  138.0970 C   0  0  0  0  0  3  0  0  0  0  0  0
  187.0680  176.9440  144.1690 C   0  0  0  0  0  2  0  0  0  0  0  0
  189.6280  176.8300  144.4040 C   0  0  0  0  0  0  0  0  0  0  0  0
  188.3560  177.0360  144.9130 C   0  0  0  0  0  0  0  0  0  0  0  0
  190.4920  177.0630  145.4580 C   0  0  0  0  0  3  0  0  0  0  0  0
  188.4440  177.3890  146.2080 N   0  0  0  0  0  0  0  0  0  0  0  0
  189.7300  177.3950  146.5180 N   0  0  0  0  0  0  0  0  0  0  0  0
  190.2370  177.7290  147.8360 C   0  0  0  0  0  1  0  0  0  0  0  0
  190.0670  177.4480  142.0120 N   0  0  0  0  0  2  0  0  0  0  0  0
  190.2940  175.2420  142.7780 O   0  0  0  0  0  0  0  0  0  0  0  0
  190.0120  176.4430  143.0360 C   0  0  0  0  0  0  0  0  0  0  0  0
  190.2210  173.6070  136.9100 O   0  0  0  0  0  0  0  0  0  0  0  0
  189.5850  174.6770  137.1170 C   0  0  0  0  0  0  0  0  0  0  0  0
  187.7940  176.8210  137.7820 C   0  0  2  0  0  3  0  0  0  0  0  0
  191.4560  175.8390  138.1320 C   0  0  0  0  0  3  0  0  0  0  0  0
  187.7990  176.2030  136.4500 N   0  0  0  0  0  2  0  0  0  0  0  0
  192.1040  176.9870  138.8270 C   0  0  0  0  0  2  0  0  0  0  0  0
  187.3250  178.2610  137.6480 C   0  0  0  0  0  1  0  0  0  0  0  0
  190.3930  177.2660  140.6270 C   0  0  0  0  0  0  0  0  0  0  0  0
  190.1360  175.7490  137.9500 C   0  0  0  0  0  0  0  0  0  0  0  0
  191.6620  177.0830  140.2460 C   0  0  0  0  0  3  0  0  0  0  0  0
  188.2920  174.8890  136.5470 N   0  0  0  0  0  0  0  0  0  0  0  0
  189.2650  177.3310  139.6690 C   0  0  0  0  0  3  0  0  0  0  0  0
  189.1520  176.7440  138.4640 C   0  0  0  0  0  0  0  0  0  0  0  0
  186.7970  173.0300  137.5540 C   0  0  0  0  0  1  0  0  0  0  0  0
  187.3400  173.5450  135.9010 S   0  0  0  0  0  0  0  0  0  0  0  0
  1  4  1  0  0  0  0
  1 26  1  0  0  0  0
  3  5  1  0  0  0  0
  4  2  2  0  0  0  0
  5  6  2  0  0  0  0
  6  2  1  0  0  0  0
  7  5  1  0  0  0  0
  7  4  1  0  0  0  0
  8 12  1  6  0  0  0
  8 11  1  0  0  0  0
  8  3  1  0  0  0  0
 10 11  2  0  0  0  0
 11  9  1  0  0  0  0
 13 12  1  0  0  0  0
 15 18  1  0  0  0  0
 15 13  1  1  0  0  0
 16 19  1  1  0  0  0
 16 14  1  0  0  0  0
 17 16  1  0  0  0  0
 17 15  1  0  0  0  0
 18 14  1  0  0  0  0
 19 21  1  0  0  0  0
 20 19  2  0  0  0  0
 23 22  1  1  0  0  0
 23 25  1  0  0  0  0
 23 15  1  0  0  0  0
 24 25  2  0  0  0  0
 26 28  1  0  0  0  0
 27 28  1  0  0  0  0
 27 29  2  0  0  0  0
 28 30  2  0  0  0  0
 29 31  1  0  0  0  0
 30 31  1  0  0  0  0
 31 32  1  0  0  0  0
 33 35  1  0  0  0  0
 34 35  2  0  0  0  0
 35 27  1  0  0  0  0
 36 37  2  0  0  0  0
 37 44  1  0  0  0  0
 38 42  1  6  0  0  0
 38 48  1  0  0  0  0
 39 41  1  0  0  0  0
 40 46  1  0  0  0  0
 40 38  1  0  0  0  0
 41 45  1  0  0  0  0
 43 33  1  0  0  0  0
 44 39  2  0  0  0  0
 44 48  1  0  0  0  0
 45 43  2  0  0  0  0
 46 37  1  0  0  0  0
 47 43  1  0  0  0  0
 48 47  2  0  0  0  0
 50 46  1  0  0  0  0
 50 49  1  0  0  0  0
M  END
>  <MODEL>
3

>  <REMARK>
 VINA RESULT:      -7.9      1.273      2.584
  Name = 
  14 active torsions:
  status: ('A' for Active; 'I' for Inactive)
    1  A    between atoms: N_2  and  C_36
    2  A    between atoms: C_7  and  C_44
    3  A    between atoms: C_8  and  C_14
    4  A    between atoms: C_9  and  C_21
    5  A    between atoms: C_9  and  C_33
    6  A    between atoms: C_10  and  C_11
    7  A    between atoms: C_10  and  C_25
    8  A    between atoms: C_11  and  C_19
    9  A    between atoms: N_13  and  C_29
   10  A    between atoms: C_21  and  N_38
   11  A    between atoms: C_22  and  C_29
   12  A    between atoms: C_29  and  N_38
   13  A    between atoms: C_32  and  C_33
   14  A    between atoms: N_42  and  S_46
                            x       y       z     vdW  Elec       q    Type
                         _______ _______ _______ _____ _____    ______ ____

>  <TORSDO>
F 14

$$$$
=
 OpenBabel11032421153D

 50 54  0  0  1  0  0  0  0  0999 V2000
  185.6660  178.4230  143.8370 C   0  0  0  0  0  2  0  0  0  0  0  0
  186.0710  179.1150  141.4130 C   0  0  0  0  0  3  0  0  0  0  0  0
  183.2250  179.2370  139.2020 N   0  0  0  0  0  2  0  0  0  0  0  0
  185.2290  178.7350  142.4500 C   0  0  0  0  0  0  0  0  0  0  0  0
  184.1060  179.0850  140.3200 C   0  0  0  0  0  0  0  0  0  0  0  0
  185.4340  179.3130  140.2280 N   0  0  0  0  0  0  0  0  0  0  0  0
  183.6510  178.6280  141.8770 S   0  0  0  0  0  0  0  0  0  0  0  0
  181.7910  178.9580  139.2080 C   0  0  1  0  0  3  0  0  0  0  0  0
  180.4350  180.0720  140.8510 O   0  0  0  0  0  1  0  0  0  0  0  0
  180.9080  181.2780  138.9630 O   0  0  0  0  0  0  0  0  0  0  0  0
  181.0160  180.1290  139.7330 C   0  0  0  0  0  0  0  0  0  0  0  0
  181.3380  178.5610  137.8840 N   0  0  0  0  0  2  0  0  0  0  0  0
  180.0610  177.8850  138.0560 C   0  0  0  0  0  2  0  0  0  0  0  0
  181.2790  175.4430  139.5160 C   0  0  0  0  0  2  0  0  0  0  0  0
  180.1870  176.3820  137.7760 C   0  0  2  0  0  0  0  0  0  0  0  0
  179.8690  174.9240  139.6430 C   0  0  2  0  0  3  0  0  0  0  0  0
  179.1160  175.6410  138.5640 C   0  0  0  0  0  2  0  0  0  0  0  0
  181.4540  175.9440  138.2150 O   0  0  0  0  0  0  0  0  0  0  0  0
  179.3100  175.2480  140.9880 C   0  0  0  0  0  0  0  0  0  0  0  0
  179.2240  176.5660  141.4220 O   0  0  0  0  0  0  0  0  0  0  0  0
  178.9310  174.3170  141.7440 O   0  0  0  0  0  1  0  0  0  0  0  0
  179.5060  177.2180  135.6140 O   0  0  0  0  0  1  0  0  0  0  0  0
  180.0340  176.1020  136.2700 C   0  0  1  0  0  3  0  0  0  0  0  0
  181.5860  174.5450  135.4020 O   0  0  0  0  0  0  0  0  0  0  0  0
  181.3360  175.7160  135.6300 C   0  0  0  0  0  3  0  0  0  0  0  0
  186.4390  177.1200  143.8550 C   0  0  0  0  0  2  0  0  0  0  0  0
  188.9460  177.0440  144.4310 C   0  0  0  0  0  0  0  0  0  0  0  0
  187.6140  177.2390  144.7620 C   0  0  0  0  0  0  0  0  0  0  0  0
  189.6580  177.3020  145.5870 C   0  0  0  0  0  3  0  0  0  0  0  0
  187.5240  177.6080  146.0520 N   0  0  0  0  0  0  0  0  0  0  0  0
  188.7570  177.6370  146.5310 N   0  0  0  0  0  0  0  0  0  0  0  0
  189.0790  177.9940  147.9010 C   0  0  0  0  0  1  0  0  0  0  0  0
  189.5870  177.6140  142.0730 N   0  0  0  0  0  2  0  0  0  0  0  0
  189.9340  175.4710  142.9620 O   0  0  0  0  0  0  0  0  0  0  0  0
  189.5140  176.6470  143.1310 C   0  0  0  0  0  0  0  0  0  0  0  0
  190.4250  173.6850  137.1050 O   0  0  0  0  0  0  0  0  0  0  0  0
  189.7490  174.7440  137.2130 C   0  0  0  0  0  0  0  0  0  0  0  0
  187.8520  176.8620  137.6140 C   0  0  2  0  0  3  0  0  0  0  0  0
  191.4620  175.9640  138.4210 C   0  0  0  0  0  3  0  0  0  0  0  0
  188.0280  176.2210  136.3060 N   0  0  0  0  0  2  0  0  0  0  0  0
  192.0000  177.1380  139.1640 C   0  0  0  0  0  2  0  0  0  0  0  0
  187.3750  178.2890  137.3960 C   0  0  0  0  0  1  0  0  0  0  0  0
  190.0800  177.4130  140.7400 C   0  0  0  0  0  0  0  0  0  0  0  0
  190.1750  175.8430  138.0840 C   0  0  0  0  0  0  0  0  0  0  0  0
  191.3900  177.2500  140.5180 C   0  0  0  0  0  3  0  0  0  0  0  0
  188.5300  174.9190  136.4880 N   0  0  0  0  0  0  0  0  0  0  0  0
  189.0750  177.4370  139.6530 C   0  0  0  0  0  3  0  0  0  0  0  0
  189.1180  176.8260  138.4550 C   0  0  0  0  0  0  0  0  0  0  0  0
  186.0550  174.2300  136.1580 C   0  0  0  0  0  1  0  0  0  0  0  0
  187.6880  173.5440  135.7600 S   0  0  0  0  0  0  0  0  0  0  0  0
  1 26  1  0  0  0  0
  2  4  2  0  0  0  0
  3  8  1  0  0  0  0
  3  5  1  0  0  0  0
  4  1  1  0  0  0  0
  5  7  1  0  0  0  0
  6  5  2  0  0  0  0
  6  2  1  0  0  0  0
  7  4  1  0  0  0  0
  8 12  1  6  0  0  0
  8 11  1  0  0  0  0
 10 11  2  0  0  0  0
 11  9  1  0  0  0  0
 12 13  1  0  0  0  0
 14 16  1  0  0  0  0
 15 13  1  1  0  0  0
 15 18  1  0  0  0  0
 15 17  1  0  0  0  0
 16 19  1  1  0  0  0
 17 16  1  0  0  0  0
 18 14  1  0  0  0  0
 19 20  2  0  0  0  0
 19 21  1  0  0  0  0
 23 22  1  6  0  0  0
 23 15  1  0  0  0  0
 24 25  2  0  0  0  0
 25 23  1  0  0  0  0
 26 28  1  0  0  0  0
 27 28  1  0  0  0  0
 27 29  2  0  0  0  0
 28 30  2  0  0  0  0
 29 31  1  0  0  0  0
 30 31  1  0  0  0  0
 31 32  1  0  0  0  0
 33 35  1  0  0  0  0
 34 35  2  0  0  0  0
 35 27  1  0  0  0  0
 36 37  2  0  0  0  0
 37 44  1  0  0  0  0
 38 42  1  6  0  0  0
 38 48  1  0  0  0  0
 39 41  1  0  0  0  0
 40 46  1  0  0  0  0
 40 38  1  0  0  0  0
 41 45  1  0  0  0  0
 43 33  1  0  0  0  0
 44 39  2  0  0  0  0
 44 48  1  0  0  0  0
 45 43  2  0  0  0  0
 46 37  1  0  0  0  0
 47 43  1  0  0  0  0
 48 47  2  0  0  0  0
 50 49  1  0  0  0  0
 50 46  1  0  0  0  0
M  END
>  <MODEL>
4

>  <REMARK>
 VINA RESULT:      -7.6      1.723      2.817
  Name = 
  14 active torsions:
  status: ('A' for Active; 'I' for Inactive)
    1  A    between atoms: N_2  and  C_36
    2  A    between atoms: C_7  and  C_44
    3  A    between atoms: C_8  and  C_14
    4  A    between atoms: C_9  and  C_21
    5  A    between atoms: C_9  and  C_33
    6  A    between atoms: C_10  and  C_11
    7  A    between atoms: C_10  and  C_25
    8  A    between atoms: C_11  and  C_19
    9  A    between atoms: N_13  and  C_29
   10  A    between atoms: C_21  and  N_38
   11  A    between atoms: C_22  and  C_29
   12  A    between atoms: C_29  and  N_38
   13  A    between atoms: C_32  and  C_33
   14  A    between atoms: N_42  and  S_46
                            x       y       z     vdW  Elec       q    Type
                         _______ _______ _______ _____ _____    ______ ____

>  <TORSDO>
F 14

$$$$
=
 OpenBabel11032421153D

 50 54  0  0  1  0  0  0  0  0999 V2000
  185.8790  178.4480  143.9010 C   0  0  0  0  0  2  0  0  0  0  0  0
  186.0270  179.1440  141.4490 C   0  0  0  0  0  3  0  0  0  0  0  0
  182.9910  179.1090  139.5050 N   0  0  0  0  0  2  0  0  0  0  0  0
  185.3040  178.7290  142.5590 C   0  0  0  0  0  0  0  0  0  0  0  0
  183.9760  179.0090  140.5390 C   0  0  0  0  0  0  0  0  0  0  0  0
  185.2770  179.3030  140.3270 N   0  0  0  0  0  0  0  0  0  0  0  0
  183.6880  178.5390  142.1320 S   0  0  0  0  0  0  0  0  0  0  0  0
  181.5800  178.7570  139.6420 C   0  0  1  0  0  3  0  0  0  0  0  0
  180.1580  179.8430  141.2470 O   0  0  0  0  0  1  0  0  0  0  0  0
  180.7020  181.0800  139.3980 O   0  0  0  0  0  0  0  0  0  0  0  0
  180.7820  179.9190  140.1540 C   0  0  0  0  0  0  0  0  0  0  0  0
  181.0510  178.2520  138.3840 N   0  0  0  0  0  2  0  0  0  0  0  0
  181.9380  178.7220  137.3300 C   0  0  0  0  0  2  0  0  0  0  0  0
  183.3510  176.4050  135.8420 C   0  0  0  0  0  2  0  0  0  0  0  0
  181.7100  177.9460  136.0260 C   0  0  2  0  0  0  0  0  0  0  0  0
  182.1090  175.5910  136.1080 C   0  0  2  0  0  3  0  0  0  0  0  0
  181.0440  176.6160  136.3520 C   0  0  0  0  0  2  0  0  0  0  0  0
  182.9610  177.6890  135.4270 O   0  0  0  0  0  0  0  0  0  0  0  0
  182.2980  174.7230  137.3070 C   0  0  0  0  0  0  0  0  0  0  0  0
  181.3250  173.8010  137.6760 O   0  0  0  0  0  0  0  0  0  0  0  0
  183.3390  174.8430  138.0020 O   0  0  0  0  0  1  0  0  0  0  0  0
  179.5240  178.2660  135.0480 O   0  0  0  0  0  1  0  0  0  0  0  0
  180.8300  178.7630  135.0620 C   0  0  1  0  0  3  0  0  0  0  0  0
  179.7530  180.7690  135.6970 O   0  0  0  0  0  0  0  0  0  0  0  0
  180.8060  180.2210  135.4170 C   0  0  0  0  0  3  0  0  0  0  0  0
  186.6110  177.1200  143.8830 C   0  0  0  0  0  2  0  0  0  0  0  0
  189.1350  176.9740  144.3580 C   0  0  0  0  0  0  0  0  0  0  0  0
  187.8230  177.1970  144.7440 C   0  0  0  0  0  0  0  0  0  0  0  0
  189.8990  177.1970  145.4880 C   0  0  0  0  0  3  0  0  0  0  0  0
  187.7930  177.5500  146.0420 N   0  0  0  0  0  0  0  0  0  0  0  0
  189.0450  177.5400  146.4720 N   0  0  0  0  0  0  0  0  0  0  0  0
  189.4290  177.8690  147.8320 C   0  0  0  0  0  1  0  0  0  0  0  0
  189.5630  177.5170  141.9460 N   0  0  0  0  0  2  0  0  0  0  0  0
  190.1420  175.4370  142.8640 O   0  0  0  0  0  0  0  0  0  0  0  0
  189.6420  176.5810  143.0320 C   0  0  0  0  0  0  0  0  0  0  0  0
  190.0480  173.5960  136.9250 O   0  0  0  0  0  0  0  0  0  0  0  0
  189.4000  174.6670  137.0750 C   0  0  0  0  0  0  0  0  0  0  0  0
  187.5670  176.8180  137.5890 C   0  0  2  0  0  3  0  0  0  0  0  0
  191.2000  175.8500  138.1890 C   0  0  0  0  0  3  0  0  0  0  0  0
  187.6580  176.1790  136.2710 N   0  0  0  0  0  2  0  0  0  0  0  0
  191.8010  177.0110  138.9050 C   0  0  0  0  0  2  0  0  0  0  0  0
  187.1050  178.2540  137.4030 C   0  0  0  0  0  1  0  0  0  0  0  0
  189.9780  177.3130  140.5870 C   0  0  0  0  0  0  0  0  0  0  0  0
  189.8940  175.7540  137.9240 C   0  0  0  0  0  0  0  0  0  0  0  0
  191.2690  177.1280  140.2910 C   0  0  0  0  0  3  0  0  0  0  0  0
  188.1450  174.8670  136.4190 N   0  0  0  0  0  0  0  0  0  0  0  0
  188.9140  177.3610  139.5580 C   0  0  0  0  0  3  0  0  0  0  0  0
  188.8780  176.7550  138.3570 C   0  0  0  0  0  0  0  0  0  0  0  0
  186.5970  173.0160  137.3600 C   0  0  0  0  0  1  0  0  0  0  0  0
  187.2390  173.5120  135.7360 S   0  0  0  0  0  0  0  0  0  0  0  0
  2  4  2  0  0  0  0
  3  8  1  0  0  0  0
  3  5  1  0  0  0  0
  4  1  1  0  0  0  0
  5  7  1  0  0  0  0
  6  5  2  0  0  0  0
  6  2  1  0  0  0  0
  7  4  1  0  0  0  0
  8 12  1  6  0  0  0
  8 11  1  0  0  0  0
 10 11  2  0  0  0  0
 11  9  1  0  0  0  0
 13 12  1  0  0  0  0
 14 16  1  0  0  0  0
 15 17  1  0  0  0  0
 15 13  1  1  0  0  0
 16 17  1  0  0  0  0
 16 19  1  1  0  0  0
 18 14  1  0  0  0  0
 18 15  1  0  0  0  0
 19 20  2  0  0  0  0
 19 21  1  0  0  0  0
 23 22  1  1  0  0  0
 23 25  1  0  0  0  0
 23 15  1  0  0  0  0
 25 24  2  0  0  0  0
 26  1  1  0  0  0  0
 26 28  1  0  0  0  0
 27 28  1  0  0  0  0
 27 29  2  0  0  0  0
 28 30  2  0  0  0  0
 29 31  1  0  0  0  0
 30 31  1  0  0  0  0
 31 32  1  0  0  0  0
 33 35  1  0  0  0  0
 34 35  2  0  0  0  0
 35 27  1  0  0  0  0
 36 37  2  0  0  0  0
 37 44  1  0  0  0  0
 38 42  1  6  0  0  0
 38 48  1  0  0  0  0
 39 41  1  0  0  0  0
 40 46  1  0  0  0  0
 40 38  1  0  0  0  0
 41 45  1  0  0  0  0
 43 33  1  0  0  0  0
 44 39  2  0  0  0  0
 44 48  1  0  0  0  0
 45 43  2  0  0  0  0
 46 37  1  0  0  0  0
 47 43  1  0  0  0  0
 48 47  2  0  0  0  0
 50 46  1  0  0  0  0
 50 49  1  0  0  0  0
M  END
>  <MODEL>
5

>  <REMARK>
 VINA RESULT:      -7.6      1.669      2.961
  Name = 
  14 active torsions:
  status: ('A' for Active; 'I' for Inactive)
    1  A    between atoms: N_2  and  C_36
    2  A    between atoms: C_7  and  C_44
    3  A    between atoms: C_8  and  C_14
    4  A    between atoms: C_9  and  C_21
    5  A    between atoms: C_9  and  C_33
    6  A    between atoms: C_10  and  C_11
    7  A    between atoms: C_10  and  C_25
    8  A    between atoms: C_11  and  C_19
    9  A    between atoms: N_13  and  C_29
   10  A    between atoms: C_21  and  N_38
   11  A    between atoms: C_22  and  C_29
   12  A    between atoms: C_29  and  N_38
   13  A    between atoms: C_32  and  C_33
   14  A    between atoms: N_42  and  S_46
                            x       y       z     vdW  Elec       q    Type
                         _______ _______ _______ _____ _____    ______ ____

>  <TORSDO>
F 14

$$$$
=
 OpenBabel11032421153D

 50 54  0  0  1  0  0  0  0  0999 V2000
  189.5610  177.2020  143.9280 C   0  0  0  0  0  2  0  0  0  0  0  0
  191.3110  177.4920  142.0910 C   0  0  0  0  0  3  0  0  0  0  0  0
  190.1700  177.5190  138.6710 N   0  0  0  0  0  2  0  0  0  0  0  0
  189.9970  177.3400  142.5130 C   0  0  0  0  0  0  0  0  0  0  0  0
  190.2720  177.4630  140.0980 C   0  0  0  0  0  0  0  0  0  0  0  0
  191.4550  177.5650  140.7420 N   0  0  0  0  0  0  0  0  0  0  0  0
  188.9840  177.2790  141.1710 S   0  0  0  0  0  0  0  0  0  0  0  0
  188.9390  177.3620  137.9020 C   0  0  1  0  0  3  0  0  0  0  0  0
  189.0530  179.7480  137.6390 O   0  0  0  0  0  1  0  0  0  0  0  0
  187.0730  178.7710  137.0330 O   0  0  0  0  0  0  0  0  0  0  0  0
  188.3730  178.6940  137.5110 C   0  0  0  0  0  0  0  0  0  0  0  0
  189.1600  176.5100  136.7440 N   0  0  0  0  0  2  0  0  0  0  0  0
  189.7430  175.2700  137.2320 C   0  0  0  0  0  2  0  0  0  0  0  0
  192.3410  175.9470  135.6920 C   0  0  0  0  0  2  0  0  0  0  0  0
  190.5930  174.5920  136.1500 C   0  0  2  0  0  0  0  0  0  0  0  0
  192.9640  174.7680  136.3960 C   0  0  2  0  0  3  0  0  0  0  0  0
  191.7950  173.9270  136.8090 C   0  0  0  0  0  2  0  0  0  0  0  0
  191.0580  175.5770  135.2540 O   0  0  0  0  0  0  0  0  0  0  0  0
  193.7420  175.2190  137.5870 C   0  0  0  0  0  0  0  0  0  0  0  0
  193.4040  176.3930  138.2510 O   0  0  0  0  0  1  0  0  0  0  0  0
  194.7240  174.5400  137.9810 O   0  0  0  0  0  0  0  0  0  0  0  0
  190.5850  172.5800  134.8130 O   0  0  0  0  0  1  0  0  0  0  0  0
  189.7570  173.5490  135.3860 C   0  0  1  0  0  3  0  0  0  0  0  0
  188.1780  171.8650  135.8960 O   0  0  0  0  0  0  0  0  0  0  0  0
  188.7420  172.8810  136.2670 C   0  0  0  0  0  3  0  0  0  0  0  0
  188.0650  176.9650  143.9870 C   0  0  0  0  0  2  0  0  0  0  0  0
  186.2910  178.1030  145.4630 C   0  0  0  0  0  0  0  0  0  0  0  0
  187.5180  177.4890  145.2700 C   0  0  0  0  0  0  0  0  0  0  0  0
  186.2220  178.3780  146.8160 C   0  0  0  0  0  3  0  0  0  0  0  0
  188.1570  177.3860  146.4490 N   0  0  0  0  0  0  0  0  0  0  0  0
  187.3680  177.9270  147.3620 N   0  0  0  0  0  0  0  0  0  0  0  0
  187.7070  178.0080  148.7710 C   0  0  0  0  0  1  0  0  0  0  0  0
  185.5990  178.3800  143.0670 N   0  0  0  0  0  2  0  0  0  0  0  0
  184.0850  178.6910  144.8320 O   0  0  0  0  0  0  0  0  0  0  0  0
  185.2570  178.4110  144.4610 C   0  0  0  0  0  0  0  0  0  0  0  0
  181.6940  176.2380  138.4880 O   0  0  0  0  0  0  0  0  0  0  0  0
  181.4720  176.9930  139.4730 C   0  0  0  0  0  0  0  0  0  0  0  0
  180.8840  178.2970  141.9640 C   0  0  2  0  0  3  0  0  0  0  0  0
  183.4840  178.3150  139.1820 C   0  0  0  0  0  3  0  0  0  0  0  0
  179.8530  178.0830  140.9420 N   0  0  0  0  0  2  0  0  0  0  0  0
  184.4630  179.3700  139.5690 C   0  0  0  0  0  2  0  0  0  0  0  0
  180.5190  179.5310  142.7730 C   0  0  0  0  0  1  0  0  0  0  0  0
  184.7440  178.6720  141.9510 C   0  0  0  0  0  0  0  0  0  0  0  0
  182.4920  177.9140  139.9820 C   0  0  0  0  0  0  0  0  0  0  0  0
  185.2660  178.9580  140.7530 C   0  0  0  0  0  3  0  0  0  0  0  0
  180.2080  176.9810  140.1420 N   0  0  0  0  0  0  0  0  0  0  0  0
  183.2880  178.6740  142.2180 C   0  0  0  0  0  3  0  0  0  0  0  0
  182.2770  178.4210  141.3660 C   0  0  0  0  0  0  0  0  0  0  0  0
  179.6770  174.7780  141.3970 C   0  0  0  0  0  1  0  0  0  0  0  0
  179.0660  175.6490  139.9250 S   0  0  0  0  0  0  0  0  0  0  0  0
  1 26  1  0  0  0  0
  2  4  2  0  0  0  0
  3  5  1  0  0  0  0
  4  1  1  0  0  0  0
  5  6  2  0  0  0  0
  5  7  1  0  0  0  0
  6  2  1  0  0  0  0
  7  4  1  0  0  0  0
  8 12  1  6  0  0  0
  8  3  1  0  0  0  0
 10 11  2  0  0  0  0
 11  9  1  0  0  0  0
 11  8  1  0  0  0  0
 12 13  1  0  0  0  0
 14 16  1  0  0  0  0
 15 17  1  0  0  0  0
 15 13  1  1  0  0  0
 16 17  1  0  0  0  0
 16 19  1  1  0  0  0
 18 14  1  0  0  0  0
 18 15  1  0  0  0  0
 19 21  2  0  0  0  0
 19 20  1  0  0  0  0
 23 22  1  1  0  0  0
 23 15  1  0  0  0  0
 23 25  1  0  0  0  0
 24 25  2  0  0  0  0
 26 28  1  0  0  0  0
 27 29  2  0  0  0  0
 28 27  1  0  0  0  0
 28 30  2  0  0  0  0
 29 31  1  0  0  0  0
 30 31  1  0  0  0  0
 31 32  1  0  0  0  0
 33 35  1  0  0  0  0
 35 34  2  0  0  0  0
 35 27  1  0  0  0  0
 36 37  2  0  0  0  0
 37 44  1  0  0  0  0
 37 46  1  0  0  0  0
 38 42  1  6  0  0  0
 39 41  1  0  0  0  0
 39 44  2  0  0  0  0
 40 38  1  0  0  0  0
 41 45  1  0  0  0  0
 43 47  1  0  0  0  0
 43 33  1  0  0  0  0
 44 48  1  0  0  0  0
 45 43  2  0  0  0  0
 46 40  1  0  0  0  0
 48 38  1  0  0  0  0
 48 47  2  0  0  0  0
 50 46  1  0  0  0  0
 50 49  1  0  0  0  0
M  END
>  <MODEL>
6

>  <REMARK>
 VINA RESULT:      -7.6      2.561      8.110
  Name = 
  14 active torsions:
  status: ('A' for Active; 'I' for Inactive)
    1  A    between atoms: N_2  and  C_36
    2  A    between atoms: C_7  and  C_44
    3  A    between atoms: C_8  and  C_14
    4  A    between atoms: C_9  and  C_21
    5  A    between atoms: C_9  and  C_33
    6  A    between atoms: C_10  and  C_11
    7  A    between atoms: C_10  and  C_25
    8  A    between atoms: C_11  and  C_19
    9  A    between atoms: N_13  and  C_29
   10  A    between atoms: C_21  and  N_38
   11  A    between atoms: C_22  and  C_29
   12  A    between atoms: C_29  and  N_38
   13  A    between atoms: C_32  and  C_33
   14  A    between atoms: N_42  and  S_46
                            x       y       z     vdW  Elec       q    Type
                         _______ _______ _______ _____ _____    ______ ____

>  <TORSDO>
F 14

$$$$
=
 OpenBabel11032421153D

 50 54  0  0  1  0  0  0  0  0999 V2000
  185.7460  178.4160  143.7420 C   0  0  0  0  0  2  0  0  0  0  0  0
  186.1880  178.9950  141.2950 C   0  0  0  0  0  3  0  0  0  0  0  0
  183.4580  178.6460  138.9650 N   0  0  0  0  0  2  0  0  0  0  0  0
  185.3460  178.5870  142.3200 C   0  0  0  0  0  0  0  0  0  0  0  0
  184.2950  178.6690  140.1260 C   0  0  0  0  0  0  0  0  0  0  0  0
  185.5920  179.0430  140.0740 N   0  0  0  0  0  0  0  0  0  0  0  0
  183.8190  178.2620  141.6920 S   0  0  0  0  0  0  0  0  0  0  0  0
  182.0670  178.2040  138.9320 C   0  0  1  0  0  3  0  0  0  0  0  0
  180.8250  179.9460  137.8370 O   0  0  0  0  0  0  0  0  0  0  0  0
  180.6160  179.8520  140.1150 O   0  0  0  0  0  1  0  0  0  0  0  0
  181.1290  179.3730  138.9180 C   0  0  0  0  0  0  0  0  0  0  0  0
  181.8360  177.3150  137.8030 N   0  0  0  0  0  2  0  0  0  0  0  0
  183.0820  176.6060  137.5580 C   0  0  0  0  0  2  0  0  0  0  0  0
  182.6310  173.5620  137.2190 C   0  0  0  0  0  2  0  0  0  0  0  0
  182.9450  175.6350  136.3780 C   0  0  2  0  0  0  0  0  0  0  0  0
  181.3000  173.9150  136.6020 C   0  0  2  0  0  3  0  0  0  0  0  0
  181.4690  175.3340  136.1530 C   0  0  0  0  0  2  0  0  0  0  0  0
  183.6060  174.4310  136.7020 O   0  0  0  0  0  0  0  0  0  0  0  0
  180.2080  173.8030  137.6130 C   0  0  0  0  0  0  0  0  0  0  0  0
  180.3470  174.3710  138.8740 O   0  0  0  0  0  1  0  0  0  0  0  0
  179.1590  173.1710  137.3260 O   0  0  0  0  0  0  0  0  0  0  0  0
  182.9250  177.4370  134.7690 O   0  0  0  0  0  1  0  0  0  0  0  0
  183.5680  176.2430  135.1070 C   0  0  1  0  0  3  0  0  0  0  0  0
  185.5350  177.5250  134.8410 O   0  0  0  0  0  0  0  0  0  0  0  0
  185.0390  176.4930  135.2620 C   0  0  0  0  0  3  0  0  0  0  0  0
  186.5240  177.1260  143.9090 C   0  0  0  0  0  2  0  0  0  0  0  0
  189.0020  177.1940  144.5970 C   0  0  0  0  0  0  0  0  0  0  0  0
  187.6490  177.3310  144.8630 C   0  0  0  0  0  0  0  0  0  0  0  0
  189.6480  177.5220  145.7740 C   0  0  0  0  0  3  0  0  0  0  0  0
  187.4830  177.7350  146.1350 N   0  0  0  0  0  0  0  0  0  0  0  0
  188.6900  177.8390  146.6670 N   0  0  0  0  0  0  0  0  0  0  0  0
  188.9310  178.2530  148.0370 C   0  0  0  0  0  1  0  0  0  0  0  0
  189.7090  177.7180  142.2470 N   0  0  0  0  0  2  0  0  0  0  0  0
  190.1430  175.6320  143.2300 O   0  0  0  0  0  0  0  0  0  0  0  0
  189.6480  176.7860  143.3370 C   0  0  0  0  0  0  0  0  0  0  0  0
  190.6140  173.7940  137.2880 O   0  0  0  0  0  0  0  0  0  0  0  0
  189.9970  174.8900  137.3690 C   0  0  0  0  0  0  0  0  0  0  0  0
  188.2070  177.1140  137.6830 C   0  0  2  0  0  3  0  0  0  0  0  0
  191.7020  175.9940  138.6930 C   0  0  0  0  0  3  0  0  0  0  0  0
  188.4240  176.4750  136.3790 N   0  0  0  0  0  2  0  0  0  0  0  0
  192.2620  177.1270  139.4830 C   0  0  0  0  0  2  0  0  0  0  0  0
  187.8290  178.5690  137.4550 C   0  0  0  0  0  1  0  0  0  0  0  0
  190.2700  177.5010  140.9440 C   0  0  0  0  0  0  0  0  0  0  0  0
  190.4330  175.9530  138.2780 C   0  0  0  0  0  0  0  0  0  0  0  0
  191.5780  177.2630  140.7990 C   0  0  0  0  0  3  0  0  0  0  0  0
  188.8360  175.1440  136.5740 N   0  0  0  0  0  0  0  0  0  0  0  0
  189.3360  177.5950  139.7990 C   0  0  0  0  0  3  0  0  0  0  0  0
  189.4150  176.9940  138.5980 C   0  0  0  0  0  0  0  0  0  0  0  0
  186.8690  173.5840  137.2090 C   0  0  0  0  0  1  0  0  0  0  0  0
  187.9610  173.8290  135.7790 S   0  0  0  0  0  0  0  0  0  0  0  0
  1 26  1  0  0  0  0
  2  4  2  0  0  0  0
  3  5  1  0  0  0  0
  4  1  1  0  0  0  0
  5  7  1  0  0  0  0
  6  5  2  0  0  0  0
  6  2  1  0  0  0  0
  7  4  1  0  0  0  0
  8 12  1  6  0  0  0
  8  3  1  0  0  0  0
  9 11  2  0  0  0  0
 11  8  1  0  0  0  0
 11 10  1  0  0  0  0
 13 12  1  0  0  0  0
 15 18  1  0  0  0  0
 15 13  1  1  0  0  0
 16 14  1  0  0  0  0
 16 19  1  1  0  0  0
 17 15  1  0  0  0  0
 17 16  1  0  0  0  0
 18 14  1  0  0  0  0
 19 20  1  0  0  0  0
 21 19  2  0  0  0  0
 23 22  1  1  0  0  0
 23 25  1  0  0  0  0
 23 15  1  0  0  0  0
 24 25  2  0  0  0  0
 26 28  1  0  0  0  0
 27 28  1  0  0  0  0
 27 29  2  0  0  0  0
 28 30  2  0  0  0  0
 29 31  1  0  0  0  0
 30 31  1  0  0  0  0
 31 32  1  0  0  0  0
 33 35  1  0  0  0  0
 34 35  2  0  0  0  0
 35 27  1  0  0  0  0
 36 37  2  0  0  0  0
 37 44  1  0  0  0  0
 38 42  1  6  0  0  0
 38 48  1  0  0  0  0
 39 41  1  0  0  0  0
 40 46  1  0  0  0  0
 40 38  1  0  0  0  0
 41 45  1  0  0  0  0
 43 33  1  0  0  0  0
 44 48  1  0  0  0  0
 44 39  2  0  0  0  0
 45 43  2  0  0  0  0
 46 37  1  0  0  0  0
 47 43  1  0  0  0  0
 48 47  2  0  0  0  0
 50 46  1  0  0  0  0
 50 49  1  0  0  0  0
M  END
>  <MODEL>
7

>  <REMARK>
 VINA RESULT:      -7.5      1.831      3.335
  Name = 
  14 active torsions:
  status: ('A' for Active; 'I' for Inactive)
    1  A    between atoms: N_2  and  C_36
    2  A    between atoms: C_7  and  C_44
    3  A    between atoms: C_8  and  C_14
    4  A    between atoms: C_9  and  C_21
    5  A    between atoms: C_9  and  C_33
    6  A    between atoms: C_10  and  C_11
    7  A    between atoms: C_10  and  C_25
    8  A    between atoms: C_11  and  C_19
    9  A    between atoms: N_13  and  C_29
   10  A    between atoms: C_21  and  N_38
   11  A    between atoms: C_22  and  C_29
   12  A    between atoms: C_29  and  N_38
   13  A    between atoms: C_32  and  C_33
   14  A    between atoms: N_42  and  S_46
                            x       y       z     vdW  Elec       q    Type
                         _______ _______ _______ _____ _____    ______ ____

>  <TORSDO>
F 14

$$$$
=
 OpenBabel11032421153D

 50 54  0  0  1  0  0  0  0  0999 V2000
  185.2550  179.1610  143.4530 C   0  0  0  0  0  2  0  0  0  0  0  0
  182.9330  178.9210  144.4870 C   0  0  0  0  0  3  0  0  0  0  0  0
  180.1110  178.7210  142.2510 N   0  0  0  0  0  2  0  0  0  0  0  0
  183.7780  179.0060  143.3880 C   0  0  0  0  0  0  0  0  0  0  0  0
  181.4160  178.8270  142.8300 C   0  0  0  0  0  0  0  0  0  0  0  0
  181.6160  178.8150  144.1660 N   0  0  0  0  0  0  0  0  0  0  0  0
  182.8640  178.9650  141.9770 S   0  0  0  0  0  0  0  0  0  0  0  0
  179.8100  178.7800  140.8240 C   0  0  1  0  0  3  0  0  0  0  0  0
  180.3680  180.3830  139.1210 O   0  0  0  0  0  0  0  0  0  0  0  0
  179.6860  181.2540  141.1260 O   0  0  0  0  0  1  0  0  0  0  0  0
  179.9630  180.1760  140.2970 C   0  0  0  0  0  0  0  0  0  0  0  0
  180.6300  177.8330  140.0840 N   0  0  0  0  0  2  0  0  0  0  0  0
  179.7440  177.1240  139.1730 C   0  0  0  0  0  2  0  0  0  0  0  0
  181.4030  175.7660  136.9410 C   0  0  0  0  0  2  0  0  0  0  0  0
  180.2600  175.7080  138.8870 C   0  0  2  0  0  0  0  0  0  0  0  0
  182.4680  175.5420  137.9860 C   0  0  2  0  0  3  0  0  0  0  0  0
  181.7270  175.6260  139.2860 C   0  0  0  0  0  2  0  0  0  0  0  0
  180.1540  175.4560  137.5030 O   0  0  0  0  0  0  0  0  0  0  0  0
  183.5160  176.6000  137.9010 C   0  0  0  0  0  0  0  0  0  0  0  0
  184.3010  176.7320  136.7610 O   0  0  0  0  0  0  0  0  0  0  0  0
  183.7040  177.3670  138.8800 O   0  0  0  0  0  1  0  0  0  0  0  0
  179.6310  173.3890  139.1420 O   0  0  0  0  0  1  0  0  0  0  0  0
  179.4340  174.6680  139.6680 C   0  0  1  0  0  3  0  0  0  0  0  0
  178.9310  174.3310  141.9530 O   0  0  0  0  0  0  0  0  0  0  0  0
  179.7680  174.6630  141.1310 C   0  0  0  0  0  3  0  0  0  0  0  0
  185.9240  177.8060  143.3380 C   0  0  0  0  0  2  0  0  0  0  0  0
  188.2350  177.2090  144.2990 C   0  0  0  0  0  0  0  0  0  0  0  0
  186.9230  177.6380  144.4300 C   0  0  0  0  0  0  0  0  0  0  0  0
  188.7680  177.2520  145.5740 C   0  0  0  0  0  3  0  0  0  0  0  0
  186.6770  177.9380  145.7170 N   0  0  0  0  0  0  0  0  0  0  0  0
  187.7920  177.6960  146.3880 N   0  0  0  0  0  0  0  0  0  0  0  0
  187.9280  177.8990  147.8190 C   0  0  0  0  0  1  0  0  0  0  0  0
  189.0860  177.7230  141.9950 N   0  0  0  0  0  2  0  0  0  0  0  0
  189.4130  175.6250  142.9920 O   0  0  0  0  0  0  0  0  0  0  0  0
  188.9410  176.7900  143.0760 C   0  0  0  0  0  0  0  0  0  0  0  0
  190.3840  173.7110  137.1960 O   0  0  0  0  0  0  0  0  0  0  0  0
  189.7170  174.7810  137.2180 C   0  0  0  0  0  0  0  0  0  0  0  0
  187.8190  176.9300  137.3890 C   0  0  2  0  0  3  0  0  0  0  0  0
  191.3110  175.9950  138.5840 C   0  0  0  0  0  3  0  0  0  0  0  0
  188.1230  176.2670  136.1150 N   0  0  0  0  0  2  0  0  0  0  0  0
  191.7850  177.1720  139.3650 C   0  0  0  0  0  2  0  0  0  0  0  0
  187.3900  178.3600  137.1020 C   0  0  0  0  0  1  0  0  0  0  0  0
  189.7140  177.4960  140.7250 C   0  0  0  0  0  0  0  0  0  0  0  0
  190.0650  175.8870  138.1150 C   0  0  0  0  0  0  0  0  0  0  0  0
  191.0370  177.3130  140.6440 C   0  0  0  0  0  3  0  0  0  0  0  0
  188.5840  174.9610  136.3660 N   0  0  0  0  0  0  0  0  0  0  0  0
  188.8300  177.5180  139.5380 C   0  0  0  0  0  3  0  0  0  0  0  0
  188.9900  176.8890  138.3590 C   0  0  0  0  0  0  0  0  0  0  0  0
  186.8580  173.1600  137.0610 C   0  0  0  0  0  1  0  0  0  0  0  0
  187.8030  173.5870  135.5710 S   0  0  0  0  0  0  0  0  0  0  0  0
  3  5  1  0  0  0  0
  4  1  1  0  0  0  0
  4  2  2  0  0  0  0
  5  6  2  0  0  0  0
  6  2  1  0  0  0  0
  7  5  1  0  0  0  0
  7  4  1  0  0  0  0
  8 12  1  6  0  0  0
  8  3  1  0  0  0  0
  9 11  2  0  0  0  0
 11  8  1  0  0  0  0
 11 10  1  0  0  0  0
 13 12  1  0  0  0  0
 14 18  1  0  0  0  0
 14 16  1  0  0  0  0
 15 13  1  1  0  0  0
 15 17  1  0  0  0  0
 15 23  1  0  0  0  0
 16 19  1  1  0  0  0
 16 17  1  0  0  0  0
 18 15  1  0  0  0  0
 19 21  1  0  0  0  0
 20 19  2  0  0  0  0
 23 22  1  6  0  0  0
 23 25  1  0  0  0  0
 25 24  2  0  0  0  0
 26  1  1  0  0  0  0
 26 28  1  0  0  0  0
 27 28  1  0  0  0  0
 27 29  2  0  0  0  0
 28 30  2  0  0  0  0
 29 31  1  0  0  0  0
 30 31  1  0  0  0  0
 31 32  1  0  0  0  0
 33 35  1  0  0  0  0
 34 35  2  0  0  0  0
 35 27  1  0  0  0  0
 36 37  2  0  0  0  0
 37 44  1  0  0  0  0
 38 42  1  6  0  0  0
 38 48  1  0  0  0  0
 39 41  1  0  0  0  0
 40 46  1  0  0  0  0
 40 38  1  0  0  0  0
 41 45  1  0  0  0  0
 43 33  1  0  0  0  0
 44 48  1  0  0  0  0
 44 39  2  0  0  0  0
 45 43  2  0  0  0  0
 46 37  1  0  0  0  0
 47 43  1  0  0  0  0
 48 47  2  0  0  0  0
 50 46  1  0  0  0  0
 50 49  1  0  0  0  0
M  END
>  <MODEL>
8

>  <REMARK>
 VINA RESULT:      -7.4      1.397      2.014
  Name = 
  14 active torsions:
  status: ('A' for Active; 'I' for Inactive)
    1  A    between atoms: N_2  and  C_36
    2  A    between atoms: C_7  and  C_44
    3  A    between atoms: C_8  and  C_14
    4  A    between atoms: C_9  and  C_21
    5  A    between atoms: C_9  and  C_33
    6  A    between atoms: C_10  and  C_11
    7  A    between atoms: C_10  and  C_25
    8  A    between atoms: C_11  and  C_19
    9  A    between atoms: N_13  and  C_29
   10  A    between atoms: C_21  and  N_38
   11  A    between atoms: C_22  and  C_29
   12  A    between atoms: C_29  and  N_38
   13  A    between atoms: C_32  and  C_33
   14  A    between atoms: N_42  and  S_46
                            x       y       z     vdW  Elec       q    Type
                         _______ _______ _______ _____ _____    ______ ____

>  <TORSDO>
F 14

$$$$
=
 OpenBabel11032421153D

 50 54  0  0  1  0  0  0  0  0999 V2000
  189.1580  177.3060  143.1180 C   0  0  0  0  0  2  0  0  0  0  0  0
  191.3890  177.8260  141.9890 C   0  0  0  0  0  3  0  0  0  0  0  0
  191.8350  176.7520  138.5760 N   0  0  0  0  0  2  0  0  0  0  0  0
  190.1030  177.3030  141.9690 C   0  0  0  0  0  0  0  0  0  0  0  0
  191.3340  177.0250  139.8880 C   0  0  0  0  0  0  0  0  0  0  0  0
  192.0670  177.6710  140.8210 N   0  0  0  0  0  0  0  0  0  0  0  0
  189.8030  176.6140  140.4640 S   0  0  0  0  0  0  0  0  0  0  0  0
  191.1260  176.0130  137.5340 C   0  0  1  0  0  3  0  0  0  0  0  0
  192.7240  174.2220  137.6620 O   0  0  0  0  0  1  0  0  0  0  0  0
  190.5420  173.5930  137.3690 O   0  0  0  0  0  0  0  0  0  0  0  0
  191.5180  174.5660  137.5380 C   0  0  0  0  0  0  0  0  0  0  0  0
  189.6880  176.1820  137.6710 N   0  0  0  0  0  2  0  0  0  0  0  0
  189.1860  176.6210  136.3780 C   0  0  0  0  0  2  0  0  0  0  0  0
  186.5370  175.4690  135.2660 C   0  0  0  0  0  2  0  0  0  0  0  0
  187.7000  176.9950  136.4570 C   0  0  2  0  0  0  0  0  0  0  0  0
  186.1590  175.1830  136.6980 C   0  0  2  0  0  3  0  0  0  0  0  0
  187.0220  176.1120  137.4960 C   0  0  0  0  0  2  0  0  0  0  0  0
  187.1030  176.7530  135.2020 O   0  0  0  0  0  0  0  0  0  0  0  0
  186.4480  173.7600  137.0420 C   0  0  0  0  0  0  0  0  0  0  0  0
  185.6630  173.0810  137.9680 O   0  0  0  0  0  1  0  0  0  0  0  0
  187.4220  173.1770  136.5030 O   0  0  0  0  0  0  0  0  0  0  0  0
  186.6220  178.6280  137.8740 O   0  0  0  0  0  1  0  0  0  0  0  0
  187.5400  178.4800  136.8300 C   0  0  1  0  0  3  0  0  0  0  0  0
  189.0560  179.4220  138.3790 O   0  0  0  0  0  0  0  0  0  0  0  0
  188.8450  179.1100  137.2200 C   0  0  0  0  0  3  0  0  0  0  0  0
  187.7330  177.1850  142.6160 C   0  0  0  0  0  2  0  0  0  0  0  0
  185.6010  178.4560  143.2970 C   0  0  0  0  0  0  0  0  0  0  0  0
  186.7980  177.8200  143.5870 C   0  0  0  0  0  0  0  0  0  0  0  0
  185.0810  178.8430  144.5170 C   0  0  0  0  0  3  0  0  0  0  0  0
  186.9880  177.8110  144.9180 N   0  0  0  0  0  0  0  0  0  0  0  0
  185.9520  178.4320  145.4580 N   0  0  0  0  0  0  0  0  0  0  0  0
  185.7890  178.6280  146.8870 C   0  0  0  0  0  1  0  0  0  0  0  0
  183.6960  178.1240  141.6980 N   0  0  0  0  0  2  0  0  0  0  0  0
  185.5920  179.3750  141.1140 O   0  0  0  0  0  0  0  0  0  0  0  0
  184.9860  178.6860  141.9780 C   0  0  0  0  0  0  0  0  0  0  0  0
  183.4220  177.1250  135.3940 O   0  0  0  0  0  0  0  0  0  0  0  0
  182.7410  176.6360  136.3360 C   0  0  0  0  0  0  0  0  0  0  0  0
  181.5450  175.1840  138.5060 C   0  0  2  0  0  3  0  0  0  0  0  0
  182.4470  178.7440  137.4990 C   0  0  0  0  0  3  0  0  0  0  0  0
  181.1770  174.9260  137.1090 N   0  0  0  0  0  2  0  0  0  0  0  0
  181.9870  179.5980  138.6300 C   0  0  0  0  0  2  0  0  0  0  0  0
  180.3580  174.8430  139.3920 C   0  0  0  0  0  1  0  0  0  0  0  0
  182.9500  178.2160  140.4750 C   0  0  0  0  0  0  0  0  0  0  0  0
  182.4290  177.4080  137.5420 C   0  0  0  0  0  0  0  0  0  0  0  0
  182.8220  179.3890  139.8440 C   0  0  0  0  0  3  0  0  0  0  0  0
  182.2430  175.2980  136.2690 N   0  0  0  0  0  0  0  0  0  0  0  0
  182.3170  176.9680  139.9930 C   0  0  0  0  0  3  0  0  0  0  0  0
  182.0080  176.6150  138.7310 C   0  0  0  0  0  0  0  0  0  0  0  0
  182.2540  172.7170  136.0480 C   0  0  0  0  0  1  0  0  0  0  0  0
  182.8920  174.1330  135.1070 S   0  0  0  0  0  0  0  0  0  0  0  0
  3  5  1  0  0  0  0
  4  2  2  0  0  0  0
  4  1  1  0  0  0  0
  5  7  1  0  0  0  0
  5  6  2  0  0  0  0
  6  2  1  0  0  0  0
  7  4  1  0  0  0  0
  8 11  1  1  0  0  0
  8 12  1  0  0  0  0
  8  3  1  0  0  0  0
 10 11  2  0  0  0  0
 11  9  1  0  0  0  0
 13 12  1  0  0  0  0
 14 16  1  0  0  0  0
 15 13  1  6  0  0  0
 15 23  1  0  0  0  0
 15 17  1  0  0  0  0
 16 19  1  1  0  0  0
 16 17  1  0  0  0  0
 18 14  1  0  0  0  0
 18 15  1  0  0  0  0
 19 20  1  0  0  0  0
 21 19  2  0  0  0  0
 23 25  1  0  0  0  0
 23 22  1  1  0  0  0
 25 24  2  0  0  0  0
 26  1  1  0  0  0  0
 26 28  1  0  0  0  0
 27 28  1  0  0  0  0
 27 29  2  0  0  0  0
 28 30  2  0  0  0  0
 29 31  1  0  0  0  0
 30 31  1  0  0  0  0
 31 32  1  0  0  0  0
 33 35  1  0  0  0  0
 34 35  2  0  0  0  0
 35 27  1  0  0  0  0
 36 37  2  0  0  0  0
 37 44  1  0  0  0  0
 38 48  1  0  0  0  0
 38 42  1  1  0  0  0
 39 44  2  0  0  0  0
 39 41  1  0  0  0  0
 40 38  1  0  0  0  0
 41 45  1  0  0  0  0
 43 33  1  0  0  0  0
 44 48  1  0  0  0  0
 45 43  2  0  0  0  0
 46 37  1  0  0  0  0
 46 40  1  0  0  0  0
 47 43  1  0  0  0  0
 48 47  2  0  0  0  0
 50 49  1  0  0  0  0
 50 46  1  0  0  0  0
M  END
>  <MODEL>
9

>  <REMARK>
 VINA RESULT:      -7.3      2.773      7.714
  Name = 
  14 active torsions:
  status: ('A' for Active; 'I' for Inactive)
    1  A    between atoms: N_2  and  C_36
    2  A    between atoms: C_7  and  C_44
    3  A    between atoms: C_8  and  C_14
    4  A    between atoms: C_9  and  C_21
    5  A    between atoms: C_9  and  C_33
    6  A    between atoms: C_10  and  C_11
    7  A    between atoms: C_10  and  C_25
    8  A    between atoms: C_11  and  C_19
    9  A    between atoms: N_13  and  C_29
   10  A    between atoms: C_21  and  N_38
   11  A    between atoms: C_22  and  C_29
   12  A    between atoms: C_29  and  N_38
   13  A    between atoms: C_32  and  C_33
   14  A    between atoms: N_42  and  S_46
                            x       y       z     vdW  Elec       q    Type
                         _______ _______ _______ _____ _____    ______ ____

>  <TORSDO>
F 14

$$$$
