=
 OpenBabel11042413343D

 41 45  0  0  1  0  0  0  0  0999 V2000
  180.8540  179.2350  142.1190 C   0  0  1  0  0  3  0  0  0  0  0  0
  183.5910  177.9750  140.1710 C   0  0  0  0  0  0  0  0  0  0  0  0
  180.4340  178.3320  139.7510 N   0  0  0  0  0  2  0  0  0  0  0  0
  182.2780  177.6790  138.2710 C   0  0  2  0  0  3  0  0  0  0  0  0
  181.1440  178.5440  141.0180 C   0  0  2  0  0  0  0  0  0  0  0  0
  183.6460  177.9510  138.8540 C   0  0  0  0  0  0  0  0  0  0  0  0
  186.0510  178.4000  140.3240 C   0  0  0  0  0  0  0  0  0  0  0  0
  186.0930  178.2970  138.8840 N   0  0  0  0  0  0  0  0  0  0  0  0
  181.4170  177.3580  139.5170 C   0  0  1  0  0  0  0  0  0  0  0  0
  187.1240  178.5240  140.9740 O   0  0  0  0  0  0  0  0  0  0  0  0
  179.5890  180.0150  142.1850 C   0  0  0  0  0  1  0  0  0  0  0  0
  184.5720  178.4730  142.2960 N   0  0  0  0  0  0  0  0  0  0  0  0
  184.8630  178.3560  138.0730 C   0  0  0  0  0  2  0  0  0  0  0  0
  184.7400  178.2990  141.0180 C   0  0  0  0  0  0  0  0  0  0  0  0
  182.2690  177.7040  140.5690 N   0  0  0  0  0  0  0  0  0  0  0  0
  182.3350  176.5570  137.4430 O   0  0  0  0  0  1  0  0  0  0  0  0
  182.3210  179.0670  144.3100 C   0  0  0  0  0  3  0  0  0  0  0  0
  181.6660  179.1380  143.3000 C   0  0  0  0  0  0  0  0  0  0  0  0
  187.3900  178.2980  138.2110 C   0  0  2  0  0  3  0  0  0  0  0  0
  187.2920  178.9920  136.8610 C   0  0  0  0  0  1  0  0  0  0  0  0
  187.9180  176.8790  138.0540 C   0  0  0  0  0  2  0  0  0  0  0  0
  189.3650  176.8720  138.1760 N   0  0  0  0  0  2  0  0  0  0  0  0
  189.9690  177.3010  139.3640 N   0  0  0  0  0  0  0  0  0  0  0  0
  192.0880  176.3770  138.6170 C   0  0  0  0  0  1  0  0  0  0  0  0
  191.2240  177.0910  139.6140 C   0  0  0  0  0  0  0  0  0  0  0  0
  191.7460  177.5470  140.8280 O   0  0  0  0  0  0  0  0  0  0  0  0
  189.7300  178.3480  142.5820 O   0  0  0  0  0  1  0  0  0  0  0  0
  190.3920  175.6770  142.3790 O   0  0  0  0  0  0  0  0  0  0  0  0
  190.9990  177.2540  142.3510 P   0  0  0  0  0  0  0  0  0  0  0  0
  192.0150  177.4170  143.4580 O   0  0  0  0  0  1  0  0  0  0  0  0
  185.6000  178.8490  143.2620 C   0  0  0  0  0  2  0  0  0  0  0  0
  187.2020  177.5430  146.2280 N   0  0  0  0  0  0  0  0  0  0  0  0
  185.0660  178.4710  145.6540 C   0  0  0  0  0  2  0  0  0  0  0  0
  187.0880  177.5170  144.7730 C   0  0  0  0  0  2  0  0  0  0  0  0
  185.6530  177.8500  144.4120 C   0  0  2  0  0  3  0  0  0  0  0  0
  186.2090  178.5270  146.6440 C   0  0  0  0  0  2  0  0  0  0  0  0
  188.6850  178.1380  148.1020 C   0  0  0  0  0  1  0  0  0  0  0  0
  188.5410  178.0310  146.5870 C   0  0  1  0  0  3  0  0  0  0  0  0
  189.6180  177.0710  146.0760 C   0  0  0  0  0  2  0  0  0  0  0  0
  190.5800  176.6760  147.1840 C   0  0  0  0  0  2  0  0  0  0  0  0
  191.8950  176.9090  146.7810 O   0  0  0  0  0  1  0  0  0  0  0  0
  1 11  1  1  0  0  0
  1 18  1  0  0  0  0
  2 15  1  0  0  0  0
  2 14  1  0  0  0  0
  3  5  1  0  0  0  0
  4 16  1  6  0  0  0
  4  6  1  0  0  0  0
  4  9  1  0  0  0  0
  5  1  1  1  0  0  0
  6  2  2  0  0  0  0
  7 10  2  0  0  0  0
  7 14  1  0  0  0  0
  8  7  1  0  0  0  0
  9  3  1  1  0  0  0
  9 15  1  0  0  0  0
  9  5  1  0  0  0  0
 12 31  1  0  0  0  0
 13  6  1  0  0  0  0
 13  8  1  0  0  0  0
 14 12  2  0  0  0  0
 15  5  1  0  0  0  0
 18 17  3  0  0  0  0
 19 20  1  6  0  0  0
 19  8  1  0  0  0  0
 21 22  1  0  0  0  0
 21 19  1  0  0  0  0
 22 23  1  0  0  0  0
 23 25  2  0  0  0  0
 24 25  1  0  0  0  0
 25 26  1  0  0  0  0
 26 29  1  0  0  0  0
 29 28  2  0  0  0  0
 29 27  1  0  0  0  0
 29 30  1  0  0  0  0
 32 38  1  0  0  0  0
 32 36  1  0  0  0  0
 33 36  1  0  0  0  0
 34 32  1  0  0  0  0
 35 31  1  6  0  0  0
 35 34  1  0  0  0  0
 35 33  1  0  0  0  0
 38 37  1  1  0  0  0
 39 38  1  0  0  0  0
 39 40  1  0  0  0  0
 41 40  1  0  0  0  0
M  END
>  <MODEL>
1

>  <REMARK>
 VINA RESULT:      -8.1      0.000      0.000
  Name = 
  12 active torsions:
  status: ('A' for Active; 'I' for Inactive)
    1  A    between atoms: N_1  and  C_31
    2  A    between atoms: C_3  and  C_8
    3  A    between atoms: C_6  and  N_32
    4  A    between atoms: C_6  and  C_38
    5  A    between atoms: N_7  and  N_21
    6  A    between atoms: C_10  and  N_17
    7  A    between atoms: C_10  and  C_39
    8  A    between atoms: C_12  and  C_24
    9  A    between atoms: C_12  and  C_31
   10  A    between atoms: O_18  and  P_19
   11  A    between atoms: O_18  and  C_23
   12  A    between atoms: N_21  and  C_39
                            x       y       z     vdW  Elec       q    Type
                         _______ _______ _______ _____ _____    ______ ____

>  <TORSDO>
F 12

$$$$
=
 OpenBabel11042413343D

 41 45  0  0  1  0  0  0  0  0999 V2000
  190.6080  176.0570  138.0900 C   0  0  1  0  0  3  0  0  0  0  0  0
  187.5340  177.9070  138.1470 C   0  0  0  0  0  0  0  0  0  0  0  0
  189.1600  176.2050  135.9730 N   0  0  0  0  0  2  0  0  0  0  0  0
  186.9380  177.2440  135.9960 C   0  0  2  0  0  3  0  0  0  0  0  0
  189.6600  176.5660  137.3050 C   0  0  2  0  0  0  0  0  0  0  0  0
  186.4920  177.6840  137.3720 C   0  0  0  0  0  0  0  0  0  0  0  0
  186.0510  178.5740  140.0470 C   0  0  0  0  0  0  0  0  0  0  0  0
  184.9320  178.3900  139.1530 N   0  0  0  0  0  0  0  0  0  0  0  0
  188.4740  177.4270  136.0440 C   0  0  1  0  0  0  0  0  0  0  0  0
  185.8590  179.0380  141.2040 O   0  0  0  0  0  0  0  0  0  0  0  0
  191.3650  174.8570  137.6440 C   0  0  0  0  0  1  0  0  0  0  0  0
  188.4890  178.3010  140.3050 N   0  0  0  0  0  0  0  0  0  0  0  0
  185.0780  177.6660  137.8770 C   0  0  0  0  0  2  0  0  0  0  0  0
  187.4220  178.2660  139.5620 C   0  0  0  0  0  0  0  0  0  0  0  0
  188.7040  177.6850  137.3980 N   0  0  0  0  0  0  0  0  0  0  0  0
  186.3970  178.0940  135.0320 O   0  0  0  0  0  1  0  0  0  0  0  0
  191.3830  177.2550  140.3130 C   0  0  0  0  0  3  0  0  0  0  0  0
  191.0130  176.7180  139.2990 C   0  0  0  0  0  0  0  0  0  0  0  0
  183.5970  178.7870  139.5980 C   0  0  2  0  0  3  0  0  0  0  0  0
  182.9760  177.6990  140.4620 C   0  0  0  0  0  1  0  0  0  0  0  0
  182.7050  179.1100  138.4090 C   0  0  0  0  0  2  0  0  0  0  0  0
  181.8240  180.2160  138.7350 N   0  0  0  0  0  2  0  0  0  0  0  0
  181.5060  181.1700  137.7610 N   0  0  0  0  0  0  0  0  0  0  0  0
  179.6930  181.9890  139.1560 C   0  0  0  0  0  1  0  0  0  0  0  0
  180.5270  182.0080  137.9090 C   0  0  0  0  0  0  0  0  0  0  0  0
  180.2730  182.9230  136.8830 O   0  0  0  0  0  0  0  0  0  0  0  0
  179.8490  185.5650  137.6720 O   0  0  0  0  0  1  0  0  0  0  0  0
  182.4090  184.5380  137.6400 O   0  0  0  0  0  1  0  0  0  0  0  0
  180.9070  184.5240  136.8640 P   0  0  0  0  0  0  0  0  0  0  0  0
  181.0790  184.9870  135.4350 O   0  0  0  0  0  0  0  0  0  0  0  0
  188.5380  178.5870  141.7360 C   0  0  0  0  0  2  0  0  0  0  0  0
  189.2020  176.8340  144.8270 N   0  0  0  0  0  0  0  0  0  0  0  0
  187.3340  177.1480  143.3570 C   0  0  0  0  0  2  0  0  0  0  0  0
  189.7200  177.3440  143.5610 C   0  0  0  0  0  2  0  0  0  0  0  0
  188.5950  177.2970  142.5450 C   0  0  2  0  0  3  0  0  0  0  0  0
  187.7870  177.1860  144.7990 C   0  0  0  0  0  2  0  0  0  0  0  0
  189.1220  177.3060  147.2430 C   0  0  0  0  0  1  0  0  0  0  0  0
  189.8550  177.5550  145.9290 C   0  0  1  0  0  3  0  0  0  0  0  0
  191.3010  177.0840  146.0970 C   0  0  0  0  0  2  0  0  0  0  0  0
  191.4340  176.1020  147.2490 C   0  0  0  0  0  2  0  0  0  0  0  0
  192.4840  176.4850  148.0850 O   0  0  0  0  0  1  0  0  0  0  0  0
  1 11  1  6  0  0  0
  1 18  1  0  0  0  0
  2 14  1  0  0  0  0
  3  5  1  0  0  0  0
  4 16  1  6  0  0  0
  4  9  1  0  0  0  0
  4  6  1  0  0  0  0
  5 15  1  0  0  0  0
  5  1  1  6  0  0  0
  6 13  1  0  0  0  0
  6  2  2  0  0  0  0
  7 10  2  0  0  0  0
  8 19  1  0  0  0  0
  8  7  1  0  0  0  0
  9  3  1  6  0  0  0
  9  5  1  0  0  0  0
  9 15  1  0  0  0  0
 12 31  1  0  0  0  0
 13  8  1  0  0  0  0
 14  7  1  0  0  0  0
 14 12  2  0  0  0  0
 15  2  1  0  0  0  0
 18 17  3  0  0  0  0
 19 20  1  6  0  0  0
 21 22  1  0  0  0  0
 21 19  1  0  0  0  0
 23 25  2  0  0  0  0
 23 22  1  0  0  0  0
 25 24  1  0  0  0  0
 26 25  1  0  0  0  0
 29 26  1  0  0  0  0
 29 28  1  0  0  0  0
 29 27  1  0  0  0  0
 30 29  2  0  0  0  0
 32 38  1  0  0  0  0
 33 36  1  0  0  0  0
 34 32  1  0  0  0  0
 35 31  1  1  0  0  0
 35 33  1  0  0  0  0
 35 34  1  0  0  0  0
 36 32  1  0  0  0  0
 38 39  1  0  0  0  0
 38 37  1  1  0  0  0
 39 40  1  0  0  0  0
 40 41  1  0  0  0  0
M  END
>  <MODEL>
2

>  <REMARK>
 VINA RESULT:      -7.9      3.880      7.819
  Name = 
  12 active torsions:
  status: ('A' for Active; 'I' for Inactive)
    1  A    between atoms: N_1  and  C_31
    2  A    between atoms: C_3  and  C_8
    3  A    between atoms: C_6  and  N_32
    4  A    between atoms: C_6  and  C_38
    5  A    between atoms: N_7  and  N_21
    6  A    between atoms: C_10  and  N_17
    7  A    between atoms: C_10  and  C_39
    8  A    between atoms: C_12  and  C_24
    9  A    between atoms: C_12  and  C_31
   10  A    between atoms: O_18  and  P_19
   11  A    between atoms: O_18  and  C_23
   12  A    between atoms: N_21  and  C_39
                            x       y       z     vdW  Elec       q    Type
                         _______ _______ _______ _____ _____    ______ ____

>  <TORSDO>
F 12

$$$$
=
 OpenBabel11042413343D

 41 45  0  0  1  0  0  0  0  0999 V2000
  187.2650  177.7070  145.5920 C   0  0  1  0  0  3  0  0  0  0  0  0
  188.6720  178.0380  142.3070 C   0  0  0  0  0  0  0  0  0  0  0  0
  189.7200  177.0730  145.1780 N   0  0  0  0  0  2  0  0  0  0  0  0
  190.6850  177.0420  142.9230 C   0  0  2  0  0  3  0  0  0  0  0  0
  188.4180  177.7020  144.9250 C   0  0  2  0  0  0  0  0  0  0  0  0
  189.6790  177.3340  141.8320 C   0  0  0  0  0  0  0  0  0  0  0  0
  187.5880  178.1180  140.0550 C   0  0  0  0  0  0  0  0  0  0  0  0
  188.7390  177.4080  139.5480 N   0  0  0  0  0  0  0  0  0  0  0  0
  190.1660  177.8780  144.1180 C   0  0  1  0  0  0  0  0  0  0  0  0
  186.7020  178.5270  139.2560 O   0  0  0  0  0  0  0  0  0  0  0  0
  187.1420  176.9280  146.8540 C   0  0  0  0  0  1  0  0  0  0  0  0
  186.4690  178.9480  142.0910 N   0  0  0  0  0  0  0  0  0  0  0  0
  189.6890  176.7370  140.4540 C   0  0  0  0  0  2  0  0  0  0  0  0
  187.5000  178.4040  141.5110 C   0  0  0  0  0  0  0  0  0  0  0  0
  188.9110  178.2970  143.6690 N   0  0  0  0  0  0  0  0  0  0  0  0
  191.9420  177.5090  142.5400 O   0  0  0  0  0  1  0  0  0  0  0  0
  185.2700  179.2900  144.8910 C   0  0  0  0  0  3  0  0  0  0  0  0
  186.1760  178.5560  145.1970 C   0  0  0  0  0  0  0  0  0  0  0  0
  188.8720  177.2140  138.1050 C   0  0  2  0  0  3  0  0  0  0  0  0
  187.9360  176.1150  137.6250 C   0  0  0  0  0  1  0  0  0  0  0  0
  190.3140  176.8990  137.7340 C   0  0  0  0  0  2  0  0  0  0  0  0
  190.4290  175.5110  137.3240 N   0  0  0  0  0  2  0  0  0  0  0  0
  191.5280  174.7470  137.7370 N   0  0  0  0  0  0  0  0  0  0  0  0
  192.4710  174.9000  135.5030 C   0  0  0  0  0  1  0  0  0  0  0  0
  192.4940  174.4360  136.9300 C   0  0  0  0  0  0  0  0  0  0  0  0
  193.5510  173.6650  137.4220 O   0  0  0  0  0  0  0  0  0  0  0  0
  195.7290  173.2190  139.1070 O   0  0  0  0  0  1  0  0  0  0  0  0
  196.0510  174.7240  136.8180 O   0  0  0  0  0  0  0  0  0  0  0  0
  194.9920  174.3400  138.0780 P   0  0  0  0  0  0  0  0  0  0  0  0
  194.6610  175.5960  138.8520 O   0  0  0  0  0  1  0  0  0  0  0  0
  185.2110  179.3200  141.4500 C   0  0  0  0  0  2  0  0  0  0  0  0
  181.7440  178.3360  141.7370 N   0  0  0  0  0  0  0  0  0  0  0  0
  183.6210  177.7630  140.3560 C   0  0  0  0  0  2  0  0  0  0  0  0
  182.9470  178.8310  142.4000 C   0  0  0  0  0  2  0  0  0  0  0  0
  184.1490  178.2520  141.6810 C   0  0  2  0  0  3  0  0  0  0  0  0
  182.1580  178.1470  140.3500 C   0  0  0  0  0  2  0  0  0  0  0  0
  180.2440  179.7480  140.3880 C   0  0  0  0  0  1  0  0  0  0  0  0
  180.7100  179.3790  141.7920 C   0  0  1  0  0  3  0  0  0  0  0  0
  179.4950  178.8890  142.5820 C   0  0  0  0  0  2  0  0  0  0  0  0
  179.8260  178.7040  144.0530 C   0  0  0  0  0  2  0  0  0  0  0  0
  179.6700  177.3660  144.4150 O   0  0  0  0  0  1  0  0  0  0  0  0
  1 11  1  1  0  0  0
  2 15  1  0  0  0  0
  4 16  1  6  0  0  0
  4  9  1  0  0  0  0
  5  3  1  0  0  0  0
  5  1  1  1  0  0  0
  6  2  2  0  0  0  0
  6  4  1  0  0  0  0
  7 14  1  0  0  0  0
  8  7  1  0  0  0  0
  8 13  1  0  0  0  0
  9  5  1  0  0  0  0
  9  3  1  1  0  0  0
 10  7  2  0  0  0  0
 13  6  1  0  0  0  0
 14 12  2  0  0  0  0
 14  2  1  0  0  0  0
 15  9  1  0  0  0  0
 15  5  1  0  0  0  0
 17 18  3  0  0  0  0
 18  1  1  0  0  0  0
 19 20  1  1  0  0  0
 19  8  1  0  0  0  0
 21 19  1  0  0  0  0
 22 21  1  0  0  0  0
 22 23  1  0  0  0  0
 24 25  1  0  0  0  0
 25 26  1  0  0  0  0
 25 23  2  0  0  0  0
 26 29  1  0  0  0  0
 28 29  2  0  0  0  0
 29 30  1  0  0  0  0
 29 27  1  0  0  0  0
 31 12  1  0  0  0  0
 32 38  1  0  0  0  0
 32 34  1  0  0  0  0
 33 35  1  0  0  0  0
 35 31  1  6  0  0  0
 35 34  1  0  0  0  0
 36 33  1  0  0  0  0
 36 32  1  0  0  0  0
 38 37  1  6  0  0  0
 38 39  1  0  0  0  0
 39 40  1  0  0  0  0
 40 41  1  0  0  0  0
M  END
>  <MODEL>
3

>  <REMARK>
 VINA RESULT:      -7.7      2.951      6.918
  Name = 
  12 active torsions:
  status: ('A' for Active; 'I' for Inactive)
    1  A    between atoms: N_1  and  C_31
    2  A    between atoms: C_3  and  C_8
    3  A    between atoms: C_6  and  N_32
    4  A    between atoms: C_6  and  C_38
    5  A    between atoms: N_7  and  N_21
    6  A    between atoms: C_10  and  N_17
    7  A    between atoms: C_10  and  C_39
    8  A    between atoms: C_12  and  C_24
    9  A    between atoms: C_12  and  C_31
   10  A    between atoms: O_18  and  P_19
   11  A    between atoms: O_18  and  C_23
   12  A    between atoms: N_21  and  C_39
                            x       y       z     vdW  Elec       q    Type
                         _______ _______ _______ _____ _____    ______ ____

>  <TORSDO>
F 12

$$$$
=
 OpenBabel11042413343D

 41 45  0  0  1  0  0  0  0  0999 V2000
  181.3090  179.1600  142.6730 C   0  0  1  0  0  3  0  0  0  0  0  0
  183.7970  177.9150  140.4060 C   0  0  0  0  0  0  0  0  0  0  0  0
  180.6120  178.2730  140.3650 N   0  0  0  0  0  2  0  0  0  0  0  0
  182.2680  177.6310  138.6730 C   0  0  2  0  0  3  0  0  0  0  0  0
  181.4670  178.4770  141.5410 C   0  0  2  0  0  0  0  0  0  0  0  0
  183.6960  177.9000  139.0930 C   0  0  0  0  0  0  0  0  0  0  0  0
  186.2570  178.3400  140.2710 C   0  0  0  0  0  0  0  0  0  0  0  0
  186.1290  178.2470  138.8350 N   0  0  0  0  0  0  0  0  0  0  0  0
  181.5600  177.3010  140.0090 C   0  0  1  0  0  0  0  0  0  0  0  0
  187.4000  178.4600  140.7910 O   0  0  0  0  0  0  0  0  0  0  0  0
  180.0610  179.9390  142.8940 C   0  0  0  0  0  1  0  0  0  0  0  0
  185.0210  178.3990  142.4050 N   0  0  0  0  0  0  0  0  0  0  0  0
  184.8110  178.3120  138.1760 C   0  0  0  0  0  2  0  0  0  0  0  0
  185.0380  178.2330  141.1140 C   0  0  0  0  0  0  0  0  0  0  0  0
  182.5310  177.6410  140.9560 N   0  0  0  0  0  0  0  0  0  0  0  0
  182.2260  176.5160  137.8360 O   0  0  0  0  0  1  0  0  0  0  0  0
  183.0540  179.0010  144.6500 C   0  0  0  0  0  3  0  0  0  0  0  0
  182.2550  179.0550  143.7490 C   0  0  0  0  0  0  0  0  0  0  0  0
  187.3380  178.2530  138.0140 C   0  0  2  0  0  3  0  0  0  0  0  0
  187.1250  179.0830  136.7560 C   0  0  0  0  0  1  0  0  0  0  0  0
  187.7590  176.8340  137.6630 C   0  0  0  0  0  2  0  0  0  0  0  0
  189.0350  176.5270  138.2830 N   0  0  0  0  0  2  0  0  0  0  0  0
  190.2250  176.7130  137.5680 N   0  0  0  0  0  0  0  0  0  0  0  0
  190.3840  174.3150  137.2150 C   0  0  0  0  0  1  0  0  0  0  0  0
  190.8860  175.7200  137.0600 C   0  0  0  0  0  0  0  0  0  0  0  0
  192.0680  175.9940  136.3660 O   0  0  0  0  0  0  0  0  0  0  0  0
  194.7420  176.7430  136.0970 O   0  0  0  0  0  0  0  0  0  0  0  0
  193.5580  176.7530  138.5890 O   0  0  0  0  0  1  0  0  0  0  0  0
  193.6260  175.9600  137.0980 P   0  0  0  0  0  0  0  0  0  0  0  0
  194.0580  174.5280  137.3140 O   0  0  0  0  0  1  0  0  0  0  0  0
  186.1570  178.7690  143.2450 C   0  0  0  0  0  2  0  0  0  0  0  0
  188.6310  177.1640  145.3360 N   0  0  0  0  0  0  0  0  0  0  0  0
  186.3400  177.8440  145.5390 C   0  0  0  0  0  2  0  0  0  0  0  0
  188.1240  177.4100  143.9890 C   0  0  0  0  0  2  0  0  0  0  0  0
  186.6200  177.5820  144.0810 C   0  0  2  0  0  3  0  0  0  0  0  0
  187.6990  177.8790  146.2010 C   0  0  0  0  0  2  0  0  0  0  0  0
  190.9810  176.7430  145.9400 C   0  0  0  0  0  1  0  0  0  0  0  0
  189.9630  177.7720  145.4580 C   0  0  1  0  0  3  0  0  0  0  0  0
  190.4350  178.3070  144.1050 C   0  0  0  0  0  2  0  0  0  0  0  0
  191.6780  177.5770  143.6230 C   0  0  0  0  0  2  0  0  0  0  0  0
  191.6810  177.5060  142.2290 O   0  0  0  0  0  1  0  0  0  0  0  0
  1 11  1  1  0  0  0
  1 18  1  0  0  0  0
  2 15  1  0  0  0  0
  2 14  1  0  0  0  0
  3  5  1  0  0  0  0
  4 16  1  6  0  0  0
  4  6  1  0  0  0  0
  4  9  1  0  0  0  0
  5  1  1  1  0  0  0
  6  2  2  0  0  0  0
  7 10  2  0  0  0  0
  7 14  1  0  0  0  0
  8  7  1  0  0  0  0
  9  3  1  1  0  0  0
  9 15  1  0  0  0  0
  9  5  1  0  0  0  0
 12 31  1  0  0  0  0
 13  8  1  0  0  0  0
 13  6  1  0  0  0  0
 14 12  2  0  0  0  0
 15  5  1  0  0  0  0
 18 17  3  0  0  0  0
 19 20  1  6  0  0  0
 19  8  1  0  0  0  0
 21 19  1  0  0  0  0
 21 22  1  0  0  0  0
 23 22  1  0  0  0  0
 25 24  1  0  0  0  0
 25 23  2  0  0  0  0
 26 25  1  0  0  0  0
 26 29  1  0  0  0  0
 27 29  2  0  0  0  0
 29 30  1  0  0  0  0
 29 28  1  0  0  0  0
 32 38  1  0  0  0  0
 32 36  1  0  0  0  0
 33 36  1  0  0  0  0
 34 35  1  0  0  0  0
 34 32  1  0  0  0  0
 35 31  1  6  0  0  0
 35 33  1  0  0  0  0
 38 37  1  6  0  0  0
 39 38  1  0  0  0  0
 40 39  1  0  0  0  0
 41 40  1  0  0  0  0
M  END
>  <MODEL>
4

>  <REMARK>
 VINA RESULT:      -7.4      2.064      2.700
  Name = 
  12 active torsions:
  status: ('A' for Active; 'I' for Inactive)
    1  A    between atoms: N_1  and  C_31
    2  A    between atoms: C_3  and  C_8
    3  A    between atoms: C_6  and  N_32
    4  A    between atoms: C_6  and  C_38
    5  A    between atoms: N_7  and  N_21
    6  A    between atoms: C_10  and  N_17
    7  A    between atoms: C_10  and  C_39
    8  A    between atoms: C_12  and  C_24
    9  A    between atoms: C_12  and  C_31
   10  A    between atoms: O_18  and  P_19
   11  A    between atoms: O_18  and  C_23
   12  A    between atoms: N_21  and  C_39
                            x       y       z     vdW  Elec       q    Type
                         _______ _______ _______ _____ _____    ______ ____

>  <TORSDO>
F 12

$$$$
=
 OpenBabel11042413343D

 41 45  0  0  1  0  0  0  0  0999 V2000
  181.1820  179.2900  142.5320 C   0  0  1  0  0  3  0  0  0  0  0  0
  183.4250  177.9160  140.0920 C   0  0  0  0  0  0  0  0  0  0  0  0
  180.2680  178.4290  140.2920 N   0  0  0  0  0  2  0  0  0  0  0  0
  181.7560  177.6990  138.4830 C   0  0  2  0  0  3  0  0  0  0  0  0
  181.2190  178.5960  141.3970 C   0  0  2  0  0  0  0  0  0  0  0  0
  183.2230  177.9000  138.7900 C   0  0  0  0  0  0  0  0  0  0  0  0
  185.8850  178.2190  139.7640 C   0  0  0  0  0  0  0  0  0  0  0  0
  185.6430  178.1270  138.3440 N   0  0  0  0  0  0  0  0  0  0  0  0
  181.1370  177.4100  139.8720 C   0  0  1  0  0  0  0  0  0  0  0  0
  187.0690  178.2860  140.1950 O   0  0  0  0  0  0  0  0  0  0  0  0
  179.9940  180.1300  142.8410 C   0  0  0  0  0  1  0  0  0  0  0  0
  184.8220  178.3480  141.9860 N   0  0  0  0  0  0  0  0  0  0  0  0
  184.2830  178.2520  137.7870 C   0  0  0  0  0  2  0  0  0  0  0  0
  184.7310  178.1760  140.7000 C   0  0  0  0  0  0  0  0  0  0  0  0
  182.1930  177.7060  140.7380 N   0  0  0  0  0  0  0  0  0  0  0  0
  181.5960  176.5840  137.6600 O   0  0  0  0  0  1  0  0  0  0  0  0
  183.0760  179.0030  144.3510 C   0  0  0  0  0  3  0  0  0  0  0  0
  182.2020  179.1440  143.5330 C   0  0  0  0  0  0  0  0  0  0  0  0
  186.7840  178.0700  137.4320 C   0  0  2  0  0  3  0  0  0  0  0  0
  187.1880  179.4700  136.9940 C   0  0  0  0  0  1  0  0  0  0  0  0
  186.4700  177.1940  136.2280 C   0  0  0  0  0  2  0  0  0  0  0  0
  187.2210  175.9550  136.3070 N   0  0  0  0  0  2  0  0  0  0  0  0
  188.0990  175.7350  137.3750 N   0  0  0  0  0  0  0  0  0  0  0  0
  189.9900  176.0200  135.8770 C   0  0  0  0  0  1  0  0  0  0  0  0
  189.3870  175.7510  137.2240 C   0  0  0  0  0  0  0  0  0  0  0  0
  190.1910  175.5150  138.3430 O   0  0  0  0  0  0  0  0  0  0  0  0
  192.3650  176.9430  139.3510 O   0  0  0  0  0  1  0  0  0  0  0  0
  189.9370  178.2050  139.0030 O   0  0  0  0  0  0  0  0  0  0  0  0
  190.6870  176.7530  139.4320 P   0  0  0  0  0  0  0  0  0  0  0  0
  190.2870  176.3820  140.8420 O   0  0  0  0  0  1  0  0  0  0  0  0
  186.0350  178.6650  142.7340 C   0  0  0  0  0  2  0  0  0  0  0  0
  188.5220  176.8580  144.6370 N   0  0  0  0  0  0  0  0  0  0  0  0
  186.4430  177.9690  145.0790 C   0  0  0  0  0  2  0  0  0  0  0  0
  187.8450  177.0510  143.3570 C   0  0  0  0  0  2  0  0  0  0  0  0
  186.4280  177.5070  143.6440 C   0  0  2  0  0  3  0  0  0  0  0  0
  187.8800  177.8210  145.5250 C   0  0  0  0  0  2  0  0  0  0  0  0
  190.0820  178.4750  143.6280 C   0  0  0  0  0  1  0  0  0  0  0  0
  189.9380  177.2180  144.4800 C   0  0  1  0  0  3  0  0  0  0  0  0
  190.5770  177.4940  145.8420 C   0  0  0  0  0  2  0  0  0  0  0  0
  191.6810  176.4960  146.1510 C   0  0  0  0  0  2  0  0  0  0  0  0
  192.0560  176.5960  147.4910 O   0  0  0  0  0  1  0  0  0  0  0  0
  1 11  1  1  0  0  0
  1 18  1  0  0  0  0
  2 14  1  0  0  0  0
  2 15  1  0  0  0  0
  3  5  1  0  0  0  0
  4 16  1  6  0  0  0
  4  6  1  0  0  0  0
  4  9  1  0  0  0  0
  5  1  1  1  0  0  0
  6  2  2  0  0  0  0
  7 10  2  0  0  0  0
  7 14  1  0  0  0  0
  8  7  1  0  0  0  0
  9  3  1  1  0  0  0
  9 15  1  0  0  0  0
  9  5  1  0  0  0  0
 12 31  1  0  0  0  0
 13  8  1  0  0  0  0
 13  6  1  0  0  0  0
 14 12  2  0  0  0  0
 15  5  1  0  0  0  0
 18 17  3  0  0  0  0
 19 20  1  6  0  0  0
 19  8  1  0  0  0  0
 21 22  1  0  0  0  0
 21 19  1  0  0  0  0
 22 23  1  0  0  0  0
 24 25  1  0  0  0  0
 25 23  2  0  0  0  0
 25 26  1  0  0  0  0
 26 29  1  0  0  0  0
 27 29  1  0  0  0  0
 28 29  2  0  0  0  0
 29 30  1  0  0  0  0
 32 36  1  0  0  0  0
 33 36  1  0  0  0  0
 34 35  1  0  0  0  0
 34 32  1  0  0  0  0
 35 31  1  6  0  0  0
 35 33  1  0  0  0  0
 38 37  1  6  0  0  0
 38 32  1  0  0  0  0
 38 39  1  0  0  0  0
 39 40  1  0  0  0  0
 40 41  1  0  0  0  0
M  END
>  <MODEL>
5

>  <REMARK>
 VINA RESULT:      -7.4      1.581      2.060
  Name = 
  12 active torsions:
  status: ('A' for Active; 'I' for Inactive)
    1  A    between atoms: N_1  and  C_31
    2  A    between atoms: C_3  and  C_8
    3  A    between atoms: C_6  and  N_32
    4  A    between atoms: C_6  and  C_38
    5  A    between atoms: N_7  and  N_21
    6  A    between atoms: C_10  and  N_17
    7  A    between atoms: C_10  and  C_39
    8  A    between atoms: C_12  and  C_24
    9  A    between atoms: C_12  and  C_31
   10  A    between atoms: O_18  and  P_19
   11  A    between atoms: O_18  and  C_23
   12  A    between atoms: N_21  and  C_39
                            x       y       z     vdW  Elec       q    Type
                         _______ _______ _______ _____ _____    ______ ____

>  <TORSDO>
F 12

$$$$
=
 OpenBabel11042413343D

 41 45  0  0  1  0  0  0  0  0999 V2000
  190.7940  176.2720  138.3020 C   0  0  1  0  0  3  0  0  0  0  0  0
  187.6280  177.9480  138.0940 C   0  0  0  0  0  0  0  0  0  0  0  0
  189.5480  176.3850  136.0590 N   0  0  0  0  0  2  0  0  0  0  0  0
  187.2770  177.2990  135.8850 C   0  0  2  0  0  3  0  0  0  0  0  0
  189.8980  176.7450  137.4380 C   0  0  2  0  0  0  0  0  0  0  0  0
  186.6780  177.6840  137.2190 C   0  0  0  0  0  0  0  0  0  0  0  0
  185.9360  178.4910  139.8540 C   0  0  0  0  0  0  0  0  0  0  0  0
  184.9190  178.2640  138.8540 N   0  0  0  0  0  0  0  0  0  0  0  0
  188.7890  177.5660  136.0830 C   0  0  1  0  0  0  0  0  0  0  0  0
  185.6100  178.9190  140.9940 O   0  0  0  0  0  0  0  0  0  0  0  0
  191.6570  175.1250  137.9110 C   0  0  0  0  0  1  0  0  0  0  0  0
  188.3500  178.3470  140.3400 N   0  0  0  0  0  0  0  0  0  0  0  0
  185.2270  177.5770  137.5870 C   0  0  0  0  0  2  0  0  0  0  0  0
  187.3620  178.2690  139.4970 C   0  0  0  0  0  0  0  0  0  0  0  0
  188.8740  177.8060  137.4570 N   0  0  0  0  0  0  0  0  0  0  0  0
  186.7830  178.1390  134.8880 O   0  0  0  0  0  1  0  0  0  0  0  0
  191.2510  177.5090  140.5910 C   0  0  0  0  0  3  0  0  0  0  0  0
  191.0450  176.9280  139.5550 C   0  0  0  0  0  0  0  0  0  0  0  0
  183.5280  178.5770  139.1760 C   0  0  2  0  0  3  0  0  0  0  0  0
  182.5920  177.5500  138.5560 C   0  0  0  0  0  1  0  0  0  0  0  0
  183.1700  179.9840  138.7170 C   0  0  0  0  0  2  0  0  0  0  0  0
  181.7390  180.1950  138.8340 N   0  0  0  0  0  2  0  0  0  0  0  0
  181.1530  180.3390  140.0980 N   0  0  0  0  0  0  0  0  0  0  0  0
  179.3190  178.9030  139.4090 C   0  0  0  0  0  1  0  0  0  0  0  0
  180.0330  179.7640  140.4090 C   0  0  0  0  0  0  0  0  0  0  0  0
  179.5150  179.9660  141.6910 O   0  0  0  0  0  0  0  0  0  0  0  0
  181.5060  179.0460  143.4150 O   0  0  0  0  0  1  0  0  0  0  0  0
  178.9400  179.4190  144.3580 O   0  0  0  0  0  1  0  0  0  0  0  0
  179.8630  178.9370  143.0270 P   0  0  0  0  0  0  0  0  0  0  0  0
  179.5210  177.5080  142.6730 O   0  0  0  0  0  0  0  0  0  0  0  0
  188.2470  178.6050  141.7740 C   0  0  0  0  0  2  0  0  0  0  0  0
  188.9620  176.8160  144.8330 N   0  0  0  0  0  0  0  0  0  0  0  0
  187.0730  177.1350  143.3890 C   0  0  0  0  0  2  0  0  0  0  0  0
  189.4600  177.3470  143.5670 C   0  0  0  0  0  2  0  0  0  0  0  0
  188.3240  177.3040  142.5640 C   0  0  2  0  0  3  0  0  0  0  0  0
  187.5430  177.1580  144.8260 C   0  0  0  0  0  2  0  0  0  0  0  0
  188.9450  177.2070  147.2650 C   0  0  0  0  0  1  0  0  0  0  0  0
  189.6220  177.5280  145.9360 C   0  0  1  0  0  3  0  0  0  0  0  0
  191.0910  177.1130  146.0410 C   0  0  0  0  0  2  0  0  0  0  0  0
  191.3670  176.3740  147.3400 C   0  0  0  0  0  2  0  0  0  0  0  0
  192.5300  175.6130  147.2190 O   0  0  0  0  0  1  0  0  0  0  0  0
  1 11  1  6  0  0  0
  1 18  1  0  0  0  0
  2 14  1  0  0  0  0
  3  5  1  0  0  0  0
  4 16  1  6  0  0  0
  4  9  1  0  0  0  0
  4  6  1  0  0  0  0
  5 15  1  0  0  0  0
  5  1  1  6  0  0  0
  6 13  1  0  0  0  0
  6  2  2  0  0  0  0
  7 10  2  0  0  0  0
  8 19  1  0  0  0  0
  8  7  1  0  0  0  0
  9  3  1  6  0  0  0
  9  5  1  0  0  0  0
  9 15  1  0  0  0  0
 12 31  1  0  0  0  0
 13  8  1  0  0  0  0
 14  7  1  0  0  0  0
 14 12  2  0  0  0  0
 15  2  1  0  0  0  0
 18 17  3  0  0  0  0
 19 20  1  6  0  0  0
 21 22  1  0  0  0  0
 21 19  1  0  0  0  0
 22 23  1  0  0  0  0
 23 25  2  0  0  0  0
 24 25  1  0  0  0  0
 25 26  1  0  0  0  0
 26 29  1  0  0  0  0
 29 27  1  0  0  0  0
 29 28  1  0  0  0  0
 30 29  2  0  0  0  0
 32 38  1  0  0  0  0
 33 36  1  0  0  0  0
 34 32  1  0  0  0  0
 35 31  1  1  0  0  0
 35 33  1  0  0  0  0
 35 34  1  0  0  0  0
 36 32  1  0  0  0  0
 38 39  1  0  0  0  0
 38 37  1  1  0  0  0
 39 40  1  0  0  0  0
 41 40  1  0  0  0  0
M  END
>  <MODEL>
6

>  <REMARK>
 VINA RESULT:      -7.4      3.247      7.331
  Name = 
  12 active torsions:
  status: ('A' for Active; 'I' for Inactive)
    1  A    between atoms: N_1  and  C_31
    2  A    between atoms: C_3  and  C_8
    3  A    between atoms: C_6  and  N_32
    4  A    between atoms: C_6  and  C_38
    5  A    between atoms: N_7  and  N_21
    6  A    between atoms: C_10  and  N_17
    7  A    between atoms: C_10  and  C_39
    8  A    between atoms: C_12  and  C_24
    9  A    between atoms: C_12  and  C_31
   10  A    between atoms: O_18  and  P_19
   11  A    between atoms: O_18  and  C_23
   12  A    between atoms: N_21  and  C_39
                            x       y       z     vdW  Elec       q    Type
                         _______ _______ _______ _____ _____    ______ ____

>  <TORSDO>
F 12

$$$$
=
 OpenBabel11042413343D

 41 45  0  0  1  0  0  0  0  0999 V2000
  186.9320  177.8330  145.0420 C   0  0  1  0  0  3  0  0  0  0  0  0
  188.4000  178.1440  141.7820 C   0  0  0  0  0  0  0  0  0  0  0  0
  189.4140  177.2680  144.6930 N   0  0  0  0  0  2  0  0  0  0  0  0
  190.4290  177.2240  142.4600 C   0  0  2  0  0  3  0  0  0  0  0  0
  188.0990  177.8510  144.4000 C   0  0  2  0  0  0  0  0  0  0  0  0
  189.4390  177.4630  141.3420 C   0  0  0  0  0  0  0  0  0  0  0  0
  187.3650  178.1470  139.5060 C   0  0  0  0  0  0  0  0  0  0  0  0
  188.5470  177.4640  139.0380 N   0  0  0  0  0  0  0  0  0  0  0  0
  189.8580  178.0660  143.6270 C   0  0  1  0  0  0  0  0  0  0  0  0
  186.4840  178.5130  138.6800 O   0  0  0  0  0  0  0  0  0  0  0  0
  186.8060  177.0750  146.3160 C   0  0  0  0  0  1  0  0  0  0  0  0
  186.1750  178.9800  141.5000 N   0  0  0  0  0  0  0  0  0  0  0  0
  189.4980  176.8410  139.9780 C   0  0  0  0  0  2  0  0  0  0  0  0
  187.2350  178.4580  140.9540 C   0  0  0  0  0  0  0  0  0  0  0  0
  188.6010  178.4370  143.1440 N   0  0  0  0  0  0  0  0  0  0  0  0
  191.6800  177.7230  142.0950 O   0  0  0  0  0  1  0  0  0  0  0  0
  184.8830  179.2880  144.2300 C   0  0  0  0  0  3  0  0  0  0  0  0
  185.8260  178.6390  144.6070 C   0  0  0  0  0  0  0  0  0  0  0  0
  188.7190  177.2460  137.6030 C   0  0  2  0  0  3  0  0  0  0  0  0
  188.2120  175.8680  137.2060 C   0  0  0  0  0  1  0  0  0  0  0  0
  190.1750  177.4250  137.1990 C   0  0  0  0  0  2  0  0  0  0  0  0
  190.5660  176.3780  136.2730 N   0  0  0  0  0  2  0  0  0  0  0  0
  191.9130  176.0160  136.1530 N   0  0  0  0  0  0  0  0  0  0  0  0
  191.3720  173.7670  136.8960 C   0  0  0  0  0  1  0  0  0  0  0  0
  192.3330  174.8220  136.4330 C   0  0  0  0  0  0  0  0  0  0  0  0
  193.6970  174.5460  136.2920 O   0  0  0  0  0  0  0  0  0  0  0  0
  196.3490  174.9810  137.0390 O   0  0  0  0  0  0  0  0  0  0  0  0
  194.3070  175.7170  138.7400 O   0  0  0  0  0  1  0  0  0  0  0  0
  194.8090  174.5710  137.6050 P   0  0  0  0  0  0  0  0  0  0  0  0
  194.8580  173.2090  138.2590 O   0  0  0  0  0  1  0  0  0  0  0  0
  184.9210  179.3000  140.8250 C   0  0  0  0  0  2  0  0  0  0  0  0
  181.5180  178.0870  140.9590 N   0  0  0  0  0  0  0  0  0  0  0  0
  183.4590  177.7160  139.6000 C   0  0  0  0  0  2  0  0  0  0  0  0
  182.6710  178.6160  141.6830 C   0  0  0  0  0  2  0  0  0  0  0  0
  183.9240  178.1560  140.9650 C   0  0  2  0  0  3  0  0  0  0  0  0
  181.9750  178.0080  139.5760 C   0  0  0  0  0  2  0  0  0  0  0  0
  179.6440  179.1130  139.7350 C   0  0  0  0  0  1  0  0  0  0  0  0
  180.4190  179.0580  141.0470 C   0  0  1  0  0  3  0  0  0  0  0  0
  179.4430  178.6660  142.1580 C   0  0  0  0  0  2  0  0  0  0  0  0
  179.1600  179.8350  143.0870 C   0  0  0  0  0  2  0  0  0  0  0  0
  180.0630  180.8700  142.8420 O   0  0  0  0  0  1  0  0  0  0  0  0
  1 11  1  1  0  0  0
  2 15  1  0  0  0  0
  4 16  1  6  0  0  0
  4  9  1  0  0  0  0
  5  3  1  0  0  0  0
  5  1  1  1  0  0  0
  6  2  2  0  0  0  0
  6  4  1  0  0  0  0
  7 14  1  0  0  0  0
  8  7  1  0  0  0  0
  8 13  1  0  0  0  0
  9  5  1  0  0  0  0
  9  3  1  1  0  0  0
 10  7  2  0  0  0  0
 13  6  1  0  0  0  0
 14 12  2  0  0  0  0
 14  2  1  0  0  0  0
 15  9  1  0  0  0  0
 15  5  1  0  0  0  0
 17 18  3  0  0  0  0
 18  1  1  0  0  0  0
 19 20  1  1  0  0  0
 19  8  1  0  0  0  0
 21 19  1  0  0  0  0
 22 21  1  0  0  0  0
 23 22  1  0  0  0  0
 23 25  2  0  0  0  0
 25 24  1  0  0  0  0
 26 25  1  0  0  0  0
 26 29  1  0  0  0  0
 27 29  2  0  0  0  0
 29 30  1  0  0  0  0
 29 28  1  0  0  0  0
 31 12  1  0  0  0  0
 32 38  1  0  0  0  0
 32 34  1  0  0  0  0
 33 35  1  0  0  0  0
 35 31  1  6  0  0  0
 35 34  1  0  0  0  0
 36 33  1  0  0  0  0
 36 32  1  0  0  0  0
 38 37  1  6  0  0  0
 38 39  1  0  0  0  0
 39 40  1  0  0  0  0
 41 40  1  0  0  0  0
M  END
>  <MODEL>
7

>  <REMARK>
 VINA RESULT:      -7.3      2.941      6.982
  Name = 
  12 active torsions:
  status: ('A' for Active; 'I' for Inactive)
    1  A    between atoms: N_1  and  C_31
    2  A    between atoms: C_3  and  C_8
    3  A    between atoms: C_6  and  N_32
    4  A    between atoms: C_6  and  C_38
    5  A    between atoms: N_7  and  N_21
    6  A    between atoms: C_10  and  N_17
    7  A    between atoms: C_10  and  C_39
    8  A    between atoms: C_12  and  C_24
    9  A    between atoms: C_12  and  C_31
   10  A    between atoms: O_18  and  P_19
   11  A    between atoms: O_18  and  C_23
   12  A    between atoms: N_21  and  C_39
                            x       y       z     vdW  Elec       q    Type
                         _______ _______ _______ _____ _____    ______ ____

>  <TORSDO>
F 12

$$$$
=
 OpenBabel11042413343D

 41 45  0  0  1  0  0  0  0  0999 V2000
  181.2210  179.2030  142.4660 C   0  0  1  0  0  3  0  0  0  0  0  0
  183.8240  177.9390  140.3440 C   0  0  0  0  0  0  0  0  0  0  0  0
  180.6490  178.3170  140.1240 N   0  0  0  0  0  2  0  0  0  0  0  0
  182.3930  177.6620  138.5280 C   0  0  2  0  0  3  0  0  0  0  0  0
  181.4380  178.5180  141.3450 C   0  0  2  0  0  0  0  0  0  0  0  0
  183.7970  177.9220  139.0270 C   0  0  0  0  0  0  0  0  0  0  0  0
  186.2900  178.3480  140.3470 C   0  0  0  0  0  0  0  0  0  0  0  0
  186.2420  178.2540  138.9060 N   0  0  0  0  0  0  0  0  0  0  0  0
  181.6090  177.3390  139.8230 C   0  0  1  0  0  0  0  0  0  0  0  0
  187.4030  178.4620  140.9300 O   0  0  0  0  0  0  0  0  0  0  0  0
  179.9670  179.9910  142.6150 C   0  0  0  0  0  1  0  0  0  0  0  0
  184.9370  178.4190  142.4080 N   0  0  0  0  0  0  0  0  0  0  0  0
  184.9650  178.3250  138.1740 C   0  0  0  0  0  2  0  0  0  0  0  0
  185.0250  178.2500  141.1200 C   0  0  0  0  0  0  0  0  0  0  0  0
  182.5270  177.6740  140.8220 N   0  0  0  0  0  0  0  0  0  0  0  0
  182.3910  176.5450  137.6920 O   0  0  0  0  0  1  0  0  0  0  0  0
  182.8200  179.0140  144.5600 C   0  0  0  0  0  3  0  0  0  0  0  0
  182.1040  179.0940  143.5940 C   0  0  0  0  0  0  0  0  0  0  0  0
  187.4960  178.2510  138.1540 C   0  0  2  0  0  3  0  0  0  0  0  0
  187.3140  178.9390  136.8100 C   0  0  0  0  0  1  0  0  0  0  0  0
  188.0130  176.8310  137.9710 C   0  0  0  0  0  2  0  0  0  0  0  0
  187.8030  176.3990  136.6010 N   0  0  0  0  0  2  0  0  0  0  0  0
  187.3070  175.1160  136.3390 N   0  0  0  0  0  0  0  0  0  0  0  0
  185.3500  176.0910  135.2800 C   0  0  0  0  0  1  0  0  0  0  0  0
  186.1760  174.9240  135.7350 C   0  0  0  0  0  0  0  0  0  0  0  0
  185.7510  173.6100  135.5190 O   0  0  0  0  0  0  0  0  0  0  0  0
  183.0960  173.4980  136.3660 O   0  0  0  0  0  1  0  0  0  0  0  0
  184.5490  171.1680  136.0950 O   0  0  0  0  0  0  0  0  0  0  0  0
  184.6260  172.7980  136.5370 P   0  0  0  0  0  0  0  0  0  0  0  0
  185.0720  172.9040  137.9780 O   0  0  0  0  0  1  0  0  0  0  0  0
  186.0260  178.7820  143.3100 C   0  0  0  0  0  2  0  0  0  0  0  0
  188.3820  177.1710  145.5290 N   0  0  0  0  0  0  0  0  0  0  0  0
  186.0750  177.8250  145.5970 C   0  0  0  0  0  2  0  0  0  0  0  0
  187.9580  177.4330  144.1570 C   0  0  0  0  0  2  0  0  0  0  0  0
  186.4500  177.5870  144.1560 C   0  0  2  0  0  3  0  0  0  0  0  0
  187.3890  177.8640  146.3440 C   0  0  0  0  0  2  0  0  0  0  0  0
  190.7110  176.7530  146.2120 C   0  0  0  0  0  1  0  0  0  0  0  0
  189.6970  177.7920  145.7430 C   0  0  1  0  0  3  0  0  0  0  0  0
  190.2180  178.4090  144.4440 C   0  0  0  0  0  2  0  0  0  0  0  0
  191.6440  177.9710  144.1540 C   0  0  0  0  0  2  0  0  0  0  0  0
  191.7440  177.5040  142.8430 O   0  0  0  0  0  1  0  0  0  0  0  0
  1 11  1  1  0  0  0
  1 18  1  0  0  0  0
  2 15  1  0  0  0  0
  2 14  1  0  0  0  0
  3  5  1  0  0  0  0
  4 16  1  6  0  0  0
  4  6  1  0  0  0  0
  4  9  1  0  0  0  0
  5  1  1  1  0  0  0
  6  2  2  0  0  0  0
  7 10  2  0  0  0  0
  7 14  1  0  0  0  0
  8  7  1  0  0  0  0
  9  3  1  1  0  0  0
  9 15  1  0  0  0  0
  9  5  1  0  0  0  0
 12 31  1  0  0  0  0
 13  8  1  0  0  0  0
 13  6  1  0  0  0  0
 14 12  2  0  0  0  0
 15  5  1  0  0  0  0
 18 17  3  0  0  0  0
 19 20  1  6  0  0  0
 19  8  1  0  0  0  0
 21 19  1  0  0  0  0
 22 21  1  0  0  0  0
 23 22  1  0  0  0  0
 24 25  1  0  0  0  0
 25 23  2  0  0  0  0
 26 25  1  0  0  0  0
 26 29  1  0  0  0  0
 27 29  1  0  0  0  0
 28 29  2  0  0  0  0
 29 30  1  0  0  0  0
 32 38  1  0  0  0  0
 32 36  1  0  0  0  0
 33 36  1  0  0  0  0
 34 32  1  0  0  0  0
 35 31  1  6  0  0  0
 35 34  1  0  0  0  0
 35 33  1  0  0  0  0
 38 37  1  6  0  0  0
 39 38  1  0  0  0  0
 40 39  1  0  0  0  0
 41 40  1  0  0  0  0
M  END
>  <MODEL>
8

>  <REMARK>
 VINA RESULT:      -7.3      2.482      3.997
  Name = 
  12 active torsions:
  status: ('A' for Active; 'I' for Inactive)
    1  A    between atoms: N_1  and  C_31
    2  A    between atoms: C_3  and  C_8
    3  A    between atoms: C_6  and  N_32
    4  A    between atoms: C_6  and  C_38
    5  A    between atoms: N_7  and  N_21
    6  A    between atoms: C_10  and  N_17
    7  A    between atoms: C_10  and  C_39
    8  A    between atoms: C_12  and  C_24
    9  A    between atoms: C_12  and  C_31
   10  A    between atoms: O_18  and  P_19
   11  A    between atoms: O_18  and  C_23
   12  A    between atoms: N_21  and  C_39
                            x       y       z     vdW  Elec       q    Type
                         _______ _______ _______ _____ _____    ______ ____

>  <TORSDO>
F 12

$$$$
=
 OpenBabel11042413343D

 41 45  0  0  1  0  0  0  0  0999 V2000
  187.0920  177.8450  145.7410 C   0  0  1  0  0  3  0  0  0  0  0  0
  188.6810  178.0940  142.5340 C   0  0  0  0  0  0  0  0  0  0  0  0
  189.5820  177.2640  145.4950 N   0  0  0  0  0  2  0  0  0  0  0  0
  190.6790  177.1770  143.3020 C   0  0  2  0  0  3  0  0  0  0  0  0
  188.2820  177.8470  145.1430 C   0  0  2  0  0  0  0  0  0  0  0  0
  189.7320  177.4010  142.1450 C   0  0  0  0  0  0  0  0  0  0  0  0
  187.7310  178.0620  140.2210 C   0  0  0  0  0  0  0  0  0  0  0  0
  188.9270  177.3650  139.8090 N   0  0  0  0  0  0  0  0  0  0  0  0
  190.0690  178.0410  144.4330 C   0  0  1  0  0  0  0  0  0  0  0  0
  186.8830  178.4170  139.3570 O   0  0  0  0  0  0  0  0  0  0  0  0
  186.9140  177.1100  147.0220 C   0  0  0  0  0  1  0  0  0  0  0  0
  186.4720  178.9350  142.1550 N   0  0  0  0  0  0  0  0  0  0  0  0
  189.8380  176.7550  140.7940 C   0  0  0  0  0  2  0  0  0  0  0  0
  187.5490  178.3990  141.6570 C   0  0  0  0  0  0  0  0  0  0  0  0
  188.8320  178.4090  143.8960 N   0  0  0  0  0  0  0  0  0  0  0  0
  191.9440  177.6640  142.9750 O   0  0  0  0  0  1  0  0  0  0  0  0
  185.1010  179.3450  144.8680 C   0  0  0  0  0  3  0  0  0  0  0  0
  186.0060  178.6490  145.2520 C   0  0  0  0  0  0  0  0  0  0  0  0
  189.1500  177.1230  138.3850 C   0  0  2  0  0  3  0  0  0  0  0  0
  190.2850  176.1300  138.1830 C   0  0  0  0  0  1  0  0  0  0  0  0
  189.4340  178.4260  137.6520 C   0  0  0  0  0  2  0  0  0  0  0  0
  189.0170  178.3170  136.2660 N   0  0  0  0  0  2  0  0  0  0  0  0
  187.6850  178.0200  135.9560 N   0  0  0  0  0  0  0  0  0  0  0  0
  188.4060  176.0210  134.7790 C   0  0  0  0  0  1  0  0  0  0  0  0
  187.3530  176.9720  135.2680 C   0  0  0  0  0  0  0  0  0  0  0  0
  185.9990  176.7540  134.9980 O   0  0  0  0  0  0  0  0  0  0  0  0
  183.5910  175.4090  135.4140 O   0  0  0  0  0  0  0  0  0  0  0  0
  185.6500  175.1270  137.2270 O   0  0  0  0  0  1  0  0  0  0  0  0
  184.8750  176.2010  136.1780 P   0  0  0  0  0  0  0  0  0  0  0  0
  184.3450  177.3760  136.9680 O   0  0  0  0  0  1  0  0  0  0  0  0
  185.2460  179.2480  141.4280 C   0  0  0  0  0  2  0  0  0  0  0  0
  181.8150  178.1130  141.3190 N   0  0  0  0  0  0  0  0  0  0  0  0
  183.9030  177.4820  140.3200 C   0  0  0  0  0  2  0  0  0  0  0  0
  182.8810  178.7530  142.0850 C   0  0  0  0  0  2  0  0  0  0  0  0
  184.2000  178.1590  141.6340 C   0  0  2  0  0  3  0  0  0  0  0  0
  182.4460  177.7800  140.0460 C   0  0  0  0  0  2  0  0  0  0  0  0
  180.3470  179.1110  139.6120 C   0  0  0  0  0  1  0  0  0  0  0  0
  180.7470  179.0950  141.0840 C   0  0  1  0  0  3  0  0  0  0  0  0
  179.5070  178.7480  141.9080 C   0  0  0  0  0  2  0  0  0  0  0  0
  179.0260  179.9410  142.7170 C   0  0  0  0  0  2  0  0  0  0  0  0
  180.0540  180.8750  142.8490 O   0  0  0  0  0  1  0  0  0  0  0  0
  1 11  1  1  0  0  0
  2 15  1  0  0  0  0
  4 16  1  6  0  0  0
  4  9  1  0  0  0  0
  5  3  1  0  0  0  0
  5  1  1  1  0  0  0
  6  2  2  0  0  0  0
  6  4  1  0  0  0  0
  7 14  1  0  0  0  0
  8  7  1  0  0  0  0
  8 13  1  0  0  0  0
  9  5  1  0  0  0  0
  9  3  1  1  0  0  0
 10  7  2  0  0  0  0
 13  6  1  0  0  0  0
 14 12  2  0  0  0  0
 14  2  1  0  0  0  0
 15  9  1  0  0  0  0
 15  5  1  0  0  0  0
 17 18  3  0  0  0  0
 18  1  1  0  0  0  0
 19 20  1  1  0  0  0
 19  8  1  0  0  0  0
 21 19  1  0  0  0  0
 22 21  1  0  0  0  0
 23 22  1  0  0  0  0
 24 25  1  0  0  0  0
 25 23  2  0  0  0  0
 26 25  1  0  0  0  0
 26 29  1  0  0  0  0
 27 29  2  0  0  0  0
 29 30  1  0  0  0  0
 29 28  1  0  0  0  0
 31 12  1  0  0  0  0
 32 34  1  0  0  0  0
 33 35  1  0  0  0  0
 35 31  1  6  0  0  0
 35 34  1  0  0  0  0
 36 33  1  0  0  0  0
 36 32  1  0  0  0  0
 38 37  1  6  0  0  0
 38 32  1  0  0  0  0
 38 39  1  0  0  0  0
 39 40  1  0  0  0  0
 40 41  1  0  0  0  0
M  END
>  <MODEL>
9

>  <REMARK>
 VINA RESULT:      -7.1      2.711      7.415
  Name = 
  12 active torsions:
  status: ('A' for Active; 'I' for Inactive)
    1  A    between atoms: N_1  and  C_31
    2  A    between atoms: C_3  and  C_8
    3  A    between atoms: C_6  and  N_32
    4  A    between atoms: C_6  and  C_38
    5  A    between atoms: N_7  and  N_21
    6  A    between atoms: C_10  and  N_17
    7  A    between atoms: C_10  and  C_39
    8  A    between atoms: C_12  and  C_24
    9  A    between atoms: C_12  and  C_31
   10  A    between atoms: O_18  and  P_19
   11  A    between atoms: O_18  and  C_23
   12  A    between atoms: N_21  and  C_39
                            x       y       z     vdW  Elec       q    Type
                         _______ _______ _______ _____ _____    ______ ____

>  <TORSDO>
F 12

$$$$
