=
 OpenBabel11042410553D

 26 28  0  0  1  0  0  0  0  0999 V2000
  190.7660  176.5570  138.7050 C   0  0  0  0  0  0  0  0  0  0  0  0
  189.5930  175.9560  142.0320 N   0  0  0  0  0  0  0  0  0  0  0  0
  191.7950  175.8820  137.9910 N   0  0  0  0  0  1  0  0  0  0  0  0
  188.7010  177.7950  143.4000 C   0  0  2  0  0  3  0  0  0  0  0  0
  188.8780  177.9330  140.8600 C   0  0  0  0  0  0  0  0  0  0  0  0
  189.6320  176.6520  140.9330 C   0  0  0  0  0  0  0  0  0  0  0  0
  189.1060  178.3760  138.3820 C   0  0  0  0  0  3  0  0  0  0  0  0
  188.7560  176.2840  143.1850 C   0  0  0  0  0  2  0  0  0  0  0  0
  188.2250  178.4790  142.1160 C   0  0  1  0  0  3  0  0  0  0  0  0
  188.6760  178.6380  139.7520 C   0  0  0  0  0  3  0  0  0  0  0  0
  190.5600  176.2130  139.9380 N   0  0  0  0  0  0  0  0  0  0  0  0
  189.9730  177.5020  137.9820 N   0  0  0  0  0  0  0  0  0  0  0  0
  186.1040  178.7600  140.8130 C   0  0  0  0  0  3  0  0  0  0  0  0
  186.7250  178.4810  142.0350 C   0  0  0  0  0  0  0  0  0  0  0  0
  184.5340  178.2450  143.0430 C   0  0  0  0  0  3  0  0  0  0  0  0
  184.7460  178.7740  140.7230 N   0  0  0  0  0  0  0  0  0  0  0  0
  185.9250  178.2260  143.1570 C   0  0  0  0  0  3  0  0  0  0  0  0
  182.5410  178.5480  141.6690 N   0  0  0  0  0  1  0  0  0  0  0  0
  183.9570  178.5240  141.8030 C   0  0  0  0  0  0  0  0  0  0  0  0
  190.0580  178.3560  143.8280 C   0  0  0  0  0  2  0  0  0  0  0  0
  190.3200  178.2070  145.3250 C   0  0  1  0  0  3  0  0  0  0  0  0
  189.1220  178.0070  146.0160 O   0  0  0  0  0  1  0  0  0  0  0  0
  191.2980  177.0790  145.6120 C   0  0  0  0  0  2  0  0  0  0  0  0
  191.2170  176.6700  147.0720 C   0  0  0  0  0  2  0  0  0  0  0  0
  192.2720  175.6240  147.3830 C   0  0  0  0  0  2  0  0  0  0  0  0
  193.0460  176.0360  148.4680 O   0  0  0  0  0  1  0  0  0  0  0  0
  1 11  2  0  0  0  0
  2  8  1  0  0  0  0
  3  1  1  0  0  0  0
  4 20  1  6  0  0  0
  5  6  1  0  0  0  0
  5  9  1  0  0  0  0
  6  2  2  0  0  0  0
  7 10  1  0  0  0  0
  8  4  1  0  0  0  0
  9 14  1  6  0  0  0
  9  4  1  0  0  0  0
 10  5  2  0  0  0  0
 11  6  1  0  0  0  0
 12  7  2  0  0  0  0
 12  1  1  0  0  0  0
 13 14  1  0  0  0  0
 14 17  2  0  0  0  0
 15 17  1  0  0  0  0
 16 13  2  0  0  0  0
 16 19  1  0  0  0  0
 18 19  1  0  0  0  0
 19 15  2  0  0  0  0
 20 21  1  0  0  0  0
 21 23  1  0  0  0  0
 21 22  1  1  0  0  0
 23 24  1  0  0  0  0
 24 25  1  0  0  0  0
 25 26  1  0  0  0  0
M  END
>  <MODEL>
1

>  <REMARK>
 VINA RESULT:      -7.8      0.000      0.000
  Name = 
  6 active torsions:
  status: ('A' for Active; 'I' for Inactive)
    1  A    between atoms: C_4  and  C_21
    2  A    between atoms: C_6  and  C_14
    3  A    between atoms: C_11  and  C_14
    4  A    between atoms: C_11  and  C_25
    5  A    between atoms: C_12  and  C_24
    6  A    between atoms: C_24  and  C_25
                            x       y       z     vdW  Elec       q    Type
                         _______ _______ _______ _____ _____    ______ ____

>  <TORSDO>
F 6

$$$$
=
 OpenBabel11042410553D

 26 28  0  0  1  0  0  0  0  0999 V2000
  188.7720  178.2100  139.9020 C   0  0  0  0  0  0  0  0  0  0  0  0
  186.2180  179.7600  141.8700 N   0  0  0  0  0  0  0  0  0  0  0  0
  189.2110  178.5470  138.5910 N   0  0  0  0  0  1  0  0  0  0  0  0
  184.9090  178.4500  143.4870 C   0  0  2  0  0  3  0  0  0  0  0  0
  187.1630  177.6670  142.5890 C   0  0  0  0  0  0  0  0  0  0  0  0
  187.0840  178.8160  141.6460 C   0  0  0  0  0  0  0  0  0  0  0  0
  189.2850  176.6010  141.7230 C   0  0  0  0  0  3  0  0  0  0  0  0
  185.3760  179.8400  143.0620 C   0  0  0  0  0  2  0  0  0  0  0  0
  186.1220  177.5380  143.6850 C   0  0  1  0  0  3  0  0  0  0  0  0
  188.1180  176.7430  142.5890 C   0  0  0  0  0  3  0  0  0  0  0  0
  187.7710  178.8710  140.3930 N   0  0  0  0  0  0  0  0  0  0  0  0
  189.5260  177.2280  140.6170 N   0  0  0  0  0  0  0  0  0  0  0  0
  185.8810  178.1430  146.1040 C   0  0  0  0  0  3  0  0  0  0  0  0
  186.7040  177.7130  145.0590 C   0  0  0  0  0  0  0  0  0  0  0  0
  188.5650  177.6540  146.6100 C   0  0  0  0  0  3  0  0  0  0  0  0
  186.3930  178.3160  147.3530 N   0  0  0  0  0  0  0  0  0  0  0  0
  188.0600  177.4710  145.3220 C   0  0  0  0  0  3  0  0  0  0  0  0
  188.2040  178.2720  148.9420 N   0  0  0  0  0  1  0  0  0  0  0  0
  187.7050  178.0800  147.6240 C   0  0  0  0  0  0  0  0  0  0  0  0
  183.9480  177.8390  142.4650 C   0  0  0  0  0  2  0  0  0  0  0  0
  182.7440  178.7300  142.1700 C   0  0  1  0  0  3  0  0  0  0  0  0
  181.9300  178.1470  141.1940 O   0  0  0  0  0  1  0  0  0  0  0  0
  181.9430  179.0240  143.4280 C   0  0  0  0  0  2  0  0  0  0  0  0
  180.5310  179.4490  143.0670 C   0  0  0  0  0  2  0  0  0  0  0  0
  179.5430  178.8920  144.0750 C   0  0  0  0  0  2  0  0  0  0  0  0
  179.7350  177.5170  144.2210 O   0  0  0  0  0  1  0  0  0  0  0  0
  1 11  2  0  0  0  0
  1 12  1  0  0  0  0
  2  8  1  0  0  0  0
  3  1  1  0  0  0  0
  4 20  1  6  0  0  0
  4  9  1  0  0  0  0
  5  9  1  0  0  0  0
  6  2  2  0  0  0  0
  6  5  1  0  0  0  0
  7 10  1  0  0  0  0
  8  4  1  0  0  0  0
  9 14  1  1  0  0  0
 10  5  2  0  0  0  0
 11  6  1  0  0  0  0
 12  7  2  0  0  0  0
 13 16  1  0  0  0  0
 14 17  1  0  0  0  0
 14 13  2  0  0  0  0
 15 19  1  0  0  0  0
 16 19  2  0  0  0  0
 17 15  2  0  0  0  0
 19 18  1  0  0  0  0
 21 22  1  6  0  0  0
 21 20  1  0  0  0  0
 21 23  1  0  0  0  0
 24 23  1  0  0  0  0
 24 25  1  0  0  0  0
 25 26  1  0  0  0  0
M  END
>  <MODEL>
2

>  <REMARK>
 VINA RESULT:      -7.7      3.796      6.838
  Name = 
  6 active torsions:
  status: ('A' for Active; 'I' for Inactive)
    1  A    between atoms: C_4  and  C_21
    2  A    between atoms: C_6  and  C_14
    3  A    between atoms: C_11  and  C_14
    4  A    between atoms: C_11  and  C_25
    5  A    between atoms: C_12  and  C_24
    6  A    between atoms: C_24  and  C_25
                            x       y       z     vdW  Elec       q    Type
                         _______ _______ _______ _____ _____    ______ ____

>  <TORSDO>
F 6

$$$$
=
 OpenBabel11042410553D

 26 28  0  0  1  0  0  0  0  0999 V2000
  190.6630  176.7360  139.2420 C   0  0  0  0  0  0  0  0  0  0  0  0
  189.2270  175.8800  142.4060 N   0  0  0  0  0  0  0  0  0  0  0  0
  191.7310  176.1000  138.5500 N   0  0  0  0  0  1  0  0  0  0  0  0
  188.2680  177.6150  143.8610 C   0  0  2  0  0  3  0  0  0  0  0  0
  188.6410  177.9680  141.3630 C   0  0  0  0  0  0  0  0  0  0  0  0
  189.3630  176.6670  141.3800 C   0  0  0  0  0  0  0  0  0  0  0  0
  189.0680  178.6190  138.9580 C   0  0  0  0  0  3  0  0  0  0  0  0
  188.3100  176.1270  143.5170 C   0  0  0  0  0  2  0  0  0  0  0  0
  187.9050  178.4200  142.6110 C   0  0  1  0  0  3  0  0  0  0  0  0
  188.5380  178.7720  140.3100 C   0  0  0  0  0  3  0  0  0  0  0  0
  190.3560  176.2920  140.4220 N   0  0  0  0  0  0  0  0  0  0  0  0
  189.9460  177.7610  138.5490 N   0  0  0  0  0  0  0  0  0  0  0  0
  185.8960  178.6860  141.1380 C   0  0  0  0  0  3  0  0  0  0  0  0
  186.4150  178.4670  142.4180 C   0  0  0  0  0  0  0  0  0  0  0  0
  184.1500  178.3740  143.2730 C   0  0  0  0  0  3  0  0  0  0  0  0
  184.5500  178.7400  140.9460 N   0  0  0  0  0  0  0  0  0  0  0  0
  185.5280  178.3140  143.4910 C   0  0  0  0  0  3  0  0  0  0  0  0
  182.2750  178.6530  141.7380 N   0  0  0  0  0  1  0  0  0  0  0  0
  183.6760  178.5890  141.9780 C   0  0  0  0  0  0  0  0  0  0  0  0
  189.5980  178.1020  144.4370 C   0  0  0  0  0  2  0  0  0  0  0  0
  190.0920  177.2480  145.6030 C   0  0  1  0  0  3  0  0  0  0  0  0
  191.4820  177.1110  145.5570 O   0  0  0  0  0  1  0  0  0  0  0  0
  189.6560  177.8230  146.9420 C   0  0  0  0  0  2  0  0  0  0  0  0
  188.4570  177.0620  147.4770 C   0  0  0  0  0  2  0  0  0  0  0  0
  187.4050  178.0300  147.9860 C   0  0  0  0  0  2  0  0  0  0  0  0
  186.5680  178.4180  146.9390 O   0  0  0  0  0  1  0  0  0  0  0  0
  1 11  2  0  0  0  0
  2  8  1  0  0  0  0
  3  1  1  0  0  0  0
  4 20  1  6  0  0  0
  5  6  1  0  0  0  0
  5  9  1  0  0  0  0
  6  2  2  0  0  0  0
  7 10  1  0  0  0  0
  8  4  1  0  0  0  0
  9 14  1  6  0  0  0
  9  4  1  0  0  0  0
 10  5  2  0  0  0  0
 11  6  1  0  0  0  0
 12  7  2  0  0  0  0
 12  1  1  0  0  0  0
 13 14  1  0  0  0  0
 14 17  2  0  0  0  0
 15 17  1  0  0  0  0
 16 13  2  0  0  0  0
 16 19  1  0  0  0  0
 18 19  1  0  0  0  0
 19 15  2  0  0  0  0
 20 21  1  0  0  0  0
 21 22  1  1  0  0  0
 21 23  1  0  0  0  0
 23 24  1  0  0  0  0
 24 25  1  0  0  0  0
 26 25  1  0  0  0  0
M  END
>  <MODEL>
3

>  <REMARK>
 VINA RESULT:      -7.7      1.356      2.022
  Name = 
  6 active torsions:
  status: ('A' for Active; 'I' for Inactive)
    1  A    between atoms: C_4  and  C_21
    2  A    between atoms: C_6  and  C_14
    3  A    between atoms: C_11  and  C_14
    4  A    between atoms: C_11  and  C_25
    5  A    between atoms: C_12  and  C_24
    6  A    between atoms: C_24  and  C_25
                            x       y       z     vdW  Elec       q    Type
                         _______ _______ _______ _____ _____    ______ ____

>  <TORSDO>
F 6

$$$$
=
 OpenBabel11042410553D

 26 28  0  0  1  0  0  0  0  0999 V2000
  189.2140  177.8930  139.9250 C   0  0  0  0  0  0  0  0  0  0  0  0
  186.5690  179.6440  141.5810 N   0  0  0  0  0  0  0  0  0  0  0  0
  189.7750  178.1390  138.6410 N   0  0  0  0  0  1  0  0  0  0  0  0
  185.0760  178.4750  143.1460 C   0  0  2  0  0  3  0  0  0  0  0  0
  187.3640  177.5610  142.4890 C   0  0  0  0  0  0  0  0  0  0  0  0
  187.4120  178.6580  141.4830 C   0  0  0  0  0  0  0  0  0  0  0  0
  189.5050  176.3710  141.8670 C   0  0  0  0  0  3  0  0  0  0  0  0
  185.6340  179.8210  142.6910 C   0  0  0  0  0  2  0  0  0  0  0  0
  186.2300  177.5320  143.4960 C   0  0  1  0  0  3  0  0  0  0  0  0
  188.2760  176.6050  142.6200 C   0  0  0  0  0  3  0  0  0  0  0  0
  188.2030  178.6170  140.2930 N   0  0  0  0  0  0  0  0  0  0  0  0
  189.8640  176.9260  140.7540 N   0  0  0  0  0  0  0  0  0  0  0  0
  188.0230  177.4590  145.2440 C   0  0  0  0  0  3  0  0  0  0  0  0
  186.7010  177.7630  144.9050 C   0  0  0  0  0  0  0  0  0  0  0  0
  186.3180  178.4530  147.1950 C   0  0  0  0  0  3  0  0  0  0  0  0
  188.4650  177.6530  146.5160 N   0  0  0  0  0  0  0  0  0  0  0  0
  185.8450  178.2610  145.8960 C   0  0  0  0  0  3  0  0  0  0  0  0
  188.1450  178.3290  148.8070 N   0  0  0  0  0  1  0  0  0  0  0  0
  187.6470  178.1410  147.4880 C   0  0  0  0  0  0  0  0  0  0  0  0
  184.1810  177.8430  142.0800 C   0  0  0  0  0  2  0  0  0  0  0  0
  182.7080  178.2150  142.2390 C   0  0  1  0  0  3  0  0  0  0  0  0
  182.5380  179.1050  143.3030 O   0  0  0  0  0  1  0  0  0  0  0  0
  182.1360  178.8000  140.9570 C   0  0  0  0  0  2  0  0  0  0  0  0
  183.0680  178.5240  139.7910 C   0  0  0  0  0  2  0  0  0  0  0  0
  183.1950  179.7590  138.9180 C   0  0  0  0  0  2  0  0  0  0  0  0
  184.4520  180.3380  139.0910 O   0  0  0  0  0  1  0  0  0  0  0  0
  1 11  2  0  0  0  0
  1 12  1  0  0  0  0
  2  8  1  0  0  0  0
  3  1  1  0  0  0  0
  4 20  1  6  0  0  0
  4  9  1  0  0  0  0
  5 10  2  0  0  0  0
  5  9  1  0  0  0  0
  6  2  2  0  0  0  0
  6  5  1  0  0  0  0
  7 10  1  0  0  0  0
  8  4  1  0  0  0  0
  9 14  1  1  0  0  0
 11  6  1  0  0  0  0
 12  7  2  0  0  0  0
 13 16  1  0  0  0  0
 14 13  2  0  0  0  0
 14 17  1  0  0  0  0
 15 19  1  0  0  0  0
 16 19  2  0  0  0  0
 17 15  2  0  0  0  0
 19 18  1  0  0  0  0
 20 21  1  0  0  0  0
 21 22  1  1  0  0  0
 23 21  1  0  0  0  0
 24 23  1  0  0  0  0
 25 26  1  0  0  0  0
 25 24  1  0  0  0  0
M  END
>  <MODEL>
4

>  <REMARK>
 VINA RESULT:      -7.4      3.503      6.572
  Name = 
  6 active torsions:
  status: ('A' for Active; 'I' for Inactive)
    1  A    between atoms: C_4  and  C_21
    2  A    between atoms: C_6  and  C_14
    3  A    between atoms: C_11  and  C_14
    4  A    between atoms: C_11  and  C_25
    5  A    between atoms: C_12  and  C_24
    6  A    between atoms: C_24  and  C_25
                            x       y       z     vdW  Elec       q    Type
                         _______ _______ _______ _____ _____    ______ ____

>  <TORSDO>
F 6

$$$$
=
 OpenBabel11042410553D

 26 28  0  0  1  0  0  0  0  0999 V2000
  191.1750  177.1710  145.9890 C   0  0  0  0  0  0  0  0  0  0  0  0
  187.9280  176.3840  144.7080 N   0  0  0  0  0  0  0  0  0  0  0  0
  191.7810  176.7360  147.2000 N   0  0  0  0  0  1  0  0  0  0  0  0
  186.7040  177.9950  143.3110 C   0  0  2  0  0  3  0  0  0  0  0  0
  189.2260  178.1200  143.6630 C   0  0  0  0  0  0  0  0  0  0  0  0
  189.0450  177.0480  144.6800 C   0  0  0  0  0  0  0  0  0  0  0  0
  191.6940  178.5540  143.9920 C   0  0  0  0  0  3  0  0  0  0  0  0
  186.8560  176.5330  143.7250 C   0  0  0  0  0  2  0  0  0  0  0  0
  188.0450  178.5260  142.8010 C   0  0  1  0  0  3  0  0  0  0  0  0
  190.3720  178.7370  143.4000 C   0  0  0  0  0  3  0  0  0  0  0  0
  189.9480  176.8130  145.7630 N   0  0  0  0  0  0  0  0  0  0  0  0
  191.9920  177.8950  145.0650 N   0  0  0  0  0  0  0  0  0  0  0  0
  187.2970  178.6040  140.4120 C   0  0  0  0  0  3  0  0  0  0  0  0
  188.2420  178.1820  141.3520 C   0  0  0  0  0  0  0  0  0  0  0  0
  189.4860  177.1270  139.5610 C   0  0  0  0  0  3  0  0  0  0  0  0
  187.4540  178.2940  139.0960 N   0  0  0  0  0  0  0  0  0  0  0  0
  189.3430  177.4340  140.9140 C   0  0  0  0  0  3  0  0  0  0  0  0
  188.6500  177.2670  137.2730 N   0  0  0  0  0  1  0  0  0  0  0  0
  188.5200  177.5720  138.6570 C   0  0  0  0  0  0  0  0  0  0  0  0
  186.1950  178.8610  144.4640 C   0  0  0  0  0  2  0  0  0  0  0  0
  184.7230  178.6150  144.7910 C   0  0  1  0  0  3  0  0  0  0  0  0
  184.4410  179.0040  146.1040 O   0  0  0  0  0  1  0  0  0  0  0  0
  183.8050  179.3310  143.8120 C   0  0  0  0  0  2  0  0  0  0  0  0
  182.3550  178.9960  144.1080 C   0  0  0  0  0  2  0  0  0  0  0  0
  181.5390  179.0270  142.8290 C   0  0  0  0  0  2  0  0  0  0  0  0
  180.6790  180.1260  142.8380 O   0  0  0  0  0  1  0  0  0  0  0  0
  1  3  1  0  0  0  0
  4  8  1  0  0  0  0
  4 20  1  1  0  0  0
  5  6  1  0  0  0  0
  6  2  2  0  0  0  0
  6 11  1  0  0  0  0
  7 12  2  0  0  0  0
  8  2  1  0  0  0  0
  9 14  1  6  0  0  0
  9  4  1  0  0  0  0
  9  5  1  0  0  0  0
 10  5  2  0  0  0  0
 10  7  1  0  0  0  0
 11  1  2  0  0  0  0
 12  1  1  0  0  0  0
 13 14  1  0  0  0  0
 15 17  1  0  0  0  0
 16 13  2  0  0  0  0
 17 14  2  0  0  0  0
 18 19  1  0  0  0  0
 19 16  1  0  0  0  0
 19 15  2  0  0  0  0
 20 21  1  0  0  0  0
 21 22  1  1  0  0  0
 23 24  1  0  0  0  0
 23 21  1  0  0  0  0
 25 26  1  0  0  0  0
 25 24  1  0  0  0  0
M  END
>  <MODEL>
5

>  <REMARK>
 VINA RESULT:      -7.2      2.997      6.385
  Name = 
  6 active torsions:
  status: ('A' for Active; 'I' for Inactive)
    1  A    between atoms: C_4  and  C_21
    2  A    between atoms: C_6  and  C_14
    3  A    between atoms: C_11  and  C_14
    4  A    between atoms: C_11  and  C_25
    5  A    between atoms: C_12  and  C_24
    6  A    between atoms: C_24  and  C_25
                            x       y       z     vdW  Elec       q    Type
                         _______ _______ _______ _____ _____    ______ ____

>  <TORSDO>
F 6

$$$$
=
 OpenBabel11042410553D

 26 28  0  0  1  0  0  0  0  0999 V2000
  190.5480  177.1380  146.2190 C   0  0  0  0  0  0  0  0  0  0  0  0
  187.6830  176.5960  144.1440 N   0  0  0  0  0  0  0  0  0  0  0  0
  190.7360  176.7830  147.5830 N   0  0  0  0  0  1  0  0  0  0  0  0
  187.1320  178.1620  142.3300 C   0  0  2  0  0  3  0  0  0  0  0  0
  189.4570  178.0250  143.3680 C   0  0  0  0  0  0  0  0  0  0  0  0
  188.8540  177.1140  144.3770 C   0  0  0  0  0  0  0  0  0  0  0  0
  191.7830  178.1970  144.3420 C   0  0  0  0  0  3  0  0  0  0  0  0
  186.9490  176.7530  142.8900 C   0  0  0  0  0  2  0  0  0  0  0  0
  188.6250  178.4630  142.1770 C   0  0  1  0  0  3  0  0  0  0  0  0
  190.7110  178.4650  143.3880 C   0  0  0  0  0  3  0  0  0  0  0  0
  189.3880  176.9050  145.6870 N   0  0  0  0  0  0  0  0  0  0  0  0
  191.6810  177.6420  145.5060 N   0  0  0  0  0  0  0  0  0  0  0  0
  190.0640  176.8680  140.8890 C   0  0  0  0  0  3  0  0  0  0  0  0
  189.1500  177.9250  140.8750 C   0  0  0  0  0  0  0  0  0  0  0  0
  189.2750  177.9440  138.4560 C   0  0  0  0  0  3  0  0  0  0  0  0
  190.5560  176.3740  139.7200 N   0  0  0  0  0  0  0  0  0  0  0  0
  188.7590  178.4660  139.6430 C   0  0  0  0  0  3  0  0  0  0  0  0
  190.7190  176.3420  137.3160 N   0  0  0  0  0  1  0  0  0  0  0  0
  190.1820  176.8850  138.5160 C   0  0  0  0  0  0  0  0  0  0  0  0
  186.4670  179.2150  143.2160 C   0  0  0  0  0  2  0  0  0  0  0  0
  184.9830  179.4030  142.9100 C   0  0  1  0  0  3  0  0  0  0  0  0
  184.7420  179.2580  141.5410 O   0  0  0  0  0  1  0  0  0  0  0  0
  184.1200  178.4400  143.7110 C   0  0  0  0  0  2  0  0  0  0  0  0
  183.8480  179.0020  145.0940 C   0  0  0  0  0  2  0  0  0  0  0  0
  184.7890  178.3780  146.1080 C   0  0  0  0  0  2  0  0  0  0  0  0
  185.4380  179.3780  146.8340 O   0  0  0  0  0  1  0  0  0  0  0  0
  1  3  1  0  0  0  0
  2  6  2  0  0  0  0
  4  8  1  0  0  0  0
  4 20  1  1  0  0  0
  5 10  2  0  0  0  0
  5  6  1  0  0  0  0
  6 11  1  0  0  0  0
  7 12  2  0  0  0  0
  8  2  1  0  0  0  0
  9 14  1  6  0  0  0
  9  4  1  0  0  0  0
  9  5  1  0  0  0  0
 10  7  1  0  0  0  0
 11  1  2  0  0  0  0
 12  1  1  0  0  0  0
 14 13  1  0  0  0  0
 15 19  2  0  0  0  0
 15 17  1  0  0  0  0
 16 13  2  0  0  0  0
 17 14  2  0  0  0  0
 18 19  1  0  0  0  0
 19 16  1  0  0  0  0
 21 22  1  6  0  0  0
 21 20  1  0  0  0  0
 21 23  1  0  0  0  0
 23 24  1  0  0  0  0
 24 25  1  0  0  0  0
 25 26  1  0  0  0  0
M  END
>  <MODEL>
6

>  <REMARK>
 VINA RESULT:      -7.1      2.664      6.086
  Name = 
  6 active torsions:
  status: ('A' for Active; 'I' for Inactive)
    1  A    between atoms: C_4  and  C_21
    2  A    between atoms: C_6  and  C_14
    3  A    between atoms: C_11  and  C_14
    4  A    between atoms: C_11  and  C_25
    5  A    between atoms: C_12  and  C_24
    6  A    between atoms: C_24  and  C_25
                            x       y       z     vdW  Elec       q    Type
                         _______ _______ _______ _____ _____    ______ ____

>  <TORSDO>
F 6

$$$$
=
 OpenBabel11042410553D

 26 28  0  0  1  0  0  0  0  0999 V2000
  184.4850  178.5120  145.3170 C   0  0  0  0  0  0  0  0  0  0  0  0
  186.9070  176.7450  143.3630 N   0  0  0  0  0  0  0  0  0  0  0  0
  183.0820  178.6190  145.1080 N   0  0  0  0  0  1  0  0  0  0  0  0
  189.2250  177.5490  143.2090 C   0  0  2  0  0  3  0  0  0  0  0  0
  187.6450  178.2620  145.0800 C   0  0  0  0  0  0  0  0  0  0  0  0
  186.5740  177.5650  144.3170 C   0  0  0  0  0  0  0  0  0  0  0  0
  186.2280  179.2440  146.9280 C   0  0  0  0  0  3  0  0  0  0  0  0
  188.2820  176.3590  143.0520 C   0  0  0  0  0  2  0  0  0  0  0  0
  189.0850  178.1320  144.6170 C   0  0  1  0  0  3  0  0  0  0  0  0
  187.4570  178.9680  146.1890 C   0  0  0  0  0  3  0  0  0  0  0  0
  185.1820  177.8730  144.4300 N   0  0  0  0  0  0  0  0  0  0  0  0
  185.0120  179.0390  146.5380 N   0  0  0  0  0  0  0  0  0  0  0  0
  191.2680  177.0890  145.2670 C   0  0  0  0  0  3  0  0  0  0  0  0
  189.9410  177.3800  145.5970 C   0  0  0  0  0  0  0  0  0  0  0  0
  190.2650  176.2420  147.7110 C   0  0  0  0  0  3  0  0  0  0  0  0
  192.0550  176.4020  146.1380 N   0  0  0  0  0  0  0  0  0  0  0  0
  189.4400  176.9450  146.8320 C   0  0  0  0  0  3  0  0  0  0  0  0
  192.4380  175.2610  148.2250 N   0  0  0  0  0  1  0  0  0  0  0  0
  191.5850  175.9780  147.3420 C   0  0  0  0  0  0  0  0  0  0  0  0
  188.9570  178.6280  142.1600 C   0  0  0  0  0  2  0  0  0  0  0  0
  188.4680  178.0590  140.8290 C   0  0  1  0  0  3  0  0  0  0  0  0
  187.3020  178.7100  140.4160 O   0  0  0  0  0  1  0  0  0  0  0  0
  189.5400  178.1480  139.7540 C   0  0  0  0  0  2  0  0  0  0  0  0
  189.1170  177.3690  138.5230 C   0  0  0  0  0  2  0  0  0  0  0  0
  189.2330  178.2400  137.2860 C   0  0  0  0  0  2  0  0  0  0  0  0
  189.0550  179.5810  137.6290 O   0  0  0  0  0  1  0  0  0  0  0  0
  1 12  1  0  0  0  0
  2  6  2  0  0  0  0
  3  1  1  0  0  0  0
  4 20  1  6  0  0  0
  4  9  1  0  0  0  0
  5 10  2  0  0  0  0
  6 11  1  0  0  0  0
  6  5  1  0  0  0  0
  8  4  1  0  0  0  0
  8  2  1  0  0  0  0
  9  5  1  0  0  0  0
  9 14  1  1  0  0  0
 10  7  1  0  0  0  0
 11  1  2  0  0  0  0
 12  7  2  0  0  0  0
 13 14  2  0  0  0  0
 13 16  1  0  0  0  0
 14 17  1  0  0  0  0
 16 19  2  0  0  0  0
 17 15  2  0  0  0  0
 19 15  1  0  0  0  0
 19 18  1  0  0  0  0
 21 22  1  6  0  0  0
 21 20  1  0  0  0  0
 23 21  1  0  0  0  0
 24 23  1  0  0  0  0
 25 26  1  0  0  0  0
 25 24  1  0  0  0  0
M  END
>  <MODEL>
7

>  <REMARK>
 VINA RESULT:      -6.9      3.613      7.583
  Name = 
  6 active torsions:
  status: ('A' for Active; 'I' for Inactive)
    1  A    between atoms: C_4  and  C_21
    2  A    between atoms: C_6  and  C_14
    3  A    between atoms: C_11  and  C_14
    4  A    between atoms: C_11  and  C_25
    5  A    between atoms: C_12  and  C_24
    6  A    between atoms: C_24  and  C_25
                            x       y       z     vdW  Elec       q    Type
                         _______ _______ _______ _____ _____    ______ ____

>  <TORSDO>
F 6

$$$$
=
 OpenBabel11042410553D

 26 28  0  0  1  0  0  0  0  0999 V2000
  190.7770  177.1680  146.2780 C   0  0  0  0  0  0  0  0  0  0  0  0
  187.8290  176.3770  144.4100 N   0  0  0  0  0  0  0  0  0  0  0  0
  191.1070  176.8040  147.6130 N   0  0  0  0  0  1  0  0  0  0  0  0
  186.9810  177.9160  142.6900 C   0  0  2  0  0  3  0  0  0  0  0  0
  189.3820  177.9990  143.5450 C   0  0  0  0  0  0  0  0  0  0  0  0
  188.9550  177.0080  144.5690 C   0  0  0  0  0  0  0  0  0  0  0  0
  191.7470  178.3910  144.3460 C   0  0  0  0  0  3  0  0  0  0  0  0
  186.9870  176.4840  143.2200 C   0  0  0  0  0  2  0  0  0  0  0  0
  188.4190  178.3750  142.4340 C   0  0  1  0  0  3  0  0  0  0  0  0
  190.5820  178.5660  143.4840 C   0  0  0  0  0  3  0  0  0  0  0  0
  189.6090  176.8280  145.8280 N   0  0  0  0  0  0  0  0  0  0  0  0
  191.7940  177.8020  145.4970 N   0  0  0  0  0  0  0  0  0  0  0  0
  189.8650  176.9220  140.9930 C   0  0  0  0  0  3  0  0  0  0  0  0
  188.8920  177.9230  141.0810 C   0  0  0  0  0  0  0  0  0  0  0  0
  188.8670  178.0490  138.6620 C   0  0  0  0  0  3  0  0  0  0  0  0
  190.3120  176.5070  139.7770 N   0  0  0  0  0  0  0  0  0  0  0  0
  188.3960  178.4890  139.8990 C   0  0  0  0  0  3  0  0  0  0  0  0
  190.3280  176.5840  137.3680 N   0  0  0  0  0  1  0  0  0  0  0  0
  189.8360  177.0440  138.6210 C   0  0  0  0  0  0  0  0  0  0  0  0
  186.2840  178.8750  143.6550 C   0  0  0  0  0  2  0  0  0  0  0  0
  184.8450  178.4680  143.9670 C   0  0  1  0  0  3  0  0  0  0  0  0
  184.4760  178.9080  145.2410 O   0  0  0  0  0  1  0  0  0  0  0  0
  183.8760  178.9910  142.9190 C   0  0  0  0  0  2  0  0  0  0  0  0
  183.9470  178.1400  141.6640 C   0  0  0  0  0  2  0  0  0  0  0  0
  183.7690  179.0080  140.4320 C   0  0  0  0  0  2  0  0  0  0  0  0
  184.9310  179.7440  140.1960 O   0  0  0  0  0  1  0  0  0  0  0  0
  1  3  1  0  0  0  0
  2  6  2  0  0  0  0
  4  8  1  0  0  0  0
  4 20  1  1  0  0  0
  5  6  1  0  0  0  0
  6 11  1  0  0  0  0
  7 12  2  0  0  0  0
  8  2  1  0  0  0  0
  9 14  1  6  0  0  0
  9  4  1  0  0  0  0
  9  5  1  0  0  0  0
 10  5  2  0  0  0  0
 10  7  1  0  0  0  0
 11  1  2  0  0  0  0
 12  1  1  0  0  0  0
 13 14  1  0  0  0  0
 15 17  1  0  0  0  0
 16 13  2  0  0  0  0
 17 14  2  0  0  0  0
 18 19  1  0  0  0  0
 19 15  2  0  0  0  0
 19 16  1  0  0  0  0
 20 21  1  0  0  0  0
 21 22  1  1  0  0  0
 23 21  1  0  0  0  0
 24 23  1  0  0  0  0
 25 24  1  0  0  0  0
 26 25  1  0  0  0  0
M  END
>  <MODEL>
8

>  <REMARK>
 VINA RESULT:      -6.9      2.892      6.473
  Name = 
  6 active torsions:
  status: ('A' for Active; 'I' for Inactive)
    1  A    between atoms: C_4  and  C_21
    2  A    between atoms: C_6  and  C_14
    3  A    between atoms: C_11  and  C_14
    4  A    between atoms: C_11  and  C_25
    5  A    between atoms: C_12  and  C_24
    6  A    between atoms: C_24  and  C_25
                            x       y       z     vdW  Elec       q    Type
                         _______ _______ _______ _____ _____    ______ ____

>  <TORSDO>
F 6

$$$$
=
 OpenBabel11042410553D

 26 28  0  0  1  0  0  0  0  0999 V2000
  184.9200  178.4800  145.8010 C   0  0  0  0  0  0  0  0  0  0  0  0
  187.0950  176.5900  143.6810 N   0  0  0  0  0  0  0  0  0  0  0  0
  183.5080  178.6310  145.7170 N   0  0  0  0  0  1  0  0  0  0  0  0
  189.4150  177.3100  143.2990 C   0  0  2  0  0  3  0  0  0  0  0  0
  188.0350  178.1160  145.2860 C   0  0  0  0  0  0  0  0  0  0  0  0
  186.8770  177.4410  144.6400 C   0  0  0  0  0  0  0  0  0  0  0  0
  186.8250  179.1850  147.2300 C   0  0  0  0  0  3  0  0  0  0  0  0
  188.4230  176.1500  143.2560 C   0  0  0  0  0  2  0  0  0  0  0  0
  189.4220  177.9270  144.6990 C   0  0  1  0  0  3  0  0  0  0  0  0
  187.9720  178.8520  146.3900 C   0  0  0  0  0  3  0  0  0  0  0  0
  185.5120  177.7990  144.8700 N   0  0  0  0  0  0  0  0  0  0  0  0
  185.5720  179.0140  146.9560 N   0  0  0  0  0  0  0  0  0  0  0  0
  190.1100  177.1970  146.9950 C   0  0  0  0  0  3  0  0  0  0  0  0
  190.3390  177.1670  145.6160 C   0  0  0  0  0  0  0  0  0  0  0  0
  192.2650  175.7520  146.0110 C   0  0  0  0  0  3  0  0  0  0  0  0
  190.9350  176.5220  147.8400 N   0  0  0  0  0  0  0  0  0  0  0  0
  191.4310  176.4380  145.1270 C   0  0  0  0  0  3  0  0  0  0  0  0
  192.8370  175.1130  148.2950 N   0  0  0  0  0  1  0  0  0  0  0  0
  191.9970  175.8060  147.3800 C   0  0  0  0  0  0  0  0  0  0  0  0
  189.0880  178.3750  142.2520 C   0  0  0  0  0  2  0  0  0  0  0  0
  188.7970  177.7870  140.8720 C   0  0  1  0  0  3  0  0  0  0  0  0
  187.7070  178.4340  140.2840 O   0  0  0  0  0  1  0  0  0  0  0  0
  190.0150  177.8590  139.9650 C   0  0  0  0  0  2  0  0  0  0  0  0
  189.5970  177.7440  138.5110 C   0  0  0  0  0  2  0  0  0  0  0  0
  190.3780  176.6380  137.8270 C   0  0  0  0  0  2  0  0  0  0  0  0
  190.6890  175.6340  138.7460 O   0  0  0  0  0  1  0  0  0  0  0  0
  1 12  1  0  0  0  0
  2  6  2  0  0  0  0
  3  1  1  0  0  0  0
  4 20  1  6  0  0  0
  4  9  1  0  0  0  0
  5 10  2  0  0  0  0
  6 11  1  0  0  0  0
  6  5  1  0  0  0  0
  8  4  1  0  0  0  0
  8  2  1  0  0  0  0
  9  5  1  0  0  0  0
  9 14  1  1  0  0  0
 10  7  1  0  0  0  0
 11  1  2  0  0  0  0
 12  7  2  0  0  0  0
 13 16  1  0  0  0  0
 14 13  2  0  0  0  0
 15 19  1  0  0  0  0
 17 14  1  0  0  0  0
 17 15  2  0  0  0  0
 19 16  2  0  0  0  0
 19 18  1  0  0  0  0
 21 22  1  6  0  0  0
 21 20  1  0  0  0  0
 23 21  1  0  0  0  0
 24 23  1  0  0  0  0
 25 24  1  0  0  0  0
 25 26  1  0  0  0  0
M  END
>  <MODEL>
9

>  <REMARK>
 VINA RESULT:      -6.8      3.709      7.575
  Name = 
  6 active torsions:
  status: ('A' for Active; 'I' for Inactive)
    1  A    between atoms: C_4  and  C_21
    2  A    between atoms: C_6  and  C_14
    3  A    between atoms: C_11  and  C_14
    4  A    between atoms: C_11  and  C_25
    5  A    between atoms: C_12  and  C_24
    6  A    between atoms: C_24  and  C_25
                            x       y       z     vdW  Elec       q    Type
                         _______ _______ _______ _____ _____    ______ ____

>  <TORSDO>
F 6

$$$$
