=
 OpenBabel11032419503D

 27 30  0  0  1  0  0  0  0  0999 V2000
  190.1260  176.1770  142.8700 C   0  0  0  0  0  3  0  0  0  0  0  0
  186.7080  178.2200  142.1470 O   0  0  0  0  0  0  0  0  0  0  0  0
  187.8650  177.6210  142.2210 C   0  0  0  0  0  0  0  0  0  0  0  0
  188.9560  177.2990  138.8260 C   0  0  0  0  0  2  0  0  0  0  0  0
  190.4350  177.2190  138.4340 C   0  0  1  0  0  3  0  0  0  0  0  0
  188.7130  178.2770  139.9650 C   0  0  0  0  0  2  0  0  0  0  0  0
  190.0650  176.8450  141.6270 C   0  0  0  0  0  0  0  0  0  0  0  0
  186.8190  177.1730  144.1250 N   0  0  0  0  0  0  0  0  0  0  0  0
  187.9450  176.9810  143.4190 C   0  0  0  0  0  0  0  0  0  0  0  0
  189.0610  176.2380  143.7870 C   0  0  0  0  0  3  0  0  0  0  0  0
  191.4250  177.5410  139.5600 C   0  0  0  0  0  2  0  0  0  0  0  0
  191.1940  176.7280  140.7490 N   0  0  0  0  0  2  0  0  0  0  0  0
  188.8960  177.5840  141.2810 C   0  0  0  0  0  0  0  0  0  0  0  0
  186.0870  177.9510  143.2850 C   0  0  0  0  0  0  0  0  0  0  0  0
  191.3090  173.4930  136.4550 C   0  0  0  0  0  0  0  0  0  0  0  0
  189.9850  173.8510  136.7590 C   0  0  0  0  0  0  0  0  0  0  0  0
  192.0790  175.5740  137.4490 C   0  0  0  0  0  3  0  0  0  0  0  0
  188.8500  172.9530  136.4030 C   0  0  0  0  0  1  0  0  0  0  0  0
  190.7570  175.9260  137.7520 C   0  0  0  0  0  0  0  0  0  0  0  0
  192.3530  174.3650  136.8060 C   0  0  0  0  0  3  0  0  0  0  0  0
  189.7150  175.0620  137.4040 C   0  0  0  0  0  3  0  0  0  0  0  0
  191.5680  172.2770  135.8100 O   0  0  0  0  0  0  0  0  0  0  0  0
  192.8820  171.7650  135.6320 C   0  0  0  0  0  1  0  0  0  0  0  0
  184.7380  178.4310  143.6350 C   0  0  0  0  0  3  0  0  0  0  0  0
  184.4260  179.0120  144.7550 N   0  0  0  0  0  0  0  0  0  0  0  0
  185.3590  179.2790  145.8390 C   0  0  0  0  0  2  0  0  0  0  0  0
  184.9600  178.5330  147.0170 N   0  0  0  0  0  1  0  0  0  0  0  0
  1 10  1  0  0  0  0
  2  3  1  0  0  0  0
  2 14  1  0  0  0  0
  3  9  1  0  0  0  0
  4  6  1  0  0  0  0
  5 19  1  1  0  0  0
  5  4  1  0  0  0  0
  5 11  1  0  0  0  0
  6 13  1  0  0  0  0
  7  1  2  0  0  0  0
  9 10  2  0  0  0  0
  9  8  1  0  0  0  0
 11 12  1  0  0  0  0
 12  7  1  0  0  0  0
 13  7  1  0  0  0  0
 13  3  2  0  0  0  0
 14 24  1  0  0  0  0
 14  8  2  0  0  0  0
 15 16  2  0  0  0  0
 15 20  1  0  0  0  0
 16 21  1  0  0  0  0
 17 19  1  0  0  0  0
 18 16  1  0  0  0  0
 20 17  2  0  0  0  0
 21 19  2  0  0  0  0
 22 15  1  0  0  0  0
 23 22  1  0  0  0  0
 24 25  2  0  0  0  0
 25 26  1  0  0  0  0
 26 27  1  0  0  0  0
M  END
>  <MODEL>
1

>  <REMARK>
 VINA RESULT:      -7.0      0.000      0.000
  Name = 
  4 active torsions:
  status: ('A' for Active; 'I' for Inactive)
    1  A    between atoms: C_3  and  C_26
    2  A    between atoms: O_6  and  C_7
    3  A    between atoms: C_8  and  C_15
    4  A    between atoms: C_17  and  N_20
                            x       y       z     vdW  Elec       q    Type
                         _______ _______ _______ _____ _____    ______ ____

>  <TORSDO>
F 4

$$$$
=
 OpenBabel11032419503D

 27 30  0  0  1  0  0  0  0  0999 V2000
  188.7160  178.6260  139.4380 C   0  0  0  0  0  3  0  0  0  0  0  0
  190.7710  175.2080  138.7420 O   0  0  0  0  0  0  0  0  0  0  0  0
  190.1840  176.3090  139.1290 C   0  0  0  0  0  0  0  0  0  0  0  0
  190.2080  176.1600  142.7060 C   0  0  0  0  0  2  0  0  0  0  0  0
  190.1890  177.4130  143.5880 C   0  0  1  0  0  3  0  0  0  0  0  0
  191.0680  176.3430  141.4640 C   0  0  0  0  0  2  0  0  0  0  0  0
  189.5010  178.1540  140.5140 C   0  0  0  0  0  0  0  0  0  0  0  0
  189.5380  175.9710  137.0340 N   0  0  0  0  0  0  0  0  0  0  0  0
  189.4320  176.7820  138.0980 C   0  0  0  0  0  0  0  0  0  0  0  0
  188.6720  177.9410  138.2100 C   0  0  0  0  0  3  0  0  0  0  0  0
  190.4140  178.7360  142.8450 C   0  0  0  0  0  2  0  0  0  0  0  0
  189.4860  178.9110  141.7330 N   0  0  0  0  0  2  0  0  0  0  0  0
  190.2530  176.9530  140.3650 C   0  0  0  0  0  0  0  0  0  0  0  0
  190.3840  175.0110  137.4920 C   0  0  0  0  0  0  0  0  0  0  0  0
  186.7170  177.5570  146.1360 C   0  0  0  0  0  0  0  0  0  0  0  0
  188.0080  177.6850  146.6750 C   0  0  0  0  0  0  0  0  0  0  0  0
  187.6860  177.3290  143.9180 C   0  0  0  0  0  3  0  0  0  0  0  0
  188.2090  177.8770  148.1380 C   0  0  0  0  0  1  0  0  0  0  0  0
  188.9720  177.4550  144.4600 C   0  0  0  0  0  0  0  0  0  0  0  0
  186.5660  177.3780  144.7510 C   0  0  0  0  0  3  0  0  0  0  0  0
  189.1260  177.6350  145.8370 C   0  0  0  0  0  3  0  0  0  0  0  0
  185.6030  177.6080  146.9840 O   0  0  0  0  0  0  0  0  0  0  0  0
  184.4900  178.4580  146.7410 C   0  0  0  0  0  1  0  0  0  0  0  0
  190.8080  173.8740  136.6550 C   0  0  0  0  0  3  0  0  0  0  0  0
  192.0100  173.7040  136.1910 N   0  0  0  0  0  0  0  0  0  0  0  0
  193.1250  174.6090  136.4240 C   0  0  0  0  0  2  0  0  0  0  0  0
  193.9230  174.1190  137.5320 N   0  0  0  0  0  1  0  0  0  0  0  0
  1  7  1  0  0  0  0
  2  3  1  0  0  0  0
  3 13  1  0  0  0  0
  4  5  1  0  0  0  0
  5 19  1  6  0  0  0
  6  4  1  0  0  0  0
  7 12  1  0  0  0  0
  8 14  2  0  0  0  0
  8  9  1  0  0  0  0
  9 10  1  0  0  0  0
  9  3  2  0  0  0  0
 10  1  2  0  0  0  0
 11  5  1  0  0  0  0
 12 11  1  0  0  0  0
 13  7  2  0  0  0  0
 13  6  1  0  0  0  0
 14  2  1  0  0  0  0
 15 16  1  0  0  0  0
 15 22  1  0  0  0  0
 16 18  1  0  0  0  0
 17 19  2  0  0  0  0
 17 20  1  0  0  0  0
 19 21  1  0  0  0  0
 20 15  2  0  0  0  0
 21 16  2  0  0  0  0
 23 22  1  0  0  0  0
 24 14  1  0  0  0  0
 25 26  1  0  0  0  0
 25 24  2  0  0  0  0
 26 27  1  0  0  0  0
M  END
>  <MODEL>
2

>  <REMARK>
 VINA RESULT:      -7.0      2.682      8.830
  Name = 
  4 active torsions:
  status: ('A' for Active; 'I' for Inactive)
    1  A    between atoms: C_3  and  C_26
    2  A    between atoms: O_6  and  C_7
    3  A    between atoms: C_8  and  C_15
    4  A    between atoms: C_17  and  N_20
                            x       y       z     vdW  Elec       q    Type
                         _______ _______ _______ _____ _____    ______ ____

>  <TORSDO>
F 4

$$$$
=
 OpenBabel11032419503D

 27 30  0  0  1  0  0  0  0  0999 V2000
  188.9260  174.3870  137.0520 C   0  0  0  0  0  3  0  0  0  0  0  0
  192.9660  174.6430  137.0440 O   0  0  0  0  0  0  0  0  0  0  0  0
  191.6650  174.7220  137.1230 C   0  0  0  0  0  0  0  0  0  0  0  0
  191.0430  177.0900  139.7360 C   0  0  0  0  0  2  0  0  0  0  0  0
  189.7680  177.9370  139.8000 C   0  0  1  0  0  3  0  0  0  0  0  0
  191.5470  176.9150  138.3110 C   0  0  0  0  0  2  0  0  0  0  0  0
  189.4660  175.5610  137.6250 C   0  0  0  0  0  0  0  0  0  0  0  0
  192.1030  172.7920  136.1210 N   0  0  0  0  0  0  0  0  0  0  0  0
  191.1290  173.6030  136.5650 C   0  0  0  0  0  0  0  0  0  0  0  0
  189.7560  173.3890  136.5120 C   0  0  0  0  0  3  0  0  0  0  0  0
  188.8910  177.8920  138.5430 C   0  0  0  0  0  2  0  0  0  0  0  0
  188.5480  176.5280  138.1560 N   0  0  0  0  0  2  0  0  0  0  0  0
  190.8800  175.7350  137.6740 C   0  0  0  0  0  0  0  0  0  0  0  0
  193.2230  173.4900  136.4440 C   0  0  0  0  0  0  0  0  0  0  0  0
  187.4680  177.1580  143.3590 C   0  0  0  0  0  0  0  0  0  0  0  0
  187.0000  178.0560  142.3850 C   0  0  0  0  0  0  0  0  0  0  0  0
  189.4530  176.7610  142.0130 C   0  0  0  0  0  3  0  0  0  0  0  0
  185.6970  178.7580  142.5560 C   0  0  0  0  0  1  0  0  0  0  0  0
  188.9840  177.6590  141.0450 C   0  0  0  0  0  0  0  0  0  0  0  0
  188.7000  176.5130  143.1630 C   0  0  0  0  0  3  0  0  0  0  0  0
  187.7570  178.3010  141.2360 C   0  0  0  0  0  3  0  0  0  0  0  0
  186.7010  176.9190  144.5070 O   0  0  0  0  0  0  0  0  0  0  0  0
  186.9400  177.5790  145.7430 C   0  0  0  0  0  1  0  0  0  0  0  0
  194.5760  172.9870  136.1450 C   0  0  0  0  0  3  0  0  0  0  0  0
  195.4260  172.5740  137.0360 N   0  0  0  0  0  0  0  0  0  0  0  0
  195.1770  172.5420  138.4690 C   0  0  0  0  0  2  0  0  0  0  0  0
  195.7870  173.7010  139.0920 N   0  0  0  0  0  1  0  0  0  0  0  0
  1  7  1  0  0  0  0
  2  3  1  0  0  0  0
  3 13  1  0  0  0  0
  4  5  1  0  0  0  0
  5 19  1  1  0  0  0
  6  4  1  0  0  0  0
  7 13  2  0  0  0  0
  7 12  1  0  0  0  0
  8 14  2  0  0  0  0
  8  9  1  0  0  0  0
  9  3  2  0  0  0  0
 10  9  1  0  0  0  0
 10  1  2  0  0  0  0
 11  5  1  0  0  0  0
 12 11  1  0  0  0  0
 13  6  1  0  0  0  0
 14  2  1  0  0  0  0
 15 22  1  0  0  0  0
 16 18  1  0  0  0  0
 16 15  2  0  0  0  0
 17 20  2  0  0  0  0
 19 21  2  0  0  0  0
 19 17  1  0  0  0  0
 20 15  1  0  0  0  0
 21 16  1  0  0  0  0
 22 23  1  0  0  0  0
 24 14  1  0  0  0  0
 24 25  2  0  0  0  0
 25 26  1  0  0  0  0
 26 27  1  0  0  0  0
M  END
>  <MODEL>
3

>  <REMARK>
 VINA RESULT:      -7.0      3.072      8.713
  Name = 
  4 active torsions:
  status: ('A' for Active; 'I' for Inactive)
    1  A    between atoms: C_3  and  C_26
    2  A    between atoms: O_6  and  C_7
    3  A    between atoms: C_8  and  C_15
    4  A    between atoms: C_17  and  N_20
                            x       y       z     vdW  Elec       q    Type
                         _______ _______ _______ _____ _____    ______ ____

>  <TORSDO>
F 4

$$$$
=
 OpenBabel11032419503D

 27 30  0  0  1  0  0  0  0  0999 V2000
  190.0610  176.2280  142.7860 C   0  0  0  0  0  3  0  0  0  0  0  0
  186.6120  178.2400  142.1220 O   0  0  0  0  0  0  0  0  0  0  0  0
  187.7750  177.6490  142.1750 C   0  0  0  0  0  0  0  0  0  0  0  0
  188.7860  177.2960  138.7580 C   0  0  0  0  0  2  0  0  0  0  0  0
  190.2560  177.2220  138.3320 C   0  0  1  0  0  3  0  0  0  0  0  0
  188.5640  178.2850  139.8920 C   0  0  0  0  0  2  0  0  0  0  0  0
  189.9650  176.8820  141.5370 C   0  0  0  0  0  0  0  0  0  0  0  0
  186.7780  177.2160  144.1080 N   0  0  0  0  0  0  0  0  0  0  0  0
  187.8880  177.0240  143.3780 C   0  0  0  0  0  0  0  0  0  0  0  0
  189.0180  176.2920  143.7270 C   0  0  0  0  0  3  0  0  0  0  0  0
  191.2710  177.5630  139.4300 C   0  0  0  0  0  2  0  0  0  0  0  0
  191.0740  176.7620  140.6340 N   0  0  0  0  0  2  0  0  0  0  0  0
  188.7830  177.6080  141.2110 C   0  0  0  0  0  0  0  0  0  0  0  0
  186.0210  177.9800  143.2780 C   0  0  0  0  0  0  0  0  0  0  0  0
  191.2100  173.4860  136.4080 C   0  0  0  0  0  0  0  0  0  0  0  0
  192.2280  174.3630  136.8190 C   0  0  0  0  0  0  0  0  0  0  0  0
  189.5500  175.0500  137.2520 C   0  0  0  0  0  3  0  0  0  0  0  0
  193.6620  174.0220  136.6010 C   0  0  0  0  0  1  0  0  0  0  0  0
  190.5700  175.9230  137.6570 C   0  0  0  0  0  0  0  0  0  0  0  0
  189.8690  173.8410  136.6310 C   0  0  0  0  0  3  0  0  0  0  0  0
  191.9050  175.5730  137.4390 C   0  0  0  0  0  3  0  0  0  0  0  0
  191.5440  172.2770  135.7870 O   0  0  0  0  0  0  0  0  0  0  0  0
  190.7990  171.7360  134.7050 C   0  0  0  0  0  1  0  0  0  0  0  0
  184.6770  178.4550  143.6550 C   0  0  0  0  0  3  0  0  0  0  0  0
  184.3880  179.0430  144.7770 N   0  0  0  0  0  0  0  0  0  0  0  0
  185.3440  179.3250  145.8370 C   0  0  0  0  0  2  0  0  0  0  0  0
  184.9720  178.5930  147.0330 N   0  0  0  0  0  1  0  0  0  0  0  0
  1 10  1  0  0  0  0
  2  3  1  0  0  0  0
  2 14  1  0  0  0  0
  3  9  1  0  0  0  0
  4  6  1  0  0  0  0
  5 19  1  1  0  0  0
  5  4  1  0  0  0  0
  5 11  1  0  0  0  0
  6 13  1  0  0  0  0
  7  1  2  0  0  0  0
  9 10  2  0  0  0  0
  9  8  1  0  0  0  0
 11 12  1  0  0  0  0
 12  7  1  0  0  0  0
 13  7  1  0  0  0  0
 13  3  2  0  0  0  0
 14 24  1  0  0  0  0
 14  8  2  0  0  0  0
 15 20  2  0  0  0  0
 15 16  1  0  0  0  0
 16 21  2  0  0  0  0
 17 19  2  0  0  0  0
 18 16  1  0  0  0  0
 20 17  1  0  0  0  0
 21 19  1  0  0  0  0
 22 15  1  0  0  0  0
 23 22  1  0  0  0  0
 24 25  2  0  0  0  0
 25 26  1  0  0  0  0
 26 27  1  0  0  0  0
M  END
>  <MODEL>
4

>  <REMARK>
 VINA RESULT:      -7.0      0.529      1.407
  Name = 
  4 active torsions:
  status: ('A' for Active; 'I' for Inactive)
    1  A    between atoms: C_3  and  C_26
    2  A    between atoms: O_6  and  C_7
    3  A    between atoms: C_8  and  C_15
    4  A    between atoms: C_17  and  N_20
                            x       y       z     vdW  Elec       q    Type
                         _______ _______ _______ _____ _____    ______ ____

>  <TORSDO>
F 4

$$$$
=
 OpenBabel11032419503D

 27 30  0  0  1  0  0  0  0  0999 V2000
  187.7020  178.2900  140.4240 C   0  0  0  0  0  3  0  0  0  0  0  0
  186.3320  178.0170  144.2230 O   0  0  0  0  0  0  0  0  0  0  0  0
  186.6080  178.1560  142.9540 C   0  0  0  0  0  0  0  0  0  0  0  0
  183.4500  177.8880  141.2880 C   0  0  0  0  0  2  0  0  0  0  0  0
  183.1690  178.5490  139.9340 C   0  0  1  0  0  3  0  0  0  0  0  0
  184.3100  178.7620  142.1880 C   0  0  0  0  0  2  0  0  0  0  0  0
  186.3340  178.5940  140.6030 C   0  0  0  0  0  0  0  0  0  0  0  0
  188.5050  177.5540  143.9330 N   0  0  0  0  0  0  0  0  0  0  0  0
  187.9260  177.8780  142.7660 C   0  0  0  0  0  0  0  0  0  0  0  0
  188.5190  177.9270  141.5090 C   0  0  0  0  0  3  0  0  0  0  0  0
  184.2370  179.5410  139.4590 C   0  0  0  0  0  2  0  0  0  0  0  0
  185.5710  178.9520  139.4420 N   0  0  0  0  0  2  0  0  0  0  0  0
  185.7600  178.5160  141.9060 C   0  0  0  0  0  0  0  0  0  0  0  0
  187.4660  177.6580  144.8030 C   0  0  0  0  0  0  0  0  0  0  0  0
  182.2170  175.6660  136.8760 C   0  0  0  0  0  0  0  0  0  0  0  0
  182.3720  177.0260  136.5580 C   0  0  0  0  0  0  0  0  0  0  0  0
  182.6810  176.1800  139.2070 C   0  0  0  0  0  3  0  0  0  0  0  0
  182.2140  177.5040  135.1550 C   0  0  0  0  0  1  0  0  0  0  0  0
  182.8320  177.5350  138.8850 C   0  0  0  0  0  0  0  0  0  0  0  0
  182.3740  175.2520  138.2090 C   0  0  0  0  0  3  0  0  0  0  0  0
  182.6780  177.9510  137.5600 C   0  0  0  0  0  3  0  0  0  0  0  0
  181.9090  174.7480  135.8650 O   0  0  0  0  0  0  0  0  0  0  0  0
  182.7860  173.6940  135.4890 C   0  0  0  0  0  1  0  0  0  0  0  0
  187.6200  177.3910  146.2450 C   0  0  0  0  0  3  0  0  0  0  0  0
  186.9990  178.0350  147.1870 N   0  0  0  0  0  0  0  0  0  0  0  0
  186.0550  179.1210  146.9690 C   0  0  0  0  0  2  0  0  0  0  0  0
  184.7040  178.5950  146.9680 N   0  0  0  0  0  1  0  0  0  0  0  0
  1  7  2  0  0  0  0
  1 10  1  0  0  0  0
  2 14  1  0  0  0  0
  3  2  1  0  0  0  0
  4  6  1  0  0  0  0
  5 19  1  6  0  0  0
  5  4  1  0  0  0  0
  7 13  1  0  0  0  0
  8 14  2  0  0  0  0
  9  3  1  0  0  0  0
  9  8  1  0  0  0  0
 10  9  2  0  0  0  0
 11  5  1  0  0  0  0
 12 11  1  0  0  0  0
 12  7  1  0  0  0  0
 13  6  1  0  0  0  0
 13  3  2  0  0  0  0
 14 24  1  0  0  0  0
 15 20  1  0  0  0  0
 16 15  2  0  0  0  0
 16 21  1  0  0  0  0
 18 16  1  0  0  0  0
 19 17  1  0  0  0  0
 20 17  2  0  0  0  0
 21 19  2  0  0  0  0
 22 15  1  0  0  0  0
 23 22  1  0  0  0  0
 24 25  2  0  0  0  0
 26 25  1  0  0  0  0
 27 26  1  0  0  0  0
M  END
>  <MODEL>
5

>  <REMARK>
 VINA RESULT:      -7.0      4.446      6.261
  Name = 
  4 active torsions:
  status: ('A' for Active; 'I' for Inactive)
    1  A    between atoms: C_3  and  C_26
    2  A    between atoms: O_6  and  C_7
    3  A    between atoms: C_8  and  C_15
    4  A    between atoms: C_17  and  N_20
                            x       y       z     vdW  Elec       q    Type
                         _______ _______ _______ _____ _____    ______ ____

>  <TORSDO>
F 4

$$$$
=
 OpenBabel11032419503D

 27 30  0  0  1  0  0  0  0  0999 V2000
  189.3570  176.1690  143.0870 C   0  0  0  0  0  3  0  0  0  0  0  0
  186.4040  178.7310  142.0360 O   0  0  0  0  0  0  0  0  0  0  0  0
  187.4440  177.9650  142.2320 C   0  0  0  0  0  0  0  0  0  0  0  0
  189.0090  177.7000  139.0220 C   0  0  0  0  0  2  0  0  0  0  0  0
  190.5080  177.4300  138.8510 C   0  0  1  0  0  3  0  0  0  0  0  0
  188.7220  178.6300  140.1910 C   0  0  0  0  0  2  0  0  0  0  0  0
  189.5850  176.9160  141.9090 C   0  0  0  0  0  0  0  0  0  0  0  0
  186.0560  177.5570  143.9130 N   0  0  0  0  0  0  0  0  0  0  0  0
  187.2440  177.2470  143.3700 C   0  0  0  0  0  0  0  0  0  0  0  0
  188.1770  176.3280  143.8360 C   0  0  0  0  0  3  0  0  0  0  0  0
  191.3400  177.5330  140.1350 C   0  0  0  0  0  2  0  0  0  0  0  0
  190.8150  176.6900  141.2040 N   0  0  0  0  0  2  0  0  0  0  0  0
  188.5970  177.8370  141.4560 C   0  0  0  0  0  0  0  0  0  0  0  0
  185.5790  178.4850  143.0420 C   0  0  0  0  0  0  0  0  0  0  0  0
  191.2750  173.7390  136.7640 C   0  0  0  0  0  0  0  0  0  0  0  0
  192.3330  174.4960  137.2960 C   0  0  0  0  0  0  0  0  0  0  0  0
  189.6990  175.3950  137.5920 C   0  0  0  0  0  3  0  0  0  0  0  0
  193.7440  174.0410  137.1530 C   0  0  0  0  0  1  0  0  0  0  0  0
  190.7570  176.1480  138.1180 C   0  0  0  0  0  0  0  0  0  0  0  0
  189.9560  174.1990  136.9180 C   0  0  0  0  0  3  0  0  0  0  0  0
  192.0700  175.6930  137.9680 C   0  0  0  0  0  3  0  0  0  0  0  0
  191.5490  172.5420  136.0910 O   0  0  0  0  0  0  0  0  0  0  0  0
  191.3950  172.3960  134.6860 C   0  0  0  0  0  1  0  0  0  0  0  0
  184.2680  179.1340  143.2260 C   0  0  0  0  0  3  0  0  0  0  0  0
  183.2540  178.9940  142.4270 N   0  0  0  0  0  0  0  0  0  0  0  0
  183.2510  178.1750  141.2240 C   0  0  0  0  0  2  0  0  0  0  0  0
  183.5030  179.0120  140.0670 N   0  0  0  0  0  1  0  0  0  0  0  0
  1 10  1  0  0  0  0
  2  3  1  0  0  0  0
  2 14  1  0  0  0  0
  3  9  1  0  0  0  0
  4  6  1  0  0  0  0
  5 19  1  1  0  0  0
  5  4  1  0  0  0  0
  5 11  1  0  0  0  0
  6 13  1  0  0  0  0
  7  1  2  0  0  0  0
  9 10  2  0  0  0  0
  9  8  1  0  0  0  0
 11 12  1  0  0  0  0
 12  7  1  0  0  0  0
 13  7  1  0  0  0  0
 13  3  2  0  0  0  0
 14 24  1  0  0  0  0
 14  8  2  0  0  0  0
 15 20  2  0  0  0  0
 15 16  1  0  0  0  0
 16 21  2  0  0  0  0
 17 19  2  0  0  0  0
 18 16  1  0  0  0  0
 20 17  1  0  0  0  0
 21 19  1  0  0  0  0
 22 15  1  0  0  0  0
 23 22  1  0  0  0  0
 25 24  2  0  0  0  0
 26 25  1  0  0  0  0
 27 26  1  0  0  0  0
M  END
>  <MODEL>
6

>  <REMARK>
 VINA RESULT:      -6.9      1.377      2.316
  Name = 
  4 active torsions:
  status: ('A' for Active; 'I' for Inactive)
    1  A    between atoms: C_3  and  C_26
    2  A    between atoms: O_6  and  C_7
    3  A    between atoms: C_8  and  C_15
    4  A    between atoms: C_17  and  N_20
                            x       y       z     vdW  Elec       q    Type
                         _______ _______ _______ _____ _____    ______ ____

>  <TORSDO>
F 4

$$$$
=
 OpenBabel11032419503D

 27 30  0  0  1  0  0  0  0  0999 V2000
  188.3860  178.4400  140.4170 C   0  0  0  0  0  3  0  0  0  0  0  0
  190.9050  175.6580  138.8970 O   0  0  0  0  0  0  0  0  0  0  0  0
  190.2140  176.5770  139.5170 C   0  0  0  0  0  0  0  0  0  0  0  0
  191.4200  176.5210  142.8880 C   0  0  0  0  0  2  0  0  0  0  0  0
  191.3670  177.7450  143.8080 C   0  0  1  0  0  3  0  0  0  0  0  0
  191.7600  176.8930  141.4530 C   0  0  0  0  0  2  0  0  0  0  0  0
  189.5670  178.2130  141.1600 C   0  0  0  0  0  0  0  0  0  0  0  0
  189.0390  176.0360  137.7150 N   0  0  0  0  0  0  0  0  0  0  0  0
  189.0780  176.8150  138.8070 C   0  0  0  0  0  0  0  0  0  0  0  0
  188.1270  177.7400  139.2250 C   0  0  0  0  0  3  0  0  0  0  0  0
  191.0000  179.0640  143.1160 C   0  0  0  0  0  2  0  0  0  0  0  0
  189.7520  178.9670  142.3660 N   0  0  0  0  0  2  0  0  0  0  0  0
  190.5100  177.2450  140.7060 C   0  0  0  0  0  0  0  0  0  0  0  0
  190.2010  175.3390  137.8220 C   0  0  0  0  0  0  0  0  0  0  0  0
  188.9010  177.0040  147.2620 C   0  0  0  0  0  0  0  0  0  0  0  0
  188.3290  177.4170  146.0470 C   0  0  0  0  0  0  0  0  0  0  0  0
  191.1000  177.0760  146.2280 C   0  0  0  0  0  3  0  0  0  0  0  0
  186.8560  177.6060  145.9220 C   0  0  0  0  0  1  0  0  0  0  0  0
  190.5250  177.4890  145.0190 C   0  0  0  0  0  0  0  0  0  0  0  0
  190.2930  176.8360  147.3430 C   0  0  0  0  0  3  0  0  0  0  0  0
  189.1400  177.6560  144.9340 C   0  0  0  0  0  3  0  0  0  0  0  0
  188.0790  176.7680  148.3710 O   0  0  0  0  0  0  0  0  0  0  0  0
  187.7430  177.7800  149.3100 C   0  0  0  0  0  1  0  0  0  0  0  0
  190.6080  174.3330  136.8250 C   0  0  0  0  0  3  0  0  0  0  0  0
  191.4720  174.5380  135.8760 N   0  0  0  0  0  0  0  0  0  0  0  0
  192.1740  175.7930  135.6500 C   0  0  0  0  0  2  0  0  0  0  0  0
  193.4510  175.7630  136.3360 N   0  0  0  0  0  1  0  0  0  0  0  0
  1  7  1  0  0  0  0
  2  3  1  0  0  0  0
  3 13  1  0  0  0  0
  4  5  1  0  0  0  0
  5 19  1  1  0  0  0
  6  4  1  0  0  0  0
  7 12  1  0  0  0  0
  8 14  2  0  0  0  0
  8  9  1  0  0  0  0
  9 10  1  0  0  0  0
  9  3  2  0  0  0  0
 10  1  2  0  0  0  0
 11  5  1  0  0  0  0
 12 11  1  0  0  0  0
 13  7  2  0  0  0  0
 13  6  1  0  0  0  0
 14  2  1  0  0  0  0
 15 20  1  0  0  0  0
 15 22  1  0  0  0  0
 16 15  2  0  0  0  0
 17 20  2  0  0  0  0
 18 16  1  0  0  0  0
 19 17  1  0  0  0  0
 21 19  2  0  0  0  0
 21 16  1  0  0  0  0
 22 23  1  0  0  0  0
 24 14  1  0  0  0  0
 25 24  2  0  0  0  0
 26 25  1  0  0  0  0
 26 27  1  0  0  0  0
M  END
>  <MODEL>
7

>  <REMARK>
 VINA RESULT:      -6.9      3.032      8.656
  Name = 
  4 active torsions:
  status: ('A' for Active; 'I' for Inactive)
    1  A    between atoms: C_3  and  C_26
    2  A    between atoms: O_6  and  C_7
    3  A    between atoms: C_8  and  C_15
    4  A    between atoms: C_17  and  N_20
                            x       y       z     vdW  Elec       q    Type
                         _______ _______ _______ _____ _____    ______ ____

>  <TORSDO>
F 4

$$$$
=
 OpenBabel11032419503D

 27 30  0  0  1  0  0  0  0  0999 V2000
  189.5510  176.1640  142.9270 C   0  0  0  0  0  3  0  0  0  0  0  0
  186.5310  178.6460  141.8760 O   0  0  0  0  0  0  0  0  0  0  0  0
  187.5890  177.9050  142.0690 C   0  0  0  0  0  0  0  0  0  0  0  0
  189.1090  177.6100  138.8410 C   0  0  0  0  0  2  0  0  0  0  0  0
  190.6100  177.3660  138.6500 C   0  0  1  0  0  3  0  0  0  0  0  0
  188.8210  178.5560  139.9960 C   0  0  0  0  0  2  0  0  0  0  0  0
  189.7460  176.8920  141.7320 C   0  0  0  0  0  0  0  0  0  0  0  0
  186.2360  177.5020  143.7800 N   0  0  0  0  0  0  0  0  0  0  0  0
  187.4210  177.2060  143.2230 C   0  0  0  0  0  0  0  0  0  0  0  0
  188.3800  176.3130  143.6920 C   0  0  0  0  0  3  0  0  0  0  0  0
  191.4590  177.5110  139.9190 C   0  0  0  0  0  2  0  0  0  0  0  0
  190.9680  176.6770  141.0110 N   0  0  0  0  0  2  0  0  0  0  0  0
  188.7320  177.7850  141.2780 C   0  0  0  0  0  0  0  0  0  0  0  0
  185.7270  178.4030  142.9000 C   0  0  0  0  0  0  0  0  0  0  0  0
  191.3160  173.6520  136.5840 C   0  0  0  0  0  0  0  0  0  0  0  0
  190.0110  174.0500  136.9200 C   0  0  0  0  0  0  0  0  0  0  0  0
  192.1770  175.6850  137.6020 C   0  0  0  0  0  3  0  0  0  0  0  0
  188.8400  173.1980  136.5680 C   0  0  0  0  0  1  0  0  0  0  0  0
  190.8730  176.0770  137.9380 C   0  0  0  0  0  0  0  0  0  0  0  0
  192.3970  174.4810  136.9310 C   0  0  0  0  0  3  0  0  0  0  0  0
  189.7960  175.2560  137.5920 C   0  0  0  0  0  3  0  0  0  0  0  0
  191.5210  172.4410  135.9100 O   0  0  0  0  0  0  0  0  0  0  0  0
  192.8120  171.8850  135.7020 C   0  0  0  0  0  1  0  0  0  0  0  0
  184.4070  179.0300  143.0930 C   0  0  0  0  0  3  0  0  0  0  0  0
  183.3980  178.8960  142.2850 N   0  0  0  0  0  0  0  0  0  0  0  0
  183.4130  178.1060  141.0630 C   0  0  0  0  0  2  0  0  0  0  0  0
  183.6750  178.9730  139.9290 N   0  0  0  0  0  1  0  0  0  0  0  0
  1 10  1  0  0  0  0
  2  3  1  0  0  0  0
  2 14  1  0  0  0  0
  3  9  1  0  0  0  0
  4  6  1  0  0  0  0
  5 19  1  1  0  0  0
  5  4  1  0  0  0  0
  5 11  1  0  0  0  0
  6 13  1  0  0  0  0
  7  1  2  0  0  0  0
  9 10  2  0  0  0  0
  9  8  1  0  0  0  0
 11 12  1  0  0  0  0
 12  7  1  0  0  0  0
 13  7  1  0  0  0  0
 13  3  2  0  0  0  0
 14 24  1  0  0  0  0
 14  8  2  0  0  0  0
 15 16  2  0  0  0  0
 15 20  1  0  0  0  0
 16 21  1  0  0  0  0
 17 19  1  0  0  0  0
 18 16  1  0  0  0  0
 20 17  2  0  0  0  0
 21 19  2  0  0  0  0
 22 15  1  0  0  0  0
 23 22  1  0  0  0  0
 25 24  2  0  0  0  0
 26 25  1  0  0  0  0
 27 26  1  0  0  0  0
M  END
>  <MODEL>
8

>  <REMARK>
 VINA RESULT:      -6.9      1.279      1.845
  Name = 
  4 active torsions:
  status: ('A' for Active; 'I' for Inactive)
    1  A    between atoms: C_3  and  C_26
    2  A    between atoms: O_6  and  C_7
    3  A    between atoms: C_8  and  C_15
    4  A    between atoms: C_17  and  N_20
                            x       y       z     vdW  Elec       q    Type
                         _______ _______ _______ _____ _____    ______ ____

>  <TORSDO>
F 4

$$$$
=
 OpenBabel11032419503D

 27 30  0  0  1  0  0  0  0  0999 V2000
  187.5710  177.8370  138.7880 C   0  0  0  0  0  3  0  0  0  0  0  0
  188.5130  178.3640  142.6890 O   0  0  0  0  0  0  0  0  0  0  0  0
  188.0510  178.2650  141.4720 C   0  0  0  0  0  0  0  0  0  0  0  0
  184.4890  178.2860  141.8340 C   0  0  0  0  0  2  0  0  0  0  0  0
  183.5460  178.7770  140.7300 C   0  0  1  0  0  3  0  0  0  0  0  0
  185.7520  179.1280  141.9290 C   0  0  0  0  0  2  0  0  0  0  0  0
  186.5500  178.3890  139.5940 C   0  0  0  0  0  0  0  0  0  0  0  0
  190.1330  177.5060  141.4010 N   0  0  0  0  0  0  0  0  0  0  0  0
  189.0270  177.7450  140.6800 C   0  0  0  0  0  0  0  0  0  0  0  0
  188.8290  177.5080  139.3240 C   0  0  0  0  0  3  0  0  0  0  0  0
  184.2300  179.4950  139.5610 C   0  0  0  0  0  2  0  0  0  0  0  0
  185.2960  178.6940  138.9670 N   0  0  0  0  0  2  0  0  0  0  0  0
  186.7880  178.6030  140.9830 C   0  0  0  0  0  0  0  0  0  0  0  0
  189.7560  177.9100  142.6420 C   0  0  0  0  0  0  0  0  0  0  0  0
  180.8590  175.6810  139.4040 C   0  0  0  0  0  0  0  0  0  0  0  0
  180.3890  176.7580  140.1750 C   0  0  0  0  0  0  0  0  0  0  0  0
  183.1000  176.6200  139.4950 C   0  0  0  0  0  3  0  0  0  0  0  0
  178.9500  176.8570  140.5510 C   0  0  0  0  0  1  0  0  0  0  0  0
  182.6270  177.6900  140.2660 C   0  0  0  0  0  0  0  0  0  0  0  0
  182.2210  175.6220  139.0680 C   0  0  0  0  0  3  0  0  0  0  0  0
  181.2720  177.7540  140.6010 C   0  0  0  0  0  3  0  0  0  0  0  0
  179.9660  174.6880  138.9820 O   0  0  0  0  0  0  0  0  0  0  0  0
  179.9080  174.2250  137.6400 C   0  0  0  0  0  1  0  0  0  0  0  0
  190.6640  177.8380  143.8010 C   0  0  0  0  0  3  0  0  0  0  0  0
  190.2950  177.5520  145.0140 N   0  0  0  0  0  0  0  0  0  0  0  0
  188.9290  177.2580  145.4190 C   0  0  0  0  0  2  0  0  0  0  0  0
  188.8740  177.1030  146.8600 N   0  0  0  0  0  1  0  0  0  0  0  0
  1 10  2  0  0  0  0
  1  7  1  0  0  0  0
  3  2  1  0  0  0  0
  4  6  1  0  0  0  0
  5 19  1  6  0  0  0
  5  4  1  0  0  0  0
  7 13  2  0  0  0  0
  8 14  2  0  0  0  0
  9  8  1  0  0  0  0
  9  3  2  0  0  0  0
 10  9  1  0  0  0  0
 11  5  1  0  0  0  0
 12 11  1  0  0  0  0
 12  7  1  0  0  0  0
 13  3  1  0  0  0  0
 13  6  1  0  0  0  0
 14  2  1  0  0  0  0
 14 24  1  0  0  0  0
 15 16  1  0  0  0  0
 16 18  1  0  0  0  0
 16 21  2  0  0  0  0
 17 19  2  0  0  0  0
 19 21  1  0  0  0  0
 20 15  2  0  0  0  0
 20 17  1  0  0  0  0
 22 15  1  0  0  0  0
 23 22  1  0  0  0  0
 24 25  2  0  0  0  0
 25 26  1  0  0  0  0
 26 27  1  0  0  0  0
M  END
>  <MODEL>
9

>  <REMARK>
 VINA RESULT:      -6.7      4.214      7.390
  Name = 
  4 active torsions:
  status: ('A' for Active; 'I' for Inactive)
    1  A    between atoms: C_3  and  C_26
    2  A    between atoms: O_6  and  C_7
    3  A    between atoms: C_8  and  C_15
    4  A    between atoms: C_17  and  N_20
                            x       y       z     vdW  Elec       q    Type
                         _______ _______ _______ _____ _____    ______ ____

>  <TORSDO>
F 4

$$$$
