=
 OpenBabel11032420543D

 47 55  0  0  1  0  0  0  0  0999 V2000
  189.5910  177.4270  137.1300 C   0  0  2  0  0  3  0  0  0  0  0  0
  185.5230  177.5240  137.0130 C   0  0  2  0  0  3  0  0  0  0  0  0
  189.2350  178.7350  136.4390 C   0  0  0  0  0  2  0  0  0  0  0  0
  186.0370  174.2620  136.7420 C   0  0  0  0  0  0  0  0  0  0  0  0
  184.7210  175.0530  136.7370 C   0  0  2  0  0  3  0  0  0  0  0  0
  184.1550  175.1800  135.3480 C   0  0  0  0  0  3  0  0  0  0  0  0
  181.9500  175.2750  136.2670 C   0  0  0  0  0  2  0  0  0  0  0  0
  186.8560  176.9630  136.9690 N   0  0  0  0  0  0  0  0  0  0  0  0
  187.2470  174.7700  136.2490 C   0  0  0  0  0  0  0  0  0  0  0  0
  189.5300  174.9000  136.4670 C   0  0  0  0  0  0  0  0  0  0  0  0
  183.2140  176.9370  137.7180 C   0  0  0  0  0  3  0  0  0  0  0  0
  185.9000  178.6180  138.0020 C   0  0  0  0  0  2  0  0  0  0  0  0
  187.3920  177.2140  139.3970 C   0  0  0  0  0  2  0  0  0  0  0  0
  188.4210  172.7800  136.9670 N   0  0  0  0  0  0  0  0  0  0  0  0
  182.8870  175.3050  135.1650 N   0  0  0  0  0  0  0  0  0  0  0  0
  187.6300  176.0700  136.2640 C   0  0  0  0  0  0  0  0  0  0  0  0
  189.1790  178.8830  139.0360 N   0  0  0  0  0  2  0  0  0  0  0  0
  188.9890  176.1950  136.4320 C   0  0  0  0  0  0  0  0  0  0  0  0
  188.4590  174.0170  136.4150 C   0  0  0  0  0  0  0  0  0  0  0  0
  188.5800  178.4520  137.7850 C   0  0  2  0  0  0  0  0  0  0  0  0
  188.6010  177.9440  140.0140 C   0  0  1  0  0  3  0  0  0  0  0  0
  187.2170  172.2600  137.3440 C   0  0  0  0  0  3  0  0  0  0  0  0
  182.0830  176.4850  137.1530 C   0  0  0  0  0  3  0  0  0  0  0  0
  187.1960  177.8690  138.0400 C   0  0  1  0  0  0  0  0  0  0  0  0
  186.0580  172.9890  137.2340 N   0  0  0  0  0  2  0  0  0  0  0  0
  184.6190  176.3970  137.5550 C   0  0  2  0  0  3  0  0  0  0  0  0
  191.5530  173.4760  136.6400 C   0  0  0  0  0  1  0  0  0  0  0  0
  190.7520  174.5820  137.1360 N   0  0  0  0  0  0  0  0  0  0  0  0
  191.3980  175.5740  137.9820 C   0  0  0  0  0  2  0  0  0  0  0  0
  192.8510  175.4710  137.8740 N   0  0  0  0  0  0  0  0  0  0  0  0
  193.3190  176.6150  137.1530 C   0  0  1  0  0  3  0  0  0  0  0  0
  193.3850  176.6140  138.5690 N   0  0  0  0  0  2  0  0  0  0  0  0
  194.4960  175.1910  135.7010 C   0  0  0  0  0  1  0  0  0  0  0  0
  195.0100  177.3820  135.8450 O   0  0  0  0  0  1  0  0  0  0  0  0
  194.6350  176.3250  136.6030 N   0  0  0  0  0  0  0  0  0  0  0  0
  188.2500  178.6250  141.3390 C   0  0  0  0  0  2  0  0  0  0  0  0
  188.7290  177.8620  142.5000 N   0  0  0  0  0  0  0  0  0  0  0  0
  189.8310  176.9490  142.1170 C   0  0  2  0  0  3  0  0  0  0  0  0
  189.7450  175.6270  142.8760 C   0  0  0  0  0  1  0  0  0  0  0  0
  191.2050  177.5280  142.3510 C   0  0  0  0  0  0  0  0  0  0  0  0
  191.9330  177.7870  141.4070 O   0  0  0  0  0  0  0  0  0  0  0  0
  191.3220  179.3580  143.9400 N   0  0  0  0  0  1  0  0  0  0  0  0
  191.6060  177.9480  143.7340 C   0  0  0  0  0  2  0  0  0  0  0  0
  187.6220  177.0870  143.1070 C   0  0  0  0  0  2  0  0  0  0  0  0
  187.0840  177.6330  144.4430 C   0  0  0  0  0  2  0  0  0  0  0  0
  187.5190  177.7750  146.8860 C   0  0  0  0  0  1  0  0  0  0  0  0
  188.1650  177.7190  145.5140 C   0  0  0  0  0  2  0  0  0  0  0  0
  1  3  1  6  0  0  0
  1 20  1  0  0  0  0
  2 26  1  0  0  0  0
  2 12  1  1  0  0  0
  4 25  1  0  0  0  0
  5  6  1  6  0  0  0
  5  4  1  0  0  0  0
  5 26  1  0  0  0  0
  7 23  1  0  0  0  0
  8  2  1  0  0  0  0
  8 24  1  0  0  0  0
  9 16  1  0  0  0  0
  9 19  1  0  0  0  0
  9  4  2  0  0  0  0
 10 28  1  0  0  0  0
 13 21  1  0  0  0  0
 14 22  2  0  0  0  0
 15  6  2  0  0  0  0
 15  7  1  0  0  0  0
 16 18  2  0  0  0  0
 16  8  1  0  0  0  0
 17 21  1  0  0  0  0
 18 10  1  0  0  0  0
 18  1  1  0  0  0  0
 19 10  2  0  0  0  0
 19 14  1  0  0  0  0
 20  3  1  6  0  0  0
 20 24  1  0  0  0  0
 20 17  1  0  0  0  0
 21 36  1  1  0  0  0
 23 11  2  0  0  0  0
 24 12  1  1  0  0  0
 24 13  1  0  0  0  0
 25 22  1  0  0  0  0
 26 11  1  6  0  0  0
 27 28  1  0  0  0  0
 28 29  1  0  0  0  0
 30 29  1  0  0  0  0
 30 32  1  0  0  0  0
 31 35  1  6  0  0  0
 31 30  1  0  0  0  0
 31 32  1  0  0  0  0
 33 35  1  0  0  0  0
 34 35  1  0  0  0  0
 36 37  1  0  0  0  0
 37 44  1  0  0  0  0
 38 40  1  0  0  0  0
 38 37  1  0  0  0  0
 38 39  1  1  0  0  0
 40 43  1  0  0  0  0
 41 40  2  0  0  0  0
 43 42  1  0  0  0  0
 44 45  1  0  0  0  0
 45 47  1  0  0  0  0
 47 46  1  0  0  0  0
M  END
>  <MODEL>
1

>  <REMARK>
 VINA RESULT:      -7.4      0.000      0.000
  Name = 
  12 active torsions:
  status: ('A' for Active; 'I' for Inactive)
    1  A    between atoms: C_1  and  C_5
    2  A    between atoms: C_1  and  N_15
    3  A    between atoms: C_2  and  N_15
    4  A    between atoms: C_2  and  C_23
    5  A    between atoms: C_5  and  C_42
    6  A    between atoms: C_7  and  C_23
    7  A    between atoms: N_12  and  C_45
    8  A    between atoms: N_15  and  C_41
    9  A    between atoms: C_19  and  N_38
   10  A    between atoms: C_24  and  N_36
   11  A    between atoms: N_36  and  C_45
   12  A    between atoms: C_39  and  C_41
                            x       y       z     vdW  Elec       q    Type
                         _______ _______ _______ _____ _____    ______ ____

>  <TORSDO>
F 12

$$$$
=
 OpenBabel11032420543D

 47 55  0  0  1  0  0  0  0  0999 V2000
  189.4610  177.8300  137.0360 C   0  0  2  0  0  3  0  0  0  0  0  0
  185.4240  177.3050  137.0810 C   0  0  2  0  0  3  0  0  0  0  0  0
  188.8780  179.0920  136.4150 C   0  0  0  0  0  2  0  0  0  0  0  0
  186.4160  174.1720  136.6530 C   0  0  0  0  0  0  0  0  0  0  0  0
  184.9950  174.7510  136.7330 C   0  0  2  0  0  3  0  0  0  0  0  0
  184.3550  174.8400  135.3730 C   0  0  0  0  0  3  0  0  0  0  0  0
  182.2050  174.5610  136.3800 C   0  0  0  0  0  2  0  0  0  0  0  0
  186.8230  176.9580  136.9610 N   0  0  0  0  0  0  0  0  0  0  0  0
  187.5100  174.8780  136.1350 C   0  0  0  0  0  0  0  0  0  0  0  0
  189.7550  175.3490  136.2700 C   0  0  0  0  0  0  0  0  0  0  0  0
  183.2650  176.3450  137.8500 C   0  0  0  0  0  3  0  0  0  0  0  0
  185.6740  178.4080  138.1000 C   0  0  0  0  0  2  0  0  0  0  0  0
  187.4230  177.2010  139.3760 C   0  0  0  0  0  2  0  0  0  0  0  0
  189.0050  173.0680  136.7230 N   0  0  0  0  0  0  0  0  0  0  0  0
  183.0760  174.7740  135.2440 N   0  0  0  0  0  0  0  0  0  0  0  0
  187.6920  176.2200  136.1910 C   0  0  0  0  0  0  0  0  0  0  0  0
  188.9170  179.1370  139.0160 N   0  0  0  0  0  2  0  0  0  0  0  0
  189.0220  176.5470  136.3100 C   0  0  0  0  0  0  0  0  0  0  0  0
  188.8290  174.3140  136.2220 C   0  0  0  0  0  0  0  0  0  0  0  0
  188.3360  178.6640  137.7730 C   0  0  2  0  0  0  0  0  0  0  0  0
  188.5330  178.0860  139.9750 C   0  0  1  0  0  3  0  0  0  0  0  0
  187.9120  172.3550  137.1240 C   0  0  0  0  0  3  0  0  0  0  0  0
  182.1910  175.7450  137.3110 C   0  0  0  0  0  3  0  0  0  0  0  0
  187.0690  177.8660  138.0560 C   0  0  1  0  0  0  0  0  0  0  0  0
  186.6530  172.9010  137.0900 N   0  0  0  0  0  2  0  0  0  0  0  0
  184.7270  176.0340  137.6100 C   0  0  2  0  0  3  0  0  0  0  0  0
  191.1370  175.2240  138.3260 C   0  0  0  0  0  1  0  0  0  0  0  0
  191.0400  175.1990  136.8770 N   0  0  0  0  0  0  0  0  0  0  0  0
  192.1350  174.6050  136.1240 C   0  0  0  0  0  2  0  0  0  0  0  0
  193.3970  175.2630  136.4500 N   0  0  0  0  0  0  0  0  0  0  0  0
  194.2570  174.2880  137.0500 C   0  0  1  0  0  3  0  0  0  0  0  0
  194.4080  174.5930  135.6740 N   0  0  0  0  0  2  0  0  0  0  0  0
  195.6840  174.0920  138.9060 C   0  0  0  0  0  1  0  0  0  0  0  0
  196.3710  175.1180  137.0180 O   0  0  0  0  0  1  0  0  0  0  0  0
  195.2870  174.9720  137.8170 N   0  0  0  0  0  0  0  0  0  0  0  0
  188.1420  178.6570  141.3400 C   0  0  0  0  0  2  0  0  0  0  0  0
  187.6960  177.6120  142.2730 N   0  0  0  0  0  0  0  0  0  0  0  0
  186.8290  178.1800  143.3320 C   0  0  2  0  0  3  0  0  0  0  0  0
  186.7180  177.2330  144.5250 C   0  0  0  0  0  1  0  0  0  0  0  0
  185.4310  178.4990  142.8630 C   0  0  0  0  0  0  0  0  0  0  0  0
  184.9350  177.8770  141.9390 O   0  0  0  0  0  0  0  0  0  0  0  0
  183.4090  178.7910  144.1710 N   0  0  0  0  0  1  0  0  0  0  0  0
  184.5880  179.4600  143.6470 C   0  0  0  0  0  2  0  0  0  0  0  0
  188.8590  176.9300  142.8870 C   0  0  0  0  0  2  0  0  0  0  0  0
  190.1130  177.8030  143.0830 C   0  0  0  0  0  2  0  0  0  0  0  0
  190.9200  177.1200  145.3330 C   0  0  0  0  0  1  0  0  0  0  0  0
  190.2940  178.2450  144.5300 C   0  0  0  0  0  2  0  0  0  0  0  0
  1  3  1  6  0  0  0
  1 20  1  0  0  0  0
  2 26  1  0  0  0  0
  2 12  1  1  0  0  0
  4  5  1  0  0  0  0
  4 25  1  0  0  0  0
  5  6  1  6  0  0  0
  5 26  1  0  0  0  0
  7 23  1  0  0  0  0
  8  2  1  0  0  0  0
  8 24  1  0  0  0  0
  9 16  1  0  0  0  0
  9 19  1  0  0  0  0
  9  4  2  0  0  0  0
 10 18  1  0  0  0  0
 10 28  1  0  0  0  0
 13 21  1  0  0  0  0
 14 22  2  0  0  0  0
 15  6  2  0  0  0  0
 15  7  1  0  0  0  0
 16 18  2  0  0  0  0
 16  8  1  0  0  0  0
 17 21  1  0  0  0  0
 18  1  1  0  0  0  0
 19 10  2  0  0  0  0
 19 14  1  0  0  0  0
 20  3  1  6  0  0  0
 20 24  1  0  0  0  0
 20 17  1  0  0  0  0
 21 36  1  1  0  0  0
 23 11  2  0  0  0  0
 24 12  1  1  0  0  0
 24 13  1  0  0  0  0
 25 22  1  0  0  0  0
 26 11  1  6  0  0  0
 28 27  1  0  0  0  0
 29 30  1  0  0  0  0
 29 28  1  0  0  0  0
 30 31  1  0  0  0  0
 31 35  1  1  0  0  0
 32 30  1  0  0  0  0
 32 31  1  0  0  0  0
 34 35  1  0  0  0  0
 35 33  1  0  0  0  0
 36 37  1  0  0  0  0
 37 44  1  0  0  0  0
 37 38  1  0  0  0  0
 38 39  1  1  0  0  0
 40 38  1  0  0  0  0
 40 43  1  0  0  0  0
 41 40  2  0  0  0  0
 43 42  1  0  0  0  0
 44 45  1  0  0  0  0
 45 47  1  0  0  0  0
 47 46  1  0  0  0  0
M  END
>  <MODEL>
2

>  <REMARK>
 VINA RESULT:      -6.8      1.800      2.622
  Name = 
  12 active torsions:
  status: ('A' for Active; 'I' for Inactive)
    1  A    between atoms: C_1  and  C_5
    2  A    between atoms: C_1  and  N_15
    3  A    between atoms: C_2  and  N_15
    4  A    between atoms: C_2  and  C_23
    5  A    between atoms: C_5  and  C_42
    6  A    between atoms: C_7  and  C_23
    7  A    between atoms: N_12  and  C_45
    8  A    between atoms: N_15  and  C_41
    9  A    between atoms: C_19  and  N_38
   10  A    between atoms: C_24  and  N_36
   11  A    between atoms: N_36  and  C_45
   12  A    between atoms: C_39  and  C_41
                            x       y       z     vdW  Elec       q    Type
                         _______ _______ _______ _____ _____    ______ ____

>  <TORSDO>
F 12

$$$$
=
 OpenBabel11032420543D

 47 55  0  0  1  0  0  0  0  0999 V2000
  189.2600  177.5600  136.6520 C   0  0  2  0  0  3  0  0  0  0  0  0
  185.2360  177.4350  137.2560 C   0  0  2  0  0  3  0  0  0  0  0  0
  188.7280  178.8870  136.1280 C   0  0  0  0  0  2  0  0  0  0  0  0
  185.8390  174.2290  136.6690 C   0  0  0  0  0  0  0  0  0  0  0  0
  184.5090  174.9440  136.9510 C   0  0  2  0  0  3  0  0  0  0  0  0
  183.6990  175.1250  135.6940 C   0  0  0  0  0  3  0  0  0  0  0  0
  181.6920  175.0370  136.9900 C   0  0  0  0  0  2  0  0  0  0  0  0
  186.5640  176.9540  136.9390 N   0  0  0  0  0  0  0  0  0  0  0  0
  186.9170  174.8350  136.0080 C   0  0  0  0  0  0  0  0  0  0  0  0
  189.1950  175.0800  135.8330 C   0  0  0  0  0  0  0  0  0  0  0  0
  183.1190  176.6760  138.3110 C   0  0  0  0  0  3  0  0  0  0  0  0
  185.7340  178.4850  138.2390 C   0  0  0  0  0  2  0  0  0  0  0  0
  187.5130  177.0830  139.2480 C   0  0  0  0  0  2  0  0  0  0  0  0
  188.2890  172.8740  136.3670 N   0  0  0  0  0  0  0  0  0  0  0  0
  182.4150  175.1890  135.7450 N   0  0  0  0  0  0  0  0  0  0  0  0
  187.2390  176.1510  136.0490 C   0  0  0  0  0  0  0  0  0  0  0  0
  189.1300  178.8700  138.6990 N   0  0  0  0  0  2  0  0  0  0  0  0
  188.5980  176.3420  135.9840 C   0  0  0  0  0  0  0  0  0  0  0  0
  188.1720  174.1430  135.9060 C   0  0  0  0  0  0  0  0  0  0  0  0
  188.3380  178.4840  137.5450 C   0  0  2  0  0  0  0  0  0  0  0  0
  188.7780  177.8420  139.6940 C   0  0  1  0  0  3  0  0  0  0  0  0
  187.1960  172.2640  136.9110 C   0  0  0  0  0  3  0  0  0  0  0  0
  181.9260  176.1960  137.9230 C   0  0  0  0  0  3  0  0  0  0  0  0
  187.0490  177.8090  137.9960 C   0  0  1  0  0  0  0  0  0  0  0  0
  186.0050  172.9320  137.0580 N   0  0  0  0  0  2  0  0  0  0  0  0
  184.4950  176.2270  137.8670 C   0  0  2  0  0  3  0  0  0  0  0  0
  191.5160  174.4320  135.2480 C   0  0  0  0  0  1  0  0  0  0  0  0
  190.5300  174.7910  136.2520 N   0  0  0  0  0  0  0  0  0  0  0  0
  191.0040  175.2610  137.5450 C   0  0  0  0  0  2  0  0  0  0  0  0
  192.4620  175.2140  137.6040 N   0  0  0  0  0  0  0  0  0  0  0  0
  192.9560  176.5160  137.2700 C   0  0  1  0  0  3  0  0  0  0  0  0
  192.8500  176.1420  138.6340 N   0  0  0  0  0  2  0  0  0  0  0  0
  194.7540  175.0220  137.0390 C   0  0  0  0  0  1  0  0  0  0  0  0
  194.3810  176.6330  135.5060 O   0  0  0  0  0  1  0  0  0  0  0  0
  194.3410  176.4030  136.8400 N   0  0  0  0  0  0  0  0  0  0  0  0
  188.6400  178.4180  141.1040 C   0  0  0  0  0  2  0  0  0  0  0  0
  188.2650  177.3940  142.0890 N   0  0  0  0  0  0  0  0  0  0  0  0
  187.6700  178.0110  143.2980 C   0  0  2  0  0  3  0  0  0  0  0  0
  188.1850  177.3450  144.5720 C   0  0  0  0  0  1  0  0  0  0  0  0
  186.1630  177.9580  143.3250 C   0  0  0  0  0  0  0  0  0  0  0  0
  185.5690  177.8770  144.3880 O   0  0  0  0  0  0  0  0  0  0  0  0
  185.4060  179.5880  141.6950 N   0  0  0  0  0  1  0  0  0  0  0  0
  185.3900  178.1810  142.0600 C   0  0  0  0  0  2  0  0  0  0  0  0
  189.4430  176.5790  142.4680 C   0  0  0  0  0  2  0  0  0  0  0  0
  190.8140  177.2100  142.1580 C   0  0  0  0  0  2  0  0  0  0  0  0
  191.4420  178.9140  143.8540 C   0  0  0  0  0  1  0  0  0  0  0  0
  191.6310  177.4730  143.4170 C   0  0  0  0  0  2  0  0  0  0  0  0
  1  3  1  6  0  0  0
  1 20  1  0  0  0  0
  2 26  1  0  0  0  0
  2 12  1  1  0  0  0
  4  5  1  0  0  0  0
  4 25  1  0  0  0  0
  5  6  1  6  0  0  0
  5 26  1  0  0  0  0
  6 15  2  0  0  0  0
  7 23  1  0  0  0  0
  8  2  1  0  0  0  0
  8 24  1  0  0  0  0
  9 16  1  0  0  0  0
  9  4  2  0  0  0  0
 10 19  2  0  0  0  0
 10 18  1  0  0  0  0
 10 28  1  0  0  0  0
 13 21  1  0  0  0  0
 14 22  2  0  0  0  0
 15  7  1  0  0  0  0
 16  8  1  0  0  0  0
 17 21  1  0  0  0  0
 18 16  2  0  0  0  0
 18  1  1  0  0  0  0
 19  9  1  0  0  0  0
 19 14  1  0  0  0  0
 20  3  1  6  0  0  0
 20 24  1  0  0  0  0
 20 17  1  0  0  0  0
 21 36  1  1  0  0  0
 22 25  1  0  0  0  0
 23 11  2  0  0  0  0
 24 12  1  1  0  0  0
 24 13  1  0  0  0  0
 26 11  1  6  0  0  0
 27 28  1  0  0  0  0
 28 29  1  0  0  0  0
 29 30  1  0  0  0  0
 30 32  1  0  0  0  0
 31 35  1  6  0  0  0
 31 30  1  0  0  0  0
 31 32  1  0  0  0  0
 34 35  1  0  0  0  0
 35 33  1  0  0  0  0
 36 37  1  0  0  0  0
 37 44  1  0  0  0  0
 37 38  1  0  0  0  0
 38 40  1  0  0  0  0
 38 39  1  1  0  0  0
 40 41  2  0  0  0  0
 42 43  1  0  0  0  0
 43 40  1  0  0  0  0
 45 44  1  0  0  0  0
 45 47  1  0  0  0  0
 47 46  1  0  0  0  0
M  END
>  <MODEL>
3

>  <REMARK>
 VINA RESULT:      -6.7      1.409      2.327
  Name = 
  12 active torsions:
  status: ('A' for Active; 'I' for Inactive)
    1  A    between atoms: C_1  and  C_5
    2  A    between atoms: C_1  and  N_15
    3  A    between atoms: C_2  and  N_15
    4  A    between atoms: C_2  and  C_23
    5  A    between atoms: C_5  and  C_42
    6  A    between atoms: C_7  and  C_23
    7  A    between atoms: N_12  and  C_45
    8  A    between atoms: N_15  and  C_41
    9  A    between atoms: C_19  and  N_38
   10  A    between atoms: C_24  and  N_36
   11  A    between atoms: N_36  and  C_45
   12  A    between atoms: C_39  and  C_41
                            x       y       z     vdW  Elec       q    Type
                         _______ _______ _______ _____ _____    ______ ____

>  <TORSDO>
F 12

$$$$
=
 OpenBabel11032420543D

 47 55  0  0  1  0  0  0  0  0999 V2000
  188.7220  178.1190  137.8700 C   0  0  2  0  0  3  0  0  0  0  0  0
  185.6650  179.0740  140.3830 C   0  0  2  0  0  3  0  0  0  0  0  0
  188.8980  179.5980  138.1810 C   0  0  0  0  0  2  0  0  0  0  0  0
  184.1920  176.7580  138.5270 C   0  0  0  0  0  0  0  0  0  0  0  0
  183.6250  177.6020  139.6770 C   0  0  2  0  0  3  0  0  0  0  0  0
  182.7440  178.7120  139.1690 C   0  0  0  0  0  3  0  0  0  0  0  0
  181.4800  178.6210  141.1960 C   0  0  0  0  0  2  0  0  0  0  0  0
  186.3500  178.4280  139.2850 N   0  0  0  0  0  0  0  0  0  0  0  0
  185.1920  177.2110  137.6540 C   0  0  0  0  0  0  0  0  0  0  0  0
  187.0650  176.7100  136.4220 C   0  0  0  0  0  0  0  0  0  0  0  0
  183.8750  178.6440  142.0510 C   0  0  0  0  0  3  0  0  0  0  0  0
  186.9110  179.1580  141.2530 C   0  0  0  0  0  2  0  0  0  0  0  0
  187.8040  176.9240  140.6540 C   0  0  0  0  0  2  0  0  0  0  0  0
  185.2760  175.0510  136.5650 N   0  0  0  0  0  0  0  0  0  0  0  0
  181.7870  179.1750  139.8940 N   0  0  0  0  0  0  0  0  0  0  0  0
  186.1870  178.0770  137.9650 C   0  0  0  0  0  0  0  0  0  0  0  0
  189.9140  178.0280  139.9900 N   0  0  0  0  0  2  0  0  0  0  0  0
  187.3410  177.7900  137.2760 C   0  0  0  0  0  0  0  0  0  0  0  0
  185.7620  176.3100  136.6920 C   0  0  0  0  0  0  0  0  0  0  0  0
  188.7590  178.6440  139.3620 C   0  0  2  0  0  0  0  0  0  0  0  0
  189.3410  176.8180  140.6070 C   0  0  1  0  0  3  0  0  0  0  0  0
  184.2300  174.6640  137.3520 C   0  0  0  0  0  3  0  0  0  0  0  0
  182.5660  178.9050  142.2000 C   0  0  0  0  0  3  0  0  0  0  0  0
  187.4990  178.3260  140.1550 C   0  0  1  0  0  0  0  0  0  0  0  0
  183.7080  175.5010  138.3090 N   0  0  0  0  0  2  0  0  0  0  0  0
  184.5810  178.0750  140.8390 C   0  0  2  0  0  3  0  0  0  0  0  0
  188.6710  176.0220  134.6620 C   0  0  0  0  0  1  0  0  0  0  0  0
  188.0660  175.8000  135.9640 N   0  0  0  0  0  0  0  0  0  0  0  0
  188.7740  174.9570  136.9170 C   0  0  0  0  0  2  0  0  0  0  0  0
  190.1690  174.7920  136.5170 N   0  0  0  0  0  0  0  0  0  0  0  0
  190.9790  175.5190  137.4460 C   0  0  1  0  0  3  0  0  0  0  0  0
  190.8200  174.1200  137.6110 N   0  0  0  0  0  2  0  0  0  0  0  0
  193.2960  175.5480  137.8390 C   0  0  0  0  0  1  0  0  0  0  0  0
  192.4660  174.8860  135.8490 O   0  0  0  0  0  1  0  0  0  0  0  0
  192.2720  175.7940  136.8350 N   0  0  0  0  0  0  0  0  0  0  0  0
  189.9430  176.5250  141.9830 C   0  0  0  0  0  2  0  0  0  0  0  0
  189.3190  177.3260  143.0450 N   0  0  0  0  0  0  0  0  0  0  0  0
  190.3420  177.8930  143.9540 C   0  0  2  0  0  3  0  0  0  0  0  0
  191.4990  178.5100  143.1700 C   0  0  0  0  0  1  0  0  0  0  0  0
  190.9210  176.8860  144.9170 C   0  0  0  0  0  0  0  0  0  0  0  0
  191.7570  176.0830  144.5380 O   0  0  0  0  0  0  0  0  0  0  0  0
  191.5740  176.2530  147.1660 N   0  0  0  0  0  1  0  0  0  0  0  0
  190.5990  176.9880  146.3780 C   0  0  0  0  0  2  0  0  0  0  0  0
  188.3560  176.5080  143.8190 C   0  0  0  0  0  2  0  0  0  0  0  0
  187.0580  177.2260  144.2340 C   0  0  0  0  0  2  0  0  0  0  0  0
  185.7430  178.2990  146.0500 C   0  0  0  0  0  1  0  0  0  0  0  0
  187.0280  177.5620  145.7200 C   0  0  0  0  0  2  0  0  0  0  0  0
  1  3  1  6  0  0  0
  1 20  1  0  0  0  0
  2 26  1  0  0  0  0
  2 12  1  1  0  0  0
  4  5  1  0  0  0  0
  5  6  1  6  0  0  0
  5 26  1  0  0  0  0
  6 15  2  0  0  0  0
  7 23  1  0  0  0  0
  8 24  1  0  0  0  0
  8  2  1  0  0  0  0
  9 16  1  0  0  0  0
  9  4  2  0  0  0  0
 10 19  2  0  0  0  0
 10 18  1  0  0  0  0
 11 23  2  0  0  0  0
 14 19  1  0  0  0  0
 14 22  2  0  0  0  0
 15  7  1  0  0  0  0
 16  8  1  0  0  0  0
 17 21  1  0  0  0  0
 18  1  1  0  0  0  0
 18 16  2  0  0  0  0
 19  9  1  0  0  0  0
 20  3  1  6  0  0  0
 20 17  1  0  0  0  0
 20 24  1  0  0  0  0
 21 13  1  0  0  0  0
 21 36  1  1  0  0  0
 22 25  1  0  0  0  0
 24 13  1  1  0  0  0
 24 12  1  0  0  0  0
 25  4  1  0  0  0  0
 26 11  1  1  0  0  0
 27 28  1  0  0  0  0
 28 10  1  0  0  0  0
 28 29  1  0  0  0  0
 30 29  1  0  0  0  0
 30 31  1  0  0  0  0
 30 32  1  0  0  0  0
 31 35  1  6  0  0  0
 31 32  1  0  0  0  0
 34 35  1  0  0  0  0
 35 33  1  0  0  0  0
 36 37  1  0  0  0  0
 37 44  1  0  0  0  0
 37 38  1  0  0  0  0
 38 39  1  6  0  0  0
 38 40  1  0  0  0  0
 40 43  1  0  0  0  0
 41 40  2  0  0  0  0
 43 42  1  0  0  0  0
 44 45  1  0  0  0  0
 45 47  1  0  0  0  0
 47 46  1  0  0  0  0
M  END
>  <MODEL>
4

>  <REMARK>
 VINA RESULT:      -6.6      2.282      3.316
  Name = 
  12 active torsions:
  status: ('A' for Active; 'I' for Inactive)
    1  A    between atoms: C_1  and  C_5
    2  A    between atoms: C_1  and  N_15
    3  A    between atoms: C_2  and  N_15
    4  A    between atoms: C_2  and  C_23
    5  A    between atoms: C_5  and  C_42
    6  A    between atoms: C_7  and  C_23
    7  A    between atoms: N_12  and  C_45
    8  A    between atoms: N_15  and  C_41
    9  A    between atoms: C_19  and  N_38
   10  A    between atoms: C_24  and  N_36
   11  A    between atoms: N_36  and  C_45
   12  A    between atoms: C_39  and  C_41
                            x       y       z     vdW  Elec       q    Type
                         _______ _______ _______ _____ _____    ______ ____

>  <TORSDO>
F 12

$$$$
=
 OpenBabel11032420543D

 47 55  0  0  1  0  0  0  0  0999 V2000
  184.9940  176.8440  136.4130 C   0  0  2  0  0  3  0  0  0  0  0  0
  188.6520  175.0990  136.0260 C   0  0  2  0  0  3  0  0  0  0  0  0
  185.2360  176.7330  134.9140 C   0  0  0  0  0  2  0  0  0  0  0  0
  189.1190  176.8210  138.8180 C   0  0  0  0  0  0  0  0  0  0  0  0
  190.0980  175.9320  138.0360 C   0  0  2  0  0  3  0  0  0  0  0  0
  191.0830  176.7530  137.2470 C   0  0  0  0  0  3  0  0  0  0  0  0
  192.6930  174.9980  137.4540 C   0  0  0  0  0  2  0  0  0  0  0  0
  187.6180  175.9450  136.5820 N   0  0  0  0  0  0  0  0  0  0  0  0
  188.0900  177.5560  138.2140 C   0  0  0  0  0  0  0  0  0  0  0  0
  185.9340  178.3400  138.3380 C   0  0  0  0  0  0  0  0  0  0  0  0
  190.6060  173.7370  136.7310 C   0  0  0  0  0  3  0  0  0  0  0  0
  187.6730  174.0410  135.5370 C   0  0  0  0  0  2  0  0  0  0  0  0
  186.1810  174.1250  137.5150 C   0  0  0  0  0  2  0  0  0  0  0  0
  187.2790  178.2750  140.3780 N   0  0  0  0  0  0  0  0  0  0  0  0
  192.2530  176.2910  136.9750 N   0  0  0  0  0  0  0  0  0  0  0  0
  187.4110  177.2050  137.0940 C   0  0  0  0  0  0  0  0  0  0  0  0
  184.2920  174.5550  135.9790 N   0  0  0  0  0  2  0  0  0  0  0  0
  186.1030  177.6230  137.1430 C   0  0  0  0  0  0  0  0  0  0  0  0
  187.1350  178.2530  139.0310 C   0  0  0  0  0  0  0  0  0  0  0  0
  185.3980  175.4670  135.7470 C   0  0  2  0  0  0  0  0  0  0  0  0
  184.6870  173.8770  137.2270 C   0  0  1  0  0  3  0  0  0  0  0  0
  188.3500  177.6410  140.9390 C   0  0  0  0  0  3  0  0  0  0  0  0
  191.9410  173.8680  136.8010 C   0  0  0  0  0  3  0  0  0  0  0  0
  186.6890  174.8770  136.2960 C   0  0  1  0  0  0  0  0  0  0  0  0
  189.2410  176.9310  140.1730 N   0  0  0  0  0  2  0  0  0  0  0  0
  189.5460  174.7020  137.2190 C   0  0  2  0  0  3  0  0  0  0  0  0
  184.0130  179.7590  139.0050 C   0  0  0  0  0  1  0  0  0  0  0  0
  184.6750  178.4670  139.0030 N   0  0  0  0  0  0  0  0  0  0  0  0
  183.8740  177.2820  139.2760 C   0  0  0  0  0  2  0  0  0  0  0  0
  182.4550  177.6230  139.3200 N   0  0  0  0  0  0  0  0  0  0  0  0
  181.7840  176.8320  138.3340 C   0  0  1  0  0  3  0  0  0  0  0  0
  181.7650  176.4150  139.6880 N   0  0  0  0  0  2  0  0  0  0  0  0
  180.8100  178.7030  137.2980 C   0  0  0  0  0  1  0  0  0  0  0  0
  179.8710  176.6610  137.1210 O   0  0  0  0  0  1  0  0  0  0  0  0
  180.5150  177.4640  138.0010 N   0  0  0  0  0  0  0  0  0  0  0  0
  184.3410  172.3870  137.2150 C   0  0  0  0  0  2  0  0  0  0  0  0
  183.4140  172.0400  136.1290 N   0  0  0  0  0  0  0  0  0  0  0  0
  182.1200  171.5600  136.6670 C   0  0  2  0  0  3  0  0  0  0  0  0
  181.4500  170.5790  135.7070 C   0  0  0  0  0  1  0  0  0  0  0  0
  181.1370  172.6660  136.9570 C   0  0  0  0  0  0  0  0  0  0  0  0
  181.1260  173.6750  136.2720 O   0  0  0  0  0  0  0  0  0  0  0  0
  179.8210  173.6690  138.7330 N   0  0  0  0  0  1  0  0  0  0  0  0
  180.0580  172.4500  137.9760 C   0  0  0  0  0  2  0  0  0  0  0  0
  184.0060  171.0070  135.2470 C   0  0  0  0  0  2  0  0  0  0  0  0
  185.4790  171.2350  134.8560 C   0  0  0  0  0  2  0  0  0  0  0  0
  187.7410  170.3290  135.3460 C   0  0  0  0  0  1  0  0  0  0  0  0
  186.3150  169.9660  134.9750 C   0  0  0  0  0  2  0  0  0  0  0  0
  1  3  1  6  0  0  0
  1 18  1  0  0  0  0
  2 12  1  1  0  0  0
  2  8  1  0  0  0  0
  2 26  1  0  0  0  0
  4 25  1  0  0  0  0
  5  6  1  6  0  0  0
  5  4  1  0  0  0  0
  8 16  1  0  0  0  0
  9  4  2  0  0  0  0
  9 19  1  0  0  0  0
 10 28  1  0  0  0  0
 10 19  2  0  0  0  0
 11 23  2  0  0  0  0
 14 22  2  0  0  0  0
 15  6  2  0  0  0  0
 15  7  1  0  0  0  0
 16 18  2  0  0  0  0
 16  9  1  0  0  0  0
 17 21  1  0  0  0  0
 18 10  1  0  0  0  0
 19 14  1  0  0  0  0
 20  3  1  6  0  0  0
 20 17  1  0  0  0  0
 20 24  1  0  0  0  0
 20  1  1  0  0  0  0
 21 36  1  6  0  0  0
 21 13  1  0  0  0  0
 23  7  1  0  0  0  0
 24 12  1  6  0  0  0
 24  8  1  0  0  0  0
 24 13  1  0  0  0  0
 25 22  1  0  0  0  0
 26 11  1  6  0  0  0
 26  5  1  0  0  0  0
 28 27  1  0  0  0  0
 28 29  1  0  0  0  0
 29 30  1  0  0  0  0
 30 32  1  0  0  0  0
 31 35  1  1  0  0  0
 31 30  1  0  0  0  0
 31 32  1  0  0  0  0
 33 35  1  0  0  0  0
 34 35  1  0  0  0  0
 37 38  1  0  0  0  0
 37 36  1  0  0  0  0
 38 39  1  6  0  0  0
 38 40  1  0  0  0  0
 40 43  1  0  0  0  0
 41 40  2  0  0  0  0
 43 42  1  0  0  0  0
 44 37  1  0  0  0  0
 45 47  1  0  0  0  0
 45 44  1  0  0  0  0
 47 46  1  0  0  0  0
M  END
>  <MODEL>
5

>  <REMARK>
 VINA RESULT:      -6.0      3.616      9.154
  Name = 
  12 active torsions:
  status: ('A' for Active; 'I' for Inactive)
    1  A    between atoms: C_1  and  C_5
    2  A    between atoms: C_1  and  N_15
    3  A    between atoms: C_2  and  N_15
    4  A    between atoms: C_2  and  C_23
    5  A    between atoms: C_5  and  C_42
    6  A    between atoms: C_7  and  C_23
    7  A    between atoms: N_12  and  C_45
    8  A    between atoms: N_15  and  C_41
    9  A    between atoms: C_19  and  N_38
   10  A    between atoms: C_24  and  N_36
   11  A    between atoms: N_36  and  C_45
   12  A    between atoms: C_39  and  C_41
                            x       y       z     vdW  Elec       q    Type
                         _______ _______ _______ _____ _____    ______ ____

>  <TORSDO>
F 12

$$$$
=
 OpenBabel11032420543D

 47 55  0  0  1  0  0  0  0  0999 V2000
  189.5510  176.0760  135.8880 C   0  0  2  0  0  3  0  0  0  0  0  0
  186.2360  178.0970  137.1120 C   0  0  2  0  0  3  0  0  0  0  0  0
  189.6280  177.4350  135.2070 C   0  0  0  0  0  2  0  0  0  0  0  0
  185.0500  175.0030  137.0660 C   0  0  0  0  0  0  0  0  0  0  0  0
  184.3410  176.3220  137.4050 C   0  0  2  0  0  3  0  0  0  0  0  0
  183.4580  176.7840  136.2760 C   0  0  0  0  0  3  0  0  0  0  0  0
  182.0200  177.8580  137.8560 C   0  0  0  0  0  2  0  0  0  0  0  0
  187.0480  176.9750  136.6950 N   0  0  0  0  0  0  0  0  0  0  0  0
  186.1020  174.9050  136.1450 C   0  0  0  0  0  0  0  0  0  0  0  0
  188.1010  173.9240  135.5800 C   0  0  0  0  0  0  0  0  0  0  0  0
  184.3230  178.6340  138.6040 C   0  0  0  0  0  3  0  0  0  0  0  0
  187.3920  178.8210  137.7870 C   0  0  0  0  0  2  0  0  0  0  0  0
  188.4410  176.7980  138.7630 C   0  0  0  0  0  2  0  0  0  0  0  0
  186.3870  172.5570  136.6600 N   0  0  0  0  0  0  0  0  0  0  0  0
  182.4180  177.5050  136.5090 N   0  0  0  0  0  0  0  0  0  0  0  0
  187.0230  175.8640  135.8830 C   0  0  0  0  0  0  0  0  0  0  0  0
  190.5470  177.4390  137.6410 N   0  0  0  0  0  2  0  0  0  0  0  0
  188.2470  175.3210  135.5750 C   0  0  0  0  0  0  0  0  0  0  0  0
  186.8000  173.6590  135.9880 C   0  0  0  0  0  0  0  0  0  0  0  0
  189.4270  177.4170  136.7170 C   0  0  2  0  0  0  0  0  0  0  0  0
  189.9780  176.8310  138.8560 C   0  0  1  0  0  3  0  0  0  0  0  0
  185.2930  172.6490  137.4710 C   0  0  0  0  0  3  0  0  0  0  0  0
  182.9950  178.8060  138.5020 C   0  0  0  0  0  3  0  0  0  0  0  0
  188.1160  177.5460  137.4810 C   0  0  1  0  0  0  0  0  0  0  0  0
  184.6480  173.8460  137.6670 N   0  0  0  0  0  2  0  0  0  0  0  0
  185.1630  177.5030  138.0500 C   0  0  2  0  0  3  0  0  0  0  0  0
  189.4040  171.9180  134.9260 C   0  0  0  0  0  1  0  0  0  0  0  0
  189.1820  173.0260  135.8380 N   0  0  0  0  0  0  0  0  0  0  0  0
  190.2800  173.4380  136.7010 C   0  0  0  0  0  2  0  0  0  0  0  0
  191.4910  173.6610  135.9160 N   0  0  0  0  0  0  0  0  0  0  0  0
  192.4740  174.2370  136.7820 C   0  0  1  0  0  3  0  0  0  0  0  0
  192.5130  172.8450  136.5180 N   0  0  0  0  0  2  0  0  0  0  0  0
  193.8380  176.1470  136.6600 C   0  0  0  0  0  1  0  0  0  0  0  0
  194.5890  174.1390  135.9600 O   0  0  0  0  0  1  0  0  0  0  0  0
  193.4790  174.9140  135.9750 N   0  0  0  0  0  0  0  0  0  0  0  0
  190.4650  177.5170  140.1340 C   0  0  0  0  0  2  0  0  0  0  0  0
  189.9350  176.8770  141.3460 N   0  0  0  0  0  0  0  0  0  0  0  0
  188.5520  177.3290  141.6240 C   0  0  2  0  0  3  0  0  0  0  0  0
  188.4690  178.8530  141.6890 C   0  0  0  0  0  1  0  0  0  0  0  0
  187.9830  176.7810  142.9090 C   0  0  0  0  0  0  0  0  0  0  0  0
  188.1240  175.6020  143.1910 O   0  0  0  0  0  0  0  0  0  0  0  0
  188.1060  177.6130  145.1850 N   0  0  0  0  0  1  0  0  0  0  0  0
  187.3970  177.7200  143.9210 C   0  0  0  0  0  2  0  0  0  0  0  0
  190.8030  177.1660  142.5120 C   0  0  0  0  0  2  0  0  0  0  0  0
  191.4050  175.9330  143.2130 C   0  0  0  0  0  2  0  0  0  0  0  0
  191.5850  177.6650  144.9860 C   0  0  0  0  0  1  0  0  0  0  0  0
  191.6740  176.1790  144.6920 C   0  0  0  0  0  2  0  0  0  0  0  0
  1  3  1  6  0  0  0
  1 20  1  0  0  0  0
  2 12  1  1  0  0  0
  2 26  1  0  0  0  0
  4  5  1  0  0  0  0
  4 25  1  0  0  0  0
  5  6  1  6  0  0  0
  5 26  1  0  0  0  0
  6 15  2  0  0  0  0
  7 23  1  0  0  0  0
  8  2  1  0  0  0  0
  8 24  1  0  0  0  0
  9  4  2  0  0  0  0
 10 28  1  0  0  0  0
 10 19  2  0  0  0  0
 13 21  1  0  0  0  0
 14 22  2  0  0  0  0
 15  7  1  0  0  0  0
 16  9  1  0  0  0  0
 16  8  1  0  0  0  0
 17 21  1  0  0  0  0
 18 10  1  0  0  0  0
 18 16  2  0  0  0  0
 18  1  1  0  0  0  0
 19  9  1  0  0  0  0
 19 14  1  0  0  0  0
 20  3  1  6  0  0  0
 20 24  1  0  0  0  0
 20 17  1  0  0  0  0
 21 36  1  1  0  0  0
 22 25  1  0  0  0  0
 23 11  2  0  0  0  0
 24 12  1  1  0  0  0
 24 13  1  0  0  0  0
 26 11  1  6  0  0  0
 27 28  1  0  0  0  0
 28 29  1  0  0  0  0
 30 32  1  0  0  0  0
 30 29  1  0  0  0  0
 30 31  1  0  0  0  0
 31 35  1  6  0  0  0
 32 31  1  0  0  0  0
 34 35  1  0  0  0  0
 35 33  1  0  0  0  0
 36 37  1  0  0  0  0
 37 38  1  0  0  0  0
 37 44  1  0  0  0  0
 38 39  1  1  0  0  0
 38 40  1  0  0  0  0
 40 41  2  0  0  0  0
 40 43  1  0  0  0  0
 43 42  1  0  0  0  0
 44 45  1  0  0  0  0
 45 47  1  0  0  0  0
 47 46  1  0  0  0  0
M  END
>  <MODEL>
6

>  <REMARK>
 VINA RESULT:      -5.8      1.778      2.627
  Name = 
  12 active torsions:
  status: ('A' for Active; 'I' for Inactive)
    1  A    between atoms: C_1  and  C_5
    2  A    between atoms: C_1  and  N_15
    3  A    between atoms: C_2  and  N_15
    4  A    between atoms: C_2  and  C_23
    5  A    between atoms: C_5  and  C_42
    6  A    between atoms: C_7  and  C_23
    7  A    between atoms: N_12  and  C_45
    8  A    between atoms: N_15  and  C_41
    9  A    between atoms: C_19  and  N_38
   10  A    between atoms: C_24  and  N_36
   11  A    between atoms: N_36  and  C_45
   12  A    between atoms: C_39  and  C_41
                            x       y       z     vdW  Elec       q    Type
                         _______ _______ _______ _____ _____    ______ ____

>  <TORSDO>
F 12

$$$$
=
 OpenBabel11032420543D

 47 55  0  0  1  0  0  0  0  0999 V2000
  186.7460  178.2950  137.5260 C   0  0  2  0  0  3  0  0  0  0  0  0
  190.1840  176.3570  136.5310 C   0  0  2  0  0  3  0  0  0  0  0  0
  187.1350  178.8330  136.1560 C   0  0  0  0  0  2  0  0  0  0  0  0
  190.5490  176.5410  139.8200 C   0  0  0  0  0  0  0  0  0  0  0  0
  191.4920  175.9560  138.7570 C   0  0  2  0  0  3  0  0  0  0  0  0
  192.6500  176.8770  138.4770 C   0  0  0  0  0  3  0  0  0  0  0  0
  194.0020  174.9860  137.9190 C   0  0  0  0  0  2  0  0  0  0  0  0
  189.2060  177.0130  137.3710 N   0  0  0  0  0  0  0  0  0  0  0  0
  189.6890  177.6210  139.5800 C   0  0  0  0  0  0  0  0  0  0  0  0
  187.6440  178.5960  139.9620 C   0  0  0  0  0  0  0  0  0  0  0  0
  191.8700  174.5330  136.6100 C   0  0  0  0  0  3  0  0  0  0  0  0
  189.1440  175.8010  135.5690 C   0  0  0  0  0  2  0  0  0  0  0  0
  187.4650  175.2210  137.2990 C   0  0  0  0  0  2  0  0  0  0  0  0
  188.7390  177.4080  141.7960 N   0  0  0  0  0  0  0  0  0  0  0  0
  193.7780  176.4080  138.0720 N   0  0  0  0  0  0  0  0  0  0  0  0
  189.0990  177.9240  138.3970 C   0  0  0  0  0  0  0  0  0  0  0  0
  185.8230  176.5890  136.0580 N   0  0  0  0  0  2  0  0  0  0  0  0
  187.8540  178.4760  138.5780 C   0  0  0  0  0  0  0  0  0  0  0  0
  188.7420  178.0180  140.5850 C   0  0  0  0  0  0  0  0  0  0  0  0
  187.0490  177.3200  136.3180 C   0  0  2  0  0  0  0  0  0  0  0  0
  185.9930  175.3690  136.8670 C   0  0  1  0  0  3  0  0  0  0  0  0
  189.6570  176.4290  142.0450 C   0  0  0  0  0  3  0  0  0  0  0  0
  193.1950  174.4060  136.7880 C   0  0  0  0  0  3  0  0  0  0  0  0
  188.1920  176.3500  136.5870 C   0  0  1  0  0  0  0  0  0  0  0  0
  190.5340  176.0090  141.0760 N   0  0  0  0  0  2  0  0  0  0  0  0
  190.8880  175.3290  137.4430 C   0  0  2  0  0  3  0  0  0  0  0  0
  185.1820  178.7330  139.6950 C   0  0  0  0  0  1  0  0  0  0  0  0
  186.3440  178.6070  140.5570 N   0  0  0  0  0  0  0  0  0  0  0  0
  186.1530  178.0730  141.8970 C   0  0  0  0  0  2  0  0  0  0  0  0
  185.5060  179.0620  142.7550 N   0  0  0  0  0  0  0  0  0  0  0  0
  184.6610  178.3600  143.6720 C   0  0  1  0  0  3  0  0  0  0  0  0
  185.9480  178.7780  144.0950 N   0  0  0  0  0  2  0  0  0  0  0  0
  182.4010  178.9830  143.5150 C   0  0  0  0  0  1  0  0  0  0  0  0
  183.4710  178.9920  145.5010 O   0  0  0  0  0  1  0  0  0  0  0  0
  183.6560  179.2770  144.1900 N   0  0  0  0  0  0  0  0  0  0  0  0
  185.4710  174.1190  136.1560 C   0  0  0  0  0  2  0  0  0  0  0  0
  184.1690  173.6850  136.6790 N   0  0  0  0  0  0  0  0  0  0  0  0
  183.5070  172.7450  135.7440 C   0  0  2  0  0  3  0  0  0  0  0  0
  182.5600  173.4790  134.7970 C   0  0  0  0  0  1  0  0  0  0  0  0
  182.7200  171.6590  136.4340 C   0  0  0  0  0  0  0  0  0  0  0  0
  183.2850  170.8500  137.1510 O   0  0  0  0  0  0  0  0  0  0  0  0
  180.6690  172.0090  137.6830 N   0  0  0  0  0  1  0  0  0  0  0  0
  181.2220  171.6800  136.3790 C   0  0  0  0  0  2  0  0  0  0  0  0
  183.2900  174.8520  136.9240 C   0  0  0  0  0  2  0  0  0  0  0  0
  182.7580  174.9910  138.3640 C   0  0  0  0  0  2  0  0  0  0  0  0
  180.8480  175.8030  136.9970 C   0  0  0  0  0  1  0  0  0  0  0  0
  181.3350  175.5340  138.4080 C   0  0  0  0  0  2  0  0  0  0  0  0
  1  3  1  6  0  0  0
  1 18  1  0  0  0  0
  2 12  1  6  0  0  0
  2  8  1  0  0  0  0
  2 26  1  0  0  0  0
  4 25  1  0  0  0  0
  5  6  1  6  0  0  0
  5  4  1  0  0  0  0
  7 15  1  0  0  0  0
  8 16  1  0  0  0  0
  9  4  2  0  0  0  0
  9 19  1  0  0  0  0
 10 28  1  0  0  0  0
 10 19  2  0  0  0  0
 11 23  2  0  0  0  0
 14 22  2  0  0  0  0
 15  6  2  0  0  0  0
 16 18  2  0  0  0  0
 16  9  1  0  0  0  0
 17 20  1  0  0  0  0
 17 21  1  0  0  0  0
 18 10  1  0  0  0  0
 19 14  1  0  0  0  0
 20  3  1  6  0  0  0
 20 24  1  0  0  0  0
 20  1  1  0  0  0  0
 21 36  1  6  0  0  0
 21 13  1  0  0  0  0
 23  7  1  0  0  0  0
 24 12  1  6  0  0  0
 24 13  1  0  0  0  0
 24  8  1  0  0  0  0
 25 22  1  0  0  0  0
 26 11  1  6  0  0  0
 26  5  1  0  0  0  0
 27 28  1  0  0  0  0
 28 29  1  0  0  0  0
 29 30  1  0  0  0  0
 30 31  1  0  0  0  0
 30 32  1  0  0  0  0
 31 32  1  0  0  0  0
 31 35  1  1  0  0  0
 33 35  1  0  0  0  0
 35 34  1  0  0  0  0
 36 37  1  0  0  0  0
 37 44  1  0  0  0  0
 38 39  1  6  0  0  0
 38 40  1  0  0  0  0
 38 37  1  0  0  0  0
 40 41  2  0  0  0  0
 43 40  1  0  0  0  0
 43 42  1  0  0  0  0
 44 45  1  0  0  0  0
 45 47  1  0  0  0  0
 46 47  1  0  0  0  0
M  END
>  <MODEL>
7

>  <REMARK>
 VINA RESULT:      -5.7      3.144      8.751
  Name = 
  12 active torsions:
  status: ('A' for Active; 'I' for Inactive)
    1  A    between atoms: C_1  and  C_5
    2  A    between atoms: C_1  and  N_15
    3  A    between atoms: C_2  and  N_15
    4  A    between atoms: C_2  and  C_23
    5  A    between atoms: C_5  and  C_42
    6  A    between atoms: C_7  and  C_23
    7  A    between atoms: N_12  and  C_45
    8  A    between atoms: N_15  and  C_41
    9  A    between atoms: C_19  and  N_38
   10  A    between atoms: C_24  and  N_36
   11  A    between atoms: N_36  and  C_45
   12  A    between atoms: C_39  and  C_41
                            x       y       z     vdW  Elec       q    Type
                         _______ _______ _______ _____ _____    ______ ____

>  <TORSDO>
F 12

$$$$
=
 OpenBabel11032420543D

 47 55  0  0  1  0  0  0  0  0999 V2000
  185.8340  177.4120  136.9480 C   0  0  2  0  0  3  0  0  0  0  0  0
  189.2860  175.3900  136.1920 C   0  0  2  0  0  3  0  0  0  0  0  0
  186.0420  177.5090  135.4430 C   0  0  0  0  0  2  0  0  0  0  0  0
  189.9690  176.6070  139.1980 C   0  0  0  0  0  0  0  0  0  0  0  0
  190.8390  175.7550  138.2610 C   0  0  2  0  0  3  0  0  0  0  0  0
  191.8920  176.5850  137.5770 C   0  0  0  0  0  3  0  0  0  0  0  0
  193.3150  174.6660  137.4680 C   0  0  0  0  0  2  0  0  0  0  0  0
  188.3530  176.2390  136.9010 N   0  0  0  0  0  0  0  0  0  0  0  0
  189.0120  177.5250  138.7430 C   0  0  0  0  0  0  0  0  0  0  0  0
  186.9510  178.4920  139.0490 C   0  0  0  0  0  0  0  0  0  0  0  0
  191.0980  173.7470  136.6240 C   0  0  0  0  0  3  0  0  0  0  0  0
  188.1960  174.5220  135.5790 C   0  0  0  0  0  2  0  0  0  0  0  0
  186.7490  174.4500  137.5900 C   0  0  0  0  0  2  0  0  0  0  0  0
  188.3110  177.9800  141.0140 N   0  0  0  0  0  0  0  0  0  0  0  0
  193.0040  176.0550  137.2030 N   0  0  0  0  0  0  0  0  0  0  0  0
  188.2850  177.4200  137.6040 C   0  0  0  0  0  0  0  0  0  0  0  0
  184.8930  175.2980  136.1950 N   0  0  0  0  0  2  0  0  0  0  0  0
  187.0280  177.9540  137.7540 C   0  0  0  0  0  0  0  0  0  0  0  0
  188.1470  178.1800  139.6840 C   0  0  0  0  0  0  0  0  0  0  0  0
  186.0830  176.1200  136.0700 C   0  0  2  0  0  0  0  0  0  0  0  0
  185.2340  174.4010  137.3120 C   0  0  1  0  0  3  0  0  0  0  0  0
  189.3180  177.1630  141.4410 C   0  0  0  0  0  3  0  0  0  0  0  0
  192.4410  173.7310  136.6730 C   0  0  0  0  0  3  0  0  0  0  0  0
  187.3150  175.3260  136.4850 C   0  0  1  0  0  0  0  0  0  0  0  0
  190.1210  176.4940  140.5490 N   0  0  0  0  0  2  0  0  0  0  0  0
  190.1510  174.7260  137.2840 C   0  0  2  0  0  3  0  0  0  0  0  0
  184.5440  179.0890  139.0400 C   0  0  0  0  0  1  0  0  0  0  0  0
  185.7220  178.6410  139.7630 N   0  0  0  0  0  0  0  0  0  0  0  0
  185.5310  177.9570  141.0330 C   0  0  0  0  0  2  0  0  0  0  0  0
  185.1750  178.9110  142.0790 N   0  0  0  0  0  0  0  0  0  0  0  0
  184.1620  178.3110  142.8930 C   0  0  1  0  0  3  0  0  0  0  0  0
  185.5110  178.2790  143.3280 N   0  0  0  0  0  2  0  0  0  0  0  0
  182.0330  179.0030  143.6090 C   0  0  0  0  0  1  0  0  0  0  0  0
  183.8540  179.3340  144.8980 O   0  0  0  0  0  1  0  0  0  0  0  0
  183.4440  179.3570  143.6080 N   0  0  0  0  0  0  0  0  0  0  0  0
  184.7340  172.9720  137.0860 C   0  0  0  0  0  2  0  0  0  0  0  0
  183.6730  172.9090  136.0710 N   0  0  0  0  0  0  0  0  0  0  0  0
  182.3580  172.6300  136.6950 C   0  0  2  0  0  3  0  0  0  0  0  0
  181.6470  171.4720  135.9970 C   0  0  0  0  0  1  0  0  0  0  0  0
  181.4240  173.8150  136.6930 C   0  0  0  0  0  0  0  0  0  0  0  0
  180.6070  173.9520  135.7980 O   0  0  0  0  0  0  0  0  0  0  0  0
  180.1000  174.6190  138.5610 N   0  0  0  0  0  1  0  0  0  0  0  0
  181.3810  174.7270  137.8820 C   0  0  0  0  0  2  0  0  0  0  0  0
  183.9790  171.8710  135.0590 C   0  0  0  0  0  2  0  0  0  0  0  0
  185.1370  170.9190  135.4140 C   0  0  0  0  0  2  0  0  0  0  0  0
  187.6190  170.9580  135.5330 C   0  0  0  0  0  1  0  0  0  0  0  0
  186.4160  171.2500  134.6560 C   0  0  0  0  0  2  0  0  0  0  0  0
  1  3  1  6  0  0  0
  1 18  1  0  0  0  0
  2 12  1  1  0  0  0
  2  8  1  0  0  0  0
  2 26  1  0  0  0  0
  4 25  1  0  0  0  0
  5  6  1  6  0  0  0
  5  4  1  0  0  0  0
  8 16  1  0  0  0  0
  9  4  2  0  0  0  0
  9 19  1  0  0  0  0
 10 19  2  0  0  0  0
 10 28  1  0  0  0  0
 11 23  2  0  0  0  0
 14 22  2  0  0  0  0
 15  7  1  0  0  0  0
 15  6  2  0  0  0  0
 16 18  2  0  0  0  0
 16  9  1  0  0  0  0
 17 21  1  0  0  0  0
 18 10  1  0  0  0  0
 19 14  1  0  0  0  0
 20  3  1  6  0  0  0
 20 17  1  0  0  0  0
 20 24  1  0  0  0  0
 20  1  1  0  0  0  0
 21 36  1  6  0  0  0
 21 13  1  0  0  0  0
 23  7  1  0  0  0  0
 24 12  1  6  0  0  0
 24  8  1  0  0  0  0
 24 13  1  0  0  0  0
 25 22  1  0  0  0  0
 26 11  1  6  0  0  0
 26  5  1  0  0  0  0
 27 28  1  0  0  0  0
 28 29  1  0  0  0  0
 29 30  1  0  0  0  0
 30 31  1  0  0  0  0
 30 32  1  0  0  0  0
 31 32  1  0  0  0  0
 31 35  1  1  0  0  0
 35 33  1  0  0  0  0
 35 34  1  0  0  0  0
 37 38  1  0  0  0  0
 37 36  1  0  0  0  0
 38 39  1  6  0  0  0
 40 38  1  0  0  0  0
 40 43  1  0  0  0  0
 41 40  2  0  0  0  0
 43 42  1  0  0  0  0
 44 45  1  0  0  0  0
 44 37  1  0  0  0  0
 47 45  1  0  0  0  0
 47 46  1  0  0  0  0
M  END
>  <MODEL>
8

>  <REMARK>
 VINA RESULT:      -5.7      3.298      8.872
  Name = 
  12 active torsions:
  status: ('A' for Active; 'I' for Inactive)
    1  A    between atoms: C_1  and  C_5
    2  A    between atoms: C_1  and  N_15
    3  A    between atoms: C_2  and  N_15
    4  A    between atoms: C_2  and  C_23
    5  A    between atoms: C_5  and  C_42
    6  A    between atoms: C_7  and  C_23
    7  A    between atoms: N_12  and  C_45
    8  A    between atoms: N_15  and  C_41
    9  A    between atoms: C_19  and  N_38
   10  A    between atoms: C_24  and  N_36
   11  A    between atoms: N_36  and  C_45
   12  A    between atoms: C_39  and  C_41
                            x       y       z     vdW  Elec       q    Type
                         _______ _______ _______ _____ _____    ______ ____

>  <TORSDO>
F 12

$$$$
=
 OpenBabel11032420543D

 47 55  0  0  1  0  0  0  0  0999 V2000
  186.6480  178.4680  137.6450 C   0  0  2  0  0  3  0  0  0  0  0  0
  190.1910  176.6350  136.8310 C   0  0  2  0  0  3  0  0  0  0  0  0
  187.1230  179.0660  136.3270 C   0  0  0  0  0  2  0  0  0  0  0  0
  190.3130  176.6990  140.1420 C   0  0  0  0  0  0  0  0  0  0  0  0
  191.3430  176.1750  139.1300 C   0  0  2  0  0  3  0  0  0  0  0  0
  192.4980  177.1270  138.9700 C   0  0  0  0  0  3  0  0  0  0  0  0
  193.9280  175.2860  138.4420 C   0  0  0  0  0  2  0  0  0  0  0  0
  189.1410  177.2400  137.6210 N   0  0  0  0  0  0  0  0  0  0  0  0
  189.4490  177.7720  139.8810 C   0  0  0  0  0  0  0  0  0  0  0  0
  187.3610  178.6910  140.1490 C   0  0  0  0  0  0  0  0  0  0  0  0
  191.9060  174.8430  136.9650 C   0  0  0  0  0  3  0  0  0  0  0  0
  189.2350  176.0970  135.7760 C   0  0  0  0  0  2  0  0  0  0  0  0
  187.4490  175.4190  137.3570 C   0  0  0  0  0  2  0  0  0  0  0  0
  188.3470  177.4550  142.0120 N   0  0  0  0  0  0  0  0  0  0  0  0
  193.6620  176.6960  138.6300 N   0  0  0  0  0  0  0  0  0  0  0  0
  188.9400  178.1080  138.6700 C   0  0  0  0  0  0  0  0  0  0  0  0
  185.8710  176.8020  136.0510 N   0  0  0  0  0  2  0  0  0  0  0  0
  187.6730  178.6290  138.7810 C   0  0  0  0  0  0  0  0  0  0  0  0
  188.4240  178.1110  140.8290 C   0  0  0  0  0  0  0  0  0  0  0  0
  187.0590  177.5460  136.4270 C   0  0  2  0  0  0  0  0  0  0  0  0
  186.0090  175.5550  136.8250 C   0  0  1  0  0  3  0  0  0  0  0  0
  189.2660  176.4850  142.2910 C   0  0  0  0  0  3  0  0  0  0  0  0
  193.2170  174.7340  137.2340 C   0  0  0  0  0  3  0  0  0  0  0  0
  188.2000  176.5880  136.7410 C   0  0  1  0  0  0  0  0  0  0  0  0
  190.2200  176.1190  141.3740 N   0  0  0  0  0  2  0  0  0  0  0  0
  190.8490  175.5880  137.7530 C   0  0  2  0  0  3  0  0  0  0  0  0
  185.1420  177.5850  140.2110 C   0  0  0  0  0  1  0  0  0  0  0  0
  186.0220  178.6550  140.6470 N   0  0  0  0  0  0  0  0  0  0  0  0
  185.6800  179.3730  141.8660 C   0  0  0  0  0  2  0  0  0  0  0  0
  185.1790  178.4510  142.8810 N   0  0  0  0  0  0  0  0  0  0  0  0
  185.0860  179.1670  144.1160 C   0  0  1  0  0  3  0  0  0  0  0  0
  183.9220  178.9920  143.3270 N   0  0  0  0  0  2  0  0  0  0  0  0
  186.4230  178.1630  145.7680 C   0  0  0  0  0  1  0  0  0  0  0  0
  184.2770  178.7160  146.1900 O   0  0  0  0  0  1  0  0  0  0  0  0
  185.0760  178.2160  145.2180 N   0  0  0  0  0  0  0  0  0  0  0  0
  185.5670  174.3240  136.0310 C   0  0  0  0  0  2  0  0  0  0  0  0
  184.1390  174.0290  136.2120 N   0  0  0  0  0  0  0  0  0  0  0  0
  183.4250  175.1930  136.7880 C   0  0  2  0  0  3  0  0  0  0  0  0
  182.8840  174.8770  138.1810 C   0  0  0  0  0  1  0  0  0  0  0  0
  182.2730  175.6740  135.9420 C   0  0  0  0  0  0  0  0  0  0  0  0
  181.9940  175.1060  134.8990 O   0  0  0  0  0  0  0  0  0  0  0  0
  182.0590  178.0130  136.5520 N   0  0  0  0  0  1  0  0  0  0  0  0
  181.3610  176.7410  136.4710 C   0  0  0  0  0  2  0  0  0  0  0  0
  183.9570  172.8450  137.0840 C   0  0  0  0  0  2  0  0  0  0  0  0
  184.1890  171.4800  136.4070 C   0  0  0  0  0  2  0  0  0  0  0  0
  181.7340  171.4800  136.8010 C   0  0  0  0  0  1  0  0  0  0  0  0
  182.8910  170.7150  136.1840 C   0  0  0  0  0  2  0  0  0  0  0  0
  1  3  1  6  0  0  0
  1 18  1  0  0  0  0
  2 12  1  6  0  0  0
  2  8  1  0  0  0  0
  2 26  1  0  0  0  0
  4 25  1  0  0  0  0
  5  6  1  6  0  0  0
  5  4  1  0  0  0  0
  7 15  1  0  0  0  0
  8 16  1  0  0  0  0
  9  4  2  0  0  0  0
  9 19  1  0  0  0  0
 10 28  1  0  0  0  0
 10 19  2  0  0  0  0
 11 23  2  0  0  0  0
 14 22  2  0  0  0  0
 15  6  2  0  0  0  0
 16 18  2  0  0  0  0
 16  9  1  0  0  0  0
 17 20  1  0  0  0  0
 17 21  1  0  0  0  0
 18 10  1  0  0  0  0
 19 14  1  0  0  0  0
 20  3  1  6  0  0  0
 20 24  1  0  0  0  0
 20  1  1  0  0  0  0
 21 36  1  6  0  0  0
 21 13  1  0  0  0  0
 23  7  1  0  0  0  0
 24 12  1  6  0  0  0
 24 13  1  0  0  0  0
 24  8  1  0  0  0  0
 25 22  1  0  0  0  0
 26 11  1  6  0  0  0
 26  5  1  0  0  0  0
 27 28  1  0  0  0  0
 28 29  1  0  0  0  0
 29 30  1  0  0  0  0
 30 32  1  0  0  0  0
 30 31  1  0  0  0  0
 31 35  1  1  0  0  0
 32 31  1  0  0  0  0
 35 33  1  0  0  0  0
 35 34  1  0  0  0  0
 36 37  1  0  0  0  0
 37 38  1  0  0  0  0
 37 44  1  0  0  0  0
 38 39  1  1  0  0  0
 40 43  1  0  0  0  0
 40 38  1  0  0  0  0
 41 40  2  0  0  0  0
 43 42  1  0  0  0  0
 45 44  1  0  0  0  0
 47 45  1  0  0  0  0
 47 46  1  0  0  0  0
M  END
>  <MODEL>
9

>  <REMARK>
 VINA RESULT:      -5.6      3.099      8.672
  Name = 
  12 active torsions:
  status: ('A' for Active; 'I' for Inactive)
    1  A    between atoms: C_1  and  C_5
    2  A    between atoms: C_1  and  N_15
    3  A    between atoms: C_2  and  N_15
    4  A    between atoms: C_2  and  C_23
    5  A    between atoms: C_5  and  C_42
    6  A    between atoms: C_7  and  C_23
    7  A    between atoms: N_12  and  C_45
    8  A    between atoms: N_15  and  C_41
    9  A    between atoms: C_19  and  N_38
   10  A    between atoms: C_24  and  N_36
   11  A    between atoms: N_36  and  C_45
   12  A    between atoms: C_39  and  C_41
                            x       y       z     vdW  Elec       q    Type
                         _______ _______ _______ _____ _____    ______ ____

>  <TORSDO>
F 12

$$$$
