=
 OpenBabel11032419143D

 30 31  0  0  1  0  0  0  0  0999 V2000
  189.0090  178.3210  141.0610 C   0  0  2  0  0  3  0  0  0  0  0  0
  189.1170  178.0440  139.6340 N   0  0  0  0  0  0  0  0  0  0  0  0
  189.7820  177.1820  141.7350 C   0  0  1  0  0  3  0  0  0  0  0  0
  190.2580  176.4110  140.6450 O   0  0  0  0  0  0  0  0  0  0  0  0
  189.8150  176.9760  139.4680 C   0  0  0  0  0  0  0  0  0  0  0  0
  190.6890  175.0910  138.2650 N   0  0  0  0  0  1  0  0  0  0  0  0
  190.1360  176.4260  138.1240 C   0  0  0  0  0  2  0  0  0  0  0  0
  191.9660  176.7950  142.6880 O   0  0  0  0  0  1  0  0  0  0  0  0
  190.9410  177.7360  142.5700 C   0  0  2  0  0  3  0  0  0  0  0  0
  190.4940  178.1970  143.9550 C   0  0  2  0  0  3  0  0  0  0  0  0
  191.5820  178.5230  144.7470 F   0  0  0  0  0  0  0  0  0  0  0  0
  189.6420  177.1310  144.6310 C   0  0  0  0  0  2  0  0  0  0  0  0
  188.8780  177.7100  145.8140 C   0  0  0  0  0  2  0  0  0  0  0  0
  190.6000  176.6010  147.2890 N   0  0  0  0  0  1  0  0  0  0  0  0
  188.3930  176.8240  147.9730 O   0  0  0  0  0  0  0  0  0  0  0  0
  189.2560  177.0170  147.0790 C   0  0  0  0  0  0  0  0  0  0  0  0
  187.5550  178.2700  141.4920 C   0  0  0  0  0  2  0  0  0  0  0  0
  186.6930  178.6540  140.3780 N   0  0  0  0  0  2  0  0  0  0  0  0
  185.3690  179.0550  140.8640 C   0  0  1  0  0  3  0  0  0  0  0  0
  184.2410  180.4270  139.0860 O   0  0  0  0  0  0  0  0  0  0  0  0
  184.3690  179.2130  139.7510 C   0  0  0  0  0  0  0  0  0  0  0  0
  183.5870  178.2680  139.4670 O   0  0  0  0  0  1  0  0  0  0  0  0
  184.7660  177.9560  142.1990 S   0  0  0  0  0  0  0  0  0  0  0  0
  185.5690  178.6680  146.8980 C   0  0  0  0  0  1  0  0  0  0  0  0
  184.6260  179.3180  143.3970 C   0  0  2  0  0  3  0  0  0  0  0  0
  184.8910  178.9230  145.6010 C   0  0  0  0  0  0  0  0  0  0  0  0
  185.5510  179.0900  144.4980 N   0  0  0  0  0  0  0  0  0  0  0  0
  182.1980  179.4230  143.5490 O   0  0  0  0  0  0  0  0  0  0  0  0
  183.4770  179.0030  145.4800 N   0  0  0  0  0  2  0  0  0  0  0  0
  183.3190  179.2550  144.0970 C   0  0  0  0  0  0  0  0  0  0  0  0
  1 17  1  1  0  0  0
  1  3  1  0  0  0  0
  2  1  1  0  0  0  0
  3  9  1  6  0  0  0
  4  3  1  0  0  0  0
  5  2  2  0  0  0  0
  5  4  1  0  0  0  0
  7  6  1  0  0  0  0
  7  5  1  0  0  0  0
  9  8  1  1  0  0  0
  9 10  1  0  0  0  0
 10 12  1  0  0  0  0
 10 11  1  1  0  0  0
 12 13  1  0  0  0  0
 13 16  1  0  0  0  0
 16 14  1  0  0  0  0
 16 15  2  0  0  0  0
 18 19  1  0  0  0  0
 18 17  1  0  0  0  0
 19 21  1  6  0  0  0
 19 23  1  0  0  0  0
 20 21  2  0  0  0  0
 22 21  1  0  0  0  0
 25 23  1  6  0  0  0
 25 30  1  0  0  0  0
 25 27  1  0  0  0  0
 26 24  1  0  0  0  0
 27 26  2  0  0  0  0
 28 30  2  0  0  0  0
 29 26  1  0  0  0  0
 30 29  1  0  0  0  0
M  END
>  <MODEL>
1

>  <REMARK>
 VINA RESULT:      -7.5      0.000      0.000
  Name = 
  12 active torsions:
  status: ('A' for Active; 'I' for Inactive)
    1  A    between atoms: C_1  and  C_6
    2  A    between atoms: C_1  and  C_19
    3  A    between atoms: S_2  and  C_5
    4  A    between atoms: S_2  and  C_21
    5  A    between atoms: C_4  and  C_20
    6  A    between atoms: C_6  and  C_25
    7  A    between atoms: C_12  and  C_19
    8  A    between atoms: N_16  and  C_20
    9  A    between atoms: N_16  and  C_21
   10  A    between atoms: C_21  and  C_23
   11  A    between atoms: C_22  and  C_28
   12  A    between atoms: C_25  and  C_26
                            x       y       z     vdW  Elec       q    Type
                         _______ _______ _______ _____ _____    ______ ____

>  <TORSDO>
F 12

$$$$
=
 OpenBabel11032419143D

 30 31  0  0  1  0  0  0  0  0999 V2000
  188.7650  178.5020  140.9390 C   0  0  2  0  0  3  0  0  0  0  0  0
  188.8220  178.7160  139.4980 N   0  0  0  0  0  0  0  0  0  0  0  0
  189.4880  177.1690  141.1600 C   0  0  1  0  0  3  0  0  0  0  0  0
  189.8920  176.7880  139.8550 O   0  0  0  0  0  0  0  0  0  0  0  0
  189.4540  177.7360  138.9560 C   0  0  0  0  0  0  0  0  0  0  0  0
  189.2620  176.3680  136.9910 N   0  0  0  0  0  1  0  0  0  0  0  0
  189.7090  177.6550  137.4930 C   0  0  0  0  0  2  0  0  0  0  0  0
  191.8530  177.6160  141.3430 O   0  0  0  0  0  1  0  0  0  0  0  0
  190.6970  177.3560  142.0820 C   0  0  2  0  0  3  0  0  0  0  0  0
  190.9220  176.1580  143.0000 C   0  0  2  0  0  3  0  0  0  0  0  0
  189.8690  175.2630  142.9200 F   0  0  0  0  0  0  0  0  0  0  0  0
  191.1320  176.6090  144.4390 C   0  0  0  0  0  2  0  0  0  0  0  0
  190.2130  177.7710  144.7870 C   0  0  0  0  0  2  0  0  0  0  0  0
  188.9030  177.1370  146.8490 N   0  0  0  0  0  1  0  0  0  0  0  0
  187.9500  177.0240  144.7350 O   0  0  0  0  0  0  0  0  0  0  0  0
  188.9620  177.2830  145.4350 C   0  0  0  0  0  0  0  0  0  0  0  0
  187.3220  178.3770  141.3890 C   0  0  0  0  0  2  0  0  0  0  0  0
  186.4270  178.7570  140.3000 N   0  0  0  0  0  2  0  0  0  0  0  0
  185.1170  179.1570  140.8250 C   0  0  1  0  0  3  0  0  0  0  0  0
  183.1310  178.3870  139.4930 O   0  0  0  0  0  1  0  0  0  0  0  0
  184.0970  179.3560  139.7370 C   0  0  0  0  0  0  0  0  0  0  0  0
  184.1590  180.3670  138.9900 O   0  0  0  0  0  0  0  0  0  0  0  0
  184.5290  178.0260  142.1400 S   0  0  0  0  0  0  0  0  0  0  0  0
  185.7290  178.8860  146.7290 C   0  0  0  0  0  1  0  0  0  0  0  0
  184.3390  179.3700  143.3520 C   0  0  2  0  0  3  0  0  0  0  0  0
  184.8890  179.0360  145.5130 C   0  0  0  0  0  0  0  0  0  0  0  0
  185.3990  179.2770  144.3470 N   0  0  0  0  0  0  0  0  0  0  0  0
  181.9490  179.1530  143.7650 O   0  0  0  0  0  0  0  0  0  0  0  0
  183.4720  178.9260  145.5450 N   0  0  0  0  0  2  0  0  0  0  0  0
  183.1340  179.1410  144.1880 C   0  0  0  0  0  0  0  0  0  0  0  0
  1  3  1  0  0  0  0
  1 17  1  6  0  0  0
  2  1  1  0  0  0  0
  3  9  1  1  0  0  0
  4  3  1  0  0  0  0
  5  2  2  0  0  0  0
  5  4  1  0  0  0  0
  6  7  1  0  0  0  0
  7  5  1  0  0  0  0
  9  8  1  6  0  0  0
  9 10  1  0  0  0  0
 10 11  1  1  0  0  0
 10 12  1  0  0  0  0
 12 13  1  0  0  0  0
 13 16  1  0  0  0  0
 15 16  2  0  0  0  0
 16 14  1  0  0  0  0
 18 19  1  0  0  0  0
 18 17  1  0  0  0  0
 19 21  1  6  0  0  0
 19 23  1  0  0  0  0
 20 21  1  0  0  0  0
 22 21  2  0  0  0  0
 25 23  1  6  0  0  0
 25 30  1  0  0  0  0
 25 27  1  0  0  0  0
 26 29  1  0  0  0  0
 26 24  1  0  0  0  0
 27 26  2  0  0  0  0
 28 30  2  0  0  0  0
 30 29  1  0  0  0  0
M  END
>  <MODEL>
2

>  <REMARK>
 VINA RESULT:      -7.4      1.313      1.519
  Name = 
  12 active torsions:
  status: ('A' for Active; 'I' for Inactive)
    1  A    between atoms: C_1  and  C_6
    2  A    between atoms: C_1  and  C_19
    3  A    between atoms: S_2  and  C_5
    4  A    between atoms: S_2  and  C_21
    5  A    between atoms: C_4  and  C_20
    6  A    between atoms: C_6  and  C_25
    7  A    between atoms: C_12  and  C_19
    8  A    between atoms: N_16  and  C_20
    9  A    between atoms: N_16  and  C_21
   10  A    between atoms: C_21  and  C_23
   11  A    between atoms: C_22  and  C_28
   12  A    between atoms: C_25  and  C_26
                            x       y       z     vdW  Elec       q    Type
                         _______ _______ _______ _____ _____    ______ ____

>  <TORSDO>
F 12

$$$$
=
 OpenBabel11032419143D

 30 31  0  0  1  0  0  0  0  0999 V2000
  189.2880  178.0040  140.9900 C   0  0  2  0  0  3  0  0  0  0  0  0
  188.1730  178.5840  141.7290 N   0  0  0  0  0  0  0  0  0  0  0  0
  188.6900  177.6140  139.6340 C   0  0  1  0  0  3  0  0  0  0  0  0
  187.3370  178.0270  139.7340 O   0  0  0  0  0  0  0  0  0  0  0  0
  187.1250  178.5660  140.9850 C   0  0  0  0  0  0  0  0  0  0  0  0
  185.0250  179.4860  140.2710 N   0  0  0  0  0  1  0  0  0  0  0  0
  185.8130  179.1080  141.4300 C   0  0  0  0  0  2  0  0  0  0  0  0
  188.5840  179.3140  137.9230 O   0  0  0  0  0  1  0  0  0  0  0  0
  189.4100  178.3450  138.4960 C   0  0  2  0  0  3  0  0  0  0  0  0
  189.9190  177.3900  137.4190 C   0  0  2  0  0  3  0  0  0  0  0  0
  188.8690  176.7360  136.7970 F   0  0  0  0  0  0  0  0  0  0  0  0
  190.9010  176.3860  138.0050 C   0  0  0  0  0  2  0  0  0  0  0  0
  192.1220  176.2270  137.1090 C   0  0  0  0  0  2  0  0  0  0  0  0
  193.4000  176.9590  139.1590 N   0  0  0  0  0  1  0  0  0  0  0  0
  194.4130  175.6950  137.4950 O   0  0  0  0  0  0  0  0  0  0  0  0
  193.3780  176.2770  137.9100 C   0  0  0  0  0  0  0  0  0  0  0  0
  189.7910  176.7600  141.6980 C   0  0  0  0  0  2  0  0  0  0  0  0
  190.8550  177.1160  142.6310 N   0  0  0  0  0  2  0  0  0  0  0  0
  190.4790  176.7630  144.0040 C   0  0  1  0  0  3  0  0  0  0  0  0
  192.1970  174.9400  144.1910 O   0  0  0  0  0  0  0  0  0  0  0  0
  191.5830  176.0590  144.7430 C   0  0  0  0  0  0  0  0  0  0  0  0
  191.9070  176.4320  145.9010 O   0  0  0  0  0  1  0  0  0  0  0  0
  189.8240  178.2020  144.9280 S   0  0  0  0  0  0  0  0  0  0  0  0
  185.1150  178.8660  145.7170 C   0  0  0  0  0  1  0  0  0  0  0  0
  188.4280  177.2580  145.6120 C   0  0  2  0  0  3  0  0  0  0  0  0
  186.4480  178.2700  145.9890 C   0  0  0  0  0  0  0  0  0  0  0  0
  187.1820  177.7610  145.0500 N   0  0  0  0  0  0  0  0  0  0  0  0
  189.0730  177.3010  147.9600 O   0  0  0  0  0  0  0  0  0  0  0  0
  187.0090  178.2160  147.2950 N   0  0  0  0  0  2  0  0  0  0  0  0
  188.2470  177.5760  147.0510 C   0  0  0  0  0  0  0  0  0  0  0  0
  1 17  1  1  0  0  0
  1  2  1  0  0  0  0
  3  9  1  6  0  0  0
  3  4  1  0  0  0  0
  3  1  1  0  0  0  0
  4  5  1  0  0  0  0
  5  7  1  0  0  0  0
  5  2  2  0  0  0  0
  6  7  1  0  0  0  0
  9  8  1  6  0  0  0
 10 11  1  1  0  0  0
 10 12  1  0  0  0  0
 10  9  1  0  0  0  0
 13 16  1  0  0  0  0
 13 12  1  0  0  0  0
 15 16  2  0  0  0  0
 16 14  1  0  0  0  0
 17 18  1  0  0  0  0
 19 18  1  6  0  0  0
 19 21  1  0  0  0  0
 19 23  1  0  0  0  0
 20 21  2  0  0  0  0
 21 22  1  0  0  0  0
 24 26  1  0  0  0  0
 25 23  1  6  0  0  0
 25 30  1  0  0  0  0
 26 29  1  0  0  0  0
 27 25  1  0  0  0  0
 27 26  2  0  0  0  0
 30 29  1  0  0  0  0
 30 28  2  0  0  0  0
M  END
>  <MODEL>
3

>  <REMARK>
 VINA RESULT:      -7.2      3.078      6.698
  Name = 
  12 active torsions:
  status: ('A' for Active; 'I' for Inactive)
    1  A    between atoms: C_1  and  C_6
    2  A    between atoms: C_1  and  C_19
    3  A    between atoms: S_2  and  C_5
    4  A    between atoms: S_2  and  C_21
    5  A    between atoms: C_4  and  C_20
    6  A    between atoms: C_6  and  C_25
    7  A    between atoms: C_12  and  C_19
    8  A    between atoms: N_16  and  C_20
    9  A    between atoms: N_16  and  C_21
   10  A    between atoms: C_21  and  C_23
   11  A    between atoms: C_22  and  C_28
   12  A    between atoms: C_25  and  C_26
                            x       y       z     vdW  Elec       q    Type
                         _______ _______ _______ _____ _____    ______ ____

>  <TORSDO>
F 12

$$$$
=
 OpenBabel11032419143D

 30 31  0  0  1  0  0  0  0  0999 V2000
  188.5830  178.0040  142.2470 C   0  0  2  0  0  3  0  0  0  0  0  0
  187.9270  178.4320  141.0180 N   0  0  0  0  0  0  0  0  0  0  0  0
  189.6820  177.0410  141.7820 C   0  0  1  0  0  3  0  0  0  0  0  0
  189.5530  177.0440  140.3700 O   0  0  0  0  0  0  0  0  0  0  0  0
  188.5050  177.8670  140.0180 C   0  0  0  0  0  0  0  0  0  0  0  0
  188.8150  179.2530  138.0810 N   0  0  0  0  0  1  0  0  0  0  0  0
  188.0930  178.1080  138.6090 C   0  0  0  0  0  2  0  0  0  0  0  0
  191.9810  177.4500  141.1680 O   0  0  0  0  0  1  0  0  0  0  0  0
  191.0610  177.5480  142.2150 C   0  0  2  0  0  3  0  0  0  0  0  0
  191.5930  176.8170  143.4450 C   0  0  2  0  0  3  0  0  0  0  0  0
  190.9490  175.6040  143.6210 F   0  0  0  0  0  0  0  0  0  0  0  0
  191.4540  177.6820  144.6900 C   0  0  0  0  0  2  0  0  0  0  0  0
  190.6800  176.9530  145.7790 C   0  0  0  0  0  2  0  0  0  0  0  0
  192.3300  175.2740  146.6900 N   0  0  0  0  0  1  0  0  0  0  0  0
  191.7400  177.1640  147.9040 O   0  0  0  0  0  0  0  0  0  0  0  0
  191.5960  176.4810  146.8570 C   0  0  0  0  0  0  0  0  0  0  0  0
  187.5990  177.2600  143.1300 C   0  0  0  0  0  2  0  0  0  0  0  0
  187.3820  178.0030  144.3670 N   0  0  0  0  0  2  0  0  0  0  0  0
  185.9480  178.1060  144.6630 C   0  0  1  0  0  3  0  0  0  0  0  0
  184.4230  178.6580  146.5820 O   0  0  0  0  0  0  0  0  0  0  0  0
  185.6720  178.2410  146.1350 C   0  0  0  0  0  0  0  0  0  0  0  0
  186.5940  178.0520  146.9710 O   0  0  0  0  0  1  0  0  0  0  0  0
  185.1350  179.4150  143.6730 S   0  0  0  0  0  0  0  0  0  0  0  0
  183.3380  178.7870  139.2440 C   0  0  0  0  0  1  0  0  0  0  0  0
  184.0490  178.2330  142.8160 C   0  0  2  0  0  3  0  0  0  0  0  0
  183.3260  178.6670  140.7250 C   0  0  0  0  0  0  0  0  0  0  0  0
  184.3520  178.2420  141.3920 N   0  0  0  0  0  0  0  0  0  0  0  0
  181.9350  178.8700  143.8450 O   0  0  0  0  0  0  0  0  0  0  0  0
  182.1900  179.0070  141.5090 N   0  0  0  0  0  2  0  0  0  0  0  0
  182.6490  178.7280  142.8180 C   0  0  0  0  0  0  0  0  0  0  0  0
  1 17  1  1  0  0  0
  2  1  1  0  0  0  0
  3  9  1  6  0  0  0
  3  1  1  0  0  0  0
  4  3  1  0  0  0  0
  5  4  1  0  0  0  0
  5  2  2  0  0  0  0
  6  7  1  0  0  0  0
  7  5  1  0  0  0  0
  9  8  1  6  0  0  0
  9 10  1  0  0  0  0
 10 11  1  1  0  0  0
 10 12  1  0  0  0  0
 12 13  1  0  0  0  0
 13 16  1  0  0  0  0
 14 16  1  0  0  0  0
 16 15  2  0  0  0  0
 17 18  1  0  0  0  0
 18 19  1  0  0  0  0
 19 23  1  6  0  0  0
 19 21  1  0  0  0  0
 21 20  2  0  0  0  0
 21 22  1  0  0  0  0
 24 26  1  0  0  0  0
 25 30  1  0  0  0  0
 25 23  1  1  0  0  0
 26 27  2  0  0  0  0
 26 29  1  0  0  0  0
 27 25  1  0  0  0  0
 29 30  1  0  0  0  0
 30 28  2  0  0  0  0
M  END
>  <MODEL>
4

>  <REMARK>
 VINA RESULT:      -7.2      2.366      3.723
  Name = 
  12 active torsions:
  status: ('A' for Active; 'I' for Inactive)
    1  A    between atoms: C_1  and  C_6
    2  A    between atoms: C_1  and  C_19
    3  A    between atoms: S_2  and  C_5
    4  A    between atoms: S_2  and  C_21
    5  A    between atoms: C_4  and  C_20
    6  A    between atoms: C_6  and  C_25
    7  A    between atoms: C_12  and  C_19
    8  A    between atoms: N_16  and  C_20
    9  A    between atoms: N_16  and  C_21
   10  A    between atoms: C_21  and  C_23
   11  A    between atoms: C_22  and  C_28
   12  A    between atoms: C_25  and  C_26
                            x       y       z     vdW  Elec       q    Type
                         _______ _______ _______ _____ _____    ______ ____

>  <TORSDO>
F 12

$$$$
=
 OpenBabel11032419143D

 30 31  0  0  1  0  0  0  0  0999 V2000
  187.5250  177.8510  144.5970 C   0  0  2  0  0  3  0  0  0  0  0  0
  188.6710  177.7900  145.4960 N   0  0  0  0  0  0  0  0  0  0  0  0
  186.3110  177.6190  145.5030 C   0  0  1  0  0  3  0  0  0  0  0  0
  186.8800  177.4800  146.7940 O   0  0  0  0  0  0  0  0  0  0  0  0
  188.2510  177.5810  146.6930 C   0  0  0  0  0  0  0  0  0  0  0  0
  190.3590  176.7480  147.4860 N   0  0  0  0  0  1  0  0  0  0  0  0
  189.1670  177.4870  147.8610 C   0  0  0  0  0  2  0  0  0  0  0  0
  184.4600  178.7940  146.5150 O   0  0  0  0  0  1  0  0  0  0  0  0
  185.3570  178.8160  145.4440 C   0  0  2  0  0  3  0  0  0  0  0  0
  184.5910  178.8880  144.1250 C   0  0  2  0  0  3  0  0  0  0  0  0
  185.0400  179.9410  143.3460 F   0  0  0  0  0  0  0  0  0  0  0  0
  183.0940  179.0070  144.3740 C   0  0  0  0  0  2  0  0  0  0  0  0
  182.3130  178.9100  143.0710 C   0  0  0  0  0  2  0  0  0  0  0  0
  180.2210  180.3160  142.9400 N   0  0  0  0  0  1  0  0  0  0  0  0
  180.1760  178.1680  143.8210 O   0  0  0  0  0  0  0  0  0  0  0  0
  180.8540  179.0970  143.3120 C   0  0  0  0  0  0  0  0  0  0  0  0
  187.6100  176.7380  143.5700 C   0  0  0  0  0  2  0  0  0  0  0  0
  189.0080  176.4590  143.2550 N   0  0  0  0  0  2  0  0  0  0  0  0
  189.5400  177.4680  142.3320 C   0  0  1  0  0  3  0  0  0  0  0  0
  192.0360  177.1820  142.3910 O   0  0  0  0  0  0  0  0  0  0  0  0
  190.9160  177.9360  142.7210 C   0  0  0  0  0  0  0  0  0  0  0  0
  191.0560  178.9760  143.4170 O   0  0  0  0  0  1  0  0  0  0  0  0
  189.4530  176.9170  140.5880 S   0  0  0  0  0  0  0  0  0  0  0  0
  184.9990  178.7310  140.2690 C   0  0  0  0  0  1  0  0  0  0  0  0
  188.6650  178.4600  140.0340 C   0  0  2  0  0  3  0  0  0  0  0  0
  186.4200  178.5900  139.8620 C   0  0  0  0  0  0  0  0  0  0  0  0
  187.3910  178.6260  140.7200 N   0  0  0  0  0  0  0  0  0  0  0  0
  188.9880  178.1930  137.6350 O   0  0  0  0  0  0  0  0  0  0  0  0
  186.8120  178.4080  138.5080 N   0  0  0  0  0  2  0  0  0  0  0  0
  188.2210  178.3320  138.6230 C   0  0  0  0  0  0  0  0  0  0  0  0
  1 17  1  6  0  0  0
  1  2  1  0  0  0  0
  1  3  1  0  0  0  0
  2  5  2  0  0  0  0
  3  9  1  1  0  0  0
  3  4  1  0  0  0  0
  5  4  1  0  0  0  0
  5  7  1  0  0  0  0
  6  7  1  0  0  0  0
  9  8  1  1  0  0  0
 10 11  1  1  0  0  0
 10 12  1  0  0  0  0
 10  9  1  0  0  0  0
 13 16  1  0  0  0  0
 13 12  1  0  0  0  0
 14 16  1  0  0  0  0
 16 15  2  0  0  0  0
 18 17  1  0  0  0  0
 19 23  1  6  0  0  0
 19 21  1  0  0  0  0
 19 18  1  0  0  0  0
 20 21  2  0  0  0  0
 21 22  1  0  0  0  0
 25 23  1  1  0  0  0
 25 27  1  0  0  0  0
 26 24  1  0  0  0  0
 26 27  2  0  0  0  0
 28 30  2  0  0  0  0
 29 30  1  0  0  0  0
 29 26  1  0  0  0  0
 30 25  1  0  0  0  0
M  END
>  <MODEL>
5

>  <REMARK>
 VINA RESULT:      -7.1      2.842      7.262
  Name = 
  12 active torsions:
  status: ('A' for Active; 'I' for Inactive)
    1  A    between atoms: C_1  and  C_6
    2  A    between atoms: C_1  and  C_19
    3  A    between atoms: S_2  and  C_5
    4  A    between atoms: S_2  and  C_21
    5  A    between atoms: C_4  and  C_20
    6  A    between atoms: C_6  and  C_25
    7  A    between atoms: C_12  and  C_19
    8  A    between atoms: N_16  and  C_20
    9  A    between atoms: N_16  and  C_21
   10  A    between atoms: C_21  and  C_23
   11  A    between atoms: C_22  and  C_28
   12  A    between atoms: C_25  and  C_26
                            x       y       z     vdW  Elec       q    Type
                         _______ _______ _______ _____ _____    ______ ____

>  <TORSDO>
F 12

$$$$
=
 OpenBabel11032419143D

 30 31  0  0  1  0  0  0  0  0999 V2000
  189.6190  176.9860  141.2810 C   0  0  2  0  0  3  0  0  0  0  0  0
  190.4980  176.2210  140.4050 N   0  0  0  0  0  0  0  0  0  0  0  0
  189.1060  178.1350  140.4060 C   0  0  1  0  0  3  0  0  0  0  0  0
  189.7130  177.8920  139.1470 O   0  0  0  0  0  0  0  0  0  0  0  0
  190.5100  176.7720  139.2430 C   0  0  0  0  0  0  0  0  0  0  0  0
  192.6510  176.7390  138.1550 N   0  0  0  0  0  1  0  0  0  0  0  0
  191.2930  176.2260  138.1020 C   0  0  0  0  0  2  0  0  0  0  0  0
  187.1450  178.6180  139.0820 O   0  0  0  0  0  1  0  0  0  0  0  0
  187.5780  178.0930  140.3020 C   0  0  2  0  0  3  0  0  0  0  0  0
  186.8950  178.8230  141.4550 C   0  0  2  0  0  3  0  0  0  0  0  0
  187.0870  178.1540  142.6520 F   0  0  0  0  0  0  0  0  0  0  0  0
  185.4090  179.0030  141.1770 C   0  0  0  0  0  2  0  0  0  0  0  0
  184.5670  178.1890  142.1490 C   0  0  0  0  0  2  0  0  0  0  0  0
  182.6630  178.7360  143.7130 N   0  0  0  0  0  1  0  0  0  0  0  0
  184.5380  180.1000  143.5740 O   0  0  0  0  0  0  0  0  0  0  0  0
  183.9350  179.0710  143.1710 C   0  0  0  0  0  0  0  0  0  0  0  0
  190.4100  177.5520  142.4460 C   0  0  0  0  0  2  0  0  0  0  0  0
  191.0270  176.4660  143.2010 N   0  0  0  0  0  2  0  0  0  0  0  0
  190.5730  176.4840  144.5960 C   0  0  1  0  0  3  0  0  0  0  0  0
  192.2740  174.9620  145.6460 O   0  0  0  0  0  0  0  0  0  0  0  0
  191.6880  176.2210  145.5700 C   0  0  0  0  0  0  0  0  0  0  0  0
  192.0460  177.1180  146.3770 O   0  0  0  0  0  1  0  0  0  0  0  0
  189.6390  178.0090  144.9940 S   0  0  0  0  0  0  0  0  0  0  0  0
  185.1480  178.6160  146.6350 C   0  0  0  0  0  1  0  0  0  0  0  0
  188.4750  177.1340  146.0840 C   0  0  2  0  0  3  0  0  0  0  0  0
  186.5460  178.1200  146.7100 C   0  0  0  0  0  0  0  0  0  0  0  0
  187.1110  177.4960  145.7250 N   0  0  0  0  0  0  0  0  0  0  0  0
  189.5710  177.5730  148.2140 O   0  0  0  0  0  0  0  0  0  0  0  0
  187.3580  178.2940  147.8640 N   0  0  0  0  0  2  0  0  0  0  0  0
  188.5630  177.6700  147.4660 C   0  0  0  0  0  0  0  0  0  0  0  0
  1 17  1  1  0  0  0
  2  1  1  0  0  0  0
  3  9  1  6  0  0  0
  3  1  1  0  0  0  0
  4  5  1  0  0  0  0
  4  3  1  0  0  0  0
  5  2  2  0  0  0  0
  7  6  1  0  0  0  0
  7  5  1  0  0  0  0
  9  8  1  6  0  0  0
  9 10  1  0  0  0  0
 10 11  1  1  0  0  0
 12 10  1  0  0  0  0
 12 13  1  0  0  0  0
 13 16  1  0  0  0  0
 16 15  2  0  0  0  0
 16 14  1  0  0  0  0
 17 18  1  0  0  0  0
 19 18  1  6  0  0  0
 19 23  1  0  0  0  0
 19 21  1  0  0  0  0
 21 20  2  0  0  0  0
 21 22  1  0  0  0  0
 24 26  1  0  0  0  0
 25 23  1  6  0  0  0
 25 30  1  0  0  0  0
 26 29  1  0  0  0  0
 27 25  1  0  0  0  0
 27 26  2  0  0  0  0
 30 29  1  0  0  0  0
 30 28  2  0  0  0  0
M  END
>  <MODEL>
6

>  <REMARK>
 VINA RESULT:      -6.9      2.443      5.827
  Name = 
  12 active torsions:
  status: ('A' for Active; 'I' for Inactive)
    1  A    between atoms: C_1  and  C_6
    2  A    between atoms: C_1  and  C_19
    3  A    between atoms: S_2  and  C_5
    4  A    between atoms: S_2  and  C_21
    5  A    between atoms: C_4  and  C_20
    6  A    between atoms: C_6  and  C_25
    7  A    between atoms: C_12  and  C_19
    8  A    between atoms: N_16  and  C_20
    9  A    between atoms: N_16  and  C_21
   10  A    between atoms: C_21  and  C_23
   11  A    between atoms: C_22  and  C_28
   12  A    between atoms: C_25  and  C_26
                            x       y       z     vdW  Elec       q    Type
                         _______ _______ _______ _____ _____    ______ ____

>  <TORSDO>
F 12

$$$$
=
 OpenBabel11032419143D

 30 31  0  0  1  0  0  0  0  0999 V2000
  187.3740  178.6620  141.1530 C   0  0  2  0  0  3  0  0  0  0  0  0
  186.0540  179.0650  140.6830 N   0  0  0  0  0  0  0  0  0  0  0  0
  187.9750  177.8700  139.9860 C   0  0  1  0  0  3  0  0  0  0  0  0
  186.9680  177.9280  138.9900 O   0  0  0  0  0  0  0  0  0  0  0  0
  185.8880  178.6280  139.4840 C   0  0  0  0  0  0  0  0  0  0  0  0
  184.0840  180.1640  139.0930 N   0  0  0  0  0  1  0  0  0  0  0  0
  184.6510  178.8860  138.7000 C   0  0  0  0  0  2  0  0  0  0  0  0
  189.0560  179.2580  138.3320 O   0  0  0  0  0  1  0  0  0  0  0  0
  189.2720  178.5260  139.5020 C   0  0  2  0  0  3  0  0  0  0  0  0
  190.3920  177.5110  139.2820 C   0  0  2  0  0  3  0  0  0  0  0  0
  189.8790  176.2560  139.0010 F   0  0  0  0  0  0  0  0  0  0  0  0
  191.3140  177.4530  140.4920 C   0  0  0  0  0  2  0  0  0  0  0  0
  190.6930  176.6350  141.6150 C   0  0  0  0  0  2  0  0  0  0  0  0
  191.6660  178.2450  143.2980 N   0  0  0  0  0  1  0  0  0  0  0  0
  191.6810  175.9540  143.6750 O   0  0  0  0  0  0  0  0  0  0  0  0
  191.3790  176.9070  142.9110 C   0  0  0  0  0  0  0  0  0  0  0  0
  187.2400  177.7560  142.3630 C   0  0  0  0  0  2  0  0  0  0  0  0
  185.9300  177.9410  142.9800 N   0  0  0  0  0  2  0  0  0  0  0  0
  186.0720  178.3830  144.3720 C   0  0  1  0  0  3  0  0  0  0  0  0
  184.4270  178.7800  146.2290 O   0  0  0  0  0  1  0  0  0  0  0  0
  184.8130  179.0020  144.9120 C   0  0  0  0  0  0  0  0  0  0  0  0
  184.0580  179.6630  144.1510 O   0  0  0  0  0  0  0  0  0  0  0  0
  186.7190  177.0520  145.4510 S   0  0  0  0  0  0  0  0  0  0  0  0
  191.2280  176.3790  147.0170 C   0  0  0  0  0  1  0  0  0  0  0  0
  188.1010  178.0710  146.0520 C   0  0  2  0  0  3  0  0  0  0  0  0
  189.9280  177.0940  146.9430 C   0  0  0  0  0  0  0  0  0  0  0  0
  189.3560  177.3720  145.8140 N   0  0  0  0  0  0  0  0  0  0  0  0
  187.1820  178.6880  148.2210 O   0  0  0  0  0  0  0  0  0  0  0  0
  189.2240  177.5230  148.1010 N   0  0  0  0  0  2  0  0  0  0  0  0
  188.0830  178.1380  147.5350 C   0  0  0  0  0  0  0  0  0  0  0  0
  1 17  1  1  0  0  0
  2  1  1  0  0  0  0
  3  9  1  6  0  0  0
  3  1  1  0  0  0  0
  4  5  1  0  0  0  0
  4  3  1  0  0  0  0
  5  2  2  0  0  0  0
  7  6  1  0  0  0  0
  7  5  1  0  0  0  0
  9  8  1  6  0  0  0
 10 11  1  1  0  0  0
 10  9  1  0  0  0  0
 10 12  1  0  0  0  0
 12 13  1  0  0  0  0
 13 16  1  0  0  0  0
 16 14  1  0  0  0  0
 16 15  2  0  0  0  0
 17 18  1  0  0  0  0
 19 18  1  6  0  0  0
 19 21  1  0  0  0  0
 19 23  1  0  0  0  0
 21 20  1  0  0  0  0
 22 21  2  0  0  0  0
 25 23  1  1  0  0  0
 25 30  1  0  0  0  0
 26 24  1  0  0  0  0
 26 29  1  0  0  0  0
 27 25  1  0  0  0  0
 27 26  2  0  0  0  0
 30 29  1  0  0  0  0
 30 28  2  0  0  0  0
M  END
>  <MODEL>
7

>  <REMARK>
 VINA RESULT:      -6.8      2.615      5.033
  Name = 
  12 active torsions:
  status: ('A' for Active; 'I' for Inactive)
    1  A    between atoms: C_1  and  C_6
    2  A    between atoms: C_1  and  C_19
    3  A    between atoms: S_2  and  C_5
    4  A    between atoms: S_2  and  C_21
    5  A    between atoms: C_4  and  C_20
    6  A    between atoms: C_6  and  C_25
    7  A    between atoms: C_12  and  C_19
    8  A    between atoms: N_16  and  C_20
    9  A    between atoms: N_16  and  C_21
   10  A    between atoms: C_21  and  C_23
   11  A    between atoms: C_22  and  C_28
   12  A    between atoms: C_25  and  C_26
                            x       y       z     vdW  Elec       q    Type
                         _______ _______ _______ _____ _____    ______ ____

>  <TORSDO>
F 12

$$$$
=
 OpenBabel11032419143D

 30 31  0  0  1  0  0  0  0  0999 V2000
  189.4690  176.7130  139.3300 C   0  0  2  0  0  3  0  0  0  0  0  0
  190.4280  175.6510  139.0510 N   0  0  0  0  0  0  0  0  0  0  0  0
  189.7730  177.7920  138.2850 C   0  0  1  0  0  3  0  0  0  0  0  0
  190.8300  177.2310  137.5240 O   0  0  0  0  0  0  0  0  0  0  0  0
  191.1510  175.9960  138.0460 C   0  0  0  0  0  0  0  0  0  0  0  0
  191.6270  173.8900  136.9950 N   0  0  0  0  0  1  0  0  0  0  0  0
  192.2170  175.1230  137.4850 C   0  0  0  0  0  2  0  0  0  0  0  0
  188.3580  179.4300  137.2150 O   0  0  0  0  0  1  0  0  0  0  0  0
  188.5430  178.0590  137.4120 C   0  0  2  0  0  3  0  0  0  0  0  0
  187.2720  177.4400  137.9890 C   0  0  2  0  0  3  0  0  0  0  0  0
  187.0440  176.1830  137.4550 F   0  0  0  0  0  0  0  0  0  0  0  0
  186.0730  178.3460  137.7530 C   0  0  0  0  0  2  0  0  0  0  0  0
  184.9770  178.0820  138.7760 C   0  0  0  0  0  2  0  0  0  0  0  0
  185.0470  179.3040  140.9830 N   0  0  0  0  0  1  0  0  0  0  0  0
  184.2250  180.3260  139.0660 O   0  0  0  0  0  0  0  0  0  0  0  0
  184.7150  179.2970  139.6000 C   0  0  0  0  0  0  0  0  0  0  0  0
  189.7060  177.2750  140.7200 C   0  0  0  0  0  2  0  0  0  0  0  0
  190.3990  176.2880  141.5430 N   0  0  0  0  0  2  0  0  0  0  0  0
  190.0570  176.4640  142.9580 C   0  0  1  0  0  3  0  0  0  0  0  0
  191.6900  177.4900  144.5690 O   0  0  0  0  0  1  0  0  0  0  0  0
  191.2600  176.3760  143.8570 C   0  0  0  0  0  0  0  0  0  0  0  0
  191.9310  175.3130  143.9110 O   0  0  0  0  0  0  0  0  0  0  0  0
  189.0780  177.9850  143.2440 S   0  0  0  0  0  0  0  0  0  0  0  0
  184.6070  178.8160  144.8420 C   0  0  0  0  0  1  0  0  0  0  0  0
  187.8090  177.1090  144.2090 C   0  0  2  0  0  3  0  0  0  0  0  0
  185.9540  178.1930  144.8940 C   0  0  0  0  0  0  0  0  0  0  0  0
  186.4930  177.6260  143.8610 N   0  0  0  0  0  0  0  0  0  0  0  0
  188.8720  177.2250  146.3970 O   0  0  0  0  0  0  0  0  0  0  0  0
  186.7410  178.1730  146.0780 N   0  0  0  0  0  2  0  0  0  0  0  0
  187.9000  177.4880  145.6420 C   0  0  0  0  0  0  0  0  0  0  0  0
  1 17  1  1  0  0  0
  2  1  1  0  0  0  0
  3  9  1  6  0  0  0
  3  1  1  0  0  0  0
  4  5  1  0  0  0  0
  4  3  1  0  0  0  0
  5  2  2  0  0  0  0
  6  7  1  0  0  0  0
  7  5  1  0  0  0  0
  9  8  1  1  0  0  0
  9 10  1  0  0  0  0
 10 11  1  6  0  0  0
 12 10  1  0  0  0  0
 12 13  1  0  0  0  0
 13 16  1  0  0  0  0
 15 16  2  0  0  0  0
 16 14  1  0  0  0  0
 17 18  1  0  0  0  0
 19 18  1  6  0  0  0
 19 23  1  0  0  0  0
 19 21  1  0  0  0  0
 21 22  2  0  0  0  0
 21 20  1  0  0  0  0
 24 26  1  0  0  0  0
 25 23  1  6  0  0  0
 25 30  1  0  0  0  0
 26 29  1  0  0  0  0
 27 25  1  0  0  0  0
 27 26  2  0  0  0  0
 30 29  1  0  0  0  0
 30 28  2  0  0  0  0
M  END
>  <MODEL>
8

>  <REMARK>
 VINA RESULT:      -6.7      2.768      6.114
  Name = 
  12 active torsions:
  status: ('A' for Active; 'I' for Inactive)
    1  A    between atoms: C_1  and  C_6
    2  A    between atoms: C_1  and  C_19
    3  A    between atoms: S_2  and  C_5
    4  A    between atoms: S_2  and  C_21
    5  A    between atoms: C_4  and  C_20
    6  A    between atoms: C_6  and  C_25
    7  A    between atoms: C_12  and  C_19
    8  A    between atoms: N_16  and  C_20
    9  A    between atoms: N_16  and  C_21
   10  A    between atoms: C_21  and  C_23
   11  A    between atoms: C_22  and  C_28
   12  A    between atoms: C_25  and  C_26
                            x       y       z     vdW  Elec       q    Type
                         _______ _______ _______ _____ _____    ______ ____

>  <TORSDO>
F 12

$$$$
=
 OpenBabel11032419143D

 30 31  0  0  1  0  0  0  0  0999 V2000
  187.7440  177.6770  144.5370 C   0  0  2  0  0  3  0  0  0  0  0  0
  188.6530  177.4850  145.6610 N   0  0  0  0  0  0  0  0  0  0  0  0
  186.3510  177.7380  145.1740 C   0  0  1  0  0  3  0  0  0  0  0  0
  186.6120  177.6040  146.5610 O   0  0  0  0  0  0  0  0  0  0  0  0
  187.9680  177.4510  146.7490 C   0  0  0  0  0  0  0  0  0  0  0  0
  187.9730  178.2040  149.0300 N   0  0  0  0  0  1  0  0  0  0  0  0
  188.5950  177.2900  148.0880 C   0  0  0  0  0  2  0  0  0  0  0  0
  185.3380  179.7520  146.0400 O   0  0  0  0  0  1  0  0  0  0  0  0
  185.6740  179.0770  144.8630 C   0  0  2  0  0  3  0  0  0  0  0  0
  184.4380  178.9170  143.9830 C   0  0  2  0  0  3  0  0  0  0  0  0
  183.4000  178.3260  144.6840 F   0  0  0  0  0  0  0  0  0  0  0  0
  184.7640  178.1110  142.7330 C   0  0  0  0  0  2  0  0  0  0  0  0
  185.2550  179.0160  141.6120 C   0  0  0  0  0  2  0  0  0  0  0  0
  184.5760  179.7770  139.3030 N   0  0  0  0  0  1  0  0  0  0  0  0
  183.2880  178.2590  140.4980 O   0  0  0  0  0  0  0  0  0  0  0  0
  184.3090  178.9930  140.4590 C   0  0  0  0  0  0  0  0  0  0  0  0
  187.8190  176.4870  143.5980 C   0  0  0  0  0  2  0  0  0  0  0  0
  188.5280  176.8620  142.3780 N   0  0  0  0  0  2  0  0  0  0  0  0
  189.9320  177.1710  142.6700 C   0  0  1  0  0  3  0  0  0  0  0  0
  191.6950  176.2160  144.1840 O   0  0  0  0  0  1  0  0  0  0  0  0
  190.6660  176.0060  143.2730 C   0  0  0  0  0  0  0  0  0  0  0  0
  190.4050  174.8330  142.8980 O   0  0  0  0  0  0  0  0  0  0  0  0
  190.7970  177.8700  141.2150 S   0  0  0  0  0  0  0  0  0  0  0  0
  191.5310  175.5550  137.0510 C   0  0  0  0  0  1  0  0  0  0  0  0
  189.8270  176.8820  140.0360 C   0  0  2  0  0  3  0  0  0  0  0  0
  190.7140  176.2950  138.0470 C   0  0  0  0  0  0  0  0  0  0  0  0
  190.7160  175.9880  139.3060 N   0  0  0  0  0  0  0  0  0  0  0  0
  188.4800  178.6720  139.0810 O   0  0  0  0  0  0  0  0  0  0  0  0
  189.8740  177.3840  137.6890 N   0  0  0  0  0  2  0  0  0  0  0  0
  189.3180  177.7440  138.9400 C   0  0  0  0  0  0  0  0  0  0  0  0
  1 17  1  6  0  0  0
  1  3  1  0  0  0  0
  1  2  1  0  0  0  0
  2  5  2  0  0  0  0
  3  9  1  1  0  0  0
  3  4  1  0  0  0  0
  4  5  1  0  0  0  0
  5  7  1  0  0  0  0
  7  6  1  0  0  0  0
  9  8  1  1  0  0  0
 10 11  1  1  0  0  0
 10  9  1  0  0  0  0
 12 10  1  0  0  0  0
 13 12  1  0  0  0  0
 14 16  1  0  0  0  0
 16 15  2  0  0  0  0
 16 13  1  0  0  0  0
 18 19  1  0  0  0  0
 18 17  1  0  0  0  0
 19 23  1  6  0  0  0
 19 21  1  0  0  0  0
 21 20  1  0  0  0  0
 22 21  2  0  0  0  0
 24 26  1  0  0  0  0
 25 23  1  1  0  0  0
 26 27  2  0  0  0  0
 27 25  1  0  0  0  0
 29 26  1  0  0  0  0
 29 30  1  0  0  0  0
 30 28  2  0  0  0  0
 30 25  1  0  0  0  0
M  END
>  <MODEL>
9

>  <REMARK>
 VINA RESULT:      -6.7      2.804      7.828
  Name = 
  12 active torsions:
  status: ('A' for Active; 'I' for Inactive)
    1  A    between atoms: C_1  and  C_6
    2  A    between atoms: C_1  and  C_19
    3  A    between atoms: S_2  and  C_5
    4  A    between atoms: S_2  and  C_21
    5  A    between atoms: C_4  and  C_20
    6  A    between atoms: C_6  and  C_25
    7  A    between atoms: C_12  and  C_19
    8  A    between atoms: N_16  and  C_20
    9  A    between atoms: N_16  and  C_21
   10  A    between atoms: C_21  and  C_23
   11  A    between atoms: C_22  and  C_28
   12  A    between atoms: C_25  and  C_26
                            x       y       z     vdW  Elec       q    Type
                         _______ _______ _______ _____ _____    ______ ____

>  <TORSDO>
F 12

$$$$
