=
 OpenBabel11042413023D

 40 49  0  0  1  0  0  0  0  0999 V2000
  188.5930  177.9020  148.8180 O   0  0  0  0  0  1  0  0  0  0  0  0
  186.0140  178.1140  143.3910 C   0  0  0  0  0  0  0  0  0  0  0  0
  188.4050  176.6530  144.8170 N   0  0  0  0  0  0  0  0  0  0  0  0
  186.2510  178.2670  147.0720 N   0  0  0  0  0  0  0  0  0  0  0  0
  187.3020  177.1360  145.4130 C   0  0  0  0  0  0  0  0  0  0  0  0
  188.4540  176.4310  143.5220 N   0  0  0  0  0  0  0  0  0  0  0  0
  184.7120  178.3440  142.8290 C   0  0  0  0  0  3  0  0  0  0  0  0
  186.9820  178.3880  142.4470 C   0  0  0  0  0  0  0  0  0  0  0  0
  187.3300  177.5170  146.7860 C   0  0  0  0  0  0  0  0  0  0  0  0
  188.5380  177.4710  147.4970 C   0  0  0  0  0  0  0  0  0  0  0  0
  185.5230  179.0180  140.4950 C   0  0  0  0  0  3  0  0  0  0  0  0
  184.4620  178.7610  141.4420 C   0  0  0  0  0  0  0  0  0  0  0  0
  188.7100  177.3810  140.9200 C   0  0  1  0  0  3  0  0  0  0  0  0
  186.2320  177.7920  144.8330 C   0  0  0  0  0  0  0  0  0  0  0  0
  189.8790  176.9300  141.6930 N   0  0  0  0  0  2  0  0  0  0  0  0
  190.8380  176.6210  144.2700 S   0  0  0  0  0  0  0  0  0  0  0  0
  189.6920  176.4530  143.0220 C   0  0  0  0  0  0  0  0  0  0  0  0
  188.0570  178.6450  141.5510 C   0  0  1  0  0  3  0  0  0  0  0  0
  186.7370  178.8180  141.0760 C   0  0  0  0  0  0  0  0  0  0  0  0
  189.7120  177.0630  146.8050 C   0  0  0  0  0  0  0  0  0  0  0  0
  185.5800  178.4270  145.8950 C   0  0  0  0  0  3  0  0  0  0  0  0
  189.6070  176.7090  145.4380 C   0  0  0  0  0  0  0  0  0  0  0  0
  181.4110  179.3980  139.7810 C   0  0  0  0  0  0  0  0  0  0  0  0
  182.7570  179.3720  139.8160 N   0  0  0  0  0  0  0  0  0  0  0  0
  182.0530  178.6720  141.7740 N   0  0  0  0  0  0  0  0  0  0  0  0
  180.9620  178.9480  141.0340 C   0  0  0  0  0  0  0  0  0  0  0  0
  183.1030  178.9300  141.0140 N   0  0  0  0  0  0  0  0  0  0  0  0
  180.6960  179.9520  138.5720 C   0  0  0  0  0  3  0  0  0  0  0  0
  180.0670  181.3000  138.8390 C   0  0  0  0  0  2  0  0  0  0  0  0
  181.3340  181.2020  138.0060 C   0  0  0  0  0  2  0  0  0  0  0  0
  178.9340  179.8750  142.2990 C   0  0  0  0  0  1  0  0  0  0  0  0
  179.5970  178.7600  141.5670 C   0  0  0  0  0  0  0  0  0  0  0  0
  178.9960  177.6600  141.4760 O   0  0  0  0  0  0  0  0  0  0  0  0
  192.0330  177.1720  147.9690 N   0  0  0  0  0  0  0  0  0  0  0  0
  191.0000  177.1230  147.4510 C   0  0  0  0  0  0  0  0  0  0  0  0
  189.1580  177.6630  139.4950 C   0  0  0  0  0  2  0  0  0  0  0  0
  188.7790  177.1080  137.1120 C   0  0  1  0  0  3  0  0  0  0  0  0
  187.7040  177.5220  136.1260 C   0  0  0  0  0  2  0  0  0  0  0  0
  187.7730  178.1550  137.5010 C   0  0  1  0  0  3  0  0  0  0  0  0
  188.1710  177.0850  138.5010 C   0  0  2  0  0  3  0  0  0  0  0  0
  2 14  1  0  0  0  0
  3  5  1  0  0  0  0
  3 22  1  0  0  0  0
  5  9  1  0  0  0  0
  6  3  1  0  0  0  0
  7  2  1  0  0  0  0
  8  2  2  0  0  0  0
  9  4  1  0  0  0  0
  9 10  2  0  0  0  0
 10  1  1  0  0  0  0
 11 19  2  0  0  0  0
 11 12  1  0  0  0  0
 12  7  2  0  0  0  0
 13 36  1  6  0  0  0
 13 18  1  0  0  0  0
 13 15  1  0  0  0  0
 14  5  2  0  0  0  0
 14 21  1  0  0  0  0
 15 17  1  0  0  0  0
 16 22  1  0  0  0  0
 17  6  2  0  0  0  0
 17 16  1  0  0  0  0
 18 19  1  6  0  0  0
 18  8  1  0  0  0  0
 19  8  1  0  0  0  0
 20 35  1  0  0  0  0
 20 10  1  0  0  0  0
 21  4  2  0  0  0  0
 22 20  2  0  0  0  0
 23 24  2  0  0  0  0
 23 26  1  0  0  0  0
 24 27  1  0  0  0  0
 26 32  1  0  0  0  0
 26 25  2  0  0  0  0
 27 12  1  0  0  0  0
 27 25  1  0  0  0  0
 28 29  1  0  0  0  0
 28 23  1  0  0  0  0
 30 28  1  0  0  0  0
 30 29  1  0  0  0  0
 32 31  1  0  0  0  0
 33 32  2  0  0  0  0
 35 34  3  0  0  0  0
 37 38  1  6  0  0  0
 37 39  1  0  0  0  0
 37 40  1  0  0  0  0
 39 38  1  6  0  0  0
 39 40  1  0  0  0  0
 40 36  1  1  0  0  0
M  END
>  <MODEL>
1

>  <REMARK>
 VINA RESULT:     -10.3      0.000      0.000
  Name = 
  6 active torsions:
  status: ('A' for Active; 'I' for Inactive)
    1  A    between atoms: C_5  and  C_15
    2  A    between atoms: C_17  and  C_22
    3  A    between atoms: C_17  and  C_27
    4  A    between atoms: C_19  and  C_28
    5  A    between atoms: C_24  and  N_38
    6  A    between atoms: C_26  and  C_37
                            x       y       z     vdW  Elec       q    Type
                         _______ _______ _______ _____ _____    ______ ____

>  <TORSDO>
F 6

$$$$
=
 OpenBabel11042413023D

 40 49  0  0  1  0  0  0  0  0999 V2000
  188.5760  178.0520  148.6590 O   0  0  0  0  0  1  0  0  0  0  0  0
  186.1570  178.1180  143.1550 C   0  0  0  0  0  0  0  0  0  0  0  0
  188.4350  176.6180  144.7180 N   0  0  0  0  0  0  0  0  0  0  0  0
  186.3020  178.4400  146.8290 N   0  0  0  0  0  0  0  0  0  0  0  0
  187.3410  177.1810  145.2580 C   0  0  0  0  0  0  0  0  0  0  0  0
  188.5090  176.3310  143.4370 N   0  0  0  0  0  0  0  0  0  0  0  0
  184.8840  178.3810  142.5440 C   0  0  0  0  0  3  0  0  0  0  0  0
  187.1630  178.2990  142.2270 C   0  0  0  0  0  0  0  0  0  0  0  0
  187.3510  177.6270  146.6110 C   0  0  0  0  0  0  0  0  0  0  0  0
  188.5360  177.5600  147.3580 C   0  0  0  0  0  0  0  0  0  0  0  0
  185.7890  178.9000  140.2060 C   0  0  0  0  0  3  0  0  0  0  0  0
  184.6920  178.7410  141.1320 C   0  0  0  0  0  0  0  0  0  0  0  0
  188.8790  177.1370  140.8020 C   0  0  1  0  0  3  0  0  0  0  0  0
  186.3210  177.8570  144.6160 C   0  0  0  0  0  0  0  0  0  0  0  0
  190.0050  176.6700  141.6290 N   0  0  0  0  0  2  0  0  0  0  0  0
  190.8770  176.4440  144.2450 S   0  0  0  0  0  0  0  0  0  0  0  0
  189.7590  176.2690  142.9740 C   0  0  0  0  0  0  0  0  0  0  0  0
  188.2730  178.4610  141.3520 C   0  0  1  0  0  3  0  0  0  0  0  0
  186.9760  178.6720  140.8310 C   0  0  0  0  0  0  0  0  0  0  0  0
  189.7070  177.0630  146.7220 C   0  0  0  0  0  0  0  0  0  0  0  0
  185.6720  178.5740  145.6280 C   0  0  0  0  0  3  0  0  0  0  0  0
  189.6210  176.6470  145.3700 C   0  0  0  0  0  0  0  0  0  0  0  0
  181.2140  179.0840  140.6230 C   0  0  0  0  0  0  0  0  0  0  0  0
  182.2730  178.8020  141.4050 N   0  0  0  0  0  0  0  0  0  0  0  0
  183.0600  179.3110  139.4190 N   0  0  0  0  0  0  0  0  0  0  0  0
  181.7190  179.4110  139.3540 C   0  0  0  0  0  0  0  0  0  0  0  0
  183.3550  178.9530  140.6570 N   0  0  0  0  0  0  0  0  0  0  0  0
  179.8120  178.9090  141.1580 C   0  0  0  0  0  3  0  0  0  0  0  0
  179.3230  177.4830  141.0430 C   0  0  0  0  0  2  0  0  0  0  0  0
  179.7350  178.0420  142.3940 C   0  0  0  0  0  2  0  0  0  0  0  0
  181.4090  179.1610  136.8210 C   0  0  0  0  0  1  0  0  0  0  0  0
  181.0310  179.8090  138.1080 C   0  0  0  0  0  0  0  0  0  0  0  0
  180.1750  180.7280  138.0890 O   0  0  0  0  0  0  0  0  0  0  0  0
  191.9980  177.1180  147.9470 N   0  0  0  0  0  0  0  0  0  0  0  0
  190.9780  177.0940  147.4020 C   0  0  0  0  0  0  0  0  0  0  0  0
  189.3800  177.3280  139.3780 C   0  0  0  0  0  2  0  0  0  0  0  0
  191.1690  176.7990  137.7500 C   0  0  1  0  0  3  0  0  0  0  0  0
  191.6570  175.4910  137.1590 C   0  0  0  0  0  2  0  0  0  0  0  0
  190.4170  175.5280  138.0290 C   0  0  1  0  0  3  0  0  0  0  0  0
  190.6470  176.5270  139.1470 C   0  0  2  0  0  3  0  0  0  0  0  0
  2 14  1  0  0  0  0
  3  5  1  0  0  0  0
  3 22  1  0  0  0  0
  5  9  1  0  0  0  0
  6  3  1  0  0  0  0
  7  2  1  0  0  0  0
  8  2  2  0  0  0  0
  9  4  1  0  0  0  0
  9 10  2  0  0  0  0
 10  1  1  0  0  0  0
 11 19  2  0  0  0  0
 11 12  1  0  0  0  0
 12  7  2  0  0  0  0
 13 36  1  6  0  0  0
 13 18  1  0  0  0  0
 13 15  1  0  0  0  0
 14  5  2  0  0  0  0
 14 21  1  0  0  0  0
 15 17  1  0  0  0  0
 16 22  1  0  0  0  0
 17  6  2  0  0  0  0
 17 16  1  0  0  0  0
 18 19  1  6  0  0  0
 18  8  1  0  0  0  0
 19  8  1  0  0  0  0
 20 10  1  0  0  0  0
 20 35  1  0  0  0  0
 21  4  2  0  0  0  0
 22 20  2  0  0  0  0
 23 28  1  0  0  0  0
 23 24  2  0  0  0  0
 25 27  1  0  0  0  0
 26 25  2  0  0  0  0
 26 23  1  0  0  0  0
 27 12  1  0  0  0  0
 27 24  1  0  0  0  0
 28 30  1  0  0  0  0
 29 28  1  0  0  0  0
 29 30  1  0  0  0  0
 31 32  1  0  0  0  0
 32 26  1  0  0  0  0
 33 32  2  0  0  0  0
 35 34  3  0  0  0  0
 37 38  1  1  0  0  0
 37 39  1  0  0  0  0
 37 40  1  0  0  0  0
 39 38  1  1  0  0  0
 39 40  1  0  0  0  0
 40 36  1  6  0  0  0
M  END
>  <MODEL>
2

>  <REMARK>
 VINA RESULT:     -10.0      1.251      2.230
  Name = 
  6 active torsions:
  status: ('A' for Active; 'I' for Inactive)
    1  A    between atoms: C_5  and  C_15
    2  A    between atoms: C_17  and  C_22
    3  A    between atoms: C_17  and  C_27
    4  A    between atoms: C_19  and  C_28
    5  A    between atoms: C_24  and  N_38
    6  A    between atoms: C_26  and  C_37
                            x       y       z     vdW  Elec       q    Type
                         _______ _______ _______ _____ _____    ______ ____

>  <TORSDO>
F 6

$$$$
=
 OpenBabel11042413023D

 40 49  0  0  1  0  0  0  0  0999 V2000
  185.9190  179.1150  148.0800 O   0  0  0  0  0  1  0  0  0  0  0  0
  185.5120  178.3270  142.1340 C   0  0  0  0  0  0  0  0  0  0  0  0
  187.1410  177.1780  144.5640 N   0  0  0  0  0  0  0  0  0  0  0  0
  184.3970  179.1300  145.5590 N   0  0  0  0  0  0  0  0  0  0  0  0
  185.9230  177.7410  144.6210 C   0  0  0  0  0  0  0  0  0  0  0  0
  187.6490  176.7330  143.4360 N   0  0  0  0  0  0  0  0  0  0  0  0
  184.5200  178.4340  141.1010 C   0  0  0  0  0  3  0  0  0  0  0  0
  186.7710  178.4460  141.5800 C   0  0  0  0  0  0  0  0  0  0  0  0
  185.4670  178.3590  145.8230 C   0  0  0  0  0  0  0  0  0  0  0  0
  186.3280  178.4580  146.9240 C   0  0  0  0  0  0  0  0  0  0  0  0
  186.1590  178.6990  139.1520 C   0  0  0  0  0  3  0  0  0  0  0  0
  184.8140  178.5970  139.6700 C   0  0  0  0  0  0  0  0  0  0  0  0
  188.8830  177.2130  140.9910 C   0  0  1  0  0  3  0  0  0  0  0  0
  185.1730  178.2680  143.5860 C   0  0  0  0  0  0  0  0  0  0  0  0
  189.6660  176.9240  142.2040 N   0  0  0  0  0  2  0  0  0  0  0  0
  189.6010  177.0880  144.9650 S   0  0  0  0  0  0  0  0  0  0  0  0
  188.9830  176.6860  143.4320 C   0  0  0  0  0  0  0  0  0  0  0  0
  188.1100  178.5580  141.1130 C   0  0  1  0  0  3  0  0  0  0  0  0
  187.0650  178.6230  140.1640 C   0  0  0  0  0  0  0  0  0  0  0  0
  187.6520  177.9530  146.7940 C   0  0  0  0  0  0  0  0  0  0  0  0
  184.2110  179.0700  144.2100 C   0  0  0  0  0  3  0  0  0  0  0  0
  188.0350  177.3610  145.5650 C   0  0  0  0  0  0  0  0  0  0  0  0
  181.9250  179.3410  137.7810 C   0  0  0  0  0  0  0  0  0  0  0  0
  182.7780  179.6000  138.7890 N   0  0  0  0  0  0  0  0  0  0  0  0
  183.5170  177.7990  137.7720 N   0  0  0  0  0  0  0  0  0  0  0  0
  182.4000  178.1900  137.1300 C   0  0  0  0  0  0  0  0  0  0  0  0
  183.7160  178.6670  138.7500 N   0  0  0  0  0  0  0  0  0  0  0  0
  180.6780  180.1760  137.6120 C   0  0  0  0  0  3  0  0  0  0  0  0
  180.9450  181.6550  137.7780 C   0  0  0  0  0  2  0  0  0  0  0  0
  180.7060  181.0730  136.3940 C   0  0  0  0  0  2  0  0  0  0  0  0
  182.0660  178.0140  134.5940 C   0  0  0  0  0  1  0  0  0  0  0  0
  181.8800  177.4510  135.9600 C   0  0  0  0  0  0  0  0  0  0  0  0
  181.2260  176.3860  136.0870 O   0  0  0  0  0  0  0  0  0  0  0  0
  189.3900  178.3010  148.6940 N   0  0  0  0  0  0  0  0  0  0  0  0
  188.6160  178.1460  147.8480 C   0  0  0  0  0  0  0  0  0  0  0  0
  189.8350  177.2470  139.8050 C   0  0  0  0  0  2  0  0  0  0  0  0
  190.2490  176.3250  137.5450 C   0  0  1  0  0  3  0  0  0  0  0  0
  189.6970  176.6840  136.1790 C   0  0  0  0  0  2  0  0  0  0  0  0
  189.3770  177.5390  137.3880 C   0  0  1  0  0  3  0  0  0  0  0  0
  189.1870  176.6250  138.5840 C   0  0  2  0  0  3  0  0  0  0  0  0
  2 14  1  0  0  0  0
  3  5  1  0  0  0  0
  3 22  1  0  0  0  0
  4  9  1  0  0  0  0
  5  9  1  0  0  0  0
  6  3  1  0  0  0  0
  7  2  2  0  0  0  0
  8  2  1  0  0  0  0
  9 10  2  0  0  0  0
 10  1  1  0  0  0  0
 11 12  2  0  0  0  0
 11 19  1  0  0  0  0
 12  7  1  0  0  0  0
 13 36  1  6  0  0  0
 13 18  1  0  0  0  0
 13 15  1  0  0  0  0
 14 21  1  0  0  0  0
 14  5  2  0  0  0  0
 15 17  1  0  0  0  0
 16 22  1  0  0  0  0
 17  6  2  0  0  0  0
 17 16  1  0  0  0  0
 18 19  1  6  0  0  0
 18  8  1  0  0  0  0
 19  8  2  0  0  0  0
 20 10  1  0  0  0  0
 20 35  1  0  0  0  0
 21  4  2  0  0  0  0
 22 20  2  0  0  0  0
 23 24  2  0  0  0  0
 25 27  1  0  0  0  0
 26 25  2  0  0  0  0
 26 23  1  0  0  0  0
 27 24  1  0  0  0  0
 27 12  1  0  0  0  0
 28 29  1  0  0  0  0
 28 23  1  0  0  0  0
 30 28  1  0  0  0  0
 30 29  1  0  0  0  0
 31 32  1  0  0  0  0
 32 33  2  0  0  0  0
 32 26  1  0  0  0  0
 35 34  3  0  0  0  0
 37 38  1  6  0  0  0
 37 40  1  0  0  0  0
 39 38  1  6  0  0  0
 39 37  1  0  0  0  0
 39 40  1  0  0  0  0
 40 36  1  1  0  0  0
M  END
>  <MODEL>
3

>  <REMARK>
 VINA RESULT:      -9.0      2.095      2.706
  Name = 
  6 active torsions:
  status: ('A' for Active; 'I' for Inactive)
    1  A    between atoms: C_5  and  C_15
    2  A    between atoms: C_17  and  C_22
    3  A    between atoms: C_17  and  C_27
    4  A    between atoms: C_19  and  C_28
    5  A    between atoms: C_24  and  N_38
    6  A    between atoms: C_26  and  C_37
                            x       y       z     vdW  Elec       q    Type
                         _______ _______ _______ _____ _____    ______ ____

>  <TORSDO>
F 6

$$$$
=
 OpenBabel11042413023D

 40 49  0  0  1  0  0  0  0  0999 V2000
  185.9730  178.9480  148.1590 O   0  0  0  0  0  1  0  0  0  0  0  0
  185.3940  178.3700  142.2020 C   0  0  0  0  0  0  0  0  0  0  0  0
  187.1040  177.1490  144.5400 N   0  0  0  0  0  0  0  0  0  0  0  0
  184.3770  179.0400  145.6870 N   0  0  0  0  0  0  0  0  0  0  0  0
  185.8840  177.6990  144.6540 C   0  0  0  0  0  0  0  0  0  0  0  0
  187.5810  176.7490  143.3820 N   0  0  0  0  0  0  0  0  0  0  0  0
  184.3700  178.5060  141.2040 C   0  0  0  0  0  3  0  0  0  0  0  0
  186.6350  178.5200  141.6160 C   0  0  0  0  0  0  0  0  0  0  0  0
  185.4600  178.2690  145.8900 C   0  0  0  0  0  0  0  0  0  0  0  0
  186.3530  178.3360  146.9680 C   0  0  0  0  0  0  0  0  0  0  0  0
  185.9470  178.8550  139.2180 C   0  0  0  0  0  3  0  0  0  0  0  0
  184.6190  178.7220  139.7720 C   0  0  0  0  0  0  0  0  0  0  0  0
  188.7370  177.3270  140.9200 C   0  0  1  0  0  3  0  0  0  0  0  0
  185.0990  178.2560  143.6610 C   0  0  0  0  0  0  0  0  0  0  0  0
  189.5580  177.0010  142.0980 N   0  0  0  0  0  2  0  0  0  0  0  0
  189.5750  177.0660  144.8640 S   0  0  0  0  0  0  0  0  0  0  0  0
  188.9150  176.7130  143.3360 C   0  0  0  0  0  0  0  0  0  0  0  0
  187.9580  178.6600  141.1140 C   0  0  1  0  0  3  0  0  0  0  0  0
  186.8840  178.7500  140.1990 C   0  0  0  0  0  0  0  0  0  0  0  0
  187.6750  177.8470  146.7800 C   0  0  0  0  0  0  0  0  0  0  0  0
  184.1500  179.0270  144.3420 C   0  0  0  0  0  3  0  0  0  0  0  0
  188.0260  177.3040  145.5200 C   0  0  0  0  0  0  0  0  0  0  0  0
  182.1410  178.3890  137.2780 C   0  0  0  0  0  0  0  0  0  0  0  0
  183.2840  177.9940  137.8720 N   0  0  0  0  0  0  0  0  0  0  0  0
  182.5500  179.7370  138.9900 N   0  0  0  0  0  0  0  0  0  0  0  0
  181.6730  179.5020  137.9960 C   0  0  0  0  0  0  0  0  0  0  0  0
  183.4940  178.8150  138.8880 N   0  0  0  0  0  0  0  0  0  0  0  0
  181.6720  177.7090  136.0140 C   0  0  0  0  0  3  0  0  0  0  0  0
  182.2240  176.3090  135.8710 C   0  0  0  0  0  2  0  0  0  0  0  0
  180.7710  176.5190  136.2600 C   0  0  0  0  0  2  0  0  0  0  0  0
  180.4950  181.4530  136.8220 C   0  0  0  0  0  1  0  0  0  0  0  0
  180.4700  180.3400  137.8110 C   0  0  0  0  0  0  0  0  0  0  0  0
  179.4390  180.1830  138.5120 O   0  0  0  0  0  0  0  0  0  0  0  0
  189.4670  178.1420  148.6390 N   0  0  0  0  0  0  0  0  0  0  0  0
  188.6700  178.0110  147.8110 C   0  0  0  0  0  0  0  0  0  0  0  0
  189.6520  177.4120  139.7080 C   0  0  0  0  0  2  0  0  0  0  0  0
  189.9490  176.8140  137.3240 C   0  0  1  0  0  3  0  0  0  0  0  0
  189.1930  177.2100  136.0710 C   0  0  0  0  0  2  0  0  0  0  0  0
  188.8790  177.8670  137.3990 C   0  0  1  0  0  3  0  0  0  0  0  0
  188.9780  176.8150  138.4880 C   0  0  2  0  0  3  0  0  0  0  0  0
  2 14  1  0  0  0  0
  3  5  1  0  0  0  0
  3 22  1  0  0  0  0
  4  9  1  0  0  0  0
  5  9  1  0  0  0  0
  6  3  1  0  0  0  0
  7  2  2  0  0  0  0
  8  2  1  0  0  0  0
  9 10  2  0  0  0  0
 10  1  1  0  0  0  0
 11 12  2  0  0  0  0
 11 19  1  0  0  0  0
 12  7  1  0  0  0  0
 13 36  1  6  0  0  0
 13 18  1  0  0  0  0
 13 15  1  0  0  0  0
 14 21  1  0  0  0  0
 14  5  2  0  0  0  0
 15 17  1  0  0  0  0
 16 22  1  0  0  0  0
 17  6  2  0  0  0  0
 17 16  1  0  0  0  0
 18 19  1  6  0  0  0
 18  8  1  0  0  0  0
 19  8  2  0  0  0  0
 20 10  1  0  0  0  0
 20 35  1  0  0  0  0
 21  4  2  0  0  0  0
 22 20  2  0  0  0  0
 23 24  2  0  0  0  0
 23 26  1  0  0  0  0
 24 27  1  0  0  0  0
 26 25  2  0  0  0  0
 27 25  1  0  0  0  0
 27 12  1  0  0  0  0
 28 30  1  0  0  0  0
 28 23  1  0  0  0  0
 29 28  1  0  0  0  0
 29 30  1  0  0  0  0
 31 32  1  0  0  0  0
 32 26  1  0  0  0  0
 32 33  2  0  0  0  0
 35 34  3  0  0  0  0
 37 38  1  6  0  0  0
 37 39  1  0  0  0  0
 37 40  1  0  0  0  0
 39 38  1  6  0  0  0
 39 40  1  0  0  0  0
 40 36  1  1  0  0  0
M  END
>  <MODEL>
4

>  <REMARK>
 VINA RESULT:      -8.6      1.871      2.562
  Name = 
  6 active torsions:
  status: ('A' for Active; 'I' for Inactive)
    1  A    between atoms: C_5  and  C_15
    2  A    between atoms: C_17  and  C_22
    3  A    between atoms: C_17  and  C_27
    4  A    between atoms: C_19  and  C_28
    5  A    between atoms: C_24  and  N_38
    6  A    between atoms: C_26  and  C_37
                            x       y       z     vdW  Elec       q    Type
                         _______ _______ _______ _____ _____    ______ ____

>  <TORSDO>
F 6

$$$$
=
 OpenBabel11042413023D

 40 49  0  0  1  0  0  0  0  0999 V2000
  193.9270  177.3620  139.8200 O   0  0  0  0  0  1  0  0  0  0  0  0
  187.9350  177.7440  140.1360 C   0  0  0  0  0  0  0  0  0  0  0  0
  190.1220  176.1890  138.4980 N   0  0  0  0  0  0  0  0  0  0  0  0
  191.4330  177.8260  141.3140 N   0  0  0  0  0  0  0  0  0  0  0  0
  190.2670  176.6940  139.7340 C   0  0  0  0  0  0  0  0  0  0  0  0
  188.9370  175.9890  137.9640 N   0  0  0  0  0  0  0  0  0  0  0  0
  186.9270  178.0220  141.1210 C   0  0  0  0  0  3  0  0  0  0  0  0
  187.4370  178.0060  138.8760 C   0  0  0  0  0  0  0  0  0  0  0  0
  191.5580  177.0500  140.2230 C   0  0  0  0  0  0  0  0  0  0  0  0
  192.6720  176.9570  139.3770 C   0  0  0  0  0  0  0  0  0  0  0  0
  185.0950  178.7130  139.4700 C   0  0  0  0  0  3  0  0  0  0  0  0
  185.5610  178.4710  140.8170 C   0  0  0  0  0  0  0  0  0  0  0  0
  186.6540  176.9750  136.7190 C   0  0  1  0  0  3  0  0  0  0  0  0
  189.3430  177.3910  140.4890 C   0  0  0  0  0  0  0  0  0  0  0  0
  187.8010  176.4770  135.9410 N   0  0  0  0  0  2  0  0  0  0  0  0
  190.5390  176.0950  136.0410 S   0  0  0  0  0  0  0  0  0  0  0  0
  188.9460  175.9830  136.6290 C   0  0  0  0  0  0  0  0  0  0  0  0
  187.0240  178.2480  137.5360 C   0  0  1  0  0  3  0  0  0  0  0  0
  186.0880  178.4670  138.5730 C   0  0  0  0  0  0  0  0  0  0  0  0
  192.4680  176.5260  138.0370 C   0  0  0  0  0  0  0  0  0  0  0  0
  190.0950  178.0270  141.4840 C   0  0  0  0  0  3  0  0  0  0  0  0
  191.1540  176.1990  137.6210 C   0  0  0  0  0  0  0  0  0  0  0  0
  183.9120  178.9670  143.9000 C   0  0  0  0  0  0  0  0  0  0  0  0
  185.0270  178.7600  143.1740 N   0  0  0  0  0  0  0  0  0  0  0  0
  183.3470  178.8260  141.7620 N   0  0  0  0  0  0  0  0  0  0  0  0
  182.8390  179.0100  142.9950 C   0  0  0  0  0  0  0  0  0  0  0  0
  184.6540  178.6870  141.9070 N   0  0  0  0  0  0  0  0  0  0  0  0
  183.9870  179.0000  145.4080 C   0  0  0  0  0  3  0  0  0  0  0  0
  184.8980  177.9300  145.9660 C   0  0  0  0  0  2  0  0  0  0  0  0
  185.3500  179.3800  145.9420 C   0  0  0  0  0  2  0  0  0  0  0  0
  180.6270  178.2390  144.0380 C   0  0  0  0  0  1  0  0  0  0  0  0
  181.3920  179.2160  143.2140 C   0  0  0  0  0  0  0  0  0  0  0  0
  180.7670  180.1610  142.6710 O   0  0  0  0  0  0  0  0  0  0  0  0
  194.4280  176.5460  136.3320 N   0  0  0  0  0  0  0  0  0  0  0  0
  193.5560  176.5370  137.0910 C   0  0  0  0  0  0  0  0  0  0  0  0
  185.5140  177.2700  135.7560 C   0  0  0  0  0  2  0  0  0  0  0  0
  184.4690  175.4190  137.0280 C   0  0  1  0  0  3  0  0  0  0  0  0
  183.3590  174.4450  136.6850 C   0  0  0  0  0  2  0  0  0  0  0  0
  183.9090  175.3870  135.6330 C   0  0  1  0  0  3  0  0  0  0  0  0
  184.2070  176.7200  136.2940 C   0  0  2  0  0  3  0  0  0  0  0  0
  2 14  1  0  0  0  0
  2  7  1  0  0  0  0
  3  5  1  0  0  0  0
  4 21  2  0  0  0  0
  5  9  1  0  0  0  0
  5 14  2  0  0  0  0
  6  3  1  0  0  0  0
  8  2  2  0  0  0  0
  9  4  1  0  0  0  0
 10  1  1  0  0  0  0
 10  9  2  0  0  0  0
 11 12  1  0  0  0  0
 12  7  2  0  0  0  0
 12 27  1  0  0  0  0
 13 36  1  6  0  0  0
 13 18  1  0  0  0  0
 14 21  1  0  0  0  0
 15 17  1  0  0  0  0
 15 13  1  0  0  0  0
 16 17  1  0  0  0  0
 16 22  1  0  0  0  0
 17  6  2  0  0  0  0
 18 19  1  1  0  0  0
 18  8  1  0  0  0  0
 19  8  1  0  0  0  0
 19 11  2  0  0  0  0
 20 10  1  0  0  0  0
 22 20  2  0  0  0  0
 22  3  1  0  0  0  0
 23 28  1  0  0  0  0
 24 23  2  0  0  0  0
 25 27  1  0  0  0  0
 25 26  2  0  0  0  0
 26 32  1  0  0  0  0
 26 23  1  0  0  0  0
 27 24  1  0  0  0  0
 28 30  1  0  0  0  0
 28 29  1  0  0  0  0
 30 29  1  0  0  0  0
 32 31  1  0  0  0  0
 33 32  2  0  0  0  0
 34 35  3  0  0  0  0
 35 20  1  0  0  0  0
 37 38  1  1  0  0  0
 39 40  1  0  0  0  0
 39 38  1  1  0  0  0
 39 37  1  0  0  0  0
 40 36  1  6  0  0  0
 40 37  1  0  0  0  0
M  END
>  <MODEL>
5

>  <REMARK>
 VINA RESULT:      -7.8      3.633      6.252
  Name = 
  6 active torsions:
  status: ('A' for Active; 'I' for Inactive)
    1  A    between atoms: C_5  and  C_15
    2  A    between atoms: C_17  and  C_22
    3  A    between atoms: C_17  and  C_27
    4  A    between atoms: C_19  and  C_28
    5  A    between atoms: C_24  and  N_38
    6  A    between atoms: C_26  and  C_37
                            x       y       z     vdW  Elec       q    Type
                         _______ _______ _______ _____ _____    ______ ____

>  <TORSDO>
F 6

$$$$
=
 OpenBabel11042413023D

 40 49  0  0  1  0  0  0  0  0999 V2000
  187.6610  177.3880  145.1130 O   0  0  0  0  0  1  0  0  0  0  0  0
  190.1280  176.8430  139.6570 C   0  0  0  0  0  0  0  0  0  0  0  0
  187.8530  178.4910  141.0680 N   0  0  0  0  0  0  0  0  0  0  0  0
  189.9460  176.8260  143.3440 N   0  0  0  0  0  0  0  0  0  0  0  0
  188.9350  177.9620  141.6630 C   0  0  0  0  0  0  0  0  0  0  0  0
  187.7950  178.6720  139.7680 N   0  0  0  0  0  0  0  0  0  0  0  0
  191.4030  176.5160  139.0820 C   0  0  0  0  0  3  0  0  0  0  0  0
  189.1290  176.5960  138.7370 C   0  0  0  0  0  0  0  0  0  0  0  0
  188.9090  177.6290  143.0490 C   0  0  0  0  0  0  0  0  0  0  0  0
  187.7180  177.7710  143.7760 C   0  0  0  0  0  0  0  0  0  0  0  0
  190.5140  175.8150  136.7860 C   0  0  0  0  0  3  0  0  0  0  0  0
  191.6040  176.0380  137.7070 C   0  0  0  0  0  0  0  0  0  0  0  0
  187.4380  177.6550  137.2040 C   0  0  1  0  0  3  0  0  0  0  0  0
  189.9540  177.2240  141.0900 C   0  0  0  0  0  0  0  0  0  0  0  0
  186.3110  178.2000  137.9790 N   0  0  0  0  0  2  0  0  0  0  0  0
  185.4180  178.6510  140.5580 S   0  0  0  0  0  0  0  0  0  0  0  0
  186.5490  178.7080  139.2880 C   0  0  0  0  0  0  0  0  0  0  0  0
  188.0250  176.3740  137.8680 C   0  0  1  0  0  3  0  0  0  0  0  0
  189.3240  176.1070  137.3780 C   0  0  0  0  0  0  0  0  0  0  0  0
  186.5590  178.2260  143.0900 C   0  0  0  0  0  0  0  0  0  0  0  0
  190.5860  176.5860  142.1630 C   0  0  0  0  0  3  0  0  0  0  0  0
  186.6610  178.5280  141.7090 C   0  0  0  0  0  0  0  0  0  0  0  0
  194.7160  175.7830  136.0570 C   0  0  0  0  0  0  0  0  0  0  0  0
  193.4490  176.2340  136.1320 N   0  0  0  0  0  0  0  0  0  0  0  0
  193.8090  175.0340  137.9360 N   0  0  0  0  0  0  0  0  0  0  0  0
  194.9450  175.0170  137.2120 C   0  0  0  0  0  0  0  0  0  0  0  0
  192.9430  175.7740  137.2640 N   0  0  0  0  0  0  0  0  0  0  0  0
  195.5440  176.0560  134.8240 C   0  0  0  0  0  3  0  0  0  0  0  0
  195.7790  177.5320  134.5990 C   0  0  0  0  0  2  0  0  0  0  0  0
  196.9020  176.6510  135.1210 C   0  0  0  0  0  2  0  0  0  0  0  0
  196.1950  172.8040  137.5500 C   0  0  0  0  0  1  0  0  0  0  0  0
  196.1450  174.2880  137.6720 C   0  0  0  0  0  0  0  0  0  0  0  0
  197.1070  174.8780  138.2250 O   0  0  0  0  0  0  0  0  0  0  0  0
  184.2560  178.2960  144.2910 N   0  0  0  0  0  0  0  0  0  0  0  0
  185.2810  178.2650  143.7570 C   0  0  0  0  0  0  0  0  0  0  0  0
  186.9490  177.3530  135.7960 C   0  0  0  0  0  2  0  0  0  0  0  0
  185.3180  175.4940  135.9360 C   0  0  1  0  0  3  0  0  0  0  0  0
  184.1940  175.0520  135.0200 C   0  0  0  0  0  2  0  0  0  0  0  0
  185.1480  176.1500  134.5940 C   0  0  1  0  0  3  0  0  0  0  0  0
  185.4750  176.9970  135.8100 C   0  0  2  0  0  3  0  0  0  0  0  0
  2 14  1  0  0  0  0
  3  5  1  0  0  0  0
  3 22  1  0  0  0  0
  5  9  1  0  0  0  0
  6  3  1  0  0  0  0
  7  2  1  0  0  0  0
  8  2  2  0  0  0  0
  9  4  1  0  0  0  0
  9 10  2  0  0  0  0
 10  1  1  0  0  0  0
 11 19  2  0  0  0  0
 11 12  1  0  0  0  0
 12  7  2  0  0  0  0
 13 36  1  6  0  0  0
 13 18  1  0  0  0  0
 13 15  1  0  0  0  0
 14  5  2  0  0  0  0
 14 21  1  0  0  0  0
 15 17  1  0  0  0  0
 16 22  1  0  0  0  0
 17  6  2  0  0  0  0
 17 16  1  0  0  0  0
 18 19  1  6  0  0  0
 18  8  1  0  0  0  0
 19  8  1  0  0  0  0
 20 35  1  0  0  0  0
 20 10  1  0  0  0  0
 21  4  2  0  0  0  0
 22 20  2  0  0  0  0
 23 24  2  0  0  0  0
 23 26  1  0  0  0  0
 24 27  1  0  0  0  0
 26 32  1  0  0  0  0
 26 25  2  0  0  0  0
 27 12  1  0  0  0  0
 27 25  1  0  0  0  0
 28 30  1  0  0  0  0
 28 23  1  0  0  0  0
 29 28  1  0  0  0  0
 29 30  1  0  0  0  0
 31 32  1  0  0  0  0
 32 33  2  0  0  0  0
 35 34  3  0  0  0  0
 37 38  1  1  0  0  0
 39 38  1  1  0  0  0
 39 40  1  0  0  0  0
 39 37  1  0  0  0  0
 40 36  1  6  0  0  0
 40 37  1  0  0  0  0
M  END
>  <MODEL>
6

>  <REMARK>
 VINA RESULT:      -7.7      4.725      9.417
  Name = 
  6 active torsions:
  status: ('A' for Active; 'I' for Inactive)
    1  A    between atoms: C_5  and  C_15
    2  A    between atoms: C_17  and  C_22
    3  A    between atoms: C_17  and  C_27
    4  A    between atoms: C_19  and  C_28
    5  A    between atoms: C_24  and  N_38
    6  A    between atoms: C_26  and  C_37
                            x       y       z     vdW  Elec       q    Type
                         _______ _______ _______ _____ _____    ______ ____

>  <TORSDO>
F 6

$$$$
=
 OpenBabel11042413023D

 40 49  0  0  1  0  0  0  0  0999 V2000
  190.3700  176.2090  139.7540 O   0  0  0  0  0  1  0  0  0  0  0  0
  184.9850  178.8830  139.8110 C   0  0  0  0  0  0  0  0  0  0  0  0
  187.4250  178.4410  141.7430 N   0  0  0  0  0  0  0  0  0  0  0  0
  188.1520  177.6050  138.4110 N   0  0  0  0  0  0  0  0  0  0  0  0
  187.4680  178.4480  140.4000 C   0  0  0  0  0  0  0  0  0  0  0  0
  186.4160  178.9590  142.4080 N   0  0  0  0  0  0  0  0  0  0  0  0
  184.0930  179.5220  138.8840 C   0  0  0  0  0  3  0  0  0  0  0  0
  184.2710  178.4290  140.9020 C   0  0  0  0  0  0  0  0  0  0  0  0
  188.4910  177.7400  139.7060 C   0  0  0  0  0  0  0  0  0  0  0  0
  189.4060  176.9570  140.4240 C   0  0  0  0  0  0  0  0  0  0  0  0
  181.9640  179.2140  140.2730 C   0  0  0  0  0  3  0  0  0  0  0  0
  182.6500  179.7010  139.0980 C   0  0  0  0  0  0  0  0  0  0  0  0
  183.8040  178.7880  143.3470 C   0  0  1  0  0  3  0  0  0  0  0  0
  186.4250  178.6280  139.5110 C   0  0  0  0  0  0  0  0  0  0  0  0
  184.9450  178.3360  144.1610 N   0  0  0  0  0  2  0  0  0  0  0  0
  187.5330  177.3730  143.9930 S   0  0  0  0  0  0  0  0  0  0  0  0
  186.2630  178.4460  143.6320 C   0  0  0  0  0  0  0  0  0  0  0  0
  183.6330  177.9200  142.0660 C   0  0  1  0  0  3  0  0  0  0  0  0
  182.8380  178.5910  141.1090 C   0  0  0  0  0  0  0  0  0  0  0  0
  189.2650  176.8800  141.8370 C   0  0  0  0  0  0  0  0  0  0  0  0
  186.9080  178.1490  138.2880 C   0  0  0  0  0  3  0  0  0  0  0  0
  188.2160  177.6050  142.4560 C   0  0  0  0  0  0  0  0  0  0  0  0
  180.7900  180.7490  136.2850 C   0  0  0  0  0  0  0  0  0  0  0  0
  181.4600  179.8080  136.9770 N   0  0  0  0  0  0  0  0  0  0  0  0
  181.5420  181.6550  138.1620 N   0  0  0  0  0  0  0  0  0  0  0  0
  180.8420  181.9290  137.0450 C   0  0  0  0  0  0  0  0  0  0  0  0
  181.8880  180.3810  138.0900 N   0  0  0  0  0  0  0  0  0  0  0  0
  180.2540  180.4370  134.9080 C   0  0  0  0  0  3  0  0  0  0  0  0
  180.2360  178.9530  134.6170 C   0  0  0  0  0  2  0  0  0  0  0  0
  178.9410  179.6870  134.9210 C   0  0  0  0  0  2  0  0  0  0  0  0
  181.1770  184.3710  136.3370 C   0  0  0  0  0  1  0  0  0  0  0  0
  180.2800  183.2730  136.7930 C   0  0  0  0  0  0  0  0  0  0  0  0
  179.0720  183.5370  137.0130 O   0  0  0  0  0  0  0  0  0  0  0  0
  190.7620  175.2750  143.2280 N   0  0  0  0  0  0  0  0  0  0  0  0
  190.0960  175.9900  142.6090 C   0  0  0  0  0  0  0  0  0  0  0  0
  182.5500  178.7280  144.2060 C   0  0  0  0  0  2  0  0  0  0  0  0
  180.3170  179.6370  143.6420 C   0  0  1  0  0  3  0  0  0  0  0  0
  178.9310  179.0230  143.6640 C   0  0  0  0  0  2  0  0  0  0  0  0
  180.1170  178.2650  144.2240 C   0  0  1  0  0  3  0  0  0  0  0  0
  181.3200  178.5400  143.3410 C   0  0  2  0  0  3  0  0  0  0  0  0
  1 10  1  0  0  0  0
  2  8  1  0  0  0  0
  3  6  1  0  0  0  0
  3 22  1  0  0  0  0
  4  9  1  0  0  0  0
  5  3  1  0  0  0  0
  6 17  2  0  0  0  0
  7 12  1  0  0  0  0
  7  2  2  0  0  0  0
  8 19  2  0  0  0  0
  9  5  1  0  0  0  0
  9 10  2  0  0  0  0
 10 20  1  0  0  0  0
 11 19  1  0  0  0  0
 12 11  2  0  0  0  0
 13 15  1  0  0  0  0
 13 36  1  1  0  0  0
 14  2  1  0  0  0  0
 14  5  2  0  0  0  0
 17 16  1  0  0  0  0
 17 15  1  0  0  0  0
 18  8  1  6  0  0  0
 18 13  1  0  0  0  0
 19 18  1  0  0  0  0
 20 22  2  0  0  0  0
 20 35  1  0  0  0  0
 21  4  2  0  0  0  0
 21 14  1  0  0  0  0
 22 16  1  0  0  0  0
 23 24  2  0  0  0  0
 23 26  1  0  0  0  0
 24 27  1  0  0  0  0
 26 25  2  0  0  0  0
 27 25  1  0  0  0  0
 27 12  1  0  0  0  0
 28 30  1  0  0  0  0
 28 23  1  0  0  0  0
 29 28  1  0  0  0  0
 29 30  1  0  0  0  0
 31 32  1  0  0  0  0
 32 33  2  0  0  0  0
 32 26  1  0  0  0  0
 35 34  3  0  0  0  0
 37 38  1  6  0  0  0
 37 39  1  0  0  0  0
 39 38  1  6  0  0  0
 40 37  1  0  0  0  0
 40 36  1  1  0  0  0
 40 39  1  0  0  0  0
M  END
>  <MODEL>
7

>  <REMARK>
 VINA RESULT:      -7.7      3.121      6.102
  Name = 
  6 active torsions:
  status: ('A' for Active; 'I' for Inactive)
    1  A    between atoms: C_5  and  C_15
    2  A    between atoms: C_17  and  C_22
    3  A    between atoms: C_17  and  C_27
    4  A    between atoms: C_19  and  C_28
    5  A    between atoms: C_24  and  N_38
    6  A    between atoms: C_26  and  C_37
                            x       y       z     vdW  Elec       q    Type
                         _______ _______ _______ _____ _____    ______ ____

>  <TORSDO>
F 6

$$$$
=
 OpenBabel11042413023D

 40 49  0  0  1  0  0  0  0  0999 V2000
  182.3780  178.0070  139.3010 O   0  0  0  0  0  1  0  0  0  0  0  0
  187.6450  177.6440  142.1780 C   0  0  0  0  0  0  0  0  0  0  0  0
  186.5190  178.6730  139.4290 N   0  0  0  0  0  0  0  0  0  0  0  0
  183.9920  177.9700  141.7640 N   0  0  0  0  0  0  0  0  0  0  0  0
  185.8300  178.5620  140.5770 C   0  0  0  0  0  0  0  0  0  0  0  0
  187.8330  178.6870  139.4070 N   0  0  0  0  0  0  0  0  0  0  0  0
  188.1350  177.6560  143.5280 C   0  0  0  0  0  3  0  0  0  0  0  0
  188.5590  177.0100  141.3590 C   0  0  0  0  0  0  0  0  0  0  0  0
  184.4150  178.3880  140.5570 C   0  0  0  0  0  0  0  0  0  0  0  0
  183.7490  178.2420  139.3330 C   0  0  0  0  0  0  0  0  0  0  0  0
  190.3550  176.4770  143.0400 C   0  0  0  0  0  3  0  0  0  0  0  0
  189.4340  177.1160  143.9520 C   0  0  0  0  0  0  0  0  0  0  0  0
  190.2630  177.3400  139.5380 C   0  0  1  0  0  3  0  0  0  0  0  0
  186.2760  178.1080  141.8040 C   0  0  0  0  0  0  0  0  0  0  0  0
  189.5960  177.6010  138.2510 N   0  0  0  0  0  2  0  0  0  0  0  0
  187.1210  178.0380  137.0950 S   0  0  0  0  0  0  0  0  0  0  0  0
  188.3530  178.2950  138.2410 C   0  0  0  0  0  0  0  0  0  0  0  0
  189.4290  176.3740  140.4310 C   0  0  1  0  0  3  0  0  0  0  0  0
  189.8410  176.4600  141.7800 C   0  0  0  0  0  0  0  0  0  0  0  0
  184.5220  178.2510  138.1390 C   0  0  0  0  0  0  0  0  0  0  0  0
  185.1130  177.8090  142.5230 C   0  0  0  0  0  3  0  0  0  0  0  0
  185.9260  178.4190  138.2390 C   0  0  0  0  0  0  0  0  0  0  0  0
  189.6900  177.6630  147.4320 C   0  0  0  0  0  0  0  0  0  0  0  0
  189.0130  177.7320  146.2690 N   0  0  0  0  0  0  0  0  0  0  0  0
  190.9640  176.8260  145.8230 N   0  0  0  0  0  0  0  0  0  0  0  0
  190.9360  177.0810  147.1450 C   0  0  0  0  0  0  0  0  0  0  0  0
  189.7990  177.2200  145.3350 N   0  0  0  0  0  0  0  0  0  0  0  0
  189.0990  178.2610  148.6860 C   0  0  0  0  0  3  0  0  0  0  0  0
  187.7070  178.8090  148.4670 C   0  0  0  0  0  2  0  0  0  0  0  0
  187.9030  177.5030  149.2180 C   0  0  0  0  0  2  0  0  0  0  0  0
  192.7950  175.4590  147.8420 C   0  0  0  0  0  1  0  0  0  0  0  0
  192.0790  176.7530  148.0210 C   0  0  0  0  0  0  0  0  0  0  0  0
  192.4300  177.5080  148.9620 O   0  0  0  0  0  0  0  0  0  0  0  0
  183.4100  177.7540  135.8430 N   0  0  0  0  0  0  0  0  0  0  0  0
  183.9060  177.9750  136.8650 C   0  0  0  0  0  0  0  0  0  0  0  0
  191.6370  176.7540  139.2540 C   0  0  0  0  0  2  0  0  0  0  0  0
  192.1290  174.9140  137.6720 C   0  0  1  0  0  3  0  0  0  0  0  0
  193.1590  174.7640  136.5700 C   0  0  0  0  0  2  0  0  0  0  0  0
  193.1940  175.9610  137.4990 C   0  0  1  0  0  3  0  0  0  0  0  0
  191.7660  176.3810  137.7900 C   0  0  2  0  0  3  0  0  0  0  0  0
  1 10  1  0  0  0  0
  2  7  1  0  0  0  0
  3  5  1  0  0  0  0
  4 21  2  0  0  0  0
  5 14  2  0  0  0  0
  6  3  1  0  0  0  0
  7 12  2  0  0  0  0
  8 19  1  0  0  0  0
  8  2  2  0  0  0  0
  9  5  1  0  0  0  0
  9  4  1  0  0  0  0
 10  9  2  0  0  0  0
 11 12  1  0  0  0  0
 12 27  1  0  0  0  0
 13 36  1  6  0  0  0
 13 18  1  0  0  0  0
 14  2  1  0  0  0  0
 14 21  1  0  0  0  0
 15 13  1  0  0  0  0
 16 22  1  0  0  0  0
 16 17  1  0  0  0  0
 17 15  1  0  0  0  0
 17  6  2  0  0  0  0
 18  8  1  1  0  0  0
 18 19  1  0  0  0  0
 19 11  2  0  0  0  0
 20 22  2  0  0  0  0
 20 10  1  0  0  0  0
 22  3  1  0  0  0  0
 23 28  1  0  0  0  0
 24 23  2  0  0  0  0
 25 26  2  0  0  0  0
 26 23  1  0  0  0  0
 26 32  1  0  0  0  0
 27 25  1  0  0  0  0
 27 24  1  0  0  0  0
 28 30  1  0  0  0  0
 29 28  1  0  0  0  0
 29 30  1  0  0  0  0
 31 32  1  0  0  0  0
 32 33  2  0  0  0  0
 34 35  3  0  0  0  0
 35 20  1  0  0  0  0
 37 38  1  6  0  0  0
 37 40  1  0  0  0  0
 39 38  1  6  0  0  0
 39 37  1  0  0  0  0
 39 40  1  0  0  0  0
 40 36  1  1  0  0  0
M  END
>  <MODEL>
8

>  <REMARK>
 VINA RESULT:      -7.5      2.852      8.687
  Name = 
  6 active torsions:
  status: ('A' for Active; 'I' for Inactive)
    1  A    between atoms: C_5  and  C_15
    2  A    between atoms: C_17  and  C_22
    3  A    between atoms: C_17  and  C_27
    4  A    between atoms: C_19  and  C_28
    5  A    between atoms: C_24  and  N_38
    6  A    between atoms: C_26  and  C_37
                            x       y       z     vdW  Elec       q    Type
                         _______ _______ _______ _____ _____    ______ ____

>  <TORSDO>
F 6

$$$$
=
 OpenBabel11042413023D

 40 49  0  0  1  0  0  0  0  0999 V2000
  194.1420  177.1210  139.4550 O   0  0  0  0  0  1  0  0  0  0  0  0
  188.1750  177.6880  139.9260 C   0  0  0  0  0  0  0  0  0  0  0  0
  190.2710  176.1230  138.1810 N   0  0  0  0  0  0  0  0  0  0  0  0
  191.6990  177.6110  141.0230 N   0  0  0  0  0  0  0  0  0  0  0  0
  190.4610  176.5770  139.4310 C   0  0  0  0  0  0  0  0  0  0  0  0
  189.0680  175.9820  137.6690 N   0  0  0  0  0  0  0  0  0  0  0  0
  187.1990  177.9630  140.9430 C   0  0  0  0  0  3  0  0  0  0  0  0
  187.6580  178.0120  138.6870 C   0  0  0  0  0  0  0  0  0  0  0  0
  191.7730  176.8720  139.9020 C   0  0  0  0  0  0  0  0  0  0  0  0
  192.8650  176.7740  139.0270 C   0  0  0  0  0  0  0  0  0  0  0  0
  185.3550  178.7730  139.3620 C   0  0  0  0  0  3  0  0  0  0  0  0
  185.8430  178.4670  140.6870 C   0  0  0  0  0  0  0  0  0  0  0  0
  186.7930  177.0880  136.5140 C   0  0  1  0  0  3  0  0  0  0  0  0
  189.5770  177.2760  140.2320 C   0  0  0  0  0  0  0  0  0  0  0  0
  187.9040  176.5810  135.6910 N   0  0  0  0  0  2  0  0  0  0  0  0
  190.6300  176.1060  135.7130 S   0  0  0  0  0  0  0  0  0  0  0  0
  189.0470  176.0250  136.3340 C   0  0  0  0  0  0  0  0  0  0  0  0
  187.2240  178.3160  137.3670 C   0  0  1  0  0  3  0  0  0  0  0  0
  186.3190  178.5280  138.4330 C   0  0  0  0  0  0  0  0  0  0  0  0
  192.6160  176.3990  137.6780 C   0  0  0  0  0  0  0  0  0  0  0  0
  190.3730  177.8490  141.2310 C   0  0  0  0  0  3  0  0  0  0  0  0
  191.2830  176.1310  137.2810 C   0  0  0  0  0  0  0  0  0  0  0  0
  183.1840  179.0240  142.9440 C   0  0  0  0  0  0  0  0  0  0  0  0
  183.6640  178.8710  141.6950 N   0  0  0  0  0  0  0  0  0  0  0  0
  185.3730  178.6970  143.0640 N   0  0  0  0  0  0  0  0  0  0  0  0
  184.2780  178.9100  143.8180 C   0  0  0  0  0  0  0  0  0  0  0  0
  184.9680  178.6730  141.8050 N   0  0  0  0  0  0  0  0  0  0  0  0
  181.7280  179.3650  143.1580 C   0  0  0  0  0  3  0  0  0  0  0  0
  180.8070  178.5410  142.2880 C   0  0  0  0  0  2  0  0  0  0  0  0
  180.9230  178.2430  143.7730 C   0  0  0  0  0  2  0  0  0  0  0  0
  185.6860  178.9690  145.9600 C   0  0  0  0  0  1  0  0  0  0  0  0
  184.3550  178.9840  145.2920 C   0  0  0  0  0  0  0  0  0  0  0  0
  183.3230  178.9950  146.0090 O   0  0  0  0  0  0  0  0  0  0  0  0
  194.5380  176.4170  135.9280 N   0  0  0  0  0  0  0  0  0  0  0  0
  193.6820  176.4090  136.7070 C   0  0  0  0  0  0  0  0  0  0  0  0
  185.6430  177.4550  135.5890 C   0  0  0  0  0  2  0  0  0  0  0  0
  183.2520  177.0530  135.0830 C   0  0  1  0  0  3  0  0  0  0  0  0
  182.0470  176.8140  135.9710 C   0  0  0  0  0  2  0  0  0  0  0  0
  183.3840  177.1950  136.5740 C   0  0  1  0  0  3  0  0  0  0  0  0
  184.4790  176.5020  135.7830 C   0  0  2  0  0  3  0  0  0  0  0  0
  2 14  1  0  0  0  0
  2  7  1  0  0  0  0
  3  5  1  0  0  0  0
  4 21  2  0  0  0  0
  5  9  1  0  0  0  0
  5 14  2  0  0  0  0
  6  3  1  0  0  0  0
  8  2  2  0  0  0  0
  9  4  1  0  0  0  0
 10  1  1  0  0  0  0
 10  9  2  0  0  0  0
 11 12  1  0  0  0  0
 12  7  2  0  0  0  0
 12 27  1  0  0  0  0
 13 36  1  6  0  0  0
 13 18  1  0  0  0  0
 14 21  1  0  0  0  0
 15 17  1  0  0  0  0
 15 13  1  0  0  0  0
 16 17  1  0  0  0  0
 16 22  1  0  0  0  0
 17  6  2  0  0  0  0
 18 19  1  1  0  0  0
 18  8  1  0  0  0  0
 19  8  1  0  0  0  0
 19 11  2  0  0  0  0
 20 10  1  0  0  0  0
 22 20  2  0  0  0  0
 22  3  1  0  0  0  0
 23 28  1  0  0  0  0
 23 26  1  0  0  0  0
 24 27  1  0  0  0  0
 24 23  2  0  0  0  0
 25 26  2  0  0  0  0
 26 32  1  0  0  0  0
 27 25  1  0  0  0  0
 28 30  1  0  0  0  0
 29 28  1  0  0  0  0
 29 30  1  0  0  0  0
 32 31  1  0  0  0  0
 32 33  2  0  0  0  0
 34 35  3  0  0  0  0
 35 20  1  0  0  0  0
 37 40  1  0  0  0  0
 37 38  1  1  0  0  0
 37 39  1  0  0  0  0
 39 38  1  1  0  0  0
 40 36  1  6  0  0  0
 40 39  1  0  0  0  0
M  END
>  <MODEL>
9

>  <REMARK>
 VINA RESULT:      -7.4      3.734      6.429
  Name = 
  6 active torsions:
  status: ('A' for Active; 'I' for Inactive)
    1  A    between atoms: C_5  and  C_15
    2  A    between atoms: C_17  and  C_22
    3  A    between atoms: C_17  and  C_27
    4  A    between atoms: C_19  and  C_28
    5  A    between atoms: C_24  and  N_38
    6  A    between atoms: C_26  and  C_37
                            x       y       z     vdW  Elec       q    Type
                         _______ _______ _______ _____ _____    ______ ____

>  <TORSDO>
F 6

$$$$
