=
 OpenBabel11032420163D

 28 29  0  0  1  0  0  0  0  0999 V2000
  188.8440  175.5240  142.8440 C   0  0  0  0  0  2  0  0  0  0  0  0
  189.2800  176.7790  142.7310 C   0  0  0  0  0  0  0  0  0  0  0  0
  187.6250  178.5150  143.0880 O   0  0  0  0  0  0  0  0  0  0  0  0
  188.5550  177.3970  145.1190 C   0  0  2  0  0  3  0  0  0  0  0  0
  186.0940  177.7900  144.8230 C   0  0  1  0  0  3  0  0  0  0  0  0
  186.4620  177.7550  143.3300 C   0  0  0  0  0  2  0  0  0  0  0  0
  188.7430  177.8490  143.6520 C   0  0  1  0  0  3  0  0  0  0  0  0
  187.3080  178.0340  145.7290 C   0  0  0  0  0  2  0  0  0  0  0  0
  185.0020  178.6360  145.1150 O   0  0  0  0  0  0  0  0  0  0  0  0
  184.1740  178.7240  143.9820 C   0  0  0  0  0  1  0  0  0  0  0  0
  189.7880  177.7520  145.9330 C   0  0  0  0  0  2  0  0  0  0  0  0
  192.5260  175.3220  146.8920 O   0  0  0  0  0  0  0  0  0  0  0  0
  191.7210  177.1800  147.9630 O   0  0  0  0  0  1  0  0  0  0  0  0
  190.7540  176.6630  145.9000 N   0  0  0  0  0  2  0  0  0  0  0  0
  191.6710  176.4130  146.9650 C   0  0  0  0  0  0  0  0  0  0  0  0
  192.1520  177.9520  140.8290 O   0  0  0  0  0  0  0  0  0  0  0  0
  190.0740  177.1690  141.5960 N   0  0  0  0  0  0  0  0  0  0  0  0
  191.4980  177.3680  141.7320 C   0  0  0  0  0  0  0  0  0  0  0  0
  192.1670  176.9170  142.8650 O   0  0  0  0  0  1  0  0  0  0  0  0
  188.9510  176.9540  138.0390 N   0  0  0  0  0  0  0  0  0  0  0  0
  188.4380  178.0850  139.9940 C   0  0  0  0  0  3  0  0  0  0  0  0
  188.1680  177.8450  138.5630 C   0  0  0  0  0  0  0  0  0  0  0  0
  190.6620  175.6430  139.0040 O   0  0  0  0  0  0  0  0  0  0  0  0
  189.4440  177.2770  140.3050 C   0  0  0  0  0  0  0  0  0  0  0  0
  189.7910  176.5470  139.1020 C   0  0  0  0  0  0  0  0  0  0  0  0
  187.4140  179.1320  136.7260 O   0  0  0  0  0  0  0  0  0  0  0  0
  187.1240  178.5350  137.7960 C   0  0  0  0  0  0  0  0  0  0  0  0
  185.7770  178.5350  138.2570 N   0  0  0  0  0  1  0  0  0  0  0  0
  2  1  2  0  0  0  0
  3  6  1  0  0  0  0
  3  7  1  0  0  0  0
  4  8  1  0  0  0  0
  4 11  1  1  0  0  0
  5  9  1  6  0  0  0
  5  8  1  0  0  0  0
  6  5  1  0  0  0  0
  7  2  1  6  0  0  0
  7  4  1  0  0  0  0
 10  9  1  0  0  0  0
 12 15  2  0  0  0  0
 14 11  1  0  0  0  0
 14 15  1  0  0  0  0
 15 13  1  0  0  0  0
 16 18  2  0  0  0  0
 17 18  1  0  0  0  0
 17  2  1  0  0  0  0
 18 19  1  0  0  0  0
 20 22  2  0  0  0  0
 20 25  1  0  0  0  0
 21 24  2  0  0  0  0
 22 21  1  0  0  0  0
 23 25  2  0  0  0  0
 24 17  1  0  0  0  0
 25 24  1  0  0  0  0
 26 27  2  0  0  0  0
 27 28  1  0  0  0  0
 27 22  1  0  0  0  0
M  END
>  <MODEL>
1

>  <REMARK>
 VINA RESULT:      -7.3      0.000      0.000
  Name = 
  7 active torsions:
  status: ('A' for Active; 'I' for Inactive)
    1  A    between atoms: C_3  and  C_14
    2  A    between atoms: N_5  and  C_22
    3  A    between atoms: N_5  and  C_26
    4  A    between atoms: O_6  and  C_12
    5  A    between atoms: C_10  and  C_18
    6  A    between atoms: C_14  and  N_17
    7  A    between atoms: C_22  and  C_23
                            x       y       z     vdW  Elec       q    Type
                         _______ _______ _______ _____ _____    ______ ____

>  <TORSDO>
F 7

$$$$
=
 OpenBabel11032420163D

 28 29  0  0  1  0  0  0  0  0999 V2000
  189.1810  175.5700  142.8950 C   0  0  0  0  0  2  0  0  0  0  0  0
  189.3360  176.8670  143.1650 C   0  0  0  0  0  0  0  0  0  0  0  0
  190.4330  177.8610  141.2440 O   0  0  0  0  0  0  0  0  0  0  0  0
  187.9350  177.8770  141.2610 C   0  0  2  0  0  3  0  0  0  0  0  0
  189.2500  177.1920  139.2360 C   0  0  1  0  0  3  0  0  0  0  0  0
  190.3160  176.8330  140.2860 C   0  0  0  0  0  2  0  0  0  0  0  0
  189.2660  177.8820  142.0500 C   0  0  1  0  0  3  0  0  0  0  0  0
  188.1800  178.1490  139.7780 C   0  0  0  0  0  2  0  0  0  0  0  0
  189.7930  177.6050  138.0000 O   0  0  0  0  0  0  0  0  0  0  0  0
  189.0820  178.7270  137.5380 C   0  0  0  0  0  1  0  0  0  0  0  0
  186.9840  178.9090  141.8420 C   0  0  0  0  0  2  0  0  0  0  0  0
  183.3670  178.2260  140.9620 O   0  0  0  0  0  1  0  0  0  0  0  0
  184.8860  179.6800  140.0560 O   0  0  0  0  0  0  0  0  0  0  0  0
  185.6220  178.3950  141.8630 N   0  0  0  0  0  2  0  0  0  0  0  0
  184.6300  178.8000  140.9190 C   0  0  0  0  0  0  0  0  0  0  0  0
  191.6550  177.6520  145.8570 O   0  0  0  0  0  1  0  0  0  0  0  0
  189.8020  177.2850  144.4610 N   0  0  0  0  0  0  0  0  0  0  0  0
  191.2050  177.5420  144.6860 C   0  0  0  0  0  0  0  0  0  0  0  0
  192.0800  177.6720  143.6120 O   0  0  0  0  0  0  0  0  0  0  0  0
  187.7240  177.4350  147.5620 N   0  0  0  0  0  0  0  0  0  0  0  0
  187.7560  178.2840  145.4080 C   0  0  0  0  0  3  0  0  0  0  0  0
  187.0910  178.1930  146.7220 C   0  0  0  0  0  0  0  0  0  0  0  0
  189.7560  176.2520  147.3460 O   0  0  0  0  0  0  0  0  0  0  0  0
  188.8400  177.5250  145.5070 C   0  0  0  0  0  0  0  0  0  0  0  0
  188.8560  176.9770  146.8480 C   0  0  0  0  0  0  0  0  0  0  0  0
  185.8640  179.9300  147.7600 O   0  0  0  0  0  0  0  0  0  0  0  0
  185.8410  178.8830  147.0610 C   0  0  0  0  0  0  0  0  0  0  0  0
  184.5930  178.3720  146.6030 N   0  0  0  0  0  1  0  0  0  0  0  0
  1  2  2  0  0  0  0
  2 17  1  0  0  0  0
  3  7  1  0  0  0  0
  4 11  1  1  0  0  0
  4  7  1  0  0  0  0
  5  9  1  6  0  0  0
  5  8  1  0  0  0  0
  5  6  1  0  0  0  0
  6  3  1  0  0  0  0
  7  2  1  1  0  0  0
  8  4  1  0  0  0  0
 10  9  1  0  0  0  0
 11 14  1  0  0  0  0
 13 15  2  0  0  0  0
 15 12  1  0  0  0  0
 15 14  1  0  0  0  0
 17 18  1  0  0  0  0
 17 24  1  0  0  0  0
 18 16  1  0  0  0  0
 19 18  2  0  0  0  0
 21 24  2  0  0  0  0
 21 22  1  0  0  0  0
 22 27  1  0  0  0  0
 22 20  2  0  0  0  0
 24 25  1  0  0  0  0
 25 23  2  0  0  0  0
 25 20  1  0  0  0  0
 27 26  2  0  0  0  0
 28 27  1  0  0  0  0
M  END
>  <MODEL>
2

>  <REMARK>
 VINA RESULT:      -7.1      2.473      6.960
  Name = 
  7 active torsions:
  status: ('A' for Active; 'I' for Inactive)
    1  A    between atoms: C_3  and  C_14
    2  A    between atoms: N_5  and  C_22
    3  A    between atoms: N_5  and  C_26
    4  A    between atoms: O_6  and  C_12
    5  A    between atoms: C_10  and  C_18
    6  A    between atoms: C_14  and  N_17
    7  A    between atoms: C_22  and  C_23
                            x       y       z     vdW  Elec       q    Type
                         _______ _______ _______ _____ _____    ______ ____

>  <TORSDO>
F 7

$$$$
=
 OpenBabel11032420163D

 28 29  0  0  1  0  0  0  0  0999 V2000
  188.3190  175.7830  143.1170 C   0  0  0  0  0  2  0  0  0  0  0  0
  189.1420  176.8320  143.1320 C   0  0  0  0  0  0  0  0  0  0  0  0
  187.9110  178.4520  144.4500 O   0  0  0  0  0  0  0  0  0  0  0  0
  189.6900  177.1490  145.6230 C   0  0  2  0  0  3  0  0  0  0  0  0
  187.4080  177.4800  146.6130 C   0  0  1  0  0  3  0  0  0  0  0  0
  186.9980  177.6260  145.1370 C   0  0  0  0  0  2  0  0  0  0  0  0
  189.1470  177.7700  144.3140 C   0  0  1  0  0  3  0  0  0  0  0  0
  188.9150  177.6660  146.8330 C   0  0  0  0  0  2  0  0  0  0  0  0
  186.6160  178.2450  147.4970 O   0  0  0  0  0  0  0  0  0  0  0  0
  185.5680  178.8410  146.7740 C   0  0  0  0  0  1  0  0  0  0  0  0
  191.1710  177.4580  145.7680 C   0  0  0  0  0  2  0  0  0  0  0  0
  192.8110  175.4940  148.5570 O   0  0  0  0  0  1  0  0  0  0  0  0
  192.4720  174.9780  146.3510 O   0  0  0  0  0  0  0  0  0  0  0  0
  191.6540  177.0420  147.0770 N   0  0  0  0  0  2  0  0  0  0  0  0
  192.3260  175.8010  147.2920 C   0  0  0  0  0  0  0  0  0  0  0  0
  191.9170  177.7980  140.9850 O   0  0  0  0  0  0  0  0  0  0  0  0
  189.8530  177.2100  141.9380 N   0  0  0  0  0  0  0  0  0  0  0  0
  191.2960  177.2290  141.9210 C   0  0  0  0  0  0  0  0  0  0  0  0
  192.0220  176.6200  142.9390 O   0  0  0  0  0  1  0  0  0  0  0  0
  187.5110  178.3620  139.2630 N   0  0  0  0  0  0  0  0  0  0  0  0
  189.3150  176.9370  139.5470 C   0  0  0  0  0  3  0  0  0  0  0  0
  188.2900  177.5180  138.6590 C   0  0  0  0  0  0  0  0  0  0  0  0
  187.5150  179.1400  141.4940 O   0  0  0  0  0  0  0  0  0  0  0  0
  189.1060  177.4860  140.7370 C   0  0  0  0  0  0  0  0  0  0  0  0
  187.9820  178.3890  140.5980 C   0  0  0  0  0  0  0  0  0  0  0  0
  187.5440  176.1410  136.8850 O   0  0  0  0  0  0  0  0  0  0  0  0
  188.1490  177.1880  137.2360 C   0  0  0  0  0  0  0  0  0  0  0  0
  188.6970  178.0480  136.2440 N   0  0  0  0  0  1  0  0  0  0  0  0
  1  2  2  0  0  0  0
  3  6  1  0  0  0  0
  4 11  1  1  0  0  0
  4  8  1  0  0  0  0
  5  8  1  0  0  0  0
  5  9  1  1  0  0  0
  6  5  1  0  0  0  0
  7  2  1  6  0  0  0
  7  3  1  0  0  0  0
  7  4  1  0  0  0  0
 10  9  1  0  0  0  0
 11 14  1  0  0  0  0
 13 15  2  0  0  0  0
 14 15  1  0  0  0  0
 15 12  1  0  0  0  0
 16 18  2  0  0  0  0
 17  2  1  0  0  0  0
 18 17  1  0  0  0  0
 18 19  1  0  0  0  0
 20 25  1  0  0  0  0
 21 24  2  0  0  0  0
 22 20  2  0  0  0  0
 22 21  1  0  0  0  0
 24 17  1  0  0  0  0
 25 24  1  0  0  0  0
 25 23  2  0  0  0  0
 26 27  2  0  0  0  0
 27 22  1  0  0  0  0
 28 27  1  0  0  0  0
M  END
>  <MODEL>
3

>  <REMARK>
 VINA RESULT:      -7.0      1.571      2.093
  Name = 
  7 active torsions:
  status: ('A' for Active; 'I' for Inactive)
    1  A    between atoms: C_3  and  C_14
    2  A    between atoms: N_5  and  C_22
    3  A    between atoms: N_5  and  C_26
    4  A    between atoms: O_6  and  C_12
    5  A    between atoms: C_10  and  C_18
    6  A    between atoms: C_14  and  N_17
    7  A    between atoms: C_22  and  C_23
                            x       y       z     vdW  Elec       q    Type
                         _______ _______ _______ _____ _____    ______ ____

>  <TORSDO>
F 7

$$$$
=
 OpenBabel11032420163D

 28 29  0  0  1  0  0  0  0  0999 V2000
  190.2800  179.1940  142.6600 C   0  0  0  0  0  2  0  0  0  0  0  0
  189.4240  178.1880  142.4770 C   0  0  0  0  0  0  0  0  0  0  0  0
  190.5210  176.2270  143.3880 O   0  0  0  0  0  0  0  0  0  0  0  0
  188.9790  177.4760  144.9060 C   0  0  2  0  0  3  0  0  0  0  0  0
  191.2550  176.7210  145.6460 C   0  0  1  0  0  3  0  0  0  0  0  0
  191.5630  176.8070  144.1400 C   0  0  0  0  0  2  0  0  0  0  0  0
  189.3700  177.0530  143.4710 C   0  0  1  0  0  3  0  0  0  0  0  0
  189.7510  176.6630  145.9430 C   0  0  0  0  0  2  0  0  0  0  0  0
  191.9950  175.7230  146.3170 O   0  0  0  0  0  0  0  0  0  0  0  0
  192.0080  176.0090  147.6930 C   0  0  0  0  0  1  0  0  0  0  0  0
  187.4820  177.3090  145.1060 C   0  0  0  0  0  2  0  0  0  0  0  0
  185.5330  179.5890  147.4150 O   0  0  0  0  0  1  0  0  0  0  0  0
  185.3430  179.2090  145.1640 O   0  0  0  0  0  0  0  0  0  0  0  0
  187.0370  178.0490  146.2790 N   0  0  0  0  0  2  0  0  0  0  0  0
  185.9390  178.9610  146.2450 C   0  0  0  0  0  0  0  0  0  0  0  0
  186.6440  178.0830  140.1300 O   0  0  0  0  0  0  0  0  0  0  0  0
  188.7210  178.0550  141.2270 N   0  0  0  0  0  0  0  0  0  0  0  0
  187.3310  178.4320  141.1260 C   0  0  0  0  0  0  0  0  0  0  0  0
  186.7290  179.1850  142.1290 O   0  0  0  0  0  1  0  0  0  0  0  0
  190.2870  177.5210  137.8770 N   0  0  0  0  0  0  0  0  0  0  0  0
  190.1980  176.5330  139.9700 C   0  0  0  0  0  3  0  0  0  0  0  0
  190.7010  176.5150  138.5830 C   0  0  0  0  0  0  0  0  0  0  0  0
  188.9350  179.3660  138.4650 O   0  0  0  0  0  0  0  0  0  0  0  0
  189.4450  177.6220  140.0590 C   0  0  0  0  0  0  0  0  0  0  0  0
  189.4800  178.2710  138.7650 C   0  0  0  0  0  0  0  0  0  0  0  0
  191.1470  174.3040  137.8660 O   0  0  0  0  0  0  0  0  0  0  0  0
  191.5810  175.4730  138.0400 C   0  0  0  0  0  0  0  0  0  0  0  0
  192.9310  175.7780  137.7070 N   0  0  0  0  0  1  0  0  0  0  0  0
  2  1  2  0  0  0  0
  3  7  1  0  0  0  0
  3  6  1  0  0  0  0
  4 11  1  1  0  0  0
  4  8  1  0  0  0  0
  5  8  1  0  0  0  0
  5  9  1  6  0  0  0
  6  5  1  0  0  0  0
  7  2  1  6  0  0  0
  7  4  1  0  0  0  0
  9 10  1  0  0  0  0
 11 14  1  0  0  0  0
 13 15  2  0  0  0  0
 15 14  1  0  0  0  0
 15 12  1  0  0  0  0
 16 18  2  0  0  0  0
 17  2  1  0  0  0  0
 18 17  1  0  0  0  0
 18 19  1  0  0  0  0
 20 22  2  0  0  0  0
 20 25  1  0  0  0  0
 21 24  2  0  0  0  0
 22 21  1  0  0  0  0
 23 25  2  0  0  0  0
 24 17  1  0  0  0  0
 25 24  1  0  0  0  0
 26 27  2  0  0  0  0
 27 22  1  0  0  0  0
 28 27  1  0  0  0  0
M  END
>  <MODEL>
4

>  <REMARK>
 VINA RESULT:      -6.7      1.984      4.895
  Name = 
  7 active torsions:
  status: ('A' for Active; 'I' for Inactive)
    1  A    between atoms: C_3  and  C_14
    2  A    between atoms: N_5  and  C_22
    3  A    between atoms: N_5  and  C_26
    4  A    between atoms: O_6  and  C_12
    5  A    between atoms: C_10  and  C_18
    6  A    between atoms: C_14  and  N_17
    7  A    between atoms: C_22  and  C_23
                            x       y       z     vdW  Elec       q    Type
                         _______ _______ _______ _____ _____    ______ ____

>  <TORSDO>
F 7

$$$$
=
 OpenBabel11032420163D

 28 29  0  0  1  0  0  0  0  0999 V2000
  190.8530  179.2540  143.6830 C   0  0  0  0  0  2  0  0  0  0  0  0
  190.2010  178.1800  143.2360 C   0  0  0  0  0  0  0  0  0  0  0  0
  190.8380  176.2430  144.5480 O   0  0  0  0  0  0  0  0  0  0  0  0
  188.9380  177.6200  145.4030 C   0  0  2  0  0  3  0  0  0  0  0  0
  190.7980  176.8430  146.8970 C   0  0  1  0  0  3  0  0  0  0  0  0
  191.5950  176.8350  145.5800 C   0  0  0  0  0  2  0  0  0  0  0  0
  189.7660  177.1050  144.2020 C   0  0  1  0  0  3  0  0  0  0  0  0
  189.2800  176.8450  146.6730 C   0  0  0  0  0  2  0  0  0  0  0  0
  191.2250  175.8640  147.8210 O   0  0  0  0  0  0  0  0  0  0  0  0
  192.6220  175.7340  147.7390 C   0  0  0  0  0  1  0  0  0  0  0  0
  187.4540  177.5080  145.0940 C   0  0  0  0  0  2  0  0  0  0  0  0
  184.6100  178.5650  147.3580 O   0  0  0  0  0  1  0  0  0  0  0  0
  184.8030  178.5860  145.0750 O   0  0  0  0  0  0  0  0  0  0  0  0
  186.6610  177.8290  146.2730 N   0  0  0  0  0  2  0  0  0  0  0  0
  185.3280  178.3350  146.1920 C   0  0  0  0  0  0  0  0  0  0  0  0
  191.2690  177.3430  139.8590 O   0  0  0  0  0  0  0  0  0  0  0  0
  190.1160  177.9230  141.8210 N   0  0  0  0  0  0  0  0  0  0  0  0
  191.2300  177.3330  141.1180 C   0  0  0  0  0  0  0  0  0  0  0  0
  192.2780  176.7450  141.8200 O   0  0  0  0  0  1  0  0  0  0  0  0
  187.3290  178.6520  139.4430 N   0  0  0  0  0  0  0  0  0  0  0  0
  187.6790  178.2770  141.7010 C   0  0  0  0  0  3  0  0  0  0  0  0
  186.7450  178.5730  140.5980 C   0  0  0  0  0  0  0  0  0  0  0  0
  189.5900  178.3470  138.8320 O   0  0  0  0  0  0  0  0  0  0  0  0
  188.8760  178.1830  141.1360 C   0  0  0  0  0  0  0  0  0  0  0  0
  188.6960  178.4100  139.7170 C   0  0  0  0  0  0  0  0  0  0  0  0
  184.6910  178.1750  141.7050 O   0  0  0  0  0  0  0  0  0  0  0  0
  185.3000  178.7610  140.7710 C   0  0  0  0  0  0  0  0  0  0  0  0
  184.5760  179.6060  139.8840 N   0  0  0  0  0  1  0  0  0  0  0  0
  2  1  2  0  0  0  0
  3  6  1  0  0  0  0
  4 11  1  6  0  0  0
  4  8  1  0  0  0  0
  5  9  1  1  0  0  0
  6  5  1  0  0  0  0
  7  2  1  1  0  0  0
  7  3  1  0  0  0  0
  7  4  1  0  0  0  0
  8  5  1  0  0  0  0
 10  9  1  0  0  0  0
 11 14  1  0  0  0  0
 13 15  2  0  0  0  0
 15 14  1  0  0  0  0
 15 12  1  0  0  0  0
 16 18  2  0  0  0  0
 17  2  1  0  0  0  0
 18 19  1  0  0  0  0
 18 17  1  0  0  0  0
 20 25  1  0  0  0  0
 20 22  2  0  0  0  0
 22 27  1  0  0  0  0
 22 21  1  0  0  0  0
 23 25  2  0  0  0  0
 24 21  2  0  0  0  0
 24 17  1  0  0  0  0
 25 24  1  0  0  0  0
 27 26  2  0  0  0  0
 28 27  1  0  0  0  0
M  END
>  <MODEL>
5

>  <REMARK>
 VINA RESULT:      -6.6      1.922      4.408
  Name = 
  7 active torsions:
  status: ('A' for Active; 'I' for Inactive)
    1  A    between atoms: C_3  and  C_14
    2  A    between atoms: N_5  and  C_22
    3  A    between atoms: N_5  and  C_26
    4  A    between atoms: O_6  and  C_12
    5  A    between atoms: C_10  and  C_18
    6  A    between atoms: C_14  and  N_17
    7  A    between atoms: C_22  and  C_23
                            x       y       z     vdW  Elec       q    Type
                         _______ _______ _______ _____ _____    ______ ____

>  <TORSDO>
F 7

$$$$
=
 OpenBabel11032420163D

 28 29  0  0  1  0  0  0  0  0999 V2000
  187.8740  176.0080  143.2190 C   0  0  0  0  0  2  0  0  0  0  0  0
  187.7420  177.2650  143.6440 C   0  0  0  0  0  0  0  0  0  0  0  0
  188.6200  178.6250  141.8390 O   0  0  0  0  0  0  0  0  0  0  0  0
  186.1510  178.2440  141.8790 C   0  0  2  0  0  3  0  0  0  0  0  0
  187.5030  178.0030  139.7780 C   0  0  1  0  0  3  0  0  0  0  0  0
  188.6390  177.7040  140.7720 C   0  0  0  0  0  2  0  0  0  0  0  0
  187.4850  178.3730  142.6520 C   0  0  1  0  0  3  0  0  0  0  0  0
  186.3120  178.7130  140.4340 C   0  0  0  0  0  2  0  0  0  0  0  0
  187.9420  178.6310  138.5920 O   0  0  0  0  0  0  0  0  0  0  0  0
  187.1040  178.2430  137.5310 C   0  0  0  0  0  1  0  0  0  0  0  0
  185.0660  179.0430  142.5810 C   0  0  0  0  0  2  0  0  0  0  0  0
  181.3340  178.6210  142.1190 O   0  0  0  0  0  0  0  0  0  0  0  0
  182.5680  179.1630  143.9710 O   0  0  0  0  0  1  0  0  0  0  0  0
  183.7620  178.7500  142.0050 N   0  0  0  0  0  2  0  0  0  0  0  0
  182.5470  178.8610  142.7480 C   0  0  0  0  0  0  0  0  0  0  0  0
  187.3490  178.5690  147.0190 O   0  0  0  0  0  1  0  0  0  0  0  0
  188.0750  177.6080  145.0030 N   0  0  0  0  0  0  0  0  0  0  0  0
  187.0460  178.0250  145.9250 C   0  0  0  0  0  0  0  0  0  0  0  0
  185.7030  177.8320  145.6170 O   0  0  0  0  0  0  0  0  0  0  0  0
  191.7510  177.7160  145.6660 N   0  0  0  0  0  0  0  0  0  0  0  0
  189.8580  176.5730  146.3550 C   0  0  0  0  0  3  0  0  0  0  0  0
  191.3160  176.7810  146.4520 C   0  0  0  0  0  0  0  0  0  0  0  0
  190.5950  179.1460  144.1820 O   0  0  0  0  0  0  0  0  0  0  0  0
  189.4350  177.4480  145.4520 C   0  0  0  0  0  0  0  0  0  0  0  0
  190.5950  178.1870  144.9980 C   0  0  0  0  0  0  0  0  0  0  0  0
  192.6110  174.8770  147.0000 O   0  0  0  0  0  0  0  0  0  0  0  0
  192.1990  176.0180  147.3410 C   0  0  0  0  0  0  0  0  0  0  0  0
  192.5960  176.5610  148.5960 N   0  0  0  0  0  1  0  0  0  0  0  0
  1  2  2  0  0  0  0
  2 17  1  0  0  0  0
  3  7  1  0  0  0  0
  4 11  1  1  0  0  0
  4  7  1  0  0  0  0
  5  9  1  6  0  0  0
  5  8  1  0  0  0  0
  5  6  1  0  0  0  0
  6  3  1  0  0  0  0
  7  2  1  6  0  0  0
  8  4  1  0  0  0  0
 10  9  1  0  0  0  0
 12 15  2  0  0  0  0
 14 11  1  0  0  0  0
 14 15  1  0  0  0  0
 15 13  1  0  0  0  0
 17 24  1  0  0  0  0
 17 18  1  0  0  0  0
 18 16  1  0  0  0  0
 19 18  2  0  0  0  0
 20 22  2  0  0  0  0
 21 22  1  0  0  0  0
 22 27  1  0  0  0  0
 23 25  2  0  0  0  0
 24 21  2  0  0  0  0
 25 24  1  0  0  0  0
 25 20  1  0  0  0  0
 26 27  2  0  0  0  0
 27 28  1  0  0  0  0
M  END
>  <MODEL>
6

>  <REMARK>
 VINA RESULT:      -6.6      2.462      7.453
  Name = 
  7 active torsions:
  status: ('A' for Active; 'I' for Inactive)
    1  A    between atoms: C_3  and  C_14
    2  A    between atoms: N_5  and  C_22
    3  A    between atoms: N_5  and  C_26
    4  A    between atoms: O_6  and  C_12
    5  A    between atoms: C_10  and  C_18
    6  A    between atoms: C_14  and  N_17
    7  A    between atoms: C_22  and  C_23
                            x       y       z     vdW  Elec       q    Type
                         _______ _______ _______ _____ _____    ______ ____

>  <TORSDO>
F 7

$$$$
=
 OpenBabel11032420163D

 28 29  0  0  1  0  0  0  0  0999 V2000
  191.6480  177.5010  139.9910 C   0  0  0  0  0  2  0  0  0  0  0  0
  190.3740  177.1340  139.8500 C   0  0  0  0  0  0  0  0  0  0  0  0
  190.0980  175.8770  141.9060 O   0  0  0  0  0  0  0  0  0  0  0  0
  189.0570  178.1460  141.8110 C   0  0  2  0  0  3  0  0  0  0  0  0
  190.4020  177.3790  143.7860 C   0  0  1  0  0  3  0  0  0  0  0  0
  191.0700  176.4730  142.7360 C   0  0  0  0  0  2  0  0  0  0  0  0
  189.5260  176.8710  141.0710 C   0  0  1  0  0  3  0  0  0  0  0  0
  189.0460  177.9250  143.3220 C   0  0  0  0  0  2  0  0  0  0  0  0
  190.3630  176.8110  145.0780 O   0  0  0  0  0  0  0  0  0  0  0  0
  191.6740  176.7080  145.5740 C   0  0  0  0  0  1  0  0  0  0  0  0
  187.6760  178.5510  141.3220 C   0  0  0  0  0  2  0  0  0  0  0  0
  184.3880  178.3000  143.1790 O   0  0  0  0  0  1  0  0  0  0  0  0
  184.9380  179.3770  141.2350 O   0  0  0  0  0  0  0  0  0  0  0  0
  186.6690  178.2520  142.3300 N   0  0  0  0  0  2  0  0  0  0  0  0
  185.3080  178.6690  142.2080 C   0  0  0  0  0  0  0  0  0  0  0  0
  190.2740  175.6070  136.5490 O   0  0  0  0  0  0  0  0  0  0  0  0
  189.8690  176.7590  138.5550 N   0  0  0  0  0  0  0  0  0  0  0  0
  190.5470  175.7550  137.7690 C   0  0  0  0  0  0  0  0  0  0  0  0
  191.5120  174.9380  138.3480 O   0  0  0  0  0  1  0  0  0  0  0  0
  187.0540  178.8810  137.3180 N   0  0  0  0  0  0  0  0  0  0  0  0
  187.4720  176.7020  137.9800 C   0  0  0  0  0  3  0  0  0  0  0  0
  186.5160  177.7140  137.4920 C   0  0  0  0  0  0  0  0  0  0  0  0
  189.2840  179.6090  137.5940 O   0  0  0  0  0  0  0  0  0  0  0  0
  188.6330  177.3350  138.0920 C   0  0  0  0  0  0  0  0  0  0  0  0
  188.4110  178.7060  137.6810 C   0  0  0  0  0  0  0  0  0  0  0  0
  184.7180  177.1310  136.0680 O   0  0  0  0  0  0  0  0  0  0  0  0
  185.0980  177.4460  137.2260 C   0  0  0  0  0  0  0  0  0  0  0  0
  184.1420  177.5430  138.2760 N   0  0  0  0  0  1  0  0  0  0  0  0
  2  1  2  0  0  0  0
  3  6  1  0  0  0  0
  4 11  1  6  0  0  0
  4  8  1  0  0  0  0
  5  9  1  1  0  0  0
  6  5  1  0  0  0  0
  7  2  1  6  0  0  0
  7  4  1  0  0  0  0
  7  3  1  0  0  0  0
  8  5  1  0  0  0  0
  9 10  1  0  0  0  0
 11 14  1  0  0  0  0
 13 15  2  0  0  0  0
 15 14  1  0  0  0  0
 15 12  1  0  0  0  0
 16 18  2  0  0  0  0
 17  2  1  0  0  0  0
 18 19  1  0  0  0  0
 18 17  1  0  0  0  0
 20 22  2  0  0  0  0
 20 25  1  0  0  0  0
 21 24  2  0  0  0  0
 22 21  1  0  0  0  0
 23 25  2  0  0  0  0
 24 17  1  0  0  0  0
 25 24  1  0  0  0  0
 26 27  2  0  0  0  0
 27 22  1  0  0  0  0
 27 28  1  0  0  0  0
M  END
>  <MODEL>
7

>  <REMARK>
 VINA RESULT:      -6.5      2.343      4.915
  Name = 
  7 active torsions:
  status: ('A' for Active; 'I' for Inactive)
    1  A    between atoms: C_3  and  C_14
    2  A    between atoms: N_5  and  C_22
    3  A    between atoms: N_5  and  C_26
    4  A    between atoms: O_6  and  C_12
    5  A    between atoms: C_10  and  C_18
    6  A    between atoms: C_14  and  N_17
    7  A    between atoms: C_22  and  C_23
                            x       y       z     vdW  Elec       q    Type
                         _______ _______ _______ _____ _____    ______ ____

>  <TORSDO>
F 7

$$$$
=
 OpenBabel11032420163D

 28 29  0  0  1  0  0  0  0  0999 V2000
  188.7330  179.6100  141.4560 C   0  0  0  0  0  2  0  0  0  0  0  0
  188.2050  178.4190  141.1720 C   0  0  0  0  0  0  0  0  0  0  0  0
  189.6840  176.6040  141.8050 O   0  0  0  0  0  0  0  0  0  0  0  0
  188.2110  177.5450  143.5900 C   0  0  2  0  0  3  0  0  0  0  0  0
  190.6520  177.1040  143.9720 C   0  0  1  0  0  3  0  0  0  0  0  0
  190.7290  177.2990  142.4470 C   0  0  0  0  0  2  0  0  0  0  0  0
  188.4520  177.2460  142.0910 C   0  0  1  0  0  3  0  0  0  0  0  0
  189.2280  176.8120  144.4620 C   0  0  0  0  0  2  0  0  0  0  0  0
  191.6110  176.1990  144.4740 O   0  0  0  0  0  0  0  0  0  0  0  0
  191.7270  176.3770  145.8640 C   0  0  0  0  0  1  0  0  0  0  0  0
  186.7950  177.1510  143.9760 C   0  0  0  0  0  2  0  0  0  0  0  0
  185.5790  179.4790  146.7010 O   0  0  0  0  0  0  0  0  0  0  0  0
  186.7610  177.5200  146.8120 O   0  0  0  0  0  1  0  0  0  0  0  0
  186.1340  178.2410  144.6800 N   0  0  0  0  0  2  0  0  0  0  0  0
  186.1840  178.3840  146.1000 C   0  0  0  0  0  0  0  0  0  0  0  0
  185.6160  178.0640  138.6400 O   0  0  0  0  0  0  0  0  0  0  0  0
  187.6040  178.1830  139.8860 N   0  0  0  0  0  0  0  0  0  0  0  0
  186.2140  178.5000  139.6590 C   0  0  0  0  0  0  0  0  0  0  0  0
  185.5140  179.2900  140.5650 O   0  0  0  0  0  1  0  0  0  0  0  0
  189.7350  177.6530  136.8630 N   0  0  0  0  0  0  0  0  0  0  0  0
  188.7780  176.4440  138.5900 C   0  0  0  0  0  3  0  0  0  0  0  0
  189.5950  176.4640  137.3620 C   0  0  0  0  0  0  0  0  0  0  0  0
  188.9560  179.7490  137.6260 O   0  0  0  0  0  0  0  0  0  0  0  0
  188.4280  177.7060  138.8050 C   0  0  0  0  0  0  0  0  0  0  0  0
  189.0140  178.4960  137.7410 C   0  0  0  0  0  0  0  0  0  0  0  0
  190.3300  175.1990  135.5030 O   0  0  0  0  0  0  0  0  0  0  0  0
  190.1960  175.2720  136.7530 C   0  0  0  0  0  0  0  0  0  0  0  0
  190.6290  174.1910  137.5700 N   0  0  0  0  0  1  0  0  0  0  0  0
  2  1  2  0  0  0  0
  3  7  1  0  0  0  0
  3  6  1  0  0  0  0
  4 11  1  1  0  0  0
  4  8  1  0  0  0  0
  5  8  1  0  0  0  0
  5  9  1  6  0  0  0
  6  5  1  0  0  0  0
  7  2  1  6  0  0  0
  7  4  1  0  0  0  0
  9 10  1  0  0  0  0
 11 14  1  0  0  0  0
 14 15  1  0  0  0  0
 15 12  2  0  0  0  0
 15 13  1  0  0  0  0
 16 18  2  0  0  0  0
 17  2  1  0  0  0  0
 18 17  1  0  0  0  0
 18 19  1  0  0  0  0
 20 22  2  0  0  0  0
 20 25  1  0  0  0  0
 21 24  2  0  0  0  0
 22 21  1  0  0  0  0
 23 25  2  0  0  0  0
 24 17  1  0  0  0  0
 25 24  1  0  0  0  0
 26 27  2  0  0  0  0
 27 22  1  0  0  0  0
 27 28  1  0  0  0  0
M  END
>  <MODEL>
8

>  <REMARK>
 VINA RESULT:      -6.4      2.221      4.813
  Name = 
  7 active torsions:
  status: ('A' for Active; 'I' for Inactive)
    1  A    between atoms: C_3  and  C_14
    2  A    between atoms: N_5  and  C_22
    3  A    between atoms: N_5  and  C_26
    4  A    between atoms: O_6  and  C_12
    5  A    between atoms: C_10  and  C_18
    6  A    between atoms: C_14  and  N_17
    7  A    between atoms: C_22  and  C_23
                            x       y       z     vdW  Elec       q    Type
                         _______ _______ _______ _____ _____    ______ ____

>  <TORSDO>
F 7

$$$$
=
 OpenBabel11032420163D

 28 29  0  0  1  0  0  0  0  0999 V2000
  187.4110  175.8990  143.8720 C   0  0  0  0  0  2  0  0  0  0  0  0
  187.5330  177.2270  143.8540 C   0  0  0  0  0  0  0  0  0  0  0  0
  189.0220  178.2480  145.4740 O   0  0  0  0  0  0  0  0  0  0  0  0
  190.0790  177.0870  143.5300 C   0  0  2  0  0  3  0  0  0  0  0  0
  190.8780  176.7440  145.8840 C   0  0  1  0  0  3  0  0  0  0  0  0
  189.4300  177.1300  146.2300 C   0  0  0  0  0  2  0  0  0  0  0  0
  188.8760  177.8650  144.1150 C   0  0  1  0  0  3  0  0  0  0  0  0
  191.2840  177.1640  144.4660 C   0  0  0  0  0  2  0  0  0  0  0  0
  191.8150  177.1280  146.8690 O   0  0  0  0  0  0  0  0  0  0  0  0
  192.0620  176.0350  147.7180 C   0  0  0  0  0  1  0  0  0  0  0  0
  190.4330  177.6370  142.1580 C   0  0  0  0  0  2  0  0  0  0  0  0
  190.5630  175.6880  138.9170 O   0  0  0  0  0  0  0  0  0  0  0  0
  190.0380  177.8780  139.3350 O   0  0  0  0  0  1  0  0  0  0  0  0
  190.5550  176.5560  141.1910 N   0  0  0  0  0  2  0  0  0  0  0  0
  190.3760  176.7520  139.7880 C   0  0  0  0  0  0  0  0  0  0  0  0
  184.6630  179.1100  145.0630 O   0  0  0  0  0  0  0  0  0  0  0  0
  186.3590  178.0610  143.8230 N   0  0  0  0  0  0  0  0  0  0  0  0
  185.8170  178.6060  145.0440 C   0  0  0  0  0  0  0  0  0  0  0  0
  186.5600  178.5810  146.2200 O   0  0  0  0  0  1  0  0  0  0  0  0
  185.5490  179.2160  140.3630 N   0  0  0  0  0  0  0  0  0  0  0  0
  184.5120  178.2670  142.2030 C   0  0  0  0  0  3  0  0  0  0  0  0
  184.4160  178.7860  140.8250 C   0  0  0  0  0  0  0  0  0  0  0  0
  187.7020  179.2440  141.3350 O   0  0  0  0  0  0  0  0  0  0  0  0
  185.7840  178.4120  142.5490 C   0  0  0  0  0  0  0  0  0  0  0  0
  186.4690  179.0030  141.4170 C   0  0  0  0  0  0  0  0  0  0  0  0
  182.2770  177.9620  140.2390 O   0  0  0  0  0  0  0  0  0  0  0  0
  183.1760  178.8210  140.0420 C   0  0  0  0  0  0  0  0  0  0  0  0
  182.9810  179.8270  139.0530 N   0  0  0  0  0  1  0  0  0  0  0  0
  2  1  2  0  0  0  0
  3  6  1  0  0  0  0
  4 11  1  6  0  0  0
  4  7  1  0  0  0  0
  4  8  1  0  0  0  0
  5  6  1  0  0  0  0
  5  9  1  1  0  0  0
  7  2  1  1  0  0  0
  7  3  1  0  0  0  0
  8  5  1  0  0  0  0
  9 10  1  0  0  0  0
 12 15  2  0  0  0  0
 13 15  1  0  0  0  0
 14 11  1  0  0  0  0
 15 14  1  0  0  0  0
 17  2  1  0  0  0  0
 17 18  1  0  0  0  0
 18 16  2  0  0  0  0
 18 19  1  0  0  0  0
 20 22  2  0  0  0  0
 20 25  1  0  0  0  0
 21 24  2  0  0  0  0
 22 21  1  0  0  0  0
 23 25  2  0  0  0  0
 24 17  1  0  0  0  0
 25 24  1  0  0  0  0
 27 26  2  0  0  0  0
 27 22  1  0  0  0  0
 28 27  1  0  0  0  0
M  END
>  <MODEL>
9

>  <REMARK>
 VINA RESULT:      -6.4      2.264      5.478
  Name = 
  7 active torsions:
  status: ('A' for Active; 'I' for Inactive)
    1  A    between atoms: C_3  and  C_14
    2  A    between atoms: N_5  and  C_22
    3  A    between atoms: N_5  and  C_26
    4  A    between atoms: O_6  and  C_12
    5  A    between atoms: C_10  and  C_18
    6  A    between atoms: C_14  and  N_17
    7  A    between atoms: C_22  and  C_23
                            x       y       z     vdW  Elec       q    Type
                         _______ _______ _______ _____ _____    ______ ____

>  <TORSDO>
F 7

$$$$
