=
 OpenBabel11042411243D

 57 63  0  0  1  0  0  0  0  0999 V2000
  184.8650  178.3610  140.7440 C   0  0  0  0  0  0  0  0  0  0  0  0
  179.6130  177.4250  143.0210 N   0  0  0  0  0  2  0  0  0  0  0  0
  180.3820  179.1600  144.3820 C   0  0  0  0  0  2  0  0  0  0  0  0
  183.4810  178.7700  143.8180 C   0  0  0  0  0  2  0  0  0  0  0  0
  181.0650  179.2810  143.0560 C   0  0  1  0  0  3  0  0  0  0  0  0
  182.8780  178.1130  139.4530 C   0  0  0  0  0  0  0  0  0  0  0  0
  182.5220  179.7580  143.1490 C   0  0  0  0  0  2  0  0  0  0  0  0
  179.8950  178.1920  138.7700 C   0  0  0  0  0  3  0  0  0  0  0  0
  184.9160  179.0080  143.3320 C   0  0  2  0  0  3  0  0  0  0  0  0
  182.2810  177.5930  140.4860 N   0  0  0  0  0  0  0  0  0  0  0  0
  180.9770  177.8650  141.0070 C   0  0  0  0  0  0  0  0  0  0  0  0
  184.9990  178.6640  141.9020 C   0  0  0  0  0  0  0  0  0  0  0  0
  179.3880  178.0930  144.2460 N   0  0  0  0  0  2  0  0  0  0  0  0
  184.3830  177.9650  139.4100 C   0  0  1  0  0  3  0  0  0  0  0  0
  182.1770  179.1210  138.5940 C   0  0  0  0  0  2  0  0  0  0  0  0
  180.9260  178.5590  138.0070 C   0  0  0  0  0  0  0  0  0  0  0  0
  180.8880  177.8990  142.5040 C   0  0  2  0  0  3  0  0  0  0  0  0
  179.9080  178.1240  140.2410 C   0  0  0  0  0  3  0  0  0  0  0  0
  186.6310  177.5840  146.5270 C   0  0  2  0  0  3  0  0  0  0  0  0
  186.6960  177.1940  143.5710 C   0  0  0  0  0  2  0  0  0  0  0  0
  188.7290  178.4490  145.4170 N   0  0  0  0  0  2  0  0  0  0  0  0
  188.1070  177.6090  146.4460 C   0  0  1  0  0  0  0  0  0  0  0  0
  188.0470  177.7640  143.1570 C   0  0  0  0  0  2  0  0  0  0  0  0
  185.9080  178.5060  145.5770 C   0  0  0  0  0  0  0  0  0  0  0  0
  185.2460  179.4730  146.0540 O   0  0  0  0  0  0  0  0  0  0  0  0
  190.4350  178.0360  143.7390 C   0  0  0  0  0  1  0  0  0  0  0  0
  187.4580  178.5910  147.8540 S   0  0  0  0  0  0  0  0  0  0  0  0
  185.8670  178.2510  144.1590 N   0  0  0  0  0  0  0  0  0  0  0  0
  189.0770  177.6180  144.2650 C   0  0  1  0  0  3  0  0  0  0  0  0
  190.0810  176.4310  147.2780 C   0  0  0  0  0  0  0  0  0  0  0  0
  191.8570  177.7000  148.1010 O   0  0  0  0  0  1  0  0  0  0  0  0
  192.1670  175.2700  147.6550 C   0  0  0  0  0  1  0  0  0  0  0  0
  191.3230  176.4920  147.6710 C   0  0  0  0  0  0  0  0  0  0  0  0
  188.8380  176.3750  146.8880 C   0  0  0  0  0  3  0  0  0  0  0  0
  180.7710  178.5710  136.5220 C   0  0  0  0  0  2  0  0  0  0  0  0
  181.9710  178.0550  135.8780 N   0  0  0  0  0  2  0  0  0  0  0  0
  181.6850  176.7430  135.4700 N   0  0  0  0  0  2  0  0  0  0  0  0
  182.4530  175.8540  136.3310 C   0  0  0  0  0  2  0  0  0  0  0  0
  184.1440  173.3780  135.3240 C   0  0  0  0  0  2  0  0  0  0  0  0
  180.8860  172.1860  137.4070 S   0  0  0  0  0  0  0  0  0  0  0  0
  182.3340  172.0440  136.3290 C   0  0  1  0  0  3  0  0  0  0  0  0
  185.1470  172.2620  135.6390 C   0  0  0  0  0  2  0  0  0  0  0  0
  183.0570  173.3640  136.3920 C   0  0  2  0  0  3  0  0  0  0  0  0
  183.2860  170.9290  136.7320 C   0  0  0  0  0  2  0  0  0  0  0  0
  184.4480  170.8960  135.7320 C   0  0  0  0  0  2  0  0  0  0  0  0
  181.9730  174.4010  136.2040 C   0  0  1  0  0  3  0  0  0  0  0  0
  180.7910  173.9960  137.1060 C   0  0  2  0  0  3  0  0  0  0  0  0
  180.7710  174.7250  138.4480 C   0  0  0  0  0  2  0  0  0  0  0  0
  179.4600  174.4950  139.1820 C   0  0  0  0  0  2  0  0  0  0  0  0
  179.6980  173.8700  140.4070 O   0  0  0  0  0  1  0  0  0  0  0  0
  185.0440  178.8130  138.3280 C   0  0  0  0  0  2  0  0  0  0  0  0
  185.5010  177.9370  137.1730 C   0  0  0  0  0  2  0  0  0  0  0  0
  187.0010  178.0550  136.9810 C   0  0  0  0  0  2  0  0  0  0  0  0
  187.6960  177.4550  138.1100 N   0  0  0  0  0  2  0  0  0  0  0  0
  188.7100  178.1600  138.8320 C   0  0  0  0  0  0  0  0  0  0  0  0
  189.3360  177.5470  139.9080 O   0  0  0  0  0  1  0  0  0  0  0  0
  189.0380  179.3340  138.5040 O   0  0  0  0  0  0  0  0  0  0  0  0
  1 12  3  0  0  0  0
  2 13  1  0  0  0  0
  5  7  1  1  0  0  0
  5  3  1  0  0  0  0
  6 10  2  0  0  0  0
  7  4  1  0  0  0  0
  8 18  1  0  0  0  0
  9 12  1  6  0  0  0
  9  4  1  0  0  0  0
  9 28  1  0  0  0  0
 10 11  1  0  0  0  0
 13  3  1  0  0  0  0
 14 51  1  6  0  0  0
 14  6  1  0  0  0  0
 14  1  1  0  0  0  0
 15  6  1  0  0  0  0
 16 15  1  0  0  0  0
 16  8  2  0  0  0  0
 17 11  1  6  0  0  0
 17  2  1  0  0  0  0
 17  5  1  0  0  0  0
 18 11  2  0  0  0  0
 19 24  1  6  0  0  0
 19 27  1  0  0  0  0
 20 28  1  0  0  0  0
 21 22  1  0  0  0  0
 22 19  1  0  0  0  0
 22 34  1  1  0  0  0
 22 27  1  0  0  0  0
 23 20  1  0  0  0  0
 23 29  1  0  0  0  0
 24 25  2  0  0  0  0
 28 24  1  0  0  0  0
 29 26  1  6  0  0  0
 29 21  1  0  0  0  0
 30 33  2  0  0  0  0
 32 33  1  0  0  0  0
 33 31  1  0  0  0  0
 34 30  2  0  0  0  0
 35 16  1  0  0  0  0
 36 35  1  0  0  0  0
 37 36  1  0  0  0  0
 37 38  1  0  0  0  0
 39 42  1  0  0  0  0
 41 43  1  0  0  0  0
 41 44  1  1  0  0  0
 41 40  1  0  0  0  0
 42 45  1  0  0  0  0
 43 39  1  6  0  0  0
 45 44  1  0  0  0  0
 46 38  1  1  0  0  0
 46 43  1  0  0  0  0
 46 47  1  0  0  0  0
 47 40  1  0  0  0  0
 47 48  1  1  0  0  0
 48 49  1  0  0  0  0
 49 50  1  0  0  0  0
 52 51  1  0  0  0  0
 53 52  1  0  0  0  0
 53 54  1  0  0  0  0
 54 55  1  0  0  0  0
 55 56  1  0  0  0  0
 57 55  2  0  0  0  0
M  END
>  <MODEL>
1

>  <REMARK>
 VINA RESULT:      -7.9      0.000      0.000
  Name = 
  13 active torsions:
  status: ('A' for Active; 'I' for Inactive)
    1  A    between atoms: N_2  and  C_27
    2  A    between atoms: N_5  and  C_22
    3  A    between atoms: N_5  and  N_48
    4  A    between atoms: C_9  and  C_26
    5  A    between atoms: C_14  and  C_27
    6  A    between atoms: C_14  and  C_50
    7  A    between atoms: C_22  and  C_54
    8  A    between atoms: C_23  and  C_46
    9  A    between atoms: C_26  and  C_52
   10  A    between atoms: C_30  and  N_53
   11  A    between atoms: C_43  and  C_50
   12  A    between atoms: C_44  and  C_47
   13  A    between atoms: C_44  and  N_48
                            x       y       z     vdW  Elec       q    Type
                         _______ _______ _______ _____ _____    ______ ____

>  <TORSDO>
F 13

$$$$
=
 OpenBabel11042411243D

 57 63  0  0  1  0  0  0  0  0999 V2000
  185.0020  178.4570  140.7890 C   0  0  0  0  0  0  0  0  0  0  0  0
  179.7080  177.3640  142.8920 N   0  0  0  0  0  2  0  0  0  0  0  0
  180.4080  179.0720  144.3230 C   0  0  0  0  0  2  0  0  0  0  0  0
  183.5270  178.7530  143.8340 C   0  0  0  0  0  2  0  0  0  0  0  0
  181.1240  179.2430  143.0200 C   0  0  1  0  0  3  0  0  0  0  0  0
  183.0550  178.2110  139.4380 C   0  0  0  0  0  0  0  0  0  0  0  0
  182.5690  179.7430  143.1670 C   0  0  0  0  0  2  0  0  0  0  0  0
  180.0910  178.2580  138.6740 C   0  0  0  0  0  3  0  0  0  0  0  0
  184.9710  179.0300  143.3950 C   0  0  2  0  0  3  0  0  0  0  0  0
  182.4400  177.6520  140.4390 N   0  0  0  0  0  0  0  0  0  0  0  0
  181.1180  177.8860  140.9310 C   0  0  0  0  0  0  0  0  0  0  0  0
  185.0990  178.7290  141.9580 C   0  0  0  0  0  0  0  0  0  0  0  0
  179.4380  177.9930  144.1290 N   0  0  0  0  0  2  0  0  0  0  0  0
  184.5630  178.0910  139.4310 C   0  0  1  0  0  3  0  0  0  0  0  0
  182.3600  179.2320  138.5880 C   0  0  0  0  0  2  0  0  0  0  0  0
  181.1360  178.6650  137.9510 C   0  0  0  0  0  0  0  0  0  0  0  0
  180.9880  177.8750  142.4250 C   0  0  2  0  0  3  0  0  0  0  0  0
  180.0650  178.1480  140.1430 C   0  0  0  0  0  3  0  0  0  0  0  0
  186.6640  177.5970  146.5980 C   0  0  2  0  0  3  0  0  0  0  0  0
  186.7330  177.2000  143.6430 C   0  0  0  0  0  2  0  0  0  0  0  0
  188.7730  178.4410  145.4910 N   0  0  0  0  0  2  0  0  0  0  0  0
  188.1410  177.6090  146.5200 C   0  0  1  0  0  0  0  0  0  0  0  0
  188.0910  177.7570  143.2310 C   0  0  0  0  0  2  0  0  0  0  0  0
  185.9520  178.5240  145.6440 C   0  0  0  0  0  0  0  0  0  0  0  0
  185.2970  179.4980  146.1170 O   0  0  0  0  0  0  0  0  0  0  0  0
  190.4800  178.0090  143.8190 C   0  0  0  0  0  1  0  0  0  0  0  0
  187.4970  178.5990  147.9250 S   0  0  0  0  0  0  0  0  0  0  0  0
  185.9130  178.2660  144.2260 N   0  0  0  0  0  0  0  0  0  0  0  0
  189.1160  177.6050  144.3420 C   0  0  1  0  0  3  0  0  0  0  0  0
  190.1070  176.4120  147.3450 C   0  0  0  0  0  0  0  0  0  0  0  0
  191.9080  177.6650  148.1380 O   0  0  0  0  0  1  0  0  0  0  0  0
  192.1800  175.2270  147.7130 C   0  0  0  0  0  1  0  0  0  0  0  0
  191.3530  176.4610  147.7250 C   0  0  0  0  0  0  0  0  0  0  0  0
  188.8590  176.3690  146.9670 C   0  0  0  0  0  3  0  0  0  0  0  0
  181.0210  178.7170  136.4630 C   0  0  0  0  0  2  0  0  0  0  0  0
  182.1400  178.0250  135.8390 N   0  0  0  0  0  2  0  0  0  0  0  0
  181.8430  176.6540  135.8720 N   0  0  0  0  0  2  0  0  0  0  0  0
  183.0770  175.9440  135.5650 C   0  0  0  0  0  2  0  0  0  0  0  0
  181.4430  173.2360  135.5500 C   0  0  0  0  0  2  0  0  0  0  0  0
  184.9610  172.8220  137.5070 S   0  0  0  0  0  0  0  0  0  0  0  0
  183.2950  172.3960  136.9390 C   0  0  1  0  0  3  0  0  0  0  0  0
  181.2390  171.8340  134.9670 C   0  0  0  0  0  2  0  0  0  0  0  0
  182.9200  173.4070  135.8870 C   0  0  2  0  0  3  0  0  0  0  0  0
  183.1920  170.9970  136.3510 C   0  0  0  0  0  2  0  0  0  0  0  0
  181.7370  170.7490  135.9350 C   0  0  0  0  0  2  0  0  0  0  0  0
  183.2780  174.7420  136.4990 C   0  0  1  0  0  3  0  0  0  0  0  0
  184.6780  174.5970  137.1270 C   0  0  2  0  0  3  0  0  0  0  0  0
  185.8050  175.1010  136.2260 C   0  0  0  0  0  2  0  0  0  0  0  0
  186.9570  174.1120  136.1790 C   0  0  0  0  0  2  0  0  0  0  0  0
  188.1760  174.7920  136.2060 O   0  0  0  0  0  1  0  0  0  0  0  0
  185.2380  178.9810  138.3920 C   0  0  0  0  0  2  0  0  0  0  0  0
  186.0340  178.1390  137.4090 C   0  0  0  0  0  2  0  0  0  0  0  0
  187.4730  178.6150  137.3500 C   0  0  0  0  0  2  0  0  0  0  0  0
  188.3400  177.6660  138.0330 N   0  0  0  0  0  2  0  0  0  0  0  0
  188.7540  177.8630  139.3880 C   0  0  0  0  0  0  0  0  0  0  0  0
  189.5720  176.9230  139.9980 O   0  0  0  0  0  0  0  0  0  0  0  0
  188.3800  178.8800  140.0360 O   0  0  0  0  0  1  0  0  0  0  0  0
  1 12  3  0  0  0  0
  2 13  1  0  0  0  0
  5  7  1  1  0  0  0
  5  3  1  0  0  0  0
  6 10  2  0  0  0  0
  7  4  1  0  0  0  0
  8 18  1  0  0  0  0
  9 12  1  6  0  0  0
  9  4  1  0  0  0  0
  9 28  1  0  0  0  0
 10 11  1  0  0  0  0
 13  3  1  0  0  0  0
 14 51  1  6  0  0  0
 14  6  1  0  0  0  0
 14  1  1  0  0  0  0
 15  6  1  0  0  0  0
 16 15  1  0  0  0  0
 16  8  2  0  0  0  0
 17 11  1  6  0  0  0
 17  2  1  0  0  0  0
 17  5  1  0  0  0  0
 18 11  2  0  0  0  0
 19 24  1  6  0  0  0
 19 27  1  0  0  0  0
 20 28  1  0  0  0  0
 21 22  1  0  0  0  0
 22 19  1  0  0  0  0
 22 34  1  1  0  0  0
 22 27  1  0  0  0  0
 23 20  1  0  0  0  0
 23 29  1  0  0  0  0
 24 25  2  0  0  0  0
 28 24  1  0  0  0  0
 29 26  1  6  0  0  0
 29 21  1  0  0  0  0
 30 33  2  0  0  0  0
 32 33  1  0  0  0  0
 33 31  1  0  0  0  0
 34 30  2  0  0  0  0
 35 16  1  0  0  0  0
 36 37  1  0  0  0  0
 36 35  1  0  0  0  0
 38 37  1  0  0  0  0
 41 44  1  6  0  0  0
 41 40  1  0  0  0  0
 42 39  1  0  0  0  0
 42 45  1  0  0  0  0
 43 39  1  1  0  0  0
 43 46  1  0  0  0  0
 43 41  1  0  0  0  0
 45 44  1  0  0  0  0
 46 38  1  6  0  0  0
 46 47  1  0  0  0  0
 47 48  1  6  0  0  0
 47 40  1  0  0  0  0
 49 50  1  0  0  0  0
 49 48  1  0  0  0  0
 52 51  1  0  0  0  0
 53 52  1  0  0  0  0
 53 54  1  0  0  0  0
 54 55  1  0  0  0  0
 55 56  2  0  0  0  0
 55 57  1  0  0  0  0
M  END
>  <MODEL>
2

>  <REMARK>
 VINA RESULT:      -7.6      1.652      2.138
  Name = 
  13 active torsions:
  status: ('A' for Active; 'I' for Inactive)
    1  A    between atoms: N_2  and  C_27
    2  A    between atoms: N_5  and  C_22
    3  A    between atoms: N_5  and  N_48
    4  A    between atoms: C_9  and  C_26
    5  A    between atoms: C_14  and  C_27
    6  A    between atoms: C_14  and  C_50
    7  A    between atoms: C_22  and  C_54
    8  A    between atoms: C_23  and  C_46
    9  A    between atoms: C_26  and  C_52
   10  A    between atoms: C_30  and  N_53
   11  A    between atoms: C_43  and  C_50
   12  A    between atoms: C_44  and  C_47
   13  A    between atoms: C_44  and  N_48
                            x       y       z     vdW  Elec       q    Type
                         _______ _______ _______ _____ _____    ______ ____

>  <TORSDO>
F 13

$$$$
=
 OpenBabel11042411243D

 57 63  0  0  1  0  0  0  0  0999 V2000
  186.8370  178.1490  140.2070 C   0  0  0  0  0  0  0  0  0  0  0  0
  188.8280  176.5960  145.4280 N   0  0  0  0  0  2  0  0  0  0  0  0
  190.6520  177.7930  144.5980 C   0  0  0  0  0  2  0  0  0  0  0  0
  189.9140  177.5680  141.5200 C   0  0  0  0  0  2  0  0  0  0  0  0
  189.4180  178.3250  143.9410 C   0  0  1  0  0  3  0  0  0  0  0  0
  185.5860  178.3520  142.2250 C   0  0  0  0  0  0  0  0  0  0  0  0
  189.6210  178.7300  142.4730 C   0  0  0  0  0  2  0  0  0  0  0  0
  185.0400  178.6810  145.2190 C   0  0  0  0  0  3  0  0  0  0  0  0
  189.4940  177.9330  140.0900 C   0  0  2  0  0  3  0  0  0  0  0  0
  186.4130  177.5360  142.8100 N   0  0  0  0  0  0  0  0  0  0  0  0
  187.0270  177.6420  144.0980 C   0  0  0  0  0  0  0  0  0  0  0  0
  188.0270  178.0640  140.0430 C   0  0  0  0  0  0  0  0  0  0  0  0
  190.2070  176.8390  145.6150 N   0  0  0  0  0  2  0  0  0  0  0  0
  185.4590  178.2080  140.7240 C   0  0  1  0  0  3  0  0  0  0  0  0
  185.1120  179.5900  142.9230 C   0  0  0  0  0  2  0  0  0  0  0  0
  184.4090  179.2610  144.1960 C   0  0  0  0  0  0  0  0  0  0  0  0
  188.4580  177.1950  144.1550 C   0  0  2  0  0  3  0  0  0  0  0  0
  186.4120  178.1450  145.1770 C   0  0  0  0  0  3  0  0  0  0  0  0
  192.0270  175.5610  138.3200 C   0  0  2  0  0  3  0  0  0  0  0  0
  189.0940  176.0980  138.3610 C   0  0  0  0  0  2  0  0  0  0  0  0
  191.1540  176.6840  136.2320 N   0  0  0  0  0  2  0  0  0  0  0  0
  191.8990  175.5810  136.8470 C   0  0  1  0  0  0  0  0  0  0  0  0
  188.8210  176.7420  137.0060 C   0  0  0  0  0  2  0  0  0  0  0  0
  191.4350  176.7450  139.0440 C   0  0  0  0  0  0  0  0  0  0  0  0
  192.2120  177.5310  139.6610 O   0  0  0  0  0  0  0  0  0  0  0  0
  189.3640  176.7740  134.5940 C   0  0  0  0  0  1  0  0  0  0  0  0
  193.5650  176.0940  137.4210 S   0  0  0  0  0  0  0  0  0  0  0  0
  190.0100  176.9390  139.1370 N   0  0  0  0  0  0  0  0  0  0  0  0
  189.7900  176.2420  135.9470 C   0  0  1  0  0  3  0  0  0  0  0  0
  192.8900  173.4110  136.3130 C   0  0  0  0  0  0  0  0  0  0  0  0
  194.6710  172.6610  137.6200 O   0  0  0  0  0  1  0  0  0  0  0  0
  194.1260  171.5090  135.4810 C   0  0  0  0  0  1  0  0  0  0  0  0
  193.8690  172.5680  136.4900 C   0  0  0  0  0  0  0  0  0  0  0  0
  191.9120  174.2570  136.1410 C   0  0  0  0  0  3  0  0  0  0  0  0
  183.0100  179.7500  144.3810 C   0  0  0  0  0  2  0  0  0  0  0  0
  182.0550  178.7700  143.8840 N   0  0  0  0  0  2  0  0  0  0  0  0
  181.3440  179.3840  142.8410 N   0  0  0  0  0  2  0  0  0  0  0  0
  181.5760  178.5890  141.6420 C   0  0  0  0  0  2  0  0  0  0  0  0
  181.0960  180.9080  139.5470 C   0  0  0  0  0  2  0  0  0  0  0  0
  178.9550  177.6060  138.6040 S   0  0  0  0  0  0  0  0  0  0  0  0
  179.4900  179.3350  138.5420 C   0  0  1  0  0  3  0  0  0  0  0  0
  181.3840  181.5040  138.1640 C   0  0  0  0  0  2  0  0  0  0  0  0
  180.7420  179.4360  139.3730 C   0  0  2  0  0  3  0  0  0  0  0  0
  179.7790  179.8320  137.1340 C   0  0  0  0  0  2  0  0  0  0  0  0
  180.1920  181.3070  137.2140 C   0  0  0  0  0  2  0  0  0  0  0  0
  180.4060  178.7110  140.6560 C   0  0  1  0  0  3  0  0  0  0  0  0
  179.7070  177.3940  140.2680 C   0  0  2  0  0  3  0  0  0  0  0  0
  180.6460  176.1890  140.2420 C   0  0  0  0  0  2  0  0  0  0  0  0
  180.2540  175.2070  139.1510 C   0  0  0  0  0  2  0  0  0  0  0  0
  179.6920  174.0600  139.7150 O   0  0  0  0  0  1  0  0  0  0  0  0
  184.6880  179.3500  140.0690 C   0  0  0  0  0  2  0  0  0  0  0  0
  184.2390  178.9540  138.6720 C   0  0  0  0  0  2  0  0  0  0  0  0
  183.8190  177.4970  138.6450 C   0  0  0  0  0  2  0  0  0  0  0  0
  184.5380  176.7900  137.5960 N   0  0  0  0  0  2  0  0  0  0  0  0
  184.0390  176.7150  136.2580 C   0  0  0  0  0  0  0  0  0  0  0  0
  184.7690  176.0370  135.2910 O   0  0  0  0  0  0  0  0  0  0  0  0
  182.9440  177.2600  135.9450 O   0  0  0  0  0  1  0  0  0  0  0  0
  1 14  1  0  0  0  0
  2 13  1  0  0  0  0
  3 13  1  0  0  0  0
  4  7  1  0  0  0  0
  5  7  1  6  0  0  0
  5 17  1  0  0  0  0
  5  3  1  0  0  0  0
  6 10  2  0  0  0  0
  6 15  1  0  0  0  0
  9 28  1  6  0  0  0
  9  4  1  0  0  0  0
 10 11  1  0  0  0  0
 11 18  2  0  0  0  0
 12  9  1  0  0  0  0
 12  1  3  0  0  0  0
 14 51  1  6  0  0  0
 14  6  1  0  0  0  0
 15 16  1  0  0  0  0
 16 35  1  0  0  0  0
 16  8  2  0  0  0  0
 17 11  1  1  0  0  0
 17  2  1  0  0  0  0
 18  8  1  0  0  0  0
 19 27  1  6  0  0  0
 19 24  1  0  0  0  0
 20 28  1  0  0  0  0
 21 22  1  0  0  0  0
 22 34  1  6  0  0  0
 22 27  1  0  0  0  0
 22 19  1  0  0  0  0
 23 20  1  0  0  0  0
 24 28  1  0  0  0  0
 24 25  2  0  0  0  0
 29 26  1  6  0  0  0
 29 21  1  0  0  0  0
 29 23  1  0  0  0  0
 30 33  2  0  0  0  0
 32 33  1  0  0  0  0
 33 31  1  0  0  0  0
 34 30  2  0  0  0  0
 36 35  1  0  0  0  0
 37 36  1  0  0  0  0
 38 37  1  0  0  0  0
 40 47  1  0  0  0  0
 41 44  1  6  0  0  0
 41 40  1  0  0  0  0
 41 43  1  0  0  0  0
 42 39  1  0  0  0  0
 43 39  1  1  0  0  0
 43 46  1  0  0  0  0
 44 45  1  0  0  0  0
 45 42  1  0  0  0  0
 46 38  1  6  0  0  0
 47 48  1  6  0  0  0
 47 46  1  0  0  0  0
 49 50  1  0  0  0  0
 49 48  1  0  0  0  0
 52 51  1  0  0  0  0
 53 52  1  0  0  0  0
 54 53  1  0  0  0  0
 55 54  1  0  0  0  0
 56 55  2  0  0  0  0
 57 55  1  0  0  0  0
M  END
>  <MODEL>
3

>  <REMARK>
 VINA RESULT:      -7.1      3.666      7.886
  Name = 
  13 active torsions:
  status: ('A' for Active; 'I' for Inactive)
    1  A    between atoms: N_2  and  C_27
    2  A    between atoms: N_5  and  C_22
    3  A    between atoms: N_5  and  N_48
    4  A    between atoms: C_9  and  C_26
    5  A    between atoms: C_14  and  C_27
    6  A    between atoms: C_14  and  C_50
    7  A    between atoms: C_22  and  C_54
    8  A    between atoms: C_23  and  C_46
    9  A    between atoms: C_26  and  C_52
   10  A    between atoms: C_30  and  N_53
   11  A    between atoms: C_43  and  C_50
   12  A    between atoms: C_44  and  C_47
   13  A    between atoms: C_44  and  N_48
                            x       y       z     vdW  Elec       q    Type
                         _______ _______ _______ _____ _____    ______ ____

>  <TORSDO>
F 13

$$$$
=
 OpenBabel11042411243D

 57 63  0  0  1  0  0  0  0  0999 V2000
  186.9700  177.6730  139.2930 C   0  0  0  0  0  0  0  0  0  0  0  0
  191.0890  175.0500  136.1630 N   0  0  0  0  0  2  0  0  0  0  0  0
  190.2320  176.5530  134.5950 C   0  0  0  0  0  2  0  0  0  0  0  0
  187.4220  177.0310  135.9890 C   0  0  0  0  0  2  0  0  0  0  0  0
  190.0040  177.1320  135.9560 C   0  0  1  0  0  3  0  0  0  0  0  0
  189.1870  177.2770  140.0720 C   0  0  0  0  0  0  0  0  0  0  0  0
  188.6800  177.8970  136.0910 C   0  0  0  0  0  2  0  0  0  0  0  0
  192.2120  176.8200  139.9500 C   0  0  0  0  0  3  0  0  0  0  0  0
  186.2530  177.7000  136.7230 C   0  0  2  0  0  3  0  0  0  0  0  0
  189.3590  176.4100  139.1170 N   0  0  0  0  0  0  0  0  0  0  0  0
  190.4740  176.2450  138.2370 C   0  0  0  0  0  0  0  0  0  0  0  0
  186.5470  177.7240  138.1670 C   0  0  0  0  0  0  0  0  0  0  0  0
  191.0410  175.3470  134.7820 N   0  0  0  0  0  2  0  0  0  0  0  0
  187.7600  177.4960  140.5240 C   0  0  1  0  0  3  0  0  0  0  0  0
  190.2620  178.2670  140.4080 C   0  0  0  0  0  2  0  0  0  0  0  0
  191.5260  177.5820  140.8050 C   0  0  0  0  0  0  0  0  0  0  0  0
  190.1170  175.9110  136.8190 C   0  0  2  0  0  3  0  0  0  0  0  0
  191.7500  176.4200  138.6100 C   0  0  0  0  0  3  0  0  0  0  0  0
  182.4200  177.0260  136.5510 C   0  0  2  0  0  3  0  0  0  0  0  0
  184.9520  175.9410  135.4090 C   0  0  0  0  0  2  0  0  0  0  0  0
  183.0840  174.7680  137.4710 N   0  0  0  0  0  2  0  0  0  0  0  0
  182.0720  175.6160  136.8330 C   0  0  1  0  0  0  0  0  0  0  0  0
  185.1120  174.5890  136.0930 C   0  0  0  0  0  2  0  0  0  0  0  0
  183.7780  177.4740  137.0330 C   0  0  0  0  0  0  0  0  0  0  0  0
  183.8410  178.3440  137.9480 O   0  0  0  0  0  0  0  0  0  0  0  0
  183.9750  172.5690  136.9580 C   0  0  0  0  0  1  0  0  0  0  0  0
  181.2940  176.7880  138.0120 S   0  0  0  0  0  0  0  0  0  0  0  0
  184.9920  177.0130  136.4070 N   0  0  0  0  0  0  0  0  0  0  0  0
  183.7650  173.9790  136.4460 C   0  0  1  0  0  3  0  0  0  0  0  0
  180.5800  173.7870  136.1960 C   0  0  0  0  0  0  0  0  0  0  0  0
  180.1200  172.1370  137.7800 O   0  0  0  0  0  1  0  0  0  0  0  0
  179.4930  171.7820  135.3970 C   0  0  0  0  0  1  0  0  0  0  0  0
  180.0870  172.6130  136.4760 C   0  0  0  0  0  0  0  0  0  0  0  0
  181.0740  174.9630  135.9220 C   0  0  0  0  0  3  0  0  0  0  0  0
  192.1160  177.9000  142.1390 C   0  0  0  0  0  2  0  0  0  0  0  0
  191.1020  177.8170  143.1800 N   0  0  0  0  0  2  0  0  0  0  0  0
  191.2620  176.5730  143.8100 N   0  0  0  0  0  2  0  0  0  0  0  0
  190.0080  176.2760  144.4900 C   0  0  0  0  0  2  0  0  0  0  0  0
  187.2920  177.8340  144.9350 C   0  0  0  0  0  2  0  0  0  0  0  0
  189.5990  177.9160  148.2600 S   0  0  0  0  0  0  0  0  0  0  0  0
  188.2390  178.3580  147.1480 C   0  0  1  0  0  3  0  0  0  0  0  0
  185.8800  177.8590  145.5300 C   0  0  0  0  0  2  0  0  0  0  0  0
  188.2610  177.3650  146.0150 C   0  0  2  0  0  3  0  0  0  0  0  0
  186.8730  178.3300  147.8150 C   0  0  0  0  0  2  0  0  0  0  0  0
  185.8190  178.7470  146.7830 C   0  0  0  0  0  2  0  0  0  0  0  0
  189.7090  177.3100  145.5840 C   0  0  1  0  0  3  0  0  0  0  0  0
  190.5630  177.2110  146.8630 C   0  0  2  0  0  3  0  0  0  0  0  0
  190.9750  175.7820  147.2120 C   0  0  0  0  0  2  0  0  0  0  0  0
  192.4820  175.6650  147.3660 C   0  0  0  0  0  2  0  0  0  0  0  0
  192.9120  176.4080  148.4670 O   0  0  0  0  0  1  0  0  0  0  0  0
  187.5930  178.7000  141.4460 C   0  0  0  0  0  2  0  0  0  0  0  0
  186.1890  179.2670  141.3290 C   0  0  0  0  0  2  0  0  0  0  0  0
  185.2310  178.4980  142.2190 C   0  0  0  0  0  2  0  0  0  0  0  0
  183.8710  178.6320  141.7210 N   0  0  0  0  0  2  0  0  0  0  0  0
  182.7520  178.7380  142.6050 C   0  0  0  0  0  0  0  0  0  0  0  0
  181.4740  178.8740  142.0790 O   0  0  0  0  0  0  0  0  0  0  0  0
  182.9120  178.7120  143.8570 O   0  0  0  0  0  1  0  0  0  0  0  0
  1 14  1  0  0  0  0
  3 13  1  0  0  0  0
  4  7  1  0  0  0  0
  5  3  1  6  0  0  0
  5  7  1  0  0  0  0
  5 17  1  0  0  0  0
  6 15  1  0  0  0  0
  6 14  1  0  0  0  0
  8 16  2  0  0  0  0
  9  4  1  6  0  0  0
  9 12  1  0  0  0  0
 10  6  2  0  0  0  0
 11 18  2  0  0  0  0
 11 10  1  0  0  0  0
 12  1  3  0  0  0  0
 13  2  1  0  0  0  0
 14 51  1  1  0  0  0
 15 16  1  0  0  0  0
 16 35  1  0  0  0  0
 17  2  1  6  0  0  0
 17 11  1  0  0  0  0
 18  8  1  0  0  0  0
 19 22  1  0  0  0  0
 19 24  1  1  0  0  0
 19 27  1  0  0  0  0
 20 23  1  0  0  0  0
 20 28  1  0  0  0  0
 22 34  1  6  0  0  0
 22 21  1  0  0  0  0
 22 27  1  0  0  0  0
 23 29  1  0  0  0  0
 24 25  2  0  0  0  0
 28  9  1  0  0  0  0
 28 24  1  0  0  0  0
 29 26  1  1  0  0  0
 29 21  1  0  0  0  0
 30 33  2  0  0  0  0
 32 33  1  0  0  0  0
 33 31  1  0  0  0  0
 34 30  2  0  0  0  0
 35 36  1  0  0  0  0
 36 37  1  0  0  0  0
 37 38  1  0  0  0  0
 39 42  1  0  0  0  0
 41 44  1  1  0  0  0
 41 40  1  0  0  0  0
 42 45  1  0  0  0  0
 43 39  1  6  0  0  0
 43 41  1  0  0  0  0
 45 44  1  0  0  0  0
 46 38  1  6  0  0  0
 46 43  1  0  0  0  0
 46 47  1  0  0  0  0
 47 48  1  1  0  0  0
 47 40  1  0  0  0  0
 48 49  1  0  0  0  0
 49 50  1  0  0  0  0
 52 51  1  0  0  0  0
 52 53  1  0  0  0  0
 54 53  1  0  0  0  0
 54 55  1  0  0  0  0
 55 57  1  0  0  0  0
 56 55  2  0  0  0  0
M  END
>  <MODEL>
4

>  <REMARK>
 VINA RESULT:      -7.0      2.582     11.253
  Name = 
  13 active torsions:
  status: ('A' for Active; 'I' for Inactive)
    1  A    between atoms: N_2  and  C_27
    2  A    between atoms: N_5  and  C_22
    3  A    between atoms: N_5  and  N_48
    4  A    between atoms: C_9  and  C_26
    5  A    between atoms: C_14  and  C_27
    6  A    between atoms: C_14  and  C_50
    7  A    between atoms: C_22  and  C_54
    8  A    between atoms: C_23  and  C_46
    9  A    between atoms: C_26  and  C_52
   10  A    between atoms: C_30  and  N_53
   11  A    between atoms: C_43  and  C_50
   12  A    between atoms: C_44  and  C_47
   13  A    between atoms: C_44  and  N_48
                            x       y       z     vdW  Elec       q    Type
                         _______ _______ _______ _____ _____    ______ ____

>  <TORSDO>
F 13

$$$$
=
 OpenBabel11042411243D

 57 63  0  0  1  0  0  0  0  0999 V2000
  190.1010  176.8860  139.4680 C   0  0  0  0  0  0  0  0  0  0  0  0
  185.8570  177.3410  135.5400 N   0  0  0  0  0  2  0  0  0  0  0  0
  186.2480  175.0390  135.5040 C   0  0  0  0  0  2  0  0  0  0  0  0
  189.1760  175.1090  136.7260 C   0  0  0  0  0  2  0  0  0  0  0  0
  186.6330  175.5480  136.8580 C   0  0  1  0  0  3  0  0  0  0  0  0
  188.1120  178.1570  139.7950 C   0  0  0  0  0  0  0  0  0  0  0  0
  187.8590  174.8450  137.4590 C   0  0  0  0  0  2  0  0  0  0  0  0
  185.1880  179.0070  139.4790 C   0  0  0  0  0  3  0  0  0  0  0  0
  190.3640  174.9240  137.6790 C   0  0  2  0  0  3  0  0  0  0  0  0
  187.8870  178.1190  138.5150 N   0  0  0  0  0  0  0  0  0  0  0  0
  186.6660  177.8460  137.8200 C   0  0  0  0  0  0  0  0  0  0  0  0
  190.3180  175.9770  138.7090 C   0  0  0  0  0  0  0  0  0  0  0  0
  185.6350  176.1620  134.7930 N   0  0  0  0  0  2  0  0  0  0  0  0
  189.5590  178.0310  140.2210 C   0  0  1  0  0  3  0  0  0  0  0  0
  186.9990  177.9350  140.7740 C   0  0  0  0  0  2  0  0  0  0  0  0
  185.9120  178.9420  140.5980 C   0  0  0  0  0  0  0  0  0  0  0  0
  186.8160  177.0100  136.5840 C   0  0  2  0  0  3  0  0  0  0  0  0
  185.4610  178.2490  138.2460 C   0  0  0  0  0  3  0  0  0  0  0  0
  192.9430  173.9960  134.9110 C   0  0  2  0  0  3  0  0  0  0  0  0
  192.6300  175.9630  137.1310 C   0  0  0  0  0  2  0  0  0  0  0  0
  194.4560  173.5700  136.8910 N   0  0  0  0  0  2  0  0  0  0  0  0
  194.3050  173.7750  135.4470 C   0  0  1  0  0  0  0  0  0  0  0  0
  193.6500  175.5090  138.1690 C   0  0  0  0  0  2  0  0  0  0  0  0
  191.8230  173.9030  135.9170 C   0  0  0  0  0  0  0  0  0  0  0  0
  190.9840  172.9620  135.8080 O   0  0  0  0  0  0  0  0  0  0  0  0
  195.9000  174.5630  138.5710 C   0  0  0  0  0  1  0  0  0  0  0  0
  193.6300  172.2970  134.5940 S   0  0  0  0  0  0  0  0  0  0  0  0
  191.6260  174.9140  136.9260 N   0  0  0  0  0  0  0  0  0  0  0  0
  194.8440  174.8320  137.5170 C   0  0  1  0  0  3  0  0  0  0  0  0
  196.6820  174.1190  134.9910 C   0  0  0  0  0  0  0  0  0  0  0  0
  198.2130  172.6500  135.9600 O   0  0  0  0  0  1  0  0  0  0  0  0
  199.0110  174.7560  134.8990 C   0  0  0  0  0  1  0  0  0  0  0  0
  197.9180  173.8270  135.2850 C   0  0  0  0  0  0  0  0  0  0  0  0
  195.4430  174.4050  134.6990 C   0  0  0  0  0  3  0  0  0  0  0  0
  185.5230  179.7780  141.7720 C   0  0  0  0  0  2  0  0  0  0  0  0
  185.0020  178.9440  142.8450 N   0  0  0  0  0  2  0  0  0  0  0  0
  183.7300  179.4420  143.1700 N   0  0  0  0  0  2  0  0  0  0  0  0
  182.7620  178.4330  142.7620 C   0  0  0  0  0  2  0  0  0  0  0  0
  182.7480  176.7940  140.0580 C   0  0  0  0  0  2  0  0  0  0  0  0
  179.7440  179.5040  140.1520 S   0  0  0  0  0  0  0  0  0  0  0  0
  180.8810  178.2820  139.4510 C   0  0  1  0  0  3  0  0  0  0  0  0
  182.1370  175.6740  139.2080 C   0  0  0  0  0  2  0  0  0  0  0  0
  181.6170  177.6550  140.6070 C   0  0  2  0  0  3  0  0  0  0  0  0
  180.1850  177.1940  138.6470 C   0  0  0  0  0  2  0  0  0  0  0  0
  181.2520  176.2440  138.0880 C   0  0  0  0  0  2  0  0  0  0  0  0
  182.0650  178.8250  141.4520 C   0  0  1  0  0  3  0  0  0  0  0  0
  180.8640  179.7820  141.5820 C   0  0  2  0  0  3  0  0  0  0  0  0
  180.0750  179.5970  142.8770 C   0  0  0  0  0  2  0  0  0  0  0  0
  179.4290  178.2240  142.9390 C   0  0  0  0  0  2  0  0  0  0  0  0
  179.6720  177.6330  144.1800 O   0  0  0  0  0  1  0  0  0  0  0  0
  189.7330  177.8170  141.7210 C   0  0  0  0  0  2  0  0  0  0  0  0
  190.1830  176.3930  142.0050 C   0  0  0  0  0  2  0  0  0  0  0  0
  189.6500  175.9280  143.3470 C   0  0  0  0  0  2  0  0  0  0  0  0
  188.4860  176.7170  143.7220 N   0  0  0  0  0  2  0  0  0  0  0  0
  188.3050  177.2070  145.0530 C   0  0  0  0  0  0  0  0  0  0  0  0
  187.1820  177.9640  145.3570 O   0  0  0  0  0  0  0  0  0  0  0  0
  189.1560  176.9640  145.9530 O   0  0  0  0  0  1  0  0  0  0  0  0
  1 14  1  0  0  0  0
  4  7  1  0  0  0  0
  5  3  1  6  0  0  0
  5  7  1  0  0  0  0
  6 14  1  0  0  0  0
  6 15  1  0  0  0  0
  8 16  2  0  0  0  0
  9  4  1  6  0  0  0
  9 12  1  0  0  0  0
 10  6  2  0  0  0  0
 11 18  2  0  0  0  0
 11 10  1  0  0  0  0
 12  1  3  0  0  0  0
 13  3  1  0  0  0  0
 13  2  1  0  0  0  0
 14 51  1  1  0  0  0
 16 15  1  0  0  0  0
 16 35  1  0  0  0  0
 17  2  1  6  0  0  0
 17  5  1  0  0  0  0
 17 11  1  0  0  0  0
 18  8  1  0  0  0  0
 19 27  1  6  0  0  0
 19 22  1  0  0  0  0
 19 24  1  0  0  0  0
 20 23  1  0  0  0  0
 21 29  1  0  0  0  0
 22 34  1  6  0  0  0
 22 21  1  0  0  0  0
 24 28  1  0  0  0  0
 25 24  2  0  0  0  0
 27 22  1  0  0  0  0
 28 20  1  0  0  0  0
 28  9  1  0  0  0  0
 29 23  1  0  0  0  0
 29 26  1  1  0  0  0
 30 33  2  0  0  0  0
 32 33  1  0  0  0  0
 33 31  1  0  0  0  0
 34 30  2  0  0  0  0
 35 36  1  0  0  0  0
 36 37  1  0  0  0  0
 38 37  1  0  0  0  0
 40 47  1  0  0  0  0
 41 44  1  1  0  0  0
 41 40  1  0  0  0  0
 41 43  1  0  0  0  0
 42 39  1  0  0  0  0
 43 39  1  6  0  0  0
 43 46  1  0  0  0  0
 45 44  1  0  0  0  0
 45 42  1  0  0  0  0
 46 47  1  0  0  0  0
 46 38  1  1  0  0  0
 47 48  1  1  0  0  0
 48 49  1  0  0  0  0
 49 50  1  0  0  0  0
 51 52  1  0  0  0  0
 52 53  1  0  0  0  0
 53 54  1  0  0  0  0
 54 55  1  0  0  0  0
 55 56  2  0  0  0  0
 55 57  1  0  0  0  0
M  END
>  <MODEL>
5

>  <REMARK>
 VINA RESULT:      -6.2      4.998      9.027
  Name = 
  13 active torsions:
  status: ('A' for Active; 'I' for Inactive)
    1  A    between atoms: N_2  and  C_27
    2  A    between atoms: N_5  and  C_22
    3  A    between atoms: N_5  and  N_48
    4  A    between atoms: C_9  and  C_26
    5  A    between atoms: C_14  and  C_27
    6  A    between atoms: C_14  and  C_50
    7  A    between atoms: C_22  and  C_54
    8  A    between atoms: C_23  and  C_46
    9  A    between atoms: C_26  and  C_52
   10  A    between atoms: C_30  and  N_53
   11  A    between atoms: C_43  and  C_50
   12  A    between atoms: C_44  and  C_47
   13  A    between atoms: C_44  and  N_48
                            x       y       z     vdW  Elec       q    Type
                         _______ _______ _______ _____ _____    ______ ____

>  <TORSDO>
F 13

$$$$
=
 OpenBabel11042411243D

 57 63  0  0  1  0  0  0  0  0999 V2000
  186.0010  177.8500  139.5920 C   0  0  0  0  0  0  0  0  0  0  0  0
  189.5420  174.7780  136.1780 N   0  0  0  0  0  2  0  0  0  0  0  0
  188.4660  176.1230  134.6020 C   0  0  0  0  0  2  0  0  0  0  0  0
  185.9170  176.8340  136.3530 C   0  0  0  0  0  2  0  0  0  0  0  0
  188.4620  176.8550  135.9070 C   0  0  1  0  0  3  0  0  0  0  0  0
  188.3080  177.4780  140.0560 C   0  0  0  0  0  0  0  0  0  0  0  0
  187.1850  177.6690  136.1580 C   0  0  0  0  0  2  0  0  0  0  0  0
  191.2700  176.9220  139.5170 C   0  0  0  0  0  3  0  0  0  0  0  0
  184.8860  177.6140  137.1790 C   0  0  2  0  0  3  0  0  0  0  0  0
  188.3170  176.5060  139.1910 N   0  0  0  0  0  0  0  0  0  0  0  0
  189.2770  176.2130  138.1720 C   0  0  0  0  0  0  0  0  0  0  0  0
  185.4050  177.7880  138.5480 C   0  0  0  0  0  0  0  0  0  0  0  0
  189.2800  174.9210  134.7960 N   0  0  0  0  0  2  0  0  0  0  0  0
  186.9730  177.7870  140.6970 C   0  0  1  0  0  3  0  0  0  0  0  0
  189.4340  178.4670  140.1050 C   0  0  0  0  0  2  0  0  0  0  0  0
  190.7370  177.7940  140.3760 C   0  0  0  0  0  0  0  0  0  0  0  0
  188.6960  175.7350  136.8750 C   0  0  2  0  0  3  0  0  0  0  0  0
  190.5980  176.3900  138.3200 C   0  0  0  0  0  3  0  0  0  0  0  0
  181.4320  176.4330  135.8180 C   0  0  2  0  0  3  0  0  0  0  0  0
  183.2700  175.8630  138.0960 C   0  0  0  0  0  2  0  0  0  0  0  0
  180.6050  177.2810  138.0500 N   0  0  0  0  0  2  0  0  0  0  0  0
  180.3630  176.4910  136.8390 C   0  0  1  0  0  0  0  0  0  0  0  0
  182.5440  176.4410  139.3060 C   0  0  0  0  0  2  0  0  0  0  0  0
  182.6510  177.2770  136.1000 C   0  0  0  0  0  0  0  0  0  0  0  0
  182.9040  178.2530  135.3370 O   0  0  0  0  0  0  0  0  0  0  0  0
  180.3670  176.8100  140.4200 C   0  0  0  0  0  1  0  0  0  0  0  0
  180.0050  177.5400  135.3760 S   0  0  0  0  0  0  0  0  0  0  0  0
  183.5830  176.9330  137.1440 N   0  0  0  0  0  0  0  0  0  0  0  0
  181.0360  176.3910  139.1260 C   0  0  1  0  0  3  0  0  0  0  0  0
  179.9160  174.0880  136.8960 C   0  0  0  0  0  0  0  0  0  0  0  0
  181.7230  172.6370  137.1550 O   0  0  0  0  0  1  0  0  0  0  0  0
  179.4970  171.7440  136.4880 C   0  0  0  0  0  1  0  0  0  0  0  0
  180.3880  172.8740  136.8570 C   0  0  0  0  0  0  0  0  0  0  0  0
  179.4480  175.3050  136.9380 C   0  0  0  0  0  3  0  0  0  0  0  0
  191.5350  178.2400  141.5570 C   0  0  0  0  0  2  0  0  0  0  0  0
  191.8400  177.1110  142.4240 N   0  0  0  0  0  2  0  0  0  0  0  0
  192.0500  177.6300  143.7120 N   0  0  0  0  0  2  0  0  0  0  0  0
  191.4770  176.6770  144.6520 C   0  0  0  0  0  2  0  0  0  0  0  0
  188.4870  177.7060  144.6700 C   0  0  0  0  0  2  0  0  0  0  0  0
  189.9510  177.3720  148.4280 S   0  0  0  0  0  0  0  0  0  0  0  0
  188.8100  177.8550  147.1070 C   0  0  1  0  0  3  0  0  0  0  0  0
  186.9990  177.4030  144.8820 C   0  0  0  0  0  2  0  0  0  0  0  0
  189.2650  177.1500  145.8560 C   0  0  2  0  0  3  0  0  0  0  0  0
  187.3610  177.4920  147.3910 C   0  0  0  0  0  2  0  0  0  0  0  0
  186.4990  177.9760  146.2180 C   0  0  0  0  0  2  0  0  0  0  0  0
  190.7560  177.3930  145.8030 C   0  0  1  0  0  3  0  0  0  0  0  0
  191.3120  177.1330  147.2170 C   0  0  2  0  0  3  0  0  0  0  0  0
  191.8990  175.7340  147.3950 C   0  0  0  0  0  2  0  0  0  0  0  0
  192.6820  175.6240  148.6920 C   0  0  0  0  0  2  0  0  0  0  0  0
  193.3130  176.8360  148.9770 O   0  0  0  0  0  1  0  0  0  0  0  0
  186.9690  179.0900  141.4910 C   0  0  0  0  0  2  0  0  0  0  0  0
  185.5440  179.5610  141.7290 C   0  0  0  0  0  2  0  0  0  0  0  0
  185.0860  179.1790  143.1240 C   0  0  0  0  0  2  0  0  0  0  0  0
  183.6610  178.8890  143.1200 N   0  0  0  0  0  2  0  0  0  0  0  0
  182.8810  178.9220  144.3180 C   0  0  0  0  0  0  0  0  0  0  0  0
  181.5210  178.6490  144.2590 O   0  0  0  0  0  0  0  0  0  0  0  0
  183.4140  179.2020  145.4280 O   0  0  0  0  0  1  0  0  0  0  0  0
  1 14  1  0  0  0  0
  3 13  1  0  0  0  0
  5  3  1  6  0  0  0
  5  7  1  0  0  0  0
  5 17  1  0  0  0  0
  6 15  1  0  0  0  0
  6 14  1  0  0  0  0
  7  4  1  0  0  0  0
  8 16  2  0  0  0  0
  9  4  1  6  0  0  0
  9 12  1  0  0  0  0
 10  6  2  0  0  0  0
 11 18  2  0  0  0  0
 11 10  1  0  0  0  0
 12  1  3  0  0  0  0
 13  2  1  0  0  0  0
 14 51  1  6  0  0  0
 15 16  1  0  0  0  0
 16 35  1  0  0  0  0
 17  2  1  6  0  0  0
 17 11  1  0  0  0  0
 18  8  1  0  0  0  0
 19 27  1  6  0  0  0
 19 24  1  0  0  0  0
 19 22  1  0  0  0  0
 20 23  1  0  0  0  0
 21 29  1  0  0  0  0
 22 34  1  1  0  0  0
 22 21  1  0  0  0  0
 24 28  1  0  0  0  0
 25 24  2  0  0  0  0
 27 22  1  0  0  0  0
 28  9  1  0  0  0  0
 28 20  1  0  0  0  0
 29 23  1  0  0  0  0
 29 26  1  1  0  0  0
 30 34  2  0  0  0  0
 32 33  1  0  0  0  0
 33 30  2  0  0  0  0
 33 31  1  0  0  0  0
 35 36  1  0  0  0  0
 36 37  1  0  0  0  0
 37 38  1  0  0  0  0
 39 42  1  0  0  0  0
 41 44  1  1  0  0  0
 41 40  1  0  0  0  0
 42 45  1  0  0  0  0
 43 39  1  6  0  0  0
 43 41  1  0  0  0  0
 45 44  1  0  0  0  0
 46 38  1  6  0  0  0
 46 43  1  0  0  0  0
 46 47  1  0  0  0  0
 47 48  1  6  0  0  0
 47 40  1  0  0  0  0
 48 49  1  0  0  0  0
 49 50  1  0  0  0  0
 51 52  1  0  0  0  0
 52 53  1  0  0  0  0
 54 53  1  0  0  0  0
 54 55  1  0  0  0  0
 55 57  1  0  0  0  0
 56 55  2  0  0  0  0
M  END
>  <MODEL>
6

>  <REMARK>
 VINA RESULT:      -6.0      2.761     11.193
  Name = 
  13 active torsions:
  status: ('A' for Active; 'I' for Inactive)
    1  A    between atoms: N_2  and  C_27
    2  A    between atoms: N_5  and  C_22
    3  A    between atoms: N_5  and  N_48
    4  A    between atoms: C_9  and  C_26
    5  A    between atoms: C_14  and  C_27
    6  A    between atoms: C_14  and  C_50
    7  A    between atoms: C_22  and  C_54
    8  A    between atoms: C_23  and  C_46
    9  A    between atoms: C_26  and  C_52
   10  A    between atoms: C_30  and  N_53
   11  A    between atoms: C_43  and  C_50
   12  A    between atoms: C_44  and  C_47
   13  A    between atoms: C_44  and  N_48
                            x       y       z     vdW  Elec       q    Type
                         _______ _______ _______ _____ _____    ______ ____

>  <TORSDO>
F 13

$$$$
=
 OpenBabel11042411243D

 57 63  0  0  1  0  0  0  0  0999 V2000
  187.4520  177.8830  140.1320 C   0  0  0  0  0  0  0  0  0  0  0  0
  189.5970  176.5270  145.3470 N   0  0  0  0  0  2  0  0  0  0  0  0
  191.3940  177.6940  144.4200 C   0  0  0  0  0  2  0  0  0  0  0  0
  190.5670  177.3540  141.3750 C   0  0  0  0  0  2  0  0  0  0  0  0
  190.1400  178.2000  143.7800 C   0  0  1  0  0  3  0  0  0  0  0  0
  186.2600  178.1600  142.1760 C   0  0  0  0  0  0  0  0  0  0  0  0
  190.3010  178.5500  142.2930 C   0  0  0  0  0  2  0  0  0  0  0  0
  185.8010  178.6000  145.1710 C   0  0  0  0  0  3  0  0  0  0  0  0
  190.1050  177.6650  139.9460 C   0  0  2  0  0  3  0  0  0  0  0  0
  187.1060  177.3670  142.7670 N   0  0  0  0  0  0  0  0  0  0  0  0
  187.7560  177.5210  144.0320 C   0  0  0  0  0  0  0  0  0  0  0  0
  188.6370  177.7930  139.9370 C   0  0  0  0  0  0  0  0  0  0  0  0
  190.9810  176.7770  145.4850 N   0  0  0  0  0  2  0  0  0  0  0  0
  186.0900  177.9600  140.6860 C   0  0  1  0  0  3  0  0  0  0  0  0
  185.8050  179.4230  142.8420 C   0  0  0  0  0  2  0  0  0  0  0  0
  185.1390  179.1410  144.1460 C   0  0  0  0  0  0  0  0  0  0  0  0
  189.1890  177.0780  144.0640 C   0  0  2  0  0  3  0  0  0  0  0  0
  187.1720  178.0640  145.1090 C   0  0  0  0  0  3  0  0  0  0  0  0
  192.6250  175.3880  138.0370 C   0  0  2  0  0  3  0  0  0  0  0  0
  189.6820  175.6380  138.4540 C   0  0  0  0  0  2  0  0  0  0  0  0
  191.3590  176.2080  136.0090 N   0  0  0  0  0  2  0  0  0  0  0  0
  192.2980  175.2500  136.6010 C   0  0  1  0  0  0  0  0  0  0  0  0
  189.1600  176.1140  137.1030 C   0  0  0  0  0  2  0  0  0  0  0  0
  192.0080  176.5750  138.7360 C   0  0  0  0  0  0  0  0  0  0  0  0
  192.7680  177.4890  139.1650 O   0  0  0  0  0  0  0  0  0  0  0  0
  189.3670  175.9600  134.6430 C   0  0  0  0  0  1  0  0  0  0  0  0
  193.9590  175.9770  136.8830 S   0  0  0  0  0  0  0  0  0  0  0  0
  190.5960  176.6370  139.0160 N   0  0  0  0  0  0  0  0  0  0  0  0
  190.0270  175.6090  135.9610 C   0  0  1  0  0  3  0  0  0  0  0  0
  193.3590  173.0700  136.2800 C   0  0  0  0  0  0  0  0  0  0  0  0
  195.1310  172.4900  137.6820 O   0  0  0  0  0  1  0  0  0  0  0  0
  194.6650  171.1390  135.6440 C   0  0  0  0  0  1  0  0  0  0  0  0
  194.3560  172.2740  136.5500 C   0  0  0  0  0  0  0  0  0  0  0  0
  192.3620  173.8690  136.0150 C   0  0  0  0  0  3  0  0  0  0  0  0
  183.7460  179.6350  144.3540 C   0  0  0  0  0  2  0  0  0  0  0  0
  182.8460  178.5270  144.6380 N   0  0  0  0  0  2  0  0  0  0  0  0
  182.1190  178.2780  143.4640 N   0  0  0  0  0  2  0  0  0  0  0  0
  182.4600  179.3350  142.5210 C   0  0  0  0  0  2  0  0  0  0  0  0
  182.3000  177.0990  140.2900 C   0  0  0  0  0  2  0  0  0  0  0  0
  178.9680  179.3950  140.3150 S   0  0  0  0  0  0  0  0  0  0  0  0
  180.1610  178.1750  139.7110 C   0  0  1  0  0  3  0  0  0  0  0  0
  181.7470  175.7450  139.8310 C   0  0  0  0  0  2  0  0  0  0  0  0
  181.1440  177.9330  140.8280 C   0  0  2  0  0  3  0  0  0  0  0  0
  179.5280  176.8530  139.3040 C   0  0  0  0  0  2  0  0  0  0  0  0
  180.6330  175.9230  138.7880 C   0  0  0  0  0  2  0  0  0  0  0  0
  181.5290  179.3170  141.3010 C   0  0  1  0  0  3  0  0  0  0  0  0
  180.2290  180.1350  141.4270 C   0  0  2  0  0  3  0  0  0  0  0  0
  179.6750  180.1830  142.8500 C   0  0  0  0  0  2  0  0  0  0  0  0
  178.9430  178.8980  143.2000 C   0  0  0  0  0  2  0  0  0  0  0  0
  179.0510  178.6400  144.5680 O   0  0  0  0  0  1  0  0  0  0  0  0
  185.2990  179.0770  140.0120 C   0  0  0  0  0  2  0  0  0  0  0  0
  185.4510  178.9970  138.5020 C   0  0  0  0  0  2  0  0  0  0  0  0
  184.6330  177.8450  137.9480 C   0  0  0  0  0  2  0  0  0  0  0  0
  185.5010  176.9090  137.2500 N   0  0  0  0  0  2  0  0  0  0  0  0
  185.0030  175.6870  136.6990 C   0  0  0  0  0  0  0  0  0  0  0  0
  185.8700  174.8320  136.0330 O   0  0  0  0  0  0  0  0  0  0  0  0
  183.7830  175.3780  136.8090 O   0  0  0  0  0  1  0  0  0  0  0  0
  1 14  1  0  0  0  0
  2 13  1  0  0  0  0
  3 13  1  0  0  0  0
  4  7  1  0  0  0  0
  5  7  1  6  0  0  0
  5 17  1  0  0  0  0
  5  3  1  0  0  0  0
  6 10  2  0  0  0  0
  6 15  1  0  0  0  0
  9 28  1  6  0  0  0
  9  4  1  0  0  0  0
 10 11  1  0  0  0  0
 11 18  2  0  0  0  0
 12  9  1  0  0  0  0
 12  1  3  0  0  0  0
 14 51  1  6  0  0  0
 14  6  1  0  0  0  0
 15 16  1  0  0  0  0
 16 35  1  0  0  0  0
 16  8  2  0  0  0  0
 17 11  1  1  0  0  0
 17  2  1  0  0  0  0
 18  8  1  0  0  0  0
 19 27  1  6  0  0  0
 19 24  1  0  0  0  0
 20 28  1  0  0  0  0
 21 22  1  0  0  0  0
 22 34  1  6  0  0  0
 22 27  1  0  0  0  0
 22 19  1  0  0  0  0
 23 20  1  0  0  0  0
 24 28  1  0  0  0  0
 24 25  2  0  0  0  0
 29 26  1  6  0  0  0
 29 21  1  0  0  0  0
 29 23  1  0  0  0  0
 30 33  2  0  0  0  0
 32 33  1  0  0  0  0
 33 31  1  0  0  0  0
 34 30  2  0  0  0  0
 35 36  1  0  0  0  0
 37 36  1  0  0  0  0
 38 37  1  0  0  0  0
 40 47  1  0  0  0  0
 41 44  1  1  0  0  0
 41 40  1  0  0  0  0
 41 43  1  0  0  0  0
 42 39  1  0  0  0  0
 43 39  1  6  0  0  0
 43 46  1  0  0  0  0
 45 44  1  0  0  0  0
 45 42  1  0  0  0  0
 46 47  1  0  0  0  0
 46 38  1  1  0  0  0
 47 48  1  1  0  0  0
 48 49  1  0  0  0  0
 49 50  1  0  0  0  0
 52 51  1  0  0  0  0
 53 52  1  0  0  0  0
 54 53  1  0  0  0  0
 55 57  1  0  0  0  0
 55 54  1  0  0  0  0
 56 55  2  0  0  0  0
M  END
>  <MODEL>
7

>  <REMARK>
 VINA RESULT:      -5.8      4.001      8.126
  Name = 
  13 active torsions:
  status: ('A' for Active; 'I' for Inactive)
    1  A    between atoms: N_2  and  C_27
    2  A    between atoms: N_5  and  C_22
    3  A    between atoms: N_5  and  N_48
    4  A    between atoms: C_9  and  C_26
    5  A    between atoms: C_14  and  C_27
    6  A    between atoms: C_14  and  C_50
    7  A    between atoms: C_22  and  C_54
    8  A    between atoms: C_23  and  C_46
    9  A    between atoms: C_26  and  C_52
   10  A    between atoms: C_30  and  N_53
   11  A    between atoms: C_43  and  C_50
   12  A    between atoms: C_44  and  C_47
   13  A    between atoms: C_44  and  N_48
                            x       y       z     vdW  Elec       q    Type
                         _______ _______ _______ _____ _____    ______ ____

>  <TORSDO>
F 13

$$$$
