=
 OpenBabel11032420313D

 33 38  0  0  1  0  0  0  0  0999 V2000
  189.0000  177.4880  143.5400 N   0  0  0  0  0  0  0  0  0  0  0  0
  191.2730  176.4290  146.1570 N   0  0  0  0  0  0  0  0  0  0  0  0
  186.4500  178.6500  141.3760 O   0  0  0  0  0  0  0  0  0  0  0  0
  190.6910  176.5550  140.3770 C   0  0  0  0  0  3  0  0  0  0  0  0
  187.7590  178.3260  141.6620 C   0  0  2  0  0  3  0  0  0  0  0  0
  186.6700  178.4050  143.7110 C   0  0  0  0  0  2  0  0  0  0  0  0
  188.6230  177.7690  140.7990 C   0  0  0  0  0  0  0  0  0  0  0  0
  188.0590  178.5160  143.0990 C   0  0  1  0  0  3  0  0  0  0  0  0
  189.4760  177.3200  144.8660 C   0  0  0  0  0  0  0  0  0  0  0  0
  190.6750  176.6370  144.9550 C   0  0  0  0  0  0  0  0  0  0  0  0
  189.2630  177.1930  138.5340 C   0  0  0  0  0  3  0  0  0  0  0  0
  190.4510  176.6000  138.9940 C   0  0  0  0  0  0  0  0  0  0  0  0
  189.7880  177.1170  141.2880 C   0  0  0  0  0  0  0  0  0  0  0  0
  188.8740  178.0590  148.4510 N   0  0  0  0  0  1  0  0  0  0  0  0
  191.3700  176.1220  143.3850 S   0  0  0  0  0  0  0  0  0  0  0  0
  190.6930  176.8840  147.3040 C   0  0  0  0  0  3  0  0  0  0  0  0
  188.3550  177.7670  139.4270 C   0  0  0  0  0  3  0  0  0  0  0  0
  189.9650  176.9650  142.6180 C   0  0  2  0  0  3  0  0  0  0  0  0
  188.8580  177.8100  146.0170 C   0  0  0  0  0  3  0  0  0  0  0  0
  185.7220  178.8480  142.5820 C   0  0  2  0  0  3  0  0  0  0  0  0
  189.4750  177.5810  147.2530 C   0  0  0  0  0  0  0  0  0  0  0  0
  191.3880  176.0150  138.0660 N   0  0  0  0  0  0  0  0  0  0  0  0
  193.2720  175.4380  135.7700 C   0  0  0  0  0  2  0  0  0  0  0  0
  190.7570  175.1200  135.8470 C   0  0  0  0  0  2  0  0  0  0  0  0
  193.5700  176.3070  136.9540 C   0  0  0  0  0  3  0  0  0  0  0  0
  191.9310  175.8180  135.1550 C   0  0  0  0  0  2  0  0  0  0  0  0
  192.7200  176.5570  137.9600 C   0  0  0  0  0  3  0  0  0  0  0  0
  191.0090  174.8100  137.3230 C   0  0  0  0  0  2  0  0  0  0  0  0
  184.4750  177.9850  142.5920 C   0  0  0  0  0  2  0  0  0  0  0  0
  183.2360  178.8600  142.6430 C   0  0  0  0  0  2  0  0  0  0  0  0
  181.4250  178.5830  144.1640 O   0  0  0  0  0  0  0  0  0  0  0  0
  183.4670  179.1050  145.1410 N   0  0  0  0  0  1  0  0  0  0  0  0
  182.6500  178.8270  144.0090 C   0  0  0  0  0  0  0  0  0  0  0  0
  1  9  1  0  0  0  0
  2 16  1  0  0  0  0
  3  5  1  0  0  0  0
  3 20  1  0  0  0  0
  4 13  1  0  0  0  0
  5  7  1  1  0  0  0
  5  8  1  0  0  0  0
  7 13  2  0  0  0  0
  8  1  1  0  0  0  0
  8  6  1  1  0  0  0
  9 10  1  0  0  0  0
  9 19  2  0  0  0  0
 10  2  2  0  0  0  0
 11 12  1  0  0  0  0
 11 17  2  0  0  0  0
 12  4  2  0  0  0  0
 15 10  1  0  0  0  0
 17  7  1  0  0  0  0
 18 13  1  6  0  0  0
 18 15  1  0  0  0  0
 18  1  1  0  0  0  0
 19 21  1  0  0  0  0
 20 29  1  6  0  0  0
 20  6  1  0  0  0  0
 21 16  2  0  0  0  0
 21 14  1  0  0  0  0
 22 12  1  0  0  0  0
 23 25  1  0  0  0  0
 24 28  1  0  0  0  0
 25 27  2  0  0  0  0
 26 23  1  0  0  0  0
 26 24  1  0  0  0  0
 27 22  1  0  0  0  0
 28 22  1  0  0  0  0
 29 30  1  0  0  0  0
 30 33  1  0  0  0  0
 33 31  2  0  0  0  0
 33 32  1  0  0  0  0
M  END
>  <MODEL>
1

>  <REMARK>
 VINA RESULT:      -9.1      0.000      0.000
  Name = 
  4 active torsions:
  status: ('A' for Active; 'I' for Inactive)
    1  A    between atoms: N_6  and  C_18
    2  A    between atoms: C_11  and  C_21
    3  A    between atoms: C_11  and  C_31
    4  A    between atoms: C_21  and  C_25
                            x       y       z     vdW  Elec       q    Type
                         _______ _______ _______ _____ _____    ______ ____

>  <TORSDO>
F 4

$$$$
=
 OpenBabel11032420313D

 33 38  0  0  1  0  0  0  0  0999 V2000
  188.9990  177.5880  143.1550 N   0  0  0  0  0  0  0  0  0  0  0  0
  191.4580  176.4140  145.5450 N   0  0  0  0  0  0  0  0  0  0  0  0
  186.2900  178.8260  141.2410 O   0  0  0  0  0  0  0  0  0  0  0  0
  190.5070  176.9270  139.8350 C   0  0  0  0  0  3  0  0  0  0  0  0
  187.6210  178.5200  141.4220 C   0  0  2  0  0  3  0  0  0  0  0  0
  186.6630  178.4250  143.5340 C   0  0  0  0  0  2  0  0  0  0  0  0
  188.4420  178.0490  140.4700 C   0  0  0  0  0  0  0  0  0  0  0  0
  188.0080  178.6180  142.8470 C   0  0  1  0  0  3  0  0  0  0  0  0
  189.5620  177.3420  144.4340 C   0  0  0  0  0  0  0  0  0  0  0  0
  190.7800  176.6890  144.4000 C   0  0  0  0  0  0  0  0  0  0  0  0
  188.9500  177.6510  138.1340 C   0  0  0  0  0  3  0  0  0  0  0  0
  190.1790  177.0610  138.4770 C   0  0  0  0  0  0  0  0  0  0  0  0
  189.6510  177.3970  140.8380 C   0  0  0  0  0  0  0  0  0  0  0  0
  189.1710  177.8120  148.0920 N   0  0  0  0  0  1  0  0  0  0  0  0
  191.3860  176.3040  142.7570 S   0  0  0  0  0  0  0  0  0  0  0  0
  190.9410  176.7720  146.7550 C   0  0  0  0  0  3  0  0  0  0  0  0
  188.0880  178.1350  139.1200 C   0  0  0  0  0  3  0  0  0  0  0  0
  189.9160  177.1590  142.1410 C   0  0  2  0  0  3  0  0  0  0  0  0
  189.0060  177.7330  145.6530 C   0  0  0  0  0  3  0  0  0  0  0  0
  185.6360  178.9190  142.5000 C   0  0  2  0  0  3  0  0  0  0  0  0
  189.7060  177.4360  146.8290 C   0  0  0  0  0  0  0  0  0  0  0  0
  191.0690  176.5680  137.4530 N   0  0  0  0  0  0  0  0  0  0  0  0
  192.4990  174.9340  135.3470 C   0  0  0  0  0  2  0  0  0  0  0  0
  192.8460  174.8950  137.8580 C   0  0  0  0  0  2  0  0  0  0  0  0
  191.1970  175.6560  135.1650 C   0  0  0  0  0  3  0  0  0  0  0  0
  192.4670  174.0880  136.6130 C   0  0  0  0  0  2  0  0  0  0  0  0
  190.5740  176.3710  136.1130 C   0  0  0  0  0  3  0  0  0  0  0  0
  192.4880  176.3790  137.7630 C   0  0  0  0  0  2  0  0  0  0  0  0
  184.4120  178.0220  142.5250 C   0  0  0  0  0  2  0  0  0  0  0  0
  183.1510  178.8630  142.6030 C   0  0  0  0  0  2  0  0  0  0  0  0
  181.3790  178.6090  144.1720 O   0  0  0  0  0  0  0  0  0  0  0  0
  183.4600  179.0700  145.0970 N   0  0  0  0  0  1  0  0  0  0  0  0
  182.6040  178.8260  143.9860 C   0  0  0  0  0  0  0  0  0  0  0  0
  1  9  1  0  0  0  0
  2 16  1  0  0  0  0
  3  5  1  0  0  0  0
  3 20  1  0  0  0  0
  4 13  1  0  0  0  0
  5  7  1  1  0  0  0
  5  8  1  0  0  0  0
  7 13  2  0  0  0  0
  8  1  1  0  0  0  0
  8  6  1  1  0  0  0
  9 19  2  0  0  0  0
 10  9  1  0  0  0  0
 10  2  2  0  0  0  0
 11 12  1  0  0  0  0
 11 17  2  0  0  0  0
 12  4  2  0  0  0  0
 15 10  1  0  0  0  0
 16 21  2  0  0  0  0
 17  7  1  0  0  0  0
 18 13  1  6  0  0  0
 18 15  1  0  0  0  0
 18  1  1  0  0  0  0
 19 21  1  0  0  0  0
 20 29  1  6  0  0  0
 20  6  1  0  0  0  0
 21 14  1  0  0  0  0
 22 28  1  0  0  0  0
 22 12  1  0  0  0  0
 23 26  1  0  0  0  0
 25 23  1  0  0  0  0
 25 27  2  0  0  0  0
 26 24  1  0  0  0  0
 27 22  1  0  0  0  0
 28 24  1  0  0  0  0
 29 30  1  0  0  0  0
 30 33  1  0  0  0  0
 33 31  2  0  0  0  0
 33 32  1  0  0  0  0
M  END
>  <MODEL>
2

>  <REMARK>
 VINA RESULT:      -8.9      0.688      1.146
  Name = 
  4 active torsions:
  status: ('A' for Active; 'I' for Inactive)
    1  A    between atoms: N_6  and  C_18
    2  A    between atoms: C_11  and  C_21
    3  A    between atoms: C_11  and  C_31
    4  A    between atoms: C_21  and  C_25
                            x       y       z     vdW  Elec       q    Type
                         _______ _______ _______ _____ _____    ______ ____

>  <TORSDO>
F 4

$$$$
=
 OpenBabel11032420313D

 33 38  0  0  1  0  0  0  0  0999 V2000
  188.3200  177.6620  142.5800 N   0  0  0  0  0  0  0  0  0  0  0  0
  190.3060  176.6320  145.4310 N   0  0  0  0  0  0  0  0  0  0  0  0
  185.9970  178.7640  140.1450 O   0  0  0  0  0  0  0  0  0  0  0  0
  190.4440  176.9390  139.6300 C   0  0  0  0  0  3  0  0  0  0  0  0
  187.2760  178.5010  140.5850 C   0  0  2  0  0  3  0  0  0  0  0  0
  185.9370  178.4450  142.4810 C   0  0  0  0  0  2  0  0  0  0  0  0
  188.2730  178.0230  139.8230 C   0  0  0  0  0  0  0  0  0  0  0  0
  187.3830  178.6530  142.0540 C   0  0  1  0  0  3  0  0  0  0  0  0
  188.6360  177.4710  143.9500 C   0  0  0  0  0  0  0  0  0  0  0  0
  189.8510  176.8510  144.1690 C   0  0  0  0  0  0  0  0  0  0  0  0
  189.2230  177.5670  137.6410 C   0  0  0  0  0  3  0  0  0  0  0  0
  190.3760  177.0220  138.2300 C   0  0  0  0  0  0  0  0  0  0  0  0
  189.4030  177.4170  140.4360 C   0  0  0  0  0  0  0  0  0  0  0  0
  187.5480  178.0440  147.4490 N   0  0  0  0  0  1  0  0  0  0  0  0
  190.7660  176.4330  142.6860 S   0  0  0  0  0  0  0  0  0  0  0  0
  189.5610  177.0120  146.5080 C   0  0  0  0  0  3  0  0  0  0  0  0
  188.1790  178.0570  138.4280 C   0  0  0  0  0  3  0  0  0  0  0  0
  189.4220  177.2260  141.7730 C   0  0  2  0  0  3  0  0  0  0  0  0
  187.8500  177.8840  145.0270 C   0  0  0  0  0  3  0  0  0  0  0  0
  185.1140  178.8780  141.2550 C   0  0  2  0  0  3  0  0  0  0  0  0
  188.3200  177.6440  146.3240 C   0  0  0  0  0  0  0  0  0  0  0  0
  191.4550  176.5230  137.4110 N   0  0  0  0  0  0  0  0  0  0  0  0
  193.3910  174.8200  135.8290 C   0  0  0  0  0  2  0  0  0  0  0  0
  193.4390  175.3490  138.3080 C   0  0  0  0  0  2  0  0  0  0  0  0
  192.0130  175.2190  135.3930 C   0  0  0  0  0  3  0  0  0  0  0  0
  193.3590  174.2530  137.2430 C   0  0  0  0  0  2  0  0  0  0  0  0
  191.1650  175.9690  136.1110 C   0  0  0  0  0  3  0  0  0  0  0  0
  192.8380  176.6830  137.8660 C   0  0  0  0  0  2  0  0  0  0  0  0
  183.9270  177.9480  141.0800 C   0  0  0  0  0  2  0  0  0  0  0  0
  182.6870  178.7480  140.7230 C   0  0  0  0  0  2  0  0  0  0  0  0
  182.1050  179.0970  143.0050 O   0  0  0  0  0  0  0  0  0  0  0  0
  180.3980  178.2670  141.6650 N   0  0  0  0  0  1  0  0  0  0  0  0
  181.7300  178.7300  141.8620 C   0  0  0  0  0  0  0  0  0  0  0  0
  1  9  1  0  0  0  0
  2 16  1  0  0  0  0
  3  5  1  0  0  0  0
  3 20  1  0  0  0  0
  4 13  1  0  0  0  0
  5  7  1  1  0  0  0
  5  8  1  0  0  0  0
  7 13  2  0  0  0  0
  8  6  1  1  0  0  0
  8  1  1  0  0  0  0
  9 10  1  0  0  0  0
  9 19  2  0  0  0  0
 10  2  2  0  0  0  0
 11 12  1  0  0  0  0
 11 17  2  0  0  0  0
 12  4  2  0  0  0  0
 15 10  1  0  0  0  0
 17  7  1  0  0  0  0
 18 13  1  6  0  0  0
 18  1  1  0  0  0  0
 18 15  1  0  0  0  0
 19 21  1  0  0  0  0
 20 29  1  6  0  0  0
 20  6  1  0  0  0  0
 21 16  2  0  0  0  0
 21 14  1  0  0  0  0
 22 28  1  0  0  0  0
 22 12  1  0  0  0  0
 23 26  1  0  0  0  0
 25 23  1  0  0  0  0
 25 27  2  0  0  0  0
 26 24  1  0  0  0  0
 27 22  1  0  0  0  0
 28 24  1  0  0  0  0
 30 29  1  0  0  0  0
 30 33  1  0  0  0  0
 32 33  1  0  0  0  0
 33 31  2  0  0  0  0
M  END
>  <MODEL>
3

>  <REMARK>
 VINA RESULT:      -8.8      1.404      1.828
  Name = 
  4 active torsions:
  status: ('A' for Active; 'I' for Inactive)
    1  A    between atoms: N_6  and  C_18
    2  A    between atoms: C_11  and  C_21
    3  A    between atoms: C_11  and  C_31
    4  A    between atoms: C_21  and  C_25
                            x       y       z     vdW  Elec       q    Type
                         _______ _______ _______ _____ _____    ______ ____

>  <TORSDO>
F 4

$$$$
=
 OpenBabel11032420313D

 33 38  0  0  1  0  0  0  0  0999 V2000
  188.1050  177.6510  142.6610 N   0  0  0  0  0  0  0  0  0  0  0  0
  189.8530  176.6690  145.6800 N   0  0  0  0  0  0  0  0  0  0  0  0
  185.9980  178.7370  140.0310 O   0  0  0  0  0  0  0  0  0  0  0  0
  190.3850  176.7120  139.8940 C   0  0  0  0  0  3  0  0  0  0  0  0
  187.2320  178.4420  140.5670 C   0  0  2  0  0  3  0  0  0  0  0  0
  185.7700  178.5250  142.3680 C   0  0  0  0  0  2  0  0  0  0  0  0
  188.2550  177.8910  139.8940 C   0  0  0  0  0  0  0  0  0  0  0  0
  187.2490  178.6550  142.0310 C   0  0  1  0  0  3  0  0  0  0  0  0
  188.3220  177.5090  144.0560 C   0  0  0  0  0  0  0  0  0  0  0  0
  189.4920  176.8500  144.3830 C   0  0  0  0  0  0  0  0  0  0  0  0
  189.3260  177.3000  137.8020 C   0  0  0  0  0  3  0  0  0  0  0  0
  190.4130  176.7350  138.4900 C   0  0  0  0  0  0  0  0  0  0  0  0
  189.3160  177.2670  140.6070 C   0  0  0  0  0  0  0  0  0  0  0  0
  187.0320  178.2810  147.4470 N   0  0  0  0  0  1  0  0  0  0  0  0
  190.4830  176.3300  142.9830 S   0  0  0  0  0  0  0  0  0  0  0  0
  189.0560  177.1270  146.6880 C   0  0  0  0  0  3  0  0  0  0  0  0
  188.2550  177.8670  138.4960 C   0  0  0  0  0  3  0  0  0  0  0  0
  189.2380  177.1360  141.9490 C   0  0  2  0  0  3  0  0  0  0  0  0
  187.4860  178.0010  145.0590 C   0  0  0  0  0  3  0  0  0  0  0  0
  185.0490  178.9360  141.0720 C   0  0  2  0  0  3  0  0  0  0  0  0
  187.8590  177.8000  146.3940 C   0  0  0  0  0  0  0  0  0  0  0  0
  191.5200  176.1570  137.7680 N   0  0  0  0  0  0  0  0  0  0  0  0
  193.8390  175.6000  135.9050 C   0  0  0  0  0  2  0  0  0  0  0  0
  191.3620  175.3030  135.4510 C   0  0  0  0  0  2  0  0  0  0  0  0
  193.8880  176.4480  137.1400 C   0  0  0  0  0  3  0  0  0  0  0  0
  192.6580  176.0020  135.0310 C   0  0  0  0  0  2  0  0  0  0  0  0
  192.8480  176.6890  137.9510 C   0  0  0  0  0  3  0  0  0  0  0  0
  191.2980  174.9680  136.9410 C   0  0  0  0  0  2  0  0  0  0  0  0
  183.8380  178.0490  140.8570 C   0  0  0  0  0  2  0  0  0  0  0  0
  182.5920  178.9000  140.6850 C   0  0  0  0  0  2  0  0  0  0  0  0
  180.5260  178.0930  141.5480 O   0  0  0  0  0  0  0  0  0  0  0  0
  181.9680  179.0030  143.1260 N   0  0  0  0  0  1  0  0  0  0  0  0
  181.6380  178.6280  141.7930 C   0  0  0  0  0  0  0  0  0  0  0  0
  1  9  1  0  0  0  0
  2 16  1  0  0  0  0
  3  5  1  0  0  0  0
  3 20  1  0  0  0  0
  4 13  1  0  0  0  0
  5  7  1  1  0  0  0
  5  8  1  0  0  0  0
  7 13  2  0  0  0  0
  8  6  1  1  0  0  0
  8  1  1  0  0  0  0
  9 10  1  0  0  0  0
  9 19  2  0  0  0  0
 10  2  2  0  0  0  0
 11 12  1  0  0  0  0
 11 17  2  0  0  0  0
 12  4  2  0  0  0  0
 15 10  1  0  0  0  0
 17  7  1  0  0  0  0
 18 13  1  6  0  0  0
 18  1  1  0  0  0  0
 18 15  1  0  0  0  0
 19 21  1  0  0  0  0
 20 29  1  6  0  0  0
 20  6  1  0  0  0  0
 21 16  2  0  0  0  0
 21 14  1  0  0  0  0
 22 27  1  0  0  0  0
 22 12  1  0  0  0  0
 23 25  1  0  0  0  0
 24 28  1  0  0  0  0
 25 27  2  0  0  0  0
 26 24  1  0  0  0  0
 26 23  1  0  0  0  0
 28 22  1  0  0  0  0
 30 29  1  0  0  0  0
 30 33  1  0  0  0  0
 31 33  2  0  0  0  0
 33 32  1  0  0  0  0
M  END
>  <MODEL>
4

>  <REMARK>
 VINA RESULT:      -8.8      1.291      1.434
  Name = 
  4 active torsions:
  status: ('A' for Active; 'I' for Inactive)
    1  A    between atoms: N_6  and  C_18
    2  A    between atoms: C_11  and  C_21
    3  A    between atoms: C_11  and  C_31
    4  A    between atoms: C_21  and  C_25
                            x       y       z     vdW  Elec       q    Type
                         _______ _______ _______ _____ _____    ______ ____

>  <TORSDO>
F 4

$$$$
=
 OpenBabel11032420313D

 33 38  0  0  1  0  0  0  0  0999 V2000
  184.5770  178.5220  141.6450 N   0  0  0  0  0  0  0  0  0  0  0  0
  181.8100  178.8030  143.9690 N   0  0  0  0  0  0  0  0  0  0  0  0
  186.9130  178.2620  138.9970 O   0  0  0  0  0  0  0  0  0  0  0  0
  187.5730  178.0810  143.7820 C   0  0  0  0  0  3  0  0  0  0  0  0
  186.5650  178.5570  140.2970 C   0  0  2  0  0  3  0  0  0  0  0  0
  184.5620  178.3730  139.1400 C   0  0  0  0  0  2  0  0  0  0  0  0
  187.3390  178.3360  141.3720 C   0  0  0  0  0  0  0  0  0  0  0  0
  185.1570  179.0010  140.3920 C   0  0  1  0  0  3  0  0  0  0  0  0
  183.2320  178.7080  142.0570 C   0  0  0  0  0  0  0  0  0  0  0  0
  183.0400  178.6130  143.4220 C   0  0  0  0  0  0  0  0  0  0  0  0
  189.5060  177.8600  142.3470 C   0  0  0  0  0  3  0  0  0  0  0  0
  188.9550  177.8780  143.6400 C   0  0  0  0  0  0  0  0  0  0  0  0
  186.7530  178.2940  142.6680 C   0  0  0  0  0  0  0  0  0  0  0  0
  179.7750  179.4820  140.9570 N   0  0  0  0  0  1  0  0  0  0  0  0
  184.5230  178.2860  144.3740 S   0  0  0  0  0  0  0  0  0  0  0  0
  180.7380  179.0820  143.1750 C   0  0  0  0  0  3  0  0  0  0  0  0
  188.7050  178.0800  141.2240 C   0  0  0  0  0  3  0  0  0  0  0  0
  185.4110  178.3690  142.8010 C   0  0  2  0  0  3  0  0  0  0  0  0
  182.1610  179.0030  141.2130 C   0  0  0  0  0  3  0  0  0  0  0  0
  185.7530  178.2540  138.1730 C   0  0  2  0  0  3  0  0  0  0  0  0
  180.8950  179.1850  141.7830 C   0  0  0  0  0  0  0  0  0  0  0  0
  189.7880  177.6560  144.7970 N   0  0  0  0  0  0  0  0  0  0  0  0
  191.3040  176.4870  147.1400 C   0  0  0  0  0  2  0  0  0  0  0  0
  188.9110  177.3230  147.0860 C   0  0  0  0  0  2  0  0  0  0  0  0
  191.6810  176.3540  145.6950 C   0  0  0  0  0  3  0  0  0  0  0  0
  189.8370  176.1320  147.3430 C   0  0  0  0  0  2  0  0  0  0  0  0
  190.9930  176.8730  144.6690 C   0  0  0  0  0  3  0  0  0  0  0  0
  189.4570  178.3180  146.0610 C   0  0  0  0  0  2  0  0  0  0  0  0
  185.6620  176.9480  137.4060 C   0  0  0  0  0  2  0  0  0  0  0  0
  186.9280  176.7280  136.5990 C   0  0  0  0  0  2  0  0  0  0  0  0
  186.8840  174.4300  137.2190 O   0  0  0  0  0  0  0  0  0  0  0  0
  188.9880  175.4140  137.2190 N   0  0  0  0  0  1  0  0  0  0  0  0
  187.5800  175.4580  137.0160 C   0  0  0  0  0  0  0  0  0  0  0  0
  1  9  1  0  0  0  0
  1 18  1  0  0  0  0
  5  3  1  1  0  0  0
  5  8  1  0  0  0  0
  5  7  1  0  0  0  0
  7 13  1  0  0  0  0
  8  6  1  6  0  0  0
  8  1  1  0  0  0  0
  9 10  2  0  0  0  0
 10  2  1  0  0  0  0
 10 15  1  0  0  0  0
 11 12  2  0  0  0  0
 12  4  1  0  0  0  0
 12 22  1  0  0  0  0
 13  4  2  0  0  0  0
 14 21  1  0  0  0  0
 16  2  2  0  0  0  0
 17  7  2  0  0  0  0
 17 11  1  0  0  0  0
 18 13  1  6  0  0  0
 18 15  1  0  0  0  0
 19 21  2  0  0  0  0
 19  9  1  0  0  0  0
 20 29  1  1  0  0  0
 20  3  1  0  0  0  0
 20  6  1  0  0  0  0
 21 16  1  0  0  0  0
 22 28  1  0  0  0  0
 23 26  1  0  0  0  0
 24 26  1  0  0  0  0
 25 23  1  0  0  0  0
 27 22  1  0  0  0  0
 27 25  2  0  0  0  0
 28 24  1  0  0  0  0
 30 33  1  0  0  0  0
 30 29  1  0  0  0  0
 33 32  1  0  0  0  0
 33 31  2  0  0  0  0
M  END
>  <MODEL>
5

>  <REMARK>
 VINA RESULT:      -8.6      3.183      7.718
  Name = 
  4 active torsions:
  status: ('A' for Active; 'I' for Inactive)
    1  A    between atoms: N_6  and  C_18
    2  A    between atoms: C_11  and  C_21
    3  A    between atoms: C_11  and  C_31
    4  A    between atoms: C_21  and  C_25
                            x       y       z     vdW  Elec       q    Type
                         _______ _______ _______ _____ _____    ______ ____

>  <TORSDO>
F 4

$$$$
=
 OpenBabel11032420313D

 33 38  0  0  1  0  0  0  0  0999 V2000
  186.4170  178.1820  143.6280 N   0  0  0  0  0  0  0  0  0  0  0  0
  189.4030  177.0150  145.3180 N   0  0  0  0  0  0  0  0  0  0  0  0
  183.2780  179.3270  142.4560 O   0  0  0  0  0  0  0  0  0  0  0  0
  187.2690  178.0930  140.0220 C   0  0  0  0  0  3  0  0  0  0  0  0
  184.6400  179.1530  142.3350 C   0  0  2  0  0  3  0  0  0  0  0  0
  184.1440  178.7000  144.5580 C   0  0  0  0  0  2  0  0  0  0  0  0
  185.2870  178.8930  141.1880 C   0  0  0  0  0  0  0  0  0  0  0  0
  185.2990  179.1230  143.6600 C   0  0  1  0  0  3  0  0  0  0  0  0
  187.2480  177.8500  144.7290 C   0  0  0  0  0  0  0  0  0  0  0  0
  188.4850  177.3460  144.3730 C   0  0  0  0  0  0  0  0  0  0  0  0
  185.3420  178.8360  138.7660 C   0  0  0  0  0  3  0  0  0  0  0  0
  186.6600  178.3510  138.7830 C   0  0  0  0  0  0  0  0  0  0  0  0
  186.5980  178.3420  141.2250 C   0  0  0  0  0  0  0  0  0  0  0  0
  187.5710  177.8350  148.4240 N   0  0  0  0  0  1  0  0  0  0  0  0
  188.7740  177.2300  142.6080 S   0  0  0  0  0  0  0  0  0  0  0  0
  189.1140  177.1660  146.6420 C   0  0  0  0  0  3  0  0  0  0  0  0
  184.6590  179.0990  139.9560 C   0  0  0  0  0  3  0  0  0  0  0  0
  187.1420  177.9820  142.4070 C   0  0  2  0  0  3  0  0  0  0  0  0
  186.9200  178.0280  146.0740 C   0  0  0  0  0  3  0  0  0  0  0  0
  182.8880  179.1950  143.8170 C   0  0  2  0  0  3  0  0  0  0  0  0
  187.8670  177.6740  147.0420 C   0  0  0  0  0  0  0  0  0  0  0  0
  187.3620  178.0860  137.5510 N   0  0  0  0  0  0  0  0  0  0  0  0
  188.8030  176.8280  135.2060 C   0  0  0  0  0  2  0  0  0  0  0  0
  189.7810  177.5820  137.4210 C   0  0  0  0  0  2  0  0  0  0  0  0
  187.3240  176.7970  135.4480 C   0  0  0  0  0  3  0  0  0  0  0  0
  189.5560  176.4090  136.4620 C   0  0  0  0  0  2  0  0  0  0  0  0
  186.7030  177.3550  136.4970 C   0  0  0  0  0  3  0  0  0  0  0  0
  188.6960  178.6560  137.3450 C   0  0  0  0  0  2  0  0  0  0  0  0
  181.7780  178.1700  143.9500 C   0  0  0  0  0  2  0  0  0  0  0  0
  180.4610  178.8640  144.2470 C   0  0  0  0  0  2  0  0  0  0  0  0
  179.9820  180.5200  142.6050 O   0  0  0  0  0  0  0  0  0  0  0  0
  179.0470  178.4310  142.2050 N   0  0  0  0  0  1  0  0  0  0  0  0
  179.8370  179.3280  142.9790 C   0  0  0  0  0  0  0  0  0  0  0  0
  1  8  1  0  0  0  0
  1  9  1  0  0  0  0
  2 16  1  0  0  0  0
  3 20  1  0  0  0  0
  4 13  1  0  0  0  0
  5  7  1  1  0  0  0
  5  3  1  0  0  0  0
  5  8  1  0  0  0  0
  7 13  2  0  0  0  0
  8  6  1  1  0  0  0
  9 19  2  0  0  0  0
 10  9  1  0  0  0  0
 10  2  2  0  0  0  0
 11 12  1  0  0  0  0
 11 17  2  0  0  0  0
 12  4  2  0  0  0  0
 15 10  1  0  0  0  0
 16 21  2  0  0  0  0
 17  7  1  0  0  0  0
 18 13  1  6  0  0  0
 18 15  1  0  0  0  0
 18  1  1  0  0  0  0
 19 21  1  0  0  0  0
 20 29  1  6  0  0  0
 20  6  1  0  0  0  0
 21 14  1  0  0  0  0
 22 12  1  0  0  0  0
 23 25  1  0  0  0  0
 23 26  1  0  0  0  0
 25 27  2  0  0  0  0
 26 24  1  0  0  0  0
 27 22  1  0  0  0  0
 28 24  1  0  0  0  0
 28 22  1  0  0  0  0
 29 30  1  0  0  0  0
 31 33  2  0  0  0  0
 32 33  1  0  0  0  0
 33 30  1  0  0  0  0
M  END
>  <MODEL>
6

>  <REMARK>
 VINA RESULT:      -8.5      2.367      3.547
  Name = 
  4 active torsions:
  status: ('A' for Active; 'I' for Inactive)
    1  A    between atoms: N_6  and  C_18
    2  A    between atoms: C_11  and  C_21
    3  A    between atoms: C_11  and  C_31
    4  A    between atoms: C_21  and  C_25
                            x       y       z     vdW  Elec       q    Type
                         _______ _______ _______ _____ _____    ______ ____

>  <TORSDO>
F 4

$$$$
=
 OpenBabel11032420313D

 33 38  0  0  1  0  0  0  0  0999 V2000
  183.7950  178.7130  140.9500 N   0  0  0  0  0  0  0  0  0  0  0  0
  180.3850  179.1600  142.0940 N   0  0  0  0  0  0  0  0  0  0  0  0
  186.9240  178.3020  139.3450 O   0  0  0  0  0  0  0  0  0  0  0  0
  185.7710  178.1720  144.0380 C   0  0  0  0  0  3  0  0  0  0  0  0
  186.1380  178.6340  140.4270 C   0  0  2  0  0  3  0  0  0  0  0  0
  184.6930  178.5220  138.6140 C   0  0  0  0  0  2  0  0  0  0  0  0
  186.4510  178.3960  141.7110 C   0  0  0  0  0  0  0  0  0  0  0  0
  184.8170  179.1440  139.9980 C   0  0  1  0  0  3  0  0  0  0  0  0
  182.4030  178.9670  140.8380 C   0  0  0  0  0  0  0  0  0  0  0  0
  181.7190  178.9050  142.0370 C   0  0  0  0  0  0  0  0  0  0  0  0
  188.0830  177.8390  143.4140 C   0  0  0  0  0  3  0  0  0  0  0  0
  187.0980  177.9050  144.4140 C   0  0  0  0  0  0  0  0  0  0  0  0
  185.4290  178.4040  142.7000 C   0  0  0  0  0  0  0  0  0  0  0  0
  179.6330  179.8790  138.5460 N   0  0  0  0  0  1  0  0  0  0  0  0
  182.7310  178.5270  143.4670 S   0  0  0  0  0  0  0  0  0  0  0  0
  179.6940  179.4740  140.9620 C   0  0  0  0  0  3  0  0  0  0  0  0
  187.7630  178.0760  142.0750 C   0  0  0  0  0  3  0  0  0  0  0  0
  184.1380  178.5420  142.3310 C   0  0  2  0  0  3  0  0  0  0  0  0
  181.7320  179.2960  139.6600 C   0  0  0  0  0  3  0  0  0  0  0  0
  186.1490  178.3320  138.1530 C   0  0  2  0  0  3  0  0  0  0  0  0
  180.3560  179.5460  139.7250 C   0  0  0  0  0  0  0  0  0  0  0  0
  187.4360  177.6650  145.7960 N   0  0  0  0  0  0  0  0  0  0  0  0
  188.3050  177.8880  148.6850 C   0  0  0  0  0  2  0  0  0  0  0  0
  189.7550  177.5010  146.6410 C   0  0  0  0  0  2  0  0  0  0  0  0
  186.9920  178.3450  148.1250 C   0  0  0  0  0  3  0  0  0  0  0  0
  189.4570  178.4100  147.8370 C   0  0  0  0  0  2  0  0  0  0  0  0
  186.6260  178.2450  146.8390 C   0  0  0  0  0  3  0  0  0  0  0  0
  188.5310  176.7480  146.1210 C   0  0  0  0  0  2  0  0  0  0  0  0
  186.2820  177.0180  137.4050 C   0  0  0  0  0  2  0  0  0  0  0  0
  187.7000  176.4900  137.5290 C   0  0  0  0  0  2  0  0  0  0  0  0
  189.5390  177.8520  136.8760 O   0  0  0  0  0  0  0  0  0  0  0  0
  188.2880  176.9750  135.1260 N   0  0  0  0  0  1  0  0  0  0  0  0
  188.5710  177.1370  136.5120 C   0  0  0  0  0  0  0  0  0  0  0  0
  1 18  1  0  0  0  0
  4 12  1  0  0  0  0
  5  3  1  6  0  0  0
  5  7  1  0  0  0  0
  7 17  2  0  0  0  0
  7 13  1  0  0  0  0
  8  6  1  6  0  0  0
  8  5  1  0  0  0  0
  8  1  1  0  0  0  0
  9  1  1  0  0  0  0
  9 10  2  0  0  0  0
 10  2  1  0  0  0  0
 10 15  1  0  0  0  0
 11 12  2  0  0  0  0
 12 22  1  0  0  0  0
 13  4  2  0  0  0  0
 14 21  1  0  0  0  0
 16  2  2  0  0  0  0
 17 11  1  0  0  0  0
 18 13  1  6  0  0  0
 18 15  1  0  0  0  0
 19 21  2  0  0  0  0
 19  9  1  0  0  0  0
 20 29  1  1  0  0  0
 20  6  1  0  0  0  0
 20  3  1  0  0  0  0
 21 16  1  0  0  0  0
 22 28  1  0  0  0  0
 22 27  1  0  0  0  0
 24 26  1  0  0  0  0
 25 23  1  0  0  0  0
 26 23  1  0  0  0  0
 27 25  2  0  0  0  0
 28 24  1  0  0  0  0
 29 30  1  0  0  0  0
 32 33  1  0  0  0  0
 33 31  2  0  0  0  0
 33 30  1  0  0  0  0
M  END
>  <MODEL>
7

>  <REMARK>
 VINA RESULT:      -8.5      3.398      8.958
  Name = 
  4 active torsions:
  status: ('A' for Active; 'I' for Inactive)
    1  A    between atoms: N_6  and  C_18
    2  A    between atoms: C_11  and  C_21
    3  A    between atoms: C_11  and  C_31
    4  A    between atoms: C_21  and  C_25
                            x       y       z     vdW  Elec       q    Type
                         _______ _______ _______ _____ _____    ______ ____

>  <TORSDO>
F 4

$$$$
=
 OpenBabel11032420313D

 33 38  0  0  1  0  0  0  0  0999 V2000
  189.1110  177.7350  141.7870 N   0  0  0  0  0  0  0  0  0  0  0  0
  190.2820  177.2510  138.3910 N   0  0  0  0  0  0  0  0  0  0  0  0
  188.4610  178.0930  145.2480 O   0  0  0  0  0  0  0  0  0  0  0  0
  185.4670  178.3260  141.4610 C   0  0  0  0  0  3  0  0  0  0  0  0
  188.1750  178.3220  143.9200 C   0  0  2  0  0  3  0  0  0  0  0  0
  190.3400  177.4820  143.9610 C   0  0  0  0  0  2  0  0  0  0  0  0
  186.9410  178.3940  143.3970 C   0  0  0  0  0  0  0  0  0  0  0  0
  189.4050  178.3160  143.0960 C   0  0  1  0  0  3  0  0  0  0  0  0
  190.0560  177.5170  140.7510 C   0  0  0  0  0  0  0  0  0  0  0  0
  189.5000  177.4250  139.4880 C   0  0  0  0  0  0  0  0  0  0  0  0
  184.5470  178.6490  143.6730 C   0  0  0  0  0  3  0  0  0  0  0  0
  184.3520  178.5520  142.2840 C   0  0  0  0  0  0  0  0  0  0  0  0
  186.7570  178.2300  141.9960 C   0  0  0  0  0  0  0  0  0  0  0  0
  193.6500  177.1440  139.9150 N   0  0  0  0  0  1  0  0  0  0  0  0
  187.7180  177.6100  139.4320 S   0  0  0  0  0  0  0  0  0  0  0  0
  191.6360  177.1540  138.5190 C   0  0  0  0  0  3  0  0  0  0  0  0
  185.8270  178.5650  144.2240 C   0  0  0  0  0  3  0  0  0  0  0  0
  187.8060  177.8950  141.2150 C   0  0  2  0  0  3  0  0  0  0  0  0
  191.4380  177.4320  140.9200 C   0  0  0  0  0  3  0  0  0  0  0  0
  189.8190  177.6940  145.3940 C   0  0  2  0  0  3  0  0  0  0  0  0
  192.2370  177.2410  139.7860 C   0  0  0  0  0  0  0  0  0  0  0  0
  183.0280  178.6460  141.7190 N   0  0  0  0  0  0  0  0  0  0  0  0
  180.1540  178.1940  140.8880 C   0  0  0  0  0  2  0  0  0  0  0  0
  182.2590  177.3190  139.7780 C   0  0  0  0  0  2  0  0  0  0  0  0
  180.6160  178.6650  142.2350 C   0  0  0  0  0  3  0  0  0  0  0  0
  180.9360  176.9590  140.4590 C   0  0  0  0  0  2  0  0  0  0  0  0
  181.8950  178.8540  142.5880 C   0  0  0  0  0  3  0  0  0  0  0  0
  182.8640  178.6360  140.2640 C   0  0  0  0  0  2  0  0  0  0  0  0
  189.9040  176.3920  146.1670 C   0  0  0  0  0  2  0  0  0  0  0  0
  190.7120  176.5920  147.4370 C   0  0  0  0  0  2  0  0  0  0  0  0
  192.3220  175.2990  146.2530 O   0  0  0  0  0  0  0  0  0  0  0  0
  192.9720  175.9860  148.3750 N   0  0  0  0  0  1  0  0  0  0  0  0
  192.0370  175.9310  147.3030 C   0  0  0  0  0  0  0  0  0  0  0  0
  1  8  1  0  0  0  0
  2 16  2  0  0  0  0
  2 10  1  0  0  0  0
  3 20  1  0  0  0  0
  4 13  2  0  0  0  0
  4 12  1  0  0  0  0
  5  7  1  6  0  0  0
  5  3  1  0  0  0  0
  6 20  1  0  0  0  0
  7 17  2  0  0  0  0
  8  5  1  0  0  0  0
  8  6  1  1  0  0  0
  9 19  1  0  0  0  0
  9  1  1  0  0  0  0
 10  9  2  0  0  0  0
 11 17  1  0  0  0  0
 12 11  2  0  0  0  0
 13  7  1  0  0  0  0
 15 10  1  0  0  0  0
 16 21  1  0  0  0  0
 18 15  1  1  0  0  0
 18  1  1  0  0  0  0
 18 13  1  0  0  0  0
 20 29  1  1  0  0  0
 21 14  1  0  0  0  0
 21 19  2  0  0  0  0
 22 12  1  0  0  0  0
 22 27  1  0  0  0  0
 23 25  1  0  0  0  0
 24 28  1  0  0  0  0
 24 26  1  0  0  0  0
 25 27  2  0  0  0  0
 26 23  1  0  0  0  0
 28 22  1  0  0  0  0
 29 30  1  0  0  0  0
 31 33  2  0  0  0  0
 33 30  1  0  0  0  0
 33 32  1  0  0  0  0
M  END
>  <MODEL>
8

>  <REMARK>
 VINA RESULT:      -8.3      2.658      8.034
  Name = 
  4 active torsions:
  status: ('A' for Active; 'I' for Inactive)
    1  A    between atoms: N_6  and  C_18
    2  A    between atoms: C_11  and  C_21
    3  A    between atoms: C_11  and  C_31
    4  A    between atoms: C_21  and  C_25
                            x       y       z     vdW  Elec       q    Type
                         _______ _______ _______ _____ _____    ______ ____

>  <TORSDO>
F 4

$$$$
=
 OpenBabel11032420313D

 33 38  0  0  1  0  0  0  0  0999 V2000
  187.5540  177.7910  142.7280 N   0  0  0  0  0  0  0  0  0  0  0  0
  189.7130  176.7220  145.4350 N   0  0  0  0  0  0  0  0  0  0  0  0
  185.0830  178.9200  140.4580 O   0  0  0  0  0  0  0  0  0  0  0  0
  189.5060  177.1490  139.6440 C   0  0  0  0  0  3  0  0  0  0  0  0
  186.3870  178.6600  140.8160 C   0  0  2  0  0  3  0  0  0  0  0  0
  185.1630  178.5540  142.7860 C   0  0  0  0  0  2  0  0  0  0  0  0
  187.3410  178.2080  139.9860 C   0  0  0  0  0  0  0  0  0  0  0  0
  186.5800  178.7840  142.2780 C   0  0  1  0  0  3  0  0  0  0  0  0
  187.9520  177.5760  144.0730 C   0  0  0  0  0  0  0  0  0  0  0  0
  189.1830  176.9630  144.2070 C   0  0  0  0  0  0  0  0  0  0  0  0
  188.1640  177.8050  137.7430 C   0  0  0  0  0  3  0  0  0  0  0  0
  189.3550  177.2590  138.2520 C   0  0  0  0  0  0  0  0  0  0  0  0
  188.5110  177.6000  140.5190 C   0  0  0  0  0  0  0  0  0  0  0  0
  187.0680  178.0670  147.6410 N   0  0  0  0  0  1  0  0  0  0  0  0
  190.0110  176.5830  142.6640 S   0  0  0  0  0  0  0  0  0  0  0  0
  189.0310  177.0740  146.5620 C   0  0  0  0  0  3  0  0  0  0  0  0
  187.1650  178.2690  138.6010 C   0  0  0  0  0  3  0  0  0  0  0  0
  188.6090  177.3830  141.8480 C   0  0  2  0  0  3  0  0  0  0  0  0
  187.2280  177.9590  145.2020 C   0  0  0  0  0  3  0  0  0  0  0  0
  184.2650  179.0040  141.6190 C   0  0  2  0  0  3  0  0  0  0  0  0
  187.7760  177.6970  146.4640 C   0  0  0  0  0  0  0  0  0  0  0  0
  190.3870  176.7870  137.3610 N   0  0  0  0  0  0  0  0  0  0  0  0
  192.0800  175.2280  135.3970 C   0  0  0  0  0  2  0  0  0  0  0  0
  191.9580  174.9570  137.9150 C   0  0  0  0  0  2  0  0  0  0  0  0
  190.8790  176.0570  135.0570 C   0  0  0  0  0  3  0  0  0  0  0  0
  191.7660  174.2860  136.5530 C   0  0  0  0  0  2  0  0  0  0  0  0
  190.1360  176.7370  135.9420 C   0  0  0  0  0  3  0  0  0  0  0  0
  191.7110  176.4660  137.8990 C   0  0  0  0  0  2  0  0  0  0  0  0
  183.0780  178.0670  141.4960 C   0  0  0  0  0  2  0  0  0  0  0  0
  181.8890  178.6300  142.2520 C   0  0  0  0  0  2  0  0  0  0  0  0
  180.5420  178.9970  140.3240 O   0  0  0  0  0  0  0  0  0  0  0  0
  179.5690  177.6830  141.9750 N   0  0  0  0  0  1  0  0  0  0  0  0
  180.6490  178.4490  141.4510 C   0  0  0  0  0  0  0  0  0  0  0  0
  1  9  1  0  0  0  0
  2 16  1  0  0  0  0
  3  5  1  0  0  0  0
  3 20  1  0  0  0  0
  4 13  1  0  0  0  0
  5  7  1  1  0  0  0
  5  8  1  0  0  0  0
  7 13  2  0  0  0  0
  8  1  1  0  0  0  0
  8  6  1  1  0  0  0
  9 10  1  0  0  0  0
  9 19  2  0  0  0  0
 10  2  2  0  0  0  0
 11 12  1  0  0  0  0
 11 17  2  0  0  0  0
 12  4  2  0  0  0  0
 15 10  1  0  0  0  0
 17  7  1  0  0  0  0
 18 13  1  6  0  0  0
 18 15  1  0  0  0  0
 18  1  1  0  0  0  0
 19 21  1  0  0  0  0
 20 29  1  6  0  0  0
 20  6  1  0  0  0  0
 21 16  2  0  0  0  0
 21 14  1  0  0  0  0
 22 28  1  0  0  0  0
 22 12  1  0  0  0  0
 23 26  1  0  0  0  0
 25 23  1  0  0  0  0
 25 27  2  0  0  0  0
 26 24  1  0  0  0  0
 27 22  1  0  0  0  0
 28 24  1  0  0  0  0
 29 30  1  0  0  0  0
 31 33  2  0  0  0  0
 33 32  1  0  0  0  0
 33 30  1  0  0  0  0
M  END
>  <MODEL>
9

>  <REMARK>
 VINA RESULT:      -8.3      1.768      2.185
  Name = 
  4 active torsions:
  status: ('A' for Active; 'I' for Inactive)
    1  A    between atoms: N_6  and  C_18
    2  A    between atoms: C_11  and  C_21
    3  A    between atoms: C_11  and  C_31
    4  A    between atoms: C_21  and  C_25
                            x       y       z     vdW  Elec       q    Type
                         _______ _______ _______ _____ _____    ______ ____

>  <TORSDO>
F 4

$$$$
