=
 OpenBabel11042411063D

 39 44  0  0  1  0  0  0  0  0999 V2000
  182.1540  179.0620  141.1300 N   0  0  0  0  0  0  0  0  0  0  0  0
  188.2400  177.2820  142.3310 C   0  0  2  0  0  3  0  0  0  0  0  0
  186.1180  176.6210  136.9760 N   0  0  0  0  0  0  0  0  0  0  0  0
  187.8870  176.2500  144.5240 O   0  0  0  0  0  1  0  0  0  0  0  0
  189.5250  177.8340  136.8620 C   0  0  0  0  0  2  0  0  0  0  0  0
  188.1020  177.6200  139.8110 C   0  0  1  0  0  3  0  0  0  0  0  0
  188.4570  176.7890  137.0490 C   0  0  1  0  0  3  0  0  0  0  0  0
  183.7440  179.3260  144.9340 C   0  0  0  0  0  3  0  0  0  0  0  0
  183.4370  177.9950  138.8940 C   0  0  0  0  0  0  0  0  0  0  0  0
  182.1760  178.7280  138.7340 C   0  0  0  0  0  3  0  0  0  0  0  0
  184.0900  177.5340  137.8640 C   0  0  0  0  0  0  0  0  0  0  0  0
  187.1920  177.5310  137.3420 C   0  0  2  0  0  3  0  0  0  0  0  0
  183.2030  178.3190  141.3480 C   0  0  0  0  0  0  0  0  0  0  0  0
  185.1850  179.7250  144.9560 C   0  0  0  0  0  2  0  0  0  0  0  0
  187.1550  178.1580  138.7450 C   0  0  2  0  0  3  0  0  0  0  0  0
  183.8800  178.3310  142.6600 C   0  0  0  0  0  0  0  0  0  0  0  0
  184.7460  177.0130  136.8620 C   0  0  0  0  0  3  0  0  0  0  0  0
  188.4950  178.8720  139.0410 C   0  0  2  0  0  3  0  0  0  0  0  0
  187.6010  178.0610  141.1700 C   0  0  0  0  0  2  0  0  0  0  0  0
  181.5680  179.2140  139.8220 C   0  0  0  0  0  3  0  0  0  0  0  0
  187.2410  176.7910  143.4100 C   0  0  1  0  0  3  0  0  0  0  0  0
  186.1360  178.5640  144.8350 C   0  0  0  0  0  0  0  0  0  0  0  0
  183.7860  177.4680  140.2410 C   0  0  0  0  0  2  0  0  0  0  0  0
  186.6350  175.6290  136.0420 C   0  0  0  0  0  2  0  0  0  0  0  0
  185.1330  177.8720  142.6730 C   0  0  0  0  0  3  0  0  0  0  0  0
  188.1110  175.9700  135.8290 C   0  0  0  0  0  2  0  0  0  0  0  0
  189.7640  178.5040  138.2210 C   0  0  0  0  0  2  0  0  0  0  0  0
  183.1650  178.7540  143.8790 C   0  0  0  0  0  3  0  0  0  0  0  0
  186.1230  177.7570  143.7540 C   0  0  0  0  0  0  0  0  0  0  0  0
  189.4110  177.8840  142.8450 O   0  0  0  0  0  0  0  0  0  0  0  0
  190.5290  177.1700  142.3910 C   0  0  0  0  0  1  0  0  0  0  0  0
  187.1120  178.3790  145.8210 O   0  0  0  0  0  0  0  0  0  0  0  0
  186.8050  178.3050  147.2070 C   0  0  0  0  0  2  0  0  0  0  0  0
  188.0470  177.9130  147.9850 C   0  0  0  0  0  2  0  0  0  0  0  0
  189.2420  177.8390  147.0550 C   0  0  0  0  0  2  0  0  0  0  0  0
  190.0060  176.5560  147.3110 C   0  0  0  0  0  2  0  0  0  0  0  0
  191.4340  176.7410  146.9400 C   0  0  0  0  0  0  0  0  0  0  0  0
  191.7350  177.2780  145.8420 O   0  0  0  0  0  0  0  0  0  0  0  0
  192.4370  176.2930  147.7890 O   0  0  0  0  0  1  0  0  0  0  0  0
  1 13  2  0  0  0  0
  2 30  1  1  0  0  0
  2 21  1  0  0  0  0
  5  7  1  0  0  0  0
  5 27  1  0  0  0  0
  6 19  1  1  0  0  0
  7 26  1  6  0  0  0
  7 12  1  0  0  0  0
  8 14  1  0  0  0  0
  9 23  1  0  0  0  0
 10  9  1  0  0  0  0
 10 20  2  0  0  0  0
 11  9  2  0  0  0  0
 12  3  1  1  0  0  0
 12 15  1  0  0  0  0
 13 16  1  0  0  0  0
 15 18  1  0  0  0  0
 15  6  1  0  0  0  0
 16 25  2  0  0  0  0
 16 28  1  0  0  0  0
 17  3  1  0  0  0  0
 17 11  2  0  0  0  0
 18  6  1  0  0  0  0
 19  2  1  0  0  0  0
 20  1  1  0  0  0  0
 21 29  1  0  0  0  0
 21  4  1  0  0  0  0
 22 14  1  0  0  0  0
 22 32  1  0  0  0  0
 23 13  1  0  0  0  0
 24  3  1  0  0  0  0
 25 29  1  0  0  0  0
 26 24  1  0  0  0  0
 27 18  1  0  0  0  0
 28  8  2  0  0  0  0
 29 22  2  0  0  0  0
 31 30  1  0  0  0  0
 32 33  1  0  0  0  0
 33 34  1  0  0  0  0
 35 36  1  0  0  0  0
 35 34  1  0  0  0  0
 37 36  1  0  0  0  0
 37 39  1  0  0  0  0
 38 37  2  0  0  0  0
M  END
>  <MODEL>
1

>  <REMARK>
 VINA RESULT:      -8.8      0.000      0.000
  Name = 
  7 active torsions:
  status: ('A' for Active; 'I' for Inactive)
    1  A    between atoms: C_2  and  O_8
    2  A    between atoms: O_6  and  C_19
    3  A    between atoms: O_6  and  C_28
    4  A    between atoms: C_19  and  C_27
    5  A    between atoms: C_25  and  C_29
    6  A    between atoms: C_25  and  C_39
    7  A    between atoms: C_27  and  C_39
                            x       y       z     vdW  Elec       q    Type
                         _______ _______ _______ _____ _____    ______ ____

>  <TORSDO>
F 7

$$$$
=
 OpenBabel11042411063D

 39 44  0  0  1  0  0  0  0  0999 V2000
  184.5910  178.8950  144.4010 N   0  0  0  0  0  0  0  0  0  0  0  0
  189.7250  176.6040  141.2310 C   0  0  2  0  0  3  0  0  0  0  0  0
  184.7930  177.5070  138.3210 N   0  0  0  0  0  0  0  0  0  0  0  0
  190.5260  175.0310  142.9300 O   0  0  0  0  0  1  0  0  0  0  0  0
  187.6460  178.5630  136.3630 C   0  0  0  0  0  2  0  0  0  0  0  0
  188.2100  177.6170  139.4540 C   0  0  1  0  0  3  0  0  0  0  0  0
  186.7080  177.5510  136.9670 C   0  0  1  0  0  3  0  0  0  0  0  0
  188.1190  178.0510  146.3790 C   0  0  0  0  0  3  0  0  0  0  0  0
  184.0800  178.4210  141.6990 C   0  0  0  0  0  0  0  0  0  0  0  0
  183.1410  179.2210  142.4930 C   0  0  0  0  0  3  0  0  0  0  0  0
  183.8990  178.2290  140.4230 C   0  0  0  0  0  0  0  0  0  0  0  0
  186.0320  178.2380  138.1100 C   0  0  2  0  0  3  0  0  0  0  0  0
  185.3960  178.0770  143.7810 C   0  0  0  0  0  0  0  0  0  0  0  0
  189.3450  178.3690  145.5830 C   0  0  0  0  0  2  0  0  0  0  0  0
  186.9490  178.4630  139.3240 C   0  0  2  0  0  3  0  0  0  0  0  0
  186.6980  177.7050  144.3680 C   0  0  0  0  0  0  0  0  0  0  0  0
  183.7250  177.9730  139.1550 C   0  0  0  0  0  3  0  0  0  0  0  0
  188.3170  179.0130  138.8580 C   0  0  2  0  0  3  0  0  0  0  0  0
  188.6980  177.6940  140.8850 C   0  0  0  0  0  2  0  0  0  0  0  0
  183.3960  179.4190  143.7920 C   0  0  0  0  0  3  0  0  0  0  0  0
  189.4730  175.8810  142.5790 C   0  0  1  0  0  3  0  0  0  0  0  0
  189.7910  177.2450  144.6850 C   0  0  0  0  0  0  0  0  0  0  0  0
  185.0380  177.5350  142.4150 C   0  0  0  0  0  2  0  0  0  0  0  0
  184.4560  176.7850  137.1010 C   0  0  0  0  0  2  0  0  0  0  0  0
  187.6000  177.2080  143.5200 C   0  0  0  0  0  3  0  0  0  0  0  0
  185.5590  177.1090  136.0940 C   0  0  0  0  0  2  0  0  0  0  0  0
  188.7630  178.8290  137.3810 C   0  0  0  0  0  2  0  0  0  0  0  0
  186.9330  177.8110  145.8220 C   0  0  0  0  0  3  0  0  0  0  0  0
  188.9870  176.7630  143.7140 C   0  0  0  0  0  0  0  0  0  0  0  0
  191.0660  176.9950  141.0160 O   0  0  0  0  0  0  0  0  0  0  0  0
  191.3920  176.7880  139.6670 C   0  0  0  0  0  1  0  0  0  0  0  0
  191.0980  176.7600  144.8020 O   0  0  0  0  0  0  0  0  0  0  0  0
  191.8870  176.9390  145.9710 C   0  0  0  0  0  2  0  0  0  0  0  0
  192.0460  175.6120  146.6890 C   0  0  0  0  0  2  0  0  0  0  0  0
  191.9580  175.8190  148.1890 C   0  0  0  0  0  2  0  0  0  0  0  0
  193.3460  175.7470  148.7920 C   0  0  0  0  0  2  0  0  0  0  0  0
  193.5940  176.9550  149.6230 C   0  0  0  0  0  0  0  0  0  0  0  0
  192.8330  177.9530  149.5250 O   0  0  0  0  0  0  0  0  0  0  0  0
  194.6830  176.9960  150.4840 O   0  0  0  0  0  1  0  0  0  0  0  0
  2 30  1  1  0  0  0
  2 21  1  0  0  0  0
  3 17  1  0  0  0  0
  5  7  1  0  0  0  0
  5 27  1  0  0  0  0
  6 19  1  1  0  0  0
  7 26  1  6  0  0  0
  7 12  1  0  0  0  0
  9 23  1  0  0  0  0
  9 10  1  0  0  0  0
 10 20  2  0  0  0  0
 11  9  2  0  0  0  0
 12  3  1  1  0  0  0
 12 15  1  0  0  0  0
 13 16  1  0  0  0  0
 13  1  2  0  0  0  0
 14  8  1  0  0  0  0
 15  6  1  0  0  0  0
 16 28  1  0  0  0  0
 17 11  2  0  0  0  0
 18 15  1  0  0  0  0
 18  6  1  0  0  0  0
 19  2  1  0  0  0  0
 20  1  1  0  0  0  0
 21  4  1  0  0  0  0
 21 29  1  0  0  0  0
 22 32  1  0  0  0  0
 22 14  1  0  0  0  0
 23 13  1  0  0  0  0
 24  3  1  0  0  0  0
 25 29  1  0  0  0  0
 25 16  2  0  0  0  0
 26 24  1  0  0  0  0
 27 18  1  0  0  0  0
 28  8  2  0  0  0  0
 29 22  2  0  0  0  0
 31 30  1  0  0  0  0
 32 33  1  0  0  0  0
 33 34  1  0  0  0  0
 34 35  1  0  0  0  0
 35 36  1  0  0  0  0
 36 37  1  0  0  0  0
 37 39  1  0  0  0  0
 38 37  2  0  0  0  0
M  END
>  <MODEL>
2

>  <REMARK>
 VINA RESULT:      -8.0      1.799      3.218
  Name = 
  7 active torsions:
  status: ('A' for Active; 'I' for Inactive)
    1  A    between atoms: C_2  and  O_8
    2  A    between atoms: O_6  and  C_19
    3  A    between atoms: O_6  and  C_28
    4  A    between atoms: C_19  and  C_27
    5  A    between atoms: C_25  and  C_29
    6  A    between atoms: C_25  and  C_39
    7  A    between atoms: C_27  and  C_39
                            x       y       z     vdW  Elec       q    Type
                         _______ _______ _______ _____ _____    ______ ____

>  <TORSDO>
F 7

$$$$
=
 OpenBabel11042411063D

 39 44  0  0  1  0  0  0  0  0999 V2000
  188.5710  176.7470  137.8340 N   0  0  0  0  0  0  0  0  0  0  0  0
  183.9620  178.5540  141.9750 C   0  0  2  0  0  3  0  0  0  0  0  0
  182.6090  177.8690  136.3790 N   0  0  0  0  0  0  0  0  0  0  0  0
  185.2740  180.1360  143.3070 O   0  0  0  0  0  1  0  0  0  0  0  0
  179.9940  176.5430  138.5000 C   0  0  0  0  0  2  0  0  0  0  0  0
  182.7430  177.5730  139.9660 C   0  0  1  0  0  3  0  0  0  0  0  0
  180.7770  177.6400  137.8260 C   0  0  1  0  0  3  0  0  0  0  0  0
  189.4280  177.4290  141.8180 C   0  0  0  0  0  3  0  0  0  0  0  0
  186.0980  177.1440  136.6050 C   0  0  0  0  0  0  0  0  0  0  0  0
  187.1690  176.4420  135.8870 C   0  0  0  0  0  3  0  0  0  0  0  0
  184.9150  177.2960  136.0800 C   0  0  0  0  0  0  0  0  0  0  0  0
  182.1020  177.0470  137.4670 C   0  0  2  0  0  3  0  0  0  0  0  0
  187.7040  177.4830  138.4730 C   0  0  0  0  0  0  0  0  0  0  0  0
  188.3410  176.9970  142.7490 C   0  0  0  0  0  2  0  0  0  0  0  0
  183.0210  176.8110  138.6760 C   0  0  2  0  0  3  0  0  0  0  0  0
  187.8800  177.7890  139.9060 C   0  0  0  0  0  0  0  0  0  0  0  0
  183.7330  177.5110  135.5680 C   0  0  0  0  0  3  0  0  0  0  0  0
  182.2230  176.1500  139.8260 C   0  0  2  0  0  3  0  0  0  0  0  0
  183.9810  177.5220  140.8350 C   0  0  0  0  0  2  0  0  0  0  0  0
  188.3530  176.2810  136.4890 C   0  0  0  0  0  3  0  0  0  0  0  0
  185.2820  179.3470  142.1540 C   0  0  1  0  0  3  0  0  0  0  0  0
  187.2900  178.0500  142.9820 C   0  0  0  0  0  0  0  0  0  0  0  0
  186.4640  177.9920  137.7720 C   0  0  0  0  0  2  0  0  0  0  0  0
  181.4920  178.5620  135.7490 C   0  0  0  0  0  2  0  0  0  0  0  0
  186.7850  178.1890  140.5560 C   0  0  0  0  0  3  0  0  0  0  0  0
  180.2360  178.1230  136.5030 C   0  0  0  0  0  2  0  0  0  0  0  0
  180.6720  176.2430  139.8430 C   0  0  0  0  0  2  0  0  0  0  0  0
  189.2130  177.7260  140.5380 C   0  0  0  0  0  3  0  0  0  0  0  0
  186.5570  178.5460  141.9630 C   0  0  0  0  0  0  0  0  0  0  0  0
  183.4030  178.0640  143.1770 O   0  0  0  0  0  0  0  0  0  0  0  0
  182.2530  178.8080  143.4830 C   0  0  0  0  0  1  0  0  0  0  0  0
  187.0080  178.4500  144.2930 O   0  0  0  0  0  0  0  0  0  0  0  0
  186.7780  177.5280  145.3490 C   0  0  0  0  0  2  0  0  0  0  0  0
  187.7200  177.8230  146.5010 C   0  0  0  0  0  2  0  0  0  0  0  0
  189.1440  177.4800  146.1090 C   0  0  0  0  0  2  0  0  0  0  0  0
  189.9150  177.0400  147.3370 C   0  0  0  0  0  2  0  0  0  0  0  0
  191.3270  176.7530  146.9650 C   0  0  0  0  0  0  0  0  0  0  0  0
  191.6840  176.8120  145.7590 O   0  0  0  0  0  0  0  0  0  0  0  0
  192.2430  176.3910  147.9420 O   0  0  0  0  0  1  0  0  0  0  0  0
  1 13  2  0  0  0  0
  2 21  1  0  0  0  0
  2 30  1  1  0  0  0
  5 27  1  0  0  0  0
  6 19  1  1  0  0  0
  7 26  1  6  0  0  0
  7  5  1  0  0  0  0
  8 14  1  0  0  0  0
  9 23  1  0  0  0  0
 10 20  2  0  0  0  0
 10  9  1  0  0  0  0
 11  9  2  0  0  0  0
 12  3  1  6  0  0  0
 12  7  1  0  0  0  0
 12 15  1  0  0  0  0
 13 16  1  0  0  0  0
 14 22  1  0  0  0  0
 15 18  1  0  0  0  0
 15  6  1  0  0  0  0
 16 28  1  0  0  0  0
 16 25  2  0  0  0  0
 17 11  2  0  0  0  0
 17  3  1  0  0  0  0
 18 27  1  0  0  0  0
 18  6  1  0  0  0  0
 19  2  1  0  0  0  0
 20  1  1  0  0  0  0
 21  4  1  0  0  0  0
 22 32  1  0  0  0  0
 23 13  1  0  0  0  0
 24  3  1  0  0  0  0
 24 26  1  0  0  0  0
 25 29  1  0  0  0  0
 28  8  2  0  0  0  0
 29 21  1  0  0  0  0
 29 22  2  0  0  0  0
 30 31  1  0  0  0  0
 32 33  1  0  0  0  0
 33 34  1  0  0  0  0
 35 34  1  0  0  0  0
 35 36  1  0  0  0  0
 37 36  1  0  0  0  0
 37 39  1  0  0  0  0
 38 37  2  0  0  0  0
M  END
>  <MODEL>
3

>  <REMARK>
 VINA RESULT:      -7.6      1.873      5.195
  Name = 
  7 active torsions:
  status: ('A' for Active; 'I' for Inactive)
    1  A    between atoms: C_2  and  O_8
    2  A    between atoms: O_6  and  C_19
    3  A    between atoms: O_6  and  C_28
    4  A    between atoms: C_19  and  C_27
    5  A    between atoms: C_25  and  C_29
    6  A    between atoms: C_25  and  C_39
    7  A    between atoms: C_27  and  C_39
                            x       y       z     vdW  Elec       q    Type
                         _______ _______ _______ _____ _____    ______ ____

>  <TORSDO>
F 7

$$$$
=
 OpenBabel11042411063D

 39 44  0  0  1  0  0  0  0  0999 V2000
  187.5170  178.3830  136.3720 N   0  0  0  0  0  0  0  0  0  0  0  0
  182.4850  176.6230  140.0100 C   0  0  2  0  0  3  0  0  0  0  0  0
  187.5580  177.7530  142.5790 N   0  0  0  0  0  0  0  0  0  0  0  0
  181.5800  174.8750  138.5520 O   0  0  0  0  0  1  0  0  0  0  0  0
  184.8150  179.1100  144.5090 C   0  0  0  0  0  2  0  0  0  0  0  0
  184.0970  177.8080  141.5840 C   0  0  1  0  0  3  0  0  0  0  0  0
  185.7060  178.0100  143.9970 C   0  0  1  0  0  3  0  0  0  0  0  0
  183.8890  177.3910  134.6610 C   0  0  0  0  0  3  0  0  0  0  0  0
  188.1370  178.2300  139.0870 C   0  0  0  0  0  0  0  0  0  0  0  0
  189.0560  178.9050  138.1630 C   0  0  0  0  0  3  0  0  0  0  0  0
  188.3710  178.1910  140.3690 C   0  0  0  0  0  0  0  0  0  0  0  0
  186.3440  178.5350  142.7500 C   0  0  2  0  0  3  0  0  0  0  0  0
  186.7250  177.6670  137.1210 C   0  0  0  0  0  0  0  0  0  0  0  0
  182.7060  177.8330  135.4620 C   0  0  0  0  0  2  0  0  0  0  0  0
  185.3790  178.6320  141.5570 C   0  0  2  0  0  3  0  0  0  0  0  0
  185.3910  177.2580  136.6380 C   0  0  0  0  0  0  0  0  0  0  0  0
  188.5960  178.0870  141.6510 C   0  0  0  0  0  3  0  0  0  0  0  0
  184.0430  179.2680  142.0080 C   0  0  2  0  0  3  0  0  0  0  0  0
  183.5470  177.7220  140.1770 C   0  0  0  0  0  2  0  0  0  0  0  0
  188.7470  178.9490  136.8620 C   0  0  0  0  0  3  0  0  0  0  0  0
  182.6630  175.7340  138.7520 C   0  0  1  0  0  3  0  0  0  0  0  0
  182.2790  176.8390  136.5090 C   0  0  0  0  0  0  0  0  0  0  0  0
  187.1330  177.2870  138.5270 C   0  0  0  0  0  2  0  0  0  0  0  0
  187.9350  177.1780  143.8640 C   0  0  0  0  0  2  0  0  0  0  0  0
  184.5180  176.8900  137.5780 C   0  0  0  0  0  3  0  0  0  0  0  0
  186.8840  177.6500  144.8690 C   0  0  0  0  0  2  0  0  0  0  0  0
  183.6600  179.2770  143.5140 C   0  0  0  0  0  2  0  0  0  0  0  0
  185.0940  177.1920  135.1940 C   0  0  0  0  0  3  0  0  0  0  0  0
  183.1150  176.4590  137.4980 C   0  0  0  0  0  0  0  0  0  0  0  0
  181.1630  177.0700  140.2310 O   0  0  0  0  0  0  0  0  0  0  0  0
  181.0410  178.3860  139.7610 C   0  0  0  0  0  1  0  0  0  0  0  0
  180.9580  176.3750  136.5070 O   0  0  0  0  0  0  0  0  0  0  0  0
  180.3340  175.8260  135.3550 C   0  0  0  0  0  2  0  0  0  0  0  0
  180.2800  174.3150  135.4730 C   0  0  0  0  0  2  0  0  0  0  0  0
  181.5430  173.7030  134.9000 C   0  0  0  0  0  2  0  0  0  0  0  0
  182.1490  172.7490  135.9100 C   0  0  0  0  0  2  0  0  0  0  0  0
  183.5710  173.1110  136.1500 C   0  0  0  0  0  0  0  0  0  0  0  0
  184.1410  172.7550  137.2140 O   0  0  0  0  0  1  0  0  0  0  0  0
  184.2630  173.8680  135.2140 O   0  0  0  0  0  0  0  0  0  0  0  0
  1 20  1  0  0  0  0
  1 13  2  0  0  0  0
  2 19  1  0  0  0  0
  2 30  1  6  0  0  0
  3 24  1  0  0  0  0
  4 21  1  0  0  0  0
  6 19  1  6  0  0  0
  6 18  1  0  0  0  0
  7  5  1  1  0  0  0
  7 26  1  0  0  0  0
  8 28  2  0  0  0  0
  8 14  1  0  0  0  0
  9 11  2  0  0  0  0
 10  9  1  0  0  0  0
 11 17  2  0  0  0  0
 12  3  1  6  0  0  0
 12  7  1  0  0  0  0
 13 23  1  0  0  0  0
 14 22  1  0  0  0  0
 15  6  1  0  0  0  0
 15 18  1  0  0  0  0
 15 12  1  0  0  0  0
 16 13  1  0  0  0  0
 16 25  2  0  0  0  0
 17  3  1  0  0  0  0
 18 27  1  0  0  0  0
 20 10  2  0  0  0  0
 21  2  1  0  0  0  0
 22 29  2  0  0  0  0
 23  9  1  0  0  0  0
 24 26  1  0  0  0  0
 27  5  1  0  0  0  0
 28 16  1  0  0  0  0
 29 25  1  0  0  0  0
 29 21  1  0  0  0  0
 31 30  1  0  0  0  0
 32 22  1  0  0  0  0
 33 34  1  0  0  0  0
 33 32  1  0  0  0  0
 35 34  1  0  0  0  0
 35 36  1  0  0  0  0
 36 37  1  0  0  0  0
 37 38  1  0  0  0  0
 39 37  2  0  0  0  0
M  END
>  <MODEL>
4

>  <REMARK>
 VINA RESULT:      -7.4      4.187      9.017
  Name = 
  7 active torsions:
  status: ('A' for Active; 'I' for Inactive)
    1  A    between atoms: C_2  and  O_8
    2  A    between atoms: O_6  and  C_19
    3  A    between atoms: O_6  and  C_28
    4  A    between atoms: C_19  and  C_27
    5  A    between atoms: C_25  and  C_29
    6  A    between atoms: C_25  and  C_39
    7  A    between atoms: C_27  and  C_39
                            x       y       z     vdW  Elec       q    Type
                         _______ _______ _______ _____ _____    ______ ____

>  <TORSDO>
F 7

$$$$
=
 OpenBabel11042411063D

 39 44  0  0  1  0  0  0  0  0999 V2000
  183.6200  178.6240  142.8890 N   0  0  0  0  0  0  0  0  0  0  0  0
  189.3350  177.7730  140.0130 C   0  0  2  0  0  3  0  0  0  0  0  0
  189.0900  177.9130  145.8040 N   0  0  0  0  0  0  0  0  0  0  0  0
  189.0580  179.3760  138.1810 O   0  0  0  0  0  1  0  0  0  0  0  0
  191.3670  175.3360  144.6810 C   0  0  0  0  0  2  0  0  0  0  0  0
  189.6170  176.9010  142.3880 C   0  0  1  0  0  3  0  0  0  0  0  0
  190.9500  176.7540  144.9670 C   0  0  1  0  0  3  0  0  0  0  0  0
  183.9650  178.6650  138.7720 C   0  0  0  0  0  3  0  0  0  0  0  0
  185.7280  178.4050  144.7020 C   0  0  0  0  0  0  0  0  0  0  0  0
  184.3430  178.2910  145.1730 C   0  0  0  0  0  3  0  0  0  0  0  0
  186.7370  178.2510  145.5140 C   0  0  0  0  0  0  0  0  0  0  0  0
  189.4550  176.7500  145.0120 C   0  0  2  0  0  3  0  0  0  0  0  0
  184.8190  178.8560  142.4320 C   0  0  0  0  0  0  0  0  0  0  0  0
  184.9690  177.6910  138.2430 C   0  0  0  0  0  2  0  0  0  0  0  0
  188.7970  176.5840  143.6320 C   0  0  2  0  0  3  0  0  0  0  0  0
  185.0860  178.8810  140.9810 C   0  0  0  0  0  0  0  0  0  0  0  0
  187.7700  178.1530  146.3050 C   0  0  0  0  0  3  0  0  0  0  0  0
  189.4990  175.4540  142.8430 C   0  0  2  0  0  3  0  0  0  0  0  0
  188.6720  177.0900  141.2200 C   0  0  0  0  0  2  0  0  0  0  0  0
  183.3470  178.4190  144.2880 C   0  0  0  0  0  3  0  0  0  0  0  0
  188.4980  178.9120  139.3750 C   0  0  1  0  0  3  0  0  0  0  0  0
  186.3700  178.2390  138.1850 C   0  0  0  0  0  0  0  0  0  0  0  0
  185.9790  179.0470  143.3840 C   0  0  0  0  0  2  0  0  0  0  0  0
  190.2260  178.2990  146.6300 C   0  0  0  0  0  2  0  0  0  0  0  0
  186.3600  178.7260  140.6190 C   0  0  0  0  0  3  0  0  0  0  0  0
  191.3410  177.3000  146.3180 C   0  0  0  0  0  2  0  0  0  0  0  0
  190.9290  175.0000  143.2490 C   0  0  0  0  0  2  0  0  0  0  0  0
  184.0010  179.1440  140.0140 C   0  0  0  0  0  3  0  0  0  0  0  0
  187.0040  178.6630  139.2990 C   0  0  0  0  0  0  0  0  0  0  0  0
  189.9000  176.8690  139.0860 O   0  0  0  0  0  0  0  0  0  0  0  0
  191.2920  176.8430  139.2640 C   0  0  0  0  0  1  0  0  0  0  0  0
  187.0580  178.2180  136.9660 O   0  0  0  0  0  0  0  0  0  0  0  0
  186.9150  177.1710  136.0170 C   0  0  0  0  0  2  0  0  0  0  0  0
  188.1430  176.2800  136.0490 C   0  0  0  0  0  2  0  0  0  0  0  0
  187.8670  175.0440  136.8830 C   0  0  0  0  0  2  0  0  0  0  0  0
  186.4080  174.6550  136.7450 C   0  0  0  0  0  2  0  0  0  0  0  0
  186.2090  173.2720  137.2560 C   0  0  0  0  0  0  0  0  0  0  0  0
  187.0700  172.3840  137.0210 O   0  0  0  0  0  0  0  0  0  0  0  0
  185.0600  172.9520  137.9650 O   0  0  0  0  0  1  0  0  0  0  0  0
  1 20  1  0  0  0  0
  2 30  1  6  0  0  0
  2 19  1  0  0  0  0
  3 17  1  0  0  0  0
  3 24  1  0  0  0  0
  4 21  1  0  0  0  0
  6 19  1  6  0  0  0
  6 18  1  0  0  0  0
  6 15  1  0  0  0  0
  7  5  1  1  0  0  0
  7 12  1  0  0  0  0
  7 26  1  0  0  0  0
  8 28  2  0  0  0  0
  9 10  1  0  0  0  0
  9 11  2  0  0  0  0
 11 17  2  0  0  0  0
 12  3  1  6  0  0  0
 13  1  2  0  0  0  0
 13 23  1  0  0  0  0
 14  8  1  0  0  0  0
 15 12  1  0  0  0  0
 16 13  1  0  0  0  0
 18 27  1  0  0  0  0
 18 15  1  0  0  0  0
 20 10  2  0  0  0  0
 21  2  1  0  0  0  0
 22 14  1  0  0  0  0
 22 29  2  0  0  0  0
 23  9  1  0  0  0  0
 25 16  2  0  0  0  0
 26 24  1  0  0  0  0
 27  5  1  0  0  0  0
 28 16  1  0  0  0  0
 29 21  1  0  0  0  0
 29 25  1  0  0  0  0
 30 31  1  0  0  0  0
 32 22  1  0  0  0  0
 33 34  1  0  0  0  0
 33 32  1  0  0  0  0
 34 35  1  0  0  0  0
 36 35  1  0  0  0  0
 36 37  1  0  0  0  0
 37 39  1  0  0  0  0
 38 37  2  0  0  0  0
M  END
>  <MODEL>
5

>  <REMARK>
 VINA RESULT:      -7.1      3.046      7.599
  Name = 
  7 active torsions:
  status: ('A' for Active; 'I' for Inactive)
    1  A    between atoms: C_2  and  O_8
    2  A    between atoms: O_6  and  C_19
    3  A    between atoms: O_6  and  C_28
    4  A    between atoms: C_19  and  C_27
    5  A    between atoms: C_25  and  C_29
    6  A    between atoms: C_25  and  C_39
    7  A    between atoms: C_27  and  C_39
                            x       y       z     vdW  Elec       q    Type
                         _______ _______ _______ _____ _____    ______ ____

>  <TORSDO>
F 7

$$$$
=
 OpenBabel11042411063D

 39 44  0  0  1  0  0  0  0  0999 V2000
  187.5710  177.8660  142.9620 N   0  0  0  0  0  0  0  0  0  0  0  0
  183.5390  178.5250  137.9660 C   0  0  2  0  0  3  0  0  0  0  0  0
  189.0970  177.2320  136.9460 N   0  0  0  0  0  0  0  0  0  0  0  0
  182.2830  180.4680  138.7700 O   0  0  0  0  0  1  0  0  0  0  0  0
  186.9220  175.3380  134.7630 C   0  0  0  0  0  2  0  0  0  0  0  0
  185.5000  177.1540  137.0970 C   0  0  1  0  0  3  0  0  0  0  0  0
  187.6460  176.5750  135.2240 C   0  0  1  0  0  3  0  0  0  0  0  0
  183.6230  178.9450  143.5330 C   0  0  0  0  0  3  0  0  0  0  0  0
  188.8250  177.5080  140.4970 C   0  0  0  0  0  0  0  0  0  0  0  0
  189.5040  177.0960  141.7300 C   0  0  0  0  0  3  0  0  0  0  0  0
  189.3610  177.3030  139.3260 C   0  0  0  0  0  0  0  0  0  0  0  0
  187.9720  176.3540  136.6670 C   0  0  2  0  0  3  0  0  0  0  0  0
  186.9720  178.3630  141.9160 C   0  0  0  0  0  0  0  0  0  0  0  0
  182.6750  178.2740  142.5910 C   0  0  0  0  0  2  0  0  0  0  0  0
  186.7500  176.4370  137.5960 C   0  0  2  0  0  3  0  0  0  0  0  0
  185.5550  178.7740  141.9770 C   0  0  0  0  0  0  0  0  0  0  0  0
  189.8870  177.1600  138.1390 C   0  0  0  0  0  3  0  0  0  0  0  0
  185.5710  175.6380  136.9920 C   0  0  2  0  0  3  0  0  0  0  0  0
  184.6260  177.4870  138.2880 C   0  0  0  0  0  2  0  0  0  0  0  0
  188.8920  177.2950  142.9030 C   0  0  0  0  0  3  0  0  0  0  0  0
  183.3950  179.6590  139.0140 C   0  0  1  0  0  3  0  0  0  0  0  0
  182.4980  179.0060  141.2870 C   0  0  0  0  0  0  0  0  0  0  0  0
  187.7010  178.4780  140.5950 C   0  0  0  0  0  2  0  0  0  0  0  0
  189.7640  177.5600  135.6930 C   0  0  0  0  0  2  0  0  0  0  0  0
  184.9300  178.8860  140.8040 C   0  0  0  0  0  3  0  0  0  0  0  0
  188.9940  176.8270  134.5940 C   0  0  0  0  0  2  0  0  0  0  0  0
  185.5630  175.3000  135.4740 C   0  0  0  0  0  2  0  0  0  0  0  0
  184.9180  179.1100  143.2650 C   0  0  0  0  0  3  0  0  0  0  0  0
  183.5420  179.2320  140.4630 C   0  0  0  0  0  0  0  0  0  0  0  0
  182.3160  177.9570  137.5430 O   0  0  0  0  0  0  0  0  0  0  0  0
  182.1900  178.1220  136.1560 C   0  0  0  0  0  1  0  0  0  0  0  0
  181.2090  179.3740  140.8840 O   0  0  0  0  0  0  0  0  0  0  0  0
  180.0330  178.8610  141.4950 C   0  0  0  0  0  2  0  0  0  0  0  0
  179.3300  177.9160  140.5390 C   0  0  0  0  0  2  0  0  0  0  0  0
  179.5880  176.4780  140.9470 C   0  0  0  0  0  2  0  0  0  0  0  0
  179.4530  175.5760  139.7370 C   0  0  0  0  0  2  0  0  0  0  0  0
  180.8020  175.2530  139.2000 C   0  0  0  0  0  0  0  0  0  0  0  0
  180.9160  174.5210  138.1820 O   0  0  0  0  0  0  0  0  0  0  0  0
  181.9370  175.7320  139.8400 O   0  0  0  0  0  1  0  0  0  0  0  0
  2 30  1  1  0  0  0
  2 19  1  0  0  0  0
  2 21  1  0  0  0  0
  3 17  1  0  0  0  0
  4 21  1  0  0  0  0
  5  7  1  0  0  0  0
  5 27  1  0  0  0  0
  6 15  1  0  0  0  0
  6 19  1  1  0  0  0
  7 26  1  6  0  0  0
  7 12  1  0  0  0  0
  9 23  1  0  0  0  0
  9 10  1  0  0  0  0
 10 20  2  0  0  0  0
 11  9  2  0  0  0  0
 12  3  1  1  0  0  0
 12 15  1  0  0  0  0
 13 16  1  0  0  0  0
 13  1  2  0  0  0  0
 14  8  1  0  0  0  0
 16 28  1  0  0  0  0
 17 11  2  0  0  0  0
 18  6  1  0  0  0  0
 18 15  1  0  0  0  0
 20  1  1  0  0  0  0
 21 29  1  0  0  0  0
 22 14  1  0  0  0  0
 23 13  1  0  0  0  0
 24  3  1  0  0  0  0
 25 16  2  0  0  0  0
 26 24  1  0  0  0  0
 27 18  1  0  0  0  0
 28  8  2  0  0  0  0
 29 25  1  0  0  0  0
 29 22  2  0  0  0  0
 31 30  1  0  0  0  0
 32 22  1  0  0  0  0
 32 33  1  0  0  0  0
 34 35  1  0  0  0  0
 34 33  1  0  0  0  0
 36 35  1  0  0  0  0
 37 36  1  0  0  0  0
 37 39  1  0  0  0  0
 38 37  2  0  0  0  0
M  END
>  <MODEL>
6

>  <REMARK>
 VINA RESULT:      -6.9      4.229      7.099
  Name = 
  7 active torsions:
  status: ('A' for Active; 'I' for Inactive)
    1  A    between atoms: C_2  and  O_8
    2  A    between atoms: O_6  and  C_19
    3  A    between atoms: O_6  and  C_28
    4  A    between atoms: C_19  and  C_27
    5  A    between atoms: C_25  and  C_29
    6  A    between atoms: C_25  and  C_39
    7  A    between atoms: C_27  and  C_39
                            x       y       z     vdW  Elec       q    Type
                         _______ _______ _______ _____ _____    ______ ____

>  <TORSDO>
F 7

$$$$
=
 OpenBabel11042411063D

 39 44  0  0  1  0  0  0  0  0999 V2000
  187.6780  178.3010  141.4650 N   0  0  0  0  0  0  0  0  0  0  0  0
  187.0600  176.1940  135.3970 C   0  0  2  0  0  3  0  0  0  0  0  0
  192.3150  176.2190  137.8460 N   0  0  0  0  0  0  0  0  0  0  0  0
  185.4630  177.8690  134.5940 O   0  0  0  0  0  1  0  0  0  0  0  0
  191.8220  173.2060  135.9050 C   0  0  0  0  0  2  0  0  0  0  0  0
  189.2470  175.2100  136.2520 C   0  0  1  0  0  3  0  0  0  0  0  0
  192.1000  174.6740  136.0940 C   0  0  1  0  0  3  0  0  0  0  0  0
  184.0230  178.3790  139.5410 C   0  0  0  0  0  3  0  0  0  0  0  0
  190.1070  177.5310  140.3280 C   0  0  0  0  0  0  0  0  0  0  0  0
  190.0100  177.7390  141.7770 C   0  0  0  0  0  3  0  0  0  0  0  0
  191.2110  177.1170  139.7730 C   0  0  0  0  0  0  0  0  0  0  0  0
  191.5830  175.0260  137.4530 C   0  0  2  0  0  3  0  0  0  0  0  0
  187.7330  178.2530  140.1630 C   0  0  0  0  0  0  0  0  0  0  0  0
  183.7950  177.2090  138.6380 C   0  0  0  0  0  2  0  0  0  0  0  0
  190.0490  175.0630  137.5400 C   0  0  2  0  0  3  0  0  0  0  0  0
  186.4990  178.2560  139.3530 C   0  0  0  0  0  0  0  0  0  0  0  0
  192.3130  176.7530  139.1750 C   0  0  0  0  0  3  0  0  0  0  0  0
  189.4490  173.8210  136.8390 C   0  0  2  0  0  3  0  0  0  0  0  0
  187.8430  175.6530  136.6040 C   0  0  0  0  0  2  0  0  0  0  0  0
  188.8400  178.1270  142.2990 C   0  0  0  0  0  3  0  0  0  0  0  0
  186.2970  177.5180  135.6590 C   0  0  1  0  0  3  0  0  0  0  0  0
  184.3290  177.4070  137.2440 C   0  0  0  0  0  0  0  0  0  0  0  0
  189.0640  178.1340  139.4540 C   0  0  0  0  0  2  0  0  0  0  0  0
  193.5450  176.2980  137.0690 C   0  0  0  0  0  2  0  0  0  0  0  0
  186.6230  177.8110  138.1010 C   0  0  0  0  0  3  0  0  0  0  0  0
  193.5540  175.0710  136.1570 C   0  0  0  0  0  2  0  0  0  0  0  0
  190.3020  173.0270  135.8100 C   0  0  0  0  0  2  0  0  0  0  0  0
  185.2380  178.7990  139.8930 C   0  0  0  0  0  3  0  0  0  0  0  0
  185.6410  177.6350  137.0220 C   0  0  0  0  0  0  0  0  0  0  0  0
  186.3100  175.2080  134.7160 O   0  0  0  0  0  0  0  0  0  0  0  0
  185.7860  174.3050  135.6530 C   0  0  0  0  0  1  0  0  0  0  0  0
  183.4610  177.2580  136.1560 O   0  0  0  0  0  0  0  0  0  0  0  0
  182.0510  177.1620  136.3010 C   0  0  0  0  0  2  0  0  0  0  0  0
  181.4120  178.5020  135.9910 C   0  0  0  0  0  2  0  0  0  0  0  0
  180.7940  179.0860  137.2480 C   0  0  0  0  0  2  0  0  0  0  0  0
  181.5680  180.3190  137.6670 C   0  0  0  0  0  2  0  0  0  0  0  0
  180.7920  181.5390  137.3190 C   0  0  0  0  0  0  0  0  0  0  0  0
  181.1720  182.6660  137.7310 O   0  0  0  0  0  1  0  0  0  0  0  0
  179.6310  181.4330  136.5650 O   0  0  0  0  0  0  0  0  0  0  0  0
  1 20  1  0  0  0  0
  2 30  1  1  0  0  0
  2 21  1  0  0  0  0
  2 19  1  0  0  0  0
  3 17  1  0  0  0  0
  4 21  1  0  0  0  0
  6 19  1  1  0  0  0
  6 18  1  0  0  0  0
  6 15  1  0  0  0  0
  7  5  1  1  0  0  0
  7 26  1  0  0  0  0
  7 12  1  0  0  0  0
  8 28  2  0  0  0  0
  9 10  1  0  0  0  0
 10 20  2  0  0  0  0
 11  9  2  0  0  0  0
 12 15  1  0  0  0  0
 12  3  1  6  0  0  0
 13  1  2  0  0  0  0
 14  8  1  0  0  0  0
 16 28  1  0  0  0  0
 16 13  1  0  0  0  0
 17 11  2  0  0  0  0
 18 15  1  0  0  0  0
 21 29  1  0  0  0  0
 22 14  1  0  0  0  0
 23 13  1  0  0  0  0
 23  9  1  0  0  0  0
 24  3  1  0  0  0  0
 25 16  2  0  0  0  0
 26 24  1  0  0  0  0
 27  5  1  0  0  0  0
 27 18  1  0  0  0  0
 29 22  2  0  0  0  0
 29 25  1  0  0  0  0
 30 31  1  0  0  0  0
 32 33  1  0  0  0  0
 32 22  1  0  0  0  0
 34 33  1  0  0  0  0
 34 35  1  0  0  0  0
 35 36  1  0  0  0  0
 37 36  1  0  0  0  0
 37 38  1  0  0  0  0
 39 37  2  0  0  0  0
M  END
>  <MODEL>
7

>  <REMARK>
 VINA RESULT:      -6.4      5.064      8.572
  Name = 
  7 active torsions:
  status: ('A' for Active; 'I' for Inactive)
    1  A    between atoms: C_2  and  O_8
    2  A    between atoms: O_6  and  C_19
    3  A    between atoms: O_6  and  C_28
    4  A    between atoms: C_19  and  C_27
    5  A    between atoms: C_25  and  C_29
    6  A    between atoms: C_25  and  C_39
    7  A    between atoms: C_27  and  C_39
                            x       y       z     vdW  Elec       q    Type
                         _______ _______ _______ _____ _____    ______ ____

>  <TORSDO>
F 7

$$$$
=
 OpenBabel11042411063D

 39 44  0  0  1  0  0  0  0  0999 V2000
  188.1750  176.5960  136.2510 N   0  0  0  0  0  0  0  0  0  0  0  0
  184.5840  178.4260  141.2920 C   0  0  2  0  0  3  0  0  0  0  0  0
  182.0460  177.7540  136.1230 N   0  0  0  0  0  0  0  0  0  0  0  0
  186.1630  179.9990  142.3070 O   0  0  0  0  0  1  0  0  0  0  0  0
  179.9460  176.4420  138.7600 C   0  0  0  0  0  2  0  0  0  0  0  0
  182.9530  177.4550  139.5950 C   0  0  1  0  0  3  0  0  0  0  0  0
  180.5700  177.5350  137.9330 C   0  0  1  0  0  3  0  0  0  0  0  0
  189.8790  177.2700  139.9540 C   0  0  0  0  0  3  0  0  0  0  0  0
  185.4970  177.0080  135.5870 C   0  0  0  0  0  0  0  0  0  0  0  0
  186.3820  176.3010  134.6540 C   0  0  0  0  0  3  0  0  0  0  0  0
  184.2290  177.1680  135.3310 C   0  0  0  0  0  0  0  0  0  0  0  0
  181.7820  176.9350  137.2940 C   0  0  2  0  0  3  0  0  0  0  0  0
  187.4710  177.3360  137.0620 C   0  0  0  0  0  0  0  0  0  0  0  0
  189.0170  176.8430  141.0980 C   0  0  0  0  0  2  0  0  0  0  0  0
  182.9400  176.6920  138.2760 C   0  0  2  0  0  3  0  0  0  0  0  0
  187.9560  177.6400  138.4230 C   0  0  0  0  0  0  0  0  0  0  0  0
  182.9660  177.3910  135.0870 C   0  0  0  0  0  3  0  0  0  0  0  0
  182.4060  176.0350  139.5710 C   0  0  2  0  0  3  0  0  0  0  0  0
  184.3500  177.3960  140.1750 C   0  0  0  0  0  2  0  0  0  0  0  0
  187.6680  176.1320  134.9850 C   0  0  0  0  0  3  0  0  0  0  0  0
  185.9160  179.2110  141.1800 C   0  0  1  0  0  3  0  0  0  0  0  0
  188.0480  177.9020  141.5530 C   0  0  0  0  0  0  0  0  0  0  0  0
  186.1120  177.8530  136.6460 C   0  0  0  0  0  2  0  0  0  0  0  0
  180.8230  178.4540  135.7490 C   0  0  0  0  0  2  0  0  0  0  0  0
  187.0300  178.0460  139.2940 C   0  0  0  0  0  3  0  0  0  0  0  0
  179.7580  178.0220  136.7580 C   0  0  0  0  0  2  0  0  0  0  0  0
  180.8960  176.1370  139.9250 C   0  0  0  0  0  2  0  0  0  0  0  0
  189.3930  177.5690  138.7500 C   0  0  0  0  0  3  0  0  0  0  0  0
  187.1140  178.4030  140.7180 C   0  0  0  0  0  0  0  0  0  0  0  0
  184.2960  177.9390  142.5860 O   0  0  0  0  0  0  0  0  0  0  0  0
  183.3610  178.7880  143.1970 C   0  0  0  0  0  1  0  0  0  0  0  0
  188.0590  178.3020  142.8940 O   0  0  0  0  0  0  0  0  0  0  0  0
  189.1970  178.1600  143.7340 C   0  0  0  0  0  2  0  0  0  0  0  0
  188.7560  178.0690  145.1820 C   0  0  0  0  0  2  0  0  0  0  0  0
  187.6550  177.0360  145.3270 C   0  0  0  0  0  2  0  0  0  0  0  0
  186.3440  177.7320  145.6330 C   0  0  0  0  0  2  0  0  0  0  0  0
  186.4440  178.4330  146.9420 C   0  0  0  0  0  0  0  0  0  0  0  0
  187.1900  177.9740  147.8460 O   0  0  0  0  0  1  0  0  0  0  0  0
  185.6910  179.5750  147.1780 O   0  0  0  0  0  0  0  0  0  0  0  0
  1 13  2  0  0  0  0
  2 30  1  1  0  0  0
  5 27  1  0  0  0  0
  6 19  1  1  0  0  0
  7 26  1  6  0  0  0
  7  5  1  0  0  0  0
  8 14  1  0  0  0  0
  9 23  1  0  0  0  0
 10 20  2  0  0  0  0
 10  9  1  0  0  0  0
 11  9  2  0  0  0  0
 12  3  1  6  0  0  0
 12  7  1  0  0  0  0
 12 15  1  0  0  0  0
 13 16  1  0  0  0  0
 14 22  1  0  0  0  0
 15 18  1  0  0  0  0
 15  6  1  0  0  0  0
 16 28  1  0  0  0  0
 16 25  2  0  0  0  0
 17 11  2  0  0  0  0
 17  3  1  0  0  0  0
 18  6  1  0  0  0  0
 18 27  1  0  0  0  0
 19  2  1  0  0  0  0
 20  1  1  0  0  0  0
 21  2  1  0  0  0  0
 21  4  1  0  0  0  0
 22 32  1  0  0  0  0
 23 13  1  0  0  0  0
 24  3  1  0  0  0  0
 24 26  1  0  0  0  0
 25 29  1  0  0  0  0
 28  8  2  0  0  0  0
 29 21  1  0  0  0  0
 29 22  2  0  0  0  0
 30 31  1  0  0  0  0
 32 33  1  0  0  0  0
 33 34  1  0  0  0  0
 34 35  1  0  0  0  0
 35 36  1  0  0  0  0
 36 37  1  0  0  0  0
 37 39  2  0  0  0  0
 37 38  1  0  0  0  0
M  END
>  <MODEL>
8

>  <REMARK>
 VINA RESULT:      -6.4      2.170      5.830
  Name = 
  7 active torsions:
  status: ('A' for Active; 'I' for Inactive)
    1  A    between atoms: C_2  and  O_8
    2  A    between atoms: O_6  and  C_19
    3  A    between atoms: O_6  and  C_28
    4  A    between atoms: C_19  and  C_27
    5  A    between atoms: C_25  and  C_29
    6  A    between atoms: C_25  and  C_39
    7  A    between atoms: C_27  and  C_39
                            x       y       z     vdW  Elec       q    Type
                         _______ _______ _______ _____ _____    ______ ____

>  <TORSDO>
F 7

$$$$
=
 OpenBabel11042411063D

 39 44  0  0  1  0  0  0  0  0999 V2000
  185.1370  171.9730  136.4250 N   0  0  0  0  0  0  0  0  0  0  0  0
  187.2590  178.0570  136.7950 C   0  0  2  0  0  3  0  0  0  0  0  0
  181.5480  177.0610  136.8310 N   0  0  0  0  0  0  0  0  0  0  0  0
  189.0820  177.9020  135.1660 O   0  0  0  0  0  1  0  0  0  0  0  0
  182.4110  179.6450  139.2110 C   0  0  0  0  0  2  0  0  0  0  0  0
  184.8840  178.0950  137.7100 C   0  0  1  0  0  3  0  0  0  0  0  0
  182.1560  179.0930  137.8330 C   0  0  1  0  0  3  0  0  0  0  0  0
  189.1720  172.8400  136.2470 C   0  0  0  0  0  3  0  0  0  0  0  0
  183.0690  173.8420  136.5460 C   0  0  0  0  0  0  0  0  0  0  0  0
  182.7840  172.4200  136.7690 C   0  0  0  0  0  3  0  0  0  0  0  0
  182.1350  174.7460  136.6510 C   0  0  0  0  0  0  0  0  0  0  0  0
  182.3060  177.6080  137.9440 C   0  0  2  0  0  3  0  0  0  0  0  0
  185.4290  173.2010  136.0980 C   0  0  0  0  0  0  0  0  0  0  0  0
  189.5830  173.9720  137.1340 C   0  0  0  0  0  2  0  0  0  0  0  0
  183.7620  177.1470  138.1170 C   0  0  2  0  0  3  0  0  0  0  0  0
  186.8330  173.6490  136.0140 C   0  0  0  0  0  0  0  0  0  0  0  0
  181.2180  175.6730  136.6980 C   0  0  0  0  0  3  0  0  0  0  0  0
  184.4740  178.0250  139.1740 C   0  0  2  0  0  3  0  0  0  0  0  0
  186.1610  177.2970  137.5560 C   0  0  0  0  0  2  0  0  0  0  0  0
  183.7880  171.5390  136.6870 C   0  0  0  0  0  3  0  0  0  0  0  0
  187.9800  177.2290  135.7000 C   0  0  1  0  0  3  0  0  0  0  0  0
  189.4490  175.3260  136.4880 C   0  0  0  0  0  0  0  0  0  0  0  0
  184.3310  174.2120  135.8510 C   0  0  0  0  0  2  0  0  0  0  0  0
  180.5740  178.0500  136.3890 C   0  0  0  0  0  2  0  0  0  0  0  0
  187.0280  174.9680  136.0700 C   0  0  0  0  0  3  0  0  0  0  0  0
  180.7560  179.2660  137.2990 C   0  0  0  0  0  2  0  0  0  0  0  0
  183.8930  179.4200  139.5370 C   0  0  0  0  0  2  0  0  0  0  0  0
  187.9270  172.6820  135.8020 C   0  0  0  0  0  3  0  0  0  0  0  0
  188.2540  175.7790  136.0510 C   0  0  0  0  0  0  0  0  0  0  0  0
  188.1210  178.8010  137.6310 O   0  0  0  0  0  0  0  0  0  0  0  0
  188.2500  178.1390  138.8610 C   0  0  0  0  0  1  0  0  0  0  0  0
  190.5680  176.1640  136.4280 O   0  0  0  0  0  0  0  0  0  0  0  0
  191.2860  176.5780  137.5820 C   0  0  0  0  0  2  0  0  0  0  0  0
  192.7650  176.3050  137.3890 C   0  0  0  0  0  2  0  0  0  0  0  0
  193.0690  174.8500  137.6900 C   0  0  0  0  0  2  0  0  0  0  0  0
  194.5280  174.5650  137.3990 C   0  0  0  0  0  2  0  0  0  0  0  0
  195.2170  174.1520  138.6510 C   0  0  0  0  0  0  0  0  0  0  0  0
  195.6800  175.0250  139.4310 O   0  0  0  0  0  1  0  0  0  0  0  0
  195.3770  172.8050  138.9440 O   0  0  0  0  0  0  0  0  0  0  0  0
  1 20  1  0  0  0  0
  2 19  1  0  0  0  0
  2 30  1  1  0  0  0
  4 21  1  0  0  0  0
  5 27  1  0  0  0  0
  6 19  1  1  0  0  0
  6 15  1  0  0  0  0
  6 18  1  0  0  0  0
  7 26  1  1  0  0  0
  7 12  1  0  0  0  0
  7  5  1  0  0  0  0
  8 14  1  0  0  0  0
  9 11  2  0  0  0  0
  9 10  1  0  0  0  0
 11 17  2  0  0  0  0
 12  3  1  6  0  0  0
 12 15  1  0  0  0  0
 13  1  2  0  0  0  0
 15 18  1  0  0  0  0
 16 25  2  0  0  0  0
 16 13  1  0  0  0  0
 17  3  1  0  0  0  0
 18 27  1  0  0  0  0
 20 10  2  0  0  0  0
 21 29  1  0  0  0  0
 21  2  1  0  0  0  0
 22 14  1  0  0  0  0
 23 13  1  0  0  0  0
 23  9  1  0  0  0  0
 24  3  1  0  0  0  0
 24 26  1  0  0  0  0
 28 16  1  0  0  0  0
 28  8  2  0  0  0  0
 29 25  1  0  0  0  0
 29 22  2  0  0  0  0
 30 31  1  0  0  0  0
 32 22  1  0  0  0  0
 32 33  1  0  0  0  0
 34 33  1  0  0  0  0
 34 35  1  0  0  0  0
 36 35  1  0  0  0  0
 36 37  1  0  0  0  0
 37 39  2  0  0  0  0
 37 38  1  0  0  0  0
M  END
>  <MODEL>
9

>  <REMARK>
 VINA RESULT:      -6.3      4.966      7.918
  Name = 
  7 active torsions:
  status: ('A' for Active; 'I' for Inactive)
    1  A    between atoms: C_2  and  O_8
    2  A    between atoms: O_6  and  C_19
    3  A    between atoms: O_6  and  C_28
    4  A    between atoms: C_19  and  C_27
    5  A    between atoms: C_25  and  C_29
    6  A    between atoms: C_25  and  C_39
    7  A    between atoms: C_27  and  C_39
                            x       y       z     vdW  Elec       q    Type
                         _______ _______ _______ _____ _____    ______ ____

>  <TORSDO>
F 7

$$$$
