=
 OpenBabel11042411463D

 47 50  0  0  1  0  0  0  0  0999 V2000
  183.6570  178.5780  143.2110 C   0  0  1  0  0  3  0  0  0  0  0  0
  185.5890  178.5780  141.5840 C   0  0  0  0  0  3  0  0  0  0  0  0
  183.3230  178.5320  140.7340 C   0  0  0  0  0  3  0  0  0  0  0  0
  185.1930  178.5330  139.1910 C   0  0  0  0  0  0  0  0  0  0  0  0
  183.8150  178.5140  139.4250 C   0  0  0  0  0  3  0  0  0  0  0  0
  186.0820  178.5560  140.2760 C   0  0  0  0  0  3  0  0  0  0  0  0
  184.2070  178.5630  141.8170 C   0  0  0  0  0  0  0  0  0  0  0  0
  185.7000  178.4530  137.7900 C   0  0  0  0  0  2  0  0  0  0  0  0
  187.0470  177.7150  137.7060 C   0  0  1  0  0  3  0  0  0  0  0  0
  186.9240  176.5680  136.7840 N   0  0  0  0  0  0  0  0  0  0  0  0
  186.6510  174.2950  137.0150 C   0  0  0  0  0  2  0  0  0  0  0  0
  187.4880  175.4300  137.3910 N   0  0  0  0  0  2  0  0  0  0  0  0
  185.4210  174.7990  136.4320 N   0  0  0  0  0  2  0  0  0  0  0  0
  185.5120  176.2320  136.6150 C   0  0  0  0  0  2  0  0  0  0  0  0
  189.0970  178.0230  136.2610 C   0  0  0  0  0  1  0  0  0  0  0  0
  188.8980  179.1750  138.3120 O   0  0  0  0  0  1  0  0  0  0  0  0
  188.1470  178.6950  137.2340 C   0  0  2  0  0  3  0  0  0  0  0  0
  184.6790  179.0670  144.1950 C   0  0  0  0  0  0  0  0  0  0  0  0
  185.4600  178.1440  144.9650 N   0  0  0  0  0  2  0  0  0  0  0  0
  184.8240  180.3080  144.3630 O   0  0  0  0  0  0  0  0  0  0  0  0
  186.3390  178.5720  146.0480 C   0  0  0  0  0  2  0  0  0  0  0  0
  187.4490  177.5510  146.2690 C   0  0  0  0  0  2  0  0  0  0  0  0
  187.8990  176.6650  143.9720 C   0  0  0  0  0  3  0  0  0  0  0  0
  189.9180  177.3000  142.7790 C   0  0  0  0  0  0  0  0  0  0  0  0
  191.5330  178.9170  143.9370 C   0  0  0  0  0  1  0  0  0  0  0  0
  189.4610  178.1610  144.9770 N   0  0  0  0  0  0  0  0  0  0  0  0
  188.7160  176.5880  142.8430 C   0  0  0  0  0  3  0  0  0  0  0  0
  188.2940  177.4640  145.0440 C   0  0  0  0  0  0  0  0  0  0  0  0
  190.2800  178.1070  143.8920 C   0  0  0  0  0  0  0  0  0  0  0  0
  190.7170  177.1380  141.5930 N   0  0  0  0  0  0  0  0  0  0  0  0
  190.2840  176.7210  140.4490 C   0  0  0  0  0  3  0  0  0  0  0  0
  191.2030  176.6120  139.2810 C   0  0  0  0  0  2  0  0  0  0  0  0
  192.5460  177.2650  139.5910 C   0  0  0  0  0  2  0  0  0  0  0  0
  193.5730  176.6930  138.7890 O   0  0  0  0  0  0  0  0  0  0  0  0
  193.2920  175.9000  137.6750 C   0  0  0  0  0  0  0  0  0  0  0  0
  192.7420  176.3910  136.6530 O   0  0  0  0  0  0  0  0  0  0  0  0
  193.6710  174.4590  137.6920 C   0  0  0  0  0  1  0  0  0  0  0  0
  182.4430  179.3810  143.2540 N   0  0  0  0  0  2  0  0  0  0  0  0
  181.4580  178.6250  144.0060 C   0  0  0  0  0  2  0  0  0  0  0  0
  180.1820  179.0970  143.7000 O   0  0  0  0  0  0  0  0  0  0  0  0
  180.1980  179.3050  142.3170 C   0  0  0  0  0  2  0  0  0  0  0  0
  179.6410  178.0810  141.6040 C   0  0  0  0  0  2  0  0  0  0  0  0
  179.5850  178.3060  140.1230 C   0  0  0  0  0  0  0  0  0  0  0  0
  179.0820  179.3290  139.6840 O   0  0  0  0  0  0  0  0  0  0  0  0
  180.1850  177.3100  139.1800 C   0  0  0  0  0  3  0  0  0  0  0  0
  179.3090  176.0670  139.1170 C   0  0  0  0  0  2  0  0  0  0  0  0
  180.5860  176.0440  139.9220 C   0  0  0  0  0  2  0  0  0  0  0  0
  1 38  1  6  0  0  0
  1 18  1  0  0  0  0
  2  7  1  0  0  0  0
  3  7  2  0  0  0  0
  4  5  2  0  0  0  0
  4  6  1  0  0  0  0
  5  3  1  0  0  0  0
  6  2  2  0  0  0  0
  7  1  1  0  0  0  0
  8  4  1  0  0  0  0
  9  8  1  6  0  0  0
 10 12  1  0  0  0  0
 10  9  1  0  0  0  0
 11 12  1  0  0  0  0
 13 14  1  0  0  0  0
 13 11  1  0  0  0  0
 14 10  1  0  0  0  0
 17 15  1  6  0  0  0
 17  9  1  0  0  0  0
 17 16  1  0  0  0  0
 18 20  2  0  0  0  0
 18 19  1  0  0  0  0
 19 21  1  0  0  0  0
 21 22  1  0  0  0  0
 23 28  1  0  0  0  0
 24 27  1  0  0  0  0
 24 29  2  0  0  0  0
 26 28  2  0  0  0  0
 27 23  2  0  0  0  0
 28 22  1  0  0  0  0
 29 25  1  0  0  0  0
 29 26  1  0  0  0  0
 30 24  1  0  0  0  0
 31 30  2  0  0  0  0
 32 33  1  0  0  0  0
 32 31  1  0  0  0  0
 34 33  1  0  0  0  0
 35 37  1  0  0  0  0
 35 34  1  0  0  0  0
 36 35  2  0  0  0  0
 38 39  1  0  0  0  0
 40 39  1  0  0  0  0
 41 40  1  0  0  0  0
 42 41  1  0  0  0  0
 43 42  1  0  0  0  0
 44 43  2  0  0  0  0
 45 47  1  0  0  0  0
 45 43  1  0  0  0  0
 46 45  1  0  0  0  0
 46 47  1  0  0  0  0
M  END
>  <MODEL>
1

>  <REMARK>
 VINA RESULT:      -6.7      0.000      0.000
  Name = 
  21 active torsions:
  status: ('A' for Active; 'I' for Inactive)
    1  A    between atoms: C_3  and  C_13
    2  A    between atoms: C_3  and  C_32
    3  A    between atoms: C_6  and  C_33
    4  A    between atoms: C_7  and  N_18
    5  A    between atoms: N_8  and  C_29
    6  A    between atoms: C_9  and  C_38
    7  A    between atoms: C_13  and  N_26
    8  A    between atoms: C_15  and  C_20
    9  A    between atoms: C_15  and  O_37
   10  A    between atoms: C_16  and  C_28
   11  A    between atoms: C_20  and  C_36
   12  A    between atoms: C_22  and  O_37
   13  A    between atoms: C_28  and  C_34
   14  A    between atoms: C_29  and  C_31
   15  A    between atoms: C_29  and  C_33
   16  A    between atoms: C_34  and  C_42
   17  A    between atoms: C_35  and  C_38
   18  A    between atoms: C_38  and  N_46
   19  A    between atoms: O_41  and  C_42
   20  A    between atoms: O_41  and  C_47
   21  A    between atoms: N_46  and  C_47
                            x       y       z     vdW  Elec       q    Type
                         _______ _______ _______ _____ _____    ______ ____

>  <TORSDO>
F 21

$$$$
=
 OpenBabel11042411463D

 47 50  0  0  1  0  0  0  0  0999 V2000
  184.6950  179.1450  141.0420 C   0  0  1  0  0  3  0  0  0  0  0  0
  187.1430  178.6150  141.3720 C   0  0  0  0  0  3  0  0  0  0  0  0
  185.5290  177.8250  142.9940 C   0  0  0  0  0  3  0  0  0  0  0  0
  187.8830  177.3280  143.2910 C   0  0  0  0  0  0  0  0  0  0  0  0
  186.5590  177.2350  143.7320 C   0  0  0  0  0  3  0  0  0  0  0  0
  188.1740  178.0290  142.1110 C   0  0  0  0  0  3  0  0  0  0  0  0
  185.8160  178.5170  141.8130 C   0  0  0  0  0  0  0  0  0  0  0  0
  188.9760  176.7440  144.1220 C   0  0  0  0  0  2  0  0  0  0  0  0
  189.4530  177.7170  145.2130 C   0  0  1  0  0  3  0  0  0  0  0  0
  189.0210  177.2230  146.5360 N   0  0  0  0  0  0  0  0  0  0  0  0
  189.0200  178.0560  148.6810 C   0  0  0  0  0  2  0  0  0  0  0  0
  189.8620  177.7680  147.5250 N   0  0  0  0  0  2  0  0  0  0  0  0
  187.6300  177.9620  148.2770 N   0  0  0  0  0  2  0  0  0  0  0  0
  187.6980  177.7590  146.8440 C   0  0  0  0  0  2  0  0  0  0  0  0
  191.4110  178.7190  143.9680 C   0  0  0  0  0  1  0  0  0  0  0  0
  191.6140  176.6130  145.0160 O   0  0  0  0  0  1  0  0  0  0  0  0
  190.9920  177.8590  145.1450 C   0  0  2  0  0  3  0  0  0  0  0  0
  184.9590  179.1020  139.5650 C   0  0  0  0  0  0  0  0  0  0  0  0
  185.6700  178.0050  138.9760 N   0  0  0  0  0  2  0  0  0  0  0  0
  184.5760  180.0640  138.8460 O   0  0  0  0  0  0  0  0  0  0  0  0
  186.0940  178.0040  137.5800 C   0  0  0  0  0  2  0  0  0  0  0  0
  187.3600  178.8350  137.4080 C   0  0  0  0  0  2  0  0  0  0  0  0
  188.9100  177.0810  136.5230 C   0  0  0  0  0  3  0  0  0  0  0  0
  190.7820  176.3010  137.8600 C   0  0  0  0  0  0  0  0  0  0  0  0
  191.1200  177.3530  140.1720 C   0  0  0  0  0  1  0  0  0  0  0  0
  189.2970  178.0020  138.6890 N   0  0  0  0  0  0  0  0  0  0  0  0
  190.0240  176.2570  136.6850 C   0  0  0  0  0  3  0  0  0  0  0  0
  188.5550  177.9560  137.5490 C   0  0  0  0  0  0  0  0  0  0  0  0
  190.3880  177.2120  138.8790 C   0  0  0  0  0  0  0  0  0  0  0  0
  191.8940  175.3940  137.9610 N   0  0  0  0  0  0  0  0  0  0  0  0
  192.4400  174.7650  136.9730 C   0  0  0  0  0  3  0  0  0  0  0  0
  193.6050  173.8630  137.1950 C   0  0  0  0  0  2  0  0  0  0  0  0
  194.7830  174.6390  137.7740 C   0  0  0  0  0  2  0  0  0  0  0  0
  195.4370  175.3840  136.7530 O   0  0  0  0  0  0  0  0  0  0  0  0
  196.7630  175.1440  136.3900 C   0  0  0  0  0  0  0  0  0  0  0  0
  197.7140  175.5080  137.1340 O   0  0  0  0  0  0  0  0  0  0  0  0
  197.0520  174.4270  135.1170 C   0  0  0  0  0  1  0  0  0  0  0  0
  183.4380  178.4950  141.3820 N   0  0  0  0  0  2  0  0  0  0  0  0
  182.8110  178.0990  140.1330 C   0  0  0  0  0  2  0  0  0  0  0  0
  181.4250  178.1360  140.2810 O   0  0  0  0  0  0  0  0  0  0  0  0
  181.0780  179.4770  140.0890 C   0  0  0  0  0  2  0  0  0  0  0  0
  179.6880  179.7380  140.6520 C   0  0  0  0  0  2  0  0  0  0  0  0
  179.4520  178.9220  141.8880 C   0  0  0  0  0  0  0  0  0  0  0  0
  179.0290  177.7800  141.7880 O   0  0  0  0  0  0  0  0  0  0  0  0
  179.7760  179.4780  143.2400 C   0  0  0  0  0  3  0  0  0  0  0  0
  181.0210  178.8000  143.7910 C   0  0  0  0  0  2  0  0  0  0  0  0
  179.6600  178.3990  144.3050 C   0  0  0  0  0  2  0  0  0  0  0  0
  1 18  1  6  0  0  0
  1 38  1  0  0  0  0
  1  7  1  0  0  0  0
  2  7  2  0  0  0  0
  2  6  1  0  0  0  0
  3  5  2  0  0  0  0
  4  5  1  0  0  0  0
  4  8  1  0  0  0  0
  6  4  2  0  0  0  0
  7  3  1  0  0  0  0
  9  8  1  6  0  0  0
  9 10  1  0  0  0  0
 10 14  1  0  0  0  0
 10 12  1  0  0  0  0
 12 11  1  0  0  0  0
 13 11  1  0  0  0  0
 14 13  1  0  0  0  0
 16 17  1  0  0  0  0
 17 15  1  6  0  0  0
 17  9  1  0  0  0  0
 19 18  1  0  0  0  0
 20 18  2  0  0  0  0
 21 19  1  0  0  0  0
 22 28  1  0  0  0  0
 22 21  1  0  0  0  0
 23 27  2  0  0  0  0
 23 28  1  0  0  0  0
 24 30  1  0  0  0  0
 24 29  2  0  0  0  0
 26 29  1  0  0  0  0
 27 24  1  0  0  0  0
 28 26  2  0  0  0  0
 29 25  1  0  0  0  0
 31 32  1  0  0  0  0
 31 30  2  0  0  0  0
 32 33  1  0  0  0  0
 34 33  1  0  0  0  0
 35 34  1  0  0  0  0
 35 36  2  0  0  0  0
 37 35  1  0  0  0  0
 39 40  1  0  0  0  0
 39 38  1  0  0  0  0
 41 40  1  0  0  0  0
 41 42  1  0  0  0  0
 42 43  1  0  0  0  0
 43 45  1  0  0  0  0
 44 43  2  0  0  0  0
 45 46  1  0  0  0  0
 45 47  1  0  0  0  0
 46 47  1  0  0  0  0
M  END
>  <MODEL>
2

>  <REMARK>
 VINA RESULT:      -6.6      2.340      6.199
  Name = 
  21 active torsions:
  status: ('A' for Active; 'I' for Inactive)
    1  A    between atoms: C_3  and  C_13
    2  A    between atoms: C_3  and  C_32
    3  A    between atoms: C_6  and  C_33
    4  A    between atoms: C_7  and  N_18
    5  A    between atoms: N_8  and  C_29
    6  A    between atoms: C_9  and  C_38
    7  A    between atoms: C_13  and  N_26
    8  A    between atoms: C_15  and  C_20
    9  A    between atoms: C_15  and  O_37
   10  A    between atoms: C_16  and  C_28
   11  A    between atoms: C_20  and  C_36
   12  A    between atoms: C_22  and  O_37
   13  A    between atoms: C_28  and  C_34
   14  A    between atoms: C_29  and  C_31
   15  A    between atoms: C_29  and  C_33
   16  A    between atoms: C_34  and  C_42
   17  A    between atoms: C_35  and  C_38
   18  A    between atoms: C_38  and  N_46
   19  A    between atoms: O_41  and  C_42
   20  A    between atoms: O_41  and  C_47
   21  A    between atoms: N_46  and  C_47
                            x       y       z     vdW  Elec       q    Type
                         _______ _______ _______ _____ _____    ______ ____

>  <TORSDO>
F 21

$$$$
=
 OpenBabel11042411463D

 47 50  0  0  1  0  0  0  0  0999 V2000
  184.5900  178.4470  142.7520 C   0  0  1  0  0  3  0  0  0  0  0  0
  186.7250  177.2540  143.3850 C   0  0  0  0  0  3  0  0  0  0  0  0
  185.5970  178.6220  145.0330 C   0  0  0  0  0  3  0  0  0  0  0  0
  187.6470  177.4680  145.6190 C   0  0  0  0  0  0  0  0  0  0  0  0
  186.5880  178.3110  145.9690 C   0  0  0  0  0  3  0  0  0  0  0  0
  187.7180  176.9450  144.3190 C   0  0  0  0  0  3  0  0  0  0  0  0
  185.6620  178.0960  143.7390 C   0  0  0  0  0  0  0  0  0  0  0  0
  188.7270  177.1940  146.6120 C   0  0  0  0  0  2  0  0  0  0  0  0
  190.0130  176.6870  145.9390 C   0  0  1  0  0  3  0  0  0  0  0  0
  190.1660  177.3330  144.6190 N   0  0  0  0  0  0  0  0  0  0  0  0
  191.7730  178.6240  143.5980 C   0  0  0  0  0  2  0  0  0  0  0  0
  190.9140  178.5150  144.7720 N   0  0  0  0  0  2  0  0  0  0  0  0
  191.7550  177.3570  142.8910 N   0  0  0  0  0  2  0  0  0  0  0  0
  190.9890  176.4860  143.7590 C   0  0  0  0  0  2  0  0  0  0  0  0
  192.0470  175.7310  147.0940 C   0  0  0  0  0  1  0  0  0  0  0  0
  190.8240  177.4880  148.0900 O   0  0  0  0  0  1  0  0  0  0  0  0
  191.2280  176.9840  146.8490 C   0  0  2  0  0  3  0  0  0  0  0  0
  183.3960  179.0470  143.4350 C   0  0  0  0  0  0  0  0  0  0  0  0
  182.1420  178.3550  143.4690 N   0  0  0  0  0  2  0  0  0  0  0  0
  183.4990  180.1910  143.9560 O   0  0  0  0  0  0  0  0  0  0  0  0
  180.9180  178.9710  143.9710 C   0  0  0  0  0  2  0  0  0  0  0  0
  180.1780  179.6800  142.8430 C   0  0  0  0  0  2  0  0  0  0  0  0
  179.4250  177.5920  141.6880 C   0  0  0  0  0  3  0  0  0  0  0  0
  180.0870  177.1440  139.3940 C   0  0  0  0  0  0  0  0  0  0  0  0
  181.5440  178.8860  138.2080 C   0  0  0  0  0  1  0  0  0  0  0  0
  180.7850  179.1570  140.5090 N   0  0  0  0  0  0  0  0  0  0  0  0
  179.4080  176.7720  140.5590 C   0  0  0  0  0  3  0  0  0  0  0  0
  180.1300  178.7940  141.6460 C   0  0  0  0  0  0  0  0  0  0  0  0
  180.7890  178.3800  139.3920 C   0  0  0  0  0  0  0  0  0  0  0  0
  180.0480  176.2250  138.2870 N   0  0  0  0  0  0  0  0  0  0  0  0
  180.6590  175.0870  138.2350 C   0  0  0  0  0  3  0  0  0  0  0  0
  180.5280  174.2070  137.0410 C   0  0  0  0  0  2  0  0  0  0  0  0
  181.8700  173.5770  136.6870 C   0  0  0  0  0  2  0  0  0  0  0  0
  182.9180  174.1890  137.4320 O   0  0  0  0  0  0  0  0  0  0  0  0
  184.2500  173.7940  137.3040 C   0  0  0  0  0  0  0  0  0  0  0  0
  185.1830  174.6420  137.3330 O   0  0  0  0  0  0  0  0  0  0  0  0
  184.5690  172.3470  137.1530 C   0  0  0  0  0  1  0  0  0  0  0  0
  185.1300  179.3360  141.7340 N   0  0  0  0  0  2  0  0  0  0  0  0
  184.4590  179.0130  140.4870 C   0  0  0  0  0  2  0  0  0  0  0  0
  185.3080  179.3000  139.4190 O   0  0  0  0  0  0  0  0  0  0  0  0
  185.4570  178.0850  138.7410 C   0  0  0  0  0  2  0  0  0  0  0  0
  186.4400  178.2520  137.5900 C   0  0  0  0  0  2  0  0  0  0  0  0
  187.8440  178.3740  138.1010 C   0  0  0  0  0  0  0  0  0  0  0  0
  188.5720  179.2520  137.6660 O   0  0  0  0  0  0  0  0  0  0  0  0
  188.3440  177.4580  139.1750 C   0  0  0  0  0  3  0  0  0  0  0  0
  188.6030  178.2500  140.4480 C   0  0  0  0  0  2  0  0  0  0  0  0
  189.7630  177.8300  139.5780 C   0  0  0  0  0  2  0  0  0  0  0  0
  1 38  1  6  0  0  0
  1 18  1  0  0  0  0
  1  7  1  0  0  0  0
  2  7  2  0  0  0  0
  2  6  1  0  0  0  0
  3  5  2  0  0  0  0
  4  5  1  0  0  0  0
  4  8  1  0  0  0  0
  6  4  2  0  0  0  0
  7  3  1  0  0  0  0
  9  8  1  1  0  0  0
  9 17  1  0  0  0  0
 10 12  1  0  0  0  0
 10  9  1  0  0  0  0
 11 12  1  0  0  0  0
 13 11  1  0  0  0  0
 13 14  1  0  0  0  0
 14 10  1  0  0  0  0
 17 15  1  1  0  0  0
 17 16  1  0  0  0  0
 18 19  1  0  0  0  0
 18 20  2  0  0  0  0
 19 21  1  0  0  0  0
 22 21  1  0  0  0  0
 24 27  1  0  0  0  0
 25 29  1  0  0  0  0
 26 28  2  0  0  0  0
 27 23  2  0  0  0  0
 28 23  1  0  0  0  0
 28 22  1  0  0  0  0
 29 24  2  0  0  0  0
 29 26  1  0  0  0  0
 30 24  1  0  0  0  0
 31 30  2  0  0  0  0
 32 31  1  0  0  0  0
 33 32  1  0  0  0  0
 33 34  1  0  0  0  0
 35 36  2  0  0  0  0
 35 34  1  0  0  0  0
 37 35  1  0  0  0  0
 39 38  1  0  0  0  0
 40 39  1  0  0  0  0
 41 40  1  0  0  0  0
 42 43  1  0  0  0  0
 42 41  1  0  0  0  0
 43 45  1  0  0  0  0
 44 43  2  0  0  0  0
 45 47  1  0  0  0  0
 45 46  1  0  0  0  0
 47 46  1  0  0  0  0
M  END
>  <MODEL>
3

>  <REMARK>
 VINA RESULT:      -6.5      2.737      8.407
  Name = 
  21 active torsions:
  status: ('A' for Active; 'I' for Inactive)
    1  A    between atoms: C_3  and  C_13
    2  A    between atoms: C_3  and  C_32
    3  A    between atoms: C_6  and  C_33
    4  A    between atoms: C_7  and  N_18
    5  A    between atoms: N_8  and  C_29
    6  A    between atoms: C_9  and  C_38
    7  A    between atoms: C_13  and  N_26
    8  A    between atoms: C_15  and  C_20
    9  A    between atoms: C_15  and  O_37
   10  A    between atoms: C_16  and  C_28
   11  A    between atoms: C_20  and  C_36
   12  A    between atoms: C_22  and  O_37
   13  A    between atoms: C_28  and  C_34
   14  A    between atoms: C_29  and  C_31
   15  A    between atoms: C_29  and  C_33
   16  A    between atoms: C_34  and  C_42
   17  A    between atoms: C_35  and  C_38
   18  A    between atoms: C_38  and  N_46
   19  A    between atoms: O_41  and  C_42
   20  A    between atoms: O_41  and  C_47
   21  A    between atoms: N_46  and  C_47
                            x       y       z     vdW  Elec       q    Type
                         _______ _______ _______ _____ _____    ______ ____

>  <TORSDO>
F 21

$$$$
=
 OpenBabel11042411463D

 47 50  0  0  1  0  0  0  0  0999 V2000
  186.5510  178.4980  142.8100 C   0  0  1  0  0  3  0  0  0  0  0  0
  184.2780  178.9100  143.8320 C   0  0  0  0  0  3  0  0  0  0  0  0
  184.4370  178.3280  141.4870 C   0  0  0  0  0  3  0  0  0  0  0  0
  182.2660  178.7290  142.4890 C   0  0  0  0  0  0  0  0  0  0  0  0
  183.0450  178.4050  141.3740 C   0  0  0  0  0  3  0  0  0  0  0  0
  182.8870  178.9900  143.7190 C   0  0  0  0  0  3  0  0  0  0  0  0
  185.0580  178.5810  142.7140 C   0  0  0  0  0  0  0  0  0  0  0  0
  180.7880  178.8640  142.3360 C   0  0  0  0  0  2  0  0  0  0  0  0
  180.3770  179.0670  140.8680 C   0  0  1  0  0  3  0  0  0  0  0  0
  179.5160  177.9460  140.4370 N   0  0  0  0  0  0  0  0  0  0  0  0
  179.8560  175.7570  139.8190 C   0  0  0  0  0  2  0  0  0  0  0  0
  180.2340  177.1370  139.5370 N   0  0  0  0  0  2  0  0  0  0  0  0
  179.1430  175.7200  141.0820 N   0  0  0  0  0  2  0  0  0  0  0  0
  179.2480  177.0760  141.5800 C   0  0  0  0  0  2  0  0  0  0  0  0
  180.2920  181.2730  139.6380 C   0  0  0  0  0  1  0  0  0  0  0  0
  179.6640  181.1480  141.9110 O   0  0  0  0  0  1  0  0  0  0  0  0
  179.6470  180.4220  140.7150 C   0  0  2  0  0  3  0  0  0  0  0  0
  186.9760  177.6530  143.9760 C   0  0  0  0  0  0  0  0  0  0  0  0
  187.1840  178.2360  145.2690 N   0  0  0  0  0  2  0  0  0  0  0  0
  187.1810  176.4220  143.7990 O   0  0  0  0  0  0  0  0  0  0  0  0
  187.7580  177.4880  146.3830 C   0  0  0  0  0  2  0  0  0  0  0  0
  189.1700  177.9780  146.6820 C   0  0  0  0  0  2  0  0  0  0  0  0
  190.3100  178.8660  144.6390 C   0  0  0  0  0  3  0  0  0  0  0  0
  191.6110  177.3910  143.2140 C   0  0  0  0  0  0  0  0  0  0  0  0
  191.7930  174.9270  143.8920 C   0  0  0  0  0  1  0  0  0  0  0  0
  190.5280  176.5560  145.1920 N   0  0  0  0  0  0  0  0  0  0  0  0
  191.1020  178.6600  143.5090 C   0  0  0  0  0  3  0  0  0  0  0  0
  190.0270  177.7890  145.4780 C   0  0  0  0  0  0  0  0  0  0  0  0
  191.3030  176.3210  144.0990 C   0  0  0  0  0  0  0  0  0  0  0  0
  192.3900  177.2570  142.0110 N   0  0  0  0  0  0  0  0  0  0  0  0
  191.9890  177.5610  140.8210 C   0  0  0  0  0  3  0  0  0  0  0  0
  192.8930  177.4000  139.6480 C   0  0  0  0  0  2  0  0  0  0  0  0
  192.3810  176.3040  138.7200 C   0  0  0  0  0  2  0  0  0  0  0  0
  191.4690  176.8440  137.7700 O   0  0  0  0  0  0  0  0  0  0  0  0
  190.8790  176.0610  136.7770 C   0  0  0  0  0  0  0  0  0  0  0  0
  190.1700  176.5840  135.8750 O   0  0  0  0  0  0  0  0  0  0  0  0
  191.1140  174.5900  136.7740 C   0  0  0  0  0  1  0  0  0  0  0  0
  187.0980  177.9970  141.5570 N   0  0  0  0  0  2  0  0  0  0  0  0
  188.3880  178.6380  141.3690 C   0  0  0  0  0  2  0  0  0  0  0  0
  188.5650  178.9290  140.0170 O   0  0  0  0  0  0  0  0  0  0  0  0
  187.9720  177.8600  139.3370 C   0  0  0  0  0  2  0  0  0  0  0  0
  187.8220  178.2030  137.8620 C   0  0  0  0  0  2  0  0  0  0  0  0
  186.5300  177.6710  137.3190 C   0  0  0  0  0  0  0  0  0  0  0  0
  185.4770  177.9720  137.8610 O   0  0  0  0  0  0  0  0  0  0  0  0
  186.5150  176.8160  136.0900 C   0  0  0  0  0  3  0  0  0  0  0  0
  186.5920  177.6940  134.8510 C   0  0  0  0  0  2  0  0  0  0  0  0
  185.2700  177.0920  135.2610 C   0  0  0  0  0  2  0  0  0  0  0  0
  1 38  1  6  0  0  0
  1 18  1  0  0  0  0
  3  7  1  0  0  0  0
  4  6  2  0  0  0  0
  5  3  2  0  0  0  0
  5  4  1  0  0  0  0
  6  2  1  0  0  0  0
  7  1  1  0  0  0  0
  7  2  2  0  0  0  0
  8  4  1  0  0  0  0
  9  8  1  1  0  0  0
 10  9  1  0  0  0  0
 10 14  1  0  0  0  0
 11 13  1  0  0  0  0
 12 11  1  0  0  0  0
 12 10  1  0  0  0  0
 13 14  1  0  0  0  0
 17 15  1  6  0  0  0
 17  9  1  0  0  0  0
 17 16  1  0  0  0  0
 18 19  1  0  0  0  0
 19 21  1  0  0  0  0
 20 18  2  0  0  0  0
 21 22  1  0  0  0  0
 23 28  1  0  0  0  0
 24 27  1  0  0  0  0
 24 29  2  0  0  0  0
 25 29  1  0  0  0  0
 26 28  2  0  0  0  0
 27 23  2  0  0  0  0
 28 22  1  0  0  0  0
 29 26  1  0  0  0  0
 30 24  1  0  0  0  0
 31 30  2  0  0  0  0
 32 31  1  0  0  0  0
 33 32  1  0  0  0  0
 34 33  1  0  0  0  0
 35 34  1  0  0  0  0
 36 35  2  0  0  0  0
 37 35  1  0  0  0  0
 39 38  1  0  0  0  0
 40 39  1  0  0  0  0
 41 40  1  0  0  0  0
 42 41  1  0  0  0  0
 43 44  2  0  0  0  0
 43 42  1  0  0  0  0
 45 43  1  0  0  0  0
 46 47  1  0  0  0  0
 46 45  1  0  0  0  0
 47 45  1  0  0  0  0
M  END
>  <MODEL>
4

>  <REMARK>
 VINA RESULT:      -6.4      2.272      5.622
  Name = 
  21 active torsions:
  status: ('A' for Active; 'I' for Inactive)
    1  A    between atoms: C_3  and  C_13
    2  A    between atoms: C_3  and  C_32
    3  A    between atoms: C_6  and  C_33
    4  A    between atoms: C_7  and  N_18
    5  A    between atoms: N_8  and  C_29
    6  A    between atoms: C_9  and  C_38
    7  A    between atoms: C_13  and  N_26
    8  A    between atoms: C_15  and  C_20
    9  A    between atoms: C_15  and  O_37
   10  A    between atoms: C_16  and  C_28
   11  A    between atoms: C_20  and  C_36
   12  A    between atoms: C_22  and  O_37
   13  A    between atoms: C_28  and  C_34
   14  A    between atoms: C_29  and  C_31
   15  A    between atoms: C_29  and  C_33
   16  A    between atoms: C_34  and  C_42
   17  A    between atoms: C_35  and  C_38
   18  A    between atoms: C_38  and  N_46
   19  A    between atoms: O_41  and  C_42
   20  A    between atoms: O_41  and  C_47
   21  A    between atoms: N_46  and  C_47
                            x       y       z     vdW  Elec       q    Type
                         _______ _______ _______ _____ _____    ______ ____

>  <TORSDO>
F 21

$$$$
=
 OpenBabel11042411463D

 47 50  0  0  1  0  0  0  0  0999 V2000
  183.1380  178.7400  143.1780 C   0  0  1  0  0  3  0  0  0  0  0  0
  182.6960  177.8960  140.8390 C   0  0  0  0  0  3  0  0  0  0  0  0
  184.8070  178.9740  141.3320 C   0  0  0  0  0  3  0  0  0  0  0  0
  184.3610  178.1560  139.0940 C   0  0  0  0  0  0  0  0  0  0  0  0
  185.2100  178.7910  140.0050 C   0  0  0  0  0  3  0  0  0  0  0  0
  183.0970  177.7160  139.5110 C   0  0  0  0  0  3  0  0  0  0  0  0
  183.5490  178.5290  141.7530 C   0  0  0  0  0  0  0  0  0  0  0  0
  184.7840  178.0230  137.6690 C   0  0  0  0  0  2  0  0  0  0  0  0
  185.4930  176.6850  137.4020 C   0  0  1  0  0  3  0  0  0  0  0  0
  184.7410  175.9240  136.3830 N   0  0  0  0  0  0  0  0  0  0  0  0
  182.6810  174.9050  136.2820 C   0  0  0  0  0  2  0  0  0  0  0  0
  183.9320  174.9700  137.0290 N   0  0  0  0  0  2  0  0  0  0  0  0
  182.6250  176.0320  135.3710 N   0  0  0  0  0  2  0  0  0  0  0  0
  183.7950  176.8140  135.7140 C   0  0  0  0  0  2  0  0  0  0  0  0
  187.1520  178.4110  136.5930 C   0  0  0  0  0  1  0  0  0  0  0  0
  187.2700  176.1850  135.8150 O   0  0  0  0  0  1  0  0  0  0  0  0
  186.9460  176.9490  136.9410 C   0  0  2  0  0  3  0  0  0  0  0  0
  184.3060  179.1490  144.0270 C   0  0  0  0  0  0  0  0  0  0  0  0
  184.8600  178.2530  144.9990 N   0  0  0  0  0  2  0  0  0  0  0  0
  184.7790  180.3110  143.9000 O   0  0  0  0  0  0  0  0  0  0  0  0
  185.8790  178.6660  145.9570 C   0  0  0  0  0  2  0  0  0  0  0  0
  186.9320  177.5760  146.1180 C   0  0  0  0  0  2  0  0  0  0  0  0
  187.3860  177.2060  143.6850 C   0  0  0  0  0  3  0  0  0  0  0  0
  189.5990  177.6060  142.7690 C   0  0  0  0  0  0  0  0  0  0  0  0
  191.4220  178.4400  144.3650 C   0  0  0  0  0  1  0  0  0  0  0  0
  189.1430  177.9790  145.1000 N   0  0  0  0  0  0  0  0  0  0  0  0
  188.2670  177.2150  142.6030 C   0  0  0  0  0  3  0  0  0  0  0  0
  187.8480  177.5930  144.9430 C   0  0  0  0  0  0  0  0  0  0  0  0
  190.0280  177.9980  144.0660 C   0  0  0  0  0  0  0  0  0  0  0  0
  190.4500  177.5540  141.6090 N   0  0  0  0  0  0  0  0  0  0  0  0
  190.1840  176.9230  140.5120 C   0  0  0  0  0  3  0  0  0  0  0  0
  191.1350  176.9570  139.3660 C   0  0  0  0  0  2  0  0  0  0  0  0
  190.3950  176.7510  138.0490 C   0  0  0  0  0  2  0  0  0  0  0  0
  191.1450  175.9030  137.1850 O   0  0  0  0  0  0  0  0  0  0  0  0
  190.6390  174.6940  136.7060 C   0  0  0  0  0  0  0  0  0  0  0  0
  190.3500  173.7540  137.4960 O   0  0  0  0  0  0  0  0  0  0  0  0
  190.4160  174.5260  135.2430 C   0  0  0  0  0  1  0  0  0  0  0  0
  182.0600  179.7160  143.2400 N   0  0  0  0  0  2  0  0  0  0  0  0
  180.8470  178.9920  143.5750 C   0  0  0  0  0  2  0  0  0  0  0  0
  179.7390  179.7840  143.2750 O   0  0  0  0  0  0  0  0  0  0  0  0
  179.3540  179.3930  141.9890 C   0  0  0  0  0  2  0  0  0  0  0  0
  179.4660  180.5730  141.0340 C   0  0  0  0  0  2  0  0  0  0  0  0
  180.0960  180.1540  139.7390 C   0  0  0  0  0  0  0  0  0  0  0  0
  179.6360  179.2060  139.1210 O   0  0  0  0  0  0  0  0  0  0  0  0
  181.2520  180.9190  139.1740 C   0  0  0  0  0  3  0  0  0  0  0  0
  180.7690  181.8330  138.0580 C   0  0  0  0  0  2  0  0  0  0  0  0
  181.4790  180.5460  137.7170 C   0  0  0  0  0  2  0  0  0  0  0  0
  1 38  1  6  0  0  0
  1 18  1  0  0  0  0
  2  7  1  0  0  0  0
  3  7  2  0  0  0  0
  4  6  1  0  0  0  0
  4  5  2  0  0  0  0
  5  3  1  0  0  0  0
  6  2  2  0  0  0  0
  7  1  1  0  0  0  0
  8  4  1  0  0  0  0
  9  8  1  6  0  0  0
 10 12  1  0  0  0  0
 10  9  1  0  0  0  0
 11 12  1  0  0  0  0
 13 14  1  0  0  0  0
 13 11  1  0  0  0  0
 14 10  1  0  0  0  0
 16 17  1  0  0  0  0
 17 15  1  6  0  0  0
 17  9  1  0  0  0  0
 18 19  1  0  0  0  0
 19 21  1  0  0  0  0
 20 18  2  0  0  0  0
 21 22  1  0  0  0  0
 23 28  1  0  0  0  0
 24 29  2  0  0  0  0
 27 24  1  0  0  0  0
 27 23  2  0  0  0  0
 28 26  2  0  0  0  0
 28 22  1  0  0  0  0
 29 25  1  0  0  0  0
 29 26  1  0  0  0  0
 30 24  1  0  0  0  0
 31 30  2  0  0  0  0
 32 31  1  0  0  0  0
 33 32  1  0  0  0  0
 34 33  1  0  0  0  0
 35 34  1  0  0  0  0
 35 36  2  0  0  0  0
 37 35  1  0  0  0  0
 38 39  1  0  0  0  0
 40 39  1  0  0  0  0
 41 40  1  0  0  0  0
 42 41  1  0  0  0  0
 43 42  1  0  0  0  0
 44 43  2  0  0  0  0
 45 43  1  0  0  0  0
 46 45  1  0  0  0  0
 47 46  1  0  0  0  0
 47 45  1  0  0  0  0
M  END
>  <MODEL>
5

>  <REMARK>
 VINA RESULT:      -6.4      1.816      2.339
  Name = 
  21 active torsions:
  status: ('A' for Active; 'I' for Inactive)
    1  A    between atoms: C_3  and  C_13
    2  A    between atoms: C_3  and  C_32
    3  A    between atoms: C_6  and  C_33
    4  A    between atoms: C_7  and  N_18
    5  A    between atoms: N_8  and  C_29
    6  A    between atoms: C_9  and  C_38
    7  A    between atoms: C_13  and  N_26
    8  A    between atoms: C_15  and  C_20
    9  A    between atoms: C_15  and  O_37
   10  A    between atoms: C_16  and  C_28
   11  A    between atoms: C_20  and  C_36
   12  A    between atoms: C_22  and  O_37
   13  A    between atoms: C_28  and  C_34
   14  A    between atoms: C_29  and  C_31
   15  A    between atoms: C_29  and  C_33
   16  A    between atoms: C_34  and  C_42
   17  A    between atoms: C_35  and  C_38
   18  A    between atoms: C_38  and  N_46
   19  A    between atoms: O_41  and  C_42
   20  A    between atoms: O_41  and  C_47
   21  A    between atoms: N_46  and  C_47
                            x       y       z     vdW  Elec       q    Type
                         _______ _______ _______ _____ _____    ______ ____

>  <TORSDO>
F 21

$$$$
=
 OpenBabel11042411463D

 47 50  0  0  1  0  0  0  0  0999 V2000
  184.6270  175.6190  136.9780 C   0  0  1  0  0  3  0  0  0  0  0  0
  186.5420  177.1660  137.5430 C   0  0  0  0  0  3  0  0  0  0  0  0
  187.0110  175.0230  136.5190 C   0  0  0  0  0  3  0  0  0  0  0  0
  188.8330  176.5240  137.0700 C   0  0  0  0  0  0  0  0  0  0  0  0
  188.3790  175.3090  136.5490 C   0  0  0  0  0  3  0  0  0  0  0  0
  187.9100  177.4510  137.5760 C   0  0  0  0  0  3  0  0  0  0  0  0
  186.0880  175.9490  137.0170 C   0  0  0  0  0  0  0  0  0  0  0  0
  190.3000  176.7870  137.1470 C   0  0  0  0  0  2  0  0  0  0  0  0
  190.9630  176.0130  138.2990 C   0  0  1  0  0  3  0  0  0  0  0  0
  192.3100  175.5700  137.8830 N   0  0  0  0  0  0  0  0  0  0  0  0
  193.1550  173.8430  136.6200 C   0  0  0  0  0  2  0  0  0  0  0  0
  192.3150  174.1670  137.7680 N   0  0  0  0  0  2  0  0  0  0  0  0
  193.4070  175.0600  135.8710 N   0  0  0  0  0  2  0  0  0  0  0  0
  192.5810  176.0500  136.5300 C   0  0  0  0  0  2  0  0  0  0  0  0
  192.4730  177.2140  139.9310 C   0  0  0  0  0  1  0  0  0  0  0  0
  190.4180  176.3020  140.6540 O   0  0  0  0  0  1  0  0  0  0  0  0
  191.0350  176.9110  139.5560 C   0  0  2  0  0  3  0  0  0  0  0  0
  183.7890  176.8110  137.3370 C   0  0  0  0  0  0  0  0  0  0  0  0
  183.4850  177.1130  138.7050 N   0  0  0  0  0  2  0  0  0  0  0  0
  183.3250  177.5340  136.4140 O   0  0  0  0  0  0  0  0  0  0  0  0
  182.5400  178.1570  139.0870 C   0  0  0  0  0  2  0  0  0  0  0  0
  183.2830  179.3850  139.6020 C   0  0  0  0  0  2  0  0  0  0  0  0
  183.7160  178.5880  141.9340 C   0  0  0  0  0  3  0  0  0  0  0  0
  185.9900  178.2600  142.7230 C   0  0  0  0  0  0  0  0  0  0  0  0
  187.9030  178.7280  141.0850 C   0  0  0  0  0  1  0  0  0  0  0  0
  185.5580  179.0040  140.4780 N   0  0  0  0  0  0  0  0  0  0  0  0
  184.6090  178.2300  142.9450 C   0  0  0  0  0  3  0  0  0  0  0  0
  184.2140  178.9810  140.6930 C   0  0  0  0  0  0  0  0  0  0  0  0
  186.4550  178.6610  141.4410 C   0  0  0  0  0  0  0  0  0  0  0  0
  186.8420  177.9090  143.8290 N   0  0  0  0  0  0  0  0  0  0  0  0
  186.5210  177.9900  145.0780 C   0  0  0  0  0  3  0  0  0  0  0  0
  187.4810  177.5770  146.1390 C   0  0  0  0  0  2  0  0  0  0  0  0
  188.9180  177.7240  145.6510 C   0  0  0  0  0  2  0  0  0  0  0  0
  189.8280  177.2450  146.6350 O   0  0  0  0  0  0  0  0  0  0  0  0
  191.1320  176.8590  146.3170 C   0  0  0  0  0  0  0  0  0  0  0  0
  191.9960  176.6920  147.2200 O   0  0  0  0  0  0  0  0  0  0  0  0
  191.4930  176.6210  144.8920 C   0  0  0  0  0  1  0  0  0  0  0  0
  184.2750  175.0890  135.6690 N   0  0  0  0  0  2  0  0  0  0  0  0
  183.5310  173.8620  135.8910 C   0  0  0  0  0  2  0  0  0  0  0  0
  182.1640  174.1340  135.8260 O   0  0  0  0  0  0  0  0  0  0  0  0
  181.6380  173.6160  137.0150 C   0  0  0  0  0  2  0  0  0  0  0  0
  180.1460  173.9090  137.0900 C   0  0  0  0  0  2  0  0  0  0  0  0
  179.8920  175.2060  137.7980 C   0  0  0  0  0  0  0  0  0  0  0  0
  180.2810  176.2530  137.3010 O   0  0  0  0  0  0  0  0  0  0  0  0
  179.1240  175.2340  139.0820 C   0  0  0  0  0  3  0  0  0  0  0  0
  180.0570  175.5780  140.2340 C   0  0  0  0  0  2  0  0  0  0  0  0
  179.6200  174.1480  140.0250 C   0  0  0  0  0  2  0  0  0  0  0  0
  1 38  1  6  0  0  0
  1  7  1  0  0  0  0
  1 18  1  0  0  0  0
  2  6  1  0  0  0  0
  3  5  2  0  0  0  0
  3  7  1  0  0  0  0
  4  8  1  0  0  0  0
  4  6  2  0  0  0  0
  5  4  1  0  0  0  0
  7  2  2  0  0  0  0
  9  8  1  6  0  0  0
  9 17  1  0  0  0  0
 10  9  1  0  0  0  0
 11 12  1  0  0  0  0
 12 10  1  0  0  0  0
 13 14  1  0  0  0  0
 13 11  1  0  0  0  0
 14 10  1  0  0  0  0
 17 15  1  1  0  0  0
 17 16  1  0  0  0  0
 18 19  1  0  0  0  0
 19 21  1  0  0  0  0
 20 18  2  0  0  0  0
 21 22  1  0  0  0  0
 22 28  1  0  0  0  0
 23 27  1  0  0  0  0
 24 27  2  0  0  0  0
 24 30  1  0  0  0  0
 25 29  1  0  0  0  0
 26 28  1  0  0  0  0
 26 29  2  0  0  0  0
 28 23  2  0  0  0  0
 29 24  1  0  0  0  0
 30 31  2  0  0  0  0
 31 32  1  0  0  0  0
 33 32  1  0  0  0  0
 33 34  1  0  0  0  0
 35 34  1  0  0  0  0
 35 36  2  0  0  0  0
 37 35  1  0  0  0  0
 38 39  1  0  0  0  0
 40 39  1  0  0  0  0
 40 41  1  0  0  0  0
 41 42  1  0  0  0  0
 42 43  1  0  0  0  0
 43 45  1  0  0  0  0
 44 43  2  0  0  0  0
 45 47  1  0  0  0  0
 45 46  1  0  0  0  0
 47 46  1  0  0  0  0
M  END
>  <MODEL>
6

>  <REMARK>
 VINA RESULT:      -6.2      3.055      6.383
  Name = 
  21 active torsions:
  status: ('A' for Active; 'I' for Inactive)
    1  A    between atoms: C_3  and  C_13
    2  A    between atoms: C_3  and  C_32
    3  A    between atoms: C_6  and  C_33
    4  A    between atoms: C_7  and  N_18
    5  A    between atoms: N_8  and  C_29
    6  A    between atoms: C_9  and  C_38
    7  A    between atoms: C_13  and  N_26
    8  A    between atoms: C_15  and  C_20
    9  A    between atoms: C_15  and  O_37
   10  A    between atoms: C_16  and  C_28
   11  A    between atoms: C_20  and  C_36
   12  A    between atoms: C_22  and  O_37
   13  A    between atoms: C_28  and  C_34
   14  A    between atoms: C_29  and  C_31
   15  A    between atoms: C_29  and  C_33
   16  A    between atoms: C_34  and  C_42
   17  A    between atoms: C_35  and  C_38
   18  A    between atoms: C_38  and  N_46
   19  A    between atoms: O_41  and  C_42
   20  A    between atoms: O_41  and  C_47
   21  A    between atoms: N_46  and  C_47
                            x       y       z     vdW  Elec       q    Type
                         _______ _______ _______ _____ _____    ______ ____

>  <TORSDO>
F 21

$$$$
=
 OpenBabel11042411463D

 47 50  0  0  1  0  0  0  0  0999 V2000
  189.8760  176.7800  139.2780 C   0  0  1  0  0  3  0  0  0  0  0  0
  192.3030  176.7090  138.5800 C   0  0  0  0  0  3  0  0  0  0  0  0
  190.8480  174.8620  138.0020 C   0  0  0  0  0  3  0  0  0  0  0  0
  193.1800  174.8160  137.3430 C   0  0  0  0  0  0  0  0  0  0  0  0
  191.9180  174.2170  137.3740 C   0  0  0  0  0  3  0  0  0  0  0  0
  193.3740  176.0630  137.9560 C   0  0  0  0  0  3  0  0  0  0  0  0
  191.0360  176.1090  138.6080 C   0  0  0  0  0  0  0  0  0  0  0  0
  194.3230  174.0860  136.7200 C   0  0  0  0  0  2  0  0  0  0  0  0
  195.1250  173.2810  137.7570 C   0  0  1  0  0  3  0  0  0  0  0  0
  195.3560  171.9140  137.2470 N   0  0  0  0  0  0  0  0  0  0  0  0
  194.7290  169.7950  137.8850 C   0  0  0  0  0  2  0  0  0  0  0  0
  195.3830  171.0190  138.3340 N   0  0  0  0  0  2  0  0  0  0  0  0
  194.0480  170.0650  136.6330 N   0  0  0  0  0  2  0  0  0  0  0  0
  194.2050  171.4930  136.4530 C   0  0  0  0  0  2  0  0  0  0  0  0
  196.5270  174.4680  139.4930 C   0  0  0  0  0  1  0  0  0  0  0  0
  196.6350  175.1160  137.2250 O   0  0  0  0  0  1  0  0  0  0  0  0
  196.4630  174.0010  138.0520 C   0  0  2  0  0  3  0  0  0  0  0  0
  190.0260  176.7620  140.7710 C   0  0  0  0  0  0  0  0  0  0  0  0
  189.0020  176.2070  141.6070 N   0  0  0  0  0  2  0  0  0  0  0  0
  191.0540  177.2750  141.2900 O   0  0  0  0  0  0  0  0  0  0  0  0
  189.0290  176.3210  143.0620 C   0  0  0  0  0  2  0  0  0  0  0  0
  188.8860  177.7790  143.4830 C   0  0  0  0  0  2  0  0  0  0  0  0
  186.5550  178.3260  142.7570 C   0  0  0  0  0  3  0  0  0  0  0  0
  184.7940  178.6440  144.3990 C   0  0  0  0  0  0  0  0  0  0  0  0
  185.4030  178.3720  146.8730 C   0  0  0  0  0  1  0  0  0  0  0  0
  187.0340  178.0960  145.0820 N   0  0  0  0  0  0  0  0  0  0  0  0
  185.2260  178.6120  143.0690 C   0  0  0  0  0  3  0  0  0  0  0  0
  187.4570  178.0700  143.7890 C   0  0  0  0  0  0  0  0  0  0  0  0
  185.7450  178.3720  145.4200 C   0  0  0  0  0  0  0  0  0  0  0  0
  183.4150  178.9810  144.6360 N   0  0  0  0  0  0  0  0  0  0  0  0
  182.4220  178.6550  143.8760 C   0  0  0  0  0  3  0  0  0  0  0  0
  181.0290  179.0430  144.2340 C   0  0  0  0  0  2  0  0  0  0  0  0
  180.0570  177.9150  143.9090 C   0  0  0  0  0  2  0  0  0  0  0  0
  179.2150  178.2830  142.8220 O   0  0  0  0  0  0  0  0  0  0  0  0
  179.5870  178.0790  141.4920 C   0  0  0  0  0  0  0  0  0  0  0  0
  179.5760  176.9250  140.9860 O   0  0  0  0  0  0  0  0  0  0  0  0
  179.9780  179.2500  140.6580 C   0  0  0  0  0  1  0  0  0  0  0  0
  189.7280  178.1350  138.7690 N   0  0  0  0  0  2  0  0  0  0  0  0
  188.9840  178.0450  137.5250 C   0  0  0  0  0  2  0  0  0  0  0  0
  187.7920  177.3560  137.7500 O   0  0  0  0  0  0  0  0  0  0  0  0
  186.8200  178.3520  137.8840 C   0  0  0  0  0  2  0  0  0  0  0  0
  185.4680  177.7190  138.1830 C   0  0  0  0  0  2  0  0  0  0  0  0
  184.6390  178.6170  139.0520 C   0  0  0  0  0  0  0  0  0  0  0  0
  185.1300  179.6360  139.5110 O   0  0  0  0  0  0  0  0  0  0  0  0
  183.2010  178.2990  139.3200 C   0  0  0  0  0  3  0  0  0  0  0  0
  183.1020  177.2130  140.3810 C   0  0  0  0  0  2  0  0  0  0  0  0
  182.8890  176.8620  138.9290 C   0  0  0  0  0  2  0  0  0  0  0  0
  1 38  1  6  0  0  0
  1 18  1  0  0  0  0
  2  7  1  0  0  0  0
  3  7  2  0  0  0  0
  4  5  2  0  0  0  0
  4  6  1  0  0  0  0
  5  3  1  0  0  0  0
  6  2  2  0  0  0  0
  7  1  1  0  0  0  0
  8  4  1  0  0  0  0
  9  8  1  6  0  0  0
  9 17  1  0  0  0  0
 10  9  1  0  0  0  0
 10 12  1  0  0  0  0
 11 12  1  0  0  0  0
 13 11  1  0  0  0  0
 14 13  1  0  0  0  0
 14 10  1  0  0  0  0
 16 17  1  0  0  0  0
 17 15  1  1  0  0  0
 18 20  2  0  0  0  0
 18 19  1  0  0  0  0
 19 21  1  0  0  0  0
 21 22  1  0  0  0  0
 22 28  1  0  0  0  0
 23 27  2  0  0  0  0
 23 28  1  0  0  0  0
 24 30  1  0  0  0  0
 24 29  2  0  0  0  0
 26 29  1  0  0  0  0
 27 24  1  0  0  0  0
 28 26  2  0  0  0  0
 29 25  1  0  0  0  0
 31 32  1  0  0  0  0
 31 30  2  0  0  0  0
 33 32  1  0  0  0  0
 34 33  1  0  0  0  0
 35 34  1  0  0  0  0
 36 35  2  0  0  0  0
 37 35  1  0  0  0  0
 39 40  1  0  0  0  0
 39 38  1  0  0  0  0
 40 41  1  0  0  0  0
 41 42  1  0  0  0  0
 42 43  1  0  0  0  0
 43 45  1  0  0  0  0
 43 44  2  0  0  0  0
 45 46  1  0  0  0  0
 47 45  1  0  0  0  0
 47 46  1  0  0  0  0
M  END
>  <MODEL>
7

>  <REMARK>
 VINA RESULT:      -6.2      2.854      8.556
  Name = 
  21 active torsions:
  status: ('A' for Active; 'I' for Inactive)
    1  A    between atoms: C_3  and  C_13
    2  A    between atoms: C_3  and  C_32
    3  A    between atoms: C_6  and  C_33
    4  A    between atoms: C_7  and  N_18
    5  A    between atoms: N_8  and  C_29
    6  A    between atoms: C_9  and  C_38
    7  A    between atoms: C_13  and  N_26
    8  A    between atoms: C_15  and  C_20
    9  A    between atoms: C_15  and  O_37
   10  A    between atoms: C_16  and  C_28
   11  A    between atoms: C_20  and  C_36
   12  A    between atoms: C_22  and  O_37
   13  A    between atoms: C_28  and  C_34
   14  A    between atoms: C_29  and  C_31
   15  A    between atoms: C_29  and  C_33
   16  A    between atoms: C_34  and  C_42
   17  A    between atoms: C_35  and  C_38
   18  A    between atoms: C_38  and  N_46
   19  A    between atoms: O_41  and  C_42
   20  A    between atoms: O_41  and  C_47
   21  A    between atoms: N_46  and  C_47
                            x       y       z     vdW  Elec       q    Type
                         _______ _______ _______ _____ _____    ______ ____

>  <TORSDO>
F 21

$$$$
=
 OpenBabel11042411463D

 47 50  0  0  1  0  0  0  0  0999 V2000
  184.8620  178.5420  141.8600 C   0  0  1  0  0  3  0  0  0  0  0  0
  185.9090  177.7670  144.0250 C   0  0  0  0  0  3  0  0  0  0  0  0
  187.2580  177.8460  142.0160 C   0  0  0  0  0  3  0  0  0  0  0  0
  188.2420  177.1060  144.1040 C   0  0  0  0  0  0  0  0  0  0  0  0
  188.3600  177.3770  142.7380 C   0  0  0  0  0  3  0  0  0  0  0  0
  187.0090  177.2940  144.7460 C   0  0  0  0  0  3  0  0  0  0  0  0
  186.0300  178.0420  142.6550 C   0  0  0  0  0  0  0  0  0  0  0  0
  189.4110  176.5500  144.8460 C   0  0  0  0  0  2  0  0  0  0  0  0
  190.6970  177.3510  144.5770 C   0  0  1  0  0  3  0  0  0  0  0  0
  191.4460  177.5170  145.8390 N   0  0  0  0  0  0  0  0  0  0  0  0
  191.0230  177.1220  148.0660 C   0  0  0  0  0  2  0  0  0  0  0  0
  190.5390  177.8120  146.8750 N   0  0  0  0  0  2  0  0  0  0  0  0
  192.0490  176.1760  147.6700 N   0  0  0  0  0  2  0  0  0  0  0  0
  192.0380  176.2380  146.2230 C   0  0  0  0  0  2  0  0  0  0  0  0
  191.6710  177.4470  142.2470 C   0  0  0  0  0  1  0  0  0  0  0  0
  190.9940  175.3840  143.1740 O   0  0  0  0  0  1  0  0  0  0  0  0
  191.5510  176.6210  143.5140 C   0  0  2  0  0  3  0  0  0  0  0  0
  183.7830  179.0780  142.7550 C   0  0  0  0  0  0  0  0  0  0  0  0
  182.4270  178.6340  142.6200 N   0  0  0  0  0  2  0  0  0  0  0  0
  184.0770  179.9550  143.6120 O   0  0  0  0  0  0  0  0  0  0  0  0
  181.3230  179.2490  143.3500 C   0  0  0  0  0  2  0  0  0  0  0  0
  180.0360  179.1650  142.5380 C   0  0  0  0  0  2  0  0  0  0  0  0
  180.2060  177.1880  141.0130 C   0  0  0  0  0  3  0  0  0  0  0  0
  180.9100  177.4680  138.7050 C   0  0  0  0  0  0  0  0  0  0  0  0
  181.4370  179.8410  137.8950 C   0  0  0  0  0  1  0  0  0  0  0  0
  180.7210  179.3610  140.1760 N   0  0  0  0  0  0  0  0  0  0  0  0
  180.4990  176.6470  139.7610 C   0  0  0  0  0  3  0  0  0  0  0  0
  180.3270  178.5640  141.2060 C   0  0  0  0  0  0  0  0  0  0  0  0
  181.0150  178.8660  138.9440 C   0  0  0  0  0  0  0  0  0  0  0  0
  181.2250  176.8260  137.4570 N   0  0  0  0  0  0  0  0  0  0  0  0
  182.1320  175.9200  137.2880 C   0  0  0  0  0  3  0  0  0  0  0  0
  182.3570  175.3090  135.9480 C   0  0  0  0  0  2  0  0  0  0  0  0
  181.9670  173.8360  135.9570 C   0  0  0  0  0  2  0  0  0  0  0  0
  182.4090  173.2120  137.1570 O   0  0  0  0  0  0  0  0  0  0  0  0
  183.5520  172.4120  137.2030 C   0  0  0  0  0  0  0  0  0  0  0  0
  183.4980  171.1880  136.9070 O   0  0  0  0  0  0  0  0  0  0  0  0
  184.8560  173.0250  137.5840 C   0  0  0  0  0  1  0  0  0  0  0  0
  185.3100  179.5410  140.9000 N   0  0  0  0  0  2  0  0  0  0  0  0
  184.5110  179.3670  139.7000 C   0  0  0  0  0  2  0  0  0  0  0  0
  184.7770  178.1150  139.1470 O   0  0  0  0  0  0  0  0  0  0  0  0
  185.6760  178.3660  138.1050 C   0  0  0  0  0  2  0  0  0  0  0  0
  186.9630  177.5850  138.3330 C   0  0  0  0  0  2  0  0  0  0  0  0
  188.1620  178.4340  138.0330 C   0  0  0  0  0  0  0  0  0  0  0  0
  188.0690  179.3500  137.2310 O   0  0  0  0  0  0  0  0  0  0  0  0
  189.4570  178.1980  138.7450 C   0  0  0  0  0  3  0  0  0  0  0  0
  190.2840  177.1720  137.9840 C   0  0  0  0  0  2  0  0  0  0  0  0
  189.5450  176.7590  139.2340 C   0  0  0  0  0  2  0  0  0  0  0  0
  1 38  1  6  0  0  0
  1  7  1  0  0  0  0
  1 18  1  0  0  0  0
  2  6  1  0  0  0  0
  3  7  1  0  0  0  0
  3  5  2  0  0  0  0
  4  6  2  0  0  0  0
  4  8  1  0  0  0  0
  5  4  1  0  0  0  0
  7  2  2  0  0  0  0
  9  8  1  1  0  0  0
  9 10  1  0  0  0  0
 10 14  1  0  0  0  0
 10 12  1  0  0  0  0
 12 11  1  0  0  0  0
 13 11  1  0  0  0  0
 14 13  1  0  0  0  0
 16 17  1  0  0  0  0
 17 15  1  6  0  0  0
 17  9  1  0  0  0  0
 18 20  2  0  0  0  0
 19 18  1  0  0  0  0
 19 21  1  0  0  0  0
 22 21  1  0  0  0  0
 23 28  1  0  0  0  0
 24 29  2  0  0  0  0
 24 27  1  0  0  0  0
 25 29  1  0  0  0  0
 26 28  2  0  0  0  0
 27 23  2  0  0  0  0
 28 22  1  0  0  0  0
 29 26  1  0  0  0  0
 30 24  1  0  0  0  0
 31 30  2  0  0  0  0
 32 33  1  0  0  0  0
 32 31  1  0  0  0  0
 33 34  1  0  0  0  0
 34 35  1  0  0  0  0
 35 37  1  0  0  0  0
 36 35  2  0  0  0  0
 39 38  1  0  0  0  0
 40 39  1  0  0  0  0
 41 42  1  0  0  0  0
 41 40  1  0  0  0  0
 43 42  1  0  0  0  0
 43 45  1  0  0  0  0
 44 43  2  0  0  0  0
 45 47  1  0  0  0  0
 46 45  1  0  0  0  0
 46 47  1  0  0  0  0
M  END
>  <MODEL>
8

>  <REMARK>
 VINA RESULT:      -6.1      2.964      8.453
  Name = 
  21 active torsions:
  status: ('A' for Active; 'I' for Inactive)
    1  A    between atoms: C_3  and  C_13
    2  A    between atoms: C_3  and  C_32
    3  A    between atoms: C_6  and  C_33
    4  A    between atoms: C_7  and  N_18
    5  A    between atoms: N_8  and  C_29
    6  A    between atoms: C_9  and  C_38
    7  A    between atoms: C_13  and  N_26
    8  A    between atoms: C_15  and  C_20
    9  A    between atoms: C_15  and  O_37
   10  A    between atoms: C_16  and  C_28
   11  A    between atoms: C_20  and  C_36
   12  A    between atoms: C_22  and  O_37
   13  A    between atoms: C_28  and  C_34
   14  A    between atoms: C_29  and  C_31
   15  A    between atoms: C_29  and  C_33
   16  A    between atoms: C_34  and  C_42
   17  A    between atoms: C_35  and  C_38
   18  A    between atoms: C_38  and  N_46
   19  A    between atoms: O_41  and  C_42
   20  A    between atoms: O_41  and  C_47
   21  A    between atoms: N_46  and  C_47
                            x       y       z     vdW  Elec       q    Type
                         _______ _______ _______ _____ _____    ______ ____

>  <TORSDO>
F 21

$$$$
=
 OpenBabel11042411463D

 47 50  0  0  1  0  0  0  0  0999 V2000
  181.9060  176.8470  137.8030 C   0  0  1  0  0  3  0  0  0  0  0  0
  183.9750  176.5550  136.3850 C   0  0  0  0  0  3  0  0  0  0  0  0
  184.0630  177.9950  138.3290 C   0  0  0  0  0  3  0  0  0  0  0  0
  186.0370  177.6990  136.9530 C   0  0  0  0  0  0  0  0  0  0  0  0
  185.4040  178.2790  138.0570 C   0  0  0  0  0  3  0  0  0  0  0  0
  185.3160  176.8410  136.1100 C   0  0  0  0  0  3  0  0  0  0  0  0
  183.3430  177.1330  137.4940 C   0  0  0  0  0  0  0  0  0  0  0  0
  187.4520  178.0610  136.6450 C   0  0  0  0  0  2  0  0  0  0  0  0
  188.4470  177.3040  137.5400 C   0  0  1  0  0  3  0  0  0  0  0  0
  189.4310  176.5980  136.6950 N   0  0  0  0  0  0  0  0  0  0  0  0
  190.8710  174.8260  136.9800 C   0  0  0  0  0  2  0  0  0  0  0  0
  190.4800  176.1290  137.5080 N   0  0  0  0  0  2  0  0  0  0  0  0
  189.8590  174.3840  136.0400 N   0  0  0  0  0  2  0  0  0  0  0  0
  188.8200  175.3870  136.1510 C   0  0  0  0  0  2  0  0  0  0  0  0
  188.5180  178.2660  139.8760 C   0  0  0  0  0  1  0  0  0  0  0  0
  189.0680  179.6100  138.0150 O   0  0  0  0  0  1  0  0  0  0  0  0
  189.1460  178.2990  138.4970 C   0  0  2  0  0  3  0  0  0  0  0  0
  181.6530  176.8600  139.2830 C   0  0  0  0  0  0  0  0  0  0  0  0
  180.5770  177.6270  139.8390 N   0  0  0  0  0  2  0  0  0  0  0  0
  182.4230  176.2110  140.0420 O   0  0  0  0  0  0  0  0  0  0  0  0
  180.4000  177.8040  141.2760 C   0  0  0  0  0  2  0  0  0  0  0  0
  180.9210  179.1680  141.7130 C   0  0  0  0  0  2  0  0  0  0  0  0
  181.9990  178.9480  143.9600 C   0  0  0  0  0  3  0  0  0  0  0  0
  184.4060  178.6830  144.1530 C   0  0  0  0  0  0  0  0  0  0  0  0
  185.7780  178.6090  141.9900 C   0  0  0  0  0  1  0  0  0  0  0  0
  183.3540  178.8740  141.9990 N   0  0  0  0  0  0  0  0  0  0  0  0
  183.1430  178.7960  144.7440 C   0  0  0  0  0  3  0  0  0  0  0  0
  182.1250  178.9890  142.5720 C   0  0  0  0  0  0  0  0  0  0  0  0
  184.4890  178.7240  142.7340 C   0  0  0  0  0  0  0  0  0  0  0  0
  185.5370  178.5630  145.0340 N   0  0  0  0  0  0  0  0  0  0  0  0
  185.5760  178.9610  146.2640 C   0  0  0  0  0  3  0  0  0  0  0  0
  186.8000  178.7650  147.0890 C   0  0  0  0  0  2  0  0  0  0  0  0
  187.5330  177.4960  146.6700 C   0  0  0  0  0  2  0  0  0  0  0  0
  188.8540  177.8050  146.2380 O   0  0  0  0  0  0  0  0  0  0  0  0
  189.2730  177.6020  144.9220 C   0  0  0  0  0  0  0  0  0  0  0  0
  188.8130  176.6500  144.2360 O   0  0  0  0  0  0  0  0  0  0  0  0
  190.2600  178.5410  144.3190 C   0  0  0  0  0  1  0  0  0  0  0  0
  181.0520  177.7960  137.1040 N   0  0  0  0  0  2  0  0  0  0  0  0
  181.8320  179.0050  136.9060 C   0  0  0  0  0  2  0  0  0  0  0  0
  180.9690  180.0940  136.7790 O   0  0  0  0  0  0  0  0  0  0  0  0
  181.0950  180.7950  137.9830 C   0  0  0  0  0  2  0  0  0  0  0  0
  180.1150  181.9600  138.0080 C   0  0  0  0  0  2  0  0  0  0  0  0
  180.7680  183.2170  137.5170 C   0  0  0  0  0  0  0  0  0  0  0  0
  181.9280  183.4540  137.8170 O   0  0  0  0  0  0  0  0  0  0  0  0
  180.0240  184.1590  136.6210 C   0  0  0  0  0  3  0  0  0  0  0  0
  179.6530  183.4530  135.3260 C   0  0  0  0  0  2  0  0  0  0  0  0
  180.8130  184.4190  135.3460 C   0  0  0  0  0  2  0  0  0  0  0  0
  1 38  1  6  0  0  0
  1 18  1  0  0  0  0
  2  7  1  0  0  0  0
  4  5  2  0  0  0  0
  5  3  1  0  0  0  0
  6  2  2  0  0  0  0
  6  4  1  0  0  0  0
  7  1  1  0  0  0  0
  7  3  2  0  0  0  0
  8  4  1  0  0  0  0
  9  8  1  6  0  0  0
  9 17  1  0  0  0  0
 10 12  1  0  0  0  0
 10  9  1  0  0  0  0
 11 12  1  0  0  0  0
 13 14  1  0  0  0  0
 13 11  1  0  0  0  0
 14 10  1  0  0  0  0
 16 17  1  0  0  0  0
 17 15  1  1  0  0  0
 18 19  1  0  0  0  0
 18 20  2  0  0  0  0
 19 21  1  0  0  0  0
 21 22  1  0  0  0  0
 22 28  1  0  0  0  0
 23 27  1  0  0  0  0
 24 27  2  0  0  0  0
 24 30  1  0  0  0  0
 25 29  1  0  0  0  0
 26 28  1  0  0  0  0
 26 29  2  0  0  0  0
 28 23  2  0  0  0  0
 29 24  1  0  0  0  0
 30 31  2  0  0  0  0
 31 32  1  0  0  0  0
 33 32  1  0  0  0  0
 34 33  1  0  0  0  0
 35 34  1  0  0  0  0
 36 35  2  0  0  0  0
 37 35  1  0  0  0  0
 39 38  1  0  0  0  0
 40 39  1  0  0  0  0
 40 41  1  0  0  0  0
 41 42  1  0  0  0  0
 43 44  2  0  0  0  0
 43 42  1  0  0  0  0
 45 43  1  0  0  0  0
 46 47  1  0  0  0  0
 46 45  1  0  0  0  0
 47 45  1  0  0  0  0
M  END
>  <MODEL>
9

>  <REMARK>
 VINA RESULT:      -6.1      3.195      6.148
  Name = 
  21 active torsions:
  status: ('A' for Active; 'I' for Inactive)
    1  A    between atoms: C_3  and  C_13
    2  A    between atoms: C_3  and  C_32
    3  A    between atoms: C_6  and  C_33
    4  A    between atoms: C_7  and  N_18
    5  A    between atoms: N_8  and  C_29
    6  A    between atoms: C_9  and  C_38
    7  A    between atoms: C_13  and  N_26
    8  A    between atoms: C_15  and  C_20
    9  A    between atoms: C_15  and  O_37
   10  A    between atoms: C_16  and  C_28
   11  A    between atoms: C_20  and  C_36
   12  A    between atoms: C_22  and  O_37
   13  A    between atoms: C_28  and  C_34
   14  A    between atoms: C_29  and  C_31
   15  A    between atoms: C_29  and  C_33
   16  A    between atoms: C_34  and  C_42
   17  A    between atoms: C_35  and  C_38
   18  A    between atoms: C_38  and  N_46
   19  A    between atoms: O_41  and  C_42
   20  A    between atoms: O_41  and  C_47
   21  A    between atoms: N_46  and  C_47
                            x       y       z     vdW  Elec       q    Type
                         _______ _______ _______ _____ _____    ______ ____

>  <TORSDO>
F 21

$$$$
