=
 OpenBabel11042411013D

 29 32  0  0  1  0  0  0  0  0999 V2000
  189.5500  177.8840  142.6530 N   0  0  0  0  0  0  0  0  0  0  0  0
  188.6740  178.5720  140.4900 C   0  0  0  0  0  3  0  0  0  0  0  0
  189.6170  177.9830  141.2170 C   0  0  0  0  0  3  0  0  0  0  0  0
  188.8040  178.6340  139.0730 N   0  0  0  0  0  2  0  0  0  0  0  0
  186.4920  178.3870  138.8810 O   0  0  0  0  0  1  0  0  0  0  0  0
  187.7060  178.2270  138.2120 C   0  0  2  0  0  3  0  0  0  0  0  0
  187.8810  176.8020  137.8120 C   0  0  0  0  0  0  0  0  0  0  0  0
  189.1120  176.1840  137.9860 O   0  0  0  0  0  1  0  0  0  0  0  0
  186.9160  176.1510  137.3300 O   0  0  0  0  0  0  0  0  0  0  0  0
  190.4280  178.6540  143.4960 C   0  0  0  0  0  3  0  0  0  0  0  0
  191.3660  178.1670  144.3170 C   0  0  0  0  0  3  0  0  0  0  0  0
  191.7050  176.7250  144.4800 C   0  0  0  0  0  2  0  0  0  0  0  0
  192.0450  175.9560  147.7470 C   0  0  2  0  0  3  0  0  0  0  0  0
  191.4990  177.0330  147.0490 N   0  0  0  0  0  2  0  0  0  0  0  0
  191.8540  176.4050  145.9260 C   0  0  1  0  0  0  0  0  0  0  0  0
  192.4110  175.2810  146.6380 O   0  0  0  0  0  0  0  0  0  0  0  0
  188.7040  176.9200  143.3100 C   0  0  0  0  0  0  0  0  0  0  0  0
  188.8400  175.6260  143.0210 C   0  0  0  0  0  2  0  0  0  0  0  0
  184.2380  178.7750  144.5210 C   0  0  0  0  0  0  0  0  0  0  0  0
  185.8710  178.2330  146.1920 N   0  0  0  0  0  0  0  0  0  0  0  0
  184.7830  178.3750  142.2070 C   0  0  0  0  0  3  0  0  0  0  0  0
  183.8770  178.8130  143.1730 C   0  0  0  0  0  3  0  0  0  0  0  0
  187.9680  177.3460  145.5980 N   0  0  0  0  0  0  0  0  0  0  0  0
  187.0910  177.7600  146.5490 C   0  0  0  0  0  3  0  0  0  0  0  0
  183.3120  179.2150  145.5090 N   0  0  0  0  0  1  0  0  0  0  0  0
  186.0090  177.9170  142.5760 N   0  0  0  0  0  0  0  0  0  0  0  0
  186.3970  177.8720  143.8820 C   0  0  0  0  0  0  0  0  0  0  0  0
  185.5030  178.2980  144.8870 C   0  0  0  0  0  0  0  0  0  0  0  0
  187.6680  177.3900  144.2700 C   0  0  0  0  0  0  0  0  0  0  0  0
  1 17  1  0  0  0  0
  1 10  1  0  0  0  0
  2  3  2  0  0  0  0
  3  1  1  0  0  0  0
  4  2  1  0  0  0  0
  6  5  1  1  0  0  0
  6  4  1  0  0  0  0
  7  8  1  0  0  0  0
  7  6  1  0  0  0  0
  9  7  2  0  0  0  0
 10 11  2  0  0  0  0
 11 12  1  0  0  0  0
 13 16  1  6  0  0  0
 14 13  1  0  0  0  0
 15 12  1  1  0  0  0
 15 16  1  0  0  0  0
 15 14  1  0  0  0  0
 15 13  1  0  0  0  0
 17 29  1  0  0  0  0
 18 17  2  0  0  0  0
 19 28  1  0  0  0  0
 19 25  1  0  0  0  0
 20 24  1  0  0  0  0
 21 26  2  0  0  0  0
 21 22  1  0  0  0  0
 22 19  2  0  0  0  0
 23 24  2  0  0  0  0
 26 27  1  0  0  0  0
 27 29  2  0  0  0  0
 27 28  1  0  0  0  0
 28 20  2  0  0  0  0
 29 23  1  0  0  0  0
M  END
>  <MODEL>
1

>  <REMARK>
 VINA RESULT:      -7.6      0.000      0.000
  Name = 
  9 active torsions:
  status: ('A' for Active; 'I' for Inactive)
    1  A    between atoms: C_1  and  N_17
    2  A    between atoms: N_2  and  C_9
    3  A    between atoms: N_2  and  C_24
    4  A    between atoms: N_2  and  C_28
    5  A    between atoms: C_4  and  C_25
    6  A    between atoms: C_10  and  C_12
    7  A    between atoms: C_10  and  C_23
    8  A    between atoms: N_17  and  C_25
    9  A    between atoms: C_24  and  C_26
                            x       y       z     vdW  Elec       q    Type
                         _______ _______ _______ _____ _____    ______ ____

>  <TORSDO>
F 9

$$$$
=
 OpenBabel11042411013D

 29 32  0  0  1  0  0  0  0  0999 V2000
  189.8800  177.7080  142.2930 N   0  0  0  0  0  0  0  0  0  0  0  0
  187.6230  178.2730  141.5810 C   0  0  0  0  0  3  0  0  0  0  0  0
  188.8040  178.6390  142.0670 C   0  0  0  0  0  2  0  0  0  0  0  0
  186.6030  179.2460  141.3810 N   0  0  0  0  0  0  0  0  0  0  0  0
  184.8590  179.6730  139.8930 O   0  0  0  0  0  1  0  0  0  0  0  0
  185.2780  178.8490  140.9370 C   0  0  2  0  0  3  0  0  0  0  0  0
  184.3170  178.9400  142.0730 C   0  0  0  0  0  0  0  0  0  0  0  0
  183.0010  178.5330  141.8950 O   0  0  0  0  0  0  0  0  0  0  0  0
  184.6940  179.3700  143.1950 O   0  0  0  0  0  1  0  0  0  0  0  0
  191.0850  177.7540  141.5050 C   0  0  0  0  0  3  0  0  0  0  0  0
  191.2270  177.3160  140.2480 C   0  0  0  0  0  3  0  0  0  0  0  0
  190.1400  176.7300  139.4110 C   0  0  0  0  0  2  0  0  0  0  0  0
  189.0640  179.0200  137.1800 C   0  0  2  0  0  3  0  0  0  0  0  0
  189.0830  178.9480  138.5720 N   0  0  0  0  0  2  0  0  0  0  0  0
  189.6520  177.7470  138.4410 C   0  0  1  0  0  0  0  0  0  0  0  0
  189.6470  177.8180  137.0000 O   0  0  0  0  0  0  0  0  0  0  0  0
  189.7530  176.6100  143.2170 C   0  0  0  0  0  0  0  0  0  0  0  0
  189.4780  175.3920  142.7510 C   0  0  0  0  0  2  0  0  0  0  0  0
  188.0530  177.9230  147.7160 C   0  0  0  0  0  0  0  0  0  0  0  0
  190.3410  177.2920  147.3690 N   0  0  0  0  0  0  0  0  0  0  0  0
  186.5510  177.8840  145.8300 C   0  0  0  0  0  3  0  0  0  0  0  0
  186.7760  178.1140  147.1880 C   0  0  0  0  0  3  0  0  0  0  0  0
  191.1190  176.6630  145.2390 N   0  0  0  0  0  0  0  0  0  0  0  0
  191.3470  176.8740  146.5620 C   0  0  0  0  0  3  0  0  0  0  0  0
  188.2820  178.1510  149.1020 N   0  0  0  0  0  1  0  0  0  0  0  0
  187.5710  177.4790  145.0270 N   0  0  0  0  0  0  0  0  0  0  0  0
  188.8330  177.2890  145.5070 C   0  0  0  0  0  0  0  0  0  0  0  0
  189.0940  177.5030  146.8770 C   0  0  0  0  0  0  0  0  0  0  0  0
  189.8940  176.8620  144.6780 C   0  0  0  0  0  0  0  0  0  0  0  0
  1 17  1  0  0  0  0
  2  3  1  0  0  0  0
  3  1  1  0  0  0  0
  4  2  2  0  0  0  0
  6  5  1  6  0  0  0
  6  4  1  0  0  0  0
  6  7  1  0  0  0  0
  7  9  1  0  0  0  0
  8  7  2  0  0  0  0
 10  1  1  0  0  0  0
 11 10  2  0  0  0  0
 12 11  1  0  0  0  0
 13 16  1  1  0  0  0
 13 15  1  0  0  0  0
 13 14  1  0  0  0  0
 15 14  1  0  0  0  0
 15 12  1  6  0  0  0
 16 15  1  0  0  0  0
 17 29  1  0  0  0  0
 18 17  2  0  0  0  0
 19 25  1  0  0  0  0
 21 22  2  0  0  0  0
 22 19  1  0  0  0  0
 23 24  1  0  0  0  0
 24 20  2  0  0  0  0
 26 27  2  0  0  0  0
 26 21  1  0  0  0  0
 27 28  1  0  0  0  0
 28 20  1  0  0  0  0
 28 19  2  0  0  0  0
 29 23  2  0  0  0  0
 29 27  1  0  0  0  0
M  END
>  <MODEL>
2

>  <REMARK>
 VINA RESULT:      -7.6      2.541      5.280
  Name = 
  9 active torsions:
  status: ('A' for Active; 'I' for Inactive)
    1  A    between atoms: C_1  and  N_17
    2  A    between atoms: N_2  and  C_9
    3  A    between atoms: N_2  and  C_24
    4  A    between atoms: N_2  and  C_28
    5  A    between atoms: C_4  and  C_25
    6  A    between atoms: C_10  and  C_12
    7  A    between atoms: C_10  and  C_23
    8  A    between atoms: N_17  and  C_25
    9  A    between atoms: C_24  and  C_26
                            x       y       z     vdW  Elec       q    Type
                         _______ _______ _______ _____ _____    ______ ____

>  <TORSDO>
F 9

$$$$
=
 OpenBabel11042411013D

 29 32  0  0  1  0  0  0  0  0999 V2000
  189.5260  177.9690  142.1670 N   0  0  0  0  0  0  0  0  0  0  0  0
  189.2920  177.8560  139.7480 C   0  0  0  0  0  3  0  0  0  0  0  0
  190.0330  177.7180  140.8420 C   0  0  0  0  0  3  0  0  0  0  0  0
  189.8570  177.5900  138.4690 N   0  0  0  0  0  2  0  0  0  0  0  0
  188.9950  179.5720  137.5910 O   0  0  0  0  0  1  0  0  0  0  0  0
  189.3480  178.2580  137.2830 C   0  0  2  0  0  3  0  0  0  0  0  0
  188.1610  177.5230  136.7600 C   0  0  0  0  0  0  0  0  0  0  0  0
  187.0550  178.2320  136.3120 O   0  0  0  0  0  0  0  0  0  0  0  0
  188.1610  176.2640  136.7110 O   0  0  0  0  0  1  0  0  0  0  0  0
  190.1360  178.9520  143.0260 C   0  0  0  0  0  3  0  0  0  0  0  0
  191.0800  178.7230  143.9470 C   0  0  0  0  0  3  0  0  0  0  0  0
  191.7090  177.4000  144.2260 C   0  0  0  0  0  2  0  0  0  0  0  0
  190.9940  176.4970  147.3960 C   0  0  2  0  0  3  0  0  0  0  0  0
  192.1100  176.3600  146.5700 N   0  0  0  0  0  2  0  0  0  0  0  0
  191.4080  176.9870  145.6230 C   0  0  1  0  0  0  0  0  0  0  0  0
  190.2530  177.1440  146.4740 O   0  0  0  0  0  0  0  0  0  0  0  0
  188.4790  177.1650  142.7460 C   0  0  0  0  0  0  0  0  0  0  0  0
  188.7370  175.9020  143.0850 C   0  0  0  0  0  2  0  0  0  0  0  0
  184.5820  178.7000  145.4500 C   0  0  0  0  0  0  0  0  0  0  0  0
  184.5830  178.8320  143.0540 N   0  0  0  0  0  0  0  0  0  0  0  0
  186.5390  177.8280  146.5540 C   0  0  0  0  0  3  0  0  0  0  0  0
  185.2530  178.3640  146.6260 C   0  0  0  0  0  3  0  0  0  0  0  0
  186.4390  178.1140  141.7990 N   0  0  0  0  0  0  0  0  0  0  0  0
  185.1910  178.6470  141.8560 C   0  0  0  0  0  3  0  0  0  0  0  0
  183.2720  179.2540  145.5210 N   0  0  0  0  0  1  0  0  0  0  0  0
  187.1330  177.6320  145.3460 N   0  0  0  0  0  0  0  0  0  0  0  0
  186.5040  177.9430  144.1780 C   0  0  0  0  0  0  0  0  0  0  0  0
  185.2070  178.4960  144.2120 C   0  0  0  0  0  0  0  0  0  0  0  0
  187.1200  177.7480  142.9200 C   0  0  0  0  0  0  0  0  0  0  0  0
  1 17  1  0  0  0  0
  1 10  1  0  0  0  0
  2  3  2  0  0  0  0
  3  1  1  0  0  0  0
  4  2  1  0  0  0  0
  6  5  1  1  0  0  0
  6  4  1  0  0  0  0
  7  6  1  0  0  0  0
  8  7  2  0  0  0  0
  9  7  1  0  0  0  0
 10 11  2  0  0  0  0
 11 12  1  0  0  0  0
 13 16  1  1  0  0  0
 14 13  1  0  0  0  0
 15 12  1  6  0  0  0
 15 16  1  0  0  0  0
 15 14  1  0  0  0  0
 15 13  1  0  0  0  0
 17 29  1  0  0  0  0
 17 18  2  0  0  0  0
 19 25  1  0  0  0  0
 19 22  1  0  0  0  0
 20 28  1  0  0  0  0
 21 22  2  0  0  0  0
 23 24  1  0  0  0  0
 23 29  2  0  0  0  0
 24 20  2  0  0  0  0
 26 21  1  0  0  0  0
 27 28  1  0  0  0  0
 27 26  2  0  0  0  0
 28 19  2  0  0  0  0
 29 27  1  0  0  0  0
M  END
>  <MODEL>
3

>  <REMARK>
 VINA RESULT:      -7.6      1.333      2.279
  Name = 
  9 active torsions:
  status: ('A' for Active; 'I' for Inactive)
    1  A    between atoms: C_1  and  N_17
    2  A    between atoms: N_2  and  C_9
    3  A    between atoms: N_2  and  C_24
    4  A    between atoms: N_2  and  C_28
    5  A    between atoms: C_4  and  C_25
    6  A    between atoms: C_10  and  C_12
    7  A    between atoms: C_10  and  C_23
    8  A    between atoms: N_17  and  C_25
    9  A    between atoms: C_24  and  C_26
                            x       y       z     vdW  Elec       q    Type
                         _______ _______ _______ _____ _____    ______ ____

>  <TORSDO>
F 9

$$$$
=
 OpenBabel11042411013D

 29 32  0  0  1  0  0  0  0  0999 V2000
  189.6250  177.7780  142.1380 N   0  0  0  0  0  0  0  0  0  0  0  0
  189.7760  177.7080  139.7110 C   0  0  0  0  0  3  0  0  0  0  0  0
  190.2200  177.3310  140.9040 C   0  0  0  0  0  3  0  0  0  0  0  0
  190.4110  177.2270  138.5310 N   0  0  0  0  0  2  0  0  0  0  0  0
  188.3160  176.4310  137.8850 O   0  0  0  0  0  1  0  0  0  0  0  0
  189.6760  176.4200  137.5720 C   0  0  2  0  0  3  0  0  0  0  0  0
  190.1900  175.0210  137.5910 C   0  0  0  0  0  0  0  0  0  0  0  0
  191.4480  174.7570  138.1150 O   0  0  0  0  0  1  0  0  0  0  0  0
  189.4840  174.0760  137.1480 O   0  0  0  0  0  0  0  0  0  0  0  0
  190.2010  178.8590  142.8960 C   0  0  0  0  0  3  0  0  0  0  0  0
  191.1530  178.7520  143.8310 C   0  0  0  0  0  3  0  0  0  0  0  0
  191.8260  177.4850  144.2350 C   0  0  0  0  0  2  0  0  0  0  0  0
  190.9230  176.6180  147.3680 C   0  0  2  0  0  3  0  0  0  0  0  0
  190.2450  177.1360  146.2640 N   0  0  0  0  0  2  0  0  0  0  0  0
  191.4120  177.1150  145.6160 C   0  0  1  0  0  0  0  0  0  0  0  0
  192.1190  176.5690  146.7480 O   0  0  0  0  0  0  0  0  0  0  0  0
  188.5130  177.0870  142.7400 C   0  0  0  0  0  0  0  0  0  0  0  0
  188.6760  175.8350  143.1680 C   0  0  0  0  0  2  0  0  0  0  0  0
  184.5160  178.7600  145.2050 C   0  0  0  0  0  0  0  0  0  0  0  0
  184.7490  179.0550  142.8360 N   0  0  0  0  0  0  0  0  0  0  0  0
  186.2880  177.6500  146.4060 C   0  0  0  0  0  3  0  0  0  0  0  0
  185.0470  178.2880  146.4060 C   0  0  0  0  0  3  0  0  0  0  0  0
  186.6510  178.2690  141.6950 N   0  0  0  0  0  0  0  0  0  0  0  0
  185.4480  178.9010  141.6840 C   0  0  0  0  0  3  0  0  0  0  0  0
  183.2530  179.4180  145.2050 N   0  0  0  0  0  1  0  0  0  0  0  0
  186.9730  177.4880  145.2420 N   0  0  0  0  0  0  0  0  0  0  0  0
  186.4820  177.9300  144.0500 C   0  0  0  0  0  0  0  0  0  0  0  0
  185.2350  178.5880  144.0150 C   0  0  0  0  0  0  0  0  0  0  0  0
  187.1940  177.7700  142.8400 C   0  0  0  0  0  0  0  0  0  0  0  0
  1 17  1  0  0  0  0
  1 10  1  0  0  0  0
  2  3  2  0  0  0  0
  3  1  1  0  0  0  0
  4  2  1  0  0  0  0
  6  7  1  0  0  0  0
  6  5  1  1  0  0  0
  6  4  1  0  0  0  0
  7  8  1  0  0  0  0
  9  7  2  0  0  0  0
 10 11  2  0  0  0  0
 11 12  1  0  0  0  0
 13 14  1  6  0  0  0
 15 12  1  1  0  0  0
 15 14  1  0  0  0  0
 15 16  1  0  0  0  0
 15 13  1  0  0  0  0
 16 13  1  0  0  0  0
 17 29  1  0  0  0  0
 17 18  2  0  0  0  0
 19 25  1  0  0  0  0
 19 22  1  0  0  0  0
 20 28  1  0  0  0  0
 21 22  2  0  0  0  0
 23 29  2  0  0  0  0
 24 23  1  0  0  0  0
 24 20  2  0  0  0  0
 26 21  1  0  0  0  0
 27 26  2  0  0  0  0
 28 27  1  0  0  0  0
 28 19  2  0  0  0  0
 29 27  1  0  0  0  0
M  END
>  <MODEL>
4

>  <REMARK>
 VINA RESULT:      -7.4      1.385      2.375
  Name = 
  9 active torsions:
  status: ('A' for Active; 'I' for Inactive)
    1  A    between atoms: C_1  and  N_17
    2  A    between atoms: N_2  and  C_9
    3  A    between atoms: N_2  and  C_24
    4  A    between atoms: N_2  and  C_28
    5  A    between atoms: C_4  and  C_25
    6  A    between atoms: C_10  and  C_12
    7  A    between atoms: C_10  and  C_23
    8  A    between atoms: N_17  and  C_25
    9  A    between atoms: C_24  and  C_26
                            x       y       z     vdW  Elec       q    Type
                         _______ _______ _______ _____ _____    ______ ____

>  <TORSDO>
F 9

$$$$
=
 OpenBabel11042411013D

 29 32  0  0  1  0  0  0  0  0999 V2000
  189.7310  177.8970  142.7060 N   0  0  0  0  0  0  0  0  0  0  0  0
  190.7170  177.3960  140.5390 C   0  0  0  0  0  3  0  0  0  0  0  0
  189.8330  178.0580  141.2780 C   0  0  0  0  0  3  0  0  0  0  0  0
  190.7650  177.6040  139.1320 N   0  0  0  0  0  2  0  0  0  0  0  0
  190.7410  175.2900  138.8360 O   0  0  0  0  0  1  0  0  0  0  0  0
  191.0700  176.5040  138.2320 C   0  0  2  0  0  3  0  0  0  0  0  0
  192.5210  176.5230  137.8870 C   0  0  0  0  0  0  0  0  0  0  0  0
  193.4450  176.9650  138.8240 O   0  0  0  0  0  1  0  0  0  0  0  0
  192.9130  176.1270  136.7580 O   0  0  0  0  0  0  0  0  0  0  0  0
  190.6100  178.6040  143.6020 C   0  0  0  0  0  3  0  0  0  0  0  0
  191.4670  178.0530  144.4700 C   0  0  0  0  0  3  0  0  0  0  0  0
  191.6990  176.5900  144.6410 C   0  0  0  0  0  2  0  0  0  0  0  0
  192.2190  175.9400  147.9100 C   0  0  2  0  0  3  0  0  0  0  0  0
  192.3940  175.2160  146.7310 N   0  0  0  0  0  2  0  0  0  0  0  0
  191.9270  176.2830  146.0790 C   0  0  1  0  0  0  0  0  0  0  0  0
  191.7540  177.0450  147.2920 O   0  0  0  0  0  0  0  0  0  0  0  0
  188.8430  176.9300  143.3010 C   0  0  0  0  0  0  0  0  0  0  0  0
  188.9300  175.6510  142.9350 C   0  0  0  0  0  2  0  0  0  0  0  0
  184.3810  178.7270  144.6110 C   0  0  0  0  0  0  0  0  0  0  0  0
  186.0540  178.1920  146.2470 N   0  0  0  0  0  0  0  0  0  0  0  0
  184.8860  178.3470  142.2850 C   0  0  0  0  0  3  0  0  0  0  0  0
  183.9940  178.7690  143.2720 C   0  0  0  0  0  3  0  0  0  0  0  0
  188.1480  177.3330  145.6060 N   0  0  0  0  0  0  0  0  0  0  0  0
  187.2850  177.7310  146.5770 C   0  0  0  0  0  3  0  0  0  0  0  0
  183.4700  179.1500  145.6210 N   0  0  0  0  0  1  0  0  0  0  0  0
  186.1240  177.9010  142.6270 N   0  0  0  0  0  0  0  0  0  0  0  0
  186.5380  177.8520  143.9240 C   0  0  0  0  0  0  0  0  0  0  0  0
  185.6590  178.2610  144.9490 C   0  0  0  0  0  0  0  0  0  0  0  0
  187.8210  177.3820  144.2850 C   0  0  0  0  0  0  0  0  0  0  0  0
  1 17  1  0  0  0  0
  1 10  1  0  0  0  0
  2  3  2  0  0  0  0
  3  1  1  0  0  0  0
  4  2  1  0  0  0  0
  6  5  1  1  0  0  0
  6  4  1  0  0  0  0
  7  6  1  0  0  0  0
  7  8  1  0  0  0  0
  9  7  2  0  0  0  0
 10 11  2  0  0  0  0
 11 12  1  0  0  0  0
 13 14  1  6  0  0  0
 15 12  1  1  0  0  0
 15 14  1  0  0  0  0
 15 16  1  0  0  0  0
 15 13  1  0  0  0  0
 16 13  1  0  0  0  0
 17 29  1  0  0  0  0
 18 17  2  0  0  0  0
 19 28  1  0  0  0  0
 19 25  1  0  0  0  0
 20 24  1  0  0  0  0
 21 26  2  0  0  0  0
 21 22  1  0  0  0  0
 22 19  2  0  0  0  0
 23 24  2  0  0  0  0
 26 27  1  0  0  0  0
 27 29  2  0  0  0  0
 27 28  1  0  0  0  0
 28 20  2  0  0  0  0
 29 23  1  0  0  0  0
M  END
>  <MODEL>
5

>  <REMARK>
 VINA RESULT:      -7.3      1.760      2.191
  Name = 
  9 active torsions:
  status: ('A' for Active; 'I' for Inactive)
    1  A    between atoms: C_1  and  N_17
    2  A    between atoms: N_2  and  C_9
    3  A    between atoms: N_2  and  C_24
    4  A    between atoms: N_2  and  C_28
    5  A    between atoms: C_4  and  C_25
    6  A    between atoms: C_10  and  C_12
    7  A    between atoms: C_10  and  C_23
    8  A    between atoms: N_17  and  C_25
    9  A    between atoms: C_24  and  C_26
                            x       y       z     vdW  Elec       q    Type
                         _______ _______ _______ _____ _____    ______ ____

>  <TORSDO>
F 9

$$$$
=
 OpenBabel11042411013D

 29 32  0  0  1  0  0  0  0  0999 V2000
  190.0370  177.7350  142.4320 N   0  0  0  0  0  0  0  0  0  0  0  0
  187.7800  178.2960  141.7190 C   0  0  0  0  0  3  0  0  0  0  0  0
  189.0140  178.6700  142.0390 C   0  0  0  0  0  2  0  0  0  0  0  0
  186.8170  179.2730  141.3370 N   0  0  0  0  0  0  0  0  0  0  0  0
  184.9340  179.7520  140.0460 O   0  0  0  0  0  1  0  0  0  0  0  0
  185.4590  178.8810  141.0020 C   0  0  2  0  0  3  0  0  0  0  0  0
  184.6100  178.9010  142.2270 C   0  0  0  0  0  0  0  0  0  0  0  0
  184.9320  179.7550  143.2730 O   0  0  0  0  0  1  0  0  0  0  0  0
  183.5960  178.1580  142.3130 O   0  0  0  0  0  0  0  0  0  0  0  0
  191.3480  177.7680  141.8350 C   0  0  0  0  0  3  0  0  0  0  0  0
  191.6540  177.4260  140.5780 C   0  0  0  0  0  3  0  0  0  0  0  0
  190.6770  176.9810  139.5430 C   0  0  0  0  0  2  0  0  0  0  0  0
  192.1840  174.8160  137.4400 C   0  0  2  0  0  3  0  0  0  0  0  0
  190.9260  174.8800  138.0390 N   0  0  0  0  0  2  0  0  0  0  0  0
  191.3300  176.0110  138.6220 C   0  0  1  0  0  0  0  0  0  0  0  0
  192.6300  175.9600  137.9980 O   0  0  0  0  0  0  0  0  0  0  0  0
  189.7650  176.6450  143.3350 C   0  0  0  0  0  0  0  0  0  0  0  0
  189.3730  175.4710  142.8420 C   0  0  0  0  0  2  0  0  0  0  0  0
  188.0540  177.9770  147.8240 C   0  0  0  0  0  0  0  0  0  0  0  0
  190.3080  177.2160  147.5110 N   0  0  0  0  0  0  0  0  0  0  0  0
  186.5920  178.0610  145.9090 C   0  0  0  0  0  3  0  0  0  0  0  0
  186.8010  178.2530  147.2760 C   0  0  0  0  0  3  0  0  0  0  0  0
  191.0900  176.5800  145.3840 N   0  0  0  0  0  0  0  0  0  0  0  0
  191.3030  176.7530  146.7150 C   0  0  0  0  0  3  0  0  0  0  0  0
  188.2680  178.1650  149.2190 N   0  0  0  0  0  1  0  0  0  0  0  0
  187.6020  177.6100  145.1190 N   0  0  0  0  0  0  0  0  0  0  0  0
  188.8400  177.3370  145.6190 C   0  0  0  0  0  0  0  0  0  0  0  0
  189.0850  177.5100  146.9980 C   0  0  0  0  0  0  0  0  0  0  0  0
  189.8910  176.8620  144.8030 C   0  0  0  0  0  0  0  0  0  0  0  0
  1 17  1  0  0  0  0
  2  3  1  0  0  0  0
  3  1  1  0  0  0  0
  4  2  2  0  0  0  0
  6  5  1  6  0  0  0
  6  4  1  0  0  0  0
  6  7  1  0  0  0  0
  7  9  2  0  0  0  0
  7  8  1  0  0  0  0
 10  1  1  0  0  0  0
 11 10  2  0  0  0  0
 12 11  1  0  0  0  0
 13 16  1  6  0  0  0
 13 14  1  0  0  0  0
 13 15  1  0  0  0  0
 14 15  1  0  0  0  0
 15 12  1  1  0  0  0
 16 15  1  0  0  0  0
 17 29  1  0  0  0  0
 18 17  2  0  0  0  0
 19 25  1  0  0  0  0
 21 22  2  0  0  0  0
 22 19  1  0  0  0  0
 23 24  1  0  0  0  0
 24 20  2  0  0  0  0
 26 27  2  0  0  0  0
 26 21  1  0  0  0  0
 27 28  1  0  0  0  0
 28 20  1  0  0  0  0
 28 19  2  0  0  0  0
 29 23  2  0  0  0  0
 29 27  1  0  0  0  0
M  END
>  <MODEL>
6

>  <REMARK>
 VINA RESULT:      -7.3      2.755      5.037
  Name = 
  9 active torsions:
  status: ('A' for Active; 'I' for Inactive)
    1  A    between atoms: C_1  and  N_17
    2  A    between atoms: N_2  and  C_9
    3  A    between atoms: N_2  and  C_24
    4  A    between atoms: N_2  and  C_28
    5  A    between atoms: C_4  and  C_25
    6  A    between atoms: C_10  and  C_12
    7  A    between atoms: C_10  and  C_23
    8  A    between atoms: N_17  and  C_25
    9  A    between atoms: C_24  and  C_26
                            x       y       z     vdW  Elec       q    Type
                         _______ _______ _______ _____ _____    ______ ____

>  <TORSDO>
F 9

$$$$
=
 OpenBabel11042411013D

 29 32  0  0  1  0  0  0  0  0999 V2000
  189.1530  176.8080  142.9970 N   0  0  0  0  0  0  0  0  0  0  0  0
  187.7730  177.5120  144.8730 C   0  0  0  0  0  3  0  0  0  0  0  0
  187.9380  176.7890  143.7710 C   0  0  0  0  0  3  0  0  0  0  0  0
  186.5460  177.4440  145.5910 N   0  0  0  0  0  2  0  0  0  0  0  0
  185.3640  178.6970  147.1640 O   0  0  0  0  0  1  0  0  0  0  0  0
  185.7600  178.6430  145.8270 C   0  0  2  0  0  3  0  0  0  0  0  0
  184.5600  178.6430  144.9420 C   0  0  0  0  0  0  0  0  0  0  0  0
  183.3250  179.0130  145.4580 O   0  0  0  0  0  1  0  0  0  0  0  0
  184.6630  178.3240  143.7280 O   0  0  0  0  0  0  0  0  0  0  0  0
  190.1780  175.8140  143.1900 C   0  0  0  0  0  3  0  0  0  0  0  0
  191.1620  175.8580  144.0960 C   0  0  0  0  0  3  0  0  0  0  0  0
  191.3550  176.9350  145.1090 C   0  0  0  0  0  2  0  0  0  0  0  0
  192.5300  175.6430  147.9950 C   0  0  2  0  0  3  0  0  0  0  0  0
  192.4310  175.1750  146.6850 N   0  0  0  0  0  2  0  0  0  0  0  0
  191.8700  176.3460  146.3750 C   0  0  1  0  0  0  0  0  0  0  0  0
  191.9790  176.8430  147.7250 O   0  0  0  0  0  0  0  0  0  0  0  0
  189.4620  177.8880  142.0940 C   0  0  0  0  0  0  0  0  0  0  0  0
  189.9670  179.0220  142.5800 C   0  0  0  0  0  2  0  0  0  0  0  0
  186.5500  178.1330  138.0550 C   0  0  0  0  0  0  0  0  0  0  0  0
  188.8210  177.3710  137.9260 N   0  0  0  0  0  0  0  0  0  0  0  0
  185.6880  178.8200  140.1990 C   0  0  0  0  0  3  0  0  0  0  0  0
  185.5000  178.6280  138.8300 C   0  0  0  0  0  3  0  0  0  0  0  0
  190.1810  177.2770  139.8430 N   0  0  0  0  0  0  0  0  0  0  0  0
  190.0140  177.0950  138.5070 C   0  0  0  0  0  3  0  0  0  0  0  0
  186.3620  177.9430  136.6560 N   0  0  0  0  0  1  0  0  0  0  0  0
  186.8840  178.5250  140.7740 N   0  0  0  0  0  0  0  0  0  0  0  0
  187.9290  178.0340  140.0490 C   0  0  0  0  0  0  0  0  0  0  0  0
  187.7780  177.8360  138.6600 C   0  0  0  0  0  0  0  0  0  0  0  0
  189.1760  177.7330  140.6410 C   0  0  0  0  0  0  0  0  0  0  0  0
  1 10  1  0  0  0  0
  1  3  1  0  0  0  0
  2  4  1  0  0  0  0
  3  2  2  0  0  0  0
  4  6  1  0  0  0  0
  6  5  1  1  0  0  0
  7  8  1  0  0  0  0
  7  6  1  0  0  0  0
  9  7  2  0  0  0  0
 10 11  2  0  0  0  0
 11 12  1  0  0  0  0
 13 14  1  6  0  0  0
 15 12  1  1  0  0  0
 15 14  1  0  0  0  0
 15 16  1  0  0  0  0
 15 13  1  0  0  0  0
 16 13  1  0  0  0  0
 17 18  2  0  0  0  0
 17  1  1  0  0  0  0
 19 28  2  0  0  0  0
 19 22  1  0  0  0  0
 20 24  2  0  0  0  0
 20 28  1  0  0  0  0
 21 26  1  0  0  0  0
 22 21  2  0  0  0  0
 23 29  2  0  0  0  0
 24 23  1  0  0  0  0
 25 19  1  0  0  0  0
 27 29  1  0  0  0  0
 27 26  2  0  0  0  0
 28 27  1  0  0  0  0
 29 17  1  0  0  0  0
M  END
>  <MODEL>
7

>  <REMARK>
 VINA RESULT:      -7.2      2.657      5.573
  Name = 
  9 active torsions:
  status: ('A' for Active; 'I' for Inactive)
    1  A    between atoms: C_1  and  N_17
    2  A    between atoms: N_2  and  C_9
    3  A    between atoms: N_2  and  C_24
    4  A    between atoms: N_2  and  C_28
    5  A    between atoms: C_4  and  C_25
    6  A    between atoms: C_10  and  C_12
    7  A    between atoms: C_10  and  C_23
    8  A    between atoms: N_17  and  C_25
    9  A    between atoms: C_24  and  C_26
                            x       y       z     vdW  Elec       q    Type
                         _______ _______ _______ _____ _____    ______ ____

>  <TORSDO>
F 9

$$$$
=
 OpenBabel11042411013D

 29 32  0  0  1  0  0  0  0  0999 V2000
  188.9730  176.8700  142.7570 N   0  0  0  0  0  0  0  0  0  0  0  0
  187.6190  177.4930  144.6800 C   0  0  0  0  0  3  0  0  0  0  0  0
  187.7700  176.8130  143.5490 C   0  0  0  0  0  3  0  0  0  0  0  0
  186.4040  177.3900  145.4140 N   0  0  0  0  0  2  0  0  0  0  0  0
  185.1260  178.4750  147.0360 O   0  0  0  0  0  1  0  0  0  0  0  0
  185.6340  178.5780  145.7410 C   0  0  2  0  0  3  0  0  0  0  0  0
  184.5160  178.7380  144.7680 C   0  0  0  0  0  0  0  0  0  0  0  0
  184.6060  178.1510  143.5130 O   0  0  0  0  0  0  0  0  0  0  0  0
  183.4850  179.3900  145.0820 O   0  0  0  0  0  1  0  0  0  0  0  0
  190.0240  175.8990  142.9260 C   0  0  0  0  0  3  0  0  0  0  0  0
  191.0130  175.9500  143.8270 C   0  0  0  0  0  3  0  0  0  0  0  0
  191.1840  177.0130  144.8590 C   0  0  0  0  0  2  0  0  0  0  0  0
  192.3660  175.6060  147.6880 C   0  0  2  0  0  3  0  0  0  0  0  0
  191.6480  176.7670  147.4010 N   0  0  0  0  0  2  0  0  0  0  0  0
  191.7060  176.4100  146.1160 C   0  0  1  0  0  0  0  0  0  0  0  0
  192.4380  175.2010  146.4040 O   0  0  0  0  0  0  0  0  0  0  0  0
  189.2420  177.9660  141.8610 C   0  0  0  0  0  0  0  0  0  0  0  0
  189.8120  179.0730  142.3360 C   0  0  0  0  0  2  0  0  0  0  0  0
  190.0300  176.8180  137.0740 C   0  0  0  0  0  0  0  0  0  0  0  0
  187.9430  177.7360  137.8220 N   0  0  0  0  0  0  0  0  0  0  0  0
  191.7620  176.4220  138.7040 C   0  0  0  0  0  3  0  0  0  0  0  0
  191.3150  176.3710  137.3830 C   0  0  0  0  0  3  0  0  0  0  0  0
  187.5890  178.2580  140.0890 N   0  0  0  0  0  0  0  0  0  0  0  0
  187.1390  178.2020  138.8080 C   0  0  0  0  0  3  0  0  0  0  0  0
  189.5700  176.7590  135.7280 N   0  0  0  0  0  1  0  0  0  0  0  0
  190.9510  176.9070  139.6820 N   0  0  0  0  0  0  0  0  0  0  0  0
  189.6930  177.3580  139.4160 C   0  0  0  0  0  0  0  0  0  0  0  0
  189.2050  177.3120  138.0930 C   0  0  0  0  0  0  0  0  0  0  0  0
  188.8450  177.8560  140.4300 C   0  0  0  0  0  0  0  0  0  0  0  0
  1 10  1  0  0  0  0
  1  3  1  0  0  0  0
  2  4  1  0  0  0  0
  3  2  2  0  0  0  0
  4  6  1  0  0  0  0
  6  5  1  1  0  0  0
  7  9  1  0  0  0  0
  7  6  1  0  0  0  0
  8  7  2  0  0  0  0
 10 11  2  0  0  0  0
 11 12  1  0  0  0  0
 13 16  1  1  0  0  0
 14 13  1  0  0  0  0
 15 12  1  6  0  0  0
 15 16  1  0  0  0  0
 15 14  1  0  0  0  0
 15 13  1  0  0  0  0
 17 18  2  0  0  0  0
 17  1  1  0  0  0  0
 19 22  2  0  0  0  0
 19 28  1  0  0  0  0
 20 28  2  0  0  0  0
 20 24  1  0  0  0  0
 21 26  2  0  0  0  0
 22 21  1  0  0  0  0
 23 29  1  0  0  0  0
 24 23  2  0  0  0  0
 25 19  1  0  0  0  0
 27 26  1  0  0  0  0
 27 29  2  0  0  0  0
 28 27  1  0  0  0  0
 29 17  1  0  0  0  0
M  END
>  <MODEL>
8

>  <REMARK>
 VINA RESULT:      -7.0      2.724      6.274
  Name = 
  9 active torsions:
  status: ('A' for Active; 'I' for Inactive)
    1  A    between atoms: C_1  and  N_17
    2  A    between atoms: N_2  and  C_9
    3  A    between atoms: N_2  and  C_24
    4  A    between atoms: N_2  and  C_28
    5  A    between atoms: C_4  and  C_25
    6  A    between atoms: C_10  and  C_12
    7  A    between atoms: C_10  and  C_23
    8  A    between atoms: N_17  and  C_25
    9  A    between atoms: C_24  and  C_26
                            x       y       z     vdW  Elec       q    Type
                         _______ _______ _______ _____ _____    ______ ____

>  <TORSDO>
F 9

$$$$
=
 OpenBabel11042411013D

 29 32  0  0  1  0  0  0  0  0999 V2000
  189.3100  176.9670  142.0800 N   0  0  0  0  0  0  0  0  0  0  0  0
  187.4300  176.7660  143.6120 C   0  0  0  0  0  3  0  0  0  0  0  0
  188.2890  177.5200  142.9340 C   0  0  0  0  0  3  0  0  0  0  0  0
  186.4440  177.3790  144.4370 N   0  0  0  0  0  2  0  0  0  0  0  0
  187.4910  177.5240  146.5160 O   0  0  0  0  0  1  0  0  0  0  0  0
  186.8340  178.2570  145.5270 C   0  0  2  0  0  3  0  0  0  0  0  0
  185.6260  178.9160  146.1010 C   0  0  0  0  0  0  0  0  0  0  0  0
  184.6020  179.3280  145.2590 O   0  0  0  0  0  0  0  0  0  0  0  0
  185.5240  179.0890  147.3440 O   0  0  0  0  0  1  0  0  0  0  0  0
  190.1850  175.9200  142.5450 C   0  0  0  0  0  3  0  0  0  0  0  0
  191.0470  176.0040  143.5650 C   0  0  0  0  0  3  0  0  0  0  0  0
  191.2320  177.1950  144.4420 C   0  0  0  0  0  2  0  0  0  0  0  0
  191.5500  176.2420  147.6630 C   0  0  2  0  0  3  0  0  0  0  0  0
  192.2290  175.9380  146.4830 N   0  0  0  0  0  2  0  0  0  0  0  0
  191.3810  176.7570  145.8570 C   0  0  1  0  0  0  0  0  0  0  0  0
  190.6810  177.0870  147.0730 O   0  0  0  0  0  0  0  0  0  0  0  0
  189.5940  177.5170  140.7790 C   0  0  0  0  0  0  0  0  0  0  0  0
  188.6780  178.2750  140.1760 C   0  0  0  0  0  2  0  0  0  0  0  0
  192.4250  175.3260  137.3110 C   0  0  0  0  0  0  0  0  0  0  0  0
  193.3780  176.7080  139.0250 N   0  0  0  0  0  0  0  0  0  0  0  0
  190.0330  175.0300  137.2690 C   0  0  0  0  0  3  0  0  0  0  0  0
  191.2900  174.7690  136.7220 C   0  0  0  0  0  3  0  0  0  0  0  0
  192.0210  177.7430  140.6440 N   0  0  0  0  0  0  0  0  0  0  0  0
  193.2480  177.5060  140.1140 C   0  0  0  0  0  3  0  0  0  0  0  0
  193.7080  175.0670  136.7490 N   0  0  0  0  0  1  0  0  0  0  0  0
  189.9170  175.8190  138.3710 N   0  0  0  0  0  0  0  0  0  0  0  0
  191.0050  176.3730  138.9760 C   0  0  0  0  0  0  0  0  0  0  0  0
  192.2900  176.1390  138.4440 C   0  0  0  0  0  0  0  0  0  0  0  0
  190.8890  177.2000  140.1170 C   0  0  0  0  0  0  0  0  0  0  0  0
  1 10  1  0  0  0  0
  1  3  1  0  0  0  0
  2  4  1  0  0  0  0
  3  2  2  0  0  0  0
  4  6  1  0  0  0  0
  6  7  1  0  0  0  0
  6  5  1  1  0  0  0
  7  9  1  0  0  0  0
  8  7  2  0  0  0  0
 10 11  2  0  0  0  0
 11 12  1  0  0  0  0
 13 14  1  1  0  0  0
 15 12  1  6  0  0  0
 15 14  1  0  0  0  0
 15 16  1  0  0  0  0
 15 13  1  0  0  0  0
 16 13  1  0  0  0  0
 17  1  1  0  0  0  0
 18 17  2  0  0  0  0
 19 28  1  0  0  0  0
 20 24  1  0  0  0  0
 21 26  2  0  0  0  0
 22 21  1  0  0  0  0
 22 19  2  0  0  0  0
 24 23  2  0  0  0  0
 25 19  1  0  0  0  0
 26 27  1  0  0  0  0
 27 29  2  0  0  0  0
 28 27  1  0  0  0  0
 28 20  2  0  0  0  0
 29 23  1  0  0  0  0
 29 17  1  0  0  0  0
M  END
>  <MODEL>
9

>  <REMARK>
 VINA RESULT:      -6.9      3.430      7.031
  Name = 
  9 active torsions:
  status: ('A' for Active; 'I' for Inactive)
    1  A    between atoms: C_1  and  N_17
    2  A    between atoms: N_2  and  C_9
    3  A    between atoms: N_2  and  C_24
    4  A    between atoms: N_2  and  C_28
    5  A    between atoms: C_4  and  C_25
    6  A    between atoms: C_10  and  C_12
    7  A    between atoms: C_10  and  C_23
    8  A    between atoms: N_17  and  C_25
    9  A    between atoms: C_24  and  C_26
                            x       y       z     vdW  Elec       q    Type
                         _______ _______ _______ _____ _____    ______ ____

>  <TORSDO>
F 9

$$$$
