=
 OpenBabel11032419273D

 36 40  0  0  0  0  0  0  0  0999 V2000
  187.9020  178.2970  139.5560 N   0  0  0  0  0  0  0  0  0  0  0  0
  190.2470  176.3280  137.4000 C   0  0  0  0  0  3  0  0  0  0  0  0
  186.7800  178.3630  138.9050 C   0  0  0  0  0  0  0  0  0  0  0  0
  186.6570  177.8090  137.5280 C   0  0  0  0  0  0  0  0  0  0  0  0
  190.1240  177.3220  140.0200 C   0  0  0  0  0  0  0  0  0  0  0  0
  184.2390  177.8570  137.7750 C   0  0  0  0  0  0  0  0  0  0  0  0
  189.1990  177.1720  137.7690 C   0  0  0  0  0  0  0  0  0  0  0  0
  184.3390  178.4890  138.9960 C   0  0  0  0  0  0  0  0  0  0  0  0
  182.8110  178.7660  139.6250 S   0  0  0  0  0  0  0  0  0  0  0  0
  188.0990  177.7520  136.4800 S   0  0  0  0  0  0  0  0  0  0  0  0
  191.2230  175.9590  138.3240 C   0  0  0  0  0  0  0  0  0  0  0  0
  180.6040  177.9420  138.0900 C   0  0  0  0  0  1  0  0  0  0  0  0
  182.0740  178.0630  138.2710 C   0  0  0  0  0  0  0  0  0  0  0  0
  185.4500  177.5580  136.9960 C   0  0  0  0  0  3  0  0  0  0  0  0
  189.1030  177.6540  139.0930 C   0  0  0  0  0  0  0  0  0  0  0  0
  191.1620  176.4730  139.6230 C   0  0  0  0  0  3  0  0  0  0  0  0
  185.5970  178.7920  139.5970 N   0  0  0  0  0  2  0  0  0  0  0  0
  182.9710  177.6230  137.3540 N   0  0  0  0  0  0  0  0  0  0  0  0
  192.2780  175.0840  137.9020 N   0  0  0  0  0  2  0  0  0  0  0  0
  193.9490  176.6760  137.4670 O   0  0  0  0  0  0  0  0  0  0  0  0
  193.5960  175.4680  137.4890 C   0  0  0  0  0  0  0  0  0  0  0  0
  194.5550  174.4170  137.0490 C   0  0  0  0  0  2  0  0  0  0  0  0
  195.4170  173.3910  139.0190 O   0  0  0  0  0  1  0  0  0  0  0  0
  196.7810  174.9520  138.0400 O   0  0  0  0  0  0  0  0  0  0  0  0
  195.6060  174.2130  138.0850 C   0  0  0  0  0  0  0  0  0  0  0  0
  190.1480  177.7770  141.3470 O   0  0  0  0  0  0  0  0  0  0  0  0
  190.3890  176.9520  142.4780 C   0  0  0  0  0  2  0  0  0  0  0  0
  189.7150  177.5710  144.8040 C   0  0  0  0  0  3  0  0  0  0  0  0
  187.9950  177.0130  143.1920 C   0  0  0  0  0  3  0  0  0  0  0  0
  187.0130  177.2190  144.1670 C   0  0  0  0  0  3  0  0  0  0  0  0
  187.3810  177.6080  145.4600 C   0  0  0  0  0  0  0  0  0  0  0  0
  188.7340  177.7770  145.7790 C   0  0  0  0  0  3  0  0  0  0  0  0
  189.3440  177.1980  143.5080 C   0  0  0  0  0  0  0  0  0  0  0  0
  186.3380  177.8110  146.5030 C   0  0  0  0  0  2  0  0  0  0  0  0
  185.6010  179.1130  146.2600 C   0  0  0  0  0  2  0  0  0  0  0  0
  184.1820  178.8460  146.1140 N   0  0  0  0  0  1  0  0  0  0  0  0
  2  7  2  0  0  0  0
  2 11  1  0  0  0  0
  3  1  2  0  0  0  0
  3 17  1  0  0  0  0
  4  3  1  0  0  0  0
  5 26  1  0  0  0  0
  6  8  2  0  0  0  0
  7 15  1  0  0  0  0
  8 17  1  0  0  0  0
  8  9  1  0  0  0  0
 10  4  1  0  0  0  0
 10  7  1  0  0  0  0
 11 16  2  0  0  0  0
 12 13  1  0  0  0  0
 13  9  1  0  0  0  0
 14  4  2  0  0  0  0
 14  6  1  0  0  0  0
 15  1  1  0  0  0  0
 15  5  2  0  0  0  0
 16  5  1  0  0  0  0
 18  6  1  0  0  0  0
 18 13  2  0  0  0  0
 19 11  1  0  0  0  0
 20 21  2  0  0  0  0
 21 19  1  0  0  0  0
 22 21  1  0  0  0  0
 22 25  1  0  0  0  0
 24 25  2  0  0  0  0
 25 23  1  0  0  0  0
 26 27  1  0  0  0  0
 27 33  1  0  0  0  0
 28 32  1  0  0  0  0
 29 33  1  0  0  0  0
 29 30  2  0  0  0  0
 30 31  1  0  0  0  0
 31 32  2  0  0  0  0
 31 34  1  0  0  0  0
 33 28  2  0  0  0  0
 35 34  1  0  0  0  0
 36 35  1  0  0  0  0
M  END
>  <MODEL>
1

>  <REMARK>
 VINA RESULT:      -9.0      0.000      0.000
  Name = 
  8 active torsions:
  status: ('A' for Active; 'I' for Inactive)
    1  A    between atoms: C_7  and  O_22
    2  A    between atoms: N_13  and  C_14
    3  A    between atoms: C_16  and  C_31
    4  A    between atoms: C_19  and  C_31
    5  A    between atoms: O_22  and  C_34
    6  A    between atoms: C_23  and  C_36
    7  A    between atoms: C_29  and  C_36
    8  A    between atoms: C_33  and  C_34
                            x       y       z     vdW  Elec       q    Type
                         _______ _______ _______ _____ _____    ______ ____

>  <TORSDO>
F 8

$$$$
=
 OpenBabel11032419273D

 36 40  0  0  0  0  0  0  0  0999 V2000
  187.4370  178.2000  139.0660 N   0  0  0  0  0  0  0  0  0  0  0  0
  190.1580  176.3350  137.2940 C   0  0  0  0  0  3  0  0  0  0  0  0
  186.4100  178.1860  138.2700 C   0  0  0  0  0  0  0  0  0  0  0  0
  186.5050  177.6020  136.9040 C   0  0  0  0  0  0  0  0  0  0  0  0
  189.6280  177.3660  139.8470 C   0  0  0  0  0  0  0  0  0  0  0  0
  184.0770  177.5110  136.8250 C   0  0  0  0  0  0  0  0  0  0  0  0
  189.0230  177.1210  137.4970 C   0  0  0  0  0  0  0  0  0  0  0  0
  183.9760  178.1690  138.0320 C   0  0  0  0  0  0  0  0  0  0  0  0
  182.3640  178.3660  138.4450 S   0  0  0  0  0  0  0  0  0  0  0  0
  188.0750  177.6120  136.0590 S   0  0  0  0  0  0  0  0  0  0  0  0
  191.0190  176.0400  138.3480 C   0  0  0  0  0  0  0  0  0  0  0  0
  180.4340  177.3850  136.6510 C   0  0  0  0  0  1  0  0  0  0  0  0
  181.8570  177.5960  137.0230 C   0  0  0  0  0  0  0  0  0  0  0  0
  185.3970  177.2700  136.2220 C   0  0  0  0  0  3  0  0  0  0  0  0
  188.7240  177.6210  138.7840 C   0  0  0  0  0  0  0  0  0  0  0  0
  190.7550  176.5730  139.6140 C   0  0  0  0  0  3  0  0  0  0  0  0
  185.1230  178.5570  138.7870 N   0  0  0  0  0  2  0  0  0  0  0  0
  182.8930  177.1940  136.2450 N   0  0  0  0  0  0  0  0  0  0  0  0
  192.1690  175.2220  138.0930 N   0  0  0  0  0  2  0  0  0  0  0  0
  193.7170  176.8970  137.5300 O   0  0  0  0  0  0  0  0  0  0  0  0
  193.4710  175.6730  137.6940 C   0  0  0  0  0  0  0  0  0  0  0  0
  194.5420  174.6700  137.4400 C   0  0  0  0  0  2  0  0  0  0  0  0
  195.7150  175.1460  139.4570 O   0  0  0  0  0  1  0  0  0  0  0  0
  195.2410  172.9340  139.0880 O   0  0  0  0  0  0  0  0  0  0  0  0
  195.1890  174.2720  138.7210 C   0  0  0  0  0  0  0  0  0  0  0  0
  189.4470  177.8450  141.1530 O   0  0  0  0  0  0  0  0  0  0  0  0
  188.5260  177.3060  142.0910 C   0  0  0  0  0  2  0  0  0  0  0  0
  188.4420  177.3140  144.5890 C   0  0  0  0  0  3  0  0  0  0  0  0
  190.5620  176.9140  143.4870 C   0  0  0  0  0  3  0  0  0  0  0  0
  191.1890  176.8030  144.7320 C   0  0  0  0  0  3  0  0  0  0  0  0
  190.4420  176.9410  145.9070 C   0  0  0  0  0  0  0  0  0  0  0  0
  189.0690  177.2040  145.8340 C   0  0  0  0  0  3  0  0  0  0  0  0
  189.1880  177.1610  143.4150 C   0  0  0  0  0  0  0  0  0  0  0  0
  191.1120  176.8410  147.2330 C   0  0  0  0  0  2  0  0  0  0  0  0
  192.1880  175.7730  147.1960 C   0  0  0  0  0  2  0  0  0  0  0  0
  193.0240  175.8880  148.3750 N   0  0  0  0  0  1  0  0  0  0  0  0
  2  7  2  0  0  0  0
  2 11  1  0  0  0  0
  3 17  1  0  0  0  0
  3  1  2  0  0  0  0
  4  3  1  0  0  0  0
  5 26  1  0  0  0  0
  6  8  2  0  0  0  0
  7 15  1  0  0  0  0
  8  9  1  0  0  0  0
  8 17  1  0  0  0  0
 10  4  1  0  0  0  0
 10  7  1  0  0  0  0
 11 16  2  0  0  0  0
 12 13  1  0  0  0  0
 13  9  1  0  0  0  0
 14  6  1  0  0  0  0
 14  4  2  0  0  0  0
 15  1  1  0  0  0  0
 15  5  2  0  0  0  0
 16  5  1  0  0  0  0
 18  6  1  0  0  0  0
 18 13  2  0  0  0  0
 19 11  1  0  0  0  0
 20 21  2  0  0  0  0
 21 19  1  0  0  0  0
 22 21  1  0  0  0  0
 22 25  1  0  0  0  0
 25 24  2  0  0  0  0
 25 23  1  0  0  0  0
 26 27  1  0  0  0  0
 27 33  1  0  0  0  0
 28 32  1  0  0  0  0
 29 30  2  0  0  0  0
 30 31  1  0  0  0  0
 31 34  1  0  0  0  0
 32 31  2  0  0  0  0
 33 29  1  0  0  0  0
 33 28  2  0  0  0  0
 35 34  1  0  0  0  0
 35 36  1  0  0  0  0
M  END
>  <MODEL>
2

>  <REMARK>
 VINA RESULT:      -8.7      1.994      2.575
  Name = 
  8 active torsions:
  status: ('A' for Active; 'I' for Inactive)
    1  A    between atoms: C_7  and  O_22
    2  A    between atoms: N_13  and  C_14
    3  A    between atoms: C_16  and  C_31
    4  A    between atoms: C_19  and  C_31
    5  A    between atoms: O_22  and  C_34
    6  A    between atoms: C_23  and  C_36
    7  A    between atoms: C_29  and  C_36
    8  A    between atoms: C_33  and  C_34
                            x       y       z     vdW  Elec       q    Type
                         _______ _______ _______ _____ _____    ______ ____

>  <TORSDO>
F 8

$$$$
=
 OpenBabel11032419273D

 36 40  0  0  0  0  0  0  0  0999 V2000
  187.3970  178.5660  140.7280 N   0  0  0  0  0  0  0  0  0  0  0  0
  187.8300  176.9500  137.3770 C   0  0  0  0  0  3  0  0  0  0  0  0
  186.1240  178.7910  140.8600 C   0  0  0  0  0  0  0  0  0  0  0  0
  185.1740  178.5060  139.7490 C   0  0  0  0  0  0  0  0  0  0  0  0
  189.3380  177.4450  139.6900 C   0  0  0  0  0  0  0  0  0  0  0  0
  183.3480  178.5930  141.3510 C   0  0  0  0  0  0  0  0  0  0  0  0
  187.2960  177.7470  138.3910 C   0  0  0  0  0  0  0  0  0  0  0  0
  184.2010  178.9830  142.3590 C   0  0  0  0  0  0  0  0  0  0  0  0
  183.3470  179.1920  143.7850 S   0  0  0  0  0  0  0  0  0  0  0  0
  185.7530  178.5940  138.0640 S   0  0  0  0  0  0  0  0  0  0  0  0
  189.0950  176.3820  137.5100 C   0  0  0  0  0  0  0  0  0  0  0  0
  180.5720  178.7450  143.7150 C   0  0  0  0  0  1  0  0  0  0  0  0
  181.8890  178.7780  143.0270 C   0  0  0  0  0  0  0  0  0  0  0  0
  183.8560  178.4010  139.9840 C   0  0  0  0  0  3  0  0  0  0  0  0
  188.0290  177.9780  139.5770 C   0  0  0  0  0  0  0  0  0  0  0  0
  189.8460  176.6480  138.6590 C   0  0  0  0  0  3  0  0  0  0  0  0
  185.6070  179.1250  142.1580 N   0  0  0  0  0  2  0  0  0  0  0  0
  182.0450  178.4850  141.7130 N   0  0  0  0  0  0  0  0  0  0  0  0
  189.6000  175.5640  136.4450 N   0  0  0  0  0  2  0  0  0  0  0  0
  189.5160  173.4660  137.4970 O   0  0  0  0  0  0  0  0  0  0  0  0
  189.7930  174.1440  136.4730 C   0  0  0  0  0  0  0  0  0  0  0  0
  190.3620  173.4630  135.2770 C   0  0  0  0  0  2  0  0  0  0  0  0
  192.2240  172.0110  135.5890 O   0  0  0  0  0  1  0  0  0  0  0  0
  192.7090  174.2520  135.5760 O   0  0  0  0  0  0  0  0  0  0  0  0
  191.8130  173.1950  135.4780 C   0  0  0  0  0  0  0  0  0  0  0  0
  190.1660  177.6440  140.8050 O   0  0  0  0  0  0  0  0  0  0  0  0
  190.4260  176.6660  141.8020 C   0  0  0  0  0  2  0  0  0  0  0  0
  190.2480  177.7500  144.0470 C   0  0  0  0  0  3  0  0  0  0  0  0
  188.3580  176.4970  143.1950 C   0  0  0  0  0  3  0  0  0  0  0  0
  187.6430  176.7790  144.3630 C   0  0  0  0  0  3  0  0  0  0  0  0
  188.2270  177.5530  145.3720 C   0  0  0  0  0  0  0  0  0  0  0  0
  189.5330  178.0330  145.2150 C   0  0  0  0  0  3  0  0  0  0  0  0
  189.6560  176.9890  143.0330 C   0  0  0  0  0  0  0  0  0  0  0  0
  187.4740  177.8390  146.6240 C   0  0  0  0  0  2  0  0  0  0  0  0
  185.9990  178.0160  146.3180 C   0  0  0  0  0  2  0  0  0  0  0  0
  185.5620  179.3210  146.7750 N   0  0  0  0  0  1  0  0  0  0  0  0
  1  3  2  0  0  0  0
  2 11  2  0  0  0  0
  2  7  1  0  0  0  0
  3 17  1  0  0  0  0
  4 14  2  0  0  0  0
  4  3  1  0  0  0  0
  5 26  1  0  0  0  0
  6 18  1  0  0  0  0
  6  8  2  0  0  0  0
  7 15  2  0  0  0  0
  8  9  1  0  0  0  0
 10  7  1  0  0  0  0
 10  4  1  0  0  0  0
 11 16  1  0  0  0  0
 13 12  1  0  0  0  0
 13  9  1  0  0  0  0
 14  6  1  0  0  0  0
 15  5  1  0  0  0  0
 15  1  1  0  0  0  0
 16  5  2  0  0  0  0
 17  8  1  0  0  0  0
 18 13  2  0  0  0  0
 19 21  1  0  0  0  0
 19 11  1  0  0  0  0
 21 20  2  0  0  0  0
 22 25  1  0  0  0  0
 22 21  1  0  0  0  0
 25 24  2  0  0  0  0
 25 23  1  0  0  0  0
 26 27  1  0  0  0  0
 27 33  1  0  0  0  0
 28 32  1  0  0  0  0
 29 30  2  0  0  0  0
 30 31  1  0  0  0  0
 31 34  1  0  0  0  0
 32 31  2  0  0  0  0
 33 29  1  0  0  0  0
 33 28  2  0  0  0  0
 35 34  1  0  0  0  0
 35 36  1  0  0  0  0
M  END
>  <MODEL>
3

>  <REMARK>
 VINA RESULT:      -8.7      2.640      3.071
  Name = 
  8 active torsions:
  status: ('A' for Active; 'I' for Inactive)
    1  A    between atoms: C_7  and  O_22
    2  A    between atoms: N_13  and  C_14
    3  A    between atoms: C_16  and  C_31
    4  A    between atoms: C_19  and  C_31
    5  A    between atoms: O_22  and  C_34
    6  A    between atoms: C_23  and  C_36
    7  A    between atoms: C_29  and  C_36
    8  A    between atoms: C_33  and  C_34
                            x       y       z     vdW  Elec       q    Type
                         _______ _______ _______ _____ _____    ______ ____

>  <TORSDO>
F 8

$$$$
=
 OpenBabel11032419273D

 36 40  0  0  0  0  0  0  0  0999 V2000
  184.2290  178.5220  139.2550 N   0  0  0  0  0  0  0  0  0  0  0  0
  187.9270  177.9280  139.2200 C   0  0  0  0  0  3  0  0  0  0  0  0
  183.7580  177.9310  138.1980 C   0  0  0  0  0  0  0  0  0  0  0  0
  184.6650  177.2880  137.2070 C   0  0  0  0  0  0  0  0  0  0  0  0
  185.9660  178.9120  140.9680 C   0  0  0  0  0  0  0  0  0  0  0  0
  182.7570  176.0690  136.3230 C   0  0  0  0  0  0  0  0  0  0  0  0
  186.6230  178.1150  138.7580 C   0  0  0  0  0  0  0  0  0  0  0  0
  181.8900  176.7530  137.1470 C   0  0  0  0  0  0  0  0  0  0  0  0
  180.3200  176.2290  136.8890 S   0  0  0  0  0  0  0  0  0  0  0  0
  186.3200  177.9190  137.0040 S   0  0  0  0  0  0  0  0  0  0  0  0
  188.2610  178.2060  140.5430 C   0  0  0  0  0  0  0  0  0  0  0  0
  179.9160  174.2410  134.9410 C   0  0  0  0  0  1  0  0  0  0  0  0
  180.8300  175.1360  135.6990 C   0  0  0  0  0  0  0  0  0  0  0  0
  184.1910  176.3950  136.3240 C   0  0  0  0  0  3  0  0  0  0  0  0
  185.6160  178.5780  139.6350 C   0  0  0  0  0  0  0  0  0  0  0  0
  187.2800  178.7120  141.4020 C   0  0  0  0  0  3  0  0  0  0  0  0
  182.3400  177.7230  138.0910 N   0  0  0  0  0  2  0  0  0  0  0  0
  182.1700  175.1670  135.4980 N   0  0  0  0  0  0  0  0  0  0  0  0
  189.6120  177.9920  140.9740 N   0  0  0  0  0  2  0  0  0  0  0  0
  189.2440  176.3160  142.5780 O   0  0  0  0  0  0  0  0  0  0  0  0
  190.0570  177.0620  141.9710 C   0  0  0  0  0  0  0  0  0  0  0  0
  191.5040  177.0000  142.3130 C   0  0  0  0  0  2  0  0  0  0  0  0
  191.5690  177.5080  144.6400 O   0  0  0  0  0  1  0  0  0  0  0  0
  191.9950  175.3230  144.0930 O   0  0  0  0  0  0  0  0  0  0  0  0
  191.6790  176.6300  143.7450 C   0  0  0  0  0  0  0  0  0  0  0  0
  185.0550  179.4150  141.9090 O   0  0  0  0  0  0  0  0  0  0  0  0
  184.3260  178.6180  142.8320 C   0  0  0  0  0  2  0  0  0  0  0  0
  184.7640  179.1110  145.2430 C   0  0  0  0  0  3  0  0  0  0  0  0
  186.2600  177.6180  144.0590 C   0  0  0  0  0  3  0  0  0  0  0  0
  187.0260  177.4640  145.2180 C   0  0  0  0  0  3  0  0  0  0  0  0
  186.6570  178.1280  146.3940 C   0  0  0  0  0  0  0  0  0  0  0  0
  185.5290  178.9570  146.4030 C   0  0  0  0  0  3  0  0  0  0  0  0
  185.1240  178.4340  144.0730 C   0  0  0  0  0  0  0  0  0  0  0  0
  187.4820  177.9790  147.6250 C   0  0  0  0  0  2  0  0  0  0  0  0
  188.9510  177.8860  147.2620 C   0  0  0  0  0  2  0  0  0  0  0  0
  189.4280  176.5390  147.5120 N   0  0  0  0  0  1  0  0  0  0  0  0
  1 15  1  0  0  0  0
  2 11  1  0  0  0  0
  3  1  2  0  0  0  0
  4  3  1  0  0  0  0
  5 16  1  0  0  0  0
  5 26  1  0  0  0  0
  6 14  1  0  0  0  0
  6  8  2  0  0  0  0
  7  2  2  0  0  0  0
  7 15  1  0  0  0  0
  8 17  1  0  0  0  0
  9  8  1  0  0  0  0
 10  4  1  0  0  0  0
 10  7  1  0  0  0  0
 11 19  1  0  0  0  0
 11 16  2  0  0  0  0
 12 13  1  0  0  0  0
 13  9  1  0  0  0  0
 14  4  2  0  0  0  0
 15  5  2  0  0  0  0
 17  3  1  0  0  0  0
 18 13  2  0  0  0  0
 18  6  1  0  0  0  0
 19 21  1  0  0  0  0
 21 22  1  0  0  0  0
 21 20  2  0  0  0  0
 22 25  1  0  0  0  0
 25 24  2  0  0  0  0
 25 23  1  0  0  0  0
 26 27  1  0  0  0  0
 27 33  1  0  0  0  0
 28 32  1  0  0  0  0
 29 33  1  0  0  0  0
 29 30  2  0  0  0  0
 30 31  1  0  0  0  0
 31 32  2  0  0  0  0
 31 34  1  0  0  0  0
 33 28  2  0  0  0  0
 35 36  1  0  0  0  0
 35 34  1  0  0  0  0
M  END
>  <MODEL>
4

>  <REMARK>
 VINA RESULT:      -8.1      3.465      4.563
  Name = 
  8 active torsions:
  status: ('A' for Active; 'I' for Inactive)
    1  A    between atoms: C_7  and  O_22
    2  A    between atoms: N_13  and  C_14
    3  A    between atoms: C_16  and  C_31
    4  A    between atoms: C_19  and  C_31
    5  A    between atoms: O_22  and  C_34
    6  A    between atoms: C_23  and  C_36
    7  A    between atoms: C_29  and  C_36
    8  A    between atoms: C_33  and  C_34
                            x       y       z     vdW  Elec       q    Type
                         _______ _______ _______ _____ _____    ______ ____

>  <TORSDO>
F 8

$$$$
=
 OpenBabel11032419273D

 36 40  0  0  0  0  0  0  0  0999 V2000
  188.5790  178.2400  141.8470 N   0  0  0  0  0  0  0  0  0  0  0  0
  191.5600  176.6500  143.4620 C   0  0  0  0  0  3  0  0  0  0  0  0
  188.6950  178.0160  140.5730 C   0  0  0  0  0  0  0  0  0  0  0  0
  189.9020  177.3440  140.0170 C   0  0  0  0  0  0  0  0  0  0  0  0
  189.1140  177.7960  144.2180 C   0  0  0  0  0  0  0  0  0  0  0  0
  188.6570  176.8990  137.9770 C   0  0  0  0  0  0  0  0  0  0  0  0
  190.7670  177.2800  142.5010 C   0  0  0  0  0  0  0  0  0  0  0  0
  187.5810  177.6300  138.4300 C   0  0  0  0  0  0  0  0  0  0  0  0
  186.3610  177.6270  137.2810 S   0  0  0  0  0  0  0  0  0  0  0  0
  191.4610  177.5120  140.8660 S   0  0  0  0  0  0  0  0  0  0  0  0
  191.1410  176.5680  144.7890 C   0  0  0  0  0  0  0  0  0  0  0  0
  186.8380  176.2380  134.8830 C   0  0  0  0  0  1  0  0  0  0  0  0
  187.2910  176.6800  136.2280 C   0  0  0  0  0  0  0  0  0  0  0  0
  189.8810  176.8040  138.7880 C   0  0  0  0  0  3  0  0  0  0  0  0
  189.5170  177.8320  142.8590 C   0  0  0  0  0  0  0  0  0  0  0  0
  189.9280  177.1570  145.1580 C   0  0  0  0  0  3  0  0  0  0  0  0
  187.5600  178.2380  139.7200 N   0  0  0  0  0  2  0  0  0  0  0  0
  188.5090  176.3710  136.7370 N   0  0  0  0  0  0  0  0  0  0  0  0
  191.9850  175.9060  145.7400 N   0  0  0  0  0  2  0  0  0  0  0  0
  191.1020  176.7960  147.7250 O   0  0  0  0  0  0  0  0  0  0  0  0
  191.9400  176.0410  147.1660 C   0  0  0  0  0  0  0  0  0  0  0  0
  192.9240  175.2950  147.9990 C   0  0  0  0  0  2  0  0  0  0  0  0
  193.2000  175.3960  150.3630 O   0  0  0  0  0  1  0  0  0  0  0  0
  193.3550  177.4020  149.2640 O   0  0  0  0  0  0  0  0  0  0  0  0
  193.1770  176.0240  149.2730 C   0  0  0  0  0  0  0  0  0  0  0  0
  187.9120  178.3470  144.6880 O   0  0  0  0  0  0  0  0  0  0  0  0
  186.8530  177.5970  145.2670 C   0  0  0  0  0  2  0  0  0  0  0  0
  184.5880  178.5750  145.6700 C   0  0  0  0  0  3  0  0  0  0  0  0
  185.2640  178.0770  143.3980 C   0  0  0  0  0  3  0  0  0  0  0  0
  184.0280  178.5320  142.9290 C   0  0  0  0  0  3  0  0  0  0  0  0
  183.0720  179.0160  143.8300 C   0  0  0  0  0  0  0  0  0  0  0  0
  183.3520  179.0300  145.2020 C   0  0  0  0  0  3  0  0  0  0  0  0
  185.5480  178.1070  144.7670 C   0  0  0  0  0  0  0  0  0  0  0  0
  181.7490  179.4840  143.3340 C   0  0  0  0  0  2  0  0  0  0  0  0
  180.6370  178.6610  143.9550 C   0  0  0  0  0  2  0  0  0  0  0  0
  180.0650  177.7840  142.9500 N   0  0  0  0  0  1  0  0  0  0  0  0
  1 15  1  0  0  0  0
  2 11  1  0  0  0  0
  3  1  2  0  0  0  0
  4  3  1  0  0  0  0
  4 10  1  0  0  0  0
  5 26  1  0  0  0  0
  5 16  1  0  0  0  0
  6  8  2  0  0  0  0
  6 14  1  0  0  0  0
  7 15  1  0  0  0  0
  7  2  2  0  0  0  0
  8 17  1  0  0  0  0
  9  8  1  0  0  0  0
 10  7  1  0  0  0  0
 11 16  2  0  0  0  0
 11 19  1  0  0  0  0
 12 13  1  0  0  0  0
 13 18  2  0  0  0  0
 13  9  1  0  0  0  0
 14  4  2  0  0  0  0
 15  5  2  0  0  0  0
 17  3  1  0  0  0  0
 18  6  1  0  0  0  0
 19 21  1  0  0  0  0
 21 20  2  0  0  0  0
 21 22  1  0  0  0  0
 22 25  1  0  0  0  0
 24 25  2  0  0  0  0
 25 23  1  0  0  0  0
 26 27  1  0  0  0  0
 29 33  1  0  0  0  0
 30 29  2  0  0  0  0
 30 31  1  0  0  0  0
 31 32  2  0  0  0  0
 32 28  1  0  0  0  0
 33 27  1  0  0  0  0
 33 28  2  0  0  0  0
 34 31  1  0  0  0  0
 34 35  1  0  0  0  0
 36 35  1  0  0  0  0
M  END
>  <MODEL>
5

>  <REMARK>
 VINA RESULT:      -7.9      4.216      6.430
  Name = 
  8 active torsions:
  status: ('A' for Active; 'I' for Inactive)
    1  A    between atoms: C_7  and  O_22
    2  A    between atoms: N_13  and  C_14
    3  A    between atoms: C_16  and  C_31
    4  A    between atoms: C_19  and  C_31
    5  A    between atoms: O_22  and  C_34
    6  A    between atoms: C_23  and  C_36
    7  A    between atoms: C_29  and  C_36
    8  A    between atoms: C_33  and  C_34
                            x       y       z     vdW  Elec       q    Type
                         _______ _______ _______ _____ _____    ______ ____

>  <TORSDO>
F 8

$$$$
=
 OpenBabel11032419273D

 36 40  0  0  0  0  0  0  0  0999 V2000
  186.8900  178.8050  140.9620 N   0  0  0  0  0  0  0  0  0  0  0  0
  187.2760  177.2910  137.5590 C   0  0  0  0  0  3  0  0  0  0  0  0
  185.6140  178.9710  141.1420 C   0  0  0  0  0  0  0  0  0  0  0  0
  184.6390  178.6730  140.0560 C   0  0  0  0  0  0  0  0  0  0  0  0
  188.8400  177.7940  139.8320 C   0  0  0  0  0  0  0  0  0  0  0  0
  182.8670  178.6410  141.7200 C   0  0  0  0  0  0  0  0  0  0  0  0
  186.7440  178.0390  138.6100 C   0  0  0  0  0  0  0  0  0  0  0  0
  183.7380  179.0440  142.7090 C   0  0  0  0  0  0  0  0  0  0  0  0
  182.9240  179.1810  144.1680 S   0  0  0  0  0  0  0  0  0  0  0  0
  185.1550  178.8260  138.3560 S   0  0  0  0  0  0  0  0  0  0  0  0
  188.5680  176.7750  137.6340 C   0  0  0  0  0  0  0  0  0  0  0  0
  180.1700  178.6160  144.1780 C   0  0  0  0  0  1  0  0  0  0  0  0
  181.4600  178.7230  143.4490 C   0  0  0  0  0  0  0  0  0  0  0  0
  183.3360  178.5050  140.3320 C   0  0  0  0  0  3  0  0  0  0  0  0
  187.5060  178.2730  139.7760 C   0  0  0  0  0  0  0  0  0  0  0  0
  189.3450  177.0460  138.7650 C   0  0  0  0  0  3  0  0  0  0  0  0
  185.1280  179.2520  142.4640 N   0  0  0  0  0  2  0  0  0  0  0  0
  181.5840  178.4690  142.1220 N   0  0  0  0  0  0  0  0  0  0  0  0
  189.0700  176.0060  136.5330 N   0  0  0  0  0  2  0  0  0  0  0  0
  187.9250  173.9910  136.9160 O   0  0  0  0  0  0  0  0  0  0  0  0
  188.7360  174.6490  136.2120 C   0  0  0  0  0  0  0  0  0  0  0  0
  189.3840  173.9970  135.0410 C   0  0  0  0  0  2  0  0  0  0  0  0
  190.4110  171.8490  134.9770 O   0  0  0  0  0  0  0  0  0  0  0  0
  191.2680  173.3090  136.5240 O   0  0  0  0  0  1  0  0  0  0  0  0
  190.3850  172.9940  135.4980 C   0  0  0  0  0  0  0  0  0  0  0  0
  189.6970  178.0030  140.9230 O   0  0  0  0  0  0  0  0  0  0  0  0
  190.7620  177.1370  141.2890 C   0  0  0  0  0  2  0  0  0  0  0  0
  191.5440  176.0080  143.3770 C   0  0  0  0  0  3  0  0  0  0  0  0
  190.2480  178.0460  143.5600 C   0  0  0  0  0  3  0  0  0  0  0  0
  190.3230  177.9700  144.9540 C   0  0  0  0  0  3  0  0  0  0  0  0
  191.0150  176.9160  145.5620 C   0  0  0  0  0  0  0  0  0  0  0  0
  191.6200  175.9310  144.7710 C   0  0  0  0  0  3  0  0  0  0  0  0
  190.8660  177.0710  142.7710 C   0  0  0  0  0  0  0  0  0  0  0  0
  191.0800  176.8240  147.0460 C   0  0  0  0  0  2  0  0  0  0  0  0
  192.0850  175.7670  147.4620 C   0  0  0  0  0  2  0  0  0  0  0  0
  192.9100  176.2800  148.5390 N   0  0  0  0  0  1  0  0  0  0  0  0
  1  3  2  0  0  0  0
  2 11  2  0  0  0  0
  2  7  1  0  0  0  0
  3 17  1  0  0  0  0
  4 14  2  0  0  0  0
  4  3  1  0  0  0  0
  5 26  1  0  0  0  0
  6 18  1  0  0  0  0
  6  8  2  0  0  0  0
  7 15  2  0  0  0  0
  8  9  1  0  0  0  0
 10  7  1  0  0  0  0
 10  4  1  0  0  0  0
 11 16  1  0  0  0  0
 13  9  1  0  0  0  0
 13 12  1  0  0  0  0
 14  6  1  0  0  0  0
 15  5  1  0  0  0  0
 15  1  1  0  0  0  0
 16  5  2  0  0  0  0
 17  8  1  0  0  0  0
 18 13  2  0  0  0  0
 19 11  1  0  0  0  0
 21 19  1  0  0  0  0
 21 20  2  0  0  0  0
 22 25  1  0  0  0  0
 22 21  1  0  0  0  0
 23 25  2  0  0  0  0
 25 24  1  0  0  0  0
 26 27  1  0  0  0  0
 27 33  1  0  0  0  0
 28 32  1  0  0  0  0
 29 30  2  0  0  0  0
 30 31  1  0  0  0  0
 31 34  1  0  0  0  0
 32 31  2  0  0  0  0
 33 28  2  0  0  0  0
 33 29  1  0  0  0  0
 34 35  1  0  0  0  0
 35 36  1  0  0  0  0
M  END
>  <MODEL>
6

>  <REMARK>
 VINA RESULT:      -7.9      3.476      4.384
  Name = 
  8 active torsions:
  status: ('A' for Active; 'I' for Inactive)
    1  A    between atoms: C_7  and  O_22
    2  A    between atoms: N_13  and  C_14
    3  A    between atoms: C_16  and  C_31
    4  A    between atoms: C_19  and  C_31
    5  A    between atoms: O_22  and  C_34
    6  A    between atoms: C_23  and  C_36
    7  A    between atoms: C_29  and  C_36
    8  A    between atoms: C_33  and  C_34
                            x       y       z     vdW  Elec       q    Type
                         _______ _______ _______ _____ _____    ______ ____

>  <TORSDO>
F 8

$$$$
=
 OpenBabel11032419273D

 36 40  0  0  0  0  0  0  0  0999 V2000
  186.2180  178.2120  138.7210 N   0  0  0  0  0  0  0  0  0  0  0  0
  188.7830  176.8850  136.3370 C   0  0  0  0  0  3  0  0  0  0  0  0
  185.0620  177.8720  138.2350 C   0  0  0  0  0  0  0  0  0  0  0  0
  184.9530  177.1910  136.9150 C   0  0  0  0  0  0  0  0  0  0  0  0
  188.6740  178.0140  138.9020 C   0  0  0  0  0  0  0  0  0  0  0  0
  182.6950  176.5120  137.5050 C   0  0  0  0  0  0  0  0  0  0  0  0
  187.5750  177.3930  136.8160 C   0  0  0  0  0  0  0  0  0  0  0  0
  182.7380  177.2460  138.6710 C   0  0  0  0  0  0  0  0  0  0  0  0
  181.2900  177.0910  139.5000 S   0  0  0  0  0  0  0  0  0  0  0  0
  186.1980  177.4920  135.6750 S   0  0  0  0  0  0  0  0  0  0  0  0
  189.9310  176.9150  137.1260 C   0  0  0  0  0  0  0  0  0  0  0  0
  179.2880  175.4970  138.3350 C   0  0  0  0  0  1  0  0  0  0  0  0
  180.6550  176.0810  138.2980 C   0  0  0  0  0  0  0  0  0  0  0  0
  183.8320  176.5350  136.5730 C   0  0  0  0  0  3  0  0  0  0  0  0
  187.4950  177.9340  138.1180 C   0  0  0  0  0  0  0  0  0  0  0  0
  189.8700  177.4950  138.3970 C   0  0  0  0  0  3  0  0  0  0  0  0
  183.8980  177.9730  139.0710 N   0  0  0  0  0  2  0  0  0  0  0  0
  181.5250  175.8630  137.2810 N   0  0  0  0  0  0  0  0  0  0  0  0
  191.1490  176.3760  136.5950 N   0  0  0  0  0  2  0  0  0  0  0  0
  191.3680  174.4870  137.9740 O   0  0  0  0  0  0  0  0  0  0  0  0
  191.8240  175.1890  137.0320 C   0  0  0  0  0  0  0  0  0  0  0  0
  193.1040  174.7970  136.3800 C   0  0  0  0  0  2  0  0  0  0  0  0
  194.6750  175.4720  138.0380 O   0  0  0  0  0  1  0  0  0  0  0  0
  194.7310  176.6630  136.0790 O   0  0  0  0  0  0  0  0  0  0  0  0
  194.2180  175.6500  136.8790 C   0  0  0  0  0  0  0  0  0  0  0  0
  188.7150  178.5660  140.1920 O   0  0  0  0  0  0  0  0  0  0  0  0
  189.4490  178.0210  141.2790 C   0  0  0  0  0  2  0  0  0  0  0  0
  187.1790  178.0890  142.3240 C   0  0  0  0  0  3  0  0  0  0  0  0
  189.0870  177.5070  143.6980 C   0  0  0  0  0  3  0  0  0  0  0  0
  188.2470  177.3750  144.8090 C   0  0  0  0  0  3  0  0  0  0  0  0
  186.8710  177.5930  144.6760 C   0  0  0  0  0  0  0  0  0  0  0  0
  186.3390  177.9580  143.4340 C   0  0  0  0  0  3  0  0  0  0  0  0
  188.5520  177.8550  142.4540 C   0  0  0  0  0  0  0  0  0  0  0  0
  185.9790  177.4710  145.8620 C   0  0  0  0  0  2  0  0  0  0  0  0
  186.5340  178.2790  147.0190 C   0  0  0  0  0  2  0  0  0  0  0  0
  185.6700  179.4160  147.2730 N   0  0  0  0  0  1  0  0  0  0  0  0
  2  7  2  0  0  0  0
  2 11  1  0  0  0  0
  3  1  2  0  0  0  0
  3 17  1  0  0  0  0
  4  3  1  0  0  0  0
  5 26  1  0  0  0  0
  6  8  2  0  0  0  0
  7 15  1  0  0  0  0
  8 17  1  0  0  0  0
  8  9  1  0  0  0  0
 10  7  1  0  0  0  0
 10  4  1  0  0  0  0
 11 16  2  0  0  0  0
 13 12  1  0  0  0  0
 13  9  1  0  0  0  0
 14  4  2  0  0  0  0
 14  6  1  0  0  0  0
 15  1  1  0  0  0  0
 15  5  2  0  0  0  0
 16  5  1  0  0  0  0
 18  6  1  0  0  0  0
 18 13  2  0  0  0  0
 19 21  1  0  0  0  0
 19 11  1  0  0  0  0
 21 20  2  0  0  0  0
 22 25  1  0  0  0  0
 22 21  1  0  0  0  0
 24 25  2  0  0  0  0
 25 23  1  0  0  0  0
 26 27  1  0  0  0  0
 27 33  1  0  0  0  0
 28 33  2  0  0  0  0
 28 32  1  0  0  0  0
 29 30  2  0  0  0  0
 31 30  1  0  0  0  0
 31 34  1  0  0  0  0
 32 31  2  0  0  0  0
 33 29  1  0  0  0  0
 34 35  1  0  0  0  0
 35 36  1  0  0  0  0
M  END
>  <MODEL>
7

>  <REMARK>
 VINA RESULT:      -7.8      1.607      2.160
  Name = 
  8 active torsions:
  status: ('A' for Active; 'I' for Inactive)
    1  A    between atoms: C_7  and  O_22
    2  A    between atoms: N_13  and  C_14
    3  A    between atoms: C_16  and  C_31
    4  A    between atoms: C_19  and  C_31
    5  A    between atoms: O_22  and  C_34
    6  A    between atoms: C_23  and  C_36
    7  A    between atoms: C_29  and  C_36
    8  A    between atoms: C_33  and  C_34
                            x       y       z     vdW  Elec       q    Type
                         _______ _______ _______ _____ _____    ______ ____

>  <TORSDO>
F 8

$$$$
=
 OpenBabel11032419273D

 36 40  0  0  0  0  0  0  0  0999 V2000
  186.9680  178.8530  141.0480 N   0  0  0  0  0  0  0  0  0  0  0  0
  183.3620  177.8880  141.3480 C   0  0  0  0  0  3  0  0  0  0  0  0
  187.5090  178.5960  142.2020 C   0  0  0  0  0  0  0  0  0  0  0  0
  186.6850  178.1240  143.3490 C   0  0  0  0  0  0  0  0  0  0  0  0
  185.1900  178.6150  139.3500 C   0  0  0  0  0  0  0  0  0  0  0  0
  188.7220  177.3760  144.4430 C   0  0  0  0  0  0  0  0  0  0  0  0
  184.6380  178.3240  141.7070 C   0  0  0  0  0  0  0  0  0  0  0  0
  189.5030  177.9250  143.4490 C   0  0  0  0  0  0  0  0  0  0  0  0
  191.1240  177.6540  143.7760 S   0  0  0  0  0  0  0  0  0  0  0  0
  184.9700  178.6030  143.4450 S   0  0  0  0  0  0  0  0  0  0  0  0
  182.9920  177.7920  140.0090 C   0  0  0  0  0  0  0  0  0  0  0  0
  191.7580  176.2670  146.1380 C   0  0  0  0  0  1  0  0  0  0  0  0
  190.7460  176.8410  145.2140 C   0  0  0  0  0  0  0  0  0  0  0  0
  187.2610  177.5340  144.4090 C   0  0  0  0  0  3  0  0  0  0  0  0
  185.5820  178.6620  140.7120 C   0  0  0  0  0  0  0  0  0  0  0  0
  183.9050  178.1730  139.0210 C   0  0  0  0  0  3  0  0  0  0  0  0
  188.9410  178.5760  142.3110 N   0  0  0  0  0  2  0  0  0  0  0  0
  189.4120  176.7750  145.4450 N   0  0  0  0  0  0  0  0  0  0  0  0
  181.6720  177.3330  139.6880 N   0  0  0  0  0  2  0  0  0  0  0  0
  180.4900  179.3460  139.9420 O   0  0  0  0  0  0  0  0  0  0  0  0
  180.4730  178.1180  139.6660 C   0  0  0  0  0  0  0  0  0  0  0  0
  179.1780  177.4590  139.3390 C   0  0  0  0  0  2  0  0  0  0  0  0
  179.1890  175.0790  139.2580 O   0  0  0  0  0  0  0  0  0  0  0  0
  178.9310  175.9960  141.3440 O   0  0  0  0  0  1  0  0  0  0  0  0
  179.1110  176.1130  139.9710 C   0  0  0  0  0  0  0  0  0  0  0  0
  186.0340  178.9650  138.2850 O   0  0  0  0  0  0  0  0  0  0  0  0
  186.3770  178.1020  137.2100 C   0  0  0  0  0  2  0  0  0  0  0  0
  188.7150  178.1560  138.0920 C   0  0  0  0  0  3  0  0  0  0  0  0
  187.8660  176.0970  137.1390 C   0  0  0  0  0  3  0  0  0  0  0  0
  189.0940  175.4750  137.3870 C   0  0  0  0  0  3  0  0  0  0  0  0
  190.1320  176.1920  137.9950 C   0  0  0  0  0  0  0  0  0  0  0  0
  189.9420  177.5350  138.3410 C   0  0  0  0  0  3  0  0  0  0  0  0
  187.6730  177.4340  137.4990 C   0  0  0  0  0  0  0  0  0  0  0  0
  191.4450  175.5360  138.2430 C   0  0  0  0  0  2  0  0  0  0  0  0
  192.5130  176.1510  137.3600 C   0  0  0  0  0  2  0  0  0  0  0  0
  193.5380  176.7550  138.1900 N   0  0  0  0  0  1  0  0  0  0  0  0
  1  3  2  0  0  0  0
  2  7  1  0  0  0  0
  3 17  1  0  0  0  0
  3  4  1  0  0  0  0
  4 10  1  0  0  0  0
  4 14  2  0  0  0  0
  5 15  1  0  0  0  0
  6 18  1  0  0  0  0
  7 10  1  0  0  0  0
  8  9  1  0  0  0  0
  8  6  2  0  0  0  0
  9 13  1  0  0  0  0
 11  2  2  0  0  0  0
 13 18  2  0  0  0  0
 13 12  1  0  0  0  0
 14  6  1  0  0  0  0
 15  1  1  0  0  0  0
 15  7  2  0  0  0  0
 16  5  2  0  0  0  0
 16 11  1  0  0  0  0
 17  8  1  0  0  0  0
 19 11  1  0  0  0  0
 21 19  1  0  0  0  0
 21 20  2  0  0  0  0
 22 21  1  0  0  0  0
 22 25  1  0  0  0  0
 23 25  2  0  0  0  0
 25 24  1  0  0  0  0
 26  5  1  0  0  0  0
 27 33  1  0  0  0  0
 27 26  1  0  0  0  0
 28 32  1  0  0  0  0
 29 30  2  0  0  0  0
 29 33  1  0  0  0  0
 30 31  1  0  0  0  0
 31 34  1  0  0  0  0
 31 32  2  0  0  0  0
 33 28  2  0  0  0  0
 35 36  1  0  0  0  0
 35 34  1  0  0  0  0
M  END
>  <MODEL>
8

>  <REMARK>
 VINA RESULT:      -7.7      4.051      9.819
  Name = 
  8 active torsions:
  status: ('A' for Active; 'I' for Inactive)
    1  A    between atoms: C_7  and  O_22
    2  A    between atoms: N_13  and  C_14
    3  A    between atoms: C_16  and  C_31
    4  A    between atoms: C_19  and  C_31
    5  A    between atoms: O_22  and  C_34
    6  A    between atoms: C_23  and  C_36
    7  A    between atoms: C_29  and  C_36
    8  A    between atoms: C_33  and  C_34
                            x       y       z     vdW  Elec       q    Type
                         _______ _______ _______ _____ _____    ______ ____

>  <TORSDO>
F 8

$$$$
=
 OpenBabel11032419273D

 36 40  0  0  0  0  0  0  0  0999 V2000
  183.5170  178.4780  140.2760 N   0  0  0  0  0  0  0  0  0  0  0  0
  187.2010  178.1820  139.6660 C   0  0  0  0  0  3  0  0  0  0  0  0
  182.9360  177.8740  139.2840 C   0  0  0  0  0  0  0  0  0  0  0  0
  183.7280  177.3260  138.1470 C   0  0  0  0  0  0  0  0  0  0  0  0
  185.4610  178.9690  141.7200 C   0  0  0  0  0  0  0  0  0  0  0  0
  181.8050  175.9780  137.5200 C   0  0  0  0  0  0  0  0  0  0  0  0
  185.8310  178.2740  139.4120 C   0  0  0  0  0  0  0  0  0  0  0  0
  181.0250  176.5730  138.4870 C   0  0  0  0  0  0  0  0  0  0  0  0
  179.4770  175.9310  138.4510 S   0  0  0  0  0  0  0  0  0  0  0  0
  185.2800  178.0920  137.7180 S   0  0  0  0  0  0  0  0  0  0  0  0
  187.7110  178.4580  140.9330 C   0  0  0  0  0  0  0  0  0  0  0  0
  178.9330  173.9600  136.5210 C   0  0  0  0  0  1  0  0  0  0  0  0
  179.8810  174.9080  137.1620 C   0  0  0  0  0  0  0  0  0  0  0  0
  183.1940  176.4180  137.3160 C   0  0  0  0  0  3  0  0  0  0  0  0
  184.9380  178.6360  140.4450 C   0  0  0  0  0  0  0  0  0  0  0  0
  186.8370  178.8650  141.9460 C   0  0  0  0  0  3  0  0  0  0  0  0
  181.5390  177.5560  139.3840 N   0  0  0  0  0  2  0  0  0  0  0  0
  181.1690  175.0490  136.7630 N   0  0  0  0  0  0  0  0  0  0  0  0
  189.1240  178.3430  141.1480 N   0  0  0  0  0  2  0  0  0  0  0  0
  189.1500  176.4440  142.5310 O   0  0  0  0  0  0  0  0  0  0  0  0
  189.7930  177.3480  141.9350 C   0  0  0  0  0  0  0  0  0  0  0  0
  191.2740  177.4050  142.0730 C   0  0  0  0  0  2  0  0  0  0  0  0
  191.8330  176.0380  143.9420 O   0  0  0  0  0  0  0  0  0  0  0  0
  191.8180  178.2960  144.3380 O   0  0  0  0  0  1  0  0  0  0  0  0
  191.6670  177.2030  143.4950 C   0  0  0  0  0  0  0  0  0  0  0  0
  184.6690  179.3780  142.8040 O   0  0  0  0  0  0  0  0  0  0  0  0
  184.2320  178.5230  143.8520 C   0  0  0  0  0  2  0  0  0  0  0  0
  186.3920  177.4740  144.5470 C   0  0  0  0  0  3  0  0  0  0  0  0
  185.2820  178.9960  146.0710 C   0  0  0  0  0  3  0  0  0  0  0  0
  186.3010  178.8030  147.0080 C   0  0  0  0  0  3  0  0  0  0  0  0
  187.3720  177.9500  146.7130 C   0  0  0  0  0  0  0  0  0  0  0  0
  187.4120  177.2810  145.4840 C   0  0  0  0  0  3  0  0  0  0  0  0
  185.3310  178.3390  144.8370 C   0  0  0  0  0  0  0  0  0  0  0  0
  188.4480  177.7310  147.7170 C   0  0  0  0  0  2  0  0  0  0  0  0
  189.7970  177.6490  147.0290 C   0  0  0  0  0  2  0  0  0  0  0  0
  190.4240  176.3790  147.3420 N   0  0  0  0  0  1  0  0  0  0  0  0
  1 15  1  0  0  0  0
  2 11  1  0  0  0  0
  3 17  1  0  0  0  0
  3  1  2  0  0  0  0
  4  3  1  0  0  0  0
  5 16  1  0  0  0  0
  5 26  1  0  0  0  0
  6  8  2  0  0  0  0
  7  2  2  0  0  0  0
  7 15  1  0  0  0  0
  8 17  1  0  0  0  0
  9  8  1  0  0  0  0
 10  4  1  0  0  0  0
 10  7  1  0  0  0  0
 11 19  1  0  0  0  0
 11 16  2  0  0  0  0
 12 13  1  0  0  0  0
 13  9  1  0  0  0  0
 14  6  1  0  0  0  0
 14  4  2  0  0  0  0
 15  5  2  0  0  0  0
 18 13  2  0  0  0  0
 18  6  1  0  0  0  0
 19 21  1  0  0  0  0
 21 22  1  0  0  0  0
 21 20  2  0  0  0  0
 22 25  1  0  0  0  0
 25 23  2  0  0  0  0
 25 24  1  0  0  0  0
 26 27  1  0  0  0  0
 27 33  1  0  0  0  0
 28 33  2  0  0  0  0
 28 32  1  0  0  0  0
 29 30  2  0  0  0  0
 31 30  1  0  0  0  0
 31 34  1  0  0  0  0
 32 31  2  0  0  0  0
 33 29  1  0  0  0  0
 35 36  1  0  0  0  0
 35 34  1  0  0  0  0
M  END
>  <MODEL>
9

>  <REMARK>
 VINA RESULT:      -7.7      3.604      4.878
  Name = 
  8 active torsions:
  status: ('A' for Active; 'I' for Inactive)
    1  A    between atoms: C_7  and  O_22
    2  A    between atoms: N_13  and  C_14
    3  A    between atoms: C_16  and  C_31
    4  A    between atoms: C_19  and  C_31
    5  A    between atoms: O_22  and  C_34
    6  A    between atoms: C_23  and  C_36
    7  A    between atoms: C_29  and  C_36
    8  A    between atoms: C_33  and  C_34
                            x       y       z     vdW  Elec       q    Type
                         _______ _______ _______ _____ _____    ______ ____

>  <TORSDO>
F 8

$$$$
