=
 OpenBabel11042411533D

 35 39  0  0  1  0  0  0  0  0999 V2000
  188.2750  177.9040  141.0380 C   0  0  0  0  0  0  0  0  0  0  0  0
  188.6920  177.5160  139.7570 C   0  0  0  0  0  3  0  0  0  0  0  0
  189.0050  177.4480  142.1580 C   0  0  0  0  0  0  0  0  0  0  0  0
  190.4950  176.2670  140.6930 N   0  0  0  0  0  0  0  0  0  0  0  0
  190.1210  176.6210  141.9500 C   0  0  0  0  0  3  0  0  0  0  0  0
  189.8160  176.7020  139.5980 C   0  0  0  0  0  0  0  0  0  0  0  0
  191.7110  176.2120  138.1370 C   0  0  2  0  0  3  0  0  0  0  0  0
  190.9390  175.0510  138.3120 O   0  0  0  0  0  0  0  0  0  0  0  0
  190.2340  176.2670  138.2320 C   0  0  1  0  0  3  0  0  0  0  0  0
  192.0980  176.3110  136.7920 O   0  0  0  0  0  0  0  0  0  0  0  0
  193.4410  175.8940  136.6950 C   0  0  0  0  0  0  0  0  0  0  0  0
  193.5300  174.6390  136.1100 F   0  0  0  0  0  0  0  0  0  0  0  0
  194.1870  176.8090  135.9660 F   0  0  0  0  0  0  0  0  0  0  0  0
  193.9710  175.8180  137.9690 F   0  0  0  0  0  0  0  0  0  0  0  0
  187.0800  178.7710  141.1620 C   0  0  0  0  0  0  0  0  0  0  0  0
  187.0560  179.7210  141.9890 O   0  0  0  0  0  0  0  0  0  0  0  0
  185.9430  178.5320  140.3250 N   0  0  0  0  0  2  0  0  0  0  0  0
  182.0910  178.3320  139.5710 N   0  0  0  0  0  0  0  0  0  0  0  0
  184.1310  179.5480  139.0480 C   0  0  0  0  0  2  0  0  0  0  0  0
  183.1840  178.4340  138.6110 C   0  0  0  0  0  2  0  0  0  0  0  0
  183.7290  178.5080  141.3790 C   0  0  1  0  0  3  0  0  0  0  0  0
  184.6960  179.2750  140.4500 C   0  0  1  0  0  3  0  0  0  0  0  0
  183.7520  179.0570  142.7780 C   0  0  0  0  0  3  0  0  0  0  0  0
  180.0020  178.4250  144.1140 Cl  0  0  0  0  0  0  0  0  0  0  0  0
  181.2230  178.2820  141.7700 N   0  0  0  0  0  0  0  0  0  0  0  0
  181.3730  178.5520  143.0330 C   0  0  0  0  0  0  0  0  0  0  0  0
  182.6660  179.0390  143.5540 C   0  0  0  0  0  3  0  0  0  0  0  0
  182.3160  178.3800  140.8490 C   0  0  0  0  0  0  0  0  0  0  0  0
  188.6230  177.8170  143.4550 O   0  0  0  0  0  0  0  0  0  0  0  0
  188.2640  176.8810  144.4640 C   0  0  0  0  0  2  0  0  0  0  0  0
  188.8950  177.4300  146.0800 S   0  0  0  0  0  0  0  0  0  0  0  0
  187.2300  177.4890  146.8040 C   0  0  0  0  0  2  0  0  0  0  0  0
  185.7760  179.3990  146.2310 C   0  0  0  0  0  2  0  0  0  0  0  0
  186.2450  178.0280  145.7860 C   0  0  0  0  0  3  0  0  0  0  0  0
  184.8910  178.1900  146.4450 C   0  0  0  0  0  2  0  0  0  0  0  0
  1 15  1  0  0  0  0
  1  3  1  0  0  0  0
  2  1  2  0  0  0  0
  3 29  1  0  0  0  0
  4  5  1  0  0  0  0
  5  3  2  0  0  0  0
  6  2  1  0  0  0  0
  6  4  2  0  0  0  0
  7 10  1  6  0  0  0
  7  9  1  0  0  0  0
  7  8  1  0  0  0  0
  9  8  1  0  0  0  0
  9  6  1  1  0  0  0
 11 10  1  0  0  0  0
 11 14  1  0  0  0  0
 12 11  1  0  0  0  0
 13 11  1  0  0  0  0
 15 16  2  0  0  0  0
 17 15  1  0  0  0  0
 18 28  2  0  0  0  0
 19 22  1  0  0  0  0
 20 19  1  0  0  0  0
 20 18  1  0  0  0  0
 21 23  1  1  0  0  0
 22 17  1  6  0  0  0
 22 21  1  0  0  0  0
 23 27  2  0  0  0  0
 25 26  2  0  0  0  0
 26 27  1  0  0  0  0
 26 24  1  0  0  0  0
 28 21  1  0  0  0  0
 28 25  1  0  0  0  0
 29 30  1  0  0  0  0
 30 31  1  0  0  0  0
 31 32  1  0  0  0  0
 33 35  1  0  0  0  0
 34 33  1  0  0  0  0
 34 35  1  0  0  0  0
 34 32  1  0  0  0  0
M  END
>  <MODEL>
1

>  <REMARK>
 VINA RESULT:      -7.3      0.000      0.000
  Name = 
  10 active torsions:
  status: ('A' for Active; 'I' for Inactive)
    1  A    between atoms: C_1  and  O_34
    2  A    between atoms: C_5  and  C_15
    3  A    between atoms: C_9  and  N_31
    4  A    between atoms: O_10  and  C_11
    5  A    between atoms: O_10  and  C_30
    6  A    between atoms: C_14  and  O_34
    7  A    between atoms: S_16  and  C_17
    8  A    between atoms: S_16  and  C_30
    9  A    between atoms: C_17  and  C_22
   10  A    between atoms: C_25  and  C_35
                            x       y       z     vdW  Elec       q    Type
                         _______ _______ _______ _____ _____    ______ ____

>  <TORSDO>
F 10

$$$$
=
 OpenBabel11042411533D

 35 39  0  0  1  0  0  0  0  0999 V2000
  189.8720  176.8820  138.5130 C   0  0  0  0  0  0  0  0  0  0  0  0
  191.2570  176.8690  138.2970 C   0  0  0  0  0  3  0  0  0  0  0  0
  189.0580  176.0060  137.7600 C   0  0  0  0  0  0  0  0  0  0  0  0
  191.0110  175.1710  136.6410 N   0  0  0  0  0  0  0  0  0  0  0  0
  189.6650  175.1540  136.8230 C   0  0  0  0  0  3  0  0  0  0  0  0
  191.8170  175.9970  137.3610 C   0  0  0  0  0  0  0  0  0  0  0  0
  193.9420  174.8830  137.8130 C   0  0  2  0  0  3  0  0  0  0  0  0
  193.6740  174.8420  136.4340 O   0  0  0  0  0  0  0  0  0  0  0  0
  193.2900  176.0140  137.1140 C   0  0  1  0  0  3  0  0  0  0  0  0
  195.3000  175.1760  138.0110 O   0  0  0  0  0  0  0  0  0  0  0  0
  195.8170  174.2390  138.9290 C   0  0  0  0  0  0  0  0  0  0  0  0
  195.0080  173.1130  138.9970 F   0  0  0  0  0  0  0  0  0  0  0  0
  197.1090  173.8710  138.5820 F   0  0  0  0  0  0  0  0  0  0  0  0
  195.8530  174.8240  140.1800 F   0  0  0  0  0  0  0  0  0  0  0  0
  189.3200  177.8210  139.5170 C   0  0  0  0  0  0  0  0  0  0  0  0
  189.0900  179.0240  139.2170 O   0  0  0  0  0  0  0  0  0  0  0  0
  189.0360  177.3550  140.8400 N   0  0  0  0  0  2  0  0  0  0  0  0
  186.2080  177.8140  143.5300 N   0  0  0  0  0  0  0  0  0  0  0  0
  187.2060  178.8050  141.5460 C   0  0  0  0  0  2  0  0  0  0  0  0
  186.0860  177.9180  142.0800 C   0  0  0  0  0  2  0  0  0  0  0  0
  188.6130  177.4690  143.2530 C   0  0  1  0  0  3  0  0  0  0  0  0
  188.5850  178.2330  141.9110 C   0  0  1  0  0  3  0  0  0  0  0  0
  189.8560  177.7770  144.0410 C   0  0  0  0  0  3  0  0  0  0  0  0
  188.6570  177.4650  147.8760 Cl  0  0  0  0  0  0  0  0  0  0  0  0
  187.4540  177.5330  145.5200 N   0  0  0  0  0  0  0  0  0  0  0  0
  188.6010  177.5730  146.1300 C   0  0  0  0  0  0  0  0  0  0  0  0
  189.8530  177.7850  145.3760 C   0  0  0  0  0  3  0  0  0  0  0  0
  187.3620  177.6250  144.0930 C   0  0  0  0  0  0  0  0  0  0  0  0
  187.6700  175.9840  137.9500 O   0  0  0  0  0  0  0  0  0  0  0  0
  186.7370  176.4350  136.9740 C   0  0  0  0  0  2  0  0  0  0  0  0
  186.1620  178.1110  137.3860 S   0  0  0  0  0  0  0  0  0  0  0  0
  184.4450  177.5610  137.6000 C   0  0  0  0  0  2  0  0  0  0  0  0
  182.7640  178.9120  138.8000 C   0  0  0  0  0  2  0  0  0  0  0  0
  183.9390  177.9710  138.9690 C   0  0  0  0  0  3  0  0  0  0  0  0
  184.1320  179.4630  139.1420 C   0  0  0  0  0  2  0  0  0  0  0  0
  1 15  1  0  0  0  0
  2  1  1  0  0  0  0
  3 29  1  0  0  0  0
  3  1  2  0  0  0  0
  4  5  2  0  0  0  0
  4  6  1  0  0  0  0
  5  3  1  0  0  0  0
  6  2  2  0  0  0  0
  7 10  1  6  0  0  0
  8  9  1  0  0  0  0
  8  7  1  0  0  0  0
  9  6  1  1  0  0  0
  9  7  1  0  0  0  0
 10 11  1  0  0  0  0
 11 12  1  0  0  0  0
 11 14  1  0  0  0  0
 13 11  1  0  0  0  0
 15 17  1  0  0  0  0
 16 15  2  0  0  0  0
 18 28  2  0  0  0  0
 19 22  1  0  0  0  0
 19 20  1  0  0  0  0
 20 18  1  0  0  0  0
 21 23  1  1  0  0  0
 21 28  1  0  0  0  0
 22 17  1  6  0  0  0
 22 21  1  0  0  0  0
 23 27  2  0  0  0  0
 25 26  2  0  0  0  0
 26 24  1  0  0  0  0
 27 26  1  0  0  0  0
 28 25  1  0  0  0  0
 30 31  1  0  0  0  0
 30 29  1  0  0  0  0
 31 32  1  0  0  0  0
 32 34  1  0  0  0  0
 33 34  1  0  0  0  0
 33 35  1  0  0  0  0
 34 35  1  0  0  0  0
M  END
>  <MODEL>
2

>  <REMARK>
 VINA RESULT:      -7.3      3.538      5.676
  Name = 
  10 active torsions:
  status: ('A' for Active; 'I' for Inactive)
    1  A    between atoms: C_1  and  O_34
    2  A    between atoms: C_5  and  C_15
    3  A    between atoms: C_9  and  N_31
    4  A    between atoms: O_10  and  C_11
    5  A    between atoms: O_10  and  C_30
    6  A    between atoms: C_14  and  O_34
    7  A    between atoms: S_16  and  C_17
    8  A    between atoms: S_16  and  C_30
    9  A    between atoms: C_17  and  C_22
   10  A    between atoms: C_25  and  C_35
                            x       y       z     vdW  Elec       q    Type
                         _______ _______ _______ _____ _____    ______ ____

>  <TORSDO>
F 10

$$$$
=
 OpenBabel11042411533D

 35 39  0  0  1  0  0  0  0  0999 V2000
  188.1870  177.9340  141.0510 C   0  0  0  0  0  0  0  0  0  0  0  0
  188.6370  177.5770  139.7710 C   0  0  0  0  0  3  0  0  0  0  0  0
  188.8970  177.4630  142.1770 C   0  0  0  0  0  0  0  0  0  0  0  0
  190.4310  176.3260  140.7220 N   0  0  0  0  0  0  0  0  0  0  0  0
  190.0260  176.6520  141.9770 C   0  0  0  0  0  3  0  0  0  0  0  0
  189.7720  176.7770  139.6210 C   0  0  0  0  0  0  0  0  0  0  0  0
  191.7000  176.2720  138.2100 C   0  0  2  0  0  3  0  0  0  0  0  0
  190.8850  175.1330  138.3180 O   0  0  0  0  0  0  0  0  0  0  0  0
  190.2230  176.3740  138.2560 C   0  0  1  0  0  3  0  0  0  0  0  0
  192.1380  176.4040  136.8840 O   0  0  0  0  0  0  0  0  0  0  0  0
  193.4710  175.9510  136.8200 C   0  0  0  0  0  0  0  0  0  0  0  0
  194.2610  176.8310  136.0930 F   0  0  0  0  0  0  0  0  0  0  0  0
  193.9970  175.7890  138.0940 F   0  0  0  0  0  0  0  0  0  0  0  0
  193.4890  174.7240  136.1840 F   0  0  0  0  0  0  0  0  0  0  0  0
  186.9810  178.7870  141.1650 C   0  0  0  0  0  0  0  0  0  0  0  0
  186.9330  179.7250  142.0060 O   0  0  0  0  0  0  0  0  0  0  0  0
  185.8620  178.5490  140.3050 N   0  0  0  0  0  2  0  0  0  0  0  0
  182.0170  178.2950  139.5300 N   0  0  0  0  0  0  0  0  0  0  0  0
  184.0440  179.5340  139.0120 C   0  0  0  0  0  2  0  0  0  0  0  0
  183.1140  178.4060  138.5760 C   0  0  0  0  0  2  0  0  0  0  0  0
  183.6420  178.5030  141.3460 C   0  0  1  0  0  3  0  0  0  0  0  0
  184.6050  179.2760  140.4190 C   0  0  1  0  0  3  0  0  0  0  0  0
  183.6500  179.0600  142.7430 C   0  0  0  0  0  3  0  0  0  0  0  0
  179.9010  178.3900  144.0600 Cl  0  0  0  0  0  0  0  0  0  0  0  0
  181.1360  178.2480  141.7240 N   0  0  0  0  0  0  0  0  0  0  0  0
  181.2760  178.5270  142.9870 C   0  0  0  0  0  0  0  0  0  0  0  0
  182.5600  179.0330  143.5130 C   0  0  0  0  0  3  0  0  0  0  0  0
  182.2340  178.3540  140.8100 C   0  0  0  0  0  0  0  0  0  0  0  0
  188.4840  177.8020  143.4720 O   0  0  0  0  0  0  0  0  0  0  0  0
  187.6910  176.9500  144.2920 C   0  0  0  0  0  2  0  0  0  0  0  0
  186.4100  177.9200  145.1470 S   0  0  0  0  0  0  0  0  0  0  0  0
  187.0800  177.5160  146.7860 C   0  0  0  0  0  2  0  0  0  0  0  0
  189.3390  176.9100  147.5750 C   0  0  0  0  0  2  0  0  0  0  0  0
  188.5200  177.9800  146.8830 C   0  0  0  0  0  3  0  0  0  0  0  0
  188.8940  178.1360  148.3420 C   0  0  0  0  0  2  0  0  0  0  0  0
  1 15  1  0  0  0  0
  1  3  1  0  0  0  0
  2  1  2  0  0  0  0
  3 29  1  0  0  0  0
  4  5  1  0  0  0  0
  5  3  2  0  0  0  0
  6  2  1  0  0  0  0
  6  4  2  0  0  0  0
  7 10  1  6  0  0  0
  7  9  1  0  0  0  0
  7  8  1  0  0  0  0
  9  8  1  0  0  0  0
  9  6  1  1  0  0  0
 11 10  1  0  0  0  0
 11 13  1  0  0  0  0
 12 11  1  0  0  0  0
 14 11  1  0  0  0  0
 15 16  2  0  0  0  0
 17 15  1  0  0  0  0
 18 28  2  0  0  0  0
 19 22  1  0  0  0  0
 20 19  1  0  0  0  0
 20 18  1  0  0  0  0
 21 23  1  1  0  0  0
 22 17  1  6  0  0  0
 22 21  1  0  0  0  0
 23 27  2  0  0  0  0
 25 26  2  0  0  0  0
 26 27  1  0  0  0  0
 26 24  1  0  0  0  0
 28 21  1  0  0  0  0
 28 25  1  0  0  0  0
 29 30  1  0  0  0  0
 30 31  1  0  0  0  0
 31 32  1  0  0  0  0
 32 34  1  0  0  0  0
 33 35  1  0  0  0  0
 34 33  1  0  0  0  0
 34 35  1  0  0  0  0
M  END
>  <MODEL>
3

>  <REMARK>
 VINA RESULT:      -7.2      0.773      1.416
  Name = 
  10 active torsions:
  status: ('A' for Active; 'I' for Inactive)
    1  A    between atoms: C_1  and  O_34
    2  A    between atoms: C_5  and  C_15
    3  A    between atoms: C_9  and  N_31
    4  A    between atoms: O_10  and  C_11
    5  A    between atoms: O_10  and  C_30
    6  A    between atoms: C_14  and  O_34
    7  A    between atoms: S_16  and  C_17
    8  A    between atoms: S_16  and  C_30
    9  A    between atoms: C_17  and  C_22
   10  A    between atoms: C_25  and  C_35
                            x       y       z     vdW  Elec       q    Type
                         _______ _______ _______ _____ _____    ______ ____

>  <TORSDO>
F 10

$$$$
=
 OpenBabel11042411533D

 35 39  0  0  1  0  0  0  0  0999 V2000
  189.0980  177.7320  140.9970 C   0  0  0  0  0  0  0  0  0  0  0  0
  188.6100  178.1260  142.2510 C   0  0  0  0  0  3  0  0  0  0  0  0
  190.2200  176.8760  140.9430 C   0  0  0  0  0  0  0  0  0  0  0  0
  190.3090  176.8550  143.3420 N   0  0  0  0  0  0  0  0  0  0  0  0
  190.8090  176.4510  142.1450 C   0  0  0  0  0  3  0  0  0  0  0  0
  189.2220  177.6700  143.4210 C   0  0  0  0  0  0  0  0  0  0  0  0
  187.3990  177.5110  145.0370 C   0  0  2  0  0  3  0  0  0  0  0  0
  188.5820  177.0160  145.6120 O   0  0  0  0  0  0  0  0  0  0  0  0
  188.7170  178.1230  144.7510 C   0  0  1  0  0  3  0  0  0  0  0  0
  186.7160  178.2910  145.9830 O   0  0  0  0  0  0  0  0  0  0  0  0
  185.4420  178.5910  145.4590 C   0  0  0  0  0  0  0  0  0  0  0  0
  184.4420  178.2460  146.3590 F   0  0  0  0  0  0  0  0  0  0  0  0
  185.3460  179.9380  145.1420 F   0  0  0  0  0  0  0  0  0  0  0  0
  185.2580  177.8580  144.3030 F   0  0  0  0  0  0  0  0  0  0  0  0
  188.4170  178.2360  139.7820 C   0  0  0  0  0  0  0  0  0  0  0  0
  188.9730  179.0920  139.0410 O   0  0  0  0  0  0  0  0  0  0  0  0
  187.1190  177.7400  139.4400 N   0  0  0  0  0  2  0  0  0  0  0  0
  184.5520  176.6760  136.6610 N   0  0  0  0  0  0  0  0  0  0  0  0
  186.7920  177.5480  137.0310 C   0  0  0  0  0  2  0  0  0  0  0  0
  185.9570  176.2980  136.7700 C   0  0  0  0  0  2  0  0  0  0  0  0
  184.8360  178.1070  138.6240 C   0  0  1  0  0  3  0  0  0  0  0  0
  186.3430  178.2540  138.3200 C   0  0  1  0  0  3  0  0  0  0  0  0
  184.2440  179.3930  139.1300 C   0  0  0  0  0  3  0  0  0  0  0  0
  180.4380  179.2770  137.8090 Cl  0  0  0  0  0  0  0  0  0  0  0  0
  182.6380  177.8770  137.3580 N   0  0  0  0  0  0  0  0  0  0  0  0
  182.1290  178.8760  138.0160 C   0  0  0  0  0  0  0  0  0  0  0  0
  182.9760  179.7260  138.8770 C   0  0  0  0  0  3  0  0  0  0  0  0
  184.0190  177.5190  137.4920 C   0  0  0  0  0  0  0  0  0  0  0  0
  190.7340  176.4530  139.7100 O   0  0  0  0  0  0  0  0  0  0  0  0
  192.0000  176.8630  139.2050 C   0  0  0  0  0  2  0  0  0  0  0  0
  192.2090  176.2830  137.4930 S   0  0  0  0  0  0  0  0  0  0  0  0
  190.4290  176.3940  137.1500 C   0  0  0  0  0  2  0  0  0  0  0  0
  189.1040  174.3150  137.0510 C   0  0  0  0  0  2  0  0  0  0  0  0
  190.0030  175.2430  136.2600 C   0  0  0  0  0  3  0  0  0  0  0  0
  190.5550  173.9500  136.8240 C   0  0  0  0  0  2  0  0  0  0  0  0
  1  2  1  0  0  0  0
  2  6  2  0  0  0  0
  3  1  2  0  0  0  0
  3  5  1  0  0  0  0
  4  6  1  0  0  0  0
  5  4  2  0  0  0  0
  7  8  1  0  0  0  0
  7 10  1  1  0  0  0
  9  6  1  6  0  0  0
  9  7  1  0  0  0  0
  9  8  1  0  0  0  0
 11 10  1  0  0  0  0
 11 12  1  0  0  0  0
 13 11  1  0  0  0  0
 14 11  1  0  0  0  0
 15  1  1  0  0  0  0
 16 15  2  0  0  0  0
 17 15  1  0  0  0  0
 18 20  1  0  0  0  0
 18 28  2  0  0  0  0
 19 22  1  0  0  0  0
 20 19  1  0  0  0  0
 21 23  1  6  0  0  0
 22 21  1  0  0  0  0
 22 17  1  1  0  0  0
 24 26  1  0  0  0  0
 25 28  1  0  0  0  0
 25 26  2  0  0  0  0
 26 27  1  0  0  0  0
 27 23  2  0  0  0  0
 28 21  1  0  0  0  0
 29  3  1  0  0  0  0
 30 29  1  0  0  0  0
 31 30  1  0  0  0  0
 32 31  1  0  0  0  0
 34 35  1  0  0  0  0
 34 33  1  0  0  0  0
 34 32  1  0  0  0  0
 35 33  1  0  0  0  0
M  END
>  <MODEL>
4

>  <REMARK>
 VINA RESULT:      -7.2      4.475      7.221
  Name = 
  10 active torsions:
  status: ('A' for Active; 'I' for Inactive)
    1  A    between atoms: C_1  and  O_34
    2  A    between atoms: C_5  and  C_15
    3  A    between atoms: C_9  and  N_31
    4  A    between atoms: O_10  and  C_11
    5  A    between atoms: O_10  and  C_30
    6  A    between atoms: C_14  and  O_34
    7  A    between atoms: S_16  and  C_17
    8  A    between atoms: S_16  and  C_30
    9  A    between atoms: C_17  and  C_22
   10  A    between atoms: C_25  and  C_35
                            x       y       z     vdW  Elec       q    Type
                         _______ _______ _______ _____ _____    ______ ____

>  <TORSDO>
F 10

$$$$
=
 OpenBabel11042411533D

 35 39  0  0  1  0  0  0  0  0999 V2000
  183.0260  177.7800  139.9490 C   0  0  0  0  0  0  0  0  0  0  0  0
  183.5480  177.0460  138.8740 C   0  0  0  0  0  3  0  0  0  0  0  0
  181.6370  177.7270  140.1990 C   0  0  0  0  0  0  0  0  0  0  0  0
  181.3680  176.2460  138.3280 N   0  0  0  0  0  0  0  0  0  0  0  0
  180.8270  176.9430  139.3610 C   0  0  0  0  0  3  0  0  0  0  0  0
  182.7040  176.2720  138.0740 C   0  0  0  0  0  0  0  0  0  0  0  0
  183.1230  174.0610  137.1240 C   0  0  2  0  0  3  0  0  0  0  0  0
  182.2440  174.7730  136.2900 O   0  0  0  0  0  0  0  0  0  0  0  0
  183.2630  175.5200  136.9110 C   0  0  1  0  0  3  0  0  0  0  0  0
  184.0610  173.3800  136.3340 O   0  0  0  0  0  0  0  0  0  0  0  0
  184.5650  172.3030  137.0900 C   0  0  0  0  0  0  0  0  0  0  0  0
  185.1090  172.7480  138.2860 F   0  0  0  0  0  0  0  0  0  0  0  0
  183.5680  171.3710  137.3430 F   0  0  0  0  0  0  0  0  0  0  0  0
  185.5630  171.6840  136.3620 F   0  0  0  0  0  0  0  0  0  0  0  0
  183.9570  178.5870  140.7740 C   0  0  0  0  0  0  0  0  0  0  0  0
  184.5320  179.6000  140.2920 O   0  0  0  0  0  0  0  0  0  0  0  0
  184.1980  178.2160  142.1350 N   0  0  0  0  0  2  0  0  0  0  0  0
  185.4610  178.4960  145.8460 N   0  0  0  0  0  0  0  0  0  0  0  0
  184.4220  179.7350  144.0300 C   0  0  0  0  0  2  0  0  0  0  0  0
  184.1790  178.9330  145.3040 C   0  0  0  0  0  2  0  0  0  0  0  0
  186.1430  177.8600  143.5850 C   0  0  1  0  0  3  0  0  0  0  0  0
  185.1690  178.8950  142.9820 C   0  0  1  0  0  3  0  0  0  0  0  0
  187.4310  177.7950  142.8130 C   0  0  0  0  0  3  0  0  0  0  0  0
  190.1710  176.8330  145.6080 Cl  0  0  0  0  0  0  0  0  0  0  0  0
  187.6380  177.5990  145.6300 N   0  0  0  0  0  0  0  0  0  0  0  0
  188.6620  177.3290  144.8750 C   0  0  0  0  0  0  0  0  0  0  0  0
  188.5910  177.5100  143.4110 C   0  0  0  0  0  3  0  0  0  0  0  0
  186.3860  178.0150  145.0720 C   0  0  0  0  0  0  0  0  0  0  0  0
  181.0780  178.4410  141.2670 O   0  0  0  0  0  0  0  0  0  0  0  0
  179.7460  178.9420  141.2640 C   0  0  0  0  0  2  0  0  0  0  0  0
  179.7380  180.6980  140.7870 S   0  0  0  0  0  0  0  0  0  0  0  0
  179.3360  180.3120  139.0580 C   0  0  0  0  0  2  0  0  0  0  0  0
  181.1280  180.1810  137.3660 C   0  0  0  0  0  2  0  0  0  0  0  0
  180.2200  181.1230  138.1310 C   0  0  0  0  0  3  0  0  0  0  0  0
  181.6650  180.9550  138.5510 C   0  0  0  0  0  2  0  0  0  0  0  0
  1  3  1  0  0  0  0
  1 15  1  0  0  0  0
  2  1  2  0  0  0  0
  3 29  1  0  0  0  0
  4  5  1  0  0  0  0
  5  3  2  0  0  0  0
  6  4  2  0  0  0  0
  6  2  1  0  0  0  0
  7 10  1  6  0  0  0
  8  9  1  0  0  0  0
  8  7  1  0  0  0  0
  9  7  1  0  0  0  0
  9  6  1  1  0  0  0
 10 11  1  0  0  0  0
 11 13  1  0  0  0  0
 11 12  1  0  0  0  0
 14 11  1  0  0  0  0
 15 17  1  0  0  0  0
 16 15  2  0  0  0  0
 19 20  1  0  0  0  0
 20 18  1  0  0  0  0
 21 23  1  6  0  0  0
 21 28  1  0  0  0  0
 22 17  1  1  0  0  0
 22 21  1  0  0  0  0
 22 19  1  0  0  0  0
 23 27  2  0  0  0  0
 26 24  1  0  0  0  0
 26 25  2  0  0  0  0
 27 26  1  0  0  0  0
 28 25  1  0  0  0  0
 28 18  2  0  0  0  0
 30 29  1  0  0  0  0
 31 30  1  0  0  0  0
 32 31  1  0  0  0  0
 33 34  1  0  0  0  0
 33 35  1  0  0  0  0
 34 35  1  0  0  0  0
 34 32  1  0  0  0  0
M  END
>  <MODEL>
5

>  <REMARK>
 VINA RESULT:      -7.2      5.155      7.931
  Name = 
  10 active torsions:
  status: ('A' for Active; 'I' for Inactive)
    1  A    between atoms: C_1  and  O_34
    2  A    between atoms: C_5  and  C_15
    3  A    between atoms: C_9  and  N_31
    4  A    between atoms: O_10  and  C_11
    5  A    between atoms: O_10  and  C_30
    6  A    between atoms: C_14  and  O_34
    7  A    between atoms: S_16  and  C_17
    8  A    between atoms: S_16  and  C_30
    9  A    between atoms: C_17  and  C_22
   10  A    between atoms: C_25  and  C_35
                            x       y       z     vdW  Elec       q    Type
                         _______ _______ _______ _____ _____    ______ ____

>  <TORSDO>
F 10

$$$$
=
 OpenBabel11042411533D

 35 39  0  0  1  0  0  0  0  0999 V2000
  188.2570  177.7220  141.4750 C   0  0  0  0  0  0  0  0  0  0  0  0
  189.1680  177.7640  140.4100 C   0  0  0  0  0  3  0  0  0  0  0  0
  188.5030  176.8330  142.5450 C   0  0  0  0  0  0  0  0  0  0  0  0
  190.5080  176.0890  141.4540 N   0  0  0  0  0  0  0  0  0  0  0  0
  189.6480  176.0210  142.5040 C   0  0  0  0  0  3  0  0  0  0  0  0
  190.3000  176.9450  140.4170 C   0  0  0  0  0  0  0  0  0  0  0  0
  190.9690  175.8480  138.3410 C   0  0  2  0  0  3  0  0  0  0  0  0
  190.5330  177.1540  138.0630 O   0  0  0  0  0  0  0  0  0  0  0  0
  191.2470  176.9730  139.2630 C   0  0  1  0  0  3  0  0  0  0  0  0
  192.1150  175.5720  137.5800 O   0  0  0  0  0  0  0  0  0  0  0  0
  191.8940  174.3650  136.8850 C   0  0  0  0  0  0  0  0  0  0  0  0
  190.7160  173.7610  137.3010 F   0  0  0  0  0  0  0  0  0  0  0  0
  191.8520  174.5870  135.5160 F   0  0  0  0  0  0  0  0  0  0  0  0
  192.9410  173.5050  137.1540 F   0  0  0  0  0  0  0  0  0  0  0  0
  187.0710  178.6090  141.4290 C   0  0  0  0  0  0  0  0  0  0  0  0
  187.0280  179.6620  142.1200 O   0  0  0  0  0  0  0  0  0  0  0  0
  185.9680  178.2710  140.5820 N   0  0  0  0  0  2  0  0  0  0  0  0
  182.1680  178.0350  139.6080 N   0  0  0  0  0  0  0  0  0  0  0  0
  184.2560  179.1700  139.0960 C   0  0  0  0  0  2  0  0  0  0  0  0
  183.3200  178.0280  138.7140 C   0  0  0  0  0  2  0  0  0  0  0  0
  183.6930  178.3780  141.4900 C   0  0  1  0  0  3  0  0  0  0  0  0
  184.7280  179.0350  140.5520 C   0  0  1  0  0  3  0  0  0  0  0  0
  183.6370  179.0660  142.8250 C   0  0  0  0  0  3  0  0  0  0  0  0
  179.8010  178.6140  143.9760 Cl  0  0  0  0  0  0  0  0  0  0  0  0
  181.1630  178.2190  141.7410 N   0  0  0  0  0  0  0  0  0  0  0  0
  181.2390  178.6150  142.9770 C   0  0  0  0  0  0  0  0  0  0  0  0
  182.5050  179.1390  143.5280 C   0  0  0  0  0  3  0  0  0  0  0  0
  182.3130  178.2110  140.8870 C   0  0  0  0  0  0  0  0  0  0  0  0
  187.6200  176.7650  143.6310 O   0  0  0  0  0  0  0  0  0  0  0  0
  187.7780  177.5310  144.8200 C   0  0  0  0  0  2  0  0  0  0  0  0
  186.1610  178.1440  145.3880 S   0  0  0  0  0  0  0  0  0  0  0  0
  186.7210  178.2710  147.1110 C   0  0  0  0  0  2  0  0  0  0  0  0
  188.3020  176.8160  148.3260 C   0  0  0  0  0  2  0  0  0  0  0  0
  188.1700  177.8380  147.2150 C   0  0  0  0  0  3  0  0  0  0  0  0
  188.7160  178.2530  148.5650 C   0  0  0  0  0  2  0  0  0  0  0  0
  1  3  1  0  0  0  0
  2  6  1  0  0  0  0
  2  1  2  0  0  0  0
  3 29  1  0  0  0  0
  4  5  1  0  0  0  0
  5  3  2  0  0  0  0
  6  4  2  0  0  0  0
  7 10  1  6  0  0  0
  7  9  1  0  0  0  0
  8  7  1  0  0  0  0
  8  9  1  0  0  0  0
  9  6  1  1  0  0  0
 11 14  1  0  0  0  0
 11 12  1  0  0  0  0
 11 10  1  0  0  0  0
 13 11  1  0  0  0  0
 15  1  1  0  0  0  0
 15 16  2  0  0  0  0
 17 15  1  0  0  0  0
 18 28  2  0  0  0  0
 19 22  1  0  0  0  0
 20 19  1  0  0  0  0
 20 18  1  0  0  0  0
 21 23  1  1  0  0  0
 22 17  1  6  0  0  0
 22 21  1  0  0  0  0
 23 27  2  0  0  0  0
 25 26  2  0  0  0  0
 26 27  1  0  0  0  0
 26 24  1  0  0  0  0
 28 21  1  0  0  0  0
 28 25  1  0  0  0  0
 29 30  1  0  0  0  0
 30 31  1  0  0  0  0
 31 32  1  0  0  0  0
 32 34  1  0  0  0  0
 33 35  1  0  0  0  0
 34 33  1  0  0  0  0
 34 35  1  0  0  0  0
M  END
>  <MODEL>
6

>  <REMARK>
 VINA RESULT:      -7.1      1.286      1.704
  Name = 
  10 active torsions:
  status: ('A' for Active; 'I' for Inactive)
    1  A    between atoms: C_1  and  O_34
    2  A    between atoms: C_5  and  C_15
    3  A    between atoms: C_9  and  N_31
    4  A    between atoms: O_10  and  C_11
    5  A    between atoms: O_10  and  C_30
    6  A    between atoms: C_14  and  O_34
    7  A    between atoms: S_16  and  C_17
    8  A    between atoms: S_16  and  C_30
    9  A    between atoms: C_17  and  C_22
   10  A    between atoms: C_25  and  C_35
                            x       y       z     vdW  Elec       q    Type
                         _______ _______ _______ _____ _____    ______ ____

>  <TORSDO>
F 10

$$$$
=
 OpenBabel11042411533D

 35 39  0  0  1  0  0  0  0  0999 V2000
  184.5820  178.9270  142.4050 C   0  0  0  0  0  0  0  0  0  0  0  0
  183.6540  178.8200  141.3590 C   0  0  0  0  0  3  0  0  0  0  0  0
  184.1180  178.8470  143.7370 C   0  0  0  0  0  0  0  0  0  0  0  0
  181.8760  178.5660  142.9270 N   0  0  0  0  0  0  0  0  0  0  0  0
  182.7450  178.6650  143.9670 C   0  0  0  0  0  3  0  0  0  0  0  0
  182.2990  178.6290  141.6360 C   0  0  0  0  0  0  0  0  0  0  0  0
  181.0350  177.1360  140.1750 C   0  0  2  0  0  3  0  0  0  0  0  0
  180.1460  177.8950  140.9540 O   0  0  0  0  0  0  0  0  0  0  0  0
  181.3130  178.5490  140.5170 C   0  0  1  0  0  3  0  0  0  0  0  0
  180.5480  177.0590  138.8610 O   0  0  0  0  0  0  0  0  0  0  0  0
  180.3780  175.6970  138.5400 C   0  0  0  0  0  0  0  0  0  0  0  0
  180.8400  174.8840  139.5660 F   0  0  0  0  0  0  0  0  0  0  0  0
  179.0440  175.4170  138.2800 F   0  0  0  0  0  0  0  0  0  0  0  0
  181.1100  175.4190  137.4020 F   0  0  0  0  0  0  0  0  0  0  0  0
  186.0110  179.1270  142.0670 C   0  0  0  0  0  0  0  0  0  0  0  0
  186.3750  180.1090  141.3650 O   0  0  0  0  0  0  0  0  0  0  0  0
  186.9880  178.2000  142.5500 N   0  0  0  0  0  2  0  0  0  0  0  0
  190.2160  176.0050  142.0920 N   0  0  0  0  0  0  0  0  0  0  0  0
  189.2510  177.8270  143.3810 C   0  0  0  0  0  2  0  0  0  0  0  0
  189.5240  176.3260  143.3350 C   0  0  0  0  0  2  0  0  0  0  0  0
  188.6380  177.4450  140.9000 C   0  0  1  0  0  3  0  0  0  0  0  0
  188.3970  178.2700  142.1840 C   0  0  1  0  0  3  0  0  0  0  0  0
  188.6700  178.3190  139.6770 C   0  0  0  0  0  3  0  0  0  0  0  0
  191.2290  176.4160  137.2120 Cl  0  0  0  0  0  0  0  0  0  0  0  0
  190.5380  176.1920  139.7560 N   0  0  0  0  0  0  0  0  0  0  0  0
  190.3400  176.8530  138.6540 C   0  0  0  0  0  0  0  0  0  0  0  0
  189.4320  178.0180  138.6230 C   0  0  0  0  0  3  0  0  0  0  0  0
  189.8370  176.5210  140.9610 C   0  0  0  0  0  0  0  0  0  0  0  0
  185.0140  178.9430  144.8090 O   0  0  0  0  0  0  0  0  0  0  0  0
  184.6650  178.6320  146.1540 C   0  0  0  0  0  2  0  0  0  0  0  0
  186.0630  178.9910  147.2620 S   0  0  0  0  0  0  0  0  0  0  0  0
  187.1450  177.7990  146.4220 C   0  0  0  0  0  2  0  0  0  0  0  0
  189.1540  176.7540  147.4030 C   0  0  0  0  0  2  0  0  0  0  0  0
  188.5860  178.0360  146.8290 C   0  0  0  0  0  3  0  0  0  0  0  0
  188.7120  177.8670  148.3280 C   0  0  0  0  0  2  0  0  0  0  0  0
  1  3  1  0  0  0  0
  2  6  1  0  0  0  0
  2  1  2  0  0  0  0
  3  5  2  0  0  0  0
  3 29  1  0  0  0  0
  4  5  1  0  0  0  0
  6  4  2  0  0  0  0
  7 10  1  6  0  0  0
  7  9  1  0  0  0  0
  7  8  1  0  0  0  0
  9  8  1  0  0  0  0
  9  6  1  1  0  0  0
 11 10  1  0  0  0  0
 11 12  1  0  0  0  0
 13 11  1  0  0  0  0
 14 11  1  0  0  0  0
 15  1  1  0  0  0  0
 15 17  1  0  0  0  0
 16 15  2  0  0  0  0
 18 20  1  0  0  0  0
 20 19  1  0  0  0  0
 21 23  1  6  0  0  0
 21 28  1  0  0  0  0
 21 22  1  0  0  0  0
 22 17  1  1  0  0  0
 22 19  1  0  0  0  0
 24 26  1  0  0  0  0
 25 28  1  0  0  0  0
 26 25  2  0  0  0  0
 27 26  1  0  0  0  0
 27 23  2  0  0  0  0
 28 18  2  0  0  0  0
 29 30  1  0  0  0  0
 30 31  1  0  0  0  0
 32 34  1  0  0  0  0
 32 31  1  0  0  0  0
 33 35  1  0  0  0  0
 34 33  1  0  0  0  0
 34 35  1  0  0  0  0
M  END
>  <MODEL>
7

>  <REMARK>
 VINA RESULT:      -7.1      5.120      8.267
  Name = 
  10 active torsions:
  status: ('A' for Active; 'I' for Inactive)
    1  A    between atoms: C_1  and  O_34
    2  A    between atoms: C_5  and  C_15
    3  A    between atoms: C_9  and  N_31
    4  A    between atoms: O_10  and  C_11
    5  A    between atoms: O_10  and  C_30
    6  A    between atoms: C_14  and  O_34
    7  A    between atoms: S_16  and  C_17
    8  A    between atoms: S_16  and  C_30
    9  A    between atoms: C_17  and  C_22
   10  A    between atoms: C_25  and  C_35
                            x       y       z     vdW  Elec       q    Type
                         _______ _______ _______ _____ _____    ______ ____

>  <TORSDO>
F 10

$$$$
=
 OpenBabel11042411533D

 35 39  0  0  1  0  0  0  0  0999 V2000
  184.9910  178.5630  142.8570 C   0  0  0  0  0  0  0  0  0  0  0  0
  186.1990  177.9870  143.2750 C   0  0  0  0  0  3  0  0  0  0  0  0
  184.0330  178.9170  143.8320 C   0  0  0  0  0  0  0  0  0  0  0  0
  185.5050  178.1200  145.5530 N   0  0  0  0  0  0  0  0  0  0  0  0
  184.3230  178.6800  145.1860 C   0  0  0  0  0  3  0  0  0  0  0  0
  186.4480  177.7800  144.6330 C   0  0  0  0  0  0  0  0  0  0  0  0
  188.8190  178.1330  145.1030 C   0  0  2  0  0  3  0  0  0  0  0  0
  188.1650  177.7140  146.2730 O   0  0  0  0  0  0  0  0  0  0  0  0
  187.7240  177.1360  145.0670 C   0  0  1  0  0  3  0  0  0  0  0  0
  190.0540  177.4750  145.0030 O   0  0  0  0  0  0  0  0  0  0  0  0
  190.8090  178.1200  144.0020 C   0  0  0  0  0  0  0  0  0  0  0  0
  191.0010  179.4600  144.3100 F   0  0  0  0  0  0  0  0  0  0  0  0
  192.0360  177.4950  143.8330 F   0  0  0  0  0  0  0  0  0  0  0  0
  190.1150  178.0440  142.8100 F   0  0  0  0  0  0  0  0  0  0  0  0
  184.7690  178.7680  141.4060 C   0  0  0  0  0  0  0  0  0  0  0  0
  185.3000  179.7390  140.8040 O   0  0  0  0  0  0  0  0  0  0  0  0
  183.9490  177.8470  140.6790 N   0  0  0  0  0  2  0  0  0  0  0  0
  181.2710  176.8910  137.9660 N   0  0  0  0  0  0  0  0  0  0  0  0
  183.6150  176.6650  138.5720 C   0  0  0  0  0  2  0  0  0  0  0  0
  182.2360  176.0120  138.6150 C   0  0  0  0  0  2  0  0  0  0  0  0
  182.2550  178.7790  139.1710 C   0  0  1  0  0  3  0  0  0  0  0  0
  183.6020  178.0300  139.2760 C   0  0  1  0  0  3  0  0  0  0  0  0
  182.4550  180.2470  138.9180 C   0  0  0  0  0  3  0  0  0  0  0  0
  179.2320  181.2880  136.7320 Cl  0  0  0  0  0  0  0  0  0  0  0  0
  180.3150  179.0110  137.5370 N   0  0  0  0  0  0  0  0  0  0  0  0
  180.4230  180.3070  137.5570 C   0  0  0  0  0  0  0  0  0  0  0  0
  181.5810  180.9590  138.2020 C   0  0  0  0  0  3  0  0  0  0  0  0
  181.2710  178.1700  138.1930 C   0  0  0  0  0  0  0  0  0  0  0  0
  182.8160  179.5000  143.4560 O   0  0  0  0  0  0  0  0  0  0  0  0
  181.7550  178.7750  142.8440 C   0  0  0  0  0  2  0  0  0  0  0  0
  180.3500  178.6360  143.9930 S   0  0  0  0  0  0  0  0  0  0  0  0
  179.4100  179.9300  143.1330 C   0  0  0  0  0  2  0  0  0  0  0  0
  179.1920  181.2360  141.0500 C   0  0  0  0  0  2  0  0  0  0  0  0
  179.9840  180.1500  141.7470 C   0  0  0  0  0  3  0  0  0  0  0  0
  178.9400  179.7820  140.7140 C   0  0  0  0  0  2  0  0  0  0  0  0
  1  2  2  0  0  0  0
  1  3  1  0  0  0  0
  2  6  1  0  0  0  0
  3  5  2  0  0  0  0
  5  4  1  0  0  0  0
  6  4  2  0  0  0  0
  7 10  1  1  0  0  0
  7  8  1  0  0  0  0
  9  6  1  6  0  0  0
  9  7  1  0  0  0  0
  9  8  1  0  0  0  0
 11 12  1  0  0  0  0
 11 10  1  0  0  0  0
 13 11  1  0  0  0  0
 14 11  1  0  0  0  0
 15  1  1  0  0  0  0
 16 15  2  0  0  0  0
 17 15  1  0  0  0  0
 18 28  2  0  0  0  0
 18 20  1  0  0  0  0
 19 20  1  0  0  0  0
 19 22  1  0  0  0  0
 21 23  1  6  0  0  0
 21 22  1  0  0  0  0
 22 17  1  1  0  0  0
 24 26  1  0  0  0  0
 25 26  2  0  0  0  0
 25 28  1  0  0  0  0
 26 27  1  0  0  0  0
 27 23  2  0  0  0  0
 28 21  1  0  0  0  0
 29  3  1  0  0  0  0
 30 29  1  0  0  0  0
 30 31  1  0  0  0  0
 32 31  1  0  0  0  0
 33 34  1  0  0  0  0
 34 32  1  0  0  0  0
 35 33  1  0  0  0  0
 35 34  1  0  0  0  0
M  END
>  <MODEL>
8

>  <REMARK>
 VINA RESULT:      -7.1      4.621      6.349
  Name = 
  10 active torsions:
  status: ('A' for Active; 'I' for Inactive)
    1  A    between atoms: C_1  and  O_34
    2  A    between atoms: C_5  and  C_15
    3  A    between atoms: C_9  and  N_31
    4  A    between atoms: O_10  and  C_11
    5  A    between atoms: O_10  and  C_30
    6  A    between atoms: C_14  and  O_34
    7  A    between atoms: S_16  and  C_17
    8  A    between atoms: S_16  and  C_30
    9  A    between atoms: C_17  and  C_22
   10  A    between atoms: C_25  and  C_35
                            x       y       z     vdW  Elec       q    Type
                         _______ _______ _______ _____ _____    ______ ____

>  <TORSDO>
F 10

$$$$
=
 OpenBabel11042411533D

 35 39  0  0  1  0  0  0  0  0999 V2000
  189.0030  177.8300  142.1860 C   0  0  0  0  0  0  0  0  0  0  0  0
  189.3450  178.0150  143.5330 C   0  0  0  0  0  3  0  0  0  0  0  0
  189.7970  176.9710  141.3940 C   0  0  0  0  0  0  0  0  0  0  0  0
  191.2020  176.5390  143.2920 N   0  0  0  0  0  0  0  0  0  0  0  0
  190.9010  176.3340  141.9830 C   0  0  0  0  0  3  0  0  0  0  0  0
  190.4470  177.3520  144.0780 C   0  0  0  0  0  0  0  0  0  0  0  0
  189.9460  176.7960  146.4030 C   0  0  2  0  0  3  0  0  0  0  0  0
  191.2480  176.3720  146.0870 O   0  0  0  0  0  0  0  0  0  0  0  0
  190.8240  177.5820  145.5050 C   0  0  1  0  0  3  0  0  0  0  0  0
  189.9450  177.3760  147.6810 O   0  0  0  0  0  0  0  0  0  0  0  0
  188.6040  177.5390  148.0820 C   0  0  0  0  0  0  0  0  0  0  0  0
  187.9760  176.3100  148.2280 F   0  0  0  0  0  0  0  0  0  0  0  0
  188.5300  178.2500  149.2710 F   0  0  0  0  0  0  0  0  0  0  0  0
  187.9370  178.2550  147.1060 F   0  0  0  0  0  0  0  0  0  0  0  0
  187.8240  178.5500  141.6490 C   0  0  0  0  0  0  0  0  0  0  0  0
  187.9520  179.3840  140.7120 O   0  0  0  0  0  0  0  0  0  0  0  0
  186.5270  178.2900  142.1940 N   0  0  0  0  0  2  0  0  0  0  0  0
  183.0710  177.8850  140.3670 N   0  0  0  0  0  0  0  0  0  0  0  0
  185.2270  179.0040  140.2580 C   0  0  0  0  0  2  0  0  0  0  0  0
  184.4040  177.8120  139.7810 C   0  0  0  0  0  2  0  0  0  0  0  0
  184.1010  178.4420  142.5150 C   0  0  1  0  0  3  0  0  0  0  0  0
  185.3350  179.0230  141.7900 C   0  0  1  0  0  3  0  0  0  0  0  0
  183.7300  179.2580  143.7210 C   0  0  0  0  0  3  0  0  0  0  0  0
  179.7280  178.8490  143.9600 Cl  0  0  0  0  0  0  0  0  0  0  0  0
  181.5840  178.2610  142.1670 N   0  0  0  0  0  0  0  0  0  0  0  0
  181.3630  178.7790  143.3400 C   0  0  0  0  0  0  0  0  0  0  0  0
  182.4620  179.3790  144.1220 C   0  0  0  0  0  3  0  0  0  0  0  0
  182.9050  178.1900  141.6190 C   0  0  0  0  0  0  0  0  0  0  0  0
  189.4840  176.7540  140.0460 O   0  0  0  0  0  0  0  0  0  0  0  0
  190.4230  176.9130  138.9880 C   0  0  0  0  0  2  0  0  0  0  0  0
  189.8260  176.0670  137.4910 S   0  0  0  0  0  0  0  0  0  0  0  0
  189.4300  177.6330  136.6620 C   0  0  0  0  0  2  0  0  0  0  0  0
  187.1780  178.6270  136.8490 C   0  0  0  0  0  2  0  0  0  0  0  0
  188.0120  177.5880  136.1270 C   0  0  0  0  0  3  0  0  0  0  0  0
  187.0750  177.1680  137.2400 C   0  0  0  0  0  2  0  0  0  0  0  0
  1  2  1  0  0  0  0
  2  6  2  0  0  0  0
  3  5  1  0  0  0  0
  3  1  2  0  0  0  0
  4  6  1  0  0  0  0
  5  4  2  0  0  0  0
  7 10  1  1  0  0  0
  8  7  1  0  0  0  0
  9  6  1  6  0  0  0
  9  8  1  0  0  0  0
  9  7  1  0  0  0  0
 10 11  1  0  0  0  0
 11 12  1  0  0  0  0
 11 13  1  0  0  0  0
 14 11  1  0  0  0  0
 15  1  1  0  0  0  0
 15 17  1  0  0  0  0
 16 15  2  0  0  0  0
 18 28  2  0  0  0  0
 19 22  1  0  0  0  0
 20 19  1  0  0  0  0
 20 18  1  0  0  0  0
 21 23  1  1  0  0  0
 22 17  1  6  0  0  0
 22 21  1  0  0  0  0
 23 27  2  0  0  0  0
 25 26  2  0  0  0  0
 26 24  1  0  0  0  0
 26 27  1  0  0  0  0
 28 25  1  0  0  0  0
 28 21  1  0  0  0  0
 29  3  1  0  0  0  0
 30 29  1  0  0  0  0
 31 30  1  0  0  0  0
 32 31  1  0  0  0  0
 33 35  1  0  0  0  0
 34 32  1  0  0  0  0
 34 33  1  0  0  0  0
 34 35  1  0  0  0  0
M  END
>  <MODEL>
9

>  <REMARK>
 VINA RESULT:      -7.1      4.341      6.689
  Name = 
  10 active torsions:
  status: ('A' for Active; 'I' for Inactive)
    1  A    between atoms: C_1  and  O_34
    2  A    between atoms: C_5  and  C_15
    3  A    between atoms: C_9  and  N_31
    4  A    between atoms: O_10  and  C_11
    5  A    between atoms: O_10  and  C_30
    6  A    between atoms: C_14  and  O_34
    7  A    between atoms: S_16  and  C_17
    8  A    between atoms: S_16  and  C_30
    9  A    between atoms: C_17  and  C_22
   10  A    between atoms: C_25  and  C_35
                            x       y       z     vdW  Elec       q    Type
                         _______ _______ _______ _____ _____    ______ ____

>  <TORSDO>
F 10

$$$$
