=
 OpenBabel11042411033D

 39 43  0  0  1  0  0  0  0  0999 V2000
  186.2090  177.1930  137.1600 O   0  0  0  0  0  0  0  0  0  0  0  0
  188.4040  178.3960  140.7590 O   0  0  0  0  0  0  0  0  0  0  0  0
  183.8750  177.4930  137.8670 C   0  0  0  0  0  3  0  0  0  0  0  0
  186.3450  177.9320  139.3160 C   0  0  2  0  0  3  0  0  0  0  0  0
  187.7580  178.2530  139.6870 C   0  0  0  0  0  0  0  0  0  0  0  0
  184.8300  176.9240  137.0930 C   0  0  0  0  0  3  0  0  0  0  0  0
  188.1060  178.2070  138.2510 N   0  0  0  0  0  0  0  0  0  0  0  0
  186.6870  178.2410  137.9770 C   0  0  1  0  0  3  0  0  0  0  0  0
  183.9860  178.4950  138.9900 C   0  0  0  0  0  0  0  0  0  0  0  0
  185.1510  178.7730  139.6370 C   0  0  0  0  0  0  0  0  0  0  0  0
  182.2740  180.2920  138.6690 C   0  0  0  0  0  3  0  0  0  0  0  0
  181.0930  180.8780  138.9980 N   0  0  0  0  0  0  0  0  0  0  0  0
  180.3330  180.4030  139.9840 N   0  0  0  0  0  0  0  0  0  0  0  0
  181.9060  178.6740  140.4060 C   0  0  0  0  0  3  0  0  0  0  0  0
  180.7060  179.3110  140.7020 C   0  0  0  0  0  3  0  0  0  0  0  0
  182.7180  179.1700  139.3780 C   0  0  0  0  0  0  0  0  0  0  0  0
  189.3320  178.3160  137.4780 C   0  0  0  0  0  2  0  0  0  0  0  0
  189.9220  176.9380  137.2120 C   0  0  0  0  0  2  0  0  0  0  0  0
  191.4750  177.5990  139.0930 N   0  0  0  0  0  2  0  0  0  0  0  0
  190.9290  176.5770  138.2550 C   0  0  0  0  0  0  0  0  0  0  0  0
  191.2200  175.3330  138.4560 N   0  0  0  0  0  2  0  0  0  0  0  0
  191.3810  177.2980  141.5070 C   0  0  0  0  0  1  0  0  0  0  0  0
  192.2690  177.3070  140.2770 C   0  0  0  0  0  2  0  0  0  0  0  0
  185.2040  179.8120  140.5740 O   0  0  0  0  0  0  0  0  0  0  0  0
  185.8280  179.6810  141.7500 O   0  0  0  0  0  0  0  0  0  0  0  0
  184.8180  179.3330  142.6480 C   0  0  2  0  0  3  0  0  0  0  0  0
  184.8820  180.1650  143.7640 O   0  0  0  0  0  1  0  0  0  0  0  0
  184.9920  177.8920  143.0920 C   0  0  0  0  0  2  0  0  0  0  0  0
  186.7900  177.7220  145.0620 C   0  0  0  0  0  0  0  0  0  0  0  0
  185.9810  177.7920  144.1700 C   0  0  0  0  0  0  0  0  0  0  0  0
  187.7500  177.6420  146.1280 C   0  0  0  0  0  0  0  0  0  0  0  0
  191.8530  176.7290  146.3640 N   0  0  0  0  0  0  0  0  0  0  0  0
  189.6880  177.3450  147.3330 C   0  0  0  0  0  0  0  0  0  0  0  0
  189.1560  177.3200  146.0030 C   0  0  0  0  0  0  0  0  0  0  0  0
  188.7240  177.6500  148.1930 C   0  0  0  0  0  3  0  0  0  0  0  0
  191.1280  177.0520  147.6110 C   0  0  0  0  0  3  0  0  0  0  0  0
  189.8980  177.0220  144.9410 C   0  0  0  0  0  3  0  0  0  0  0  0
  191.3270  176.7120  145.1660 C   0  0  0  0  0  3  0  0  0  0  0  0
  187.4780  177.8380  147.4150 C   0  0  0  0  0  2  0  0  0  0  0  0
  3  9  1  0  0  0  0
  4 10  1  1  0  0  0
  4  5  1  0  0  0  0
  5  2  2  0  0  0  0
  6  1  1  0  0  0  0
  6  3  2  0  0  0  0
  7  5  1  0  0  0  0
  8  1  1  6  0  0  0
  8  7  1  0  0  0  0
  8  4  1  0  0  0  0
  9 16  1  0  0  0  0
  9 10  2  0  0  0  0
 10 24  1  0  0  0  0
 11 12  2  0  0  0  0
 11 16  1  0  0  0  0
 12 13  1  0  0  0  0
 13 15  2  0  0  0  0
 14 15  1  0  0  0  0
 16 14  2  0  0  0  0
 17  7  1  0  0  0  0
 18 17  1  0  0  0  0
 18 20  1  0  0  0  0
 19 23  1  0  0  0  0
 20 21  2  0  0  0  0
 20 19  1  0  0  0  0
 23 22  1  0  0  0  0
 24 25  1  0  0  0  0
 25 26  1  0  0  0  0
 26 28  1  0  0  0  0
 26 27  1  1  0  0  0
 28 30  1  0  0  0  0
 29 31  1  0  0  0  0
 30 29  3  0  0  0  0
 31 39  1  0  0  0  0
 32 36  2  0  0  0  0
 33 36  1  0  0  0  0
 33 35  2  0  0  0  0
 34 31  2  0  0  0  0
 34 33  1  0  0  0  0
 37 38  2  0  0  0  0
 37 34  1  0  0  0  0
 38 32  1  0  0  0  0
 39 35  1  0  0  0  0
M  END
>  <MODEL>
1

>  <REMARK>
 VINA RESULT:      -8.9      0.000      0.000
  Name = 
  11 active torsions:
  status: ('A' for Active; 'I' for Inactive)
    1  A    between atoms: C_1  and  C_5
    2  A    between atoms: N_7  and  C_26
    3  A    between atoms: C_8  and  C_15
    4  A    between atoms: C_8  and  O_17
    5  A    between atoms: C_10  and  C_38
    6  A    between atoms: C_15  and  C_19
    7  A    between atoms: O_17  and  O_37
    8  A    between atoms: C_24  and  N_30
    9  A    between atoms: C_24  and  C_38
   10  A    between atoms: C_32  and  C_34
   11  A    between atoms: C_35  and  O_37
                            x       y       z     vdW  Elec       q    Type
                         _______ _______ _______ _____ _____    ______ ____

>  <TORSDO>
F 11

$$$$
=
 OpenBabel11042411033D

 39 43  0  0  1  0  0  0  0  0999 V2000
  187.5780  178.8140  137.7590 O   0  0  0  0  0  0  0  0  0  0  0  0
  188.0500  178.8800  142.1170 O   0  0  0  0  0  0  0  0  0  0  0  0
  189.7690  177.9800  137.0250 C   0  0  0  0  0  3  0  0  0  0  0  0
  188.7570  178.5010  139.6890 C   0  0  2  0  0  3  0  0  0  0  0  0
  187.8770  178.6580  140.8890 C   0  0  0  0  0  0  0  0  0  0  0  0
  188.6190  178.6650  136.8240 C   0  0  0  0  0  3  0  0  0  0  0  0
  186.7040  178.5700  139.9940 N   0  0  0  0  0  0  0  0  0  0  0  0
  187.6070  178.0900  138.9720 C   0  0  1  0  0  3  0  0  0  0  0  0
  190.2780  177.2450  138.2420 C   0  0  0  0  0  0  0  0  0  0  0  0
  189.7680  177.4180  139.4910 C   0  0  0  0  0  0  0  0  0  0  0  0
  192.7210  176.7020  138.2910 C   0  0  0  0  0  3  0  0  0  0  0  0
  193.7450  175.8280  138.1120 N   0  0  0  0  0  0  0  0  0  0  0  0
  193.5320  174.5880  137.6710 N   0  0  0  0  0  0  0  0  0  0  0  0
  191.1960  175.0000  137.5480 C   0  0  0  0  0  3  0  0  0  0  0  0
  192.2800  174.1450  137.3820 C   0  0  0  0  0  3  0  0  0  0  0  0
  191.4090  176.3080  138.0010 C   0  0  0  0  0  0  0  0  0  0  0  0
  185.2650  178.6920  140.1580 C   0  0  0  0  0  2  0  0  0  0  0  0
  184.8410  178.2170  141.5410 C   0  0  0  0  0  2  0  0  0  0  0  0
  182.7500  178.9460  142.7570 N   0  0  0  0  0  2  0  0  0  0  0  0
  183.3540  178.2280  141.6780 C   0  0  0  0  0  0  0  0  0  0  0  0
  182.6260  177.6750  140.7630 N   0  0  0  0  0  2  0  0  0  0  0  0
  180.7100  178.4420  143.9870 C   0  0  0  0  0  1  0  0  0  0  0  0
  181.3200  179.2060  142.8270 C   0  0  0  0  0  2  0  0  0  0  0  0
  190.1980  176.6010  140.5450 O   0  0  0  0  0  0  0  0  0  0  0  0
  190.8530  177.0890  141.6050 O   0  0  0  0  0  0  0  0  0  0  0  0
  191.0350  175.9880  142.4430 C   0  0  2  0  0  3  0  0  0  0  0  0
  189.7970  175.4200  142.7390 O   0  0  0  0  0  1  0  0  0  0  0  0
  191.7030  176.4220  143.7350 C   0  0  0  0  0  2  0  0  0  0  0  0
  189.8770  177.2020  145.5230 C   0  0  0  0  0  0  0  0  0  0  0  0
  190.7060  176.8500  144.7210 C   0  0  0  0  0  0  0  0  0  0  0  0
  188.8840  177.6200  146.4730 C   0  0  0  0  0  0  0  0  0  0  0  0
  184.8220  178.7030  146.2410 N   0  0  0  0  0  0  0  0  0  0  0  0
  186.9210  178.3220  147.4480 C   0  0  0  0  0  0  0  0  0  0  0  0
  187.5000  177.9410  146.1940 C   0  0  0  0  0  0  0  0  0  0  0  0
  187.8380  178.2480  148.4040 C   0  0  0  0  0  3  0  0  0  0  0  0
  185.4870  178.7330  147.5610 C   0  0  0  0  0  3  0  0  0  0  0  0
  186.8110  177.9410  145.0580 C   0  0  0  0  0  3  0  0  0  0  0  0
  185.3900  178.3530  145.1160 C   0  0  0  0  0  3  0  0  0  0  0  0
  189.1010  177.7990  147.7730 C   0  0  0  0  0  2  0  0  0  0  0  0
  3  9  1  0  0  0  0
  4 10  1  1  0  0  0
  4  5  1  0  0  0  0
  5  2  2  0  0  0  0
  6  3  2  0  0  0  0
  6  1  1  0  0  0  0
  7 17  1  0  0  0  0
  7  5  1  0  0  0  0
  8  1  1  6  0  0  0
  8  4  1  0  0  0  0
  8  7  1  0  0  0  0
  9 10  2  0  0  0  0
 10 24  1  0  0  0  0
 12 11  1  0  0  0  0
 13 12  2  0  0  0  0
 14 16  1  0  0  0  0
 15 14  2  0  0  0  0
 15 13  1  0  0  0  0
 16  9  1  0  0  0  0
 16 11  2  0  0  0  0
 17 18  1  0  0  0  0
 18 20  1  0  0  0  0
 19 23  1  0  0  0  0
 20 19  1  0  0  0  0
 21 20  2  0  0  0  0
 23 22  1  0  0  0  0
 24 25  1  0  0  0  0
 25 26  1  0  0  0  0
 26 27  1  1  0  0  0
 26 28  1  0  0  0  0
 28 30  1  0  0  0  0
 29 31  1  0  0  0  0
 30 29  3  0  0  0  0
 31 39  1  0  0  0  0
 32 36  2  0  0  0  0
 33 36  1  0  0  0  0
 33 35  2  0  0  0  0
 34 31  2  0  0  0  0
 34 33  1  0  0  0  0
 37 38  2  0  0  0  0
 37 34  1  0  0  0  0
 38 32  1  0  0  0  0
 39 35  1  0  0  0  0
M  END
>  <MODEL>
2

>  <REMARK>
 VINA RESULT:      -8.7      2.393      7.154
  Name = 
  11 active torsions:
  status: ('A' for Active; 'I' for Inactive)
    1  A    between atoms: C_1  and  C_5
    2  A    between atoms: N_7  and  C_26
    3  A    between atoms: C_8  and  C_15
    4  A    between atoms: C_8  and  O_17
    5  A    between atoms: C_10  and  C_38
    6  A    between atoms: C_15  and  C_19
    7  A    between atoms: O_17  and  O_37
    8  A    between atoms: C_24  and  N_30
    9  A    between atoms: C_24  and  C_38
   10  A    between atoms: C_32  and  C_34
   11  A    between atoms: C_35  and  O_37
                            x       y       z     vdW  Elec       q    Type
                         _______ _______ _______ _____ _____    ______ ____

>  <TORSDO>
F 11

$$$$
=
 OpenBabel11042411033D

 39 43  0  0  1  0  0  0  0  0999 V2000
  183.2420  176.2580  137.2870 O   0  0  0  0  0  0  0  0  0  0  0  0
  183.9850  180.1840  139.0900 O   0  0  0  0  0  0  0  0  0  0  0  0
  185.2110  175.9820  135.8450 C   0  0  0  0  0  3  0  0  0  0  0  0
  184.4590  178.1650  137.5940 C   0  0  2  0  0  3  0  0  0  0  0  0
  183.9020  178.9850  138.7160 C   0  0  0  0  0  0  0  0  0  0  0  0
  183.9260  175.7210  136.1820 C   0  0  0  0  0  3  0  0  0  0  0  0
  183.1060  177.8090  139.1290 N   0  0  0  0  0  0  0  0  0  0  0  0
  183.9400  177.0210  138.2490 C   0  0  1  0  0  3  0  0  0  0  0  0
  186.2300  176.8950  136.4820 C   0  0  0  0  0  0  0  0  0  0  0  0
  185.9080  177.8800  137.3650 C   0  0  0  0  0  0  0  0  0  0  0  0
  188.2180  177.4620  135.0710 C   0  0  0  0  0  3  0  0  0  0  0  0
  189.5210  177.2820  134.7310 N   0  0  0  0  0  0  0  0  0  0  0  0
  190.2780  176.3670  135.3370 N   0  0  0  0  0  0  0  0  0  0  0  0
  188.4490  175.7180  136.7070 C   0  0  0  0  0  3  0  0  0  0  0  0
  189.7780  175.5750  136.3220 C   0  0  0  0  0  3  0  0  0  0  0  0
  187.6420  176.6700  136.0710 C   0  0  0  0  0  0  0  0  0  0  0  0
  182.0980  177.5460  140.1420 C   0  0  0  0  0  2  0  0  0  0  0  0
  181.5430  178.8520  140.6980 C   0  0  0  0  0  2  0  0  0  0  0  0
  183.0490  178.6090  142.7120 N   0  0  0  0  0  2  0  0  0  0  0  0
  181.7690  178.9440  142.1710 C   0  0  0  0  0  0  0  0  0  0  0  0
  180.8370  179.4230  142.9290 N   0  0  0  0  0  2  0  0  0  0  0  0
  184.6310  179.8140  144.1150 C   0  0  0  0  0  1  0  0  0  0  0  0
  183.4230  178.8960  144.0880 C   0  0  0  0  0  2  0  0  0  0  0  0
  186.9190  178.5950  138.0180 O   0  0  0  0  0  0  0  0  0  0  0  0
  187.0950  178.5330  139.3430 O   0  0  0  0  0  0  0  0  0  0  0  0
  188.4760  178.6300  139.5200 C   0  0  2  0  0  3  0  0  0  0  0  0
  189.0870  178.8480  138.2860 O   0  0  0  0  0  1  0  0  0  0  0  0
  189.0150  177.3430  140.1190 C   0  0  0  0  0  2  0  0  0  0  0  0
  188.7440  177.3570  142.7780 C   0  0  0  0  0  0  0  0  0  0  0  0
  188.8720  177.3460  141.5780 C   0  0  0  0  0  0  0  0  0  0  0  0
  188.5860  177.3750  144.2060 C   0  0  0  0  0  0  0  0  0  0  0  0
  191.1540  176.7490  147.4830 N   0  0  0  0  0  0  0  0  0  0  0  0
  188.9780  177.2450  146.4690 C   0  0  0  0  0  0  0  0  0  0  0  0
  189.6200  177.1450  145.1930 C   0  0  1  0  0  3  0  0  0  0  0  0
  187.6880  177.5080  146.3010 C   0  0  0  0  0  3  0  0  0  0  0  0
  189.7330  177.0580  147.7470 C   0  0  0  0  0  3  0  0  0  0  0  0
  190.9130  176.8670  145.0610 C   0  0  0  0  0  3  0  0  0  0  0  0
  191.7000  176.6610  146.2980 C   0  0  0  0  0  3  0  0  0  0  0  0
  187.4390  177.5890  144.8430 C   0  0  0  0  0  3  0  0  0  0  0  0
  3  6  2  0  0  0  0
  3  9  1  0  0  0  0
  4 10  1  1  0  0  0
  4  8  1  0  0  0  0
  4  5  1  0  0  0  0
  5  2  2  0  0  0  0
  5  7  1  0  0  0  0
  6  1  1  0  0  0  0
  7 17  1  0  0  0  0
  8  1  1  6  0  0  0
  8  7  1  0  0  0  0
  9 10  2  0  0  0  0
 10 24  1  0  0  0  0
 11 16  1  0  0  0  0
 12 11  2  0  0  0  0
 12 13  1  0  0  0  0
 13 15  2  0  0  0  0
 15 14  1  0  0  0  0
 16  9  1  0  0  0  0
 16 14  2  0  0  0  0
 17 18  1  0  0  0  0
 18 20  1  0  0  0  0
 19 23  1  0  0  0  0
 20 19  1  0  0  0  0
 20 21  2  0  0  0  0
 23 22  1  0  0  0  0
 24 25  1  0  0  0  0
 25 26  1  0  0  0  0
 26 27  1  6  0  0  0
 26 28  1  0  0  0  0
 28 30  1  0  0  0  0
 29 31  1  0  0  0  0
 30 29  3  0  0  0  0
 31 39  2  0  0  0  0
 31 34  1  0  0  0  0
 32 36  2  0  0  0  0
 33 36  1  0  0  0  0
 34 37  1  6  0  0  0
 34 33  1  0  0  0  0
 35 33  2  0  0  0  0
 37 38  2  0  0  0  0
 38 32  1  0  0  0  0
 39 35  1  0  0  0  0
M  END
>  <MODEL>
3

>  <REMARK>
 VINA RESULT:      -8.2      2.124      6.084
  Name = 
  11 active torsions:
  status: ('A' for Active; 'I' for Inactive)
    1  A    between atoms: C_1  and  C_5
    2  A    between atoms: N_7  and  C_26
    3  A    between atoms: C_8  and  C_15
    4  A    between atoms: C_8  and  O_17
    5  A    between atoms: C_10  and  C_38
    6  A    between atoms: C_15  and  C_19
    7  A    between atoms: O_17  and  O_37
    8  A    between atoms: C_24  and  N_30
    9  A    between atoms: C_24  and  C_38
   10  A    between atoms: C_32  and  C_34
   11  A    between atoms: C_35  and  O_37
                            x       y       z     vdW  Elec       q    Type
                         _______ _______ _______ _____ _____    ______ ____

>  <TORSDO>
F 11

$$$$
=
 OpenBabel11042411033D

 39 43  0  0  1  0  0  0  0  0999 V2000
  184.1270  177.2010  135.9640 O   0  0  0  0  0  0  0  0  0  0  0  0
  184.9200  179.6360  139.5220 O   0  0  0  0  0  0  0  0  0  0  0  0
  186.3990  176.6310  135.2240 C   0  0  0  0  0  3  0  0  0  0  0  0
  185.5030  178.2190  137.4750 C   0  0  2  0  0  3  0  0  0  0  0  0
  184.7240  178.7750  138.6250 C   0  0  0  0  0  0  0  0  0  0  0  0
  185.0790  176.8280  134.9980 C   0  0  0  0  0  3  0  0  0  0  0  0
  183.5670  177.9680  138.1810 N   0  0  0  0  0  0  0  0  0  0  0  0
  184.4850  177.2450  137.3300 C   0  0  1  0  0  3  0  0  0  0  0  0
  187.2150  176.7770  136.4860 C   0  0  0  0  0  0  0  0  0  0  0  0
  186.7840  177.4560  137.5840 C   0  0  0  0  0  0  0  0  0  0  0  0
  189.6230  176.7680  135.8040 C   0  0  0  0  0  3  0  0  0  0  0  0
  190.8590  176.2030  135.8220 N   0  0  0  0  0  0  0  0  0  0  0  0
  191.0900  175.0580  136.4640 N   0  0  0  0  0  0  0  0  0  0  0  0
  188.8160  174.9410  137.1400 C   0  0  0  0  0  3  0  0  0  0  0  0
  190.1000  174.4060  137.1280 C   0  0  0  0  0  3  0  0  0  0  0  0
  188.5590  176.1390  136.4610 C   0  0  0  0  0  0  0  0  0  0  0  0
  182.1820  177.8260  138.5990 C   0  0  0  0  0  2  0  0  0  0  0  0
  182.0860  176.9700  139.8550 C   0  0  0  0  0  2  0  0  0  0  0  0
  181.6380  178.6110  141.7230 N   0  0  0  0  0  2  0  0  0  0  0  0
  181.1590  177.5840  140.8510 C   0  0  0  0  0  0  0  0  0  0  0  0
  179.9090  177.2530  140.8460 N   0  0  0  0  0  2  0  0  0  0  0  0
  180.4420  178.6930  143.8420 C   0  0  0  0  0  1  0  0  0  0  0  0
  180.7540  179.4210  142.5480 C   0  0  0  0  0  2  0  0  0  0  0  0
  187.5370  177.4310  138.7650 O   0  0  0  0  0  0  0  0  0  0  0  0
  187.8910  178.5500  139.4090 O   0  0  0  0  0  0  0  0  0  0  0  0
  189.1950  178.3070  139.8440 C   0  0  2  0  0  3  0  0  0  0  0  0
  190.0400  178.2020  138.7410 O   0  0  0  0  0  1  0  0  0  0  0  0
  189.2460  177.0110  140.6340 C   0  0  0  0  0  2  0  0  0  0  0  0
  188.2130  177.3450  143.0760 C   0  0  0  0  0  0  0  0  0  0  0  0
  188.6870  177.1940  141.9760 C   0  0  0  0  0  0  0  0  0  0  0  0
  187.6440  177.5240  144.3830 C   0  0  0  0  0  0  0  0  0  0  0  0
  183.9440  178.9010  145.8450 N   0  0  0  0  0  0  0  0  0  0  0  0
  186.2190  178.0300  146.1170 C   0  0  0  0  0  0  0  0  0  0  0  0
  186.3140  178.0070  144.6880 C   0  0  0  0  0  0  0  0  0  0  0  0
  187.3600  177.6080  146.6470 C   0  0  0  0  0  3  0  0  0  0  0  0
  184.9780  178.4850  146.8170 C   0  0  0  0  0  3  0  0  0  0  0  0
  185.3190  178.3980  143.8980 C   0  0  0  0  0  3  0  0  0  0  0  0
  184.0740  178.8700  144.5440 C   0  0  0  0  0  3  0  0  0  0  0  0
  188.2760  177.2860  145.5280 C   0  0  0  0  0  2  0  0  0  0  0  0
  3  9  1  0  0  0  0
  4 10  1  1  0  0  0
  4  5  1  0  0  0  0
  5  2  2  0  0  0  0
  6  3  2  0  0  0  0
  6  1  1  0  0  0  0
  7 17  1  0  0  0  0
  7  5  1  0  0  0  0
  8  1  1  6  0  0  0
  8  4  1  0  0  0  0
  8  7  1  0  0  0  0
  9 10  2  0  0  0  0
 10 24  1  0  0  0  0
 11 12  2  0  0  0  0
 11 16  1  0  0  0  0
 12 13  1  0  0  0  0
 13 15  2  0  0  0  0
 15 14  1  0  0  0  0
 16  9  1  0  0  0  0
 16 14  2  0  0  0  0
 17 18  1  0  0  0  0
 18 20  1  0  0  0  0
 19 23  1  0  0  0  0
 20 19  1  0  0  0  0
 21 20  2  0  0  0  0
 23 22  1  0  0  0  0
 24 25  1  0  0  0  0
 25 26  1  0  0  0  0
 26 27  1  6  0  0  0
 26 28  1  0  0  0  0
 28 30  1  0  0  0  0
 29 31  1  0  0  0  0
 30 29  3  0  0  0  0
 31 34  2  0  0  0  0
 31 39  1  0  0  0  0
 32 36  2  0  0  0  0
 33 35  2  0  0  0  0
 33 36  1  0  0  0  0
 34 33  1  0  0  0  0
 37 38  2  0  0  0  0
 37 34  1  0  0  0  0
 38 32  1  0  0  0  0
 39 35  1  0  0  0  0
M  END
>  <MODEL>
4

>  <REMARK>
 VINA RESULT:      -8.2      2.523      6.853
  Name = 
  11 active torsions:
  status: ('A' for Active; 'I' for Inactive)
    1  A    between atoms: C_1  and  C_5
    2  A    between atoms: N_7  and  C_26
    3  A    between atoms: C_8  and  C_15
    4  A    between atoms: C_8  and  O_17
    5  A    between atoms: C_10  and  C_38
    6  A    between atoms: C_15  and  C_19
    7  A    between atoms: O_17  and  O_37
    8  A    between atoms: C_24  and  N_30
    9  A    between atoms: C_24  and  C_38
   10  A    between atoms: C_32  and  C_34
   11  A    between atoms: C_35  and  O_37
                            x       y       z     vdW  Elec       q    Type
                         _______ _______ _______ _____ _____    ______ ____

>  <TORSDO>
F 11

$$$$
=
 OpenBabel11042411033D

 39 43  0  0  1  0  0  0  0  0999 V2000
  185.9820  178.4430  145.1070 O   0  0  0  0  0  0  0  0  0  0  0  0
  187.0750  178.6280  140.8650 O   0  0  0  0  0  0  0  0  0  0  0  0
  183.6290  179.1460  145.0540 C   0  0  0  0  0  3  0  0  0  0  0  0
  185.5450  178.8460  142.9020 C   0  0  2  0  0  3  0  0  0  0  0  0
  186.6770  178.3920  142.0360 C   0  0  0  0  0  0  0  0  0  0  0  0
  184.8210  178.9930  145.6780 C   0  0  0  0  0  3  0  0  0  0  0  0
  187.2080  177.6380  143.1920 N   0  0  0  0  0  0  0  0  0  0  0  0
  185.9270  177.8450  143.8280 C   0  0  1  0  0  3  0  0  0  0  0  0
  183.2120  178.8310  143.6380 C   0  0  0  0  0  0  0  0  0  0  0  0
  184.0940  178.6120  142.6260 C   0  0  0  0  0  0  0  0  0  0  0  0
  180.9500  177.8390  144.0500 C   0  0  0  0  0  3  0  0  0  0  0  0
  179.6050  177.8330  143.8590 N   0  0  0  0  0  0  0  0  0  0  0  0
  179.0130  178.7210  143.0610 N   0  0  0  0  0  0  0  0  0  0  0  0
  181.1090  179.7220  142.5660 C   0  0  0  0  0  3  0  0  0  0  0  0
  179.7280  179.6720  142.4050 C   0  0  0  0  0  3  0  0  0  0  0  0
  181.7440  178.7880  143.3940 C   0  0  0  0  0  0  0  0  0  0  0  0
  188.4020  176.8510  143.4550 C   0  0  0  0  0  2  0  0  0  0  0  0
  189.5900  177.7590  143.7430 C   0  0  0  0  0  2  0  0  0  0  0  0
  189.0820  177.7910  146.2180 N   0  0  0  0  0  2  0  0  0  0  0  0
  190.0330  177.6250  145.1630 C   0  0  0  0  0  0  0  0  0  0  0  0
  191.2470  177.2600  145.4200 N   0  0  0  0  0  2  0  0  0  0  0  0
  188.2310  177.8930  148.4960 C   0  0  0  0  0  1  0  0  0  0  0  0
  189.3710  177.4450  147.6010 C   0  0  0  0  0  2  0  0  0  0  0  0
  183.6350  178.1910  141.3720 O   0  0  0  0  0  0  0  0  0  0  0  0
  183.2030  179.0520  140.4440 O   0  0  0  0  0  0  0  0  0  0  0  0
  184.2820  179.2000  139.5720 C   0  0  2  0  0  3  0  0  0  0  0  0
  184.2770  180.4890  139.0410 O   0  0  0  0  0  1  0  0  0  0  0  0
  184.1760  178.1970  138.4370 C   0  0  0  0  0  2  0  0  0  0  0  0
  186.5970  177.5740  137.4910 C   0  0  0  0  0  0  0  0  0  0  0  0
  185.5030  177.8590  137.9120 C   0  0  0  0  0  0  0  0  0  0  0  0
  187.9010  177.2310  136.9950 C   0  0  0  0  0  0  0  0  0  0  0  0
  191.6630  176.5490  138.7590 N   0  0  0  0  0  0  0  0  0  0  0  0
  190.1400  176.7210  136.8460 C   0  0  0  0  0  0  0  0  0  0  0  0
  189.0970  177.0180  137.7820 C   0  0  0  0  0  0  0  0  0  0  0  0
  189.6510  176.7440  135.6120 C   0  0  0  0  0  3  0  0  0  0  0  0
  191.5410  176.4460  137.2890 C   0  0  0  0  0  2  0  0  0  0  0  0
  189.3090  177.0820  139.0930 C   0  0  0  0  0  3  0  0  0  0  0  0
  190.6830  176.8290  139.5800 C   0  0  0  0  0  3  0  0  0  0  0  0
  188.2110  177.0750  135.7120 C   0  0  0  0  0  3  0  0  0  0  0  0
  1  6  1  0  0  0  0
  2  5  2  0  0  0  0
  3  6  2  0  0  0  0
  4  5  1  6  0  0  0
  4  8  1  0  0  0  0
  5  7  1  0  0  0  0
  7 17  1  0  0  0  0
  7  8  1  0  0  0  0
  8  1  1  1  0  0  0
  9  3  1  0  0  0  0
 10  4  1  0  0  0  0
 10  9  2  0  0  0  0
 12 11  1  0  0  0  0
 13 12  2  0  0  0  0
 14 16  1  0  0  0  0
 15 14  2  0  0  0  0
 15 13  1  0  0  0  0
 16  9  1  0  0  0  0
 16 11  2  0  0  0  0
 17 18  1  0  0  0  0
 18 20  1  0  0  0  0
 19 23  1  0  0  0  0
 20 21  2  0  0  0  0
 20 19  1  0  0  0  0
 23 22  1  0  0  0  0
 24 10  1  0  0  0  0
 25 24  1  0  0  0  0
 26 27  1  6  0  0  0
 26 25  1  0  0  0  0
 28 26  1  0  0  0  0
 29 30  3  0  0  0  0
 30 28  1  0  0  0  0
 31 29  1  0  0  0  0
 31 34  1  0  0  0  0
 32 38  2  0  0  0  0
 33 36  1  0  0  0  0
 33 34  1  0  0  0  0
 34 37  2  0  0  0  0
 35 39  1  0  0  0  0
 35 33  2  0  0  0  0
 36 32  1  0  0  0  0
 37 38  1  0  0  0  0
 39 31  2  0  0  0  0
M  END
>  <MODEL>
5

>  <REMARK>
 VINA RESULT:      -8.2      2.135      6.690
  Name = 
  11 active torsions:
  status: ('A' for Active; 'I' for Inactive)
    1  A    between atoms: C_1  and  C_5
    2  A    between atoms: N_7  and  C_26
    3  A    between atoms: C_8  and  C_15
    4  A    between atoms: C_8  and  O_17
    5  A    between atoms: C_10  and  C_38
    6  A    between atoms: C_15  and  C_19
    7  A    between atoms: O_17  and  O_37
    8  A    between atoms: C_24  and  N_30
    9  A    between atoms: C_24  and  C_38
   10  A    between atoms: C_32  and  C_34
   11  A    between atoms: C_35  and  O_37
                            x       y       z     vdW  Elec       q    Type
                         _______ _______ _______ _____ _____    ______ ____

>  <TORSDO>
F 11

$$$$
=
 OpenBabel11042411033D

 39 43  0  0  1  0  0  0  0  0999 V2000
  185.6240  177.2280  136.6200 O   0  0  0  0  0  0  0  0  0  0  0  0
  188.2530  178.3410  139.9460 O   0  0  0  0  0  0  0  0  0  0  0  0
  183.3980  177.5020  137.6220 C   0  0  0  0  0  3  0  0  0  0  0  0
  186.0290  177.9090  138.7610 C   0  0  2  0  0  3  0  0  0  0  0  0
  187.4780  178.2260  138.9610 C   0  0  0  0  0  0  0  0  0  0  0  0
  184.2480  176.9570  136.7190 C   0  0  0  0  0  3  0  0  0  0  0  0
  187.6430  178.2190  137.4920 N   0  0  0  0  0  0  0  0  0  0  0  0
  186.2010  178.2560  137.3990 C   0  0  1  0  0  3  0  0  0  0  0  0
  183.6490  178.4740  138.7490 C   0  0  0  0  0  0  0  0  0  0  0  0
  184.8860  178.7380  139.2510 C   0  0  0  0  0  0  0  0  0  0  0  0
  181.8430  178.6360  140.4760 C   0  0  0  0  0  3  0  0  0  0  0  0
  180.7670  179.2690  141.0100 N   0  0  0  0  0  0  0  0  0  0  0  0
  180.2610  180.3690  140.4530 N   0  0  0  0  0  0  0  0  0  0  0  0
  181.9050  180.2960  138.7400 C   0  0  0  0  0  3  0  0  0  0  0  0
  180.8010  180.9060  139.3280 C   0  0  0  0  0  3  0  0  0  0  0  0
  182.4400  179.1340  139.3110 C   0  0  0  0  0  0  0  0  0  0  0  0
  188.7630  178.3530  136.5750 C   0  0  0  0  0  2  0  0  0  0  0  0
  189.0130  177.0420  135.8400 C   0  0  0  0  0  2  0  0  0  0  0  0
  190.6540  176.1900  137.5620 N   0  0  0  0  0  2  0  0  0  0  0  0
  190.3490  176.4780  136.1950 C   0  0  0  0  0  0  0  0  0  0  0  0
  191.1770  176.1610  135.2530 N   0  0  0  0  0  2  0  0  0  0  0  0
  193.0190  176.3480  138.1180 C   0  0  0  0  0  1  0  0  0  0  0  0
  191.8250  175.4250  137.9640 C   0  0  0  0  0  2  0  0  0  0  0  0
  185.0560  179.7520  140.2020 O   0  0  0  0  0  0  0  0  0  0  0  0
  185.7640  179.5680  141.3230 O   0  0  0  0  0  0  0  0  0  0  0  0
  184.8080  179.3000  142.3030 C   0  0  2  0  0  3  0  0  0  0  0  0
  184.9910  180.1670  143.3800 O   0  0  0  0  0  1  0  0  0  0  0  0
  184.9490  177.8690  142.7900 C   0  0  0  0  0  2  0  0  0  0  0  0
  187.4560  177.3530  143.5570 C   0  0  0  0  0  0  0  0  0  0  0  0
  186.3250  177.5930  143.2110 C   0  0  0  0  0  0  0  0  0  0  0  0
  188.8010  177.0600  143.9680 C   0  0  0  0  0  0  0  0  0  0  0  0
  190.8660  177.1260  147.6360 N   0  0  0  0  0  0  0  0  0  0  0  0
  190.7120  176.7700  145.2160 C   0  0  0  0  0  0  0  0  0  0  0  0
  189.3290  177.1290  145.3140 C   0  0  1  0  0  3  0  0  0  0  0  0
  191.0160  176.5050  143.9520 C   0  0  0  0  0  3  0  0  0  0  0  0
  191.6030  176.7320  146.4170 C   0  0  0  0  0  3  0  0  0  0  0  0
  188.7550  177.4630  146.4650 C   0  0  0  0  0  3  0  0  0  0  0  0
  189.6000  177.4530  147.6810 C   0  0  0  0  0  3  0  0  0  0  0  0
  189.7850  176.6960  143.1510 C   0  0  0  0  0  3  0  0  0  0  0  0
  1  6  1  0  0  0  0
  3  9  1  0  0  0  0
  4  5  1  1  0  0  0
  4 10  1  0  0  0  0
  5  2  2  0  0  0  0
  6  3  2  0  0  0  0
  7  5  1  0  0  0  0
  8  1  1  6  0  0  0
  8  7  1  0  0  0  0
  8  4  1  0  0  0  0
  9 10  2  0  0  0  0
  9 16  1  0  0  0  0
 10 24  1  0  0  0  0
 11 12  1  0  0  0  0
 13 12  2  0  0  0  0
 14 16  1  0  0  0  0
 14 15  2  0  0  0  0
 15 13  1  0  0  0  0
 16 11  2  0  0  0  0
 17  7  1  0  0  0  0
 18 20  1  0  0  0  0
 18 17  1  0  0  0  0
 19 23  1  0  0  0  0
 20 19  1  0  0  0  0
 21 20  2  0  0  0  0
 23 22  1  0  0  0  0
 24 25  1  0  0  0  0
 25 26  1  0  0  0  0
 26 28  1  0  0  0  0
 26 27  1  1  0  0  0
 28 30  1  0  0  0  0
 29 31  1  0  0  0  0
 30 29  3  0  0  0  0
 31 34  1  0  0  0  0
 32 38  1  0  0  0  0
 33 34  1  0  0  0  0
 33 36  1  0  0  0  0
 34 37  1  6  0  0  0
 35 33  2  0  0  0  0
 36 32  2  0  0  0  0
 37 38  2  0  0  0  0
 39 35  1  0  0  0  0
 39 31  2  0  0  0  0
M  END
>  <MODEL>
6

>  <REMARK>
 VINA RESULT:      -8.0      1.166      2.033
  Name = 
  11 active torsions:
  status: ('A' for Active; 'I' for Inactive)
    1  A    between atoms: C_1  and  C_5
    2  A    between atoms: N_7  and  C_26
    3  A    between atoms: C_8  and  C_15
    4  A    between atoms: C_8  and  O_17
    5  A    between atoms: C_10  and  C_38
    6  A    between atoms: C_15  and  C_19
    7  A    between atoms: O_17  and  O_37
    8  A    between atoms: C_24  and  N_30
    9  A    between atoms: C_24  and  C_38
   10  A    between atoms: C_32  and  C_34
   11  A    between atoms: C_35  and  O_37
                            x       y       z     vdW  Elec       q    Type
                         _______ _______ _______ _____ _____    ______ ____

>  <TORSDO>
F 11

$$$$
=
 OpenBabel11042411033D

 39 43  0  0  1  0  0  0  0  0999 V2000
  188.1510  176.3590  135.9820 O   0  0  0  0  0  0  0  0  0  0  0  0
  188.4070  179.0890  139.4030 O   0  0  0  0  0  0  0  0  0  0  0  0
  190.5140  175.8030  135.6010 C   0  0  0  0  0  3  0  0  0  0  0  0
  189.2900  177.5340  137.5750 C   0  0  2  0  0  3  0  0  0  0  0  0
  188.3500  178.1540  138.5610 C   0  0  0  0  0  0  0  0  0  0  0  0
  189.2320  175.9410  135.1860 C   0  0  0  0  0  3  0  0  0  0  0  0
  187.2800  177.2800  138.0340 N   0  0  0  0  0  0  0  0  0  0  0  0
  188.3200  176.5210  137.3750 C   0  0  1  0  0  3  0  0  0  0  0  0
  191.1470  176.0720  136.9450 C   0  0  0  0  0  0  0  0  0  0  0  0
  190.5580  176.8210  137.9170 C   0  0  0  0  0  0  0  0  0  0  0  0
  193.6330  176.2900  137.1460 C   0  0  0  0  0  3  0  0  0  0  0  0
  194.8560  175.7480  137.3810 N   0  0  0  0  0  0  0  0  0  0  0  0
  195.0030  174.4460  137.6270 N   0  0  0  0  0  0  0  0  0  0  0  0
  192.6600  174.1110  137.4220 C   0  0  0  0  0  3  0  0  0  0  0  0
  193.9350  173.6060  137.6560 C   0  0  0  0  0  3  0  0  0  0  0  0
  192.4940  175.4750  137.1520 C   0  0  0  0  0  0  0  0  0  0  0  0
  185.8550  177.1290  138.2740 C   0  0  0  0  0  2  0  0  0  0  0  0
  185.1280  178.4450  138.0260 C   0  0  0  0  0  2  0  0  0  0  0  0
  182.9460  178.5760  139.2940 N   0  0  0  0  0  2  0  0  0  0  0  0
  184.3460  178.8580  139.2300 C   0  0  0  0  0  0  0  0  0  0  0  0
  184.9620  179.3750  140.2430 N   0  0  0  0  0  2  0  0  0  0  0  0
  181.1040  177.6450  140.5850 C   0  0  0  0  0  1  0  0  0  0  0  0
  182.1670  178.7250  140.5130 C   0  0  0  0  0  2  0  0  0  0  0  0
  191.1440  176.9120  139.1850 O   0  0  0  0  0  0  0  0  0  0  0  0
  190.9200  176.0040  140.1420 O   0  0  0  0  0  0  0  0  0  0  0  0
  190.5520  176.7540  141.2600 C   0  0  2  0  0  3  0  0  0  0  0  0
  191.4110  177.8430  141.3910 O   0  0  0  0  0  1  0  0  0  0  0  0
  190.6390  175.8990  142.5120 C   0  0  0  0  0  2  0  0  0  0  0  0
  189.0890  176.8750  144.4570 C   0  0  0  0  0  0  0  0  0  0  0  0
  189.7850  176.4390  143.5740 C   0  0  0  0  0  0  0  0  0  0  0  0
  188.2630  177.3930  145.5130 C   0  0  0  0  0  0  0  0  0  0  0  0
  184.3800  179.0040  145.7270 N   0  0  0  0  0  0  0  0  0  0  0  0
  186.5220  178.3160  146.7000 C   0  0  0  0  0  0  0  0  0  0  0  0
  186.9130  177.8990  145.3860 C   0  0  0  0  0  0  0  0  0  0  0  0
  187.5140  178.0940  147.5530 C   0  0  0  0  0  3  0  0  0  0  0  0
  185.1750  178.9070  146.9690 C   0  0  0  0  0  3  0  0  0  0  0  0
  186.1180  178.0240  144.3290 C   0  0  0  0  0  3  0  0  0  0  0  0
  184.7780  178.6160  144.5430 C   0  0  0  0  0  3  0  0  0  0  0  0
  188.6340  177.5020  146.7860 C   0  0  0  0  0  2  0  0  0  0  0  0
  3  9  1  0  0  0  0
  4 10  1  1  0  0  0
  4  5  1  0  0  0  0
  5  2  2  0  0  0  0
  6  3  2  0  0  0  0
  6  1  1  0  0  0  0
  7 17  1  0  0  0  0
  7  5  1  0  0  0  0
  8  1  1  6  0  0  0
  8  4  1  0  0  0  0
  8  7  1  0  0  0  0
  9 16  1  0  0  0  0
  9 10  2  0  0  0  0
 10 24  1  0  0  0  0
 11 16  2  0  0  0  0
 11 12  1  0  0  0  0
 12 13  2  0  0  0  0
 13 15  1  0  0  0  0
 14 15  2  0  0  0  0
 16 14  1  0  0  0  0
 18 17  1  0  0  0  0
 18 20  1  0  0  0  0
 19 23  1  0  0  0  0
 20 19  1  0  0  0  0
 20 21  2  0  0  0  0
 23 22  1  0  0  0  0
 24 25  1  0  0  0  0
 25 26  1  0  0  0  0
 26 27  1  1  0  0  0
 26 28  1  0  0  0  0
 28 30  1  0  0  0  0
 29 31  1  0  0  0  0
 30 29  3  0  0  0  0
 31 39  1  0  0  0  0
 32 36  2  0  0  0  0
 33 36  1  0  0  0  0
 33 35  2  0  0  0  0
 34 31  2  0  0  0  0
 34 33  1  0  0  0  0
 37 38  2  0  0  0  0
 37 34  1  0  0  0  0
 38 32  1  0  0  0  0
 39 35  1  0  0  0  0
M  END
>  <MODEL>
7

>  <REMARK>
 VINA RESULT:      -8.0      2.455      7.443
  Name = 
  11 active torsions:
  status: ('A' for Active; 'I' for Inactive)
    1  A    between atoms: C_1  and  C_5
    2  A    between atoms: N_7  and  C_26
    3  A    between atoms: C_8  and  C_15
    4  A    between atoms: C_8  and  O_17
    5  A    between atoms: C_10  and  C_38
    6  A    between atoms: C_15  and  C_19
    7  A    between atoms: O_17  and  O_37
    8  A    between atoms: C_24  and  N_30
    9  A    between atoms: C_24  and  C_38
   10  A    between atoms: C_32  and  C_34
   11  A    between atoms: C_35  and  O_37
                            x       y       z     vdW  Elec       q    Type
                         _______ _______ _______ _____ _____    ______ ____

>  <TORSDO>
F 11

$$$$
=
 OpenBabel11042411033D

 39 43  0  0  1  0  0  0  0  0999 V2000
  183.7350  177.2470  136.5310 O   0  0  0  0  0  0  0  0  0  0  0  0
  184.8780  179.6550  140.0120 O   0  0  0  0  0  0  0  0  0  0  0  0
  185.9140  176.8040  135.4850 C   0  0  0  0  0  3  0  0  0  0  0  0
  185.2500  178.3050  137.8720 C   0  0  2  0  0  3  0  0  0  0  0  0
  184.6050  178.8000  139.1280 C   0  0  0  0  0  0  0  0  0  0  0  0
  184.5670  176.9390  135.4390 C   0  0  0  0  0  3  0  0  0  0  0  0
  183.4380  177.9460  138.8200 N   0  0  0  0  0  0  0  0  0  0  0  0
  184.2680  177.2850  137.8390 C   0  0  1  0  0  3  0  0  0  0  0  0
  186.8810  176.9680  136.6320 C   0  0  0  0  0  0  0  0  0  0  0  0
  186.5680  177.6040  137.7940 C   0  0  0  0  0  0  0  0  0  0  0  0
  189.1610  177.0670  135.6020 C   0  0  0  0  0  3  0  0  0  0  0  0
  190.4130  176.5660  135.4430 N   0  0  0  0  0  0  0  0  0  0  0  0
  190.7960  175.4450  136.0550 N   0  0  0  0  0  0  0  0  0  0  0  0
  188.6550  175.2260  137.0600 C   0  0  0  0  0  3  0  0  0  0  0  0
  189.9490  174.7560  136.8640 C   0  0  0  0  0  3  0  0  0  0  0  0
  188.2380  176.3980  136.4150 C   0  0  0  0  0  0  0  0  0  0  0  0
  182.1290  177.7280  139.4130 C   0  0  0  0  0  2  0  0  0  0  0  0
  182.0700  176.3690  140.0980 C   0  0  0  0  0  2  0  0  0  0  0  0
  181.2810  175.0660  138.0820 N   0  0  0  0  0  2  0  0  0  0  0  0
  181.0720  175.4790  139.4350 C   0  0  0  0  0  0  0  0  0  0  0  0
  180.0810  175.0090  140.1220 N   0  0  0  0  0  2  0  0  0  0  0  0
  181.3440  173.2770  136.4330 C   0  0  0  0  0  1  0  0  0  0  0  0
  180.4950  174.0210  137.4450 C   0  0  0  0  0  2  0  0  0  0  0  0
  187.4710  177.5960  138.8640 O   0  0  0  0  0  0  0  0  0  0  0  0
  188.0700  178.7100  139.3010 O   0  0  0  0  0  0  0  0  0  0  0  0
  189.3100  178.2800  139.7750 C   0  0  2  0  0  3  0  0  0  0  0  0
  190.1860  178.1180  138.7030 O   0  0  0  0  0  1  0  0  0  0  0  0
  189.1600  176.9530  140.4970 C   0  0  0  0  0  2  0  0  0  0  0  0
  188.2100  177.3190  142.9680 C   0  0  0  0  0  0  0  0  0  0  0  0
  188.6450  177.1520  141.8550 C   0  0  0  0  0  0  0  0  0  0  0  0
  187.6850  177.5190  144.2900 C   0  0  0  0  0  0  0  0  0  0  0  0
  184.0190  178.8710  145.8570 N   0  0  0  0  0  0  0  0  0  0  0  0
  186.3170  178.0440  146.0640 C   0  0  0  0  0  0  0  0  0  0  0  0
  186.3590  177.9880  144.6330 C   0  0  0  0  0  0  0  0  0  0  0  0
  187.4840  177.6530  146.5610 C   0  0  0  0  0  3  0  0  0  0  0  0
  185.0940  178.4950  146.7980 C   0  0  0  0  0  3  0  0  0  0  0  0
  185.3300  178.3440  143.8720 C   0  0  0  0  0  3  0  0  0  0  0  0
  184.1010  178.8100  144.5530 C   0  0  0  0  0  3  0  0  0  0  0  0
  188.3630  177.3190  145.4170 C   0  0  0  0  0  2  0  0  0  0  0  0
  3  9  1  0  0  0  0
  4 10  1  1  0  0  0
  4  5  1  0  0  0  0
  5  2  2  0  0  0  0
  6  3  2  0  0  0  0
  6  1  1  0  0  0  0
  7  5  1  0  0  0  0
  7 17  1  0  0  0  0
  8  1  1  6  0  0  0
  8  4  1  0  0  0  0
  8  7  1  0  0  0  0
  9 10  2  0  0  0  0
 10 24  1  0  0  0  0
 11 16  1  0  0  0  0
 12 11  2  0  0  0  0
 12 13  1  0  0  0  0
 13 15  2  0  0  0  0
 15 14  1  0  0  0  0
 16  9  1  0  0  0  0
 16 14  2  0  0  0  0
 17 18  1  0  0  0  0
 19 20  1  0  0  0  0
 20 18  1  0  0  0  0
 20 21  2  0  0  0  0
 22 23  1  0  0  0  0
 23 19  1  0  0  0  0
 24 25  1  0  0  0  0
 25 26  1  0  0  0  0
 26 27  1  6  0  0  0
 26 28  1  0  0  0  0
 28 30  1  0  0  0  0
 29 31  1  0  0  0  0
 30 29  3  0  0  0  0
 31 34  2  0  0  0  0
 31 39  1  0  0  0  0
 32 36  2  0  0  0  0
 33 35  2  0  0  0  0
 33 36  1  0  0  0  0
 34 33  1  0  0  0  0
 37 38  2  0  0  0  0
 37 34  1  0  0  0  0
 38 32  1  0  0  0  0
 39 35  1  0  0  0  0
M  END
>  <MODEL>
8

>  <REMARK>
 VINA RESULT:      -7.9      2.770      6.822
  Name = 
  11 active torsions:
  status: ('A' for Active; 'I' for Inactive)
    1  A    between atoms: C_1  and  C_5
    2  A    between atoms: N_7  and  C_26
    3  A    between atoms: C_8  and  C_15
    4  A    between atoms: C_8  and  O_17
    5  A    between atoms: C_10  and  C_38
    6  A    between atoms: C_15  and  C_19
    7  A    between atoms: O_17  and  O_37
    8  A    between atoms: C_24  and  N_30
    9  A    between atoms: C_24  and  C_38
   10  A    between atoms: C_32  and  C_34
   11  A    between atoms: C_35  and  O_37
                            x       y       z     vdW  Elec       q    Type
                         _______ _______ _______ _____ _____    ______ ____

>  <TORSDO>
F 11

$$$$
=
 OpenBabel11042411033D

 39 43  0  0  1  0  0  0  0  0999 V2000
  192.4610  175.0950  134.8650 O   0  0  0  0  0  0  0  0  0  0  0  0
  194.5080  175.5050  138.7190 O   0  0  0  0  0  0  0  0  0  0  0  0
  190.1340  175.5950  135.4720 C   0  0  0  0  0  3  0  0  0  0  0  0
  192.5220  175.5110  137.1090 C   0  0  2  0  0  3  0  0  0  0  0  0
  193.9320  175.5940  137.6030 C   0  0  0  0  0  0  0  0  0  0  0  0
  191.0690  175.0180  134.6800 C   0  0  0  0  0  3  0  0  0  0  0  0
  194.3790  175.6990  136.1980 N   0  0  0  0  0  0  0  0  0  0  0  0
  192.9990  175.9530  135.8500 C   0  0  1  0  0  3  0  0  0  0  0  0
  190.2800  176.4130  136.7320 C   0  0  0  0  0  0  0  0  0  0  0  0
  191.4180  176.4480  137.4780 C   0  0  0  0  0  0  0  0  0  0  0  0
  188.8690  178.4790  136.6410 C   0  0  0  0  0  3  0  0  0  0  0  0
  187.7460  179.1640  136.9800 N   0  0  0  0  0  0  0  0  0  0  0  0
  186.8210  178.6310  137.7780 N   0  0  0  0  0  0  0  0  0  0  0  0
  188.0920  176.6340  137.9690 C   0  0  0  0  0  3  0  0  0  0  0  0
  186.9610  177.3790  138.2860 C   0  0  0  0  0  3  0  0  0  0  0  0
  189.0760  177.1870  137.1400 C   0  0  0  0  0  0  0  0  0  0  0  0
  195.6640  175.7530  135.5210 C   0  0  0  0  0  2  0  0  0  0  0  0
  196.4310  174.4520  135.7230 C   0  0  0  0  0  2  0  0  0  0  0  0
  197.6500  174.5310  137.9350 N   0  0  0  0  0  2  0  0  0  0  0  0
  197.6770  174.6850  136.5130 C   0  0  0  0  0  0  0  0  0  0  0  0
  198.7880  174.9220  135.8960 N   0  0  0  0  0  2  0  0  0  0  0  0
  198.6430  175.2990  140.0210 C   0  0  0  0  0  1  0  0  0  0  0  0
  198.8570  174.5030  138.7470 C   0  0  0  0  0  2  0  0  0  0  0  0
  191.5240  177.3350  138.5560 O   0  0  0  0  0  0  0  0  0  0  0  0
  191.9500  176.9430  139.7630 O   0  0  0  0  0  0  0  0  0  0  0  0
  191.0220  177.4830  140.6560 C   0  0  2  0  0  3  0  0  0  0  0  0
  191.6760  177.8750  141.8230 O   0  0  0  0  0  1  0  0  0  0  0  0
  189.9690  176.4460  141.0010 C   0  0  0  0  0  2  0  0  0  0  0  0
  188.8480  176.9930  143.3650 C   0  0  0  0  0  0  0  0  0  0  0  0
  189.3480  176.7430  142.2950 C   0  0  0  0  0  0  0  0  0  0  0  0
  188.2590  177.2940  144.6400 C   0  0  0  0  0  0  0  0  0  0  0  0
  184.5670  178.8740  145.9060 N   0  0  0  0  0  0  0  0  0  0  0  0
  186.8150  177.9760  146.2960 C   0  0  0  0  0  0  0  0  0  0  0  0
  186.9360  177.8320  144.8760 C   0  0  0  0  0  0  0  0  0  0  0  0
  187.9350  177.5730  146.8830 C   0  0  0  0  0  3  0  0  0  0  0  0
  185.5720  178.5160  146.9300 C   0  0  0  0  0  3  0  0  0  0  0  0
  185.9660  178.1790  144.0360 C   0  0  0  0  0  3  0  0  0  0  0  0
  184.7210  178.7310  144.6150 C   0  0  0  0  0  3  0  0  0  0  0  0
  188.8630  177.1370  145.8140 C   0  0  0  0  0  2  0  0  0  0  0  0
  3  9  1  0  0  0  0
  4 10  1  1  0  0  0
  4  5  1  0  0  0  0
  5  2  2  0  0  0  0
  6  1  1  0  0  0  0
  6  3  2  0  0  0  0
  7  5  1  0  0  0  0
  8  1  1  6  0  0  0
  8  7  1  0  0  0  0
  8  4  1  0  0  0  0
  9 16  1  0  0  0  0
  9 10  2  0  0  0  0
 10 24  1  0  0  0  0
 11 12  2  0  0  0  0
 11 16  1  0  0  0  0
 12 13  1  0  0  0  0
 13 15  2  0  0  0  0
 14 15  1  0  0  0  0
 16 14  2  0  0  0  0
 17 18  1  0  0  0  0
 17  7  1  0  0  0  0
 18 20  1  0  0  0  0
 19 23  1  0  0  0  0
 20 19  1  0  0  0  0
 21 20  2  0  0  0  0
 23 22  1  0  0  0  0
 24 25  1  0  0  0  0
 25 26  1  0  0  0  0
 26 28  1  0  0  0  0
 26 27  1  1  0  0  0
 28 30  1  0  0  0  0
 29 31  1  0  0  0  0
 30 29  3  0  0  0  0
 31 34  2  0  0  0  0
 31 39  1  0  0  0  0
 32 36  2  0  0  0  0
 33 35  2  0  0  0  0
 33 36  1  0  0  0  0
 34 33  1  0  0  0  0
 37 38  2  0  0  0  0
 37 34  1  0  0  0  0
 38 32  1  0  0  0  0
 39 35  1  0  0  0  0
M  END
>  <MODEL>
9

>  <REMARK>
 VINA RESULT:      -7.8      3.981      6.420
  Name = 
  11 active torsions:
  status: ('A' for Active; 'I' for Inactive)
    1  A    between atoms: C_1  and  C_5
    2  A    between atoms: N_7  and  C_26
    3  A    between atoms: C_8  and  C_15
    4  A    between atoms: C_8  and  O_17
    5  A    between atoms: C_10  and  C_38
    6  A    between atoms: C_15  and  C_19
    7  A    between atoms: O_17  and  O_37
    8  A    between atoms: C_24  and  N_30
    9  A    between atoms: C_24  and  C_38
   10  A    between atoms: C_32  and  C_34
   11  A    between atoms: C_35  and  O_37
                            x       y       z     vdW  Elec       q    Type
                         _______ _______ _______ _____ _____    ______ ____

>  <TORSDO>
F 11

$$$$
