=
 OpenBabel11042411343D

 36 41  0  0  1  0  0  0  0  0999 V2000
  189.5370  176.5610  143.2960 C   0  0  0  0  0  1  0  0  0  0  0  0
  189.7340  177.7030  142.3120 C   0  0  2  0  0  0  0  0  0  0  0  0
  185.3710  178.8130  139.1680 O   0  0  0  0  0  0  0  0  0  0  0  0
  188.4550  178.0470  141.6340 C   0  0  0  0  0  0  0  0  0  0  0  0
  187.2790  178.5440  142.1870 C   0  0  0  0  0  3  0  0  0  0  0  0
  190.5680  177.2870  141.1210 C   0  0  0  0  0  0  0  0  0  0  0  0
  186.1920  178.7920  141.3310 C   0  0  0  0  0  0  0  0  0  0  0  0
  188.5560  177.8240  140.2870 C   0  0  0  0  0  0  0  0  0  0  0  0
  187.5200  178.0820  139.4290 N   0  0  0  0  0  0  0  0  0  0  0  0
  190.2800  178.8200  142.9470 O   0  0  0  0  0  1  0  0  0  0  0  0
  189.8950  177.3470  139.9710 C   0  0  0  0  0  3  0  0  0  0  0  0
  186.3390  178.5680  139.9400 C   0  0  0  0  0  0  0  0  0  0  0  0
  188.3010  175.8350  135.4430 C   0  0  2  0  0  3  0  0  0  0  0  0
  189.2060  177.9210  136.2000 N   0  0  0  0  0  2  0  0  0  0  0  0
  187.7160  173.8410  134.5960 C   0  0  0  0  0  3  0  0  0  0  0  0
  187.6170  177.8280  137.9830 C   0  0  1  0  0  3  0  0  0  0  0  0
  188.6640  178.6880  137.3130 C   0  0  0  0  0  2  0  0  0  0  0  0
  188.8040  174.7850  134.8170 C   0  0  0  0  0  3  0  0  0  0  0  0
  188.0140  176.4040  137.6800 C   0  0  2  0  0  3  0  0  0  0  0  0
  186.6180  174.3030  135.1790 C   0  0  0  0  0  2  0  0  0  0  0  0
  189.0160  176.5110  136.5310 C   0  0  1  0  0  3  0  0  0  0  0  0
  186.8880  175.6480  135.7690 C   0  0  1  0  0  3  0  0  0  0  0  0
  186.8390  175.6400  137.2270 N   0  0  0  0  0  2  0  0  0  0  0  0
  185.0420  179.7250  143.3290 C   0  0  0  0  0  2  0  0  0  0  0  0
  184.9020  179.3450  141.8720 C   0  0  2  0  0  3  0  0  0  0  0  0
  183.7670  179.4330  143.9640 N   0  0  0  0  0  0  0  0  0  0  0  0
  183.7630  178.3490  141.8270 C   0  0  0  0  0  2  0  0  0  0  0  0
  183.2470  178.2760  143.2500 C   0  0  0  0  0  2  0  0  0  0  0  0
  184.0490  179.0140  145.3260 C   0  0  0  0  0  2  0  0  0  0  0  0
  185.3400  178.2130  145.3450 C   0  0  0  0  0  2  0  0  0  0  0  0
  186.1090  178.5000  146.5870 C   0  0  0  0  0  0  0  0  0  0  0  0
  185.6850  179.3610  147.4020 O   0  0  0  0  0  1  0  0  0  0  0  0
  187.2940  177.8210  146.8490 O   0  0  0  0  0  0  0  0  0  0  0  0
  191.9110  176.8990  141.1600 O   0  0  0  0  0  0  0  0  0  0  0  0
  192.9130  177.4930  140.3460 C   0  0  0  0  0  2  0  0  0  0  0  0
  193.2510  176.5740  139.1880 C   0  0  0  0  0  1  0  0  0  0  0  0
  2 10  1  0  0  0  0
  2  1  1  1  0  0  0
  3 12  2  0  0  0  0
  4  5  1  0  0  0  0
  4  2  1  0  0  0  0
  6 34  1  0  0  0  0
  6  2  1  0  0  0  0
  7  5  2  0  0  0  0
  8  4  2  0  0  0  0
  9 12  1  0  0  0  0
  9  8  1  0  0  0  0
 11  8  1  0  0  0  0
 11  6  2  0  0  0  0
 12  7  1  0  0  0  0
 13 18  1  1  0  0  0
 13 22  1  0  0  0  0
 13 21  1  0  0  0  0
 14 17  1  0  0  0  0
 15 18  2  0  0  0  0
 15 20  1  0  0  0  0
 16 17  1  1  0  0  0
 16  9  1  0  0  0  0
 19 23  1  6  0  0  0
 19 16  1  0  0  0  0
 21 14  1  6  0  0  0
 21 19  1  0  0  0  0
 22 20  1  6  0  0  0
 22 23  1  0  0  0  0
 24 26  1  0  0  0  0
 25  7  1  1  0  0  0
 25 24  1  0  0  0  0
 26 29  1  0  0  0  0
 27 25  1  0  0  0  0
 27 28  1  0  0  0  0
 28 26  1  0  0  0  0
 29 30  1  0  0  0  0
 30 31  1  0  0  0  0
 31 33  2  0  0  0  0
 31 32  1  0  0  0  0
 35 34  1  0  0  0  0
 36 35  1  0  0  0  0
M  END
>  <MODEL>
1

>  <REMARK>
 VINA RESULT:      -7.6      0.000      0.000
  Name = 
  7 active torsions:
  status: ('A' for Active; 'I' for Inactive)
    1  A    between atoms: C_2  and  C_23
    2  A    between atoms: C_7  and  C_15
    3  A    between atoms: C_7  and  C_19
    4  A    between atoms: N_8  and  C_15
    5  A    between atoms: O_14  and  C_16
    6  A    between atoms: O_14  and  C_21
    7  A    between atoms: C_17  and  N_27
                            x       y       z     vdW  Elec       q    Type
                         _______ _______ _______ _____ _____    ______ ____

>  <TORSDO>
F 7

$$$$
=
 OpenBabel11042411343D

 36 41  0  0  1  0  0  0  0  0999 V2000
  184.2370  177.7100  140.1050 C   0  0  0  0  0  1  0  0  0  0  0  0
  185.0770  178.5860  141.0190 C   0  0  2  0  0  0  0  0  0  0  0  0
  190.3160  177.0220  141.5330 O   0  0  0  0  0  0  0  0  0  0  0  0
  186.5120  178.1970  140.9580 C   0  0  0  0  0  0  0  0  0  0  0  0
  187.3850  178.2490  139.8770 C   0  0  0  0  0  3  0  0  0  0  0  0
  184.7870  178.3230  142.4800 C   0  0  0  0  0  0  0  0  0  0  0  0
  188.7100  177.8180  140.0690 C   0  0  0  0  0  0  0  0  0  0  0  0
  186.9370  177.7560  142.1820 C   0  0  0  0  0  0  0  0  0  0  0  0
  188.2280  177.3550  142.4010 N   0  0  0  0  0  0  0  0  0  0  0  0
  184.9110  179.9370  140.7060 O   0  0  0  0  0  1  0  0  0  0  0  0
  185.8420  177.8410  143.1390 C   0  0  0  0  0  3  0  0  0  0  0  0
  189.1200  177.3870  141.3540 C   0  0  0  0  0  0  0  0  0  0  0  0
  189.5800  177.3990  146.8420 C   0  0  2  0  0  3  0  0  0  0  0  0
  190.7070  176.4900  144.9320 N   0  0  0  0  0  2  0  0  0  0  0  0
  188.7980  178.3110  148.7370 C   0  0  0  0  0  3  0  0  0  0  0  0
  188.6870  176.8640  143.7100 C   0  0  1  0  0  3  0  0  0  0  0  0
  190.0660  176.2470  143.6470 C   0  0  0  0  0  2  0  0  0  0  0  0
  189.9690  178.0920  147.8980 C   0  0  0  0  0  3  0  0  0  0  0  0
  188.7890  177.9710  144.7300 C   0  0  2  0  0  3  0  0  0  0  0  0
  187.7270  177.8320  148.1170 C   0  0  0  0  0  2  0  0  0  0  0  0
  190.0820  177.6840  145.4930 C   0  0  1  0  0  3  0  0  0  0  0  0
  188.1340  177.1800  146.8370 C   0  0  1  0  0  3  0  0  0  0  0  0
  187.6510  177.9000  145.6640 N   0  0  0  0  0  2  0  0  0  0  0  0
  189.1060  178.5330  137.7200 C   0  0  0  0  0  2  0  0  0  0  0  0
  189.7030  177.8690  138.9400 C   0  0  2  0  0  3  0  0  0  0  0  0
  189.6590  177.8550  136.5590 N   0  0  0  0  0  0  0  0  0  0  0  0
  190.1410  176.4960  138.4730 C   0  0  0  0  0  2  0  0  0  0  0  0
  189.8550  176.4770  136.9850 C   0  0  0  0  0  2  0  0  0  0  0  0
  188.6320  177.8510  135.5310 C   0  0  0  0  0  2  0  0  0  0  0  0
  187.3170  178.3080  136.1380 C   0  0  0  0  0  2  0  0  0  0  0  0
  186.2830  177.2470  135.9900 C   0  0  0  0  0  0  0  0  0  0  0  0
  186.5500  176.1960  135.3500 O   0  0  0  0  0  0  0  0  0  0  0  0
  185.0240  177.4130  136.5560 O   0  0  0  0  0  1  0  0  0  0  0  0
  183.5710  178.5650  143.1270 O   0  0  0  0  0  0  0  0  0  0  0  0
  183.4360  179.4810  144.2050 C   0  0  0  0  0  2  0  0  0  0  0  0
  183.9700  178.8610  145.4820 C   0  0  0  0  0  1  0  0  0  0  0  0
  2  1  1  6  0  0  0
  2  6  1  0  0  0  0
  4  2  1  0  0  0  0
  4  8  2  0  0  0  0
  5  7  2  0  0  0  0
  5  4  1  0  0  0  0
  6 34  1  0  0  0  0
  6 11  2  0  0  0  0
  7 12  1  0  0  0  0
  8  9  1  0  0  0  0
  8 11  1  0  0  0  0
 10  2  1  0  0  0  0
 12  3  2  0  0  0  0
 12  9  1  0  0  0  0
 13 18  1  1  0  0  0
 16  9  1  6  0  0  0
 16 19  1  0  0  0  0
 17 16  1  0  0  0  0
 17 14  1  0  0  0  0
 18 15  2  0  0  0  0
 19 21  1  0  0  0  0
 19 23  1  1  0  0  0
 20 15  1  0  0  0  0
 21 14  1  6  0  0  0
 21 13  1  0  0  0  0
 22 13  1  0  0  0  0
 22 20  1  1  0  0  0
 23 22  1  0  0  0  0
 24 25  1  0  0  0  0
 25  7  1  1  0  0  0
 26 28  1  0  0  0  0
 26 24  1  0  0  0  0
 27 25  1  0  0  0  0
 28 27  1  0  0  0  0
 29 30  1  0  0  0  0
 29 26  1  0  0  0  0
 31 30  1  0  0  0  0
 31 33  1  0  0  0  0
 32 31  2  0  0  0  0
 34 35  1  0  0  0  0
 35 36  1  0  0  0  0
M  END
>  <MODEL>
2

>  <REMARK>
 VINA RESULT:      -7.5      2.510      8.634
  Name = 
  7 active torsions:
  status: ('A' for Active; 'I' for Inactive)
    1  A    between atoms: C_2  and  C_23
    2  A    between atoms: C_7  and  C_15
    3  A    between atoms: C_7  and  C_19
    4  A    between atoms: N_8  and  C_15
    5  A    between atoms: O_14  and  C_16
    6  A    between atoms: O_14  and  C_21
    7  A    between atoms: C_17  and  N_27
                            x       y       z     vdW  Elec       q    Type
                         _______ _______ _______ _____ _____    ______ ____

>  <TORSDO>
F 7

$$$$
=
 OpenBabel11042411343D

 36 41  0  0  1  0  0  0  0  0999 V2000
  185.2900  180.1260  143.2300 C   0  0  0  0  0  1  0  0  0  0  0  0
  185.2340  178.8220  142.4530 C   0  0  2  0  0  0  0  0  0  0  0  0
  190.0130  177.2350  140.2640 O   0  0  0  0  0  0  0  0  0  0  0  0
  186.5970  178.3820  142.0510 C   0  0  0  0  0  0  0  0  0  0  0  0
  187.6690  178.0150  142.8580 C   0  0  0  0  0  3  0  0  0  0  0  0
  184.5950  178.9990  141.0930 C   0  0  0  0  0  0  0  0  0  0  0  0
  188.8710  177.6350  142.2370 C   0  0  0  0  0  0  0  0  0  0  0  0
  186.7050  178.3550  140.6870 C   0  0  0  0  0  0  0  0  0  0  0  0
  187.8570  177.9630  140.0580 N   0  0  0  0  0  0  0  0  0  0  0  0
  184.5850  177.8300  143.1910 O   0  0  0  0  0  1  0  0  0  0  0  0
  185.4350  178.7430  140.0890 C   0  0  0  0  0  3  0  0  0  0  0  0
  188.9410  177.5990  140.8220 C   0  0  0  0  0  0  0  0  0  0  0  0
  188.6780  176.3810  135.7720 C   0  0  2  0  0  3  0  0  0  0  0  0
  189.6220  178.2830  136.8830 N   0  0  0  0  0  2  0  0  0  0  0  0
  188.0590  174.5740  134.5940 C   0  0  0  0  0  3  0  0  0  0  0  0
  187.9850  177.9480  138.5920 C   0  0  1  0  0  3  0  0  0  0  0  0
  189.0730  178.8730  138.0960 C   0  0  0  0  0  2  0  0  0  0  0  0
  189.1670  175.4330  134.9910 C   0  0  0  0  0  3  0  0  0  0  0  0
  188.3490  176.5820  138.0660 C   0  0  2  0  0  3  0  0  0  0  0  0
  186.9600  174.9700  135.2220 C   0  0  0  0  0  2  0  0  0  0  0  0
  189.3830  176.8450  136.9710 C   0  0  1  0  0  3  0  0  0  0  0  0
  187.2520  176.1880  136.0320 C   0  0  1  0  0  3  0  0  0  0  0  0
  187.1650  175.9420  137.4680 N   0  0  0  0  0  2  0  0  0  0  0  0
  189.6290  176.7370  144.4290 C   0  0  0  0  0  2  0  0  0  0  0  0
  190.0580  177.2120  143.0590 C   0  0  2  0  0  3  0  0  0  0  0  0
  190.6680  177.1450  145.3610 N   0  0  0  0  0  0  0  0  0  0  0  0
  191.0360  178.3390  143.3160 C   0  0  0  0  0  2  0  0  0  0  0  0
  191.1860  178.3950  144.8220 C   0  0  0  0  0  2  0  0  0  0  0  0
  190.0200  177.4510  146.6240 C   0  0  0  0  0  2  0  0  0  0  0  0
  188.5310  177.1760  146.5020 C   0  0  0  0  0  2  0  0  0  0  0  0
  187.7830  177.8860  147.5750 C   0  0  0  0  0  0  0  0  0  0  0  0
  186.6980  178.4640  147.3060 O   0  0  0  0  0  0  0  0  0  0  0  0
  188.2800  177.9120  148.8740 O   0  0  0  0  0  1  0  0  0  0  0  0
  183.2660  179.3640  140.8570 O   0  0  0  0  0  0  0  0  0  0  0  0
  182.2130  178.4180  140.7340 C   0  0  0  0  0  2  0  0  0  0  0  0
  181.2140  178.6050  141.8590 C   0  0  0  0  0  1  0  0  0  0  0  0
  2 10  1  0  0  0  0
  2  1  1  1  0  0  0
  3 12  2  0  0  0  0
  4  2  1  0  0  0  0
  4  5  1  0  0  0  0
  6  2  1  0  0  0  0
  7  5  2  0  0  0  0
  8  4  2  0  0  0  0
  9  8  1  0  0  0  0
  9 12  1  0  0  0  0
 11  8  1  0  0  0  0
 11  6  2  0  0  0  0
 12  7  1  0  0  0  0
 13 18  1  1  0  0  0
 13 22  1  0  0  0  0
 13 21  1  0  0  0  0
 14 17  1  0  0  0  0
 15 18  2  0  0  0  0
 15 20  1  0  0  0  0
 16 17  1  1  0  0  0
 16  9  1  0  0  0  0
 19 23  1  6  0  0  0
 19 16  1  0  0  0  0
 21 14  1  6  0  0  0
 21 19  1  0  0  0  0
 22 20  1  6  0  0  0
 22 23  1  0  0  0  0
 24 26  1  0  0  0  0
 25  7  1  6  0  0  0
 25 27  1  0  0  0  0
 25 24  1  0  0  0  0
 26 29  1  0  0  0  0
 27 28  1  0  0  0  0
 28 26  1  0  0  0  0
 30 29  1  0  0  0  0
 30 31  1  0  0  0  0
 31 33  1  0  0  0  0
 32 31  2  0  0  0  0
 34  6  1  0  0  0  0
 35 34  1  0  0  0  0
 35 36  1  0  0  0  0
M  END
>  <MODEL>
3

>  <REMARK>
 VINA RESULT:      -7.4      1.983      4.886
  Name = 
  7 active torsions:
  status: ('A' for Active; 'I' for Inactive)
    1  A    between atoms: C_2  and  C_23
    2  A    between atoms: C_7  and  C_15
    3  A    between atoms: C_7  and  C_19
    4  A    between atoms: N_8  and  C_15
    5  A    between atoms: O_14  and  C_16
    6  A    between atoms: O_14  and  C_21
    7  A    between atoms: C_17  and  N_27
                            x       y       z     vdW  Elec       q    Type
                         _______ _______ _______ _____ _____    ______ ____

>  <TORSDO>
F 7

$$$$
=
 OpenBabel11042411343D

 36 41  0  0  1  0  0  0  0  0999 V2000
  191.6820  177.3180  143.0140 C   0  0  0  0  0  1  0  0  0  0  0  0
  190.3340  176.6320  142.8640 C   0  0  2  0  0  0  0  0  0  0  0  0
  187.2360  178.5090  138.7370 O   0  0  0  0  0  0  0  0  0  0  0  0
  189.6450  177.0780  141.6230 C   0  0  0  0  0  0  0  0  0  0  0  0
  190.0330  176.9070  140.2990 C   0  0  0  0  0  3  0  0  0  0  0  0
  189.3420  177.0970  143.9070 C   0  0  0  0  0  0  0  0  0  0  0  0
  189.2050  177.4250  139.2890 C   0  0  0  0  0  0  0  0  0  0  0  0
  188.4750  177.7180  141.9330 C   0  0  0  0  0  0  0  0  0  0  0  0
  187.6380  178.2090  140.9670 N   0  0  0  0  0  0  0  0  0  0  0  0
  190.4770  175.2430  142.8860 O   0  0  0  0  0  1  0  0  0  0  0  0
  188.2900  177.7240  143.3790 C   0  0  0  0  0  3  0  0  0  0  0  0
  187.9920  178.0640  139.6450 C   0  0  0  0  0  0  0  0  0  0  0  0
  183.3970  178.9870  142.6860 C   0  0  2  0  0  3  0  0  0  0  0  0
  184.1820  179.2440  140.4360 N   0  0  0  0  0  2  0  0  0  0  0  0
  182.3980  178.6710  144.6700 C   0  0  0  0  0  3  0  0  0  0  0  0
  186.3890  178.9140  141.2940 C   0  0  1  0  0  3  0  0  0  0  0  0
  185.5900  179.2790  140.0630 C   0  0  0  0  0  2  0  0  0  0  0  0
  182.2910  178.5060  143.2260 C   0  0  0  0  0  3  0  0  0  0  0  0
  185.4640  178.0710  142.1370 C   0  0  2  0  0  3  0  0  0  0  0  0
  183.6000  179.1520  144.9610 C   0  0  0  0  0  2  0  0  0  0  0  0
  184.0690  178.3230  141.5640 C   0  0  1  0  0  3  0  0  0  0  0  0
  184.3560  179.4190  143.7020 C   0  0  1  0  0  3  0  0  0  0  0  0
  185.5010  178.5300  143.5370 N   0  0  0  0  0  2  0  0  0  0  0  0
  188.5080  176.4610  137.1040 C   0  0  0  0  0  2  0  0  0  0  0  0
  189.5660  177.2540  137.8390 C   0  0  2  0  0  3  0  0  0  0  0  0
  189.2000  175.6540  136.1130 N   0  0  0  0  0  0  0  0  0  0  0  0
  190.8550  176.4840  137.6340 C   0  0  0  0  0  2  0  0  0  0  0  0
  190.4860  175.3360  136.7170 C   0  0  0  0  0  2  0  0  0  0  0  0
  188.4620  174.4090  135.9790 C   0  0  0  0  0  2  0  0  0  0  0  0
  187.2490  174.4470  136.8920 C   0  0  0  0  0  2  0  0  0  0  0  0
  186.8770  173.0690  137.3170 C   0  0  0  0  0  0  0  0  0  0  0  0
  187.6290  172.1010  137.0300 O   0  0  0  0  0  0  0  0  0  0  0  0
  185.7040  172.8490  138.0290 O   0  0  0  0  0  1  0  0  0  0  0  0
  189.4530  176.8970  145.2870 O   0  0  0  0  0  0  0  0  0  0  0  0
  188.6650  177.5990  146.2380 C   0  0  0  0  0  2  0  0  0  0  0  0
  189.0190  177.1450  147.6410 C   0  0  0  0  0  1  0  0  0  0  0  0
  2 10  1  0  0  0  0
  2  1  1  1  0  0  0
  2  6  1  0  0  0  0
  3 12  2  0  0  0  0
  4  8  2  0  0  0  0
  4  2  1  0  0  0  0
  5  4  1  0  0  0  0
  6 34  1  0  0  0  0
  7 12  1  0  0  0  0
  7  5  2  0  0  0  0
  8 11  1  0  0  0  0
  9 16  1  0  0  0  0
  9  8  1  0  0  0  0
 11  6  2  0  0  0  0
 12  9  1  0  0  0  0
 13 18  1  1  0  0  0
 13 22  1  0  0  0  0
 15 20  1  0  0  0  0
 16 17  1  6  0  0  0
 16 19  1  0  0  0  0
 17 14  1  0  0  0  0
 18 15  2  0  0  0  0
 19 23  1  1  0  0  0
 21 14  1  6  0  0  0
 21 19  1  0  0  0  0
 21 13  1  0  0  0  0
 22 20  1  1  0  0  0
 23 22  1  0  0  0  0
 24 25  1  0  0  0  0
 25  7  1  1  0  0  0
 26 28  1  0  0  0  0
 26 24  1  0  0  0  0
 27 25  1  0  0  0  0
 28 27  1  0  0  0  0
 29 26  1  0  0  0  0
 29 30  1  0  0  0  0
 30 31  1  0  0  0  0
 31 33  1  0  0  0  0
 32 31  2  0  0  0  0
 34 35  1  0  0  0  0
 35 36  1  0  0  0  0
M  END
>  <MODEL>
4

>  <REMARK>
 VINA RESULT:      -7.2      2.339      7.501
  Name = 
  7 active torsions:
  status: ('A' for Active; 'I' for Inactive)
    1  A    between atoms: C_2  and  C_23
    2  A    between atoms: C_7  and  C_15
    3  A    between atoms: C_7  and  C_19
    4  A    between atoms: N_8  and  C_15
    5  A    between atoms: O_14  and  C_16
    6  A    between atoms: O_14  and  C_21
    7  A    between atoms: C_17  and  N_27
                            x       y       z     vdW  Elec       q    Type
                         _______ _______ _______ _____ _____    ______ ____

>  <TORSDO>
F 7

$$$$
=
 OpenBabel11042411343D

 36 41  0  0  1  0  0  0  0  0999 V2000
  181.7320  176.5690  139.1880 C   0  0  0  0  0  1  0  0  0  0  0  0
  182.1790  177.9920  139.4790 C   0  0  2  0  0  0  0  0  0  0  0  0
  187.5850  178.5990  140.2330 O   0  0  0  0  0  0  0  0  0  0  0  0
  183.6640  178.0910  139.4910 C   0  0  0  0  0  0  0  0  0  0  0  0
  184.5620  177.8740  138.4520 C   0  0  0  0  0  3  0  0  0  0  0  0
  181.8690  178.4050  140.9010 C   0  0  0  0  0  0  0  0  0  0  0  0
  185.9340  178.0300  138.7130 C   0  0  0  0  0  0  0  0  0  0  0  0
  184.1050  178.4640  140.7320 C   0  0  0  0  0  0  0  0  0  0  0  0
  185.4350  178.6470  141.0050 N   0  0  0  0  0  0  0  0  0  0  0  0
  181.6260  178.8860  138.5610 O   0  0  0  0  0  1  0  0  0  0  0  0
  182.9640  178.6640  141.6160 C   0  0  0  0  0  3  0  0  0  0  0  0
  186.3540  178.4360  140.0040 C   0  0  0  0  0  0  0  0  0  0  0  0
  186.8860  178.2450  145.3960 C   0  0  2  0  0  3  0  0  0  0  0  0
  185.0800  179.5540  144.5190 N   0  0  0  0  0  2  0  0  0  0  0  0
  188.4100  176.9890  146.4630 C   0  0  0  0  0  3  0  0  0  0  0  0
  185.9160  179.0320  142.3420 C   0  0  1  0  0  3  0  0  0  0  0  0
  184.9050  179.8570  143.1060 C   0  0  0  0  0  2  0  0  0  0  0  0
  187.0420  177.4910  146.4710 C   0  0  0  0  0  3  0  0  0  0  0  0
  186.1960  177.8330  143.2130 C   0  0  2  0  0  3  0  0  0  0  0  0
  189.0030  177.3720  145.3400 C   0  0  0  0  0  2  0  0  0  0  0  0
  185.6600  178.2160  144.5930 C   0  0  1  0  0  3  0  0  0  0  0  0
  188.0790  178.2370  144.5490 C   0  0  1  0  0  3  0  0  0  0  0  0
  187.6490  177.6070  143.3050 N   0  0  0  0  0  2  0  0  0  0  0  0
  188.1540  177.0670  138.1360 C   0  0  0  0  0  2  0  0  0  0  0  0
  186.9500  177.8250  137.6220 C   0  0  2  0  0  3  0  0  0  0  0  0
  189.3150  177.6010  137.4420 N   0  0  0  0  0  0  0  0  0  0  0  0
  187.5020  179.1250  137.0730 C   0  0  0  0  0  2  0  0  0  0  0  0
  189.0060  179.0060  137.2180 C   0  0  0  0  0  2  0  0  0  0  0  0
  190.4340  177.5440  138.3670 C   0  0  0  0  0  2  0  0  0  0  0  0
  190.2390  176.3740  139.3150 C   0  0  0  0  0  2  0  0  0  0  0  0
  190.7590  176.7120  140.6690 C   0  0  0  0  0  0  0  0  0  0  0  0
  191.7170  177.5200  140.7880 O   0  0  0  0  0  0  0  0  0  0  0  0
  190.1900  176.1380  141.8010 O   0  0  0  0  0  1  0  0  0  0  0  0
  180.5900  178.5410  141.4500 O   0  0  0  0  0  0  0  0  0  0  0  0
  180.3390  179.2360  142.6640 C   0  0  0  0  0  2  0  0  0  0  0  0
  179.9950  178.2500  143.7640 C   0  0  0  0  0  1  0  0  0  0  0  0
  2  1  1  6  0  0  0
  2  4  1  0  0  0  0
  2  6  1  0  0  0  0
  4  8  2  0  0  0  0
  5  7  2  0  0  0  0
  5  4  1  0  0  0  0
  6 34  1  0  0  0  0
  6 11  2  0  0  0  0
  7 12  1  0  0  0  0
  8  9  1  0  0  0  0
  8 11  1  0  0  0  0
 10  2  1  0  0  0  0
 12  3  2  0  0  0  0
 12  9  1  0  0  0  0
 13 18  1  1  0  0  0
 15 18  2  0  0  0  0
 16  9  1  6  0  0  0
 16 17  1  0  0  0  0
 16 19  1  0  0  0  0
 17 14  1  0  0  0  0
 19 23  1  1  0  0  0
 19 21  1  0  0  0  0
 20 15  1  0  0  0  0
 21 14  1  6  0  0  0
 21 13  1  0  0  0  0
 22 20  1  1  0  0  0
 22 13  1  0  0  0  0
 23 22  1  0  0  0  0
 25 24  1  0  0  0  0
 25  7  1  1  0  0  0
 26 24  1  0  0  0  0
 26 29  1  0  0  0  0
 27 28  1  0  0  0  0
 27 25  1  0  0  0  0
 28 26  1  0  0  0  0
 29 30  1  0  0  0  0
 30 31  1  0  0  0  0
 31 32  2  0  0  0  0
 31 33  1  0  0  0  0
 34 35  1  0  0  0  0
 35 36  1  0  0  0  0
M  END
>  <MODEL>
5

>  <REMARK>
 VINA RESULT:      -7.2      2.695      8.278
  Name = 
  7 active torsions:
  status: ('A' for Active; 'I' for Inactive)
    1  A    between atoms: C_2  and  C_23
    2  A    between atoms: C_7  and  C_15
    3  A    between atoms: C_7  and  C_19
    4  A    between atoms: N_8  and  C_15
    5  A    between atoms: O_14  and  C_16
    6  A    between atoms: O_14  and  C_21
    7  A    between atoms: C_17  and  N_27
                            x       y       z     vdW  Elec       q    Type
                         _______ _______ _______ _____ _____    ______ ____

>  <TORSDO>
F 7

$$$$
=
 OpenBabel11042411343D

 36 41  0  0  1  0  0  0  0  0999 V2000
  189.4750  176.0290  142.4370 C   0  0  0  0  0  1  0  0  0  0  0  0
  189.5360  177.3030  141.6110 C   0  0  2  0  0  0  0  0  0  0  0  0
  184.6510  179.3150  140.1120 O   0  0  0  0  0  0  0  0  0  0  0  0
  188.1750  177.8690  141.4040 C   0  0  0  0  0  0  0  0  0  0  0  0
  187.2810  178.3600  142.3490 C   0  0  0  0  0  3  0  0  0  0  0  0
  189.9360  177.0320  140.1780 C   0  0  0  0  0  0  0  0  0  0  0  0
  186.0400  178.8460  141.9030 C   0  0  0  0  0  0  0  0  0  0  0  0
  187.8610  177.8760  140.0720 C   0  0  0  0  0  0  0  0  0  0  0  0
  186.6690  178.3670  139.6100 N   0  0  0  0  0  0  0  0  0  0  0  0
  190.3830  178.2410  142.2050 O   0  0  0  0  0  1  0  0  0  0  0  0
  188.9810  177.3480  139.3040 C   0  0  0  0  0  3  0  0  0  0  0  0
  185.7560  178.8560  140.5150 C   0  0  0  0  0  0  0  0  0  0  0  0
  185.4590  176.7600  135.4270 C   0  0  2  0  0  3  0  0  0  0  0  0
  187.3430  178.1110  136.0350 N   0  0  0  0  0  2  0  0  0  0  0  0
  183.8740  175.3750  134.6480 C   0  0  0  0  0  3  0  0  0  0  0  0
  186.3190  178.3620  138.1810 C   0  0  1  0  0  3  0  0  0  0  0  0
  187.4620  178.8180  137.3030 C   0  0  0  0  0  2  0  0  0  0  0  0
  185.2880  175.7280  134.6190 C   0  0  0  0  0  3  0  0  0  0  0  0
  185.9610  176.9820  137.6870 C   0  0  2  0  0  3  0  0  0  0  0  0
  183.2580  176.1370  135.5430 C   0  0  0  0  0  2  0  0  0  0  0  0
  186.6220  176.8710  136.3140 C   0  0  1  0  0  3  0  0  0  0  0  0
  184.2230  177.1180  136.1200 C   0  0  1  0  0  3  0  0  0  0  0  0
  184.5000  176.8680  137.5310 N   0  0  0  0  0  2  0  0  0  0  0  0
  185.6590  179.5870  144.2470 C   0  0  0  0  0  2  0  0  0  0  0  0
  185.0400  179.4050  142.8790 C   0  0  2  0  0  3  0  0  0  0  0  0
  184.6190  179.2970  145.2210 N   0  0  0  0  0  0  0  0  0  0  0  0
  183.8500  178.4950  143.0980 C   0  0  0  0  0  2  0  0  0  0  0  0
  183.7940  178.2740  144.5960 C   0  0  0  0  0  2  0  0  0  0  0  0
  185.2650  178.6910  146.3730 C   0  0  0  0  0  2  0  0  0  0  0  0
  186.3290  177.7170  145.8950 C   0  0  0  0  0  2  0  0  0  0  0  0
  187.5080  177.7520  146.8030 C   0  0  0  0  0  0  0  0  0  0  0  0
  188.5920  177.2220  146.4440 O   0  0  0  0  0  0  0  0  0  0  0  0
  187.4150  178.3680  148.0470 O   0  0  0  0  0  1  0  0  0  0  0  0
  191.1720  176.5290  139.7580 O   0  0  0  0  0  0  0  0  0  0  0  0
  191.3240  175.7150  138.6020 C   0  0  0  0  0  2  0  0  0  0  0  0
  192.2700  176.3800  137.6210 C   0  0  0  0  0  1  0  0  0  0  0  0
  2 10  1  0  0  0  0
  2  1  1  1  0  0  0
  3 12  2  0  0  0  0
  4  2  1  0  0  0  0
  4  5  1  0  0  0  0
  6  2  1  0  0  0  0
  7  5  2  0  0  0  0
  8  4  2  0  0  0  0
  9  8  1  0  0  0  0
  9 12  1  0  0  0  0
 11  8  1  0  0  0  0
 11  6  2  0  0  0  0
 12  7  1  0  0  0  0
 13 18  1  1  0  0  0
 13 22  1  0  0  0  0
 13 21  1  0  0  0  0
 14 17  1  0  0  0  0
 15 20  1  0  0  0  0
 16 17  1  6  0  0  0
 16  9  1  0  0  0  0
 18 15  2  0  0  0  0
 19 23  1  6  0  0  0
 19 16  1  0  0  0  0
 21 14  1  6  0  0  0
 21 19  1  0  0  0  0
 22 20  1  6  0  0  0
 22 23  1  0  0  0  0
 24 26  1  0  0  0  0
 25  7  1  6  0  0  0
 25 27  1  0  0  0  0
 25 24  1  0  0  0  0
 26 29  1  0  0  0  0
 27 28  1  0  0  0  0
 28 26  1  0  0  0  0
 30 29  1  0  0  0  0
 30 31  1  0  0  0  0
 31 33  1  0  0  0  0
 32 31  2  0  0  0  0
 34  6  1  0  0  0  0
 35 34  1  0  0  0  0
 36 35  1  0  0  0  0
M  END
>  <MODEL>
6

>  <REMARK>
 VINA RESULT:      -7.0      1.610      1.995
  Name = 
  7 active torsions:
  status: ('A' for Active; 'I' for Inactive)
    1  A    between atoms: C_2  and  C_23
    2  A    between atoms: C_7  and  C_15
    3  A    between atoms: C_7  and  C_19
    4  A    between atoms: N_8  and  C_15
    5  A    between atoms: O_14  and  C_16
    6  A    between atoms: O_14  and  C_21
    7  A    between atoms: C_17  and  N_27
                            x       y       z     vdW  Elec       q    Type
                         _______ _______ _______ _____ _____    ______ ____

>  <TORSDO>
F 7

$$$$
=
 OpenBabel11042411343D

 36 41  0  0  1  0  0  0  0  0999 V2000
  191.7210  177.5460  142.2980 C   0  0  0  0  0  1  0  0  0  0  0  0
  190.3820  176.8470  142.4660 C   0  0  2  0  0  0  0  0  0  0  0  0
  186.6220  178.1230  138.6720 O   0  0  0  0  0  0  0  0  0  0  0  0
  189.4930  177.1130  141.3030 C   0  0  0  0  0  0  0  0  0  0  0  0
  189.6680  176.7540  139.9710 C   0  0  0  0  0  3  0  0  0  0  0  0
  189.5600  177.4580  143.5800 C   0  0  0  0  0  0  0  0  0  0  0  0
  188.6770  177.1250  139.0450 C   0  0  0  0  0  0  0  0  0  0  0  0
  188.3750  177.7930  141.7050 C   0  0  0  0  0  0  0  0  0  0  0  0
  187.3830  178.1430  140.8270 N   0  0  0  0  0  0  0  0  0  0  0  0
  190.5570  175.4760  142.6600 O   0  0  0  0  0  1  0  0  0  0  0  0
  188.4240  178.0040  143.1460 C   0  0  0  0  0  3  0  0  0  0  0  0
  187.5240  177.8100  139.4990 C   0  0  0  0  0  0  0  0  0  0  0  0
  183.2570  179.0250  142.7620 C   0  0  2  0  0  3  0  0  0  0  0  0
  183.9730  179.3930  140.5040 N   0  0  0  0  0  2  0  0  0  0  0  0
  182.3150  178.6280  144.7590 C   0  0  0  0  0  3  0  0  0  0  0  0
  186.1880  178.8880  141.2500 C   0  0  1  0  0  3  0  0  0  0  0  0
  185.3660  179.3780  140.0790 C   0  0  0  0  0  2  0  0  0  0  0  0
  182.1470  178.5670  143.3130 C   0  0  0  0  0  3  0  0  0  0  0  0
  185.2480  178.0400  142.0720 C   0  0  2  0  0  3  0  0  0  0  0  0
  183.5520  179.0240  145.0330 C   0  0  0  0  0  2  0  0  0  0  0  0
  183.8510  178.4050  141.5720 C   0  0  1  0  0  3  0  0  0  0  0  0
  184.2750  179.3350  143.7650 C   0  0  1  0  0  3  0  0  0  0  0  0
  185.3620  178.4010  143.4960 N   0  0  0  0  0  2  0  0  0  0  0  0
  189.7100  175.5490  137.4210 C   0  0  0  0  0  2  0  0  0  0  0  0
  188.8050  176.7490  137.5940 C   0  0  2  0  0  3  0  0  0  0  0  0
  190.4340  175.7450  136.1750 N   0  0  0  0  0  0  0  0  0  0  0  0
  189.4260  177.8420  136.7490 C   0  0  0  0  0  2  0  0  0  0  0  0
  190.6070  177.1860  136.0630 C   0  0  0  0  0  2  0  0  0  0  0  0
  191.7530  175.1610  136.3470 C   0  0  0  0  0  2  0  0  0  0  0  0
  192.1640  175.2710  137.8050 C   0  0  0  0  0  2  0  0  0  0  0  0
  193.3410  176.1710  137.9450 C   0  0  0  0  0  0  0  0  0  0  0  0
  193.5580  176.7550  139.0400 O   0  0  0  0  0  1  0  0  0  0  0  0
  194.2020  176.3690  136.8710 O   0  0  0  0  0  0  0  0  0  0  0  0
  189.8960  177.4560  144.9370 O   0  0  0  0  0  0  0  0  0  0  0  0
  188.9960  177.8660  145.9580 C   0  0  0  0  0  2  0  0  0  0  0  0
  189.2770  177.0980  147.2350 C   0  0  0  0  0  1  0  0  0  0  0  0
  2  1  1  6  0  0  0
  2 10  1  0  0  0  0
  2  6  1  0  0  0  0
  3 12  2  0  0  0  0
  4  8  2  0  0  0  0
  4  2  1  0  0  0  0
  5  4  1  0  0  0  0
  6 34  1  0  0  0  0
  7 12  1  0  0  0  0
  7  5  2  0  0  0  0
  8 11  1  0  0  0  0
  9 16  1  0  0  0  0
  9  8  1  0  0  0  0
 11  6  2  0  0  0  0
 12  9  1  0  0  0  0
 13 18  1  1  0  0  0
 13 22  1  0  0  0  0
 15 20  1  0  0  0  0
 16 17  1  6  0  0  0
 16 19  1  0  0  0  0
 17 14  1  0  0  0  0
 18 15  2  0  0  0  0
 19 23  1  1  0  0  0
 21 14  1  6  0  0  0
 21 19  1  0  0  0  0
 21 13  1  0  0  0  0
 22 20  1  1  0  0  0
 23 22  1  0  0  0  0
 24 25  1  0  0  0  0
 25  7  1  1  0  0  0
 26 29  1  0  0  0  0
 26 24  1  0  0  0  0
 27 25  1  0  0  0  0
 28 26  1  0  0  0  0
 28 27  1  0  0  0  0
 29 30  1  0  0  0  0
 30 31  1  0  0  0  0
 31 32  1  0  0  0  0
 33 31  2  0  0  0  0
 34 35  1  0  0  0  0
 35 36  1  0  0  0  0
M  END
>  <MODEL>
7

>  <REMARK>
 VINA RESULT:      -7.0      2.177      7.662
  Name = 
  7 active torsions:
  status: ('A' for Active; 'I' for Inactive)
    1  A    between atoms: C_2  and  C_23
    2  A    between atoms: C_7  and  C_15
    3  A    between atoms: C_7  and  C_19
    4  A    between atoms: N_8  and  C_15
    5  A    between atoms: O_14  and  C_16
    6  A    between atoms: O_14  and  C_21
    7  A    between atoms: C_17  and  N_27
                            x       y       z     vdW  Elec       q    Type
                         _______ _______ _______ _____ _____    ______ ____

>  <TORSDO>
F 7

$$$$
=
 OpenBabel11042411343D

 36 41  0  0  1  0  0  0  0  0999 V2000
  181.5720  176.5910  139.6700 C   0  0  0  0  0  1  0  0  0  0  0  0
  181.9690  178.0190  140.0070 C   0  0  2  0  0  0  0  0  0  0  0  0
  187.3710  178.8370  140.5620 O   0  0  0  0  0  0  0  0  0  0  0  0
  183.4470  178.1840  139.9620 C   0  0  0  0  0  0  0  0  0  0  0  0
  184.3080  178.0550  138.8770 C   0  0  0  0  0  3  0  0  0  0  0  0
  181.7040  178.3530  141.4590 C   0  0  0  0  0  0  0  0  0  0  0  0
  185.6820  178.2610  139.0880 C   0  0  0  0  0  0  0  0  0  0  0  0
  183.9260  178.5220  141.1990 C   0  0  0  0  0  0  0  0  0  0  0  0
  185.2570  178.7520  141.4250 N   0  0  0  0  0  0  0  0  0  0  0  0
  181.3380  178.9270  139.1560 O   0  0  0  0  0  1  0  0  0  0  0  0
  182.8170  178.6290  142.1390 C   0  0  0  0  0  3  0  0  0  0  0  0
  186.1400  178.6280  140.3770 C   0  0  0  0  0  0  0  0  0  0  0  0
  186.8560  178.2230  145.7500 C   0  0  2  0  0  3  0  0  0  0  0  0
  185.0120  179.5430  144.9760 N   0  0  0  0  0  2  0  0  0  0  0  0
  188.4240  176.9470  146.7260 C   0  0  0  0  0  3  0  0  0  0  0  0
  185.7790  179.0980  142.7570 C   0  0  1  0  0  3  0  0  0  0  0  0
  184.7880  179.8900  143.5800 C   0  0  0  0  0  2  0  0  0  0  0  0
  187.0530  177.4370  146.7950 C   0  0  0  0  0  3  0  0  0  0  0  0
  186.0970  177.8740  143.5800 C   0  0  2  0  0  3  0  0  0  0  0  0
  188.9770  177.3710  145.5970 C   0  0  0  0  0  2  0  0  0  0  0  0
  185.6040  178.2080  144.9870 C   0  0  1  0  0  3  0  0  0  0  0  0
  188.0200  178.2520  144.8660 C   0  0  1  0  0  3  0  0  0  0  0  0
  187.5540  177.6590  143.6170 N   0  0  0  0  0  2  0  0  0  0  0  0
  186.0990  177.2910  136.8360 C   0  0  0  0  0  2  0  0  0  0  0  0
  186.6570  178.1520  137.9470 C   0  0  2  0  0  3  0  0  0  0  0  0
  187.2210  176.5650  136.2620 N   0  0  0  0  0  0  0  0  0  0  0  0
  187.9630  177.4950  138.3430 C   0  0  0  0  0  2  0  0  0  0  0  0
  188.1320  176.3410  137.3760 C   0  0  0  0  0  2  0  0  0  0  0  0
  186.7240  175.2680  135.8390 C   0  0  0  0  0  2  0  0  0  0  0  0
  185.6730  174.7890  136.8260 C   0  0  0  0  0  2  0  0  0  0  0  0
  185.9330  173.3750  137.2130 C   0  0  0  0  0  0  0  0  0  0  0  0
  184.9720  172.6270  137.5360 O   0  0  0  0  0  1  0  0  0  0  0  0
  187.2310  172.8780  137.2200 O   0  0  0  0  0  0  0  0  0  0  0  0
  180.4460  178.4060  142.0670 O   0  0  0  0  0  0  0  0  0  0  0  0
  180.1150  179.3450  143.0820 C   0  0  0  0  0  2  0  0  0  0  0  0
  179.6800  178.6170  144.3390 C   0  0  0  0  0  1  0  0  0  0  0  0
  2  1  1  6  0  0  0
  2  6  1  0  0  0  0
  4  2  1  0  0  0  0
  4  8  2  0  0  0  0
  5  7  2  0  0  0  0
  5  4  1  0  0  0  0
  6 34  1  0  0  0  0
  6 11  2  0  0  0  0
  7 12  1  0  0  0  0
  8  9  1  0  0  0  0
  8 11  1  0  0  0  0
 10  2  1  0  0  0  0
 12  3  2  0  0  0  0
 12  9  1  0  0  0  0
 13 18  1  6  0  0  0
 15 18  2  0  0  0  0
 16  9  1  6  0  0  0
 16 19  1  0  0  0  0
 16 17  1  0  0  0  0
 17 14  1  0  0  0  0
 19 23  1  1  0  0  0
 19 21  1  0  0  0  0
 20 15  1  0  0  0  0
 21 14  1  6  0  0  0
 21 13  1  0  0  0  0
 22 20  1  1  0  0  0
 22 13  1  0  0  0  0
 23 22  1  0  0  0  0
 24 25  1  0  0  0  0
 25 27  1  0  0  0  0
 25  7  1  1  0  0  0
 26 24  1  0  0  0  0
 26 28  1  0  0  0  0
 28 27  1  0  0  0  0
 29 26  1  0  0  0  0
 29 30  1  0  0  0  0
 30 31  1  0  0  0  0
 31 33  2  0  0  0  0
 31 32  1  0  0  0  0
 34 35  1  0  0  0  0
 35 36  1  0  0  0  0
M  END
>  <MODEL>
8

>  <REMARK>
 VINA RESULT:      -7.0      2.857      8.807
  Name = 
  7 active torsions:
  status: ('A' for Active; 'I' for Inactive)
    1  A    between atoms: C_2  and  C_23
    2  A    between atoms: C_7  and  C_15
    3  A    between atoms: C_7  and  C_19
    4  A    between atoms: N_8  and  C_15
    5  A    between atoms: O_14  and  C_16
    6  A    between atoms: O_14  and  C_21
    7  A    between atoms: C_17  and  N_27
                            x       y       z     vdW  Elec       q    Type
                         _______ _______ _______ _____ _____    ______ ____

>  <TORSDO>
F 7

$$$$
=
 OpenBabel11042411343D

 36 41  0  0  1  0  0  0  0  0999 V2000
  188.6040  176.5460  143.6030 C   0  0  0  0  0  1  0  0  0  0  0  0
  189.3620  177.5110  142.7060 C   0  0  2  0  0  0  0  0  0  0  0  0
  187.4250  177.9020  137.5830 O   0  0  0  0  0  0  0  0  0  0  0  0
  188.6650  177.6860  141.4030 C   0  0  0  0  0  0  0  0  0  0  0  0
  187.4080  178.2230  141.1500 C   0  0  0  0  0  3  0  0  0  0  0  0
  190.6770  176.9320  142.2340 C   0  0  0  0  0  0  0  0  0  0  0  0
  186.9620  178.2800  139.8190 C   0  0  0  0  0  0  0  0  0  0  0  0
  189.4560  177.2420  140.3780 C   0  0  0  0  0  0  0  0  0  0  0  0
  189.0550  177.3100  139.0700 N   0  0  0  0  0  0  0  0  0  0  0  0
  189.5490  178.7400  143.3420 O   0  0  0  0  0  1  0  0  0  0  0  0
  190.7270  176.7690  140.9110 C   0  0  0  0  0  3  0  0  0  0  0  0
  187.8150  177.8300  138.7810 C   0  0  0  0  0  0  0  0  0  0  0  0
  191.1580  174.3450  136.1820 C   0  0  2  0  0  3  0  0  0  0  0  0
  192.1240  176.0680  137.5400 N   0  0  0  0  0  2  0  0  0  0  0  0
  190.5080  172.5800  134.9580 C   0  0  0  0  0  3  0  0  0  0  0  0
  189.8940  176.8180  137.9650 C   0  0  1  0  0  3  0  0  0  0  0  0
  191.3580  177.1400  138.1630 C   0  0  0  0  0  2  0  0  0  0  0  0
  191.4990  173.1020  135.8900 C   0  0  0  0  0  3  0  0  0  0  0  0
  189.8280  175.3170  137.8250 C   0  0  2  0  0  3  0  0  0  0  0  0
  189.5510  173.4850  134.7950 C   0  0  0  0  0  2  0  0  0  0  0  0
  191.2670  174.8850  137.5410 C   0  0  1  0  0  3  0  0  0  0  0  0
  189.8890  174.7210  135.5590 C   0  0  1  0  0  3  0  0  0  0  0  0
  188.9800  174.9560  136.6760 N   0  0  0  0  0  2  0  0  0  0  0  0
  184.8540  179.2270  140.7400 C   0  0  0  0  0  2  0  0  0  0  0  0
  185.6170  178.8670  139.4850 C   0  0  2  0  0  3  0  0  0  0  0  0
  183.4500  178.9670  140.4670 N   0  0  0  0  0  0  0  0  0  0  0  0
  184.7190  177.9060  138.7340 C   0  0  0  0  0  2  0  0  0  0  0  0
  183.4470  177.8340  139.5540 C   0  0  0  0  0  2  0  0  0  0  0  0
  182.8440  178.5240  141.7110 C   0  0  0  0  0  2  0  0  0  0  0  0
  183.8290  178.7290  142.8490 C   0  0  0  0  0  2  0  0  0  0  0  0
  183.1060  178.8770  144.1410 C   0  0  0  0  0  0  0  0  0  0  0  0
  181.8650  178.6640  144.1930 O   0  0  0  0  0  0  0  0  0  0  0  0
  183.7940  179.2480  145.2910 O   0  0  0  0  0  1  0  0  0  0  0  0
  191.7660  176.6080  143.0500 O   0  0  0  0  0  0  0  0  0  0  0  0
  191.6740  175.7020  144.1400 C   0  0  0  0  0  2  0  0  0  0  0  0
  191.7570  176.4590  145.4520 C   0  0  0  0  0  1  0  0  0  0  0  0
  2 10  1  0  0  0  0
  2  1  1  1  0  0  0
  3 12  2  0  0  0  0
  4  2  1  0  0  0  0
  5  4  1  0  0  0  0
  6  2  1  0  0  0  0
  6 34  1  0  0  0  0
  7  5  2  0  0  0  0
  8 11  1  0  0  0  0
  8  4  2  0  0  0  0
  9  8  1  0  0  0  0
 11  6  2  0  0  0  0
 12  9  1  0  0  0  0
 12  7  1  0  0  0  0
 13 18  1  1  0  0  0
 13 21  1  0  0  0  0
 14 17  1  0  0  0  0
 15 18  2  0  0  0  0
 16 17  1  1  0  0  0
 16  9  1  0  0  0  0
 19 23  1  6  0  0  0
 19 16  1  0  0  0  0
 20 15  1  0  0  0  0
 21 14  1  6  0  0  0
 21 19  1  0  0  0  0
 22 20  1  6  0  0  0
 22 13  1  0  0  0  0
 22 23  1  0  0  0  0
 25  7  1  1  0  0  0
 25 24  1  0  0  0  0
 26 24  1  0  0  0  0
 26 29  1  0  0  0  0
 27 25  1  0  0  0  0
 27 28  1  0  0  0  0
 28 26  1  0  0  0  0
 29 30  1  0  0  0  0
 30 31  1  0  0  0  0
 31 32  2  0  0  0  0
 31 33  1  0  0  0  0
 34 35  1  0  0  0  0
 35 36  1  0  0  0  0
M  END
>  <MODEL>
9

>  <REMARK>
 VINA RESULT:      -6.9      2.157      2.987
  Name = 
  7 active torsions:
  status: ('A' for Active; 'I' for Inactive)
    1  A    between atoms: C_2  and  C_23
    2  A    between atoms: C_7  and  C_15
    3  A    between atoms: C_7  and  C_19
    4  A    between atoms: N_8  and  C_15
    5  A    between atoms: O_14  and  C_16
    6  A    between atoms: O_14  and  C_21
    7  A    between atoms: C_17  and  N_27
                            x       y       z     vdW  Elec       q    Type
                         _______ _______ _______ _____ _____    ______ ____

>  <TORSDO>
F 7

$$$$
