=
 OpenBabel11042409483D

 60 66  0  0  1  0  0  0  0  0999 V2000
  181.7230  178.9910  140.5990 C   0  0  0  0  0  0  0  0  0  0  0  0
  183.5930  178.7750  142.7000 C   0  0  0  0  0  0  0  0  0  0  0  0
  184.0150  178.8400  141.3640 C   0  0  0  0  0  3  0  0  0  0  0  0
  182.2080  178.8380  142.9830 C   0  0  0  0  0  0  0  0  0  0  0  0
  183.0920  178.9580  140.3240 C   0  0  0  0  0  3  0  0  0  0  0  0
  181.6620  178.7350  144.3680 C   0  0  0  0  0  1  0  0  0  0  0  0
  181.2860  178.9330  141.9320 C   0  0  0  0  0  3  0  0  0  0  0  0
  184.6270  178.5970  143.7440 C   0  0  0  0  0  0  0  0  0  0  0  0
  184.3940  178.9940  144.9200 O   0  0  0  0  0  0  0  0  0  0  0  0
  185.9320  177.9280  143.4510 C   0  0  0  0  0  2  0  0  0  0  0  0
  188.6660  179.0170  140.3380 C   0  0  0  0  0  3  0  0  0  0  0  0
  188.7430  178.8250  138.9600 C   0  0  0  0  0  3  0  0  0  0  0  0
  189.7990  176.6840  139.3190 C   0  0  0  0  0  3  0  0  0  0  0  0
  190.9060  176.9710  145.0960 C   0  0  0  0  0  2  0  0  0  0  0  0
  189.9970  176.8590  146.2320 N   0  0  0  0  0  0  0  0  0  0  0  0
  188.7730  178.2040  142.5050 C   0  0  0  0  0  2  0  0  0  0  0  0
  190.2260  176.6810  143.7950 C   0  0  0  0  0  0  0  0  0  0  0  0
  190.5520  176.0330  141.4090 C   0  0  0  0  0  2  0  0  0  0  0  0
  189.7760  176.8750  140.7040 C   0  0  0  0  0  0  0  0  0  0  0  0
  190.9500  176.1340  142.8260 C   0  0  0  0  0  3  0  0  0  0  0  0
  186.7070  177.7430  144.7160 C   0  0  0  0  0  3  0  0  0  0  0  0
  189.1230  178.0360  141.2270 C   0  0  0  0  0  0  0  0  0  0  0  0
  187.9080  177.3650  147.1510 O   0  0  0  0  0  0  0  0  0  0  0  0
  188.0080  177.4200  144.7770 C   0  0  0  0  0  0  0  0  0  0  0  0
  189.2750  177.6400  138.4410 C   0  0  0  0  0  0  0  0  0  0  0  0
  188.6140  177.2280  146.1110 C   0  0  0  0  0  0  0  0  0  0  0  0
  188.8200  177.1200  143.5320 C   0  0  1  0  0  3  0  0  0  0  0  0
  188.2440  177.8350  136.1880 O   0  0  0  0  0  0  0  0  0  0  0  0
  189.3010  177.4090  136.9890 C   0  0  0  0  0  0  0  0  0  0  0  0
  190.2600  176.7900  136.4610 O   0  0  0  0  0  1  0  0  0  0  0  0
  190.5880  176.6680  147.5490 C   0  0  0  0  0  2  0  0  0  0  0  0
  192.0970  176.6380  147.4310 C   0  0  0  0  0  2  0  0  0  0  0  0
  192.7020  175.9630  148.6460 C   0  0  0  0  0  2  0  0  0  0  0  0
  194.4970  176.7470  149.9940 O   0  0  0  0  0  1  0  0  0  0  0  0
  193.3640  176.9800  149.5030 C   0  0  0  0  0  0  0  0  0  0  0  0
  192.7760  178.2260  149.6890 O   0  0  0  0  0  0  0  0  0  0  0  0
  180.7960  179.0410  139.5110 N   0  0  0  0  0  2  0  0  0  0  0  0
  180.9200  178.2200  138.3100 C   0  0  0  0  0  2  0  0  0  0  0  0
  181.4100  179.0520  137.2150 N   0  0  0  0  0  0  0  0  0  0  0  0
  182.5520  178.4620  136.7720 O   0  0  0  0  0  1  0  0  0  0  0  0
  180.7990  180.0040  134.8950 C   0  0  0  0  0  2  0  0  0  0  0  0
  179.8050  180.5230  135.9250 C   0  0  1  0  0  3  0  0  0  0  0  0
  180.4390  179.1350  136.0950 C   0  0  2  0  0  0  0  0  0  0  0  0
  179.6020  182.0210  137.8980 C   0  0  0  0  0  2  0  0  0  0  0  0
  180.4900  181.6120  136.7390 C   0  0  2  0  0  3  0  0  0  0  0  0
  179.6730  182.8920  136.6500 C   0  0  2  0  0  3  0  0  0  0  0  0
  180.1640  185.2470  136.8390 O   0  0  0  0  0  0  0  0  0  0  0  0
  181.9610  183.8330  136.9450 O   0  0  0  0  0  1  0  0  0  0  0  0
  180.5960  184.0610  136.8260 C   0  0  0  0  0  0  0  0  0  0  0  0
  179.4280  178.0100  135.8610 C   0  0  0  0  0  2  0  0  0  0  0  0
  180.0930  176.8600  135.1250 C   0  0  0  0  0  2  0  0  0  0  0  0
  180.1220  175.7220  135.9310 O   0  0  0  0  0  0  0  0  0  0  0  0
  181.4530  175.2950  135.8830 C   0  0  0  0  0  2  0  0  0  0  0  0
  182.8780  173.4920  136.9560 C   0  0  1  0  0  3  0  0  0  0  0  0
  182.3210  172.2810  136.1850 C   0  0  0  0  0  2  0  0  0  0  0  0
  180.5670  174.0180  137.8490 C   0  0  0  0  0  2  0  0  0  0  0  0
  184.0550  174.0180  136.2860 N   0  0  0  0  0  1  0  0  0  0  0  0
  181.8280  174.5890  137.1830 C   0  0  2  0  0  3  0  0  0  0  0  0
  180.3840  172.5190  137.5830 C   0  0  0  0  0  2  0  0  0  0  0  0
  180.8570  172.1790  136.2430 N   0  0  0  0  0  2  0  0  0  0  0  0
  1  7  1  0  0  0  0
  2  4  1  0  0  0  0
  2  8  1  0  0  0  0
  3  2  2  0  0  0  0
  4  6  1  0  0  0  0
  5  1  2  0  0  0  0
  5  3  1  0  0  0  0
  7  4  2  0  0  0  0
  8  9  2  0  0  0  0
 10  8  1  0  0  0  0
 10 21  1  0  0  0  0
 11 22  1  0  0  0  0
 12 11  2  0  0  0  0
 13 19  1  0  0  0  0
 14 15  1  0  0  0  0
 15 31  1  0  0  0  0
 17 14  1  0  0  0  0
 18 20  1  0  0  0  0
 19 22  2  0  0  0  0
 19 18  1  0  0  0  0
 20 17  2  0  0  0  0
 21 24  2  0  0  0  0
 22 16  1  0  0  0  0
 24 26  1  0  0  0  0
 25 12  1  0  0  0  0
 25 13  2  0  0  0  0
 26 15  1  0  0  0  0
 26 23  2  0  0  0  0
 27 16  1  6  0  0  0
 27 17  1  0  0  0  0
 27 24  1  0  0  0  0
 28 29  2  0  0  0  0
 29 25  1  0  0  0  0
 30 29  1  0  0  0  0
 32 31  1  0  0  0  0
 32 33  1  0  0  0  0
 33 35  1  0  0  0  0
 35 36  2  0  0  0  0
 35 34  1  0  0  0  0
 37  1  1  0  0  0  0
 38 37  1  0  0  0  0
 39 38  1  0  0  0  0
 40 39  1  0  0  0  0
 41 43  1  0  0  0  0
 42 41  1  6  0  0  0
 42 43  1  0  0  0  0
 42 45  1  0  0  0  0
 43 50  1  6  0  0  0
 43 39  1  0  0  0  0
 45 44  1  1  0  0  0
 46 45  1  0  0  0  0
 46 49  1  1  0  0  0
 46 44  1  0  0  0  0
 49 47  2  0  0  0  0
 49 48  1  0  0  0  0
 51 50  1  0  0  0  0
 51 52  1  0  0  0  0
 53 52  1  0  0  0  0
 54 57  1  6  0  0  0
 54 58  1  0  0  0  0
 55 60  1  0  0  0  0
 55 54  1  0  0  0  0
 58 53  1  6  0  0  0
 58 56  1  0  0  0  0
 59 56  1  0  0  0  0
 60 59  1  0  0  0  0
M  END
>  <MODEL>
1

>  <REMARK>
 VINA RESULT:      -7.1      0.000      0.000
  Name = 
  19 active torsions:
  status: ('A' for Active; 'I' for Inactive)
    1  A    between atoms: C_1  and  C_6
    2  A    between atoms: C_1  and  C_28
    3  A    between atoms: C_2  and  N_29
    4  A    between atoms: C_2  and  C_60
    5  A    between atoms: C_3  and  C_24
    6  A    between atoms: C_3  and  O_59
    7  A    between atoms: C_4  and  N_12
    8  A    between atoms: N_8  and  C_42
    9  A    between atoms: N_8  and  C_58
   10  A    between atoms: N_12  and  C_42
   11  A    between atoms: C_17  and  C_50
   12  A    between atoms: C_27  and  C_49
   13  A    between atoms: C_28  and  C_39
   14  A    between atoms: C_38  and  C_47
   15  A    between atoms: C_45  and  C_57
   16  A    between atoms: C_45  and  O_59
   17  A    between atoms: C_49  and  C_60
   18  A    between atoms: C_52  and  C_56
   19  A    between atoms: C_57  and  C_58
                            x       y       z     vdW  Elec       q    Type
                         _______ _______ _______ _____ _____    ______ ____

>  <TORSDO>
F 19

$$$$
=
 OpenBabel11042409483D

 60 66  0  0  1  0  0  0  0  0999 V2000
  185.2440  178.1840  143.0390 C   0  0  0  0  0  0  0  0  0  0  0  0
  183.0320  178.6740  141.3570 C   0  0  0  0  0  0  0  0  0  0  0  0
  184.3060  178.4330  140.8210 C   0  0  0  0  0  3  0  0  0  0  0  0
  182.8680  178.6520  142.7630 C   0  0  0  0  0  0  0  0  0  0  0  0
  185.3990  178.1780  141.6510 C   0  0  0  0  0  3  0  0  0  0  0  0
  181.5620  178.9380  143.4260 C   0  0  0  0  0  1  0  0  0  0  0  0
  183.9740  178.4200  143.5900 C   0  0  0  0  0  3  0  0  0  0  0  0
  181.9340  178.9880  140.4160 C   0  0  0  0  0  0  0  0  0  0  0  0
  180.8460  179.4440  140.8660 O   0  0  0  0  0  0  0  0  0  0  0  0
  182.0900  178.8110  138.9400 C   0  0  0  0  0  2  0  0  0  0  0  0
  185.9230  177.0830  138.1170 C   0  0  0  0  0  3  0  0  0  0  0  0
  187.2000  177.5650  137.8380 C   0  0  0  0  0  3  0  0  0  0  0  0
  186.6260  177.7270  135.4990 C   0  0  0  0  0  3  0  0  0  0  0  0
  181.4900  174.8440  135.4370 C   0  0  0  0  0  2  0  0  0  0  0  0
  180.1770  175.2570  135.9220 N   0  0  0  0  0  0  0  0  0  0  0  0
  183.7160  176.7240  137.5100 C   0  0  0  0  0  2  0  0  0  0  0  0
  182.4950  175.9520  135.5090 C   0  0  0  0  0  0  0  0  0  0  0  0
  184.6800  176.7980  134.6560 C   0  0  0  0  0  2  0  0  0  0  0  0
  185.3550  177.2000  135.7480 C   0  0  0  0  0  0  0  0  0  0  0  0
  183.4570  175.9750  134.5950 C   0  0  0  0  0  3  0  0  0  0  0  0
  181.0350  177.8870  138.4210 C   0  0  0  0  0  3  0  0  0  0  0  0
  184.9680  176.9450  137.1020 C   0  0  0  0  0  0  0  0  0  0  0  0
  178.9320  176.3510  137.5690 O   0  0  0  0  0  0  0  0  0  0  0  0
  181.2110  177.0070  137.4240 C   0  0  0  0  0  0  0  0  0  0  0  0
  187.5480  177.9270  136.5330 C   0  0  0  0  0  0  0  0  0  0  0  0
  180.0490  176.1970  136.9990 C   0  0  0  0  0  0  0  0  0  0  0  0
  182.5110  176.9210  136.6480 C   0  0  1  0  0  3  0  0  0  0  0  0
  189.5700  179.1920  137.2300 O   0  0  0  0  0  1  0  0  0  0  0  0
  188.8740  178.4940  136.2460 C   0  0  0  0  0  0  0  0  0  0  0  0
  189.3760  178.3870  135.0980 O   0  0  0  0  0  0  0  0  0  0  0  0
  179.0290  174.4650  135.5050 C   0  0  0  0  0  2  0  0  0  0  0  0
  179.4900  173.0950  135.0540 C   0  0  0  0  0  2  0  0  0  0  0  0
  179.3600  172.1000  136.1900 C   0  0  0  0  0  2  0  0  0  0  0  0
  181.2180  172.2350  137.6670 O   0  0  0  0  0  1  0  0  0  0  0  0
  180.7110  171.6930  136.6530 C   0  0  0  0  0  0  0  0  0  0  0  0
  181.3810  170.6510  136.0220 O   0  0  0  0  0  0  0  0  0  0  0  0
  186.3940  177.9920  143.8680 N   0  0  0  0  0  2  0  0  0  0  0  0
  187.7640  178.0590  143.3710 C   0  0  0  0  0  2  0  0  0  0  0  0
  188.4430  176.8040  143.6770 N   0  0  0  0  0  0  0  0  0  0  0  0
  187.5970  175.8110  143.2900 O   0  0  0  0  0  1  0  0  0  0  0  0
  190.5330  175.3880  143.1440 C   0  0  0  0  0  2  0  0  0  0  0  0
  190.9630  176.6650  143.8510 C   0  0  1  0  0  3  0  0  0  0  0  0
  189.7250  176.6640  142.9430 C   0  0  2  0  0  0  0  0  0  0  0  0
  190.3450  177.8860  145.9260 C   0  0  0  0  0  2  0  0  0  0  0  0
  190.6360  176.5220  145.3310 C   0  0  2  0  0  3  0  0  0  0  0  0
  191.7040  177.2320  146.1500 C   0  0  2  0  0  3  0  0  0  0  0  0
  191.9100  177.2370  148.5540 O   0  0  0  0  0  1  0  0  0  0  0  0
  191.7940  175.1790  147.5590 O   0  0  0  0  0  0  0  0  0  0  0  0
  191.7980  176.5660  147.4910 C   0  0  0  0  0  0  0  0  0  0  0  0
  189.9640  177.4420  141.6460 C   0  0  0  0  0  2  0  0  0  0  0  0
  190.6700  176.5580  140.6340 C   0  0  0  0  0  2  0  0  0  0  0  0
  190.2750  176.8930  139.3390 O   0  0  0  0  0  0  0  0  0  0  0  0
  190.7340  175.8350  138.5490 C   0  0  0  0  0  2  0  0  0  0  0  0
  191.6000  175.4510  136.1950 C   0  0  1  0  0  3  0  0  0  0  0  0
  192.2910  174.0960  136.4310 C   0  0  0  0  0  2  0  0  0  0  0  0
  193.0660  176.5340  137.9540 C   0  0  0  0  0  2  0  0  0  0  0  0
  190.2400  175.2490  135.7240 N   0  0  0  0  0  1  0  0  0  0  0  0
  191.6320  176.3610  137.4320 C   0  0  2  0  0  3  0  0  0  0  0  0
  193.9830  175.3690  137.5640 C   0  0  0  0  0  2  0  0  0  0  0  0
  193.2340  174.1140  137.5570 N   0  0  0  0  0  2  0  0  0  0  0  0
  1  7  1  0  0  0  0
  1 37  1  0  0  0  0
  2  4  1  0  0  0  0
  3  2  2  0  0  0  0
  3  5  1  0  0  0  0
  4  6  1  0  0  0  0
  4  7  2  0  0  0  0
  5  1  2  0  0  0  0
  8  9  2  0  0  0  0
  8  2  1  0  0  0  0
 10  8  1  0  0  0  0
 12 11  1  0  0  0  0
 13 19  2  0  0  0  0
 13 25  1  0  0  0  0
 14 17  1  0  0  0  0
 14 15  1  0  0  0  0
 15 26  1  0  0  0  0
 17 27  1  0  0  0  0
 18 19  1  0  0  0  0
 19 22  1  0  0  0  0
 20 18  1  0  0  0  0
 20 17  2  0  0  0  0
 21 10  1  0  0  0  0
 22 16  1  0  0  0  0
 22 11  2  0  0  0  0
 24 21  2  0  0  0  0
 25 12  2  0  0  0  0
 26 24  1  0  0  0  0
 26 23  2  0  0  0  0
 27 24  1  0  0  0  0
 27 16  1  1  0  0  0
 29 25  1  0  0  0  0
 29 28  1  0  0  0  0
 30 29  2  0  0  0  0
 31 15  1  0  0  0  0
 32 31  1  0  0  0  0
 32 33  1  0  0  0  0
 33 35  1  0  0  0  0
 35 34  1  0  0  0  0
 36 35  2  0  0  0  0
 38 39  1  0  0  0  0
 38 37  1  0  0  0  0
 40 39  1  0  0  0  0
 42 41  1  6  0  0  0
 42 45  1  0  0  0  0
 43 50  1  6  0  0  0
 43 41  1  0  0  0  0
 43 39  1  0  0  0  0
 43 42  1  0  0  0  0
 44 46  1  0  0  0  0
 45 44  1  6  0  0  0
 45 46  1  0  0  0  0
 46 49  1  1  0  0  0
 49 48  2  0  0  0  0
 49 47  1  0  0  0  0
 51 50  1  0  0  0  0
 52 51  1  0  0  0  0
 53 52  1  0  0  0  0
 54 57  1  1  0  0  0
 54 55  1  0  0  0  0
 54 58  1  0  0  0  0
 55 60  1  0  0  0  0
 58 56  1  0  0  0  0
 58 53  1  1  0  0  0
 59 56  1  0  0  0  0
 60 59  1  0  0  0  0
M  END
>  <MODEL>
2

>  <REMARK>
 VINA RESULT:      -6.4      2.891     11.113
  Name = 
  19 active torsions:
  status: ('A' for Active; 'I' for Inactive)
    1  A    between atoms: C_1  and  C_6
    2  A    between atoms: C_1  and  C_28
    3  A    between atoms: C_2  and  N_29
    4  A    between atoms: C_2  and  C_60
    5  A    between atoms: C_3  and  C_24
    6  A    between atoms: C_3  and  O_59
    7  A    between atoms: C_4  and  N_12
    8  A    between atoms: N_8  and  C_42
    9  A    between atoms: N_8  and  C_58
   10  A    between atoms: N_12  and  C_42
   11  A    between atoms: C_17  and  C_50
   12  A    between atoms: C_27  and  C_49
   13  A    between atoms: C_28  and  C_39
   14  A    between atoms: C_38  and  C_47
   15  A    between atoms: C_45  and  C_57
   16  A    between atoms: C_45  and  O_59
   17  A    between atoms: C_49  and  C_60
   18  A    between atoms: C_52  and  C_56
   19  A    between atoms: C_57  and  C_58
                            x       y       z     vdW  Elec       q    Type
                         _______ _______ _______ _____ _____    ______ ____

>  <TORSDO>
F 19

$$$$
=
 OpenBabel11042409483D

 60 66  0  0  1  0  0  0  0  0999 V2000
  189.2860  175.1310  136.4960 C   0  0  0  0  0  0  0  0  0  0  0  0
  187.4710  177.2400  136.9640 C   0  0  0  0  0  0  0  0  0  0  0  0
  188.4090  176.8670  137.9390 C   0  0  0  0  0  3  0  0  0  0  0  0
  187.4590  176.5510  135.7280 C   0  0  0  0  0  0  0  0  0  0  0  0
  189.3160  175.8310  137.7040 C   0  0  0  0  0  3  0  0  0  0  0  0
  186.4720  176.8480  134.6490 C   0  0  0  0  0  1  0  0  0  0  0  0
  188.3560  175.4960  135.5100 C   0  0  0  0  0  3  0  0  0  0  0  0
  186.5090  178.3120  137.3060 C   0  0  0  0  0  0  0  0  0  0  0  0
  186.7760  179.5050  136.9900 O   0  0  0  0  0  0  0  0  0  0  0  0
  185.2120  178.0150  137.9870 C   0  0  0  0  0  2  0  0  0  0  0  0
  182.3470  174.8340  137.8270 C   0  0  0  0  0  3  0  0  0  0  0  0
  181.4960  174.3000  136.8610 C   0  0  0  0  0  3  0  0  0  0  0  0
  179.8270  175.9510  137.4230 C   0  0  0  0  0  3  0  0  0  0  0  0
  182.1480  178.2160  142.3390 C   0  0  0  0  0  2  0  0  0  0  0  0
  183.2840  179.1170  142.5120 N   0  0  0  0  0  0  0  0  0  0  0  0
  182.9430  176.5320  139.2870 C   0  0  0  0  0  2  0  0  0  0  0  0
  181.8000  178.0130  140.8980 C   0  0  0  0  0  0  0  0  0  0  0  0
  180.0280  177.2970  139.2970 C   0  0  0  0  0  2  0  0  0  0  0  0
  180.6440  176.4730  138.4300 C   0  0  0  0  0  0  0  0  0  0  0  0
  180.5270  177.7920  140.5930 C   0  0  0  0  0  3  0  0  0  0  0  0
  185.2270  178.5670  139.3770 C   0  0  0  0  0  3  0  0  0  0  0  0
  181.9680  175.9500  138.5820 C   0  0  0  0  0  0  0  0  0  0  0  0
  185.4390  179.7300  141.8500 O   0  0  0  0  0  0  0  0  0  0  0  0
  184.1990  178.5010  140.2380 C   0  0  0  0  0  0  0  0  0  0  0  0
  180.2450  174.8790  136.6260 C   0  0  0  0  0  0  0  0  0  0  0  0
  184.3600  179.1390  141.5610 C   0  0  0  0  0  0  0  0  0  0  0  0
  182.8570  177.9160  139.8430 C   0  0  1  0  0  3  0  0  0  0  0  0
  178.9310  173.0350  135.6020 O   0  0  0  0  0  1  0  0  0  0  0  0
  179.3700  174.3560  135.5660 C   0  0  0  0  0  0  0  0  0  0  0  0
  179.0410  175.0860  134.5950 O   0  0  0  0  0  0  0  0  0  0  0  0
  183.4470  179.7510  143.8120 C   0  0  0  0  0  2  0  0  0  0  0  0
  183.9390  178.7320  144.8180 C   0  0  0  0  0  2  0  0  0  0  0  0
  185.4360  178.8700  145.0100 C   0  0  0  0  0  2  0  0  0  0  0  0
  185.0720  178.6110  147.3450 O   0  0  0  0  0  1  0  0  0  0  0  0
  185.8130  178.3740  146.3590 C   0  0  0  0  0  0  0  0  0  0  0  0
  186.9360  177.5710  146.5190 O   0  0  0  0  0  0  0  0  0  0  0  0
  190.1780  174.0280  136.3100 N   0  0  0  0  0  2  0  0  0  0  0  0
  191.3330  173.7740  137.1660 C   0  0  0  0  0  2  0  0  0  0  0  0
  192.5150  174.3780  136.5580 N   0  0  0  0  0  0  0  0  0  0  0  0
  192.1230  174.8370  135.3400 O   0  0  0  0  0  1  0  0  0  0  0  0
  194.0740  176.4280  136.7140 C   0  0  0  0  0  2  0  0  0  0  0  0
  194.5280  175.3800  137.7190 C   0  0  1  0  0  3  0  0  0  0  0  0
  193.0400  175.5110  137.3590 C   0  0  2  0  0  0  0  0  0  0  0  0
  195.2650  173.0070  137.7960 C   0  0  0  0  0  2  0  0  0  0  0  0
  195.2450  174.2720  136.9600 C   0  0  2  0  0  3  0  0  0  0  0  0
  196.5080  173.8850  137.7150 C   0  0  2  0  0  3  0  0  0  0  0  0
  198.5010  172.6720  137.1010 O   0  0  0  0  0  1  0  0  0  0  0  0
  197.3590  173.6650  135.3830 O   0  0  0  0  0  0  0  0  0  0  0  0
  197.5100  173.3600  136.7300 C   0  0  0  0  0  0  0  0  0  0  0  0
  192.2200  176.0920  138.5130 C   0  0  0  0  0  2  0  0  0  0  0  0
  193.0580  177.0860  139.2970 C   0  0  0  0  0  2  0  0  0  0  0  0
  192.6510  177.1170  140.6310 O   0  0  0  0  0  0  0  0  0  0  0  0
  191.2960  177.4540  140.5750 C   0  0  0  0  0  2  0  0  0  0  0  0
  189.4270  177.5850  142.2850 C   0  0  1  0  0  3  0  0  0  0  0  0
  189.9960  178.7270  143.1480 C   0  0  0  0  0  2  0  0  0  0  0  0
  191.4920  176.1870  142.7280 C   0  0  0  0  0  2  0  0  0  0  0  0
  188.5320  178.1180  141.2720 N   0  0  0  0  0  1  0  0  0  0  0  0
  190.5220  176.7090  141.6590 C   0  0  2  0  0  3  0  0  0  0  0  0
  191.5390  177.0820  143.9720 C   0  0  0  0  0  2  0  0  0  0  0  0
  191.3740  178.4840  143.5960 N   0  0  0  0  0  2  0  0  0  0  0  0
  1  5  1  0  0  0  0
  2  8  1  0  0  0  0
  2  3  1  0  0  0  0
  4  2  2  0  0  0  0
  5  3  2  0  0  0  0
  6  4  1  0  0  0  0
  7  4  1  0  0  0  0
  7  1  2  0  0  0  0
  8 10  1  0  0  0  0
  9  8  2  0  0  0  0
 10 21  1  0  0  0  0
 11 22  1  0  0  0  0
 12 11  2  0  0  0  0
 13 19  1  0  0  0  0
 14 15  1  0  0  0  0
 15 31  1  0  0  0  0
 17 14  1  0  0  0  0
 18 20  1  0  0  0  0
 19 22  2  0  0  0  0
 19 18  1  0  0  0  0
 20 17  2  0  0  0  0
 21 24  2  0  0  0  0
 22 16  1  0  0  0  0
 24 26  1  0  0  0  0
 25 12  1  0  0  0  0
 25 13  2  0  0  0  0
 26 23  2  0  0  0  0
 26 15  1  0  0  0  0
 27 16  1  1  0  0  0
 27 24  1  0  0  0  0
 27 17  1  0  0  0  0
 29 28  1  0  0  0  0
 29 25  1  0  0  0  0
 30 29  2  0  0  0  0
 31 32  1  0  0  0  0
 32 33  1  0  0  0  0
 33 35  1  0  0  0  0
 35 36  2  0  0  0  0
 35 34  1  0  0  0  0
 37  1  1  0  0  0  0
 37 38  1  0  0  0  0
 39 38  1  0  0  0  0
 39 43  1  0  0  0  0
 40 39  1  0  0  0  0
 41 43  1  0  0  0  0
 42 41  1  6  0  0  0
 43 42  1  0  0  0  0
 43 50  1  1  0  0  0
 45 46  1  0  0  0  0
 45 42  1  0  0  0  0
 45 44  1  1  0  0  0
 46 49  1  6  0  0  0
 46 44  1  0  0  0  0
 48 49  2  0  0  0  0
 49 47  1  0  0  0  0
 50 51  1  0  0  0  0
 51 52  1  0  0  0  0
 53 52  1  0  0  0  0
 54 57  1  6  0  0  0
 54 55  1  0  0  0  0
 55 60  1  0  0  0  0
 56 59  1  0  0  0  0
 58 53  1  6  0  0  0
 58 54  1  0  0  0  0
 58 56  1  0  0  0  0
 60 59  1  0  0  0  0
M  END
>  <MODEL>
3

>  <REMARK>
 VINA RESULT:      -6.3      3.752     11.251
  Name = 
  19 active torsions:
  status: ('A' for Active; 'I' for Inactive)
    1  A    between atoms: C_1  and  C_6
    2  A    between atoms: C_1  and  C_28
    3  A    between atoms: C_2  and  N_29
    4  A    between atoms: C_2  and  C_60
    5  A    between atoms: C_3  and  C_24
    6  A    between atoms: C_3  and  O_59
    7  A    between atoms: C_4  and  N_12
    8  A    between atoms: N_8  and  C_42
    9  A    between atoms: N_8  and  C_58
   10  A    between atoms: N_12  and  C_42
   11  A    between atoms: C_17  and  C_50
   12  A    between atoms: C_27  and  C_49
   13  A    between atoms: C_28  and  C_39
   14  A    between atoms: C_38  and  C_47
   15  A    between atoms: C_45  and  C_57
   16  A    between atoms: C_45  and  O_59
   17  A    between atoms: C_49  and  C_60
   18  A    between atoms: C_52  and  C_56
   19  A    between atoms: C_57  and  C_58
                            x       y       z     vdW  Elec       q    Type
                         _______ _______ _______ _____ _____    ______ ____

>  <TORSDO>
F 19

$$$$
=
 OpenBabel11042409483D

 60 66  0  0  1  0  0  0  0  0999 V2000
  191.2700  176.7990  138.6240 C   0  0  0  0  0  0  0  0  0  0  0  0
  188.7470  177.8810  139.2700 C   0  0  0  0  0  0  0  0  0  0  0  0
  189.3350  176.8950  140.0760 C   0  0  0  0  0  3  0  0  0  0  0  0
  189.4490  178.3410  138.1310 C   0  0  0  0  0  0  0  0  0  0  0  0
  190.5890  176.3670  139.7640 C   0  0  0  0  0  3  0  0  0  0  0  0
  188.8860  179.3560  137.1920 C   0  0  0  0  0  1  0  0  0  0  0  0
  190.6960  177.7880  137.8110 C   0  0  0  0  0  3  0  0  0  0  0  0
  187.3930  178.3550  139.6350 C   0  0  0  0  0  0  0  0  0  0  0  0
  186.4210  178.0980  138.8700 O   0  0  0  0  0  0  0  0  0  0  0  0
  187.1370  179.1020  140.9040 C   0  0  0  0  0  2  0  0  0  0  0  0
  183.0940  177.8130  141.4930 C   0  0  0  0  0  3  0  0  0  0  0  0
  181.8280  178.3310  141.2250 C   0  0  0  0  0  3  0  0  0  0  0  0
  181.8850  179.5410  143.3130 C   0  0  0  0  0  3  0  0  0  0  0  0
  186.6380  177.1450  145.8330 C   0  0  0  0  0  2  0  0  0  0  0  0
  188.0540  177.3350  145.5350 N   0  0  0  0  0  0  0  0  0  0  0  0
  185.0780  177.8290  142.6890 C   0  0  0  0  0  2  0  0  0  0  0  0
  185.7640  178.0730  145.0480 C   0  0  0  0  0  0  0  0  0  0  0  0
  183.5180  179.1460  144.9060 C   0  0  0  0  0  2  0  0  0  0  0  0
  183.1340  178.9970  143.6260 C   0  0  0  0  0  0  0  0  0  0  0  0
  184.6290  178.4740  145.6070 C   0  0  0  0  0  3  0  0  0  0  0  0
  187.9760  178.5400  142.0070 C   0  0  0  0  0  3  0  0  0  0  0  0
  183.7880  178.1730  142.6550 C   0  0  0  0  0  0  0  0  0  0  0  0
  189.7140  177.6110  143.9130 O   0  0  0  0  0  0  0  0  0  0  0  0
  187.5170  178.1950  143.2200 C   0  0  0  0  0  0  0  0  0  0  0  0
  181.2310  179.2290  142.1150 C   0  0  0  0  0  0  0  0  0  0  0  0
  188.4890  177.6960  144.2150 C   0  0  0  0  0  0  0  0  0  0  0  0
  186.0750  178.4270  143.6280 C   0  0  1  0  0  3  0  0  0  0  0  0
  179.3340  179.6240  140.5600 O   0  0  0  0  0  0  0  0  0  0  0  0
  179.9230  179.8250  141.8060 C   0  0  0  0  0  0  0  0  0  0  0  0
  179.3400  180.5530  142.6500 O   0  0  0  0  0  1  0  0  0  0  0  0
  189.0170  176.8480  146.5120 C   0  0  0  0  0  2  0  0  0  0  0  0
  189.2180  177.8890  147.5930 C   0  0  0  0  0  2  0  0  0  0  0  0
  190.6310  177.8120  148.1350 C   0  0  0  0  0  2  0  0  0  0  0  0
  192.4950  176.6250  147.2570 O   0  0  0  0  0  0  0  0  0  0  0  0
  191.2940  176.5840  147.6260 C   0  0  0  0  0  0  0  0  0  0  0  0
  190.6200  175.3690  147.6410 O   0  0  0  0  0  1  0  0  0  0  0  0
  192.5210  176.1900  138.2890 N   0  0  0  0  0  2  0  0  0  0  0  0
  192.6360  174.8590  137.7010 C   0  0  0  0  0  2  0  0  0  0  0  0
  191.9170  174.8380  136.4310 N   0  0  0  0  0  0  0  0  0  0  0  0
  192.5940  175.6720  135.5980 O   0  0  0  0  0  1  0  0  0  0  0  0
  190.9680  173.2540  134.6280 C   0  0  0  0  0  2  0  0  0  0  0  0
  190.5260  172.7680  136.0010 C   0  0  1  0  0  3  0  0  0  0  0  0
  191.8760  173.4810  135.8320 C   0  0  2  0  0  0  0  0  0  0  0  0
  188.0650  173.0290  136.2360 C   0  0  0  0  0  2  0  0  0  0  0  0
  189.4100  173.6810  136.4910 C   0  0  2  0  0  3  0  0  0  0  0  0
  188.5690  174.1240  135.3040 C   0  0  2  0  0  3  0  0  0  0  0  0
  187.9150  176.3830  134.7600 O   0  0  0  0  0  0  0  0  0  0  0  0
  187.4770  175.6970  136.9000 O   0  0  0  0  0  1  0  0  0  0  0  0
  187.9640  175.4600  135.6210 C   0  0  0  0  0  0  0  0  0  0  0  0
  193.0560  172.5210  136.0030 C   0  0  0  0  0  2  0  0  0  0  0  0
  193.7600  172.3210  134.6720 C   0  0  0  0  0  2  0  0  0  0  0  0
  194.8910  173.1330  134.5950 O   0  0  0  0  0  0  0  0  0  0  0  0
  195.3480  173.2200  135.9130 C   0  0  0  0  0  2  0  0  0  0  0  0
  197.3230  172.7290  137.4270 C   0  0  1  0  0  3  0  0  0  0  0  0
  197.3490  174.0620  138.1970 C   0  0  0  0  0  2  0  0  0  0  0  0
  197.6450  173.9590  135.2360 C   0  0  0  0  0  2  0  0  0  0  0  0
  196.5320  171.7460  138.1480 N   0  0  0  0  0  1  0  0  0  0  0  0
  196.8360  172.8860  135.9800 C   0  0  2  0  0  3  0  0  0  0  0  0
  198.2690  174.9910  136.1830 C   0  0  0  0  0  2  0  0  0  0  0  0
  197.3830  175.2390  137.3190 N   0  0  0  0  0  2  0  0  0  0  0  0
  1  5  1  0  0  0  0
  2  8  1  0  0  0  0
  2  3  1  0  0  0  0
  4  2  2  0  0  0  0
  5  3  2  0  0  0  0
  6  4  1  0  0  0  0
  7  4  1  0  0  0  0
  7  1  2  0  0  0  0
  8 10  1  0  0  0  0
  9  8  2  0  0  0  0
 10 21  1  0  0  0  0
 11 22  1  0  0  0  0
 12 11  2  0  0  0  0
 12 25  1  0  0  0  0
 13 19  1  0  0  0  0
 15 14  1  0  0  0  0
 15 31  1  0  0  0  0
 17 20  2  0  0  0  0
 17 14  1  0  0  0  0
 18 20  1  0  0  0  0
 19 18  1  0  0  0  0
 21 24  2  0  0  0  0
 22 16  1  0  0  0  0
 22 19  2  0  0  0  0
 23 26  2  0  0  0  0
 24 27  1  0  0  0  0
 24 26  1  0  0  0  0
 25 13  2  0  0  0  0
 26 15  1  0  0  0  0
 27 16  1  6  0  0  0
 27 17  1  0  0  0  0
 28 29  2  0  0  0  0
 29 25  1  0  0  0  0
 29 30  1  0  0  0  0
 31 32  1  0  0  0  0
 32 33  1  0  0  0  0
 34 35  2  0  0  0  0
 35 36  1  0  0  0  0
 35 33  1  0  0  0  0
 37  1  1  0  0  0  0
 38 37  1  0  0  0  0
 39 38  1  0  0  0  0
 40 39  1  0  0  0  0
 41 43  1  0  0  0  0
 42 41  1  6  0  0  0
 42 45  1  0  0  0  0
 43 42  1  0  0  0  0
 43 50  1  1  0  0  0
 43 39  1  0  0  0  0
 45 44  1  1  0  0  0
 46 49  1  1  0  0  0
 46 44  1  0  0  0  0
 46 45  1  0  0  0  0
 47 49  2  0  0  0  0
 49 48  1  0  0  0  0
 51 50  1  0  0  0  0
 52 51  1  0  0  0  0
 52 53  1  0  0  0  0
 54 57  1  1  0  0  0
 54 55  1  0  0  0  0
 56 58  1  0  0  0  0
 56 59  1  0  0  0  0
 58 53  1  1  0  0  0
 58 54  1  0  0  0  0
 59 60  1  0  0  0  0
 60 55  1  0  0  0  0
M  END
>  <MODEL>
4

>  <REMARK>
 VINA RESULT:      -6.2      4.614     10.045
  Name = 
  19 active torsions:
  status: ('A' for Active; 'I' for Inactive)
    1  A    between atoms: C_1  and  C_6
    2  A    between atoms: C_1  and  C_28
    3  A    between atoms: C_2  and  N_29
    4  A    between atoms: C_2  and  C_60
    5  A    between atoms: C_3  and  C_24
    6  A    between atoms: C_3  and  O_59
    7  A    between atoms: C_4  and  N_12
    8  A    between atoms: N_8  and  C_42
    9  A    between atoms: N_8  and  C_58
   10  A    between atoms: N_12  and  C_42
   11  A    between atoms: C_17  and  C_50
   12  A    between atoms: C_27  and  C_49
   13  A    between atoms: C_28  and  C_39
   14  A    between atoms: C_38  and  C_47
   15  A    between atoms: C_45  and  C_57
   16  A    between atoms: C_45  and  O_59
   17  A    between atoms: C_49  and  C_60
   18  A    between atoms: C_52  and  C_56
   19  A    between atoms: C_57  and  C_58
                            x       y       z     vdW  Elec       q    Type
                         _______ _______ _______ _____ _____    ______ ____

>  <TORSDO>
F 19

$$$$
=
 OpenBabel11042409483D

 60 66  0  0  1  0  0  0  0  0999 V2000
  187.8470  178.1950  140.3810 C   0  0  0  0  0  0  0  0  0  0  0  0
  186.4710  177.7790  137.9530 C   0  0  0  0  0  0  0  0  0  0  0  0
  187.7850  177.3170  138.1250 C   0  0  0  0  0  3  0  0  0  0  0  0
  185.8360  178.4470  139.0270 C   0  0  0  0  0  0  0  0  0  0  0  0
  188.4630  177.5120  139.3300 C   0  0  0  0  0  3  0  0  0  0  0  0
  184.4580  179.0100  138.9240 C   0  0  0  0  0  1  0  0  0  0  0  0
  186.5320  178.6590  140.2250 C   0  0  0  0  0  3  0  0  0  0  0  0
  185.8370  177.5830  136.6310 C   0  0  0  0  0  0  0  0  0  0  0  0
  186.5670  177.4280  135.6120 O   0  0  0  0  0  0  0  0  0  0  0  0
  184.3520  177.5290  136.4720 C   0  0  0  0  0  2  0  0  0  0  0  0
  180.8010  179.7660  137.3320 C   0  0  0  0  0  3  0  0  0  0  0  0
  180.4020  180.6750  138.3100 C   0  0  0  0  0  3  0  0  0  0  0  0
  179.7540  178.8460  139.7450 C   0  0  0  0  0  3  0  0  0  0  0  0
  180.1230  174.3280  135.9850 C   0  0  0  0  0  2  0  0  0  0  0  0
  181.2970  173.6550  135.4390 N   0  0  0  0  0  0  0  0  0  0  0  0
  181.3520  177.6140  136.6710 C   0  0  0  0  0  2  0  0  0  0  0  0
  180.4820  175.3330  137.0340 C   0  0  0  0  0  0  0  0  0  0  0  0
  179.6470  176.6680  138.9680 C   0  0  0  0  0  2  0  0  0  0  0  0
  180.1030  177.9160  138.7610 C   0  0  0  0  0  0  0  0  0  0  0  0
  179.6120  175.5420  138.0150 C   0  0  0  0  0  3  0  0  0  0  0  0
  183.9530  176.2440  135.8180 C   0  0  0  0  0  3  0  0  0  0  0  0
  180.7140  178.3860  137.5550 C   0  0  0  0  0  0  0  0  0  0  0  0
  183.4680  173.8410  134.5940 O   0  0  0  0  0  0  0  0  0  0  0  0
  182.7630  175.6440  135.9720 C   0  0  0  0  0  0  0  0  0  0  0  0
  179.9120  180.2220  139.5380 C   0  0  0  0  0  0  0  0  0  0  0  0
  182.5440  174.3510  135.2900 C   0  0  0  0  0  0  0  0  0  0  0  0
  181.7070  176.1840  136.9170 C   0  0  1  0  0  3  0  0  0  0  0  0
  179.8170  180.8900  141.9290 O   0  0  0  0  0  1  0  0  0  0  0  0
  179.5480  181.1780  140.5940 C   0  0  0  0  0  0  0  0  0  0  0  0
  178.9560  182.2500  140.3040 O   0  0  0  0  0  0  0  0  0  0  0  0
  181.0890  172.3800  134.7690 C   0  0  0  0  0  2  0  0  0  0  0  0
  180.6940  171.3280  135.7840 C   0  0  0  0  0  2  0  0  0  0  0  0
  181.8550  171.0390  136.7140 C   0  0  0  0  0  2  0  0  0  0  0  0
  184.1590  170.5140  136.4500 O   0  0  0  0  0  1  0  0  0  0  0  0
  183.0190  170.5600  135.9250 C   0  0  0  0  0  0  0  0  0  0  0  0
  182.8350  170.0750  134.6350 O   0  0  0  0  0  0  0  0  0  0  0  0
  188.5900  178.4430  141.5780 N   0  0  0  0  0  2  0  0  0  0  0  0
  187.9730  178.8320  142.8420 C   0  0  0  0  0  2  0  0  0  0  0  0
  187.1560  177.7260  143.3310 N   0  0  0  0  0  0  0  0  0  0  0  0
  187.8120  176.5870  142.9820 O   0  0  0  0  0  1  0  0  0  0  0  0
  185.8090  177.0110  145.4130 C   0  0  0  0  0  2  0  0  0  0  0  0
  185.7440  178.5250  145.2730 C   0  0  1  0  0  3  0  0  0  0  0  0
  186.9910  177.7580  144.8050 C   0  0  2  0  0  0  0  0  0  0  0  0
  184.2530  180.2710  144.3210 C   0  0  0  0  0  2  0  0  0  0  0  0
  184.7730  178.8570  144.1490 C   0  0  2  0  0  3  0  0  0  0  0  0
  183.3880  179.0870  144.7360 C   0  0  2  0  0  3  0  0  0  0  0  0
  181.1300  178.7630  143.9510 O   0  0  0  0  0  1  0  0  0  0  0  0
  182.7910  178.3540  142.4300 O   0  0  0  0  0  0  0  0  0  0  0  0
  182.3660  178.7400  143.6950 C   0  0  0  0  0  0  0  0  0  0  0  0
  188.1950  178.0130  145.7150 C   0  0  0  0  0  2  0  0  0  0  0  0
  188.4290  176.8120  146.6150 C   0  0  0  0  0  2  0  0  0  0  0  0
  189.7950  176.5820  146.7720 O   0  0  0  0  0  0  0  0  0  0  0  0
  190.4030  177.7310  146.2580 C   0  0  0  0  0  2  0  0  0  0  0  0
  192.0090  177.9870  144.3100 C   0  0  1  0  0  3  0  0  0  0  0  0
  191.1580  177.2960  143.2290 C   0  0  0  0  0  2  0  0  0  0  0  0
  191.9940  175.8730  145.7070 C   0  0  0  0  0  2  0  0  0  0  0  0
  191.7730  179.4200  144.2990 N   0  0  0  0  0  1  0  0  0  0  0  0
  191.7880  177.3960  145.7110 C   0  0  2  0  0  3  0  0  0  0  0  0
  191.7630  175.2480  144.3270 C   0  0  0  0  0  2  0  0  0  0  0  0
  190.6990  175.9570  143.6190 N   0  0  0  0  0  2  0  0  0  0  0  0
  1 37  1  0  0  0  0
  2  3  2  0  0  0  0
  2  4  1  0  0  0  0
  3  5  1  0  0  0  0
  4  7  2  0  0  0  0
  5  1  2  0  0  0  0
  6  4  1  0  0  0  0
  7  1  1  0  0  0  0
  8  2  1  0  0  0  0
  9  8  2  0  0  0  0
 10  8  1  0  0  0  0
 11 22  2  0  0  0  0
 11 12  1  0  0  0  0
 12 25  2  0  0  0  0
 14 17  1  0  0  0  0
 15 14  1  0  0  0  0
 16 22  1  0  0  0  0
 17 20  2  0  0  0  0
 19 18  1  0  0  0  0
 19 13  2  0  0  0  0
 20 18  1  0  0  0  0
 21 24  2  0  0  0  0
 21 10  1  0  0  0  0
 22 19  1  0  0  0  0
 23 26  2  0  0  0  0
 24 27  1  0  0  0  0
 25 13  1  0  0  0  0
 25 29  1  0  0  0  0
 26 15  1  0  0  0  0
 26 24  1  0  0  0  0
 27 16  1  6  0  0  0
 27 17  1  0  0  0  0
 29 28  1  0  0  0  0
 30 29  2  0  0  0  0
 31 15  1  0  0  0  0
 31 32  1  0  0  0  0
 32 33  1  0  0  0  0
 35 34  1  0  0  0  0
 35 33  1  0  0  0  0
 36 35  2  0  0  0  0
 37 38  1  0  0  0  0
 38 39  1  0  0  0  0
 39 43  1  0  0  0  0
 40 39  1  0  0  0  0
 42 41  1  1  0  0  0
 43 42  1  0  0  0  0
 43 41  1  0  0  0  0
 43 50  1  1  0  0  0
 44 46  1  0  0  0  0
 45 44  1  1  0  0  0
 45 46  1  0  0  0  0
 45 42  1  0  0  0  0
 46 49  1  6  0  0  0
 48 49  2  0  0  0  0
 49 47  1  0  0  0  0
 50 51  1  0  0  0  0
 51 52  1  0  0  0  0
 53 52  1  0  0  0  0
 54 57  1  1  0  0  0
 54 58  1  0  0  0  0
 55 60  1  0  0  0  0
 55 54  1  0  0  0  0
 56 58  1  0  0  0  0
 58 53  1  6  0  0  0
 59 56  1  0  0  0  0
 60 59  1  0  0  0  0
M  END
>  <MODEL>
5

>  <REMARK>
 VINA RESULT:      -5.9      2.648     11.503
  Name = 
  19 active torsions:
  status: ('A' for Active; 'I' for Inactive)
    1  A    between atoms: C_1  and  C_6
    2  A    between atoms: C_1  and  C_28
    3  A    between atoms: C_2  and  N_29
    4  A    between atoms: C_2  and  C_60
    5  A    between atoms: C_3  and  C_24
    6  A    between atoms: C_3  and  O_59
    7  A    between atoms: C_4  and  N_12
    8  A    between atoms: N_8  and  C_42
    9  A    between atoms: N_8  and  C_58
   10  A    between atoms: N_12  and  C_42
   11  A    between atoms: C_17  and  C_50
   12  A    between atoms: C_27  and  C_49
   13  A    between atoms: C_28  and  C_39
   14  A    between atoms: C_38  and  C_47
   15  A    between atoms: C_45  and  C_57
   16  A    between atoms: C_45  and  O_59
   17  A    between atoms: C_49  and  C_60
   18  A    between atoms: C_52  and  C_56
   19  A    between atoms: C_57  and  C_58
                            x       y       z     vdW  Elec       q    Type
                         _______ _______ _______ _____ _____    ______ ____

>  <TORSDO>
F 19

$$$$
=
 OpenBabel11042409483D

 60 66  0  0  1  0  0  0  0  0999 V2000
  185.0070  178.7890  139.1180 C   0  0  0  0  0  0  0  0  0  0  0  0
  182.7220  178.7870  137.4640 C   0  0  0  0  0  0  0  0  0  0  0  0
  182.8470  179.7040  138.5190 C   0  0  0  0  0  3  0  0  0  0  0  0
  183.7730  177.8690  137.2290 C   0  0  0  0  0  0  0  0  0  0  0  0
  183.9830  179.7130  139.3320 C   0  0  0  0  0  3  0  0  0  0  0  0
  183.7120  176.8310  136.1590 C   0  0  0  0  0  1  0  0  0  0  0  0
  184.8990  177.8690  138.0640 C   0  0  0  0  0  3  0  0  0  0  0  0
  181.4670  178.8030  136.6800 C   0  0  0  0  0  0  0  0  0  0  0  0
  181.5030  179.1370  135.4630 O   0  0  0  0  0  0  0  0  0  0  0  0
  180.1590  178.4010  137.2830 C   0  0  0  0  0  2  0  0  0  0  0  0
  181.7650  174.4300  137.3590 C   0  0  0  0  0  3  0  0  0  0  0  0
  181.6270  173.2780  136.5870 C   0  0  0  0  0  3  0  0  0  0  0  0
  179.6780  172.6550  137.8700 C   0  0  0  0  0  3  0  0  0  0  0  0
  179.9850  176.5530  142.2750 C   0  0  0  0  0  2  0  0  0  0  0  0
  179.6950  177.9830  142.2840 N   0  0  0  0  0  0  0  0  0  0  0  0
  180.9230  175.9660  138.8750 C   0  0  0  0  0  2  0  0  0  0  0  0
  179.6230  175.9090  140.9730 C   0  0  0  0  0  0  0  0  0  0  0  0
  179.1030  173.7590  139.8220 C   0  0  0  0  0  2  0  0  0  0  0  0
  179.8260  173.7800  138.6880 C   0  0  0  0  0  0  0  0  0  0  0  0
  179.2290  174.6420  140.9970 C   0  0  0  0  0  3  0  0  0  0  0  0
  180.0690  178.9000  138.6890 C   0  0  0  0  0  3  0  0  0  0  0  0
  180.8490  174.7300  138.3750 C   0  0  0  0  0  0  0  0  0  0  0  0
  179.8260  180.0340  141.1730 O   0  0  0  0  0  0  0  0  0  0  0  0
  179.9620  178.1180  139.7740 C   0  0  0  0  0  0  0  0  0  0  0  0
  180.5600  172.4020  136.8120 C   0  0  0  0  0  0  0  0  0  0  0  0
  179.8360  178.7730  141.0930 C   0  0  0  0  0  0  0  0  0  0  0  0
  179.8330  176.6100  139.6680 C   0  0  1  0  0  3  0  0  0  0  0  0
  179.2620  170.3990  136.1220 O   0  0  0  0  0  1  0  0  0  0  0  0
  180.3760  171.2190  135.9580 C   0  0  0  0  0  0  0  0  0  0  0  0
  181.2420  170.9140  135.0990 O   0  0  0  0  0  0  0  0  0  0  0  0
  179.5670  178.6340  143.5800 C   0  0  0  0  0  2  0  0  0  0  0  0
  180.8950  178.5870  144.3070 C   0  0  0  0  0  2  0  0  0  0  0  0
  181.9360  179.3810  143.5450 C   0  0  0  0  0  2  0  0  0  0  0  0
  183.4810  178.6570  145.2000 O   0  0  0  0  0  1  0  0  0  0  0  0
  183.2940  178.9920  144.0040 C   0  0  0  0  0  0  0  0  0  0  0  0
  184.3410  178.9090  143.0950 O   0  0  0  0  0  0  0  0  0  0  0  0
  186.1270  178.7750  140.0100 N   0  0  0  0  0  2  0  0  0  0  0  0
  186.9710  177.6030  140.2220 C   0  0  0  0  0  2  0  0  0  0  0  0
  187.9360  177.8990  141.2760 N   0  0  0  0  0  0  0  0  0  0  0  0
  187.6010  177.1090  142.3310 O   0  0  0  0  0  1  0  0  0  0  0  0
  190.0610  176.4670  141.5840 C   0  0  0  0  0  2  0  0  0  0  0  0
  190.3780  177.9120  141.9410 C   0  0  1  0  0  3  0  0  0  0  0  0
  189.3290  177.5940  140.8640 C   0  0  2  0  0  0  0  0  0  0  0  0
  190.7910  178.9480  144.1620 C   0  0  0  0  0  2  0  0  0  0  0  0
  189.7800  178.2060  143.3090 C   0  0  2  0  0  3  0  0  0  0  0  0
  190.5690  177.4550  144.3710 C   0  0  2  0  0  3  0  0  0  0  0  0
  188.4030  177.1890  145.4030 O   0  0  0  0  0  0  0  0  0  0  0  0
  190.2130  176.9240  146.7800 O   0  0  0  0  0  1  0  0  0  0  0  0
  189.6590  177.1740  145.5310 C   0  0  0  0  0  0  0  0  0  0  0  0
  189.8190  177.9570  139.4600 C   0  0  0  0  0  2  0  0  0  0  0  0
  189.9510  176.7020  138.6160 C   0  0  0  0  0  2  0  0  0  0  0  0
  191.0620  176.7960  137.7780 O   0  0  0  0  0  0  0  0  0  0  0  0
  191.0670  175.5920  137.0690 C   0  0  0  0  0  2  0  0  0  0  0  0
  193.5670  175.3850  137.4460 C   0  0  1  0  0  3  0  0  0  0  0  0
  194.0270  175.5660  135.9880 C   0  0  0  0  0  2  0  0  0  0  0  0
  192.1860  173.3670  136.7870 C   0  0  0  0  0  2  0  0  0  0  0  0
  193.5720  176.6630  138.1380 N   0  0  0  0  0  1  0  0  0  0  0  0
  192.2000  174.6950  137.5590 C   0  0  2  0  0  3  0  0  0  0  0  0
  193.2170  173.3300  135.6540 C   0  0  0  0  0  2  0  0  0  0  0  0
  193.3570  174.6540  135.0510 N   0  0  0  0  0  2  0  0  0  0  0  0
  1  5  1  0  0  0  0
  1 37  1  0  0  0  0
  2  3  1  0  0  0  0
  3  5  2  0  0  0  0
  4  2  2  0  0  0  0
  4  7  1  0  0  0  0
  6  4  1  0  0  0  0
  7  1  2  0  0  0  0
  8 10  1  0  0  0  0
  8  2  1  0  0  0  0
  9  8  2  0  0  0  0
 10 21  1  0  0  0  0
 11 22  1  0  0  0  0
 12 25  1  0  0  0  0
 12 11  2  0  0  0  0
 13 19  1  0  0  0  0
 14 15  1  0  0  0  0
 15 31  1  0  0  0  0
 17 20  2  0  0  0  0
 17 14  1  0  0  0  0
 18 20  1  0  0  0  0
 19 18  1  0  0  0  0
 21 24  2  0  0  0  0
 22 19  2  0  0  0  0
 22 16  1  0  0  0  0
 24 26  1  0  0  0  0
 25 13  2  0  0  0  0
 26 23  2  0  0  0  0
 26 15  1  0  0  0  0
 27 16  1  1  0  0  0
 27 24  1  0  0  0  0
 27 17  1  0  0  0  0
 29 28  1  0  0  0  0
 29 25  1  0  0  0  0
 30 29  2  0  0  0  0
 31 32  1  0  0  0  0
 33 35  1  0  0  0  0
 33 32  1  0  0  0  0
 35 34  1  0  0  0  0
 36 35  2  0  0  0  0
 37 38  1  0  0  0  0
 38 39  1  0  0  0  0
 39 40  1  0  0  0  0
 42 41  1  1  0  0  0
 42 45  1  0  0  0  0
 43 50  1  6  0  0  0
 43 39  1  0  0  0  0
 43 41  1  0  0  0  0
 43 42  1  0  0  0  0
 44 46  1  0  0  0  0
 45 44  1  1  0  0  0
 45 46  1  0  0  0  0
 46 49  1  1  0  0  0
 47 49  2  0  0  0  0
 49 48  1  0  0  0  0
 51 50  1  0  0  0  0
 52 51  1  0  0  0  0
 53 52  1  0  0  0  0
 54 58  1  0  0  0  0
 54 57  1  6  0  0  0
 55 54  1  0  0  0  0
 56 58  1  0  0  0  0
 58 53  1  6  0  0  0
 59 56  1  0  0  0  0
 60 59  1  0  0  0  0
 60 55  1  0  0  0  0
M  END
>  <MODEL>
6

>  <REMARK>
 VINA RESULT:      -5.5      3.211     10.459
  Name = 
  19 active torsions:
  status: ('A' for Active; 'I' for Inactive)
    1  A    between atoms: C_1  and  C_6
    2  A    between atoms: C_1  and  C_28
    3  A    between atoms: C_2  and  N_29
    4  A    between atoms: C_2  and  C_60
    5  A    between atoms: C_3  and  C_24
    6  A    between atoms: C_3  and  O_59
    7  A    between atoms: C_4  and  N_12
    8  A    between atoms: N_8  and  C_42
    9  A    between atoms: N_8  and  C_58
   10  A    between atoms: N_12  and  C_42
   11  A    between atoms: C_17  and  C_50
   12  A    between atoms: C_27  and  C_49
   13  A    between atoms: C_28  and  C_39
   14  A    between atoms: C_38  and  C_47
   15  A    between atoms: C_45  and  C_57
   16  A    between atoms: C_45  and  O_59
   17  A    between atoms: C_49  and  C_60
   18  A    between atoms: C_52  and  C_56
   19  A    between atoms: C_57  and  C_58
                            x       y       z     vdW  Elec       q    Type
                         _______ _______ _______ _____ _____    ______ ____

>  <TORSDO>
F 19

$$$$
=
 OpenBabel11042409483D

 60 66  0  0  1  0  0  0  0  0999 V2000
  188.2050  177.9600  138.0200 C   0  0  0  0  0  0  0  0  0  0  0  0
  185.7460  177.7010  136.6610 C   0  0  0  0  0  0  0  0  0  0  0  0
  185.7900  178.1350  137.9940 C   0  0  0  0  0  3  0  0  0  0  0  0
  186.9620  177.4090  135.9970 C   0  0  0  0  0  0  0  0  0  0  0  0
  187.0070  178.2750  138.6650 C   0  0  0  0  0  3  0  0  0  0  0  0
  187.0130  176.9010  134.5950 C   0  0  0  0  0  1  0  0  0  0  0  0
  188.1770  177.5290  136.6850 C   0  0  0  0  0  3  0  0  0  0  0  0
  184.4170  177.5260  136.0340 C   0  0  0  0  0  0  0  0  0  0  0  0
  184.2490  177.8810  134.8330 O   0  0  0  0  0  0  0  0  0  0  0  0
  183.2740  176.9110  136.7740 C   0  0  0  0  0  2  0  0  0  0  0  0
  180.0420  178.4930  139.1000 C   0  0  0  0  0  3  0  0  0  0  0  0
  179.9180  179.1780  140.3070 C   0  0  0  0  0  3  0  0  0  0  0  0
  179.9180  177.0770  141.4960 C   0  0  0  0  0  3  0  0  0  0  0  0
  179.3740  173.2910  137.0170 C   0  0  0  0  0  2  0  0  0  0  0  0
  180.3530  172.8740  136.0170 N   0  0  0  0  0  0  0  0  0  0  0  0
  180.5080  176.5640  137.9030 C   0  0  0  0  0  2  0  0  0  0  0  0
  179.9800  174.1590  138.0760 C   0  0  0  0  0  0  0  0  0  0  0  0
  179.7270  175.0520  140.3900 C   0  0  0  0  0  2  0  0  0  0  0  0
  179.9940  176.3660  140.2940 C   0  0  0  0  0  0  0  0  0  0  0  0
  179.4670  174.0950  139.2980 C   0  0  0  0  0  3  0  0  0  0  0  0
  182.7820  175.7030  136.0430 C   0  0  0  0  0  3  0  0  0  0  0  0
  180.1380  177.0960  139.0710 C   0  0  0  0  0  0  0  0  0  0  0  0
  182.1050  173.4770  134.5940 O   0  0  0  0  0  0  0  0  0  0  0  0
  181.7570  174.9330  136.4400 C   0  0  0  0  0  0  0  0  0  0  0  0
  179.8940  178.4760  141.5170 C   0  0  0  0  0  0  0  0  0  0  0  0
  181.4260  173.7450  135.6260 C   0  0  0  0  0  0  0  0  0  0  0  0
  181.0310  175.1730  137.7500 C   0  0  1  0  0  3  0  0  0  0  0  0
  180.0490  180.5730  142.8410 O   0  0  0  0  0  0  0  0  0  0  0  0
  179.8250  179.1990  142.7960 C   0  0  0  0  0  0  0  0  0  0  0  0
  179.6020  178.5780  143.8660 O   0  0  0  0  0  1  0  0  0  0  0  0
  180.0340  171.7030  135.2140 C   0  0  0  0  0  2  0  0  0  0  0  0
  181.1230  170.6630  135.3720 C   0  0  0  0  0  2  0  0  0  0  0  0
  181.7260  170.7450  136.7600 C   0  0  0  0  0  2  0  0  0  0  0  0
  183.8600  171.7340  137.1080 O   0  0  0  0  0  1  0  0  0  0  0  0
  183.2080  170.7580  136.6590 C   0  0  0  0  0  0  0  0  0  0  0  0
  183.8830  169.6540  136.1520 O   0  0  0  0  0  0  0  0  0  0  0  0
  189.4310  178.0440  138.7530 N   0  0  0  0  0  2  0  0  0  0  0  0
  189.4930  178.2290  140.2000 C   0  0  0  0  0  2  0  0  0  0  0  0
  190.0530  177.0260  140.8080 N   0  0  0  0  0  0  0  0  0  0  0  0
  190.0310  176.0670  139.8430 O   0  0  0  0  0  1  0  0  0  0  0  0
  191.9730  176.3490  142.3940 C   0  0  0  0  0  2  0  0  0  0  0  0
  191.5680  177.7860  142.6870 C   0  0  1  0  0  3  0  0  0  0  0  0
  191.4520  177.2260  141.2610 C   0  0  2  0  0  0  0  0  0  0  0  0
  189.9200  179.1610  143.9420 C   0  0  0  0  0  2  0  0  0  0  0  0
  190.2580  177.7620  143.4620 C   0  0  2  0  0  3  0  0  0  0  0  0
  190.5250  178.1500  144.9080 C   0  0  2  0  0  3  0  0  0  0  0  0
  188.6250  176.7130  145.2950 O   0  0  0  0  0  0  0  0  0  0  0  0
  189.4520  177.8040  147.1310 O   0  0  0  0  0  1  0  0  0  0  0  0
  189.4860  177.5020  145.7750 C   0  0  0  0  0  0  0  0  0  0  0  0
  192.4930  177.8360  140.3190 C   0  0  0  0  0  2  0  0  0  0  0  0
  193.5150  176.7840  139.9240 C   0  0  0  0  0  2  0  0  0  0  0  0
  193.8320  176.9020  138.5710 O   0  0  0  0  0  0  0  0  0  0  0  0
  193.1750  175.8280  137.9640 C   0  0  0  0  0  2  0  0  0  0  0  0
  193.5260  175.2200  135.5260 C   0  0  1  0  0  3  0  0  0  0  0  0
  192.2790  174.3380  135.3350 C   0  0  0  0  0  2  0  0  0  0  0  0
  194.3530  173.6960  137.3730 C   0  0  0  0  0  2  0  0  0  0  0  0
  193.2390  176.5910  135.1390 N   0  0  0  0  0  1  0  0  0  0  0  0
  194.0940  175.1500  136.9510 C   0  0  2  0  0  3  0  0  0  0  0  0
  193.4770  172.6940  136.6110 C   0  0  0  0  0  2  0  0  0  0  0  0
  192.1630  173.2720  136.3390 N   0  0  0  0  0  2  0  0  0  0  0  0
  1  5  1  0  0  0  0
  1 37  1  0  0  0  0
  2  3  1  0  0  0  0
  3  5  2  0  0  0  0
  4  2  2  0  0  0  0
  4  7  1  0  0  0  0
  6  4  1  0  0  0  0
  7  1  2  0  0  0  0
  8  2  1  0  0  0  0
  8 10  1  0  0  0  0
  9  8  2  0  0  0  0
 11 12  1  0  0  0  0
 12 25  2  0  0  0  0
 13 25  1  0  0  0  0
 14 17  1  0  0  0  0
 15 14  1  0  0  0  0
 16 22  1  0  0  0  0
 17 20  2  0  0  0  0
 19 18  1  0  0  0  0
 19 13  2  0  0  0  0
 20 18  1  0  0  0  0
 21 24  2  0  0  0  0
 21 10  1  0  0  0  0
 22 11  2  0  0  0  0
 22 19  1  0  0  0  0
 23 26  2  0  0  0  0
 24 27  1  0  0  0  0
 25 29  1  0  0  0  0
 26 15  1  0  0  0  0
 26 24  1  0  0  0  0
 27 16  1  6  0  0  0
 27 17  1  0  0  0  0
 29 28  2  0  0  0  0
 29 30  1  0  0  0  0
 31 32  1  0  0  0  0
 31 15  1  0  0  0  0
 32 33  1  0  0  0  0
 35 33  1  0  0  0  0
 35 34  1  0  0  0  0
 36 35  2  0  0  0  0
 37 38  1  0  0  0  0
 38 39  1  0  0  0  0
 39 43  1  0  0  0  0
 40 39  1  0  0  0  0
 42 41  1  1  0  0  0
 42 45  1  0  0  0  0
 43 50  1  6  0  0  0
 43 41  1  0  0  0  0
 43 42  1  0  0  0  0
 44 46  1  0  0  0  0
 45 44  1  6  0  0  0
 45 46  1  0  0  0  0
 46 49  1  1  0  0  0
 47 49  2  0  0  0  0
 49 48  1  0  0  0  0
 51 50  1  0  0  0  0
 52 51  1  0  0  0  0
 53 52  1  0  0  0  0
 54 57  1  1  0  0  0
 54 58  1  0  0  0  0
 55 54  1  0  0  0  0
 55 60  1  0  0  0  0
 58 56  1  0  0  0  0
 58 53  1  1  0  0  0
 59 56  1  0  0  0  0
 60 59  1  0  0  0  0
M  END
>  <MODEL>
7

>  <REMARK>
 VINA RESULT:      -4.9      3.542     12.035
  Name = 
  19 active torsions:
  status: ('A' for Active; 'I' for Inactive)
    1  A    between atoms: C_1  and  C_6
    2  A    between atoms: C_1  and  C_28
    3  A    between atoms: C_2  and  N_29
    4  A    between atoms: C_2  and  C_60
    5  A    between atoms: C_3  and  C_24
    6  A    between atoms: C_3  and  O_59
    7  A    between atoms: C_4  and  N_12
    8  A    between atoms: N_8  and  C_42
    9  A    between atoms: N_8  and  C_58
   10  A    between atoms: N_12  and  C_42
   11  A    between atoms: C_17  and  C_50
   12  A    between atoms: C_27  and  C_49
   13  A    between atoms: C_28  and  C_39
   14  A    between atoms: C_38  and  C_47
   15  A    between atoms: C_45  and  C_57
   16  A    between atoms: C_45  and  O_59
   17  A    between atoms: C_49  and  C_60
   18  A    between atoms: C_52  and  C_56
   19  A    between atoms: C_57  and  C_58
                            x       y       z     vdW  Elec       q    Type
                         _______ _______ _______ _____ _____    ______ ____

>  <TORSDO>
F 19

$$$$
=
 OpenBabel11042409483D

 60 66  0  0  1  0  0  0  0  0999 V2000
  190.5830  178.1970  142.7810 C   0  0  0  0  0  0  0  0  0  0  0  0
  190.6140  177.0630  140.1980 C   0  0  0  0  0  0  0  0  0  0  0  0
  189.4020  177.3210  140.8580 C   0  0  0  0  0  3  0  0  0  0  0  0
  191.8280  177.3980  140.8440 C   0  0  0  0  0  0  0  0  0  0  0  0
  189.3850  177.8920  142.1310 C   0  0  0  0  0  3  0  0  0  0  0  0
  193.1650  177.1230  140.2400 C   0  0  0  0  0  1  0  0  0  0  0  0
  191.8020  177.9490  142.1320 C   0  0  0  0  0  3  0  0  0  0  0  0
  190.5530  176.4060  138.8730 C   0  0  0  0  0  0  0  0  0  0  0  0
  190.1120  175.2260  138.7880 O   0  0  0  0  0  0  0  0  0  0  0  0
  190.9710  177.1150  137.6250 C   0  0  0  0  0  2  0  0  0  0  0  0
  188.2790  175.6600  134.6260 C   0  0  0  0  0  3  0  0  0  0  0  0
  186.9570  175.2210  134.5940 C   0  0  0  0  0  3  0  0  0  0  0  0
  187.6800  173.0020  135.2090 C   0  0  0  0  0  3  0  0  0  0  0  0
  193.5120  173.5490  134.5940 C   0  0  0  0  0  2  0  0  0  0  0  0
  194.4840  174.2400  135.4370 N   0  0  0  0  0  0  0  0  0  0  0  0
  190.4980  175.3650  135.2260 C   0  0  0  0  0  2  0  0  0  0  0  0
  192.1460  173.5270  135.2050 C   0  0  0  0  0  0  0  0  0  0  0  0
  189.9180  172.4070  135.2090 C   0  0  0  0  0  2  0  0  0  0  0  0
  189.0190  173.4070  135.2000 C   0  0  0  0  0  0  0  0  0  0  0  0
  191.3670  172.4850  134.9430 C   0  0  0  0  0  3  0  0  0  0  0  0
  192.3600  176.7120  137.2480 C   0  0  0  0  0  3  0  0  0  0  0  0
  189.3180  174.7900  134.9790 C   0  0  0  0  0  0  0  0  0  0  0  0
  194.9860  176.1010  136.7560 O   0  0  0  0  0  0  0  0  0  0  0  0
  192.6680  175.6580  136.4770 C   0  0  0  0  0  0  0  0  0  0  0  0
  186.6440  173.8990  134.9230 C   0  0  0  0  0  0  0  0  0  0  0  0
  194.0980  175.3680  136.2360 C   0  0  0  0  0  0  0  0  0  0  0  0
  191.6100  174.6980  135.9680 C   0  0  1  0  0  3  0  0  0  0  0  0
  184.2110  174.3720  135.0960 O   0  0  0  0  0  1  0  0  0  0  0  0
  185.2440  173.4500  134.9500 C   0  0  0  0  0  0  0  0  0  0  0  0
  184.9680  172.2240  134.8820 O   0  0  0  0  0  0  0  0  0  0  0  0
  195.8930  173.9570  135.2060 C   0  0  0  0  0  2  0  0  0  0  0  0
  196.3030  172.7290  135.9920 C   0  0  0  0  0  2  0  0  0  0  0  0
  196.8200  173.1320  137.3580 C   0  0  0  0  0  2  0  0  0  0  0  0
  199.1170  173.4040  136.8050 O   0  0  0  0  0  0  0  0  0  0  0  0
  198.0550  173.9440  137.2030 C   0  0  0  0  0  0  0  0  0  0  0  0
  198.0170  175.3180  137.4090 O   0  0  0  0  0  1  0  0  0  0  0  0
  190.5380  178.7160  144.1130 N   0  0  0  0  0  2  0  0  0  0  0  0
  189.3000  179.0950  144.7880 C   0  0  0  0  0  2  0  0  0  0  0  0
  189.3480  178.6210  146.1680 N   0  0  0  0  0  0  0  0  0  0  0  0
  188.6980  179.5550  146.9130 O   0  0  0  0  0  1  0  0  0  0  0  0
  188.6450  176.6890  147.7270 C   0  0  0  0  0  2  0  0  0  0  0  0
  189.6290  176.1620  146.6920 C   0  0  1  0  0  3  0  0  0  0  0  0
  188.6730  177.3100  146.3350 C   0  0  2  0  0  0  0  0  0  0  0  0
  192.0600  175.9110  146.2370 C   0  0  0  0  0  2  0  0  0  0  0  0
  191.0250  176.6270  147.0840 C   0  0  2  0  0  3  0  0  0  0  0  0
  191.7980  175.4530  147.6670 C   0  0  2  0  0  3  0  0  0  0  0  0
  193.6610  175.2260  149.1830 O   0  0  0  0  0  1  0  0  0  0  0  0
  192.8140  177.3400  148.9390 O   0  0  0  0  0  0  0  0  0  0  0  0
  192.8180  175.9860  148.6280 C   0  0  0  0  0  0  0  0  0  0  0  0
  187.5850  176.8670  145.3540 C   0  0  0  0  0  2  0  0  0  0  0  0
  186.2130  177.1070  145.9570 C   0  0  0  0  0  2  0  0  0  0  0  0
  185.6710  178.2960  145.4690 O   0  0  0  0  0  0  0  0  0  0  0  0
  185.3720  178.0210  144.1320 C   0  0  0  0  0  2  0  0  0  0  0  0
  183.4320  179.3180  143.1380 C   0  0  1  0  0  3  0  0  0  0  0  0
  183.0040  178.2940  142.0710 C   0  0  0  0  0  2  0  0  0  0  0  0
  185.7440  179.4580  142.1120 C   0  0  0  0  0  2  0  0  0  0  0  0
  182.6700  179.1220  144.3600 N   0  0  0  0  0  1  0  0  0  0  0  0
  184.9430  179.2970  143.4130 C   0  0  2  0  0  3  0  0  0  0  0  0
  184.9610  179.0030  140.8750 C   0  0  0  0  0  2  0  0  0  0  0  0
  184.1080  177.8630  141.2040 N   0  0  0  0  0  2  0  0  0  0  0  0
  1 37  1  0  0  0  0
  2  4  1  0  0  0  0
  2  3  2  0  0  0  0
  3  5  1  0  0  0  0
  4  7  2  0  0  0  0
  5  1  2  0  0  0  0
  6  4  1  0  0  0  0
  7  1  1  0  0  0  0
  8  2  1  0  0  0  0
  9  8  2  0  0  0  0
 10  8  1  0  0  0  0
 11 22  1  0  0  0  0
 12 11  2  0  0  0  0
 12 25  1  0  0  0  0
 14 17  1  0  0  0  0
 14 15  1  0  0  0  0
 15 26  1  0  0  0  0
 17 27  1  0  0  0  0
 19 18  1  0  0  0  0
 19 13  1  0  0  0  0
 20 17  2  0  0  0  0
 20 18  1  0  0  0  0
 21 10  1  0  0  0  0
 22 19  2  0  0  0  0
 22 16  1  0  0  0  0
 24 21  2  0  0  0  0
 25 29  1  0  0  0  0
 25 13  2  0  0  0  0
 26 24  1  0  0  0  0
 26 23  2  0  0  0  0
 27 16  1  6  0  0  0
 27 24  1  0  0  0  0
 29 28  1  0  0  0  0
 30 29  2  0  0  0  0
 31 15  1  0  0  0  0
 31 32  1  0  0  0  0
 32 33  1  0  0  0  0
 34 35  2  0  0  0  0
 35 33  1  0  0  0  0
 35 36  1  0  0  0  0
 37 38  1  0  0  0  0
 38 39  1  0  0  0  0
 39 43  1  0  0  0  0
 39 40  1  0  0  0  0
 42 45  1  0  0  0  0
 42 41  1  1  0  0  0
 43 50  1  6  0  0  0
 43 42  1  0  0  0  0
 43 41  1  0  0  0  0
 44 46  1  0  0  0  0
 45 44  1  6  0  0  0
 45 46  1  0  0  0  0
 46 49  1  1  0  0  0
 49 48  2  0  0  0  0
 49 47  1  0  0  0  0
 50 51  1  0  0  0  0
 52 51  1  0  0  0  0
 53 52  1  0  0  0  0
 54 58  1  0  0  0  0
 54 57  1  1  0  0  0
 55 54  1  0  0  0  0
 56 58  1  0  0  0  0
 58 53  1  6  0  0  0
 59 60  1  0  0  0  0
 59 56  1  0  0  0  0
 60 55  1  0  0  0  0
M  END
>  <MODEL>
8

>  <REMARK>
 VINA RESULT:      -4.6      4.311     11.148
  Name = 
  19 active torsions:
  status: ('A' for Active; 'I' for Inactive)
    1  A    between atoms: C_1  and  C_6
    2  A    between atoms: C_1  and  C_28
    3  A    between atoms: C_2  and  N_29
    4  A    between atoms: C_2  and  C_60
    5  A    between atoms: C_3  and  C_24
    6  A    between atoms: C_3  and  O_59
    7  A    between atoms: C_4  and  N_12
    8  A    between atoms: N_8  and  C_42
    9  A    between atoms: N_8  and  C_58
   10  A    between atoms: N_12  and  C_42
   11  A    between atoms: C_17  and  C_50
   12  A    between atoms: C_27  and  C_49
   13  A    between atoms: C_28  and  C_39
   14  A    between atoms: C_38  and  C_47
   15  A    between atoms: C_45  and  C_57
   16  A    between atoms: C_45  and  O_59
   17  A    between atoms: C_49  and  C_60
   18  A    between atoms: C_52  and  C_56
   19  A    between atoms: C_57  and  C_58
                            x       y       z     vdW  Elec       q    Type
                         _______ _______ _______ _____ _____    ______ ____

>  <TORSDO>
F 19

$$$$
=
 OpenBabel11042409483D

 60 66  0  0  1  0  0  0  0  0999 V2000
  183.1750  178.3680  138.2690 C   0  0  0  0  0  0  0  0  0  0  0  0
  185.9210  177.9970  137.7380 C   0  0  0  0  0  0  0  0  0  0  0  0
  185.4960  178.7620  138.8350 C   0  0  0  0  0  3  0  0  0  0  0  0
  184.9460  177.3950  136.9060 C   0  0  0  0  0  0  0  0  0  0  0  0
  184.1370  178.9370  139.1050 C   0  0  0  0  0  3  0  0  0  0  0  0
  185.3010  176.6000  135.6950 C   0  0  0  0  0  1  0  0  0  0  0  0
  183.5850  177.5960  137.1710 C   0  0  0  0  0  3  0  0  0  0  0  0
  187.3750  177.9010  137.4850 C   0  0  0  0  0  0  0  0  0  0  0  0
  187.9400  178.7850  136.7820 O   0  0  0  0  0  0  0  0  0  0  0  0
  188.2030  176.8000  138.0660 C   0  0  0  0  0  2  0  0  0  0  0  0
  189.4570  175.8580  142.0530 C   0  0  0  0  0  3  0  0  0  0  0  0
  189.2140  176.3690  143.3260 C   0  0  0  0  0  3  0  0  0  0  0  0
  190.9790  177.9850  143.0130 C   0  0  0  0  0  3  0  0  0  0  0  0
  193.4600  175.9430  138.0770 C   0  0  0  0  0  2  0  0  0  0  0  0
  192.9870  175.9990  136.6970 N   0  0  0  0  0  0  0  0  0  0  0  0
  190.4160  176.0290  139.9500 C   0  0  0  0  0  2  0  0  0  0  0  0
  192.5870  176.7270  139.0070 C   0  0  0  0  0  0  0  0  0  0  0  0
  192.4470  177.8540  141.2270 C   0  0  0  0  0  2  0  0  0  0  0  0
  191.2730  177.4580  141.7510 C   0  0  0  0  0  0  0  0  0  0  0  0
  193.1590  177.2910  140.0640 C   0  0  0  0  0  3  0  0  0  0  0  0
  189.3100  176.4410  137.1260 C   0  0  0  0  0  3  0  0  0  0  0  0
  190.4390  176.4190  141.2280 C   0  0  0  0  0  0  0  0  0  0  0  0
  191.1850  175.8500  135.2170 O   0  0  0  0  0  0  0  0  0  0  0  0
  190.6080  176.3800  137.4600 C   0  0  0  0  0  0  0  0  0  0  0  0
  189.9470  177.4600  143.8000 C   0  0  0  0  0  0  0  0  0  0  0  0
  191.5840  176.0550  136.3980 C   0  0  0  0  0  0  0  0  0  0  0  0
  191.1010  176.7620  138.8430 C   0  0  1  0  0  3  0  0  0  0  0  0
  190.2720  179.2180  145.5260 O   0  0  0  0  0  0  0  0  0  0  0  0
  189.6510  178.0400  145.1190 C   0  0  0  0  0  0  0  0  0  0  0  0
  188.8620  177.4580  145.9070 O   0  0  0  0  0  1  0  0  0  0  0  0
  193.9440  175.6820  135.6460 C   0  0  0  0  0  2  0  0  0  0  0  0
  194.4410  174.2620  135.8200 C   0  0  0  0  0  2  0  0  0  0  0  0
  195.6830  174.2470  136.6890 C   0  0  0  0  0  2  0  0  0  0  0  0
  195.6920  172.9140  138.6590 O   0  0  0  0  0  1  0  0  0  0  0  0
  195.7730  172.9480  137.4050 C   0  0  0  0  0  0  0  0  0  0  0  0
  195.8540  171.7600  136.6890 O   0  0  0  0  0  0  0  0  0  0  0  0
  181.7910  178.6220  138.5280 N   0  0  0  0  0  2  0  0  0  0  0  0
  180.7410  178.4560  137.5280 C   0  0  0  0  0  2  0  0  0  0  0  0
  180.4650  179.7490  136.9110 N   0  0  0  0  0  0  0  0  0  0  0  0
  181.5110  180.5550  137.2350 O   0  0  0  0  0  1  0  0  0  0  0  0
  181.1570  180.6510  134.5940 C   0  0  0  0  0  2  0  0  0  0  0  0
  179.6600  180.8550  134.7820 C   0  0  1  0  0  3  0  0  0  0  0  0
  180.3640  179.6550  135.4330 C   0  0  2  0  0  0  0  0  0  0  0  0
  178.9320  183.2260  134.9540 C   0  0  0  0  0  2  0  0  0  0  0  0
  179.4570  182.0310  135.7270 C   0  0  2  0  0  3  0  0  0  0  0  0
  180.4050  183.1560  135.3380 C   0  0  2  0  0  3  0  0  0  0  0  0
  180.1150  183.7580  137.6570 O   0  0  0  0  0  1  0  0  0  0  0  0
  181.6470  184.9890  136.4820 O   0  0  0  0  0  0  0  0  0  0  0  0
  180.7100  183.9660  136.5630 C   0  0  0  0  0  0  0  0  0  0  0  0
  179.9790  178.3330  134.7640 C   0  0  0  0  0  2  0  0  0  0  0  0
  181.0150  177.2690  135.0840 C   0  0  0  0  0  2  0  0  0  0  0  0
  180.3950  176.0370  135.2900 O   0  0  0  0  0  0  0  0  0  0  0  0
  181.4230  175.1010  135.1480 C   0  0  0  0  0  2  0  0  0  0  0  0
  181.7290  173.7240  137.2560 C   0  0  1  0  0  3  0  0  0  0  0  0
  183.2540  173.5310  137.1760 C   0  0  0  0  0  2  0  0  0  0  0  0
  181.4430  172.5990  135.0050 C   0  0  0  0  0  2  0  0  0  0  0  0
  181.4090  174.8870  138.0670 N   0  0  0  0  0  1  0  0  0  0  0  0
  181.0650  173.8070  135.8740 C   0  0  2  0  0  3  0  0  0  0  0  0
  182.7760  171.9650  135.4210 C   0  0  0  0  0  2  0  0  0  0  0  0
  183.7040  172.9930  135.8860 N   0  0  0  0  0  2  0  0  0  0  0  0
  1 37  1  0  0  0  0
  1  5  1  0  0  0  0
  2  3  1  0  0  0  0
  3  5  2  0  0  0  0
  4  7  1  0  0  0  0
  4  2  2  0  0  0  0
  6  4  1  0  0  0  0
  7  1  2  0  0  0  0
  8  2  1  0  0  0  0
  8 10  1  0  0  0  0
  9  8  2  0  0  0  0
 11 12  1  0  0  0  0
 12 25  2  0  0  0  0
 13 25  1  0  0  0  0
 14 17  1  0  0  0  0
 15 14  1  0  0  0  0
 16 22  1  0  0  0  0
 17 20  2  0  0  0  0
 18 19  1  0  0  0  0
 19 13  2  0  0  0  0
 20 18  1  0  0  0  0
 21 24  2  0  0  0  0
 21 10  1  0  0  0  0
 22 19  1  0  0  0  0
 22 11  2  0  0  0  0
 23 26  2  0  0  0  0
 24 27  1  0  0  0  0
 25 29  1  0  0  0  0
 26 15  1  0  0  0  0
 26 24  1  0  0  0  0
 27 17  1  0  0  0  0
 27 16  1  1  0  0  0
 29 28  2  0  0  0  0
 29 30  1  0  0  0  0
 31 32  1  0  0  0  0
 31 15  1  0  0  0  0
 32 33  1  0  0  0  0
 33 35  1  0  0  0  0
 35 34  1  0  0  0  0
 36 35  2  0  0  0  0
 38 37  1  0  0  0  0
 39 40  1  0  0  0  0
 39 38  1  0  0  0  0
 41 43  1  0  0  0  0
 42 41  1  6  0  0  0
 42 43  1  0  0  0  0
 42 45  1  0  0  0  0
 43 50  1  6  0  0  0
 43 39  1  0  0  0  0
 44 46  1  0  0  0  0
 45 44  1  6  0  0  0
 46 45  1  0  0  0  0
 46 49  1  1  0  0  0
 48 49  2  0  0  0  0
 49 47  1  0  0  0  0
 50 51  1  0  0  0  0
 51 52  1  0  0  0  0
 53 52  1  0  0  0  0
 54 57  1  6  0  0  0
 55 54  1  0  0  0  0
 56 59  1  0  0  0  0
 56 58  1  0  0  0  0
 58 53  1  6  0  0  0
 58 54  1  0  0  0  0
 59 60  1  0  0  0  0
 60 55  1  0  0  0  0
M  END
>  <MODEL>
9

>  <REMARK>
 VINA RESULT:      -4.6      3.058      6.369
  Name = 
  19 active torsions:
  status: ('A' for Active; 'I' for Inactive)
    1  A    between atoms: C_1  and  C_6
    2  A    between atoms: C_1  and  C_28
    3  A    between atoms: C_2  and  N_29
    4  A    between atoms: C_2  and  C_60
    5  A    between atoms: C_3  and  C_24
    6  A    between atoms: C_3  and  O_59
    7  A    between atoms: C_4  and  N_12
    8  A    between atoms: N_8  and  C_42
    9  A    between atoms: N_8  and  C_58
   10  A    between atoms: N_12  and  C_42
   11  A    between atoms: C_17  and  C_50
   12  A    between atoms: C_27  and  C_49
   13  A    between atoms: C_28  and  C_39
   14  A    between atoms: C_38  and  C_47
   15  A    between atoms: C_45  and  C_57
   16  A    between atoms: C_45  and  O_59
   17  A    between atoms: C_49  and  C_60
   18  A    between atoms: C_52  and  C_56
   19  A    between atoms: C_57  and  C_58
                            x       y       z     vdW  Elec       q    Type
                         _______ _______ _______ _____ _____    ______ ____

>  <TORSDO>
F 19

$$$$
