=
 OpenBabel11042413073D

 32 37  0  0  1  0  0  0  0  0999 V2000
  185.2910  178.2780  142.2810 C   0  0  0  0  0  0  0  0  0  0  0  0
  189.1140  177.8150  141.2780 C   0  0  0  0  0  0  0  0  0  0  0  0
  190.5720  176.6660  139.8320 C   0  0  0  0  0  2  0  0  0  0  0  0
  188.4820  177.6730  138.9030 C   0  0  0  0  0  3  0  0  0  0  0  0
  186.1870  177.6620  143.3010 C   0  0  0  0  0  3  0  0  0  0  0  0
  187.5340  177.6700  143.1820 C   0  0  0  0  0  0  0  0  0  0  0  0
  188.2440  178.0910  140.2000 C   0  0  1  0  0  0  0  0  0  0  0  0
  187.2490  178.7240  141.0660 N   0  0  0  0  0  0  0  0  0  0  0  0
  188.1880  178.5210  142.1110 C   0  0  2  0  0  0  0  0  0  0  0  0
  189.6870  176.9340  138.7320 C   0  0  0  0  0  0  0  0  0  0  0  0
  185.8290  178.7580  141.1460 C   0  0  0  0  0  3  0  0  0  0  0  0
  190.3000  177.1150  141.1500 C   0  0  0  0  0  3  0  0  0  0  0  0
  187.9950  178.1160  148.3280 C   0  0  0  0  0  2  0  0  0  0  0  0
  186.7630  178.2190  147.4280 C   0  0  0  0  0  2  0  0  0  0  0  0
  187.1980  178.4950  145.9880 C   0  0  0  0  0  2  0  0  0  0  0  0
  189.0630  176.8250  146.5670 C   0  0  0  0  0  3  0  0  0  0  0  0
  188.2120  177.4700  145.5500 C   0  0  0  0  0  0  0  0  0  0  0  0
  188.3540  177.1130  144.2700 C   0  0  0  0  0  3  0  0  0  0  0  0
  188.9290  177.1030  147.8320 N   0  0  0  0  0  0  0  0  0  0  0  0
  183.8120  179.9210  144.2420 O   0  0  0  0  0  0  0  0  0  0  0  0
  183.2000  179.0720  143.5410 C   0  0  0  0  0  0  0  0  0  0  0  0
  183.8800  178.3090  142.5320 N   0  0  0  0  0  2  0  0  0  0  0  0
  181.7550  178.7890  143.8030 C   0  0  0  0  0  2  0  0  0  0  0  0
  180.2030  180.4460  142.8860 N   0  0  0  0  0  1  0  0  0  0  0  0
  180.8660  179.1770  142.6240 C   0  0  0  0  0  2  0  0  0  0  0  0
  190.0570  176.4780  137.3930 C   0  0  0  0  0  0  0  0  0  0  0  0
  189.1810  175.9670  136.6370 O   0  0  0  0  0  0  0  0  0  0  0  0
  191.3850  176.5950  136.9740 O   0  0  0  0  0  0  0  0  0  0  0  0
  192.1730  175.4560  136.6440 C   0  0  0  0  0  2  0  0  0  0  0  0
  193.6450  175.7840  136.8170 C   0  0  2  0  0  3  0  0  0  0  0  0
  194.2460  174.9400  137.8730 C   0  0  0  0  0  2  0  0  0  0  0  0
  193.8550  176.2690  138.1230 O   0  0  0  0  0  0  0  0  0  0  0  0
  1 22  1  0  0  0  0
  1  5  1  0  0  0  0
  3 12  1  0  0  0  0
  6  5  2  0  0  0  0
  6 18  1  0  0  0  0
  7  4  1  6  0  0  0
  7  8  1  0  0  0  0
  7  2  1  0  0  0  0
  7  9  1  0  0  0  0
  8 11  1  0  0  0  0
  8  9  1  0  0  0  0
  9  2  1  1  0  0  0
  9  6  1  0  0  0  0
 10  4  2  0  0  0  0
 10  3  1  0  0  0  0
 11  1  2  0  0  0  0
 12  2  2  0  0  0  0
 14 13  1  0  0  0  0
 15 14  1  0  0  0  0
 16 19  2  0  0  0  0
 17 15  1  0  0  0  0
 17 16  1  0  0  0  0
 18 17  2  0  0  0  0
 19 13  1  0  0  0  0
 21 23  1  0  0  0  0
 21 20  2  0  0  0  0
 22 21  1  0  0  0  0
 25 24  1  0  0  0  0
 25 23  1  0  0  0  0
 26 10  1  0  0  0  0
 27 26  2  0  0  0  0
 28 26  1  0  0  0  0
 29 28  1  0  0  0  0
 30 29  1  1  0  0  0
 30 31  1  0  0  0  0
 30 32  1  0  0  0  0
 31 32  1  0  0  0  0
M  END
>  <MODEL>
1

>  <REMARK>
 VINA RESULT:      -8.4      0.000      0.000
  Name = 
  8 active torsions:
  status: ('A' for Active; 'I' for Inactive)
    1  A    between atoms: C_1  and  N_28
    2  A    between atoms: C_3  and  C_13
    3  A    between atoms: C_5  and  C_9
    4  A    between atoms: C_8  and  O_10
    5  A    between atoms: C_8  and  C_25
    6  A    between atoms: C_9  and  C_27
    7  A    between atoms: O_10  and  C_13
    8  A    between atoms: C_18  and  C_20
                            x       y       z     vdW  Elec       q    Type
                         _______ _______ _______ _____ _____    ______ ____

>  <TORSDO>
F 8

$$$$
=
 OpenBabel11042413073D

 32 37  0  0  1  0  0  0  0  0999 V2000
  185.2410  178.2630  142.3230 C   0  0  0  0  0  0  0  0  0  0  0  0
  189.0630  177.8760  141.2900 C   0  0  0  0  0  0  0  0  0  0  0  0
  190.5290  176.7790  139.8100 C   0  0  0  0  0  2  0  0  0  0  0  0
  188.4200  177.7790  138.9150 C   0  0  0  0  0  3  0  0  0  0  0  0
  186.1510  177.6370  143.3240 C   0  0  0  0  0  3  0  0  0  0  0  0
  187.4970  177.6660  143.1980 C   0  0  0  0  0  0  0  0  0  0  0  0
  188.1840  178.1650  140.2230 C   0  0  1  0  0  0  0  0  0  0  0  0
  187.1850  178.7630  141.1080 N   0  0  0  0  0  0  0  0  0  0  0  0
  188.1330  178.5500  142.1430 C   0  0  2  0  0  0  0  0  0  0  0  0
  189.6340  177.0600  138.7210 C   0  0  0  0  0  0  0  0  0  0  0  0
  185.7650  178.7770  141.1970 C   0  0  0  0  0  3  0  0  0  0  0  0
  190.2590  177.1950  141.1390 C   0  0  0  0  0  3  0  0  0  0  0  0
  188.0780  178.1090  148.3320 C   0  0  0  0  0  2  0  0  0  0  0  0
  186.8280  178.2330  147.4590 C   0  0  0  0  0  2  0  0  0  0  0  0
  187.2370  178.5000  146.0090 C   0  0  0  0  0  2  0  0  0  0  0  0
  189.0840  176.7980  146.5500 C   0  0  0  0  0  3  0  0  0  0  0  0
  188.2230  177.4560  145.5510 C   0  0  0  0  0  0  0  0  0  0  0  0
  188.3310  177.0950  144.2690 C   0  0  0  0  0  3  0  0  0  0  0  0
  188.9830  177.0790  147.8170 N   0  0  0  0  0  0  0  0  0  0  0  0
  183.7360  179.9310  144.2430 O   0  0  0  0  0  0  0  0  0  0  0  0
  183.1400  179.0460  143.5720 C   0  0  0  0  0  0  0  0  0  0  0  0
  183.8300  178.2700  142.5830 N   0  0  0  0  0  2  0  0  0  0  0  0
  181.7030  178.7380  143.8520 C   0  0  0  0  0  2  0  0  0  0  0  0
  180.2500  180.4270  142.8350 N   0  0  0  0  0  1  0  0  0  0  0  0
  180.7950  179.0870  142.6750 C   0  0  0  0  0  2  0  0  0  0  0  0
  190.0030  176.6400  137.3700 C   0  0  0  0  0  0  0  0  0  0  0  0
  191.1870  176.2650  137.1290 O   0  0  0  0  0  0  0  0  0  0  0  0
  189.0430  176.6810  136.3550 O   0  0  0  0  0  0  0  0  0  0  0  0
  188.5340  175.4960  135.7530 C   0  0  0  0  0  2  0  0  0  0  0  0
  187.7690  174.6850  136.7830 C   0  0  2  0  0  3  0  0  0  0  0  0
  186.5400  174.1160  136.1880 C   0  0  0  0  0  2  0  0  0  0  0  0
  186.5060  175.2770  136.9830 O   0  0  0  0  0  0  0  0  0  0  0  0
  1 22  1  0  0  0  0
  1  5  1  0  0  0  0
  3 12  1  0  0  0  0
  6  5  2  0  0  0  0
  6 18  1  0  0  0  0
  7  4  1  6  0  0  0
  7  8  1  0  0  0  0
  7  2  1  0  0  0  0
  7  9  1  0  0  0  0
  8 11  1  0  0  0  0
  8  9  1  0  0  0  0
  9  2  1  1  0  0  0
  9  6  1  0  0  0  0
 10  4  2  0  0  0  0
 10  3  1  0  0  0  0
 11  1  2  0  0  0  0
 12  2  2  0  0  0  0
 14 13  1  0  0  0  0
 15 14  1  0  0  0  0
 16 19  2  0  0  0  0
 17 15  1  0  0  0  0
 17 16  1  0  0  0  0
 18 17  2  0  0  0  0
 19 13  1  0  0  0  0
 21 23  1  0  0  0  0
 21 20  2  0  0  0  0
 22 21  1  0  0  0  0
 25 24  1  0  0  0  0
 25 23  1  0  0  0  0
 26 10  1  0  0  0  0
 27 26  2  0  0  0  0
 28 26  1  0  0  0  0
 29 28  1  0  0  0  0
 30 29  1  6  0  0  0
 30 32  1  0  0  0  0
 31 30  1  0  0  0  0
 31 32  1  0  0  0  0
M  END
>  <MODEL>
2

>  <REMARK>
 VINA RESULT:      -8.2      1.262      2.368
  Name = 
  8 active torsions:
  status: ('A' for Active; 'I' for Inactive)
    1  A    between atoms: C_1  and  N_28
    2  A    between atoms: C_3  and  C_13
    3  A    between atoms: C_5  and  C_9
    4  A    between atoms: C_8  and  O_10
    5  A    between atoms: C_8  and  C_25
    6  A    between atoms: C_9  and  C_27
    7  A    between atoms: O_10  and  C_13
    8  A    between atoms: C_18  and  C_20
                            x       y       z     vdW  Elec       q    Type
                         _______ _______ _______ _____ _____    ______ ____

>  <TORSDO>
F 8

$$$$
=
 OpenBabel11042413073D

 32 37  0  0  1  0  0  0  0  0999 V2000
  186.6920  177.9210  142.9390 C   0  0  0  0  0  0  0  0  0  0  0  0
  189.7220  177.5600  140.3860 C   0  0  0  0  0  0  0  0  0  0  0  0
  190.3890  176.5680  138.3580 C   0  0  0  0  0  2  0  0  0  0  0  0
  188.1510  177.6720  138.4930 C   0  0  0  0  0  3  0  0  0  0  0  0
  187.9030  177.1990  143.4250 C   0  0  0  0  0  3  0  0  0  0  0  0
  189.0760  177.2160  142.7530 C   0  0  0  0  0  0  0  0  0  0  0  0
  188.4960  177.9510  139.8040 C   0  0  1  0  0  0  0  0  0  0  0  0
  187.9830  178.4900  141.0630 N   0  0  0  0  0  0  0  0  0  0  0  0
  189.2620  178.1750  141.5930 C   0  0  2  0  0  0  0  0  0  0  0  0
  189.1390  176.9530  137.7630 C   0  0  0  0  0  0  0  0  0  0  0  0
  186.7290  178.5180  141.7350 C   0  0  0  0  0  3  0  0  0  0  0  0
  190.7130  176.8750  139.7050 C   0  0  0  0  0  3  0  0  0  0  0  0
  191.3970  176.7540  147.3680 C   0  0  0  0  0  2  0  0  0  0  0  0
  189.9170  176.9100  147.0100 C   0  0  0  0  0  2  0  0  0  0  0  0
  189.7860  177.4820  145.5980 C   0  0  0  0  0  2  0  0  0  0  0  0
  191.7590  175.9070  145.1190 C   0  0  0  0  0  3  0  0  0  0  0  0
  190.5830  176.6480  144.6280 C   0  0  0  0  0  0  0  0  0  0  0  0
  190.2480  176.5450  143.3380 C   0  0  0  0  0  3  0  0  0  0  0  0
  192.0970  175.9360  146.3750 N   0  0  0  0  0  0  0  0  0  0  0  0
  185.0030  180.2220  143.7060 O   0  0  0  0  0  0  0  0  0  0  0  0
  184.7580  179.0760  144.1700 C   0  0  0  0  0  0  0  0  0  0  0  0
  185.5170  177.9290  143.7620 N   0  0  0  0  0  2  0  0  0  0  0  0
  183.7090  178.9050  145.2220 C   0  0  0  0  0  2  0  0  0  0  0  0
  185.3490  179.2030  147.0160 N   0  0  0  0  0  1  0  0  0  0  0  0
  184.2790  178.3480  146.5240 C   0  0  0  0  0  2  0  0  0  0  0  0
  188.8950  176.6410  136.3550 C   0  0  0  0  0  0  0  0  0  0  0  0
  189.7080  177.0410  135.4720 O   0  0  0  0  0  0  0  0  0  0  0  0
  187.7510  175.9210  136.0020 O   0  0  0  0  0  0  0  0  0  0  0  0
  187.4290  174.6750  136.6090 C   0  0  0  0  0  2  0  0  0  0  0  0
  188.4470  173.6270  136.1990 C   0  0  2  0  0  3  0  0  0  0  0  0
  188.2140  172.3620  136.9300 C   0  0  0  0  0  2  0  0  0  0  0  0
  189.2140  173.2700  137.3260 O   0  0  0  0  0  0  0  0  0  0  0  0
  1  5  1  0  0  0  0
  1 22  1  0  0  0  0
  3 12  1  0  0  0  0
  6 18  1  0  0  0  0
  6  5  2  0  0  0  0
  7  4  1  6  0  0  0
  7  2  1  0  0  0  0
  7  8  1  0  0  0  0
  7  9  1  0  0  0  0
  8  9  1  0  0  0  0
  8 11  1  0  0  0  0
  9  2  1  1  0  0  0
  9  6  1  0  0  0  0
 10  3  1  0  0  0  0
 10  4  2  0  0  0  0
 11  1  2  0  0  0  0
 12  2  2  0  0  0  0
 14 13  1  0  0  0  0
 15 14  1  0  0  0  0
 16 19  2  0  0  0  0
 17 16  1  0  0  0  0
 17 15  1  0  0  0  0
 18 17  2  0  0  0  0
 19 13  1  0  0  0  0
 20 21  2  0  0  0  0
 21 23  1  0  0  0  0
 22 21  1  0  0  0  0
 23 25  1  0  0  0  0
 25 24  1  0  0  0  0
 26 10  1  0  0  0  0
 27 26  2  0  0  0  0
 28 26  1  0  0  0  0
 28 29  1  0  0  0  0
 30 29  1  1  0  0  0
 30 31  1  0  0  0  0
 30 32  1  0  0  0  0
 31 32  1  0  0  0  0
M  END
>  <MODEL>
3

>  <REMARK>
 VINA RESULT:      -8.0      2.413      3.195
  Name = 
  8 active torsions:
  status: ('A' for Active; 'I' for Inactive)
    1  A    between atoms: C_1  and  N_28
    2  A    between atoms: C_3  and  C_13
    3  A    between atoms: C_5  and  C_9
    4  A    between atoms: C_8  and  O_10
    5  A    between atoms: C_8  and  C_25
    6  A    between atoms: C_9  and  C_27
    7  A    between atoms: O_10  and  C_13
    8  A    between atoms: C_18  and  C_20
                            x       y       z     vdW  Elec       q    Type
                         _______ _______ _______ _____ _____    ______ ____

>  <TORSDO>
F 8

$$$$
=
 OpenBabel11042413073D

 32 37  0  0  1  0  0  0  0  0999 V2000
  192.9250  176.3670  138.3400 C   0  0  0  0  0  0  0  0  0  0  0  0
  190.1310  177.1890  141.0510 C   0  0  0  0  0  0  0  0  0  0  0  0
  189.4250  176.7320  143.2490 C   0  0  0  0  0  2  0  0  0  0  0  0
  191.8410  177.2060  142.8210 C   0  0  0  0  0  3  0  0  0  0  0  0
  191.5390  175.9030  138.0430 C   0  0  0  0  0  3  0  0  0  0  0  0
  190.4670  176.3210  138.7540 C   0  0  0  0  0  0  0  0  0  0  0  0
  191.4610  177.3480  141.4980 C   0  0  1  0  0  0  0  0  0  0  0  0
  191.9760  177.5330  140.1420 N   0  0  0  0  0  0  0  0  0  0  0  0
  190.6180  177.4680  139.7340 C   0  0  2  0  0  0  0  0  0  0  0  0
  190.7780  176.8830  143.7100 C   0  0  0  0  0  0  0  0  0  0  0  0
  193.1370  177.1390  139.4200 C   0  0  0  0  0  3  0  0  0  0  0  0
  189.0680  176.8920  141.8850 C   0  0  0  0  0  3  0  0  0  0  0  0
  186.8030  177.6440  135.3320 C   0  0  0  0  0  2  0  0  0  0  0  0
  188.3270  177.7240  135.2370 C   0  0  0  0  0  2  0  0  0  0  0  0
  188.9340  177.6800  136.6400 C   0  0  0  0  0  2  0  0  0  0  0  0
  187.0880  175.9370  137.0380 C   0  0  0  0  0  3  0  0  0  0  0  0
  188.4140  176.4800  137.3880 C   0  0  0  0  0  0  0  0  0  0  0  0
  189.1220  175.8800  138.3500 C   0  0  0  0  0  3  0  0  0  0  0  0
  186.3820  176.4550  136.0750 N   0  0  0  0  0  0  0  0  0  0  0  0
  194.3700  173.7890  138.3250 O   0  0  0  0  0  0  0  0  0  0  0  0
  194.7180  174.7130  137.5410 C   0  0  0  0  0  0  0  0  0  0  0  0
  193.9910  175.9490  137.4770 N   0  0  0  0  0  2  0  0  0  0  0  0
  195.9520  174.5610  136.7090 C   0  0  0  0  0  2  0  0  0  0  0  0
  197.3600  176.3700  135.8470 N   0  0  0  0  0  1  0  0  0  0  0  0
  196.0930  175.6740  135.6740 C   0  0  0  0  0  2  0  0  0  0  0  0
  191.0620  176.7490  145.1390 C   0  0  0  0  0  0  0  0  0  0  0  0
  191.9240  175.9120  145.5330 O   0  0  0  0  0  0  0  0  0  0  0  0
  190.3560  177.5360  146.0520 O   0  0  0  0  0  0  0  0  0  0  0  0
  189.6280  176.9650  147.1330 C   0  0  0  0  0  2  0  0  0  0  0  0
  189.0910  178.0670  148.0280 C   0  0  2  0  0  3  0  0  0  0  0  0
  187.9270  177.5860  148.8050 C   0  0  0  0  0  2  0  0  0  0  0  0
  187.7690  178.3650  147.6430 O   0  0  0  0  0  0  0  0  0  0  0  0
  1 11  2  0  0  0  0
  2  7  1  0  0  0  0
  2 12  2  0  0  0  0
  3 10  1  0  0  0  0
  4 10  2  0  0  0  0
  5  1  1  0  0  0  0
  5  6  2  0  0  0  0
  7  4  1  1  0  0  0
  8  7  1  0  0  0  0
  9  6  1  6  0  0  0
  9  8  1  0  0  0  0
  9  2  1  0  0  0  0
  9  7  1  0  0  0  0
 10 26  1  0  0  0  0
 11  8  1  0  0  0  0
 12  3  1  0  0  0  0
 13 19  1  0  0  0  0
 14 13  1  0  0  0  0
 14 15  1  0  0  0  0
 15 17  1  0  0  0  0
 16 17  1  0  0  0  0
 17 18  2  0  0  0  0
 18  6  1  0  0  0  0
 19 16  2  0  0  0  0
 21 20  2  0  0  0  0
 22 21  1  0  0  0  0
 22  1  1  0  0  0  0
 23 21  1  0  0  0  0
 25 24  1  0  0  0  0
 25 23  1  0  0  0  0
 26 27  2  0  0  0  0
 26 28  1  0  0  0  0
 28 29  1  0  0  0  0
 30 29  1  6  0  0  0
 30 31  1  0  0  0  0
 32 30  1  0  0  0  0
 32 31  1  0  0  0  0
M  END
>  <MODEL>
4

>  <REMARK>
 VINA RESULT:      -7.5      4.327     10.205
  Name = 
  8 active torsions:
  status: ('A' for Active; 'I' for Inactive)
    1  A    between atoms: C_1  and  N_28
    2  A    between atoms: C_3  and  C_13
    3  A    between atoms: C_5  and  C_9
    4  A    between atoms: C_8  and  O_10
    5  A    between atoms: C_8  and  C_25
    6  A    between atoms: C_9  and  C_27
    7  A    between atoms: O_10  and  C_13
    8  A    between atoms: C_18  and  C_20
                            x       y       z     vdW  Elec       q    Type
                         _______ _______ _______ _____ _____    ______ ____

>  <TORSDO>
F 8

$$$$
=
 OpenBabel11042413073D

 32 37  0  0  1  0  0  0  0  0999 V2000
  190.0420  177.5430  141.6360 C   0  0  0  0  0  0  0  0  0  0  0  0
  187.1720  177.5030  144.3910 C   0  0  0  0  0  0  0  0  0  0  0  0
  185.1880  178.5650  145.0820 C   0  0  0  0  0  2  0  0  0  0  0  0
  185.4950  178.0150  142.6640 C   0  0  0  0  0  3  0  0  0  0  0  0
  190.4400  177.8860  143.0310 C   0  0  0  0  0  3  0  0  0  0  0  0
  189.6250  177.6790  144.0890 C   0  0  0  0  0  0  0  0  0  0  0  0
  186.7150  177.4950  143.0550 C   0  0  1  0  0  0  0  0  0  0  0  0
  187.9680  176.9340  142.5500 N   0  0  0  0  0  0  0  0  0  0  0  0
  188.3590  176.8630  143.9130 C   0  0  2  0  0  0  0  0  0  0  0  0
  184.7210  178.5690  143.7230 C   0  0  0  0  0  0  0  0  0  0  0  0
  188.7880  177.1160  141.4020 C   0  0  0  0  0  3  0  0  0  0  0  0
  186.4440  178.0160  145.4500 C   0  0  0  0  0  3  0  0  0  0  0  0
  192.4100  175.3570  147.7970 C   0  0  0  0  0  2  0  0  0  0  0  0
  192.5030  175.2560  146.2730 C   0  0  0  0  0  2  0  0  0  0  0  0
  191.1920  175.7320  145.6440 C   0  0  0  0  0  2  0  0  0  0  0  0
  191.3160  177.5060  147.4990 C   0  0  0  0  0  3  0  0  0  0  0  0
  190.8390  177.1020  146.1630 C   0  0  0  0  0  0  0  0  0  0  0  0
  190.1210  177.9700  145.4450 C   0  0  0  0  0  3  0  0  0  0  0  0
  192.0600  176.7150  148.2160 N   0  0  0  0  0  0  0  0  0  0  0  0
  190.5170  175.8010  139.2950 O   0  0  0  0  0  0  0  0  0  0  0  0
  191.2530  176.8050  139.4960 C   0  0  0  0  0  0  0  0  0  0  0  0
  191.0030  177.7070  140.5840 N   0  0  0  0  0  2  0  0  0  0  0  0
  192.4570  177.0320  138.6370 C   0  0  0  0  0  2  0  0  0  0  0  0
  194.3550  175.5210  138.3070 N   0  0  0  0  0  1  0  0  0  0  0  0
  192.9530  175.7450  137.9840 C   0  0  0  0  0  2  0  0  0  0  0  0
  183.3950  179.1110  143.4280 C   0  0  0  0  0  0  0  0  0  0  0  0
  182.8900  179.9860  144.1880 O   0  0  0  0  0  0  0  0  0  0  0  0
  182.6940  178.6350  142.3170 O   0  0  0  0  0  0  0  0  0  0  0  0
  181.4230  179.1570  141.9490 C   0  0  0  0  0  2  0  0  0  0  0  0
  180.3240  178.2550  142.4820 C   0  0  2  0  0  3  0  0  0  0  0  0
  179.0650  179.0120  142.6520 C   0  0  0  0  0  2  0  0  0  0  0  0
  179.9120  178.7330  143.7410 O   0  0  0  0  0  0  0  0  0  0  0  0
  1  5  1  0  0  0  0
  2 12  2  0  0  0  0
  3 12  1  0  0  0  0
  4 10  2  0  0  0  0
  5  6  2  0  0  0  0
  6 18  1  0  0  0  0
  7  4  1  1  0  0  0
  7  9  1  0  0  0  0
  7  2  1  0  0  0  0
  8  7  1  0  0  0  0
  8  9  1  0  0  0  0
  9  6  1  6  0  0  0
  9  2  1  0  0  0  0
 10  3  1  0  0  0  0
 11  1  2  0  0  0  0
 11  8  1  0  0  0  0
 13 19  1  0  0  0  0
 14 13  1  0  0  0  0
 15 17  1  0  0  0  0
 15 14  1  0  0  0  0
 16 19  2  0  0  0  0
 17 16  1  0  0  0  0
 18 17  2  0  0  0  0
 20 21  2  0  0  0  0
 21 22  1  0  0  0  0
 22  1  1  0  0  0  0
 23 21  1  0  0  0  0
 25 24  1  0  0  0  0
 25 23  1  0  0  0  0
 26 10  1  0  0  0  0
 26 27  2  0  0  0  0
 28 26  1  0  0  0  0
 29 28  1  0  0  0  0
 30 29  1  6  0  0  0
 30 31  1  0  0  0  0
 30 32  1  0  0  0  0
 31 32  1  0  0  0  0
M  END
>  <MODEL>
5

>  <REMARK>
 VINA RESULT:      -7.5      2.568      8.603
  Name = 
  8 active torsions:
  status: ('A' for Active; 'I' for Inactive)
    1  A    between atoms: C_1  and  N_28
    2  A    between atoms: C_3  and  C_13
    3  A    between atoms: C_5  and  C_9
    4  A    between atoms: C_8  and  O_10
    5  A    between atoms: C_8  and  C_25
    6  A    between atoms: C_9  and  C_27
    7  A    between atoms: O_10  and  C_13
    8  A    between atoms: C_18  and  C_20
                            x       y       z     vdW  Elec       q    Type
                         _______ _______ _______ _____ _____    ______ ____

>  <TORSDO>
F 8

$$$$
=
 OpenBabel11042413073D

 32 37  0  0  1  0  0  0  0  0999 V2000
  190.8620  176.1420  138.7300 C   0  0  0  0  0  0  0  0  0  0  0  0
  187.9370  178.3280  140.3110 C   0  0  0  0  0  0  0  0  0  0  0  0
  186.2590  178.3460  141.9610 C   0  0  0  0  0  2  0  0  0  0  0  0
  188.5440  177.5300  142.5590 C   0  0  0  0  0  3  0  0  0  0  0  0
  189.6870  176.4290  137.8580 C   0  0  0  0  0  3  0  0  0  0  0  0
  188.7500  177.3470  138.1850 C   0  0  0  0  0  0  0  0  0  0  0  0
  188.8630  177.8090  141.2420 C   0  0  1  0  0  0  0  0  0  0  0  0
  189.9160  177.6740  140.2350 N   0  0  0  0  0  0  0  0  0  0  0  0
  188.9950  178.2900  139.3470 C   0  0  2  0  0  0  0  0  0  0  0  0
  187.1930  177.8080  142.9110 C   0  0  0  0  0  0  0  0  0  0  0  0
  190.9380  176.7310  139.9360 C   0  0  0  0  0  3  0  0  0  0  0  0
  186.6220  178.6270  140.6190 C   0  0  0  0  0  3  0  0  0  0  0  0
  184.9160  174.8110  135.7830 C   0  0  0  0  0  2  0  0  0  0  0  0
  185.5360  174.5980  137.1660 C   0  0  0  0  0  2  0  0  0  0  0  0
  186.9160  175.2570  137.2190 C   0  0  0  0  0  2  0  0  0  0  0  0
  185.7380  177.0960  135.8650 C   0  0  0  0  0  3  0  0  0  0  0  0
  186.8150  176.6980  136.7900 C   0  0  0  0  0  0  0  0  0  0  0  0
  187.6620  177.6320  137.2350 C   0  0  0  0  0  3  0  0  0  0  0  0
  184.8600  176.2340  135.4430 N   0  0  0  0  0  0  0  0  0  0  0  0
  193.5540  176.7350  137.6660 O   0  0  0  0  0  0  0  0  0  0  0  0
  193.1320  175.5480  137.6890 C   0  0  0  0  0  0  0  0  0  0  0  0
  191.8580  175.2210  138.2630 N   0  0  0  0  0  2  0  0  0  0  0  0
  193.9290  174.4590  137.0430 C   0  0  0  0  0  2  0  0  0  0  0  0
  195.2760  173.2890  138.7210 N   0  0  0  0  0  1  0  0  0  0  0  0
  195.3100  174.3000  137.6740 C   0  0  0  0  0  2  0  0  0  0  0  0
  186.7580  177.5880  144.2900 C   0  0  0  0  0  0  0  0  0  0  0  0
  185.5820  177.9010  144.6360 O   0  0  0  0  0  0  0  0  0  0  0  0
  187.6590  177.0530  145.2140 O   0  0  0  0  0  0  0  0  0  0  0  0
  188.3940  177.8770  146.1130 C   0  0  0  0  0  2  0  0  0  0  0  0
  188.6400  177.1280  147.4100 C   0  0  2  0  0  3  0  0  0  0  0  0
  188.1760  177.9250  148.5670 C   0  0  0  0  0  2  0  0  0  0  0  0
  189.5350  177.8720  148.2040 O   0  0  0  0  0  0  0  0  0  0  0  0
  1 11  2  0  0  0  0
  2 12  2  0  0  0  0
  2  7  1  0  0  0  0
  3 10  1  0  0  0  0
  4 10  2  0  0  0  0
  5  6  2  0  0  0  0
  5  1  1  0  0  0  0
  7  4  1  1  0  0  0
  8  7  1  0  0  0  0
  9  6  1  6  0  0  0
  9  8  1  0  0  0  0
  9  2  1  0  0  0  0
  9  7  1  0  0  0  0
 10 26  1  0  0  0  0
 11  8  1  0  0  0  0
 12  3  1  0  0  0  0
 13 14  1  0  0  0  0
 14 15  1  0  0  0  0
 16 17  1  0  0  0  0
 17 15  1  0  0  0  0
 17 18  2  0  0  0  0
 18  6  1  0  0  0  0
 19 13  1  0  0  0  0
 19 16  2  0  0  0  0
 20 21  2  0  0  0  0
 21 22  1  0  0  0  0
 22  1  1  0  0  0  0
 23 25  1  0  0  0  0
 23 21  1  0  0  0  0
 25 24  1  0  0  0  0
 26 27  2  0  0  0  0
 26 28  1  0  0  0  0
 28 29  1  0  0  0  0
 30 29  1  6  0  0  0
 30 32  1  0  0  0  0
 30 31  1  0  0  0  0
 32 31  1  0  0  0  0
M  END
>  <MODEL>
6

>  <REMARK>
 VINA RESULT:      -7.4      3.461      9.629
  Name = 
  8 active torsions:
  status: ('A' for Active; 'I' for Inactive)
    1  A    between atoms: C_1  and  N_28
    2  A    between atoms: C_3  and  C_13
    3  A    between atoms: C_5  and  C_9
    4  A    between atoms: C_8  and  O_10
    5  A    between atoms: C_8  and  C_25
    6  A    between atoms: C_9  and  C_27
    7  A    between atoms: O_10  and  C_13
    8  A    between atoms: C_18  and  C_20
                            x       y       z     vdW  Elec       q    Type
                         _______ _______ _______ _____ _____    ______ ____

>  <TORSDO>
F 8

$$$$
=
 OpenBabel11042413073D

 32 37  0  0  1  0  0  0  0  0999 V2000
  186.7550  177.9300  144.9960 C   0  0  0  0  0  0  0  0  0  0  0  0
  184.3140  179.0570  142.0630 C   0  0  0  0  0  0  0  0  0  0  0  0
  182.2290  178.6310  141.0580 C   0  0  0  0  0  2  0  0  0  0  0  0
  182.3750  178.7580  143.5500 C   0  0  0  0  0  3  0  0  0  0  0  0
  187.2190  177.6870  143.6010 C   0  0  0  0  0  3  0  0  0  0  0  0
  186.6040  178.2320  142.5270 C   0  0  0  0  0  0  0  0  0  0  0  0
  183.7210  179.0030  143.3430 C   0  0  1  0  0  0  0  0  0  0  0  0
  185.0050  179.1580  144.0280 N   0  0  0  0  0  0  0  0  0  0  0  0
  185.5560  179.3090  142.7290 C   0  0  2  0  0  0  0  0  0  0  0  0
  181.6210  178.5640  142.3580 C   0  0  0  0  0  0  0  0  0  0  0  0
  185.6200  178.6230  145.1940 C   0  0  0  0  0  3  0  0  0  0  0  0
  183.6130  178.8900  140.8820 C   0  0  0  0  0  3  0  0  0  0  0  0
  191.2460  177.5030  140.3330 C   0  0  0  0  0  2  0  0  0  0  0  0
  190.7200  177.0860  141.7080 C   0  0  0  0  0  2  0  0  0  0  0  0
  189.4970  177.9300  142.0680 C   0  0  0  0  0  2  0  0  0  0  0  0
  188.9380  177.6100  139.5810 C   0  0  0  0  0  3  0  0  0  0  0  0
  188.4790  177.8630  140.9590 C   0  0  0  0  0  0  0  0  0  0  0  0
  187.1700  178.0090  141.1860 C   0  0  0  0  0  3  0  0  0  0  0  0
  190.1970  177.4120  139.3160 N   0  0  0  0  0  0  0  0  0  0  0  0
  189.6380  178.2650  145.5530 O   0  0  0  0  0  0  0  0  0  0  0  0
  188.9360  177.5180  146.2860 C   0  0  0  0  0  0  0  0  0  0  0  0
  187.5210  177.3900  146.0820 N   0  0  0  0  0  2  0  0  0  0  0  0
  189.5870  176.6850  147.3440 C   0  0  0  0  0  2  0  0  0  0  0  0
  191.6890  175.4460  147.5560 N   0  0  0  0  0  1  0  0  0  0  0  0
  191.1110  176.7530  147.2790 C   0  0  0  0  0  2  0  0  0  0  0  0
  180.1790  178.3380  142.4590 C   0  0  0  0  0  0  0  0  0  0  0  0
  179.4240  179.2670  142.8690 O   0  0  0  0  0  0  0  0  0  0  0  0
  179.6570  177.0880  142.1190 O   0  0  0  0  0  0  0  0  0  0  0  0
  179.2050  176.7930  140.8020 C   0  0  0  0  0  2  0  0  0  0  0  0
  180.0280  175.6590  140.2180 C   0  0  2  0  0  3  0  0  0  0  0  0
  179.1580  174.6930  139.5130 C   0  0  0  0  0  2  0  0  0  0  0  0
  179.6280  174.4490  140.8170 O   0  0  0  0  0  0  0  0  0  0  0  0
  1 11  2  0  0  0  0
  1 22  1  0  0  0  0
  2  7  1  0  0  0  0
  3 10  1  0  0  0  0
  5  1  1  0  0  0  0
  6  9  1  0  0  0  0
  6  5  2  0  0  0  0
  7  4  1  1  0  0  0
  7  8  1  0  0  0  0
  8 11  1  0  0  0  0
  9  2  1  6  0  0  0
  9  7  1  0  0  0  0
  9  8  1  0  0  0  0
 10 26  1  0  0  0  0
 10  4  2  0  0  0  0
 12  3  1  0  0  0  0
 12  2  2  0  0  0  0
 13 14  1  0  0  0  0
 14 15  1  0  0  0  0
 16 17  1  0  0  0  0
 17 18  2  0  0  0  0
 17 15  1  0  0  0  0
 18  6  1  0  0  0  0
 19 16  2  0  0  0  0
 19 13  1  0  0  0  0
 20 21  2  0  0  0  0
 21 23  1  0  0  0  0
 22 21  1  0  0  0  0
 25 23  1  0  0  0  0
 25 24  1  0  0  0  0
 26 27  2  0  0  0  0
 28 26  1  0  0  0  0
 29 28  1  0  0  0  0
 30 29  1  1  0  0  0
 30 32  1  0  0  0  0
 31 30  1  0  0  0  0
 31 32  1  0  0  0  0
M  END
>  <MODEL>
7

>  <REMARK>
 VINA RESULT:      -7.4      3.585      8.722
  Name = 
  8 active torsions:
  status: ('A' for Active; 'I' for Inactive)
    1  A    between atoms: C_1  and  N_28
    2  A    between atoms: C_3  and  C_13
    3  A    between atoms: C_5  and  C_9
    4  A    between atoms: C_8  and  O_10
    5  A    between atoms: C_8  and  C_25
    6  A    between atoms: C_9  and  C_27
    7  A    between atoms: O_10  and  C_13
    8  A    between atoms: C_18  and  C_20
                            x       y       z     vdW  Elec       q    Type
                         _______ _______ _______ _____ _____    ______ ____

>  <TORSDO>
F 8

$$$$
=
 OpenBabel11042413073D

 32 37  0  0  1  0  0  0  0  0999 V2000
  187.5760  178.0000  140.9880 C   0  0  0  0  0  0  0  0  0  0  0  0
  190.2250  176.6240  143.6180 C   0  0  0  0  0  0  0  0  0  0  0  0
  191.1490  176.9900  145.7520 C   0  0  0  0  0  2  0  0  0  0  0  0
  188.6710  177.1280  145.4600 C   0  0  0  0  0  3  0  0  0  0  0  0
  189.0140  178.0810  140.6030 C   0  0  0  0  0  3  0  0  0  0  0  0
  189.9860  177.4390  141.2910 C   0  0  0  0  0  0  0  0  0  0  0  0
  188.9260  176.8300  144.1330 C   0  0  1  0  0  0  0  0  0  0  0  0
  188.3040  176.7190  142.8140 N   0  0  0  0  0  0  0  0  0  0  0  0
  189.6080  176.4160  142.3440 C   0  0  2  0  0  0  0  0  0  0  0  0
  189.8310  177.2110  146.2800 C   0  0  0  0  0  0  0  0  0  0  0  0
  187.2400  177.3600  142.1210 C   0  0  0  0  0  3  0  0  0  0  0  0
  191.3750  176.6800  144.3860 C   0  0  0  0  0  3  0  0  0  0  0  0
  192.7300  175.9250  137.1590 C   0  0  0  0  0  2  0  0  0  0  0  0
  191.2730  176.3780  137.2730 C   0  0  0  0  0  2  0  0  0  0  0  0
  190.8080  176.2520  138.7250 C   0  0  0  0  0  2  0  0  0  0  0  0
  193.1720  177.1260  139.2260 C   0  0  0  0  0  3  0  0  0  0  0  0
  191.7630  176.9760  139.6370 C   0  0  0  0  0  0  0  0  0  0  0  0
  191.3730  177.5030  140.8020 C   0  0  0  0  0  3  0  0  0  0  0  0
  193.5900  176.6740  138.0790 N   0  0  0  0  0  0  0  0  0  0  0  0
  184.8550  178.9090  141.6990 O   0  0  0  0  0  0  0  0  0  0  0  0
  185.2620  179.0030  140.5100 C   0  0  0  0  0  0  0  0  0  0  0  0
  186.6010  178.6350  140.1490 N   0  0  0  0  0  2  0  0  0  0  0  0
  184.3200  179.4340  139.4300 C   0  0  0  0  0  2  0  0  0  0  0  0
  183.8710  177.5140  137.9780 N   0  0  0  0  0  1  0  0  0  0  0  0
  183.3310  178.3350  139.0520 C   0  0  0  0  0  2  0  0  0  0  0  0
  189.6740  177.4810  147.7100 C   0  0  0  0  0  0  0  0  0  0  0  0
  190.6960  177.6550  148.4330 O   0  0  0  0  0  0  0  0  0  0  0  0
  188.3900  177.5200  148.2600 O   0  0  0  0  0  0  0  0  0  0  0  0
  187.5330  178.6440  148.0910 C   0  0  0  0  0  2  0  0  0  0  0  0
  186.2580  178.2150  147.3880 C   0  0  2  0  0  3  0  0  0  0  0  0
  186.0560  179.0030  146.1520 C   0  0  0  0  0  2  0  0  0  0  0  0
  185.3710  179.3080  147.3440 O   0  0  0  0  0  0  0  0  0  0  0  0
  1 11  2  0  0  0  0
  2  7  1  0  0  0  0
  2 12  2  0  0  0  0
  3 10  1  0  0  0  0
  4 10  2  0  0  0  0
  5  1  1  0  0  0  0
  5  6  2  0  0  0  0
  7  4  1  1  0  0  0
  8  7  1  0  0  0  0
  9  6  1  6  0  0  0
  9  8  1  0  0  0  0
  9  2  1  0  0  0  0
  9  7  1  0  0  0  0
 10 26  1  0  0  0  0
 11  8  1  0  0  0  0
 12  3  1  0  0  0  0
 13 14  1  0  0  0  0
 13 19  1  0  0  0  0
 14 15  1  0  0  0  0
 15 17  1  0  0  0  0
 16 17  1  0  0  0  0
 17 18  2  0  0  0  0
 18  6  1  0  0  0  0
 19 16  2  0  0  0  0
 21 20  2  0  0  0  0
 22 21  1  0  0  0  0
 22  1  1  0  0  0  0
 23 21  1  0  0  0  0
 24 25  1  0  0  0  0
 25 23  1  0  0  0  0
 26 28  1  0  0  0  0
 26 27  2  0  0  0  0
 29 28  1  0  0  0  0
 30 29  1  1  0  0  0
 31 32  1  0  0  0  0
 31 30  1  0  0  0  0
 32 30  1  0  0  0  0
M  END
>  <MODEL>
8

>  <REMARK>
 VINA RESULT:      -7.2      3.555      7.908
  Name = 
  8 active torsions:
  status: ('A' for Active; 'I' for Inactive)
    1  A    between atoms: C_1  and  N_28
    2  A    between atoms: C_3  and  C_13
    3  A    between atoms: C_5  and  C_9
    4  A    between atoms: C_8  and  O_10
    5  A    between atoms: C_8  and  C_25
    6  A    between atoms: C_9  and  C_27
    7  A    between atoms: O_10  and  C_13
    8  A    between atoms: C_18  and  C_20
                            x       y       z     vdW  Elec       q    Type
                         _______ _______ _______ _____ _____    ______ ____

>  <TORSDO>
F 8

$$$$
=
 OpenBabel11042413073D

 32 37  0  0  1  0  0  0  0  0999 V2000
  186.8230  177.9180  145.3390 C   0  0  0  0  0  0  0  0  0  0  0  0
  184.2220  179.0310  142.5410 C   0  0  0  0  0  0  0  0  0  0  0  0
  182.0720  178.6210  141.6770 C   0  0  0  0  0  2  0  0  0  0  0  0
  182.3750  178.7920  144.1510 C   0  0  0  0  0  3  0  0  0  0  0  0
  187.1950  177.6410  143.9220 C   0  0  0  0  0  3  0  0  0  0  0  0
  186.5230  178.1760  142.8780 C   0  0  0  0  0  0  0  0  0  0  0  0
  183.7090  179.0100  143.8570 C   0  0  1  0  0  0  0  0  0  0  0  0
  185.0350  179.1560  144.4570 N   0  0  0  0  0  0  0  0  0  0  0  0
  185.5070  179.2740  143.1230 C   0  0  2  0  0  0  0  0  0  0  0  0
  181.5450  178.5880  143.0130 C   0  0  0  0  0  0  0  0  0  0  0  0
  185.7140  178.6330  145.5930 C   0  0  0  0  0  3  0  0  0  0  0  0
  183.4450  178.8540  141.4100 C   0  0  0  0  0  3  0  0  0  0  0  0
  191.0190  177.4700  140.3910 C   0  0  0  0  0  2  0  0  0  0  0  0
  190.5990  177.0900  141.8120 C   0  0  0  0  0  2  0  0  0  0  0  0
  189.3840  177.9200  142.2290 C   0  0  0  0  0  2  0  0  0  0  0  0
  188.6630  177.5020  139.7990 C   0  0  0  0  0  3  0  0  0  0  0  0
  188.2940  177.7930  141.1960 C   0  0  0  0  0  0  0  0  0  0  0  0
  187.0000  177.9190  141.5090 C   0  0  0  0  0  3  0  0  0  0  0  0
  189.9050  177.3220  139.4530 N   0  0  0  0  0  0  0  0  0  0  0  0
  189.7610  177.5960  145.3770 O   0  0  0  0  0  0  0  0  0  0  0  0
  189.0670  177.1810  146.3440 C   0  0  0  0  0  0  0  0  0  0  0  0
  187.6470  177.3860  146.3850 N   0  0  0  0  0  2  0  0  0  0  0  0
  189.7110  176.3930  147.4410 C   0  0  0  0  0  2  0  0  0  0  0  0
  192.0570  175.7790  147.0970 N   0  0  0  0  0  1  0  0  0  0  0  0
  191.1690  176.7880  147.6580 C   0  0  0  0  0  2  0  0  0  0  0  0
  180.1090  178.3890  143.2070 C   0  0  0  0  0  0  0  0  0  0  0  0
  179.6940  177.3780  143.8440 O   0  0  0  0  0  0  0  0  0  0  0  0
  179.2110  179.3120  142.6650 O   0  0  0  0  0  0  0  0  0  0  0  0
  179.6510  180.5160  142.0470 C   0  0  0  0  0  2  0  0  0  0  0  0
  179.0510  180.6280  140.6570 C   0  0  2  0  0  3  0  0  0  0  0  0
  179.9990  181.2870  139.7320 C   0  0  0  0  0  2  0  0  0  0  0  0
  178.9310  181.9910  140.3200 O   0  0  0  0  0  0  0  0  0  0  0  0
  1 11  2  0  0  0  0
  1 22  1  0  0  0  0
  2  7  1  0  0  0  0
  3 10  1  0  0  0  0
  5  1  1  0  0  0  0
  6  9  1  0  0  0  0
  6  5  2  0  0  0  0
  7  4  1  1  0  0  0
  7  8  1  0  0  0  0
  8 11  1  0  0  0  0
  9  2  1  6  0  0  0
  9  7  1  0  0  0  0
  9  8  1  0  0  0  0
 10 26  1  0  0  0  0
 10  4  2  0  0  0  0
 12  3  1  0  0  0  0
 12  2  2  0  0  0  0
 13 14  1  0  0  0  0
 14 15  1  0  0  0  0
 16 17  1  0  0  0  0
 17 18  2  0  0  0  0
 17 15  1  0  0  0  0
 18  6  1  0  0  0  0
 19 16  2  0  0  0  0
 19 13  1  0  0  0  0
 20 21  2  0  0  0  0
 21 22  1  0  0  0  0
 21 23  1  0  0  0  0
 23 25  1  0  0  0  0
 24 25  1  0  0  0  0
 26 27  2  0  0  0  0
 28 26  1  0  0  0  0
 29 28  1  0  0  0  0
 30 29  1  1  0  0  0
 31 32  1  0  0  0  0
 31 30  1  0  0  0  0
 32 30  1  0  0  0  0
M  END
>  <MODEL>
9

>  <REMARK>
 VINA RESULT:      -7.1      3.537      9.094
  Name = 
  8 active torsions:
  status: ('A' for Active; 'I' for Inactive)
    1  A    between atoms: C_1  and  N_28
    2  A    between atoms: C_3  and  C_13
    3  A    between atoms: C_5  and  C_9
    4  A    between atoms: C_8  and  O_10
    5  A    between atoms: C_8  and  C_25
    6  A    between atoms: C_9  and  C_27
    7  A    between atoms: O_10  and  C_13
    8  A    between atoms: C_18  and  C_20
                            x       y       z     vdW  Elec       q    Type
                         _______ _______ _______ _____ _____    ______ ____

>  <TORSDO>
F 8

$$$$
