=
 OpenBabel11042410463D

 49 53  0  0  1  0  0  0  0  0999 V2000
  190.9280  176.9060  139.9590 C   0  0  0  0  0  0  0  0  0  0  0  0
  192.1390  177.2530  140.0230 O   0  0  0  0  0  0  0  0  0  0  0  0
  190.2950  176.6080  138.6360 C   0  0  2  0  0  3  0  0  0  0  0  0
  191.1620  176.9660  137.6000 O   0  0  0  0  0  1  0  0  0  0  0  0
  189.1480  178.7000  138.7390 F   0  0  0  0  0  0  0  0  0  0  0  0
  188.9670  177.3490  138.4910 C   0  0  1  0  0  3  0  0  0  0  0  0
  186.0980  177.1130  136.4700 N   0  0  0  0  0  0  0  0  0  0  0  0
  187.1000  176.3470  137.1820 C   0  0  0  0  0  2  0  0  0  0  0  0
  188.0700  178.3790  136.5080 O   0  0  0  0  0  0  0  0  0  0  0  0
  186.8580  178.1760  135.8310 C   0  0  0  0  0  2  0  0  0  0  0  0
  188.3740  177.1450  137.0980 C   0  0  1  0  0  3  0  0  0  0  0  0
  185.2470  177.7440  137.4700 C   0  0  0  0  0  2  0  0  0  0  0  0
  183.8050  177.2720  137.3140 C   0  0  2  0  0  3  0  0  0  0  0  0
  183.3600  177.3130  135.8810 C   0  0  0  0  0  3  0  0  0  0  0  0
  182.2460  177.7130  135.5870 O   0  0  0  0  0  0  0  0  0  0  0  0
  182.8670  178.0400  138.2570 C   0  0  1  0  0  3  0  0  0  0  0  0
  182.3250  175.7060  139.1070 C   0  0  0  0  0  2  0  0  0  0  0  0
  180.8510  175.1260  136.9140 O   0  0  0  0  0  0  0  0  0  0  0  0
  180.1220  174.1390  139.0640 O   0  0  0  0  0  0  0  0  0  0  0  0
  182.2880  177.2020  139.4200 C   0  0  2  0  0  3  0  0  0  0  0  0
  179.8980  176.8200  138.7860 C   0  0  0  0  0  2  0  0  0  0  0  0
  180.5190  177.2870  141.0390 O   0  0  0  0  0  1  0  0  0  0  0  0
  180.7540  175.3290  138.4000 S   0  0  0  0  0  0  0  0  0  0  0  0
  180.8260  177.5930  139.7130 C   0  0  1  0  0  3  0  0  0  0  0  0
  183.5670  179.2340  138.7570 C   0  0  0  0  0  0  0  0  0  0  0  0
  184.1190  180.1730  139.1460 N   0  0  0  0  0  0  0  0  0  0  0  0
  190.1400  176.8590  141.1100 O   0  0  0  0  0  0  0  0  0  0  0  0
  190.6370  177.2540  142.3810 C   0  0  2  0  0  3  0  0  0  0  0  0
  190.8550  176.0490  143.2390 C   0  0  0  0  0  0  0  0  0  0  0  0
  190.1470  175.0610  143.1060 O   0  0  0  0  0  0  0  0  0  0  0  0
  191.9500  176.0620  144.2620 C   0  0  2  0  0  3  0  0  0  0  0  0
  192.3210  174.7610  144.5540 F   0  0  0  0  0  0  0  0  0  0  0  0
  190.1360  176.5620  145.7370 O   0  0  0  0  0  1  0  0  0  0  0  0
  192.2110  176.2980  146.6270 O   0  0  0  0  0  1  0  0  0  0  0  0
  191.4980  176.7780  145.5280 C   0  0  0  0  0  3  0  0  0  0  0  0
  189.6500  178.1980  143.0460 C   0  0  0  0  0  2  0  0  0  0  0  0
  188.2630  177.9810  142.4720 C   0  0  0  0  0  2  0  0  0  0  0  0
  187.5080  176.9660  143.3110 C   0  0  0  0  0  2  0  0  0  0  0  0
  187.3590  177.9000  146.9380 C   0  0  0  0  0  2  0  0  0  0  0  0
  184.8590  178.9330  146.4430 O   0  0  0  0  0  0  0  0  0  0  0  0
  186.9140  177.8140  145.6220 C   0  0  0  0  0  0  0  0  0  0  0  0
  186.1050  178.3990  146.6010 C   0  0  0  0  0  0  0  0  0  0  0  0
  182.7240  179.2110  143.3980 C   0  0  0  0  0  3  0  0  0  0  0  0
  184.4440  178.8070  145.0630 C   0  0  0  0  0  0  0  0  0  0  0  0
  184.7680  178.1060  142.7010 C   0  0  0  0  0  3  0  0  0  0  0  0
  185.2850  178.1770  144.0000 C   0  0  0  0  0  0  0  0  0  0  0  0
  183.5030  178.6160  142.4060 C   0  0  0  0  0  3  0  0  0  0  0  0
  186.6380  177.6410  144.2650 N   0  0  0  0  0  0  0  0  0  0  0  0
  183.1880  179.3050  144.7110 C   0  0  0  0  0  3  0  0  0  0  0  0
  1  2  2  0  0  0  0
  1 27  1  0  0  0  0
  3  4  1  6  0  0  0
  3  1  1  0  0  0  0
  6  3  1  0  0  0  0
  6  5  1  6  0  0  0
  7  8  1  0  0  0  0
  7 12  1  0  0  0  0
  9 11  1  0  0  0  0
 10  7  1  0  0  0  0
 10  9  1  0  0  0  0
 11  8  1  0  0  0  0
 11  6  1  1  0  0  0
 13 14  1  6  0  0  0
 13 12  1  0  0  0  0
 13 16  1  0  0  0  0
 15 14  2  0  0  0  0
 16 25  1  1  0  0  0
 17 20  1  0  0  0  0
 18 23  2  0  0  0  0
 20 16  1  6  0  0  0
 20 24  1  0  0  0  0
 21 24  1  0  0  0  0
 23 21  1  0  0  0  0
 23 19  2  0  0  0  0
 23 17  1  0  0  0  0
 24 22  1  1  0  0  0
 25 26  3  0  0  0  0
 27 28  1  0  0  0  0
 28 36  1  1  0  0  0
 28 29  1  0  0  0  0
 29 31  1  0  0  0  0
 30 29  2  0  0  0  0
 31 32  1  1  0  0  0
 31 35  1  0  0  0  0
 35 33  1  0  0  0  0
 35 34  1  0  0  0  0
 37 36  1  0  0  0  0
 37 38  1  0  0  0  0
 38 48  1  0  0  0  0
 40 42  1  0  0  0  0
 41 42  2  0  0  0  0
 41 39  1  0  0  0  0
 42 39  1  0  0  0  0
 43 49  1  0  0  0  0
 44 40  1  0  0  0  0
 45 46  2  0  0  0  0
 46 48  1  0  0  0  0
 46 44  1  0  0  0  0
 47 45  1  0  0  0  0
 47 43  2  0  0  0  0
 48 41  1  0  0  0  0
 49 44  2  0  0  0  0
M  END
>  <MODEL>
1

>  <REMARK>
 VINA RESULT:      -8.2      0.000      0.000
  Name = 
  18 active torsions:
  status: ('A' for Active; 'I' for Inactive)
    1  A    between atoms: C_1  and  C_17
    2  A    between atoms: C_1  and  C_37
    3  A    between atoms: C_6  and  C_41
    4  A    between atoms: N_7  and  C_42
    5  A    between atoms: C_9  and  C_41
    6  A    between atoms: C_10  and  C_13
    7  A    between atoms: C_10  and  O_39
    8  A    between atoms: C_13  and  C_22
    9  A    between atoms: C_17  and  C_38
   10  A    between atoms: C_22  and  C_47
   11  A    between atoms: C_26  and  C_43
   12  A    between atoms: C_26  and  C_44
   13  A    between atoms: N_31  and  C_44
   14  A    between atoms: C_33  and  C_34
   15  A    between atoms: C_33  and  C_41
   16  A    between atoms: C_33  and  C_42
   17  A    between atoms: C_38  and  O_39
   18  A    between atoms: C_38  and  C_43
                            x       y       z     vdW  Elec       q    Type
                         _______ _______ _______ _____ _____    ______ ____

>  <TORSDO>
F 18

$$$$
=
 OpenBabel11042410463D

 49 53  0  0  1  0  0  0  0  0999 V2000
  191.2100  176.8360  140.1340 C   0  0  0  0  0  0  0  0  0  0  0  0
  192.3640  177.3430  140.0810 O   0  0  0  0  0  0  0  0  0  0  0  0
  190.4700  176.5060  138.8770 C   0  0  2  0  0  3  0  0  0  0  0  0
  191.3140  176.6570  137.7720 O   0  0  0  0  0  1  0  0  0  0  0  0
  189.5810  178.7220  138.9140 F   0  0  0  0  0  0  0  0  0  0  0  0
  189.2370  177.3930  138.7240 C   0  0  1  0  0  3  0  0  0  0  0  0
  186.2970  177.1630  136.8060 N   0  0  0  0  0  0  0  0  0  0  0  0
  187.3330  176.3960  137.4650 C   0  0  0  0  0  2  0  0  0  0  0  0
  188.2550  178.4500  136.7950 O   0  0  0  0  0  0  0  0  0  0  0  0
  187.0220  178.2470  136.1600 C   0  0  0  0  0  2  0  0  0  0  0  0
  188.5950  177.2090  137.3500 C   0  0  1  0  0  3  0  0  0  0  0  0
  185.4770  177.7660  137.8480 C   0  0  0  0  0  2  0  0  0  0  0  0
  184.0830  177.1490  137.8490 C   0  0  2  0  0  3  0  0  0  0  0  0
  183.6610  176.7290  136.4710 C   0  0  0  0  0  3  0  0  0  0  0  0
  182.7000  177.2490  135.9290 O   0  0  0  0  0  0  0  0  0  0  0  0
  183.0680  178.0800  138.5310 C   0  0  1  0  0  3  0  0  0  0  0  0
  181.7350  176.1260  139.4640 C   0  0  0  0  0  2  0  0  0  0  0  0
  179.8460  176.3480  137.5400 O   0  0  0  0  0  0  0  0  0  0  0  0
  179.1000  175.6110  139.7820 O   0  0  0  0  0  0  0  0  0  0  0  0
  182.3720  177.4800  139.7750 C   0  0  2  0  0  3  0  0  0  0  0  0
  179.9750  178.1580  139.5370 C   0  0  0  0  0  2  0  0  0  0  0  0
  181.0610  178.1790  141.6590 O   0  0  0  0  0  1  0  0  0  0  0  0
  180.0640  176.4750  139.0210 S   0  0  0  0  0  0  0  0  0  0  0  0
  181.2670  178.4180  140.3000 C   0  0  1  0  0  3  0  0  0  0  0  0
  183.7300  179.3530  138.8520 C   0  0  0  0  0  0  0  0  0  0  0  0
  184.2540  180.3530  139.1030 N   0  0  0  0  0  0  0  0  0  0  0  0
  190.5770  176.6380  141.3620 O   0  0  0  0  0  0  0  0  0  0  0  0
  190.7710  177.5170  142.4620 C   0  0  2  0  0  3  0  0  0  0  0  0
  191.1880  176.7380  143.6680 C   0  0  0  0  0  0  0  0  0  0  0  0
  191.4820  175.5560  143.5670 O   0  0  0  0  0  0  0  0  0  0  0  0
  191.2420  177.4190  145.0010 C   0  0  2  0  0  3  0  0  0  0  0  0
  192.2980  178.3140  145.0170 F   0  0  0  0  0  0  0  0  0  0  0  0
  192.3230  175.4250  145.7550 O   0  0  0  0  0  1  0  0  0  0  0  0
  191.8400  177.0350  147.2850 O   0  0  0  0  0  1  0  0  0  0  0  0
  191.3970  176.4010  146.1230 C   0  0  0  0  0  3  0  0  0  0  0  0
  189.4850  178.2740  142.7450 C   0  0  0  0  0  2  0  0  0  0  0  0
  188.3120  177.5520  142.1120 C   0  0  0  0  0  2  0  0  0  0  0  0
  187.6110  176.6920  143.1490 C   0  0  0  0  0  2  0  0  0  0  0  0
  184.4040  178.5730  142.6770 C   0  0  0  0  0  2  0  0  0  0  0  0
  184.5810  179.2950  145.3250 O   0  0  0  0  0  0  0  0  0  0  0  0
  185.5010  178.0730  143.3730 C   0  0  0  0  0  0  0  0  0  0  0  0
  184.5700  178.8900  144.0220 C   0  0  0  0  0  0  0  0  0  0  0  0
  187.0250  178.5850  148.0490 C   0  0  0  0  0  3  0  0  0  0  0  0
  185.7440  178.7570  145.9950 C   0  0  0  0  0  0  0  0  0  0  0  0
  187.8490  177.4390  146.0770 C   0  0  0  0  0  3  0  0  0  0  0  0
  186.7600  177.8910  145.3230 C   0  0  0  0  0  0  0  0  0  0  0  0
  187.9790  177.7830  147.4230 C   0  0  0  0  0  3  0  0  0  0  0  0
  186.6500  177.4870  143.9030 N   0  0  0  0  0  0  0  0  0  0  0  0
  185.9210  179.0670  147.3450 C   0  0  0  0  0  3  0  0  0  0  0  0
  1 27  1  0  0  0  0
  2  1  2  0  0  0  0
  3  4  1  6  0  0  0
  3  1  1  0  0  0  0
  6  3  1  0  0  0  0
  6  5  1  6  0  0  0
  7  8  1  0  0  0  0
  7 12  1  0  0  0  0
  9 11  1  0  0  0  0
 10  9  1  0  0  0  0
 10  7  1  0  0  0  0
 11  8  1  0  0  0  0
 11  6  1  1  0  0  0
 12 13  1  0  0  0  0
 13 14  1  6  0  0  0
 13 16  1  0  0  0  0
 15 14  2  0  0  0  0
 16 25  1  1  0  0  0
 17 20  1  0  0  0  0
 18 23  2  0  0  0  0
 20 16  1  6  0  0  0
 20 24  1  0  0  0  0
 21 24  1  0  0  0  0
 23 17  1  0  0  0  0
 23 21  1  0  0  0  0
 23 19  2  0  0  0  0
 24 22  1  1  0  0  0
 25 26  3  0  0  0  0
 27 28  1  0  0  0  0
 28 36  1  1  0  0  0
 28 29  1  0  0  0  0
 29 31  1  0  0  0  0
 30 29  2  0  0  0  0
 31 32  1  6  0  0  0
 31 35  1  0  0  0  0
 33 35  1  0  0  0  0
 35 34  1  0  0  0  0
 37 36  1  0  0  0  0
 37 38  1  0  0  0  0
 38 48  1  0  0  0  0
 39 41  1  0  0  0  0
 39 42  1  0  0  0  0
 40 44  1  0  0  0  0
 41 48  1  0  0  0  0
 41 42  2  0  0  0  0
 42 40  1  0  0  0  0
 44 49  1  0  0  0  0
 45 47  2  0  0  0  0
 46 44  2  0  0  0  0
 46 45  1  0  0  0  0
 47 43  1  0  0  0  0
 48 46  1  0  0  0  0
 49 43  2  0  0  0  0
M  END
>  <MODEL>
2

>  <REMARK>
 VINA RESULT:      -7.9      1.065      2.118
  Name = 
  18 active torsions:
  status: ('A' for Active; 'I' for Inactive)
    1  A    between atoms: C_1  and  C_17
    2  A    between atoms: C_1  and  C_37
    3  A    between atoms: C_6  and  C_41
    4  A    between atoms: N_7  and  C_42
    5  A    between atoms: C_9  and  C_41
    6  A    between atoms: C_10  and  C_13
    7  A    between atoms: C_10  and  O_39
    8  A    between atoms: C_13  and  C_22
    9  A    between atoms: C_17  and  C_38
   10  A    between atoms: C_22  and  C_47
   11  A    between atoms: C_26  and  C_43
   12  A    between atoms: C_26  and  C_44
   13  A    between atoms: N_31  and  C_44
   14  A    between atoms: C_33  and  C_34
   15  A    between atoms: C_33  and  C_41
   16  A    between atoms: C_33  and  C_42
   17  A    between atoms: C_38  and  O_39
   18  A    between atoms: C_38  and  C_43
                            x       y       z     vdW  Elec       q    Type
                         _______ _______ _______ _____ _____    ______ ____

>  <TORSDO>
F 18

$$$$
=
 OpenBabel11042410463D

 49 53  0  0  1  0  0  0  0  0999 V2000
  184.9240  179.0040  140.9910 C   0  0  0  0  0  0  0  0  0  0  0  0
  186.1170  178.8070  140.6300 O   0  0  0  0  0  0  0  0  0  0  0  0
  184.4230  178.4470  142.2860 C   0  0  2  0  0  3  0  0  0  0  0  0
  183.0560  178.7050  142.4200 O   0  0  0  0  0  1  0  0  0  0  0  0
  184.9180  180.3970  143.5730 F   0  0  0  0  0  0  0  0  0  0  0  0
  185.1900  179.0430  143.4650 C   0  0  1  0  0  3  0  0  0  0  0  0
  186.2880  177.5890  146.4740 N   0  0  0  0  0  0  0  0  0  0  0  0
  185.8830  177.3080  145.1120 C   0  0  0  0  0  2  0  0  0  0  0  0
  184.7630  179.2460  145.8260 O   0  0  0  0  0  0  0  0  0  0  0  0
  185.3290  178.5840  146.9270 C   0  0  0  0  0  2  0  0  0  0  0  0
  184.8330  178.3300  144.7690 C   0  0  1  0  0  3  0  0  0  0  0  0
  187.5850  178.2490  146.4110 C   0  0  0  0  0  2  0  0  0  0  0  0
  188.6750  177.3310  146.9510 C   0  0  2  0  0  3  0  0  0  0  0  0
  189.2660  177.8620  148.2260 C   0  0  0  0  0  3  0  0  0  0  0  0
  188.5460  178.2460  149.1320 O   0  0  0  0  0  0  0  0  0  0  0  0
  189.7320  177.0360  145.8760 C   0  0  1  0  0  3  0  0  0  0  0  0
  189.1410  177.6750  143.4870 C   0  0  0  0  0  2  0  0  0  0  0  0
  190.2230  175.4030  142.4920 O   0  0  0  0  0  0  0  0  0  0  0  0
  190.3910  177.4440  141.1000 O   0  0  0  0  0  0  0  0  0  0  0  0
  189.8500  178.1100  144.7700 C   0  0  2  0  0  3  0  0  0  0  0  0
  191.8140  177.3850  143.3990 C   0  0  0  0  0  2  0  0  0  0  0  0
  191.4390  179.6840  143.9020 O   0  0  0  0  0  1  0  0  0  0  0  0
  190.3790  176.8980  142.4990 S   0  0  0  0  0  0  0  0  0  0  0  0
  191.3250  178.3970  144.4270 C   0  0  1  0  0  3  0  0  0  0  0  0
  191.0280  176.8030  146.5330 C   0  0  0  0  0  0  0  0  0  0  0  0
  192.0470  176.6230  147.0470 N   0  0  0  0  0  0  0  0  0  0  0  0
  184.0330  179.6840  140.1590 O   0  0  0  0  0  0  0  0  0  0  0  0
  183.4430  179.0690  139.0220 C   0  0  2  0  0  3  0  0  0  0  0  0
  182.0960  179.6650  138.7630 C   0  0  0  0  0  0  0  0  0  0  0  0
  181.9780  180.6130  138.0000 O   0  0  0  0  0  0  0  0  0  0  0  0
  180.8930  179.0890  139.4450 C   0  0  2  0  0  3  0  0  0  0  0  0
  179.8780  178.9160  138.5190 F   0  0  0  0  0  0  0  0  0  0  0  0
  179.8400  181.1480  140.0500 O   0  0  0  0  0  1  0  0  0  0  0  0
  179.4910  179.3290  141.3680 O   0  0  0  0  0  1  0  0  0  0  0  0
  180.4260  179.9970  140.5750 C   0  0  0  0  0  3  0  0  0  0  0  0
  183.3170  177.5730  139.2570 C   0  0  0  0  0  2  0  0  0  0  0  0
  183.4670  176.8310  137.9440 C   0  0  0  0  0  2  0  0  0  0  0  0
  184.6080  177.4280  137.1390 C   0  0  0  0  0  2  0  0  0  0  0  0
  185.3660  173.7670  136.8840 C   0  0  0  0  0  2  0  0  0  0  0  0
  188.0240  174.4250  137.1440 O   0  0  0  0  0  0  0  0  0  0  0  0
  185.6490  175.1250  137.0010 C   0  0  0  0  0  0  0  0  0  0  0  0
  186.6860  174.1870  137.0200 C   0  0  0  0  0  0  0  0  0  0  0  0
  189.8730  177.6380  137.5420 C   0  0  0  0  0  3  0  0  0  0  0  0
  188.2580  175.8460  137.2730 C   0  0  0  0  0  0  0  0  0  0  0  0
  187.5220  178.2160  137.4090 C   0  0  0  0  0  3  0  0  0  0  0  0
  187.1680  176.8690  137.2670 C   0  0  0  0  0  0  0  0  0  0  0  0
  188.8580  178.5940  137.5450 C   0  0  0  0  0  3  0  0  0  0  0  0
  185.7400  176.5130  137.1060 N   0  0  0  0  0  0  0  0  0  0  0  0
  189.5780  176.2810  137.4080 C   0  0  0  0  0  3  0  0  0  0  0  0
  1  3  1  0  0  0  0
  2  1  2  0  0  0  0
  3  4  1  1  0  0  0
  3  6  1  0  0  0  0
  6  5  1  1  0  0  0
  7 10  1  0  0  0  0
  8  7  1  0  0  0  0
  9 10  1  0  0  0  0
 11  6  1  6  0  0  0
 11  8  1  0  0  0  0
 11  9  1  0  0  0  0
 12  7  1  0  0  0  0
 13 12  1  6  0  0  0
 13 14  1  0  0  0  0
 14 15  2  0  0  0  0
 16 25  1  1  0  0  0
 16 13  1  0  0  0  0
 17 20  1  0  0  0  0
 18 23  2  0  0  0  0
 19 23  2  0  0  0  0
 20 16  1  1  0  0  0
 21 24  1  0  0  0  0
 23 21  1  0  0  0  0
 23 17  1  0  0  0  0
 24 22  1  6  0  0  0
 24 20  1  0  0  0  0
 25 26  3  0  0  0  0
 27  1  1  0  0  0  0
 28 36  1  1  0  0  0
 28 27  1  0  0  0  0
 29 28  1  0  0  0  0
 29 31  1  0  0  0  0
 30 29  2  0  0  0  0
 31 32  1  6  0  0  0
 31 35  1  0  0  0  0
 33 35  1  0  0  0  0
 35 34  1  0  0  0  0
 37 36  1  0  0  0  0
 38 37  1  0  0  0  0
 39 41  1  0  0  0  0
 39 42  1  0  0  0  0
 40 44  1  0  0  0  0
 41 42  2  0  0  0  0
 41 48  1  0  0  0  0
 42 40  1  0  0  0  0
 43 47  1  0  0  0  0
 44 49  1  0  0  0  0
 45 47  2  0  0  0  0
 46 44  2  0  0  0  0
 46 45  1  0  0  0  0
 48 38  1  0  0  0  0
 48 46  1  0  0  0  0
 49 43  2  0  0  0  0
M  END
>  <MODEL>
3

>  <REMARK>
 VINA RESULT:      -7.8      3.173     10.060
  Name = 
  18 active torsions:
  status: ('A' for Active; 'I' for Inactive)
    1  A    between atoms: C_1  and  C_17
    2  A    between atoms: C_1  and  C_37
    3  A    between atoms: C_6  and  C_41
    4  A    between atoms: N_7  and  C_42
    5  A    between atoms: C_9  and  C_41
    6  A    between atoms: C_10  and  C_13
    7  A    between atoms: C_10  and  O_39
    8  A    between atoms: C_13  and  C_22
    9  A    between atoms: C_17  and  C_38
   10  A    between atoms: C_22  and  C_47
   11  A    between atoms: C_26  and  C_43
   12  A    between atoms: C_26  and  C_44
   13  A    between atoms: N_31  and  C_44
   14  A    between atoms: C_33  and  C_34
   15  A    between atoms: C_33  and  C_41
   16  A    between atoms: C_33  and  C_42
   17  A    between atoms: C_38  and  O_39
   18  A    between atoms: C_38  and  C_43
                            x       y       z     vdW  Elec       q    Type
                         _______ _______ _______ _____ _____    ______ ____

>  <TORSDO>
F 18

$$$$
=
 OpenBabel11042410463D

 49 53  0  0  1  0  0  0  0  0999 V2000
  184.4010  178.7480  141.3750 C   0  0  0  0  0  0  0  0  0  0  0  0
  185.3960  179.4970  141.1720 O   0  0  0  0  0  0  0  0  0  0  0  0
  183.8630  178.5630  142.7590 C   0  0  2  0  0  3  0  0  0  0  0  0
  182.6150  179.1830  142.8720 O   0  0  0  0  0  1  0  0  0  0  0  0
  184.6300  180.4930  143.9370 F   0  0  0  0  0  0  0  0  0  0  0  0
  184.8290  179.1290  143.7970 C   0  0  1  0  0  3  0  0  0  0  0  0
  186.3330  177.6020  146.5860 N   0  0  0  0  0  0  0  0  0  0  0  0
  185.6890  177.3500  145.3140 C   0  0  0  0  0  2  0  0  0  0  0  0
  184.8180  179.3460  146.1950 O   0  0  0  0  0  0  0  0  0  0  0  0
  185.5210  178.6490  147.1880 C   0  0  0  0  0  2  0  0  0  0  0  0
  184.6560  178.4320  145.1460 C   0  0  1  0  0  3  0  0  0  0  0  0
  187.6360  178.1870  146.3030 C   0  0  0  0  0  2  0  0  0  0  0  0
  188.7460  177.3230  146.8890 C   0  0  2  0  0  3  0  0  0  0  0  0
  189.2900  177.9060  148.1610 C   0  0  0  0  0  3  0  0  0  0  0  0
  188.5480  178.1640  149.0940 O   0  0  0  0  0  0  0  0  0  0  0  0
  189.8350  177.0370  145.8440 C   0  0  1  0  0  3  0  0  0  0  0  0
  189.2220  177.7720  143.4890 C   0  0  0  0  0  2  0  0  0  0  0  0
  190.1170  175.4580  142.4110 O   0  0  0  0  0  0  0  0  0  0  0  0
  190.3860  177.5150  141.0620 O   0  0  0  0  0  0  0  0  0  0  0  0
  189.9950  178.1270  144.7590 C   0  0  2  0  0  3  0  0  0  0  0  0
  191.8650  177.3030  143.3160 C   0  0  0  0  0  2  0  0  0  0  0  0
  191.6630  179.6100  143.8810 O   0  0  0  0  0  1  0  0  0  0  0  0
  190.3760  176.9370  142.4480 S   0  0  0  0  0  0  0  0  0  0  0  0
  191.4760  178.3210  144.3800 C   0  0  1  0  0  3  0  0  0  0  0  0
  191.1070  176.7850  146.5390 C   0  0  0  0  0  0  0  0  0  0  0  0
  192.1070  176.5910  147.0860 N   0  0  0  0  0  0  0  0  0  0  0  0
  183.8300  178.0250  140.3260 O   0  0  0  0  0  0  0  0  0  0  0  0
  183.3180  178.6620  139.1630 C   0  0  2  0  0  3  0  0  0  0  0  0
  181.8230  178.6670  139.2010 C   0  0  0  0  0  0  0  0  0  0  0  0
  181.2200  177.8210  139.8460 O   0  0  0  0  0  0  0  0  0  0  0  0
  181.0720  179.7180  138.4440 C   0  0  2  0  0  3  0  0  0  0  0  0
  181.5930  179.8270  137.1670 F   0  0  0  0  0  0  0  0  0  0  0  0
  181.1120  182.0990  138.2310 O   0  0  0  0  0  1  0  0  0  0  0  0
  180.0730  181.1940  140.0400 O   0  0  0  0  0  1  0  0  0  0  0  0
  181.1490  181.0600  139.1610 C   0  0  0  0  0  3  0  0  0  0  0  0
  183.8070  177.9320  137.9240 C   0  0  0  0  0  2  0  0  0  0  0  0
  185.3100  178.0880  137.7940 C   0  0  0  0  0  2  0  0  0  0  0  0
  185.8520  177.0720  136.8040 C   0  0  0  0  0  2  0  0  0  0  0  0
  188.9840  179.0700  137.2970 C   0  0  0  0  0  2  0  0  0  0  0  0
  190.3590  176.6880  137.2850 O   0  0  0  0  0  0  0  0  0  0  0  0
  188.2120  177.9210  137.1500 C   0  0  0  0  0  0  0  0  0  0  0  0
  189.6000  177.8220  137.2800 C   0  0  0  0  0  0  0  0  0  0  0  0
  189.3530  173.1140  136.9380 C   0  0  0  0  0  3  0  0  0  0  0  0
  189.5090  175.5300  137.1180 C   0  0  0  0  0  0  0  0  0  0  0  0
  187.3100  174.4150  136.8020 C   0  0  0  0  0  3  0  0  0  0  0  0
  188.0240  175.6090  136.9660 C   0  0  0  0  0  0  0  0  0  0  0  0
  187.9680  173.1850  136.7880 C   0  0  0  0  0  3  0  0  0  0  0  0
  187.2850  176.8900  136.9940 N   0  0  0  0  0  0  0  0  0  0  0  0
  190.1150  174.2720  137.1000 C   0  0  0  0  0  3  0  0  0  0  0  0
  1  3  1  0  0  0  0
  2  1  2  0  0  0  0
  3  4  1  6  0  0  0
  3  6  1  0  0  0  0
  6  5  1  1  0  0  0
  7 10  1  0  0  0  0
  8  7  1  0  0  0  0
  9 10  1  0  0  0  0
 11  6  1  6  0  0  0
 11  8  1  0  0  0  0
 11  9  1  0  0  0  0
 12  7  1  0  0  0  0
 13 12  1  6  0  0  0
 13 14  1  0  0  0  0
 14 15  2  0  0  0  0
 16 25  1  1  0  0  0
 16 13  1  0  0  0  0
 17 20  1  0  0  0  0
 18 23  2  0  0  0  0
 19 23  2  0  0  0  0
 20 16  1  1  0  0  0
 21 24  1  0  0  0  0
 23 21  1  0  0  0  0
 23 17  1  0  0  0  0
 24 22  1  6  0  0  0
 24 20  1  0  0  0  0
 25 26  3  0  0  0  0
 27  1  1  0  0  0  0
 28 36  1  6  0  0  0
 28 29  1  0  0  0  0
 28 27  1  0  0  0  0
 29 30  2  0  0  0  0
 31 32  1  6  0  0  0
 31 35  1  0  0  0  0
 31 29  1  0  0  0  0
 33 35  1  0  0  0  0
 35 34  1  0  0  0  0
 37 36  1  0  0  0  0
 38 48  1  0  0  0  0
 38 37  1  0  0  0  0
 41 42  2  0  0  0  0
 41 39  1  0  0  0  0
 42 40  1  0  0  0  0
 42 39  1  0  0  0  0
 43 49  1  0  0  0  0
 44 40  1  0  0  0  0
 45 46  2  0  0  0  0
 46 48  1  0  0  0  0
 46 44  1  0  0  0  0
 47 45  1  0  0  0  0
 47 43  2  0  0  0  0
 48 41  1  0  0  0  0
 49 44  2  0  0  0  0
M  END
>  <MODEL>
4

>  <REMARK>
 VINA RESULT:      -7.7      3.193     10.234
  Name = 
  18 active torsions:
  status: ('A' for Active; 'I' for Inactive)
    1  A    between atoms: C_1  and  C_17
    2  A    between atoms: C_1  and  C_37
    3  A    between atoms: C_6  and  C_41
    4  A    between atoms: N_7  and  C_42
    5  A    between atoms: C_9  and  C_41
    6  A    between atoms: C_10  and  C_13
    7  A    between atoms: C_10  and  O_39
    8  A    between atoms: C_13  and  C_22
    9  A    between atoms: C_17  and  C_38
   10  A    between atoms: C_22  and  C_47
   11  A    between atoms: C_26  and  C_43
   12  A    between atoms: C_26  and  C_44
   13  A    between atoms: N_31  and  C_44
   14  A    between atoms: C_33  and  C_34
   15  A    between atoms: C_33  and  C_41
   16  A    between atoms: C_33  and  C_42
   17  A    between atoms: C_38  and  O_39
   18  A    between atoms: C_38  and  C_43
                            x       y       z     vdW  Elec       q    Type
                         _______ _______ _______ _____ _____    ______ ____

>  <TORSDO>
F 18

$$$$
=
 OpenBabel11042410463D

 49 53  0  0  1  0  0  0  0  0999 V2000
  186.9180  177.8630  138.0660 C   0  0  0  0  0  0  0  0  0  0  0  0
  186.6680  177.2070  137.0170 O   0  0  0  0  0  0  0  0  0  0  0  0
  188.2460  177.7290  138.7430 C   0  0  2  0  0  3  0  0  0  0  0  0
  188.6560  178.9710  139.2390 O   0  0  0  0  0  1  0  0  0  0  0  0
  189.8460  178.2040  137.0350 F   0  0  0  0  0  0  0  0  0  0  0  0
  189.2930  177.1750  137.7800 C   0  0  1  0  0  3  0  0  0  0  0  0
  192.3050  175.3630  137.6510 N   0  0  0  0  0  0  0  0  0  0  0  0
  190.8650  175.2430  137.7310 C   0  0  0  0  0  2  0  0  0  0  0  0
  191.4920  177.2610  138.7590 O   0  0  0  0  0  0  0  0  0  0  0  0
  192.6180  176.4460  138.5690 C   0  0  0  0  0  2  0  0  0  0  0  0
  190.3900  176.4240  138.5340 C   0  0  1  0  0  3  0  0  0  0  0  0
  192.6250  175.8380  136.3110 C   0  0  0  0  0  2  0  0  0  0  0  0
  194.1210  175.7150  136.0470 C   0  0  2  0  0  3  0  0  0  0  0  0
  194.6230  176.8280  135.1740 C   0  0  0  0  0  3  0  0  0  0  0  0
  195.0890  177.8420  135.6650 O   0  0  0  0  0  0  0  0  0  0  0  0
  194.4730  174.3200  135.5060 C   0  0  1  0  0  3  0  0  0  0  0  0
  195.8940  174.2130  137.6120 C   0  0  0  0  0  2  0  0  0  0  0  0
  197.7390  175.9070  136.5900 O   0  0  0  0  0  0  0  0  0  0  0  0
  198.5520  174.1230  138.1010 O   0  0  0  0  0  0  0  0  0  0  0  0
  195.2130  173.4040  136.5080 C   0  0  2  0  0  3  0  0  0  0  0  0
  197.5790  173.3680  135.6930 C   0  0  0  0  0  2  0  0  0  0  0  0
  196.5300  171.3990  136.5330 O   0  0  0  0  0  1  0  0  0  0  0  0
  197.5440  174.4900  137.0510 S   0  0  0  0  0  0  0  0  0  0  0  0
  196.2910  172.5610  135.8000 C   0  0  1  0  0  3  0  0  0  0  0  0
  193.2480  173.6810  135.0030 C   0  0  0  0  0  0  0  0  0  0  0  0
  192.2830  173.1810  134.6100 N   0  0  0  0  0  0  0  0  0  0  0  0
  185.9410  178.6690  138.6500 O   0  0  0  0  0  0  0  0  0  0  0  0
  185.1220  178.2100  139.7170 C   0  0  2  0  0  3  0  0  0  0  0  0
  183.7690  177.8400  139.1980 C   0  0  0  0  0  0  0  0  0  0  0  0
  183.4970  178.0010  138.0170 O   0  0  0  0  0  0  0  0  0  0  0  0
  182.7510  177.2710  140.1370 C   0  0  2  0  0  3  0  0  0  0  0  0
  182.6270  175.9110  139.9130 F   0  0  0  0  0  0  0  0  0  0  0  0
  180.5080  177.5140  140.9270 O   0  0  0  0  0  1  0  0  0  0  0  0
  181.5560  179.3420  140.0750 O   0  0  0  0  0  1  0  0  0  0  0  0
  181.4040  177.9600  139.9560 C   0  0  0  0  0  3  0  0  0  0  0  0
  184.9990  179.2950  140.7720 C   0  0  0  0  0  2  0  0  0  0  0  0
  186.1390  179.1790  141.7660 C   0  0  0  0  0  2  0  0  0  0  0  0
  186.0400  177.8620  142.5140 C   0  0  0  0  0  2  0  0  0  0  0  0
  183.2020  179.0400  144.6600 C   0  0  0  0  0  2  0  0  0  0  0  0
  184.8810  178.7600  146.8200 O   0  0  0  0  0  0  0  0  0  0  0  0
  184.4820  178.5710  144.3800 C   0  0  0  0  0  0  0  0  0  0  0  0
  184.1150  178.8690  145.6960 C   0  0  0  0  0  0  0  0  0  0  0  0
  188.4160  177.6490  147.2310 C   0  0  0  0  0  3  0  0  0  0  0  0
  186.1990  178.2800  146.4700 C   0  0  0  0  0  0  0  0  0  0  0  0
  187.9290  177.5150  144.8580 C   0  0  0  0  0  3  0  0  0  0  0  0
  186.6210  177.9640  145.0710 C   0  0  0  0  0  0  0  0  0  0  0  0
  188.8150  177.3600  145.9250 C   0  0  0  0  0  3  0  0  0  0  0  0
  185.7080  178.0960  143.9130 N   0  0  0  0  0  0  0  0  0  0  0  0
  187.1250  178.1040  147.5000 C   0  0  0  0  0  3  0  0  0  0  0  0
  1 27  1  0  0  0  0
  1  3  1  0  0  0  0
  2  1  2  0  0  0  0
  3  4  1  6  0  0  0
  6  5  1  1  0  0  0
  6  3  1  0  0  0  0
  7  8  1  0  0  0  0
  7 10  1  0  0  0  0
  8 11  1  0  0  0  0
 10  9  1  0  0  0  0
 11  6  1  6  0  0  0
 11  9  1  0  0  0  0
 12  7  1  0  0  0  0
 13 14  1  6  0  0  0
 13 12  1  0  0  0  0
 14 15  2  0  0  0  0
 16 25  1  1  0  0  0
 16 13  1  0  0  0  0
 18 23  2  0  0  0  0
 20 16  1  6  0  0  0
 20 17  1  0  0  0  0
 21 24  1  0  0  0  0
 21 23  1  0  0  0  0
 23 17  1  0  0  0  0
 23 19  2  0  0  0  0
 24 20  1  0  0  0  0
 24 22  1  1  0  0  0
 26 25  3  0  0  0  0
 27 28  1  0  0  0  0
 28 36  1  1  0  0  0
 29 28  1  0  0  0  0
 29 31  1  0  0  0  0
 30 29  2  0  0  0  0
 31 32  1  6  0  0  0
 35 34  1  0  0  0  0
 35 31  1  0  0  0  0
 35 33  1  0  0  0  0
 36 37  1  0  0  0  0
 37 38  1  0  0  0  0
 38 48  1  0  0  0  0
 39 42  1  0  0  0  0
 41 39  1  0  0  0  0
 41 42  2  0  0  0  0
 42 40  1  0  0  0  0
 43 49  1  0  0  0  0
 44 40  1  0  0  0  0
 44 49  2  0  0  0  0
 45 46  2  0  0  0  0
 45 47  1  0  0  0  0
 46 44  1  0  0  0  0
 47 43  2  0  0  0  0
 48 41  1  0  0  0  0
 48 46  1  0  0  0  0
M  END
>  <MODEL>
5

>  <REMARK>
 VINA RESULT:      -7.6      4.593      9.459
  Name = 
  18 active torsions:
  status: ('A' for Active; 'I' for Inactive)
    1  A    between atoms: C_1  and  C_17
    2  A    between atoms: C_1  and  C_37
    3  A    between atoms: C_6  and  C_41
    4  A    between atoms: N_7  and  C_42
    5  A    between atoms: C_9  and  C_41
    6  A    between atoms: C_10  and  C_13
    7  A    between atoms: C_10  and  O_39
    8  A    between atoms: C_13  and  C_22
    9  A    between atoms: C_17  and  C_38
   10  A    between atoms: C_22  and  C_47
   11  A    between atoms: C_26  and  C_43
   12  A    between atoms: C_26  and  C_44
   13  A    between atoms: N_31  and  C_44
   14  A    between atoms: C_33  and  C_34
   15  A    between atoms: C_33  and  C_41
   16  A    between atoms: C_33  and  C_42
   17  A    between atoms: C_38  and  O_39
   18  A    between atoms: C_38  and  C_43
                            x       y       z     vdW  Elec       q    Type
                         _______ _______ _______ _____ _____    ______ ____

>  <TORSDO>
F 18

$$$$
=
 OpenBabel11042410463D

 49 53  0  0  1  0  0  0  0  0999 V2000
  184.5520  178.8440  141.4140 C   0  0  0  0  0  0  0  0  0  0  0  0
  185.4900  179.6740  141.2590 O   0  0  0  0  0  0  0  0  0  0  0  0
  184.0170  178.5540  142.7810 C   0  0  2  0  0  3  0  0  0  0  0  0
  182.7230  179.0680  142.9060 O   0  0  0  0  0  1  0  0  0  0  0  0
  184.7010  180.5070  143.9720 F   0  0  0  0  0  0  0  0  0  0  0  0
  184.9250  179.1450  143.8560 C   0  0  1  0  0  3  0  0  0  0  0  0
  186.3170  177.6190  146.7030 N   0  0  0  0  0  0  0  0  0  0  0  0
  185.7120  177.3660  145.4130 C   0  0  0  0  0  2  0  0  0  0  0  0
  184.8390  179.3790  146.2520 O   0  0  0  0  0  0  0  0  0  0  0  0
  185.5000  178.6800  147.2720 C   0  0  0  0  0  2  0  0  0  0  0  0
  184.6990  178.4600  145.2040 C   0  0  1  0  0  3  0  0  0  0  0  0
  187.6370  178.1850  146.4590 C   0  0  0  0  0  2  0  0  0  0  0  0
  188.7220  177.2390  146.9580 C   0  0  2  0  0  3  0  0  0  0  0  0
  189.3350  177.7250  148.2400 C   0  0  0  0  0  3  0  0  0  0  0  0
  188.6650  178.3290  149.0600 O   0  0  0  0  0  0  0  0  0  0  0  0
  189.7610  176.9620  145.8610 C   0  0  1  0  0  3  0  0  0  0  0  0
  189.0960  177.5980  143.4910 C   0  0  0  0  0  2  0  0  0  0  0  0
  190.1670  175.3360  142.4620 O   0  0  0  0  0  0  0  0  0  0  0  0
  190.2790  177.3790  141.0690 O   0  0  0  0  0  0  0  0  0  0  0  0
  189.8380  178.0370  144.7530 C   0  0  2  0  0  3  0  0  0  0  0  0
  191.7670  177.3290  143.3260 C   0  0  0  0  0  2  0  0  0  0  0  0
  191.3890  179.6250  143.8430 O   0  0  0  0  0  1  0  0  0  0  0  0
  190.3120  176.8320  142.4670 S   0  0  0  0  0  0  0  0  0  0  0  0
  191.3000  178.3370  144.3690 C   0  0  1  0  0  3  0  0  0  0  0  0
  191.0730  176.7490  146.4910 C   0  0  0  0  0  0  0  0  0  0  0  0
  192.1040  176.5840  146.9890 N   0  0  0  0  0  0  0  0  0  0  0  0
  184.0450  178.1340  140.3260 O   0  0  0  0  0  0  0  0  0  0  0  0
  183.2900  178.7630  139.2990 C   0  0  2  0  0  3  0  0  0  0  0  0
  181.8290  178.5730  139.5510 C   0  0  0  0  0  0  0  0  0  0  0  0
  181.0420  179.4830  139.3320 O   0  0  0  0  0  0  0  0  0  0  0  0
  181.3370  177.2590  140.0740 C   0  0  2  0  0  3  0  0  0  0  0  0
  181.3770  176.3170  139.0600 F   0  0  0  0  0  0  0  0  0  0  0  0
  179.2750  176.1530  140.5650 O   0  0  0  0  0  1  0  0  0  0  0  0
  179.9550  177.8310  141.9400 O   0  0  0  0  0  1  0  0  0  0  0  0
  179.9200  177.3890  140.6170 C   0  0  0  0  0  3  0  0  0  0  0  0
  183.6690  178.1740  137.9510 C   0  0  0  0  0  2  0  0  0  0  0  0
  185.1710  177.9760  137.8790 C   0  0  0  0  0  2  0  0  0  0  0  0
  185.5240  177.1330  136.6660 C   0  0  0  0  0  2  0  0  0  0  0  0
  189.0540  178.3850  136.8050 C   0  0  0  0  0  2  0  0  0  0  0  0
  189.8540  175.7550  136.8640 O   0  0  0  0  0  0  0  0  0  0  0  0
  188.0340  177.4370  136.7910 C   0  0  0  0  0  0  0  0  0  0  0  0
  189.3720  177.0310  136.8330 C   0  0  0  0  0  0  0  0  0  0  0  0
  188.0480  172.4930  136.8360 C   0  0  0  0  0  3  0  0  0  0  0  0
  188.7560  174.8150  136.8370 C   0  0  0  0  0  0  0  0  0  0  0  0
  186.3450  174.2170  136.7500 C   0  0  0  0  0  3  0  0  0  0  0  0
  187.3190  175.2230  136.7820 C   0  0  0  0  0  0  0  0  0  0  0  0
  186.7070  172.8700  136.7760 C   0  0  0  0  0  3  0  0  0  0  0  0
  186.8910  176.6390  136.7710 N   0  0  0  0  0  0  0  0  0  0  0  0
  189.0610  173.4530  136.8660 C   0  0  0  0  0  3  0  0  0  0  0  0
  1  3  1  0  0  0  0
  2  1  2  0  0  0  0
  3  4  1  6  0  0  0
  3  6  1  0  0  0  0
  6  5  1  1  0  0  0
  7 10  1  0  0  0  0
  8  7  1  0  0  0  0
  9 10  1  0  0  0  0
 11  6  1  6  0  0  0
 11  8  1  0  0  0  0
 11  9  1  0  0  0  0
 12  7  1  0  0  0  0
 13 12  1  6  0  0  0
 13 14  1  0  0  0  0
 14 15  2  0  0  0  0
 16 25  1  1  0  0  0
 16 13  1  0  0  0  0
 17 20  1  0  0  0  0
 18 23  2  0  0  0  0
 19 23  2  0  0  0  0
 20 16  1  1  0  0  0
 21 24  1  0  0  0  0
 23 21  1  0  0  0  0
 23 17  1  0  0  0  0
 24 22  1  6  0  0  0
 24 20  1  0  0  0  0
 25 26  3  0  0  0  0
 27  1  1  0  0  0  0
 28 36  1  6  0  0  0
 28 29  1  0  0  0  0
 28 27  1  0  0  0  0
 29 31  1  0  0  0  0
 30 29  2  0  0  0  0
 31 32  1  6  0  0  0
 31 35  1  0  0  0  0
 33 35  1  0  0  0  0
 35 34  1  0  0  0  0
 37 36  1  0  0  0  0
 38 48  1  0  0  0  0
 38 37  1  0  0  0  0
 39 42  1  0  0  0  0
 41 39  1  0  0  0  0
 41 42  2  0  0  0  0
 42 40  1  0  0  0  0
 43 49  1  0  0  0  0
 44 40  1  0  0  0  0
 44 49  2  0  0  0  0
 45 47  1  0  0  0  0
 45 46  2  0  0  0  0
 46 44  1  0  0  0  0
 47 43  2  0  0  0  0
 48 46  1  0  0  0  0
 48 41  1  0  0  0  0
M  END
>  <MODEL>
6

>  <REMARK>
 VINA RESULT:      -7.5      3.080     10.112
  Name = 
  18 active torsions:
  status: ('A' for Active; 'I' for Inactive)
    1  A    between atoms: C_1  and  C_17
    2  A    between atoms: C_1  and  C_37
    3  A    between atoms: C_6  and  C_41
    4  A    between atoms: N_7  and  C_42
    5  A    between atoms: C_9  and  C_41
    6  A    between atoms: C_10  and  C_13
    7  A    between atoms: C_10  and  O_39
    8  A    between atoms: C_13  and  C_22
    9  A    between atoms: C_17  and  C_38
   10  A    between atoms: C_22  and  C_47
   11  A    between atoms: C_26  and  C_43
   12  A    between atoms: C_26  and  C_44
   13  A    between atoms: N_31  and  C_44
   14  A    between atoms: C_33  and  C_34
   15  A    between atoms: C_33  and  C_41
   16  A    between atoms: C_33  and  C_42
   17  A    between atoms: C_38  and  O_39
   18  A    between atoms: C_38  and  C_43
                            x       y       z     vdW  Elec       q    Type
                         _______ _______ _______ _____ _____    ______ ____

>  <TORSDO>
F 18

$$$$
=
 OpenBabel11042410463D

 49 53  0  0  1  0  0  0  0  0999 V2000
  185.7510  178.9670  141.3460 C   0  0  0  0  0  0  0  0  0  0  0  0
  186.2250  180.1280  141.4790 O   0  0  0  0  0  0  0  0  0  0  0  0
  185.0500  178.3020  142.4890 C   0  0  2  0  0  3  0  0  0  0  0  0
  183.7820  177.8720  142.0860 O   0  0  0  0  0  1  0  0  0  0  0  0
  183.9080  180.1600  143.4610 F   0  0  0  0  0  0  0  0  0  0  0  0
  184.9310  179.2500  143.6790 C   0  0  1  0  0  3  0  0  0  0  0  0
  186.2690  177.6190  146.4930 N   0  0  0  0  0  0  0  0  0  0  0  0
  185.7310  177.4180  145.1640 C   0  0  0  0  0  2  0  0  0  0  0  0
  184.7340  179.3390  146.0780 O   0  0  0  0  0  0  0  0  0  0  0  0
  185.3830  178.6090  147.0840 C   0  0  0  0  0  2  0  0  0  0  0  0
  184.6800  178.4780  144.9740 C   0  0  1  0  0  3  0  0  0  0  0  0
  187.5710  178.2540  146.3400 C   0  0  0  0  0  2  0  0  0  0  0  0
  188.6650  177.3740  146.9340 C   0  0  2  0  0  3  0  0  0  0  0  0
  189.2070  177.9490  148.2110 C   0  0  0  0  0  3  0  0  0  0  0  0
  188.4570  178.2550  149.1230 O   0  0  0  0  0  0  0  0  0  0  0  0
  189.7590  177.0750  145.8980 C   0  0  1  0  0  3  0  0  0  0  0  0
  189.1760  177.8020  143.5320 C   0  0  0  0  0  2  0  0  0  0  0  0
  190.0740  175.4790  142.4750 O   0  0  0  0  0  0  0  0  0  0  0  0
  190.3670  177.5300  141.1190 O   0  0  0  0  0  0  0  0  0  0  0  0
  189.9350  178.1600  144.8100 C   0  0  2  0  0  3  0  0  0  0  0  0
  191.8190  177.3230  143.3910 C   0  0  0  0  0  2  0  0  0  0  0  0
  191.6190  179.6320  143.9440 O   0  0  0  0  0  1  0  0  0  0  0  0
  190.3380  176.9580  142.5080 S   0  0  0  0  0  0  0  0  0  0  0  0
  191.4210  178.3470  144.4460 C   0  0  1  0  0  3  0  0  0  0  0  0
  191.0240  176.8150  146.6010 C   0  0  0  0  0  0  0  0  0  0  0  0
  192.0180  176.6060  147.1530 N   0  0  0  0  0  0  0  0  0  0  0  0
  185.9310  178.2570  140.1590 O   0  0  0  0  0  0  0  0  0  0  0  0
  185.0350  178.3820  139.0620 C   0  0  2  0  0  3  0  0  0  0  0  0
  185.7750  178.1900  137.7770 C   0  0  0  0  0  0  0  0  0  0  0  0
  186.7160  178.9170  137.4920 O   0  0  0  0  0  0  0  0  0  0  0  0
  185.3540  177.0980  136.8420 C   0  0  2  0  0  3  0  0  0  0  0  0
  184.1810  176.5250  137.3020 F   0  0  0  0  0  0  0  0  0  0  0  0
  185.9850  174.8240  137.2200 O   0  0  0  0  0  1  0  0  0  0  0  0
  186.8010  175.8780  135.3790 O   0  0  0  0  0  1  0  0  0  0  0  0
  186.4440  176.0410  136.7190 C   0  0  0  0  0  3  0  0  0  0  0  0
  184.3820  179.7540  139.0890 C   0  0  0  0  0  2  0  0  0  0  0  0
  182.9630  179.6380  139.6110 C   0  0  0  0  0  2  0  0  0  0  0  0
  182.2190  178.5550  138.8510 C   0  0  0  0  0  2  0  0  0  0  0  0
  180.2050  179.2500  141.9350 C   0  0  0  0  0  2  0  0  0  0  0  0
  179.1770  176.7110  141.6870 O   0  0  0  0  0  0  0  0  0  0  0  0
  180.6560  178.5140  140.8430 C   0  0  0  0  0  0  0  0  0  0  0  0
  179.7350  177.9560  141.7350 C   0  0  0  0  0  0  0  0  0  0  0  0
  179.6790  173.9360  139.2480 C   0  0  0  0  0  3  0  0  0  0  0  0
  179.6880  175.9900  140.5430 C   0  0  0  0  0  0  0  0  0  0  0  0
  181.1060  175.7560  138.5160 C   0  0  0  0  0  3  0  0  0  0  0  0
  180.6800  176.5590  139.5810 C   0  0  0  0  0  0  0  0  0  0  0  0
  180.6110  174.4620  138.3530 C   0  0  0  0  0  3  0  0  0  0  0  0
  181.2150  177.9330  139.7050 N   0  0  0  0  0  0  0  0  0  0  0  0
  179.2230  174.6900  140.3300 C   0  0  0  0  0  3  0  0  0  0  0  0
  1  2  2  0  0  0  0
  1  3  1  0  0  0  0
  3  4  1  6  0  0  0
  3  6  1  0  0  0  0
  6  5  1  6  0  0  0
  7 10  1  0  0  0  0
  8  7  1  0  0  0  0
  9 10  1  0  0  0  0
 11  6  1  6  0  0  0
 11  8  1  0  0  0  0
 11  9  1  0  0  0  0
 12  7  1  0  0  0  0
 13 12  1  6  0  0  0
 13 14  1  0  0  0  0
 14 15  2  0  0  0  0
 16 25  1  1  0  0  0
 16 13  1  0  0  0  0
 17 20  1  0  0  0  0
 18 23  2  0  0  0  0
 19 23  2  0  0  0  0
 20 16  1  1  0  0  0
 21 24  1  0  0  0  0
 23 21  1  0  0  0  0
 23 17  1  0  0  0  0
 24 22  1  6  0  0  0
 24 20  1  0  0  0  0
 25 26  3  0  0  0  0
 27  1  1  0  0  0  0
 28 36  1  6  0  0  0
 28 27  1  0  0  0  0
 29 28  1  0  0  0  0
 30 29  2  0  0  0  0
 31 32  1  1  0  0  0
 31 29  1  0  0  0  0
 34 35  1  0  0  0  0
 35 31  1  0  0  0  0
 35 33  1  0  0  0  0
 36 37  1  0  0  0  0
 38 37  1  0  0  0  0
 38 48  1  0  0  0  0
 40 42  1  0  0  0  0
 41 42  2  0  0  0  0
 41 39  1  0  0  0  0
 42 39  1  0  0  0  0
 43 49  1  0  0  0  0
 44 40  1  0  0  0  0
 45 46  2  0  0  0  0
 46 48  1  0  0  0  0
 46 44  1  0  0  0  0
 47 45  1  0  0  0  0
 47 43  2  0  0  0  0
 48 41  1  0  0  0  0
 49 44  2  0  0  0  0
M  END
>  <MODEL>
7

>  <REMARK>
 VINA RESULT:      -7.2      3.249      9.244
  Name = 
  18 active torsions:
  status: ('A' for Active; 'I' for Inactive)
    1  A    between atoms: C_1  and  C_17
    2  A    between atoms: C_1  and  C_37
    3  A    between atoms: C_6  and  C_41
    4  A    between atoms: N_7  and  C_42
    5  A    between atoms: C_9  and  C_41
    6  A    between atoms: C_10  and  C_13
    7  A    between atoms: C_10  and  O_39
    8  A    between atoms: C_13  and  C_22
    9  A    between atoms: C_17  and  C_38
   10  A    between atoms: C_22  and  C_47
   11  A    between atoms: C_26  and  C_43
   12  A    between atoms: C_26  and  C_44
   13  A    between atoms: N_31  and  C_44
   14  A    between atoms: C_33  and  C_34
   15  A    between atoms: C_33  and  C_41
   16  A    between atoms: C_33  and  C_42
   17  A    between atoms: C_38  and  O_39
   18  A    between atoms: C_38  and  C_43
                            x       y       z     vdW  Elec       q    Type
                         _______ _______ _______ _____ _____    ______ ____

>  <TORSDO>
F 18

$$$$
=
 OpenBabel11042410463D

 49 53  0  0  1  0  0  0  0  0999 V2000
  191.6030  177.2290  140.3590 C   0  0  0  0  0  0  0  0  0  0  0  0
  192.5300  178.0770  140.4690 O   0  0  0  0  0  0  0  0  0  0  0  0
  191.3930  176.5000  139.0690 C   0  0  2  0  0  3  0  0  0  0  0  0
  192.4470  176.7710  138.1900 O   0  0  0  0  0  1  0  0  0  0  0  0
  190.0000  178.2710  138.2760 F   0  0  0  0  0  0  0  0  0  0  0  0
  190.0630  176.8950  138.4330 C   0  0  1  0  0  3  0  0  0  0  0  0
  187.8790  175.3570  136.1440 N   0  0  0  0  0  0  0  0  0  0  0  0
  188.8450  175.1100  137.1930 C   0  0  0  0  0  2  0  0  0  0  0  0
  189.4220  177.1200  136.1220 O   0  0  0  0  0  0  0  0  0  0  0  0
  188.4840  176.4150  135.3520 C   0  0  0  0  0  2  0  0  0  0  0  0
  189.8730  176.2050  137.0830 C   0  0  1  0  0  3  0  0  0  0  0  0
  186.6940  175.9240  136.7730 C   0  0  0  0  0  2  0  0  0  0  0  0
  185.5600  174.9050  136.7870 C   0  0  2  0  0  3  0  0  0  0  0  0
  185.8370  173.7550  135.8620 C   0  0  0  0  0  3  0  0  0  0  0  0
  185.7500  172.6040  136.2560 O   0  0  0  0  0  0  0  0  0  0  0  0
  184.2070  175.5800  136.5190 C   0  0  1  0  0  3  0  0  0  0  0  0
  182.8560  175.1490  138.6290 C   0  0  0  0  0  2  0  0  0  0  0  0
  180.9090  173.8640  137.2570 O   0  0  0  0  0  0  0  0  0  0  0  0
  180.2200  175.1890  139.2320 O   0  0  0  0  0  0  0  0  0  0  0  0
  183.5370  176.2080  137.7630 C   0  0  2  0  0  3  0  0  0  0  0  0
  181.1520  176.5460  137.0870 C   0  0  0  0  0  2  0  0  0  0  0  0
  182.3100  178.1710  138.3920 O   0  0  0  0  0  1  0  0  0  0  0  0
  181.1800  175.0920  138.0810 S   0  0  0  0  0  0  0  0  0  0  0  0
  182.4760  177.2490  137.3580 C   0  0  1  0  0  3  0  0  0  0  0  0
  184.3730  176.5710  135.4450 C   0  0  0  0  0  0  0  0  0  0  0  0
  184.5010  177.3520  134.6020 N   0  0  0  0  0  0  0  0  0  0  0  0
  190.7150  177.0050  141.4120 O   0  0  0  0  0  0  0  0  0  0  0  0
  191.0770  177.2380  142.7660 C   0  0  2  0  0  3  0  0  0  0  0  0
  191.1420  175.9400  143.5060 C   0  0  0  0  0  0  0  0  0  0  0  0
  190.4530  174.9940  143.1520 O   0  0  0  0  0  0  0  0  0  0  0  0
  192.0580  175.8090  144.6840 C   0  0  2  0  0  3  0  0  0  0  0  0
  192.4700  174.4930  144.8020 F   0  0  0  0  0  0  0  0  0  0  0  0
  191.7820  175.4740  147.0340 O   0  0  0  0  0  1  0  0  0  0  0  0
  191.6740  177.5960  146.2260 O   0  0  0  0  0  1  0  0  0  0  0  0
  191.3640  176.2610  145.9620 C   0  0  0  0  0  3  0  0  0  0  0  0
  190.0610  178.1610  143.4160 C   0  0  0  0  0  2  0  0  0  0  0  0
  188.7350  178.0630  142.6870 C   0  0  0  0  0  2  0  0  0  0  0  0
  187.8610  177.0080  143.3420 C   0  0  0  0  0  2  0  0  0  0  0  0
  187.8560  177.6840  147.0290 C   0  0  0  0  0  2  0  0  0  0  0  0
  185.3330  178.7300  146.7090 O   0  0  0  0  0  0  0  0  0  0  0  0
  187.3580  177.6870  145.7290 C   0  0  0  0  0  0  0  0  0  0  0  0
  186.5870  178.1960  146.7780 C   0  0  0  0  0  0  0  0  0  0  0  0
  183.0730  179.2030  143.7810 C   0  0  0  0  0  3  0  0  0  0  0  0
  184.8630  178.6980  145.3420 C   0  0  0  0  0  0  0  0  0  0  0  0
  185.0920  178.1660  142.9250 C   0  0  0  0  0  3  0  0  0  0  0  0
  185.6620  178.1500  144.2040 C   0  0  0  0  0  0  0  0  0  0  0  0
  183.8140  178.6860  142.7180 C   0  0  0  0  0  3  0  0  0  0  0  0
  187.0280  177.6080  144.3760 N   0  0  0  0  0  0  0  0  0  0  0  0
  183.5900  179.2090  145.0770 C   0  0  0  0  0  3  0  0  0  0  0  0
  1  2  2  0  0  0  0
  1 27  1  0  0  0  0
  3  4  1  6  0  0  0
  3  1  1  0  0  0  0
  6  5  1  6  0  0  0
  6  3  1  0  0  0  0
  7 12  1  0  0  0  0
  7  8  1  0  0  0  0
  9 11  1  0  0  0  0
 10  9  1  0  0  0  0
 10  7  1  0  0  0  0
 11  8  1  0  0  0  0
 11  6  1  1  0  0  0
 12 13  1  0  0  0  0
 13 14  1  6  0  0  0
 14 15  2  0  0  0  0
 16 25  1  6  0  0  0
 16 13  1  0  0  0  0
 18 23  2  0  0  0  0
 20 16  1  6  0  0  0
 20 17  1  0  0  0  0
 21 24  1  0  0  0  0
 21 23  1  0  0  0  0
 23 17  1  0  0  0  0
 23 19  2  0  0  0  0
 24 20  1  0  0  0  0
 24 22  1  1  0  0  0
 26 25  3  0  0  0  0
 27 28  1  0  0  0  0
 28 36  1  1  0  0  0
 28 29  1  0  0  0  0
 29 31  1  0  0  0  0
 30 29  2  0  0  0  0
 31 32  1  1  0  0  0
 31 35  1  0  0  0  0
 35 34  1  0  0  0  0
 35 33  1  0  0  0  0
 37 38  1  0  0  0  0
 37 36  1  0  0  0  0
 38 48  1  0  0  0  0
 40 42  1  0  0  0  0
 41 42  2  0  0  0  0
 41 39  1  0  0  0  0
 42 39  1  0  0  0  0
 43 49  1  0  0  0  0
 44 40  1  0  0  0  0
 45 46  2  0  0  0  0
 46 48  1  0  0  0  0
 46 44  1  0  0  0  0
 47 45  1  0  0  0  0
 47 43  2  0  0  0  0
 48 41  1  0  0  0  0
 49 44  2  0  0  0  0
M  END
>  <MODEL>
8

>  <REMARK>
 VINA RESULT:      -7.0      1.556      2.062
  Name = 
  18 active torsions:
  status: ('A' for Active; 'I' for Inactive)
    1  A    between atoms: C_1  and  C_17
    2  A    between atoms: C_1  and  C_37
    3  A    between atoms: C_6  and  C_41
    4  A    between atoms: N_7  and  C_42
    5  A    between atoms: C_9  and  C_41
    6  A    between atoms: C_10  and  C_13
    7  A    between atoms: C_10  and  O_39
    8  A    between atoms: C_13  and  C_22
    9  A    between atoms: C_17  and  C_38
   10  A    between atoms: C_22  and  C_47
   11  A    between atoms: C_26  and  C_43
   12  A    between atoms: C_26  and  C_44
   13  A    between atoms: N_31  and  C_44
   14  A    between atoms: C_33  and  C_34
   15  A    between atoms: C_33  and  C_41
   16  A    between atoms: C_33  and  C_42
   17  A    between atoms: C_38  and  O_39
   18  A    between atoms: C_38  and  C_43
                            x       y       z     vdW  Elec       q    Type
                         _______ _______ _______ _____ _____    ______ ____

>  <TORSDO>
F 18

$$$$
=
 OpenBabel11042410463D

 49 53  0  0  1  0  0  0  0  0999 V2000
  189.6870  176.7630  139.2780 C   0  0  0  0  0  0  0  0  0  0  0  0
  190.5490  175.8500  139.1660 O   0  0  0  0  0  0  0  0  0  0  0  0
  189.2820  177.5720  138.0860 C   0  0  2  0  0  3  0  0  0  0  0  0
  189.3350  178.9350  138.3930 O   0  0  0  0  0  1  0  0  0  0  0  0
  187.4420  176.0640  138.3040 F   0  0  0  0  0  0  0  0  0  0  0  0
  187.8770  177.1900  137.6240 C   0  0  1  0  0  3  0  0  0  0  0  0
  184.5370  178.2640  137.8820 N   0  0  0  0  0  0  0  0  0  0  0  0
  185.6690  178.1520  136.9870 C   0  0  0  0  0  2  0  0  0  0  0  0
  186.4860  178.3980  139.1760 O   0  0  0  0  0  0  0  0  0  0  0  0
  185.1220  178.7240  139.1320 C   0  0  0  0  0  2  0  0  0  0  0  0
  186.8960  178.3430  137.8370 C   0  0  1  0  0  3  0  0  0  0  0  0
  184.0400  176.9150  138.1190 C   0  0  0  0  0  2  0  0  0  0  0  0
  182.7190  176.9620  138.8790 C   0  0  2  0  0  3  0  0  0  0  0  0
  182.2850  175.5950  139.3230 C   0  0  0  0  0  3  0  0  0  0  0  0
  181.4940  174.9470  138.6580 O   0  0  0  0  0  0  0  0  0  0  0  0
  181.6420  177.7020  138.0700 C   0  0  1  0  0  3  0  0  0  0  0  0
  181.7270  179.5320  139.8320 C   0  0  0  0  0  2  0  0  0  0  0  0
  179.7960  178.3510  141.3150 O   0  0  0  0  0  0  0  0  0  0  0  0
  179.8670  180.8260  141.3100 O   0  0  0  0  0  0  0  0  0  0  0  0
  181.5520  179.2200  138.3460 C   0  0  2  0  0  3  0  0  0  0  0  0
  179.1680  179.5960  139.0050 C   0  0  0  0  0  2  0  0  0  0  0  0
  180.3250  181.1480  137.6150 O   0  0  0  0  0  1  0  0  0  0  0  0
  180.0950  179.5800  140.5030 S   0  0  0  0  0  0  0  0  0  0  0  0
  180.1930  179.7880  137.8950 C   0  0  1  0  0  3  0  0  0  0  0  0
  181.8510  177.4310  136.6400 C   0  0  0  0  0  0  0  0  0  0  0  0
  182.0190  177.2160  135.5160 N   0  0  0  0  0  0  0  0  0  0  0  0
  189.1470  177.0830  140.5250 O   0  0  0  0  0  0  0  0  0  0  0  0
  189.8920  177.7840  141.5120 C   0  0  2  0  0  3  0  0  0  0  0  0
  190.3930  176.8280  142.5460 C   0  0  0  0  0  0  0  0  0  0  0  0
  190.2270  175.6240  142.4060 O   0  0  0  0  0  0  0  0  0  0  0  0
  191.1020  177.3560  143.7550 C   0  0  2  0  0  3  0  0  0  0  0  0
  192.3460  177.8390  143.3850 F   0  0  0  0  0  0  0  0  0  0  0  0
  192.0900  175.2610  144.3420 O   0  0  0  0  0  1  0  0  0  0  0  0
  191.7960  176.8110  145.9780 O   0  0  0  0  0  1  0  0  0  0  0  0
  191.2510  176.2700  144.8120 C   0  0  0  0  0  3  0  0  0  0  0  0
  189.0140  178.8420  142.1590 C   0  0  0  0  0  2  0  0  0  0  0  0
  187.5530  178.5000  141.9440 C   0  0  0  0  0  2  0  0  0  0  0  0
  187.1530  177.3480  142.8480 C   0  0  0  0  0  2  0  0  0  0  0  0
  183.7370  178.7160  143.5630 C   0  0  0  0  0  2  0  0  0  0  0  0
  184.5320  178.9960  146.1810 O   0  0  0  0  0  0  0  0  0  0  0  0
  185.0320  178.2960  143.8550 C   0  0  0  0  0  0  0  0  0  0  0  0
  184.2200  178.8220  144.8640 C   0  0  0  0  0  0  0  0  0  0  0  0
  187.6850  178.2520  148.0280 C   0  0  0  0  0  3  0  0  0  0  0  0
  185.8880  178.5540  146.4240 C   0  0  0  0  0  0  0  0  0  0  0  0
  188.0780  177.6140  145.7210 C   0  0  0  0  0  3  0  0  0  0  0  0
  186.7810  177.9980  145.3620 C   0  0  0  0  0  0  0  0  0  0  0  0
  188.5230  177.7400  147.0370 C   0  0  0  0  0  3  0  0  0  0  0  0
  186.3430  177.8290  143.9590 N   0  0  0  0  0  0  0  0  0  0  0  0
  186.3830  178.6550  147.7260 C   0  0  0  0  0  3  0  0  0  0  0  0
  1 27  1  0  0  0  0
  2  1  2  0  0  0  0
  3  4  1  1  0  0  0
  3  1  1  0  0  0  0
  6  3  1  0  0  0  0
  6  5  1  1  0  0  0
  7 12  1  0  0  0  0
  7 10  1  0  0  0  0
  8 11  1  0  0  0  0
  8  7  1  0  0  0  0
 10  9  1  0  0  0  0
 11  6  1  1  0  0  0
 11  9  1  0  0  0  0
 13 12  1  6  0  0  0
 13 14  1  0  0  0  0
 15 14  2  0  0  0  0
 16 25  1  6  0  0  0
 16 13  1  0  0  0  0
 17 23  1  0  0  0  0
 20 16  1  1  0  0  0
 20 17  1  0  0  0  0
 21 23  1  0  0  0  0
 23 19  2  0  0  0  0
 23 18  2  0  0  0  0
 24 22  1  1  0  0  0
 24 20  1  0  0  0  0
 24 21  1  0  0  0  0
 26 25  3  0  0  0  0
 27 28  1  0  0  0  0
 28 36  1  1  0  0  0
 28 29  1  0  0  0  0
 29 31  1  0  0  0  0
 30 29  2  0  0  0  0
 31 32  1  6  0  0  0
 31 35  1  0  0  0  0
 33 35  1  0  0  0  0
 35 34  1  0  0  0  0
 37 36  1  0  0  0  0
 37 38  1  0  0  0  0
 38 48  1  0  0  0  0
 39 41  1  0  0  0  0
 39 42  1  0  0  0  0
 40 44  1  0  0  0  0
 41 48  1  0  0  0  0
 41 42  2  0  0  0  0
 42 40  1  0  0  0  0
 44 49  2  0  0  0  0
 45 47  1  0  0  0  0
 46 45  2  0  0  0  0
 46 44  1  0  0  0  0
 47 43  2  0  0  0  0
 48 46  1  0  0  0  0
 49 43  1  0  0  0  0
M  END
>  <MODEL>
9

>  <REMARK>
 VINA RESULT:      -6.9      1.941      3.283
  Name = 
  18 active torsions:
  status: ('A' for Active; 'I' for Inactive)
    1  A    between atoms: C_1  and  C_17
    2  A    between atoms: C_1  and  C_37
    3  A    between atoms: C_6  and  C_41
    4  A    between atoms: N_7  and  C_42
    5  A    between atoms: C_9  and  C_41
    6  A    between atoms: C_10  and  C_13
    7  A    between atoms: C_10  and  O_39
    8  A    between atoms: C_13  and  C_22
    9  A    between atoms: C_17  and  C_38
   10  A    between atoms: C_22  and  C_47
   11  A    between atoms: C_26  and  C_43
   12  A    between atoms: C_26  and  C_44
   13  A    between atoms: N_31  and  C_44
   14  A    between atoms: C_33  and  C_34
   15  A    between atoms: C_33  and  C_41
   16  A    between atoms: C_33  and  C_42
   17  A    between atoms: C_38  and  O_39
   18  A    between atoms: C_38  and  C_43
                            x       y       z     vdW  Elec       q    Type
                         _______ _______ _______ _____ _____    ______ ____

>  <TORSDO>
F 18

$$$$
