=
 OpenBabel11032419163D

 30 32  0  0  1  0  0  0  0  0999 V2000
  188.5260  177.9180  142.5960 C   0  0  2  0  0  3  0  0  0  0  0  0
  185.4260  179.2120  147.0760 N   0  0  0  0  0  0  0  0  0  0  0  0
  184.8850  178.3010  143.6740 C   0  0  0  0  0  3  0  0  0  0  0  0
  184.6580  179.2130  145.9080 N   0  0  0  0  0  2  0  0  0  0  0  0
  187.4690  177.7350  144.8050 C   0  0  0  0  0  3  0  0  0  0  0  0
  187.3100  177.8800  143.4770 C   0  0  0  0  0  0  0  0  0  0  0  0
  185.9470  178.0700  142.8920 C   0  0  0  0  0  3  0  0  0  0  0  0
  186.3730  178.3350  146.9950 C   0  0  0  0  0  3  0  0  0  0  0  0
  185.1100  178.3000  145.1210 C   0  0  2  0  0  3  0  0  0  0  0  0
  186.2720  177.5850  145.7090 C   0  0  1  0  0  3  0  0  0  0  0  0
  188.1650  178.3910  141.2300 C   0  0  0  0  0  3  0  0  0  0  0  0
  188.3200  177.6150  140.2060 N   0  0  0  0  0  0  0  0  0  0  0  0
  188.0240  178.0110  138.8590 C   0  0  0  0  0  0  0  0  0  0  0  0
  189.1960  178.6430  137.8880 S   0  0  0  0  0  0  0  0  0  0  0  0
  183.9970  177.8150  137.4840 C   0  0  0  0  0  3  0  0  0  0  0  0
  184.3690  178.6410  138.5440 C   0  0  0  0  0  0  0  0  0  0  0  0
  183.3520  179.4930  139.2160 C   0  0  0  0  0  1  0  0  0  0  0  0
  186.2900  177.0700  137.3080 C   0  0  0  0  0  3  0  0  0  0  0  0
  185.6620  178.6680  138.9660 N   0  0  0  0  0  0  0  0  0  0  0  0
  186.6310  177.9070  138.3800 C   0  0  0  0  0  0  0  0  0  0  0  0
  184.9680  177.0280  136.8620 C   0  0  0  0  0  3  0  0  0  0  0  0
  190.3970  176.2680  142.9150 C   0  0  0  0  0  3  0  0  0  0  0  0
  189.1570  176.5630  142.5060 C   0  0  0  0  0  3  0  0  0  0  0  0
  191.9990  178.0210  142.7450 O   0  0  0  0  0  0  0  0  0  0  0  0
  191.3800  177.2130  143.4840 C   0  0  0  0  0  0  0  0  0  0  0  0
  191.6630  177.2040  144.8850 N   0  0  0  0  0  2  0  0  0  0  0  0
  191.0450  176.2590  145.8040 C   0  0  0  0  0  2  0  0  0  0  0  0
  189.7650  177.4120  147.7260 C   0  0  0  0  0  1  0  0  0  0  0  0
  191.0240  176.8320  147.1790 C   0  0  0  0  0  0  0  0  0  0  0  0
  192.0460  176.8570  147.8450 O   0  0  0  0  0  0  0  0  0  0  0  0
  1 11  1  6  0  0  0
  1  6  1  0  0  0  0
  4  2  1  0  0  0  0
  6  5  2  0  0  0  0
  7  6  1  0  0  0  0
  7  3  2  0  0  0  0
  8  2  2  0  0  0  0
  9  3  1  6  0  0  0
  9 10  1  0  0  0  0
  9  4  1  0  0  0  0
 10  5  1  6  0  0  0
 10  8  1  0  0  0  0
 12 11  2  0  0  0  0
 13 12  1  0  0  0  0
 14 13  2  0  0  0  0
 15 16  1  0  0  0  0
 16 19  2  0  0  0  0
 16 17  1  0  0  0  0
 18 20  2  0  0  0  0
 20 13  1  0  0  0  0
 20 19  1  0  0  0  0
 21 18  1  0  0  0  0
 21 15  2  0  0  0  0
 22 25  1  0  0  0  0
 23  1  1  0  0  0  0
 23 22  2  0  0  0  0
 24 25  2  0  0  0  0
 25 26  1  0  0  0  0
 26 27  1  0  0  0  0
 27 29  1  0  0  0  0
 29 28  1  0  0  0  0
 29 30  2  0  0  0  0
M  END
>  <MODEL>
1

>  <REMARK>
 VINA RESULT:      -8.7      0.000      0.000
  Name = 
  8 active torsions:
  status: ('A' for Active; 'I' for Inactive)
    1  A    between atoms: C_1  and  C_24
    2  A    between atoms: C_4  and  C_18
    3  A    between atoms: C_5  and  C_24
    4  A    between atoms: N_10  and  C_15
    5  A    between atoms: C_15  and  C_17
    6  A    between atoms: C_19  and  C_23
    7  A    between atoms: C_19  and  N_29
    8  A    between atoms: C_22  and  C_24
                            x       y       z     vdW  Elec       q    Type
                         _______ _______ _______ _____ _____    ______ ____

>  <TORSDO>
F 8

$$$$
=
 OpenBabel11032419163D

 30 32  0  0  1  0  0  0  0  0999 V2000
  188.3200  177.2670  143.3850 C   0  0  2  0  0  3  0  0  0  0  0  0
  189.2530  178.5510  148.7540 N   0  0  0  0  0  0  0  0  0  0  0  0
  186.4640  177.7630  146.6810 C   0  0  0  0  0  3  0  0  0  0  0  0
  187.8920  178.6170  148.4430 N   0  0  0  0  0  2  0  0  0  0  0  0
  189.0790  177.0610  145.7110 C   0  0  0  0  0  3  0  0  0  0  0  0
  188.0520  177.2520  144.8620 C   0  0  0  0  0  0  0  0  0  0  0  0
  186.6760  177.5130  145.3830 C   0  0  0  0  0  3  0  0  0  0  0  0
  189.8360  177.6390  148.0450 C   0  0  0  0  0  3  0  0  0  0  0  0
  187.6270  177.7110  147.5690 C   0  0  2  0  0  3  0  0  0  0  0  0
  188.8360  176.9320  147.1920 C   0  0  1  0  0  3  0  0  0  0  0  0
  187.0400  177.3560  142.6240 C   0  0  0  0  0  3  0  0  0  0  0  0
  186.5890  178.5050  142.2360 N   0  0  0  0  0  0  0  0  0  0  0  0
  185.3520  178.6710  141.5280 C   0  0  0  0  0  0  0  0  0  0  0  0
  185.3310  178.8140  139.8860 S   0  0  0  0  0  0  0  0  0  0  0  0
  181.7030  178.9090  143.7130 C   0  0  0  0  0  3  0  0  0  0  0  0
  181.7180  178.7290  142.3290 C   0  0  0  0  0  0  0  0  0  0  0  0
  180.4380  178.6010  141.5820 C   0  0  0  0  0  1  0  0  0  0  0  0
  184.1200  178.9580  143.6950 C   0  0  0  0  0  3  0  0  0  0  0  0
  182.9020  178.6720  141.6630 N   0  0  0  0  0  0  0  0  0  0  0  0
  184.1010  178.7820  142.3050 C   0  0  0  0  0  0  0  0  0  0  0  0
  182.9140  179.0210  144.3970 C   0  0  0  0  0  3  0  0  0  0  0  0
  190.2700  176.0320  142.3850 C   0  0  0  0  0  3  0  0  0  0  0  0
  189.0650  176.0360  142.9680 C   0  0  0  0  0  3  0  0  0  0  0  0
  191.6180  177.9290  142.8870 O   0  0  0  0  0  0  0  0  0  0  0  0
  191.0640  177.2190  142.0080 C   0  0  0  0  0  0  0  0  0  0  0  0
  191.1940  177.5950  140.6360 N   0  0  0  0  0  2  0  0  0  0  0  0
  190.5330  176.8720  139.5590 C   0  0  0  0  0  2  0  0  0  0  0  0
  188.3250  176.9200  138.2230 C   0  0  0  0  0  1  0  0  0  0  0  0
  189.2460  177.5400  139.2170 C   0  0  0  0  0  0  0  0  0  0  0  0
  188.9610  178.6120  139.7260 O   0  0  0  0  0  0  0  0  0  0  0  0
  1 11  1  6  0  0  0
  1  6  1  0  0  0  0
  4  2  1  0  0  0  0
  6  7  1  0  0  0  0
  6  5  2  0  0  0  0
  7  3  2  0  0  0  0
  8  2  2  0  0  0  0
  9  3  1  6  0  0  0
  9  4  1  0  0  0  0
 10  5  1  6  0  0  0
 10  9  1  0  0  0  0
 10  8  1  0  0  0  0
 12 11  2  0  0  0  0
 13 12  1  0  0  0  0
 13 20  1  0  0  0  0
 14 13  2  0  0  0  0
 15 21  1  0  0  0  0
 16 15  2  0  0  0  0
 17 16  1  0  0  0  0
 18 21  2  0  0  0  0
 19 20  2  0  0  0  0
 19 16  1  0  0  0  0
 20 18  1  0  0  0  0
 22 23  2  0  0  0  0
 23  1  1  0  0  0  0
 25 22  1  0  0  0  0
 25 24  2  0  0  0  0
 26 25  1  0  0  0  0
 27 26  1  0  0  0  0
 28 29  1  0  0  0  0
 29 27  1  0  0  0  0
 29 30  2  0  0  0  0
M  END
>  <MODEL>
2

>  <REMARK>
 VINA RESULT:      -8.7      2.551      4.746
  Name = 
  8 active torsions:
  status: ('A' for Active; 'I' for Inactive)
    1  A    between atoms: C_1  and  C_24
    2  A    between atoms: C_4  and  C_18
    3  A    between atoms: C_5  and  C_24
    4  A    between atoms: N_10  and  C_15
    5  A    between atoms: C_15  and  C_17
    6  A    between atoms: C_19  and  C_23
    7  A    between atoms: C_19  and  N_29
    8  A    between atoms: C_22  and  C_24
                            x       y       z     vdW  Elec       q    Type
                         _______ _______ _______ _____ _____    ______ ____

>  <TORSDO>
F 8

$$$$
=
 OpenBabel11032419163D

 30 32  0  0  1  0  0  0  0  0999 V2000
  188.5160  177.6220  142.6090 C   0  0  2  0  0  3  0  0  0  0  0  0
  185.4690  179.2850  147.0020 N   0  0  0  0  0  0  0  0  0  0  0  0
  184.9070  178.3530  143.6090 C   0  0  0  0  0  3  0  0  0  0  0  0
  184.7250  179.3300  145.8190 N   0  0  0  0  0  2  0  0  0  0  0  0
  187.4090  177.5830  144.8000 C   0  0  0  0  0  3  0  0  0  0  0  0
  187.2870  177.7130  143.4670 C   0  0  0  0  0  0  0  0  0  0  0  0
  185.9570  178.0110  142.8520 C   0  0  0  0  0  3  0  0  0  0  0  0
  186.3340  178.3260  146.9570 C   0  0  0  0  0  3  0  0  0  0  0  0
  185.1060  178.3640  145.0590 C   0  0  2  0  0  3  0  0  0  0  0  0
  186.1890  177.5600  145.6840 C   0  0  1  0  0  3  0  0  0  0  0  0
  188.1630  177.8030  141.1720 C   0  0  0  0  0  3  0  0  0  0  0  0
  188.9140  177.2990  140.2450 N   0  0  0  0  0  0  0  0  0  0  0  0
  188.6550  177.4580  138.8430 C   0  0  0  0  0  0  0  0  0  0  0  0
  187.2190  178.0680  138.3130 S   0  0  0  0  0  0  0  0  0  0  0  0
  191.6330  176.0680  136.1340 C   0  0  0  0  0  3  0  0  0  0  0  0
  191.9200  176.3050  137.4780 C   0  0  0  0  0  0  0  0  0  0  0  0
  193.2910  176.0590  138.0010 C   0  0  0  0  0  1  0  0  0  0  0  0
  189.3540  176.7660  136.5340 C   0  0  0  0  0  3  0  0  0  0  0  0
  190.9470  176.7630  138.3120 N   0  0  0  0  0  0  0  0  0  0  0  0
  189.6750  177.0000  137.8790 C   0  0  0  0  0  0  0  0  0  0  0  0
  190.3400  176.2990  135.6630 C   0  0  0  0  0  3  0  0  0  0  0  0
  190.4290  176.1390  143.2910 C   0  0  0  0  0  3  0  0  0  0  0  0
  189.1970  176.3010  142.7950 C   0  0  0  0  0  3  0  0  0  0  0  0
  191.6760  178.1290  142.9040 O   0  0  0  0  0  0  0  0  0  0  0  0
  191.3560  177.2120  143.7040 C   0  0  0  0  0  0  0  0  0  0  0  0
  191.9280  177.2100  145.0130 N   0  0  0  0  0  2  0  0  0  0  0  0
  191.6670  176.1530  145.9800 C   0  0  0  0  0  2  0  0  0  0  0  0
  189.8250  177.0980  147.5220 C   0  0  0  0  0  1  0  0  0  0  0  0
  191.2540  176.7500  147.2810 C   0  0  0  0  0  0  0  0  0  0  0  0
  192.0910  176.9850  148.1380 O   0  0  0  0  0  0  0  0  0  0  0  0
  1 11  1  6  0  0  0
  1 23  1  0  0  0  0
  1  6  1  0  0  0  0
  4  2  1  0  0  0  0
  6  5  2  0  0  0  0
  7  6  1  0  0  0  0
  7  3  2  0  0  0  0
  8  2  2  0  0  0  0
  9  3  1  6  0  0  0
  9 10  1  0  0  0  0
  9  4  1  0  0  0  0
 10  5  1  6  0  0  0
 10  8  1  0  0  0  0
 12 11  2  0  0  0  0
 13 12  1  0  0  0  0
 14 13  2  0  0  0  0
 15 16  1  0  0  0  0
 16 17  1  0  0  0  0
 16 19  2  0  0  0  0
 18 20  2  0  0  0  0
 20 19  1  0  0  0  0
 20 13  1  0  0  0  0
 21 15  2  0  0  0  0
 21 18  1  0  0  0  0
 22 25  1  0  0  0  0
 23 22  2  0  0  0  0
 24 25  2  0  0  0  0
 25 26  1  0  0  0  0
 26 27  1  0  0  0  0
 27 29  1  0  0  0  0
 29 28  1  0  0  0  0
 29 30  2  0  0  0  0
M  END
>  <MODEL>
3

>  <REMARK>
 VINA RESULT:      -8.7      2.059      3.314
  Name = 
  8 active torsions:
  status: ('A' for Active; 'I' for Inactive)
    1  A    between atoms: C_1  and  C_24
    2  A    between atoms: C_4  and  C_18
    3  A    between atoms: C_5  and  C_24
    4  A    between atoms: N_10  and  C_15
    5  A    between atoms: C_15  and  C_17
    6  A    between atoms: C_19  and  C_23
    7  A    between atoms: C_19  and  N_29
    8  A    between atoms: C_22  and  C_24
                            x       y       z     vdW  Elec       q    Type
                         _______ _______ _______ _____ _____    ______ ____

>  <TORSDO>
F 8

$$$$
=
 OpenBabel11032419163D

 30 32  0  0  1  0  0  0  0  0999 V2000
  188.4700  177.8020  142.5610 C   0  0  2  0  0  3  0  0  0  0  0  0
  185.6360  179.2340  147.1730 N   0  0  0  0  0  0  0  0  0  0  0  0
  184.9040  178.3720  143.7930 C   0  0  0  0  0  3  0  0  0  0  0  0
  184.8210  179.2830  146.0380 N   0  0  0  0  0  2  0  0  0  0  0  0
  187.4990  177.6640  144.8120 C   0  0  0  0  0  3  0  0  0  0  0  0
  187.2920  177.8240  143.4920 C   0  0  0  0  0  0  0  0  0  0  0  0
  185.9180  178.0890  142.9670 C   0  0  0  0  0  3  0  0  0  0  0  0
  186.5310  178.3090  147.0490 C   0  0  0  0  0  3  0  0  0  0  0  0
  185.1900  178.3520  145.2300 C   0  0  2  0  0  3  0  0  0  0  0  0
  186.3360  177.5720  145.7650 C   0  0  1  0  0  3  0  0  0  0  0  0
  188.0820  178.3200  141.2180 C   0  0  0  0  0  3  0  0  0  0  0  0
  188.2470  177.5900  140.1620 N   0  0  0  0  0  0  0  0  0  0  0  0
  187.9260  178.0320  138.8350 C   0  0  0  0  0  0  0  0  0  0  0  0
  189.0760  178.7140  137.8720 S   0  0  0  0  0  0  0  0  0  0  0  0
  183.8850  177.8340  137.5050 C   0  0  0  0  0  3  0  0  0  0  0  0
  184.2740  178.6850  138.5390 C   0  0  0  0  0  0  0  0  0  0  0  0
  183.2710  179.5640  139.1970 C   0  0  0  0  0  1  0  0  0  0  0  0
  186.1690  177.0640  137.3270 C   0  0  0  0  0  3  0  0  0  0  0  0
  185.5710  178.7120  138.9470 N   0  0  0  0  0  0  0  0  0  0  0  0
  186.5280  177.9260  138.3720 C   0  0  0  0  0  0  0  0  0  0  0  0
  184.8420  177.0220  136.8950 C   0  0  0  0  0  3  0  0  0  0  0  0
  190.3050  176.0830  142.5280 C   0  0  0  0  0  3  0  0  0  0  0  0
  189.0120  176.4130  142.4240 C   0  0  0  0  0  3  0  0  0  0  0  0
  191.7910  177.3200  143.9170 O   0  0  0  0  0  0  0  0  0  0  0  0
  191.4310  177.0120  142.7510 C   0  0  0  0  0  0  0  0  0  0  0  0
  192.1150  177.5980  141.6420 N   0  0  0  0  0  2  0  0  0  0  0  0
  191.7240  177.3520  140.2610 C   0  0  0  0  0  2  0  0  0  0  0  0
  192.7630  176.4110  138.0930 C   0  0  0  0  0  1  0  0  0  0  0  0
  192.9250  177.0030  139.4520 C   0  0  0  0  0  0  0  0  0  0  0  0
  194.0420  177.1710  139.9130 O   0  0  0  0  0  0  0  0  0  0  0  0
  1 11  1  6  0  0  0
  1  6  1  0  0  0  0
  4  2  1  0  0  0  0
  6  5  2  0  0  0  0
  7  6  1  0  0  0  0
  7  3  2  0  0  0  0
  8  2  2  0  0  0  0
  9  3  1  6  0  0  0
  9 10  1  0  0  0  0
  9  4  1  0  0  0  0
 10  5  1  6  0  0  0
 10  8  1  0  0  0  0
 12 11  2  0  0  0  0
 13 12  1  0  0  0  0
 14 13  2  0  0  0  0
 15 16  1  0  0  0  0
 16 19  2  0  0  0  0
 16 17  1  0  0  0  0
 18 20  2  0  0  0  0
 20 13  1  0  0  0  0
 20 19  1  0  0  0  0
 21 18  1  0  0  0  0
 21 15  2  0  0  0  0
 22 25  1  0  0  0  0
 23 22  2  0  0  0  0
 23  1  1  0  0  0  0
 25 24  2  0  0  0  0
 26 25  1  0  0  0  0
 27 26  1  0  0  0  0
 28 29  1  0  0  0  0
 29 30  2  0  0  0  0
 29 27  1  0  0  0  0
M  END
>  <MODEL>
4

>  <REMARK>
 VINA RESULT:      -8.4      1.645      3.052
  Name = 
  8 active torsions:
  status: ('A' for Active; 'I' for Inactive)
    1  A    between atoms: C_1  and  C_24
    2  A    between atoms: C_4  and  C_18
    3  A    between atoms: C_5  and  C_24
    4  A    between atoms: N_10  and  C_15
    5  A    between atoms: C_15  and  C_17
    6  A    between atoms: C_19  and  C_23
    7  A    between atoms: C_19  and  N_29
    8  A    between atoms: C_22  and  C_24
                            x       y       z     vdW  Elec       q    Type
                         _______ _______ _______ _____ _____    ______ ____

>  <TORSDO>
F 8

$$$$
=
 OpenBabel11032419163D

 30 32  0  0  1  0  0  0  0  0999 V2000
  188.3800  177.9020  142.2710 C   0  0  2  0  0  3  0  0  0  0  0  0
  185.3340  179.1180  146.8090 N   0  0  0  0  0  0  0  0  0  0  0  0
  184.7750  178.5610  143.3350 C   0  0  0  0  0  3  0  0  0  0  0  0
  184.5950  179.2970  145.6370 N   0  0  0  0  0  2  0  0  0  0  0  0
  187.2650  177.6400  144.4430 C   0  0  0  0  0  3  0  0  0  0  0  0
  187.1480  177.9130  143.1310 C   0  0  0  0  0  0  0  0  0  0  0  0
  185.8240  178.2900  142.5490 C   0  0  0  0  0  3  0  0  0  0  0  0
  186.1900  178.1600  146.6640 C   0  0  0  0  0  3  0  0  0  0  0  0
  184.9690  178.4140  144.7790 C   0  0  2  0  0  3  0  0  0  0  0  0
  186.0410  177.5360  145.3160 C   0  0  1  0  0  3  0  0  0  0  0  0
  188.0360  178.2540  140.8640 C   0  0  0  0  0  3  0  0  0  0  0  0
  188.3580  177.4610  139.8930 N   0  0  0  0  0  0  0  0  0  0  0  0
  188.0880  177.7480  138.5140 C   0  0  0  0  0  0  0  0  0  0  0  0
  189.2670  178.3480  137.5310 S   0  0  0  0  0  0  0  0  0  0  0  0
  184.1420  177.0990  137.0490 C   0  0  0  0  0  3  0  0  0  0  0  0
  185.2380  176.4100  136.5290 C   0  0  0  0  0  0  0  0  0  0  0  0
  185.0430  175.4100  135.4460 C   0  0  0  0  0  1  0  0  0  0  0  0
  185.6330  178.2630  138.5530 C   0  0  0  0  0  3  0  0  0  0  0  0
  186.4870  176.6540  137.0120 N   0  0  0  0  0  0  0  0  0  0  0  0
  186.7140  177.5590  138.0070 C   0  0  0  0  0  0  0  0  0  0  0  0
  184.3440  178.0290  138.0690 C   0  0  0  0  0  3  0  0  0  0  0  0
  190.2860  176.3250  142.7260 C   0  0  0  0  0  3  0  0  0  0  0  0
  189.0370  176.5570  142.3040 C   0  0  0  0  0  3  0  0  0  0  0  0
  191.6210  178.2750  142.4350 O   0  0  0  0  0  0  0  0  0  0  0  0
  191.2550  177.3380  143.1920 C   0  0  0  0  0  0  0  0  0  0  0  0
  191.8150  177.2530  144.5030 N   0  0  0  0  0  2  0  0  0  0  0  0
  191.5010  176.1680  145.4210 C   0  0  0  0  0  2  0  0  0  0  0  0
  189.7920  177.1600  147.0820 C   0  0  0  0  0  1  0  0  0  0  0  0
  191.1810  176.7200  146.7670 C   0  0  0  0  0  0  0  0  0  0  0  0
  192.0620  176.8440  147.6010 O   0  0  0  0  0  0  0  0  0  0  0  0
  1 11  1  6  0  0  0
  1 23  1  0  0  0  0
  1  6  1  0  0  0  0
  4  2  1  0  0  0  0
  6  5  2  0  0  0  0
  7  6  1  0  0  0  0
  7  3  2  0  0  0  0
  8  2  2  0  0  0  0
  9  3  1  6  0  0  0
  9 10  1  0  0  0  0
  9  4  1  0  0  0  0
 10  5  1  6  0  0  0
 10  8  1  0  0  0  0
 12 11  2  0  0  0  0
 13 12  1  0  0  0  0
 14 13  2  0  0  0  0
 15 21  1  0  0  0  0
 16 19  1  0  0  0  0
 16 15  2  0  0  0  0
 17 16  1  0  0  0  0
 19 20  2  0  0  0  0
 20 13  1  0  0  0  0
 20 18  1  0  0  0  0
 21 18  2  0  0  0  0
 22 25  1  0  0  0  0
 23 22  2  0  0  0  0
 24 25  2  0  0  0  0
 25 26  1  0  0  0  0
 26 27  1  0  0  0  0
 27 29  1  0  0  0  0
 29 28  1  0  0  0  0
 29 30  2  0  0  0  0
M  END
>  <MODEL>
5

>  <REMARK>
 VINA RESULT:      -8.2      0.826      1.454
  Name = 
  8 active torsions:
  status: ('A' for Active; 'I' for Inactive)
    1  A    between atoms: C_1  and  C_24
    2  A    between atoms: C_4  and  C_18
    3  A    between atoms: C_5  and  C_24
    4  A    between atoms: N_10  and  C_15
    5  A    between atoms: C_15  and  C_17
    6  A    between atoms: C_19  and  C_23
    7  A    between atoms: C_19  and  N_29
    8  A    between atoms: C_22  and  C_24
                            x       y       z     vdW  Elec       q    Type
                         _______ _______ _______ _____ _____    ______ ____

>  <TORSDO>
F 8

$$$$
=
 OpenBabel11032419163D

 30 32  0  0  1  0  0  0  0  0999 V2000
  188.5400  177.5530  142.3660 C   0  0  2  0  0  3  0  0  0  0  0  0
  185.4020  179.2660  146.6750 N   0  0  0  0  0  0  0  0  0  0  0  0
  184.9760  178.6380  143.1930 C   0  0  0  0  0  3  0  0  0  0  0  0
  184.7520  179.4790  145.4560 N   0  0  0  0  0  2  0  0  0  0  0  0
  187.2850  177.4980  144.4760 C   0  0  0  0  0  3  0  0  0  0  0  0
  187.2720  177.7310  143.1510 C   0  0  0  0  0  0  0  0  0  0  0  0
  186.0310  178.2250  142.4800 C   0  0  0  0  0  3  0  0  0  0  0  0
  186.1540  178.2160  146.6110 C   0  0  0  0  0  3  0  0  0  0  0  0
  185.0730  178.5270  144.6500 C   0  0  2  0  0  3  0  0  0  0  0  0
  186.0110  177.5600  145.2780 C   0  0  1  0  0  3  0  0  0  0  0  0
  188.2560  177.5850  140.9020 C   0  0  0  0  0  3  0  0  0  0  0  0
  189.2260  177.5480  140.0470 N   0  0  0  0  0  0  0  0  0  0  0  0
  189.0320  177.6060  138.6260 C   0  0  0  0  0  0  0  0  0  0  0  0
  189.0560  179.0480  137.8290 S   0  0  0  0  0  0  0  0  0  0  0  0
  188.1200  174.0460  136.4720 C   0  0  0  0  0  3  0  0  0  0  0  0
  187.1180  174.9040  136.9260 C   0  0  0  0  0  0  0  0  0  0  0  0
  185.6900  174.5930  136.6490 C   0  0  0  0  0  1  0  0  0  0  0  0
  189.7710  175.5150  137.4520 C   0  0  0  0  0  3  0  0  0  0  0  0
  187.4460  176.0250  137.6240 N   0  0  0  0  0  0  0  0  0  0  0  0
  188.7410  176.3540  137.9000 C   0  0  0  0  0  0  0  0  0  0  0  0
  189.4540  174.3580  136.7370 C   0  0  0  0  0  3  0  0  0  0  0  0
  190.4220  176.1470  143.2630 C   0  0  0  0  0  3  0  0  0  0  0  0
  189.2050  176.2580  142.7180 C   0  0  0  0  0  3  0  0  0  0  0  0
  192.0620  177.7710  142.6790 O   0  0  0  0  0  0  0  0  0  0  0  0
  191.3460  177.2560  143.5770 C   0  0  0  0  0  0  0  0  0  0  0  0
  191.4620  177.7440  144.9150 N   0  0  0  0  0  2  0  0  0  0  0  0
  190.7230  177.1640  146.0270 C   0  0  0  0  0  2  0  0  0  0  0  0
  192.3430  175.2610  146.6720 C   0  0  0  0  0  1  0  0  0  0  0  0
  191.6710  176.5510  146.9980 C   0  0  0  0  0  0  0  0  0  0  0  0
  191.8720  177.0870  148.0760 O   0  0  0  0  0  0  0  0  0  0  0  0
  1 11  1  6  0  0  0
  1 23  1  0  0  0  0
  1  6  1  0  0  0  0
  4  2  1  0  0  0  0
  6  5  2  0  0  0  0
  7  6  1  0  0  0  0
  7  3  2  0  0  0  0
  8  2  2  0  0  0  0
  9  3  1  6  0  0  0
  9 10  1  0  0  0  0
  9  4  1  0  0  0  0
 10  5  1  6  0  0  0
 10  8  1  0  0  0  0
 12 11  2  0  0  0  0
 13 12  1  0  0  0  0
 14 13  2  0  0  0  0
 15 21  2  0  0  0  0
 15 16  1  0  0  0  0
 16 19  2  0  0  0  0
 17 16  1  0  0  0  0
 18 20  2  0  0  0  0
 19 20  1  0  0  0  0
 20 13  1  0  0  0  0
 21 18  1  0  0  0  0
 22 25  1  0  0  0  0
 23 22  2  0  0  0  0
 24 25  2  0  0  0  0
 25 26  1  0  0  0  0
 26 27  1  0  0  0  0
 27 29  1  0  0  0  0
 28 29  1  0  0  0  0
 29 30  2  0  0  0  0
M  END
>  <MODEL>
6

>  <REMARK>
 VINA RESULT:      -8.1      1.760      2.404
  Name = 
  8 active torsions:
  status: ('A' for Active; 'I' for Inactive)
    1  A    between atoms: C_1  and  C_24
    2  A    between atoms: C_4  and  C_18
    3  A    between atoms: C_5  and  C_24
    4  A    between atoms: N_10  and  C_15
    5  A    between atoms: C_15  and  C_17
    6  A    between atoms: C_19  and  C_23
    7  A    between atoms: C_19  and  N_29
    8  A    between atoms: C_22  and  C_24
                            x       y       z     vdW  Elec       q    Type
                         _______ _______ _______ _____ _____    ______ ____

>  <TORSDO>
F 8

$$$$
=
 OpenBabel11032419163D

 30 32  0  0  1  0  0  0  0  0999 V2000
  189.2080  177.2530  143.3870 C   0  0  2  0  0  3  0  0  0  0  0  0
  189.7490  175.9910  137.9590 N   0  0  0  0  0  0  0  0  0  0  0  0
  187.8580  178.2530  139.9610 C   0  0  0  0  0  3  0  0  0  0  0  0
  188.6250  176.7900  138.1870 N   0  0  0  0  0  2  0  0  0  0  0  0
  190.1940  177.0650  141.1470 C   0  0  0  0  0  3  0  0  0  0  0  0
  189.1860  177.5230  141.9100 C   0  0  0  0  0  0  0  0  0  0  0  0
  188.0260  178.2320  141.2890 C   0  0  0  0  0  3  0  0  0  0  0  0
  190.6870  176.2760  138.8030 C   0  0  0  0  0  3  0  0  0  0  0  0
  188.8890  177.6030  139.1490 C   0  0  2  0  0  3  0  0  0  0  0  0
  190.2630  177.4070  139.6810 C   0  0  1  0  0  3  0  0  0  0  0  0
  187.8270  177.3020  143.9470 C   0  0  0  0  0  3  0  0  0  0  0  0
  187.4490  178.3050  144.6720 N   0  0  0  0  0  0  0  0  0  0  0  0
  186.1490  178.4060  145.2690 C   0  0  0  0  0  0  0  0  0  0  0  0
  185.9500  178.2300  146.8950 S   0  0  0  0  0  0  0  0  0  0  0  0
  182.8080  178.8900  142.6720 C   0  0  0  0  0  3  0  0  0  0  0  0
  184.0860  178.6280  142.1790 C   0  0  0  0  0  0  0  0  0  0  0  0
  184.3060  178.4970  140.7140 C   0  0  0  0  0  1  0  0  0  0  0  0
  183.7060  178.8600  144.9150 C   0  0  0  0  0  3  0  0  0  0  0  0
  185.1330  178.4940  143.0370 N   0  0  0  0  0  0  0  0  0  0  0  0
  184.9790  178.6020  144.3890 C   0  0  0  0  0  0  0  0  0  0  0  0
  182.6200  179.0030  144.0500 C   0  0  0  0  0  3  0  0  0  0  0  0
  191.1170  177.9440  144.8710 C   0  0  0  0  0  3  0  0  0  0  0  0
  190.0700  178.2520  144.0960 C   0  0  0  0  0  3  0  0  0  0  0  0
  191.8980  175.7700  144.2980 O   0  0  0  0  0  0  0  0  0  0  0  0
  191.5910  176.5860  145.2050 C   0  0  0  0  0  0  0  0  0  0  0  0
  191.6810  176.1670  146.5690 N   0  0  0  0  0  2  0  0  0  0  0  0
  191.2830  177.0210  147.6780 C   0  0  0  0  0  2  0  0  0  0  0  0
  189.1600  178.2530  148.4770 C   0  0  0  0  0  1  0  0  0  0  0  0
  189.7990  177.1440  147.7140 C   0  0  0  0  0  0  0  0  0  0  0  0
  189.1040  176.3170  147.1460 O   0  0  0  0  0  0  0  0  0  0  0  0
  1 11  1  1  0  0  0
  1 23  1  0  0  0  0
  2  4  1  0  0  0  0
  2  8  2  0  0  0  0
  3  7  2  0  0  0  0
  4  9  1  0  0  0  0
  5  6  2  0  0  0  0
  6  1  1  0  0  0  0
  7  6  1  0  0  0  0
  9 10  1  0  0  0  0
  9  3  1  1  0  0  0
 10  8  1  6  0  0  0
 10  5  1  0  0  0  0
 11 12  2  0  0  0  0
 12 13  1  0  0  0  0
 13 14  2  0  0  0  0
 15 21  1  0  0  0  0
 16 15  2  0  0  0  0
 16 19  1  0  0  0  0
 17 16  1  0  0  0  0
 19 20  2  0  0  0  0
 20 18  1  0  0  0  0
 20 13  1  0  0  0  0
 21 18  2  0  0  0  0
 22 25  1  0  0  0  0
 23 22  2  0  0  0  0
 24 25  2  0  0  0  0
 25 26  1  0  0  0  0
 26 27  1  0  0  0  0
 27 29  1  0  0  0  0
 29 28  1  0  0  0  0
 30 29  2  0  0  0  0
M  END
>  <MODEL>
7

>  <REMARK>
 VINA RESULT:      -8.1      2.721      5.441
  Name = 
  8 active torsions:
  status: ('A' for Active; 'I' for Inactive)
    1  A    between atoms: C_1  and  C_24
    2  A    between atoms: C_4  and  C_18
    3  A    between atoms: C_5  and  C_24
    4  A    between atoms: N_10  and  C_15
    5  A    between atoms: C_15  and  C_17
    6  A    between atoms: C_19  and  C_23
    7  A    between atoms: C_19  and  N_29
    8  A    between atoms: C_22  and  C_24
                            x       y       z     vdW  Elec       q    Type
                         _______ _______ _______ _____ _____    ______ ____

>  <TORSDO>
F 8

$$$$
=
 OpenBabel11032419163D

 30 32  0  0  1  0  0  0  0  0999 V2000
  186.6090  177.6200  143.5110 C   0  0  2  0  0  3  0  0  0  0  0  0
  189.2190  178.3800  148.4070 N   0  0  0  0  0  0  0  0  0  0  0  0
  185.9040  178.6300  147.1230 C   0  0  0  0  0  3  0  0  0  0  0  0
  187.9250  178.9090  148.4310 N   0  0  0  0  0  2  0  0  0  0  0  0
  187.8100  177.1130  145.5920 C   0  0  0  0  0  3  0  0  0  0  0  0
  186.7280  177.6590  145.0080 C   0  0  0  0  0  0  0  0  0  0  0  0
  185.6920  178.3550  145.8300 C   0  0  0  0  0  3  0  0  0  0  0  0
  189.2710  177.3440  147.6340 C   0  0  0  0  0  3  0  0  0  0  0  0
  187.1660  178.1660  147.7040 C   0  0  2  0  0  3  0  0  0  0  0  0
  187.9140  177.0360  147.0930 C   0  0  1  0  0  3  0  0  0  0  0  0
  187.8680  177.1040  142.9020 C   0  0  0  0  0  3  0  0  0  0  0  0
  188.6110  177.8780  142.1790 N   0  0  0  0  0  0  0  0  0  0  0  0
  189.8180  177.4440  141.5360 C   0  0  0  0  0  0  0  0  0  0  0  0
  191.1730  177.1200  142.4160 S   0  0  0  0  0  0  0  0  0  0  0  0
  189.8830  177.0930  137.2920 C   0  0  0  0  0  3  0  0  0  0  0  0
  190.5870  176.2100  138.1110 C   0  0  0  0  0  0  0  0  0  0  0  0
  191.3750  175.1030  137.5060 C   0  0  0  0  0  1  0  0  0  0  0  0
  189.1220  178.2590  139.2680 C   0  0  0  0  0  3  0  0  0  0  0  0
  190.5550  176.3610  139.4620 N   0  0  0  0  0  0  0  0  0  0  0  0
  189.8440  177.3590  140.0620 C   0  0  0  0  0  0  0  0  0  0  0  0
  189.1440  178.1220  137.8780 C   0  0  0  0  0  3  0  0  0  0  0  0
  185.1040  179.4040  142.5740 C   0  0  0  0  0  3  0  0  0  0  0  0
  186.3120  178.9830  142.9670 C   0  0  0  0  0  3  0  0  0  0  0  0
  183.1970  178.4320  143.6150 O   0  0  0  0  0  0  0  0  0  0  0  0
  183.8610  178.6070  142.5610 C   0  0  0  0  0  0  0  0  0  0  0  0
  183.4060  177.9970  141.3510 N   0  0  0  0  0  2  0  0  0  0  0  0
  184.1460  178.0900  140.1010 C   0  0  0  0  0  2  0  0  0  0  0  0
  182.3210  179.4730  138.9080 C   0  0  0  0  0  1  0  0  0  0  0  0
  183.7330  179.3140  139.3600 C   0  0  0  0  0  0  0  0  0  0  0  0
  184.5570  180.1730  139.0930 O   0  0  0  0  0  0  0  0  0  0  0  0
  1 11  1  6  0  0  0
  1  6  1  0  0  0  0
  2  4  1  0  0  0  0
  6  5  2  0  0  0  0
  6  7  1  0  0  0  0
  7  3  2  0  0  0  0
  8  2  2  0  0  0  0
  9  3  1  6  0  0  0
  9  4  1  0  0  0  0
 10  5  1  6  0  0  0
 10  8  1  0  0  0  0
 10  9  1  0  0  0  0
 12 11  2  0  0  0  0
 13 12  1  0  0  0  0
 13 14  2  0  0  0  0
 15 21  2  0  0  0  0
 15 16  1  0  0  0  0
 16 19  2  0  0  0  0
 17 16  1  0  0  0  0
 18 20  2  0  0  0  0
 19 20  1  0  0  0  0
 20 13  1  0  0  0  0
 21 18  1  0  0  0  0
 22 23  2  0  0  0  0
 23  1  1  0  0  0  0
 25 22  1  0  0  0  0
 25 24  2  0  0  0  0
 26 25  1  0  0  0  0
 27 26  1  0  0  0  0
 28 29  1  0  0  0  0
 29 27  1  0  0  0  0
 30 29  2  0  0  0  0
M  END
>  <MODEL>
8

>  <REMARK>
 VINA RESULT:      -8.0      3.310      6.150
  Name = 
  8 active torsions:
  status: ('A' for Active; 'I' for Inactive)
    1  A    between atoms: C_1  and  C_24
    2  A    between atoms: C_4  and  C_18
    3  A    between atoms: C_5  and  C_24
    4  A    between atoms: N_10  and  C_15
    5  A    between atoms: C_15  and  C_17
    6  A    between atoms: C_19  and  C_23
    7  A    between atoms: C_19  and  N_29
    8  A    between atoms: C_22  and  C_24
                            x       y       z     vdW  Elec       q    Type
                         _______ _______ _______ _____ _____    ______ ____

>  <TORSDO>
F 8

$$$$
=
 OpenBabel11032419163D

 30 32  0  0  1  0  0  0  0  0999 V2000
  187.7460  178.0030  143.2990 C   0  0  2  0  0  3  0  0  0  0  0  0
  188.6850  178.2510  148.8130 N   0  0  0  0  0  0  0  0  0  0  0  0
  185.9380  178.6940  146.5870 C   0  0  0  0  0  3  0  0  0  0  0  0
  187.4460  178.8050  148.4820 N   0  0  0  0  0  2  0  0  0  0  0  0
  188.2370  177.2800  145.5930 C   0  0  0  0  0  3  0  0  0  0  0  0
  187.3890  177.9020  144.7540 C   0  0  0  0  0  0  0  0  0  0  0  0
  186.1430  178.5440  145.2730 C   0  0  0  0  0  3  0  0  0  0  0  0
  188.9830  177.2890  148.0020 C   0  0  0  0  0  3  0  0  0  0  0  0
  186.9570  178.1510  147.4870 C   0  0  2  0  0  3  0  0  0  0  0  0
  187.8660  177.0640  147.0380 C   0  0  1  0  0  3  0  0  0  0  0  0
  186.6330  178.6320  142.5320 C   0  0  0  0  0  3  0  0  0  0  0  0
  185.5820  177.9440  142.2200 N   0  0  0  0  0  0  0  0  0  0  0  0
  184.4870  178.4720  141.4590 C   0  0  0  0  0  0  0  0  0  0  0  0
  184.7020  178.9680  139.9020 S   0  0  0  0  0  0  0  0  0  0  0  0
  180.6660  178.8410  143.3050 C   0  0  0  0  0  3  0  0  0  0  0  0
  180.7990  178.6340  141.9320 C   0  0  0  0  0  0  0  0  0  0  0  0
  179.5880  178.5240  141.0760 C   0  0  0  0  0  1  0  0  0  0  0  0
  183.0750  178.8300  143.5020 C   0  0  0  0  0  3  0  0  0  0  0  0
  182.0360  178.5360  141.3740 N   0  0  0  0  0  0  0  0  0  0  0  0
  183.1750  178.6280  142.1190 C   0  0  0  0  0  0  0  0  0  0  0  0
  181.8140  178.9360  144.0930 C   0  0  0  0  0  3  0  0  0  0  0  0
  189.0060  176.3880  141.8400 C   0  0  0  0  0  3  0  0  0  0  0  0
  188.0420  176.6490  142.7310 C   0  0  0  0  0  3  0  0  0  0  0  0
  189.5730  178.0200  140.2030 O   0  0  0  0  0  0  0  0  0  0  0  0
  189.9200  177.3720  141.2230 C   0  0  0  0  0  0  0  0  0  0  0  0
  191.2260  177.5820  141.7630 N   0  0  0  0  0  2  0  0  0  0  0  0
  191.7350  176.8280  142.8990 C   0  0  0  0  0  2  0  0  0  0  0  0
  191.6800  176.9700  145.4760 C   0  0  0  0  0  1  0  0  0  0  0  0
  191.5900  177.6330  144.1450 C   0  0  0  0  0  0  0  0  0  0  0  0
  191.3640  178.8300  144.0750 O   0  0  0  0  0  0  0  0  0  0  0  0
  1 11  1  6  0  0  0
  1  6  1  0  0  0  0
  4  2  1  0  0  0  0
  6  7  1  0  0  0  0
  6  5  2  0  0  0  0
  7  3  2  0  0  0  0
  8  2  2  0  0  0  0
  9  3  1  6  0  0  0
  9  4  1  0  0  0  0
 10  5  1  6  0  0  0
 10  9  1  0  0  0  0
 10  8  1  0  0  0  0
 12 11  2  0  0  0  0
 13 20  1  0  0  0  0
 13 12  1  0  0  0  0
 14 13  2  0  0  0  0
 15 21  1  0  0  0  0
 16 15  2  0  0  0  0
 17 16  1  0  0  0  0
 18 21  2  0  0  0  0
 19 16  1  0  0  0  0
 19 20  2  0  0  0  0
 20 18  1  0  0  0  0
 22 23  2  0  0  0  0
 23  1  1  0  0  0  0
 24 25  2  0  0  0  0
 25 26  1  0  0  0  0
 25 22  1  0  0  0  0
 26 27  1  0  0  0  0
 27 29  1  0  0  0  0
 29 28  1  0  0  0  0
 30 29  2  0  0  0  0
M  END
>  <MODEL>
9

>  <REMARK>
 VINA RESULT:      -8.0      2.720      3.933
  Name = 
  8 active torsions:
  status: ('A' for Active; 'I' for Inactive)
    1  A    between atoms: C_1  and  C_24
    2  A    between atoms: C_4  and  C_18
    3  A    between atoms: C_5  and  C_24
    4  A    between atoms: N_10  and  C_15
    5  A    between atoms: C_15  and  C_17
    6  A    between atoms: C_19  and  C_23
    7  A    between atoms: C_19  and  N_29
    8  A    between atoms: C_22  and  C_24
                            x       y       z     vdW  Elec       q    Type
                         _______ _______ _______ _____ _____    ______ ____

>  <TORSDO>
F 8

$$$$
