=
 OpenBabel11042411023D

 39 43  0  0  1  0  0  0  0  0999 V2000
  185.2290  179.2270  145.1470 C   0  0  0  0  0  3  0  0  0  0  0  0
  190.7620  177.2560  143.0840 S   0  0  0  0  0  0  0  0  0  0  0  0
  188.2290  176.8880  142.4730 C   0  0  2  0  0  3  0  0  0  0  0  0
  189.0420  177.0380  143.4860 C   0  0  2  0  0  3  0  0  0  0  0  0
  187.0260  177.6890  144.2790 C   0  0  0  0  0  0  0  0  0  0  0  0
  184.7330  179.5090  143.9840 C   0  0  0  0  0  0  0  0  0  0  0  0
  184.9510  178.6680  141.7660 C   0  0  2  0  0  3  0  0  0  0  0  0
  185.9320  177.9150  145.3180 C   0  0  1  0  0  3  0  0  0  0  0  0
  184.3930  179.6540  142.7400 C   0  0  0  0  0  3  0  0  0  0  0  0
  188.3020  177.5550  144.6230 C   0  0  0  0  0  0  0  0  0  0  0  0
  185.6720  177.7990  147.6980 O   0  0  0  0  0  0  0  0  0  0  0  0
  188.7630  177.6630  146.0200 C   0  0  0  0  0  0  0  0  0  0  0  0
  190.2270  177.5760  141.3610 C   0  0  2  0  0  3  0  0  0  0  0  0
  188.8770  176.8940  141.1390 C   0  0  0  0  0  2  0  0  0  0  0  0
  186.4710  177.8240  146.7240 C   0  0  0  0  0  0  0  0  0  0  0  0
  186.4660  178.5180  141.9360 C   0  0  0  0  0  2  0  0  0  0  0  0
  187.8850  177.7780  146.9740 N   0  0  0  0  0  0  0  0  0  0  0  0
  186.8320  177.3170  142.8180 C   0  0  1  0  0  3  0  0  0  0  0  0
  182.9970  175.4720  139.4720 O   0  0  0  0  0  1  0  0  0  0  0  0
  183.7290  176.4230  137.5270 O   0  0  0  0  0  0  0  0  0  0  0  0
  182.1930  179.3600  140.9830 C   0  0  0  0  0  2  0  0  0  0  0  0
  185.5420  179.1580  139.5060 O   0  0  0  0  0  0  0  0  0  0  0  0
  181.6820  177.9360  141.1860 C   0  0  0  0  0  2  0  0  0  0  0  0
  180.2560  176.1310  140.1600 C   0  0  0  0  0  1  0  0  0  0  0  0
  181.9530  178.6340  137.9890 C   0  0  0  0  0  2  0  0  0  0  0  0
  183.2640  179.3760  139.9890 N   0  0  0  0  0  0  0  0  0  0  0  0
  180.9610  177.4590  139.9320 C   0  0  2  0  0  3  0  0  0  0  0  0
  182.9450  179.6480  138.5840 C   0  0  0  0  0  2  0  0  0  0  0  0
  184.6190  179.0760  140.3630 C   0  0  0  0  0  0  0  0  0  0  0  0
  181.8730  177.4150  138.7870 N   0  0  0  0  0  0  0  0  0  0  0  0
  182.8750  176.3950  138.6230 C   0  0  0  0  0  0  0  0  0  0  0  0
  191.2380  177.0960  140.3760 C   0  0  0  0  0  0  0  0  0  0  0  0
  192.3570  177.6730  140.2930 O   0  0  0  0  0  0  0  0  0  0  0  0
  190.5840  175.9850  138.2990 C   0  0  0  0  0  0  0  0  0  0  0  0
  190.9170  175.9630  139.5550 N   0  0  0  0  0  0  0  0  0  0  0  0
  190.3170  174.7590  137.6300 N   0  0  0  0  0  1  0  0  0  0  0  0
  190.4790  177.2090  137.5730 N   0  0  0  0  0  1  0  0  0  0  0  0
  190.1980  177.5980  146.3350 C   0  0  0  0  0  3  0  0  0  0  0  0
  190.6820  176.8160  147.2920 C   0  0  0  0  0  2  0  0  0  0  0  0
  3 14  1  6  0  0  0
  3 18  1  0  0  0  0
  3  4  1  0  0  0  0
  4  2  1  6  0  0  0
  4 10  1  0  0  0  0
  5 10  2  0  0  0  0
  5  8  1  0  0  0  0
  6  1  2  0  0  0  0
  7 29  1  6  0  0  0
  7 16  1  0  0  0  0
  7  9  1  0  0  0  0
  8  1  1  6  0  0  0
  8 15  1  0  0  0  0
  9  6  2  0  0  0  0
 10 12  1  0  0  0  0
 12 38  1  0  0  0  0
 12 17  2  0  0  0  0
 13 32  1  6  0  0  0
 13  2  1  0  0  0  0
 14 13  1  0  0  0  0
 15 17  1  0  0  0  0
 15 11  2  0  0  0  0
 18 16  1  6  0  0  0
 18  5  1  0  0  0  0
 20 31  2  0  0  0  0
 21 23  1  0  0  0  0
 22 29  2  0  0  0  0
 25 28  1  0  0  0  0
 25 30  1  0  0  0  0
 26 29  1  0  0  0  0
 26 21  1  0  0  0  0
 27 24  1  1  0  0  0
 27 23  1  0  0  0  0
 28 26  1  0  0  0  0
 30 27  1  0  0  0  0
 31 30  1  0  0  0  0
 31 19  1  0  0  0  0
 33 32  2  0  0  0  0
 34 35  2  0  0  0  0
 35 32  1  0  0  0  0
 36 34  1  0  0  0  0
 37 34  1  0  0  0  0
 38 39  2  0  0  0  0
M  END
>  <MODEL>
1

>  <REMARK>
 VINA RESULT:     -10.0      0.000      0.000
  Name = 
  4 active torsions:
  status: ('A' for Active; 'I' for Inactive)
    1  A    between atoms: N_9  and  C_25
    2  A    between atoms: C_15  and  C_35
    3  A    between atoms: C_24  and  C_31
    4  A    between atoms: C_25  and  C_27
                            x       y       z     vdW  Elec       q    Type
                         _______ _______ _______ _____ _____    ______ ____

>  <TORSDO>
F 4

$$$$
=
 OpenBabel11042411023D

 39 43  0  0  1  0  0  0  0  0999 V2000
  184.6770  179.3460  142.0550 C   0  0  0  0  0  3  0  0  0  0  0  0
  188.9490  177.4520  146.1680 S   0  0  0  0  0  0  0  0  0  0  0  0
  188.0590  176.6840  143.8140 C   0  0  2  0  0  3  0  0  0  0  0  0
  187.6720  177.1800  144.9590 C   0  0  2  0  0  3  0  0  0  0  0  0
  186.0680  177.8180  143.4960 C   0  0  0  0  0  0  0  0  0  0  0  0
  185.4350  179.2550  141.0080 C   0  0  0  0  0  0  0  0  0  0  0  0
  187.2430  177.8740  140.3020 C   0  0  2  0  0  3  0  0  0  0  0  0
  184.6700  178.2040  143.0250 C   0  0  1  0  0  3  0  0  0  0  0  0
  186.3150  179.0260  140.0830 C   0  0  0  0  0  3  0  0  0  0  0  0
  186.4300  177.9080  144.7710 C   0  0  0  0  0  0  0  0  0  0  0  0
  182.5330  178.7080  143.9890 O   0  0  0  0  0  0  0  0  0  0  0  0
  185.5290  178.4330  145.8150 C   0  0  0  0  0  0  0  0  0  0  0  0
  190.1570  177.2420  144.8070 C   0  0  2  0  0  3  0  0  0  0  0  0
  189.5110  176.3950  143.7110 C   0  0  0  0  0  2  0  0  0  0  0  0
  183.7680  178.5490  144.1850 C   0  0  0  0  0  0  0  0  0  0  0  0
  187.8710  177.9260  141.6980 C   0  0  0  0  0  2  0  0  0  0  0  0
  184.2940  178.7120  145.5110 N   0  0  0  0  0  0  0  0  0  0  0  0
  187.1150  177.0490  142.7050 C   0  0  1  0  0  3  0  0  0  0  0  0
  186.9630  174.3840  137.6490 O   0  0  0  0  0  1  0  0  0  0  0  0
  189.1900  174.5720  137.1700 O   0  0  0  0  0  0  0  0  0  0  0  0
  186.6500  178.6180  137.5100 C   0  0  0  0  0  2  0  0  0  0  0  0
  189.4900  177.5470  139.5670 O   0  0  0  0  0  0  0  0  0  0  0  0
  185.7510  177.4060  137.2830 C   0  0  0  0  0  2  0  0  0  0  0  0
  185.2130  175.5600  135.6560 C   0  0  0  0  0  1  0  0  0  0  0  0
  188.6370  177.0170  135.7660 C   0  0  0  0  0  2  0  0  0  0  0  0
  187.9950  178.1860  137.8850 N   0  0  0  0  0  0  0  0  0  0  0  0
  186.2020  176.6490  136.0400 C   0  0  2  0  0  3  0  0  0  0  0  0
  189.0230  178.0370  136.8510 C   0  0  0  0  0  2  0  0  0  0  0  0
  188.3080  177.8550  139.2480 C   0  0  0  0  0  0  0  0  0  0  0  0
  187.5630  176.1330  136.2050 N   0  0  0  0  0  0  0  0  0  0  0  0
  187.8740  174.9980  137.0330 C   0  0  0  0  0  0  0  0  0  0  0  0
  191.4220  176.6170  145.2900 C   0  0  0  0  0  0  0  0  0  0  0  0
  191.9970  175.7390  144.5910 O   0  0  0  0  0  0  0  0  0  0  0  0
  192.0970  176.3450  147.6240 C   0  0  0  0  0  0  0  0  0  0  0  0
  191.9720  177.0540  146.5420 N   0  0  0  0  0  0  0  0  0  0  0  0
  192.6850  176.9340  148.7770 N   0  0  0  0  0  1  0  0  0  0  0  0
  191.6570  174.9880  147.6860 N   0  0  0  0  0  1  0  0  0  0  0  0
  186.0100  178.5980  147.1950 C   0  0  0  0  0  3  0  0  0  0  0  0
  186.3240  179.7830  147.7020 C   0  0  0  0  0  2  0  0  0  0  0  0
  3 14  1  6  0  0  0
  3  4  1  0  0  0  0
  4 10  1  6  0  0  0
  4  2  1  0  0  0  0
  5 10  2  0  0  0  0
  6  1  2  0  0  0  0
  7 29  1  6  0  0  0
  7 16  1  0  0  0  0
  8  1  1  6  0  0  0
  8  5  1  0  0  0  0
  8 15  1  0  0  0  0
  9  7  1  0  0  0  0
  9  6  2  0  0  0  0
 10 12  1  0  0  0  0
 11 15  2  0  0  0  0
 12 38  1  0  0  0  0
 13 32  1  1  0  0  0
 13  2  1  0  0  0  0
 14 13  1  0  0  0  0
 15 17  1  0  0  0  0
 17 12  2  0  0  0  0
 18 16  1  6  0  0  0
 18  5  1  0  0  0  0
 18  3  1  0  0  0  0
 21 26  1  0  0  0  0
 23 21  1  0  0  0  0
 25 30  1  0  0  0  0
 25 28  1  0  0  0  0
 26 29  1  0  0  0  0
 27 24  1  1  0  0  0
 27 30  1  0  0  0  0
 27 23  1  0  0  0  0
 28 26  1  0  0  0  0
 29 22  2  0  0  0  0
 30 31  1  0  0  0  0
 31 20  2  0  0  0  0
 31 19  1  0  0  0  0
 32 35  1  0  0  0  0
 33 32  2  0  0  0  0
 34 37  1  0  0  0  0
 34 36  1  0  0  0  0
 35 34  2  0  0  0  0
 38 39  2  0  0  0  0
M  END
>  <MODEL>
2

>  <REMARK>
 VINA RESULT:      -9.1      3.110      5.235
  Name = 
  4 active torsions:
  status: ('A' for Active; 'I' for Inactive)
    1  A    between atoms: N_9  and  C_25
    2  A    between atoms: C_15  and  C_35
    3  A    between atoms: C_24  and  C_31
    4  A    between atoms: C_25  and  C_27
                            x       y       z     vdW  Elec       q    Type
                         _______ _______ _______ _____ _____    ______ ____

>  <TORSDO>
F 4

$$$$
=
 OpenBabel11042411023D

 39 43  0  0  1  0  0  0  0  0999 V2000
  185.2620  179.0710  144.6910 C   0  0  0  0  0  3  0  0  0  0  0  0
  190.6350  177.4900  141.9730 S   0  0  0  0  0  0  0  0  0  0  0  0
  188.0710  177.0380  141.5920 C   0  0  2  0  0  3  0  0  0  0  0  0
  188.9760  177.1670  142.5280 C   0  0  2  0  0  3  0  0  0  0  0  0
  187.0240  177.6740  143.5550 C   0  0  0  0  0  0  0  0  0  0  0  0
  184.6400  179.3970  143.6020 C   0  0  0  0  0  0  0  0  0  0  0  0
  184.6670  178.6990  141.3250 C   0  0  2  0  0  3  0  0  0  0  0  0
  186.0320  177.7850  144.7080 C   0  0  1  0  0  3  0  0  0  0  0  0
  184.1700  179.5990  142.4100 C   0  0  0  0  0  3  0  0  0  0  0  0
  188.3330  177.5800  143.7620 C   0  0  0  0  0  0  0  0  0  0  0  0
  186.0200  177.5170  147.0900 O   0  0  0  0  0  0  0  0  0  0  0  0
  188.9280  177.6270  145.1110 C   0  0  0  0  0  0  0  0  0  0  0  0
  189.9150  177.8850  140.3350 C   0  0  2  0  0  3  0  0  0  0  0  0
  188.5800  177.1540  140.2030 C   0  0  0  0  0  2  0  0  0  0  0  0
  186.7150  177.6370  146.0460 C   0  0  0  0  0  0  0  0  0  0  0  0
  186.1960  178.6110  141.3360 C   0  0  0  0  0  2  0  0  0  0  0  0
  188.1470  177.6440  146.1530 N   0  0  0  0  0  0  0  0  0  0  0  0
  186.6990  177.3790  142.0990 C   0  0  1  0  0  3  0  0  0  0  0  0
  185.9010  176.0790  138.0220 O   0  0  0  0  0  1  0  0  0  0  0  0
  185.7000  177.8270  136.5630 O   0  0  0  0  0  0  0  0  0  0  0  0
  182.3770  177.4090  139.9860 C   0  0  0  0  0  2  0  0  0  0  0  0
  184.7350  180.1640  139.4420 O   0  0  0  0  0  0  0  0  0  0  0  0
  183.1280  176.0980  139.7670 C   0  0  0  0  0  2  0  0  0  0  0  0
  183.6090  174.3000  138.0710 C   0  0  0  0  0  1  0  0  0  0  0  0
  182.8550  177.7700  136.9540 C   0  0  0  0  0  2  0  0  0  0  0  0
  183.0840  178.5110  139.3350 N   0  0  0  0  0  0  0  0  0  0  0  0
  183.0590  175.6990  138.2990 C   0  0  2  0  0  3  0  0  0  0  0  0
  182.7070  178.9100  137.9760 C   0  0  0  0  0  2  0  0  0  0  0  0
  184.1780  179.1730  139.9900 C   0  0  0  0  0  0  0  0  0  0  0  0
  183.7120  176.6990  137.4510 N   0  0  0  0  0  0  0  0  0  0  0  0
  185.1410  176.8390  137.3660 C   0  0  0  0  0  0  0  0  0  0  0  0
  190.8410  177.5130  139.2270 C   0  0  0  0  0  0  0  0  0  0  0  0
  192.0750  177.3840  139.4550 O   0  0  0  0  0  0  0  0  0  0  0  0
  190.1710  176.1400  137.3180 C   0  0  0  0  0  0  0  0  0  0  0  0
  190.2950  177.2860  137.9190 N   0  0  0  0  0  0  0  0  0  0  0  0
  189.5850  176.0950  136.0230 N   0  0  0  0  0  1  0  0  0  0  0  0
  190.6090  174.9250  137.9240 N   0  0  0  0  0  1  0  0  0  0  0  0
  190.3890  177.6130  145.2790 C   0  0  0  0  0  3  0  0  0  0  0  0
  190.9910  176.8950  146.2200 C   0  0  0  0  0  2  0  0  0  0  0  0
  3 14  1  6  0  0  0
  3 18  1  0  0  0  0
  3  4  1  0  0  0  0
  4  2  1  6  0  0  0
  4 10  1  0  0  0  0
  5 10  2  0  0  0  0
  5  8  1  0  0  0  0
  6  1  2  0  0  0  0
  7 29  1  6  0  0  0
  7 16  1  0  0  0  0
  7  9  1  0  0  0  0
  8  1  1  1  0  0  0
  8 15  1  0  0  0  0
  9  6  2  0  0  0  0
 10 12  1  0  0  0  0
 12 38  1  0  0  0  0
 12 17  2  0  0  0  0
 13 32  1  6  0  0  0
 13  2  1  0  0  0  0
 14 13  1  0  0  0  0
 15 17  1  0  0  0  0
 15 11  2  0  0  0  0
 18 16  1  6  0  0  0
 18  5  1  0  0  0  0
 20 31  2  0  0  0  0
 22 29  2  0  0  0  0
 23 21  1  0  0  0  0
 25 30  1  0  0  0  0
 25 28  1  0  0  0  0
 26 21  1  0  0  0  0
 26 29  1  0  0  0  0
 27 24  1  1  0  0  0
 27 23  1  0  0  0  0
 28 26  1  0  0  0  0
 30 27  1  0  0  0  0
 31 30  1  0  0  0  0
 31 19  1  0  0  0  0
 32 33  2  0  0  0  0
 34 35  2  0  0  0  0
 34 37  1  0  0  0  0
 35 32  1  0  0  0  0
 36 34  1  0  0  0  0
 38 39  2  0  0  0  0
M  END
>  <MODEL>
3

>  <REMARK>
 VINA RESULT:      -8.4      1.262      1.689
  Name = 
  4 active torsions:
  status: ('A' for Active; 'I' for Inactive)
    1  A    between atoms: N_9  and  C_25
    2  A    between atoms: C_15  and  C_35
    3  A    between atoms: C_24  and  C_31
    4  A    between atoms: C_25  and  C_27
                            x       y       z     vdW  Elec       q    Type
                         _______ _______ _______ _____ _____    ______ ____

>  <TORSDO>
F 4

$$$$
=
 OpenBabel11042411023D

 39 43  0  0  1  0  0  0  0  0999 V2000
  184.1610  179.2060  140.3240 C   0  0  0  0  0  3  0  0  0  0  0  0
  188.7490  178.3410  144.4420 S   0  0  0  0  0  0  0  0  0  0  0  0
  188.0320  177.3510  142.1110 C   0  0  2  0  0  3  0  0  0  0  0  0
  187.5520  177.7810  143.2490 C   0  0  2  0  0  3  0  0  0  0  0  0
  185.8460  178.0350  141.7850 C   0  0  0  0  0  0  0  0  0  0  0  0
  184.9170  179.2510  139.2730 C   0  0  0  0  0  0  0  0  0  0  0  0
  186.9720  178.2650  138.5810 C   0  0  2  0  0  3  0  0  0  0  0  0
  184.3960  178.1090  141.3180 C   0  0  1  0  0  3  0  0  0  0  0  0
  185.8230  179.1910  138.3460 C   0  0  0  0  0  3  0  0  0  0  0  0
  186.1850  178.2270  143.0550 C   0  0  0  0  0  0  0  0  0  0  0  0
  182.2050  178.1750  142.2880 O   0  0  0  0  0  0  0  0  0  0  0  0
  185.1980  178.5750  144.0950 C   0  0  0  0  0  0  0  0  0  0  0  0
  189.9700  178.3580  143.0750 C   0  0  2  0  0  3  0  0  0  0  0  0
  189.5110  177.3710  142.0030 C   0  0  0  0  0  2  0  0  0  0  0  0
  183.4460  178.2830  142.4770 C   0  0  0  0  0  0  0  0  0  0  0  0
  187.5800  178.4790  139.9710 C   0  0  0  0  0  2  0  0  0  0  0  0
  183.9310  178.5830  143.7950 N   0  0  0  0  0  0  0  0  0  0  0  0
  187.0280  177.4850  141.0030 C   0  0  1  0  0  3  0  0  0  0  0  0
  190.2110  175.3090  138.8420 O   0  0  0  0  0  1  0  0  0  0  0  0
  191.6120  176.7520  137.7560 O   0  0  0  0  0  0  0  0  0  0  0  0
  187.0820  176.4950  136.2250 C   0  0  0  0  0  2  0  0  0  0  0  0
  188.8410  179.3940  137.6180 O   0  0  0  0  0  0  0  0  0  0  0  0
  187.4680  175.2700  137.0510 C   0  0  0  0  0  2  0  0  0  0  0  0
  189.0220  173.2900  137.1300 C   0  0  0  0  0  1  0  0  0  0  0  0
  190.0500  176.4040  135.3700 C   0  0  0  0  0  2  0  0  0  0  0  0
  188.0760  177.5530  136.3960 N   0  0  0  0  0  0  0  0  0  0  0  0
  188.7210  174.6270  136.4720 C   0  0  2  0  0  3  0  0  0  0  0  0
  189.1790  177.6710  135.4390 C   0  0  0  0  0  2  0  0  0  0  0  0
  188.0140  178.4460  137.5200 C   0  0  0  0  0  0  0  0  0  0  0  0
  189.8590  175.5470  136.5340 N   0  0  0  0  0  0  0  0  0  0  0  0
  190.5550  175.8490  137.7570 C   0  0  0  0  0  0  0  0  0  0  0  0
  191.3390  178.0240  143.5620 C   0  0  0  0  0  0  0  0  0  0  0  0
  192.0990  178.9400  143.9790 O   0  0  0  0  0  0  0  0  0  0  0  0
  191.8630  175.8730  144.6000 C   0  0  0  0  0  0  0  0  0  0  0  0
  191.7530  176.6500  143.5630 N   0  0  0  0  0  0  0  0  0  0  0  0
  192.2700  174.5230  144.4160 N   0  0  0  0  0  1  0  0  0  0  0  0
  191.5850  176.3410  145.9190 N   0  0  0  0  0  1  0  0  0  0  0  0
  185.6380  178.8680  145.4670 C   0  0  0  0  0  3  0  0  0  0  0  0
  185.0880  178.2930  146.5300 C   0  0  0  0  0  2  0  0  0  0  0  0
  3 14  1  6  0  0  0
  3  4  1  0  0  0  0
  4 10  1  6  0  0  0
  4  2  1  0  0  0  0
  5 10  2  0  0  0  0
  6  1  2  0  0  0  0
  7 29  1  6  0  0  0
  7 16  1  0  0  0  0
  8  1  1  6  0  0  0
  8  5  1  0  0  0  0
  8 15  1  0  0  0  0
  9  7  1  0  0  0  0
  9  6  2  0  0  0  0
 10 12  1  0  0  0  0
 11 15  2  0  0  0  0
 12 38  1  0  0  0  0
 13 32  1  1  0  0  0
 13  2  1  0  0  0  0
 14 13  1  0  0  0  0
 15 17  1  0  0  0  0
 17 12  2  0  0  0  0
 18 16  1  6  0  0  0
 18  5  1  0  0  0  0
 18  3  1  0  0  0  0
 20 31  2  0  0  0  0
 21 26  1  0  0  0  0
 21 23  1  0  0  0  0
 25 28  1  0  0  0  0
 25 30  1  0  0  0  0
 26 29  1  0  0  0  0
 27 30  1  0  0  0  0
 27 23  1  0  0  0  0
 27 24  1  1  0  0  0
 28 26  1  0  0  0  0
 29 22  2  0  0  0  0
 30 31  1  0  0  0  0
 31 19  1  0  0  0  0
 32 35  1  0  0  0  0
 32 33  2  0  0  0  0
 34 37  1  0  0  0  0
 35 34  2  0  0  0  0
 36 34  1  0  0  0  0
 38 39  2  0  0  0  0
M  END
>  <MODEL>
4

>  <REMARK>
 VINA RESULT:      -8.3      2.854      5.670
  Name = 
  4 active torsions:
  status: ('A' for Active; 'I' for Inactive)
    1  A    between atoms: N_9  and  C_25
    2  A    between atoms: C_15  and  C_35
    3  A    between atoms: C_24  and  C_31
    4  A    between atoms: C_25  and  C_27
                            x       y       z     vdW  Elec       q    Type
                         _______ _______ _______ _____ _____    ______ ____

>  <TORSDO>
F 4

$$$$
=
 OpenBabel11042411023D

 39 43  0  0  1  0  0  0  0  0999 V2000
  185.2490  179.1260  145.2770 C   0  0  0  0  0  3  0  0  0  0  0  0
  190.1000  177.9000  141.5720 S   0  0  0  0  0  0  0  0  0  0  0  0
  187.5280  177.3450  141.6360 C   0  0  2  0  0  3  0  0  0  0  0  0
  188.5810  177.4800  142.3990 C   0  0  2  0  0  3  0  0  0  0  0  0
  186.8290  177.8560  143.7810 C   0  0  0  0  0  0  0  0  0  0  0  0
  184.4280  179.4640  144.3330 C   0  0  0  0  0  0  0  0  0  0  0  0
  184.0700  178.8560  142.0580 C   0  0  2  0  0  3  0  0  0  0  0  0
  186.0590  177.8770  145.0970 C   0  0  1  0  0  3  0  0  0  0  0  0
  183.7430  179.6890  143.2550 C   0  0  0  0  0  3  0  0  0  0  0  0
  188.1570  177.8150  143.7460 C   0  0  0  0  0  0  0  0  0  0  0  0
  186.4870  177.5190  147.4280 O   0  0  0  0  0  0  0  0  0  0  0  0
  188.9830  177.8380  144.9680 C   0  0  0  0  0  0  0  0  0  0  0  0
  189.0810  178.3230  140.1090 C   0  0  2  0  0  3  0  0  0  0  0  0
  187.7730  177.5370  140.1850 C   0  0  0  0  0  2  0  0  0  0  0  0
  186.9760  177.7100  146.2830 C   0  0  0  0  0  0  0  0  0  0  0  0
  185.5790  178.8390  141.7910 C   0  0  0  0  0  2  0  0  0  0  0  0
  188.4030  177.7790  146.1320 N   0  0  0  0  0  0  0  0  0  0  0  0
  186.2590  177.6030  142.3950 C   0  0  1  0  0  3  0  0  0  0  0  0
  182.2380  175.6290  139.7080 O   0  0  0  0  0  1  0  0  0  0  0  0
  182.2750  176.9620  137.8520 O   0  0  0  0  0  0  0  0  0  0  0  0
  181.1250  179.0110  142.0250 C   0  0  0  0  0  2  0  0  0  0  0  0
  183.9800  179.7530  139.8480 O   0  0  0  0  0  0  0  0  0  0  0  0
  180.9550  177.4940  142.0760 C   0  0  0  0  0  2  0  0  0  0  0  0
  179.6800  175.5660  141.0770 C   0  0  0  0  0  1  0  0  0  0  0  0
  180.2900  178.6420  139.0720 C   0  0  0  0  0  2  0  0  0  0  0  0
  181.8940  179.3930  140.8420 N   0  0  0  0  0  0  0  0  0  0  0  0
  180.0470  177.0350  140.9430 C   0  0  2  0  0  3  0  0  0  0  0  0
  181.1910  179.7660  139.6110 C   0  0  0  0  0  2  0  0  0  0  0  0
  183.3310  179.3570  140.8550 C   0  0  0  0  0  0  0  0  0  0  0  0
  180.6390  177.3440  139.6390 N   0  0  0  0  0  0  0  0  0  0  0  0
  181.7400  176.6020  139.0840 C   0  0  0  0  0  0  0  0  0  0  0  0
  189.8050  178.0370  138.8370 C   0  0  0  0  0  0  0  0  0  0  0  0
  189.5840  178.7430  137.8160 O   0  0  0  0  0  0  0  0  0  0  0  0
  190.6300  175.8200  138.2180 C   0  0  0  0  0  0  0  0  0  0  0  0
  190.7620  176.9680  138.8160 N   0  0  0  0  0  0  0  0  0  0  0  0
  191.6940  174.8780  138.2820 N   0  0  0  0  0  1  0  0  0  0  0  0
  189.4450  175.4820  137.4990 N   0  0  0  0  0  1  0  0  0  0  0  0
  190.4500  177.8850  144.8710 C   0  0  0  0  0  3  0  0  0  0  0  0
  191.2170  176.8440  145.1730 C   0  0  0  0  0  2  0  0  0  0  0  0
  3 14  1  6  0  0  0
  3 18  1  0  0  0  0
  3  4  1  0  0  0  0
  4  2  1  6  0  0  0
  4 10  1  0  0  0  0
  5  8  1  0  0  0  0
  6  1  2  0  0  0  0
  7 29  1  6  0  0  0
  7  9  1  0  0  0  0
  8  1  1  1  0  0  0
  8 15  1  0  0  0  0
  9  6  2  0  0  0  0
 10  5  2  0  0  0  0
 10 12  1  0  0  0  0
 12 17  2  0  0  0  0
 13 32  1  6  0  0  0
 13 14  1  0  0  0  0
 13  2  1  0  0  0  0
 15 11  2  0  0  0  0
 16  7  1  0  0  0  0
 17 15  1  0  0  0  0
 18 16  1  6  0  0  0
 18  5  1  0  0  0  0
 20 31  2  0  0  0  0
 21 23  1  0  0  0  0
 22 29  2  0  0  0  0
 25 28  1  0  0  0  0
 25 30  1  0  0  0  0
 26 29  1  0  0  0  0
 26 21  1  0  0  0  0
 27 24  1  6  0  0  0
 27 23  1  0  0  0  0
 28 26  1  0  0  0  0
 30 27  1  0  0  0  0
 31 30  1  0  0  0  0
 31 19  1  0  0  0  0
 33 32  2  0  0  0  0
 34 36  1  0  0  0  0
 34 35  2  0  0  0  0
 35 32  1  0  0  0  0
 37 34  1  0  0  0  0
 38 12  1  0  0  0  0
 38 39  2  0  0  0  0
M  END
>  <MODEL>
5

>  <REMARK>
 VINA RESULT:      -8.2      1.421      1.480
  Name = 
  4 active torsions:
  status: ('A' for Active; 'I' for Inactive)
    1  A    between atoms: N_9  and  C_25
    2  A    between atoms: C_15  and  C_35
    3  A    between atoms: C_24  and  C_31
    4  A    between atoms: C_25  and  C_27
                            x       y       z     vdW  Elec       q    Type
                         _______ _______ _______ _____ _____    ______ ____

>  <TORSDO>
F 4

$$$$
=
 OpenBabel11042411023D

 39 43  0  0  1  0  0  0  0  0999 V2000
  190.2970  176.7820  141.6120 C   0  0  0  0  0  3  0  0  0  0  0  0
  184.3310  178.1290  142.7710 S   0  0  0  0  0  0  0  0  0  0  0  0
  186.2870  179.1170  141.3150 C   0  0  2  0  0  3  0  0  0  0  0  0
  186.0310  178.5580  142.4690 C   0  0  2  0  0  3  0  0  0  0  0  0
  188.2200  178.1200  142.1030 C   0  0  0  0  0  0  0  0  0  0  0  0
  190.2260  176.9090  140.3240 C   0  0  0  0  0  0  0  0  0  0  0  0
  188.9810  178.2370  138.7880 C   0  0  2  0  0  3  0  0  0  0  0  0
  189.6770  177.8470  142.4640 C   0  0  1  0  0  3  0  0  0  0  0  0
  189.9740  177.1580  139.0760 C   0  0  0  0  0  3  0  0  0  0  0  0
  187.2330  177.9160  142.9680 C   0  0  0  0  0  0  0  0  0  0  0  0
  190.9800  177.3910  144.4230 O   0  0  0  0  0  0  0  0  0  0  0  0
  187.4620  177.3650  144.3170 C   0  0  0  0  0  0  0  0  0  0  0  0
  184.0440  178.3730  140.9770 C   0  0  2  0  0  3  0  0  0  0  0  0
  185.1060  179.3320  140.4430 C   0  0  0  0  0  2  0  0  0  0  0  0
  189.8290  177.4670  143.9160 C   0  0  0  0  0  0  0  0  0  0  0  0
  187.7030  178.0470  139.6100 C   0  0  0  0  0  2  0  0  0  0  0  0
  188.6820  177.1770  144.7310 N   0  0  0  0  0  0  0  0  0  0  0  0
  187.7100  178.8880  140.8940 C   0  0  1  0  0  3  0  0  0  0  0  0
  191.2090  175.2430  136.4710 O   0  0  0  0  0  1  0  0  0  0  0  0
  190.9750  176.5250  134.5940 O   0  0  0  0  0  0  0  0  0  0  0  0
  187.2190  176.2240  137.5480 C   0  0  0  0  0  2  0  0  0  0  0  0
  189.1320  179.2090  136.6130 O   0  0  0  0  0  0  0  0  0  0  0  0
  188.2080  175.0840  137.7770 C   0  0  0  0  0  2  0  0  0  0  0  0
  189.2810  173.0840  136.6850 C   0  0  0  0  0  1  0  0  0  0  0  0
  188.1570  175.9660  134.6150 C   0  0  0  0  0  2  0  0  0  0  0  0
  187.8310  177.2680  136.7280 N   0  0  0  0  0  0  0  0  0  0  0  0
  188.4690  174.3510  136.4680 C   0  0  2  0  0  3  0  0  0  0  0  0
  187.6390  177.2550  135.2760 C   0  0  0  0  0  2  0  0  0  0  0  0
  188.6640  178.2760  137.3240 C   0  0  0  0  0  0  0  0  0  0  0  0
  189.0820  175.2430  135.4800 N   0  0  0  0  0  0  0  0  0  0  0  0
  190.4590  175.6550  135.5470 C   0  0  0  0  0  0  0  0  0  0  0  0
  182.6710  178.8890  140.7080 C   0  0  0  0  0  0  0  0  0  0  0  0
  182.4210  179.4710  139.6170 O   0  0  0  0  0  0  0  0  0  0  0  0
  180.5880  177.9520  141.5810 C   0  0  0  0  0  0  0  0  0  0  0  0
  181.6530  178.6880  141.7000 N   0  0  0  0  0  0  0  0  0  0  0  0
  179.6890  177.8490  142.6790 N   0  0  0  0  0  1  0  0  0  0  0  0
  180.2980  177.2440  140.3770 N   0  0  0  0  0  1  0  0  0  0  0  0
  186.3250  177.0720  145.2020 C   0  0  0  0  0  3  0  0  0  0  0  0
  185.9910  177.8590  146.2180 C   0  0  0  0  0  2  0  0  0  0  0  0
  3 14  1  6  0  0  0
  3  4  1  0  0  0  0
  4  2  1  6  0  0  0
  4 10  1  0  0  0  0
  5  8  1  0  0  0  0
  5 10  2  0  0  0  0
  6  1  2  0  0  0  0
  7 29  1  6  0  0  0
  7  9  1  0  0  0  0
  7 16  1  0  0  0  0
  8  1  1  6  0  0  0
  8 15  1  0  0  0  0
  9  6  2  0  0  0  0
 10 12  1  0  0  0  0
 12 17  2  0  0  0  0
 12 38  1  0  0  0  0
 13 32  1  1  0  0  0
 13  2  1  0  0  0  0
 14 13  1  0  0  0  0
 15 11  2  0  0  0  0
 15 17  1  0  0  0  0
 18 16  1  6  0  0  0
 18  3  1  0  0  0  0
 18  5  1  0  0  0  0
 20 31  2  0  0  0  0
 21 23  1  0  0  0  0
 22 29  2  0  0  0  0
 25 28  1  0  0  0  0
 25 30  1  0  0  0  0
 26 29  1  0  0  0  0
 26 21  1  0  0  0  0
 27 24  1  1  0  0  0
 27 23  1  0  0  0  0
 28 26  1  0  0  0  0
 30 31  1  0  0  0  0
 30 27  1  0  0  0  0
 31 19  1  0  0  0  0
 32 35  1  0  0  0  0
 33 32  2  0  0  0  0
 34 35  2  0  0  0  0
 34 36  1  0  0  0  0
 37 34  1  0  0  0  0
 38 39  2  0  0  0  0
M  END
>  <MODEL>
6

>  <REMARK>
 VINA RESULT:      -8.2      2.908      6.877
  Name = 
  4 active torsions:
  status: ('A' for Active; 'I' for Inactive)
    1  A    between atoms: N_9  and  C_25
    2  A    between atoms: C_15  and  C_35
    3  A    between atoms: C_24  and  C_31
    4  A    between atoms: C_25  and  C_27
                            x       y       z     vdW  Elec       q    Type
                         _______ _______ _______ _____ _____    ______ ____

>  <TORSDO>
F 4

$$$$
=
 OpenBabel11042411023D

 39 43  0  0  1  0  0  0  0  0999 V2000
  186.5720  176.5010  136.1490 C   0  0  0  0  0  3  0  0  0  0  0  0
  187.3080  178.2130  142.0880 S   0  0  0  0  0  0  0  0  0  0  0  0
  185.6070  178.6860  140.1380 C   0  0  2  0  0  3  0  0  0  0  0  0
  186.8780  178.5080  140.3870 C   0  0  2  0  0  3  0  0  0  0  0  0
  186.6470  177.9520  138.2060 C   0  0  0  0  0  0  0  0  0  0  0  0
  185.3080  176.2310  136.2310 C   0  0  0  0  0  0  0  0  0  0  0  0
  183.4490  177.0440  137.4790 C   0  0  2  0  0  3  0  0  0  0  0  0
  187.0640  177.7830  136.7490 C   0  0  1  0  0  3  0  0  0  0  0  0
  184.0450  176.0910  136.4940 C   0  0  0  0  0  3  0  0  0  0  0  0
  187.5410  178.0340  139.1870 C   0  0  0  0  0  0  0  0  0  0  0  0
  189.0600  177.9280  135.4300 O   0  0  0  0  0  0  0  0  0  0  0  0
  188.9910  177.9160  138.9480 C   0  0  0  0  0  0  0  0  0  0  0  0
  185.5280  177.9030  142.3920 C   0  0  2  0  0  3  0  0  0  0  0  0
  184.7190  178.6410  141.3260 C   0  0  0  0  0  2  0  0  0  0  0  0
  188.5620  177.8610  136.5850 C   0  0  0  0  0  0  0  0  0  0  0  0
  184.2980  177.1300  138.7510 C   0  0  0  0  0  2  0  0  0  0  0  0
  189.4340  177.8470  137.7260 N   0  0  0  0  0  0  0  0  0  0  0  0
  185.2660  178.3210  138.7220 C   0  0  1  0  0  3  0  0  0  0  0  0
  181.7070  179.4280  140.7320 O   0  0  0  0  0  0  0  0  0  0  0  0
  180.2660  177.7200  141.2090 O   0  0  0  0  0  1  0  0  0  0  0  0
  181.1410  178.6530  136.5950 C   0  0  0  0  0  2  0  0  0  0  0  0
  181.8420  175.5730  138.4550 O   0  0  0  0  0  0  0  0  0  0  0  0
  181.5080  179.8360  137.4880 C   0  0  0  0  0  2  0  0  0  0  0  0
  180.5620  181.5300  139.0930 C   0  0  0  0  0  1  0  0  0  0  0  0
  178.9330  178.2050  138.7100 C   0  0  0  0  0  2  0  0  0  0  0  0
  180.9330  177.4540  137.4040 N   0  0  0  0  0  0  0  0  0  0  0  0
  180.3110  180.2310  138.3440 C   0  0  2  0  0  3  0  0  0  0  0  0
  179.5810  177.1070  137.8500 C   0  0  0  0  0  2  0  0  0  0  0  0
  182.0450  176.6400  137.8120 C   0  0  0  0  0  0  0  0  0  0  0  0
  179.9220  179.1390  139.2380 N   0  0  0  0  0  0  0  0  0  0  0  0
  180.6720  178.7850  140.4140 C   0  0  0  0  0  0  0  0  0  0  0  0
  185.1240  178.3300  143.7620 C   0  0  0  0  0  0  0  0  0  0  0  0
  183.9460  178.7270  143.9750 O   0  0  0  0  0  0  0  0  0  0  0  0
  185.8590  178.3720  146.0930 C   0  0  0  0  0  0  0  0  0  0  0  0
  186.0920  178.2570  144.8190 N   0  0  0  0  0  0  0  0  0  0  0  0
  186.9400  178.2520  147.0100 N   0  0  0  0  0  1  0  0  0  0  0  0
  184.5460  178.6170  146.5960 N   0  0  0  0  0  1  0  0  0  0  0  0
  189.9310  177.9210  140.0790 C   0  0  0  0  0  3  0  0  0  0  0  0
  190.6040  176.8380  140.4510 C   0  0  0  0  0  2  0  0  0  0  0  0
  1  6  2  0  0  0  0
  2 13  1  0  0  0  0
  3  4  1  0  0  0  0
  3 14  1  1  0  0  0
  4 10  1  6  0  0  0
  4  2  1  0  0  0  0
  5 18  1  0  0  0  0
  5 10  2  0  0  0  0
  6  9  2  0  0  0  0
  7 29  1  1  0  0  0
  7 16  1  0  0  0  0
  8  1  1  1  0  0  0
  8  5  1  0  0  0  0
  9  7  1  0  0  0  0
 11 15  2  0  0  0  0
 12 10  1  0  0  0  0
 12 38  1  0  0  0  0
 13 32  1  1  0  0  0
 14 13  1  0  0  0  0
 15  8  1  0  0  0  0
 15 17  1  0  0  0  0
 17 12  2  0  0  0  0
 18 16  1  1  0  0  0
 18  3  1  0  0  0  0
 21 26  1  0  0  0  0
 21 23  1  0  0  0  0
 23 27  1  0  0  0  0
 25 30  1  0  0  0  0
 26 29  1  0  0  0  0
 26 28  1  0  0  0  0
 27 24  1  1  0  0  0
 27 30  1  0  0  0  0
 28 25  1  0  0  0  0
 29 22  2  0  0  0  0
 30 31  1  0  0  0  0
 31 19  2  0  0  0  0
 31 20  1  0  0  0  0
 32 33  2  0  0  0  0
 32 35  1  0  0  0  0
 34 37  1  0  0  0  0
 34 36  1  0  0  0  0
 35 34  2  0  0  0  0
 38 39  2  0  0  0  0
M  END
>  <MODEL>
7

>  <REMARK>
 VINA RESULT:      -8.0      2.637      6.692
  Name = 
  4 active torsions:
  status: ('A' for Active; 'I' for Inactive)
    1  A    between atoms: N_9  and  C_25
    2  A    between atoms: C_15  and  C_35
    3  A    between atoms: C_24  and  C_31
    4  A    between atoms: C_25  and  C_27
                            x       y       z     vdW  Elec       q    Type
                         _______ _______ _______ _____ _____    ______ ____

>  <TORSDO>
F 4

$$$$
=
 OpenBabel11042411023D

 39 43  0  0  1  0  0  0  0  0999 V2000
  186.9090  177.3430  137.5820 C   0  0  0  0  0  3  0  0  0  0  0  0
  187.5180  177.5310  143.7740 S   0  0  0  0  0  0  0  0  0  0  0  0
  186.3380  178.9580  141.9050 C   0  0  2  0  0  3  0  0  0  0  0  0
  187.4230  178.2740  142.1600 C   0  0  2  0  0  3  0  0  0  0  0  0
  187.2620  178.2550  139.9030 C   0  0  0  0  0  0  0  0  0  0  0  0
  185.6310  177.5580  137.5560 C   0  0  0  0  0  0  0  0  0  0  0  0
  184.0580  178.7650  138.8750 C   0  0  2  0  0  3  0  0  0  0  0  0
  187.7550  178.2130  138.4610 C   0  0  1  0  0  3  0  0  0  0  0  0
  184.3810  177.8570  137.7330 C   0  0  0  0  0  3  0  0  0  0  0  0
  188.0050  177.8140  140.9130 C   0  0  0  0  0  0  0  0  0  0  0  0
  189.8080  177.8380  137.2820 O   0  0  0  0  0  0  0  0  0  0  0  0
  189.3340  177.2070  140.7120 C   0  0  0  0  0  0  0  0  0  0  0  0
  185.7230  177.8630  143.9350 C   0  0  2  0  0  3  0  0  0  0  0  0
  185.3630  179.0320  143.0200 C   0  0  0  0  0  2  0  0  0  0  0  0
  189.1890  177.7520  138.3760 C   0  0  0  0  0  0  0  0  0  0  0  0
  184.7280  178.2910  140.1680 C   0  0  0  0  0  2  0  0  0  0  0  0
  189.8600  177.2020  139.5210 N   0  0  0  0  0  0  0  0  0  0  0  0
  186.0550  179.0150  140.4310 C   0  0  1  0  0  3  0  0  0  0  0  0
  181.8010  176.6200  135.7760 O   0  0  0  0  0  0  0  0  0  0  0  0
  180.0020  177.9790  136.1480 O   0  0  0  0  0  1  0  0  0  0  0  0
  182.4950  176.5150  139.9650 C   0  0  0  0  0  2  0  0  0  0  0  0
  181.9850  179.9440  138.7730 O   0  0  0  0  0  0  0  0  0  0  0  0
  182.7530  175.6280  138.7500 C   0  0  0  0  0  2  0  0  0  0  0  0
  181.6520  174.0540  137.1210 C   0  0  0  0  0  1  0  0  0  0  0  0
  179.6730  176.7640  138.7310 C   0  0  0  0  0  2  0  0  0  0  0  0
  181.8220  177.7470  139.5580 N   0  0  0  0  0  0  0  0  0  0  0  0
  181.4340  175.1040  138.1980 C   0  0  2  0  0  3  0  0  0  0  0  0
  180.3590  177.8240  139.6090 C   0  0  0  0  0  2  0  0  0  0  0  0
  182.5740  178.8650  139.0590 C   0  0  0  0  0  0  0  0  0  0  0  0
  180.5840  176.2050  137.7380 N   0  0  0  0  0  0  0  0  0  0  0  0
  180.8300  176.9260  136.5180 C   0  0  0  0  0  0  0  0  0  0  0  0
  185.3440  178.1510  145.3480 C   0  0  0  0  0  0  0  0  0  0  0  0
  184.2090  178.6340  145.6080 O   0  0  0  0  0  0  0  0  0  0  0  0
  186.6130  178.6130  147.3860 C   0  0  0  0  0  0  0  0  0  0  0  0
  186.2850  177.8470  146.3890 N   0  0  0  0  0  0  0  0  0  0  0  0
  187.5530  178.1420  148.3440 N   0  0  0  0  0  1  0  0  0  0  0  0
  186.0560  179.9170  147.5440 N   0  0  0  0  0  1  0  0  0  0  0  0
  190.0750  176.6500  141.8540 C   0  0  0  0  0  3  0  0  0  0  0  0
  191.1560  177.2350  142.3550 C   0  0  0  0  0  2  0  0  0  0  0  0
  2 13  1  0  0  0  0
  3  4  1  0  0  0  0
  3 14  1  1  0  0  0
  4 10  1  6  0  0  0
  4  2  1  0  0  0  0
  5 18  1  0  0  0  0
  5 10  2  0  0  0  0
  6  1  2  0  0  0  0
  6  9  2  0  0  0  0
  7 29  1  1  0  0  0
  7 16  1  0  0  0  0
  8  1  1  6  0  0  0
  8  5  1  0  0  0  0
  9  7  1  0  0  0  0
 11 15  2  0  0  0  0
 12 10  1  0  0  0  0
 12 38  1  0  0  0  0
 13 32  1  1  0  0  0
 14 13  1  0  0  0  0
 15  8  1  0  0  0  0
 15 17  1  0  0  0  0
 17 12  2  0  0  0  0
 18 16  1  1  0  0  0
 18  3  1  0  0  0  0
 19 31  2  0  0  0  0
 20 31  1  0  0  0  0
 22 29  2  0  0  0  0
 23 21  1  0  0  0  0
 25 28  1  0  0  0  0
 26 28  1  0  0  0  0
 26 21  1  0  0  0  0
 27 24  1  6  0  0  0
 27 23  1  0  0  0  0
 29 26  1  0  0  0  0
 30 27  1  0  0  0  0
 30 25  1  0  0  0  0
 31 30  1  0  0  0  0
 32 33  2  0  0  0  0
 32 35  1  0  0  0  0
 34 37  1  0  0  0  0
 34 36  1  0  0  0  0
 35 34  2  0  0  0  0
 38 39  2  0  0  0  0
M  END
>  <MODEL>
8

>  <REMARK>
 VINA RESULT:      -7.4      2.198      5.965
  Name = 
  4 active torsions:
  status: ('A' for Active; 'I' for Inactive)
    1  A    between atoms: N_9  and  C_25
    2  A    between atoms: C_15  and  C_35
    3  A    between atoms: C_24  and  C_31
    4  A    between atoms: C_25  and  C_27
                            x       y       z     vdW  Elec       q    Type
                         _______ _______ _______ _____ _____    ______ ____

>  <TORSDO>
F 4

$$$$
