=
 OpenBabel11032421243D

 34 35  0  0  1  0  0  0  0  0999 V2000
  186.2100  177.7010  135.9190 C   0  0  0  0  0  0  0  0  0  0  0  0
  185.7000  173.7930  137.2910 C   0  0  0  0  0  2  0  0  0  0  0  0
  185.9670  171.9220  135.6830 C   0  0  0  0  0  3  0  0  0  0  0  0
  184.6330  172.1890  135.0640 C   0  0  0  0  0  1  0  0  0  0  0  0
  189.2680  177.4220  135.1300 O   0  0  0  0  0  0  0  0  0  0  0  0
  188.9260  172.5440  136.2520 C   0  0  0  0  0  2  0  0  0  0  0  0
  188.4370  174.6820  135.3380 O   0  0  0  0  0  0  0  0  0  0  0  0
  192.7000  174.4490  137.3950 C   0  0  0  0  0  0  0  0  0  0  0  0
  185.9690  177.5580  134.7310 O   0  0  0  0  0  0  0  0  0  0  0  0
  191.4660  176.4760  137.8780 C   0  0  0  0  0  3  0  0  0  0  0  0
  183.9210  175.6670  135.6950 O   0  0  0  0  0  1  0  0  0  0  0  0
  192.6510  175.7420  137.9290 C   0  0  0  0  0  3  0  0  0  0  0  0
  186.4620  172.6500  136.6930 C   0  0  0  0  0  0  0  0  0  0  0  0
  187.4690  178.3880  136.3430 C   0  0  0  0  0  2  0  0  0  0  0  0
  191.5600  173.9060  136.8020 C   0  0  0  0  0  3  0  0  0  0  0  0
  187.8060  172.3080  137.2610 C   0  0  0  0  0  2  0  0  0  0  0  0
  190.3650  174.6360  136.7270 C   0  0  0  0  0  0  0  0  0  0  0  0
  188.6550  177.4800  136.2290 C   0  0  0  0  0  0  0  0  0  0  0  0
  189.1990  174.0050  136.0760 C   0  0  0  0  0  0  0  0  0  0  0  0
  185.9210  174.9460  136.5340 O   0  0  0  0  0  0  0  0  0  0  0  0
  190.3190  175.9410  137.2790 C   0  0  0  0  0  0  0  0  0  0  0  0
  185.2410  177.2180  136.9600 C   0  0  0  0  0  2  0  0  0  0  0  0
  184.8130  175.7630  136.7660 C   0  0  1  0  0  3  0  0  0  0  0  0
  189.0960  176.6900  137.3490 N   0  0  0  0  0  0  0  0  0  0  0  0
  188.4960  176.9110  138.6640 C   0  0  0  0  0  2  0  0  0  0  0  0
  188.9940  179.1910  139.2380 O   0  0  0  0  0  1  0  0  0  0  0  0
  189.3460  177.8630  139.4940 C   0  0  1  0  0  3  0  0  0  0  0  0
  189.2270  177.5540  140.9860 C   0  0  0  0  0  2  0  0  0  0  0  0
  190.4470  176.8880  141.5350 C   0  0  0  0  0  0  0  0  0  0  0  0
  191.7270  177.4830  141.3550 N   0  0  0  0  0  1  0  0  0  0  0  0
  190.3410  175.8130  142.1800 O   0  0  0  0  0  0  0  0  0  0  0  0
  193.9020  173.6770  137.4420 N   0  0  0  0  0  2  0  0  0  0  0  0
  195.0500  174.1190  138.1170 N   0  0  0  0  0  2  0  0  0  0  0  0
  195.3480  173.1840  139.0500 O   0  0  0  0  0  1  0  0  0  0  0  0
  1 14  1  0  0  0  0
  1 22  1  0  0  0  0
  3 13  2  0  0  0  0
  4  3  1  0  0  0  0
  5 18  2  0  0  0  0
  6 16  1  0  0  0  0
  7 19  2  0  0  0  0
  8 32  1  0  0  0  0
  8 12  1  0  0  0  0
  9  1  2  0  0  0  0
 10 12  2  0  0  0  0
 13 16  1  0  0  0  0
 13  2  1  0  0  0  0
 15  8  2  0  0  0  0
 17 15  1  0  0  0  0
 17 21  2  0  0  0  0
 18 14  1  0  0  0  0
 18 24  1  0  0  0  0
 19  6  1  0  0  0  0
 19 17  1  0  0  0  0
 20 23  1  0  0  0  0
 20  2  1  0  0  0  0
 21 24  1  0  0  0  0
 21 10  1  0  0  0  0
 23 11  1  6  0  0  0
 23 22  1  0  0  0  0
 24 25  1  0  0  0  0
 25 27  1  0  0  0  0
 27 26  1  1  0  0  0
 27 28  1  0  0  0  0
 28 29  1  0  0  0  0
 29 31  2  0  0  0  0
 30 29  1  0  0  0  0
 32 33  1  0  0  0  0
 33 34  1  0  0  0  0
M  END
>  <MODEL>
1

>  <REMARK>
 VINA RESULT:      -6.6      0.000      0.000
  Name = 
  6 active torsions:
  status: ('A' for Active; 'I' for Inactive)
    1  A    between atoms: C_8  and  N_11
    2  A    between atoms: C_9  and  C_23
    3  A    between atoms: C_9  and  N_34
    4  A    between atoms: C_10  and  C_15
    5  A    between atoms: N_11  and  N_21
    6  A    between atoms: C_15  and  C_23
                            x       y       z     vdW  Elec       q    Type
                         _______ _______ _______ _____ _____    ______ ____

>  <TORSDO>
F 6

$$$$
=
 OpenBabel11032421243D

 34 35  0  0  1  0  0  0  0  0999 V2000
  181.3610  179.3410  138.6570 C   0  0  0  0  0  0  0  0  0  0  0  0
  182.4090  175.4630  137.5240 C   0  0  0  0  0  2  0  0  0  0  0  0
  183.4650  175.1160  135.3060 C   0  0  0  0  0  3  0  0  0  0  0  0
  182.1600  175.2820  134.5960 C   0  0  0  0  0  1  0  0  0  0  0  0
  184.3020  180.5250  138.6950 O   0  0  0  0  0  0  0  0  0  0  0  0
  185.9020  176.1280  136.8880 C   0  0  0  0  0  2  0  0  0  0  0  0
  184.6310  178.1150  137.1710 O   0  0  0  0  0  0  0  0  0  0  0  0
  188.5490  177.9950  139.8350 C   0  0  0  0  0  0  0  0  0  0  0  0
  181.2420  179.8720  137.5650 O   0  0  0  0  0  0  0  0  0  0  0  0
  186.5890  178.8400  140.9780 C   0  0  0  0  0  3  0  0  0  0  0  0
  180.0900  177.2750  136.7750 O   0  0  0  0  0  1  0  0  0  0  0  0
  187.9650  178.6210  140.9420 C   0  0  0  0  0  3  0  0  0  0  0  0
  183.5880  175.2020  136.6370 C   0  0  0  0  0  0  0  0  0  0  0  0
  182.2220  179.9760  139.7030 C   0  0  0  0  0  2  0  0  0  0  0  0
  187.7460  177.6030  138.7640 C   0  0  0  0  0  3  0  0  0  0  0  0
  184.9340  175.0120  137.2690 C   0  0  0  0  0  2  0  0  0  0  0  0
  186.3620  177.8310  138.7750 C   0  0  0  0  0  0  0  0  0  0  0  0
  183.6750  179.7270  139.4420 C   0  0  0  0  0  0  0  0  0  0  0  0
  185.5730  177.4000  137.6030 C   0  0  0  0  0  0  0  0  0  0  0  0
  182.1780  176.8390  137.5950 O   0  0  0  0  0  0  0  0  0  0  0  0
  185.7750  178.4560  139.9040 C   0  0  0  0  0  0  0  0  0  0  0  0
  180.6280  178.0680  138.9720 C   0  0  0  0  0  2  0  0  0  0  0  0
  180.8270  176.9740  137.9220 C   0  0  1  0  0  3  0  0  0  0  0  0
  184.3530  178.6030  140.0340 N   0  0  0  0  0  0  0  0  0  0  0  0
  183.6660  177.8000  141.0430 C   0  0  0  0  0  2  0  0  0  0  0  0
  182.0270  178.5250  142.6460 O   0  0  0  0  0  1  0  0  0  0  0  0
  183.3740  178.6290  142.2870 C   0  0  1  0  0  3  0  0  0  0  0  0
  184.2730  178.2160  143.4520 C   0  0  0  0  0  2  0  0  0  0  0  0
  184.3540  179.2620  144.5160 C   0  0  0  0  0  0  0  0  0  0  0  0
  184.1630  178.9070  145.8810 N   0  0  0  0  0  1  0  0  0  0  0  0
  184.6150  180.4540  144.2100 O   0  0  0  0  0  0  0  0  0  0  0  0
  189.9570  177.7540  139.7810 N   0  0  0  0  0  2  0  0  0  0  0  0
  190.5050  176.4750  139.9580 N   0  0  0  0  0  2  0  0  0  0  0  0
  190.2900  176.1250  141.2490 O   0  0  0  0  0  1  0  0  0  0  0  0
  1 22  1  0  0  0  0
  1 14  1  0  0  0  0
  2 20  1  0  0  0  0
  3 13  2  0  0  0  0
  4  3  1  0  0  0  0
  5 18  2  0  0  0  0
  6 16  1  0  0  0  0
  6 19  1  0  0  0  0
  7 19  2  0  0  0  0
  8 12  1  0  0  0  0
  9  1  2  0  0  0  0
 12 10  2  0  0  0  0
 13 16  1  0  0  0  0
 13  2  1  0  0  0  0
 15 17  1  0  0  0  0
 15  8  2  0  0  0  0
 17 21  2  0  0  0  0
 18 14  1  0  0  0  0
 18 24  1  0  0  0  0
 19 17  1  0  0  0  0
 20 23  1  0  0  0  0
 21 24  1  0  0  0  0
 21 10  1  0  0  0  0
 23 11  1  6  0  0  0
 23 22  1  0  0  0  0
 24 25  1  0  0  0  0
 25 27  1  0  0  0  0
 27 26  1  1  0  0  0
 27 28  1  0  0  0  0
 28 29  1  0  0  0  0
 29 30  1  0  0  0  0
 31 29  2  0  0  0  0
 32  8  1  0  0  0  0
 32 33  1  0  0  0  0
 33 34  1  0  0  0  0
M  END
>  <MODEL>
2

>  <REMARK>
 VINA RESULT:      -5.6      4.210      5.792
  Name = 
  6 active torsions:
  status: ('A' for Active; 'I' for Inactive)
    1  A    between atoms: C_8  and  N_11
    2  A    between atoms: C_9  and  C_23
    3  A    between atoms: C_9  and  N_34
    4  A    between atoms: C_10  and  C_15
    5  A    between atoms: N_11  and  N_21
    6  A    between atoms: C_15  and  C_23
                            x       y       z     vdW  Elec       q    Type
                         _______ _______ _______ _____ _____    ______ ____

>  <TORSDO>
F 6

$$$$
=
 OpenBabel11032421243D

 34 35  0  0  1  0  0  0  0  0999 V2000
  188.7230  177.4090  134.8460 C   0  0  0  0  0  0  0  0  0  0  0  0
  190.6270  175.5060  138.0350 C   0  0  0  0  0  2  0  0  0  0  0  0
  192.2640  176.7950  139.3840 C   0  0  0  0  0  3  0  0  0  0  0  0
  193.3080  176.6910  138.3200 C   0  0  0  0  0  1  0  0  0  0  0  0
  187.1870  179.5800  136.5720 O   0  0  0  0  0  0  0  0  0  0  0  0
  189.6420  177.8590  140.5940 C   0  0  0  0  0  2  0  0  0  0  0  0
  189.1980  178.6560  138.3990 O   0  0  0  0  0  0  0  0  0  0  0  0
  185.4740  178.9930  141.3110 C   0  0  0  0  0  0  0  0  0  0  0  0
  189.5290  178.2900  134.5940 O   0  0  0  0  0  0  0  0  0  0  0  0
  184.9350  178.2060  139.0860 C   0  0  0  0  0  3  0  0  0  0  0  0
  191.5260  176.2130  135.2210 O   0  0  0  0  0  1  0  0  0  0  0  0
  184.5250  178.6660  140.3370 C   0  0  0  0  0  3  0  0  0  0  0  0
  191.0400  176.2630  139.2610 C   0  0  0  0  0  0  0  0  0  0  0  0
  187.2830  177.7570  135.0520 C   0  0  0  0  0  2  0  0  0  0  0  0
  186.8330  178.8670  141.0190 C   0  0  0  0  0  3  0  0  0  0  0  0
  190.0560  176.4050  140.3820 C   0  0  0  0  0  2  0  0  0  0  0  0
  187.2630  178.4230  139.7600 C   0  0  0  0  0  0  0  0  0  0  0  0
  187.0490  178.3380  136.4120 C   0  0  0  0  0  0  0  0  0  0  0  0
  188.7160  178.3220  139.5140 C   0  0  0  0  0  0  0  0  0  0  0  0
  190.1850  176.4050  137.0620 O   0  0  0  0  0  0  0  0  0  0  0  0
  186.2960  178.0820  138.7810 C   0  0  0  0  0  0  0  0  0  0  0  0
  189.1590  175.9740  134.9240 C   0  0  0  0  0  2  0  0  0  0  0  0
  190.3620  175.7520  135.8410 C   0  0  1  0  0  3  0  0  0  0  0  0
  186.6670  177.5020  137.5210 N   0  0  0  0  0  0  0  0  0  0  0  0
  186.3260  176.1010  137.2800 C   0  0  0  0  0  2  0  0  0  0  0  0
  184.8910  175.4310  135.4720 O   0  0  0  0  0  1  0  0  0  0  0  0
  184.9010  175.9720  136.7610 C   0  0  1  0  0  3  0  0  0  0  0  0
  184.0410  175.1300  137.7030 C   0  0  0  0  0  2  0  0  0  0  0  0
  184.2180  173.6620  137.4870 C   0  0  0  0  0  0  0  0  0  0  0  0
  185.3560  172.9950  138.0200 N   0  0  0  0  0  1  0  0  0  0  0  0
  183.3480  173.0090  136.8550 O   0  0  0  0  0  0  0  0  0  0  0  0
  185.0760  179.4600  142.6020 N   0  0  0  0  0  2  0  0  0  0  0  0
  184.0250  178.8690  143.3200 N   0  0  0  0  0  2  0  0  0  0  0  0
  184.0610  179.3830  144.5730 O   0  0  0  0  0  1  0  0  0  0  0  0
  1 22  1  0  0  0  0
  1 14  1  0  0  0  0
  2 13  1  0  0  0  0
  4  3  1  0  0  0  0
  7 19  2  0  0  0  0
  8 32  1  0  0  0  0
  9  1  2  0  0  0  0
 10 12  1  0  0  0  0
 12  8  2  0  0  0  0
 13  3  2  0  0  0  0
 13 16  1  0  0  0  0
 14 18  1  0  0  0  0
 15  8  1  0  0  0  0
 16  6  1  0  0  0  0
 17 15  2  0  0  0  0
 18  5  2  0  0  0  0
 18 24  1  0  0  0  0
 19 17  1  0  0  0  0
 19  6  1  0  0  0  0
 20  2  1  0  0  0  0
 21 10  2  0  0  0  0
 21 17  1  0  0  0  0
 22 23  1  0  0  0  0
 23 11  1  6  0  0  0
 23 20  1  0  0  0  0
 24 21  1  0  0  0  0
 25 24  1  0  0  0  0
 27 26  1  6  0  0  0
 27 25  1  0  0  0  0
 27 28  1  0  0  0  0
 29 28  1  0  0  0  0
 29 30  1  0  0  0  0
 31 29  2  0  0  0  0
 32 33  1  0  0  0  0
 33 34  1  0  0  0  0
M  END
>  <MODEL>
3

>  <REMARK>
 VINA RESULT:      -5.6      3.275      7.183
  Name = 
  6 active torsions:
  status: ('A' for Active; 'I' for Inactive)
    1  A    between atoms: C_8  and  N_11
    2  A    between atoms: C_9  and  C_23
    3  A    between atoms: C_9  and  N_34
    4  A    between atoms: C_10  and  C_15
    5  A    between atoms: N_11  and  N_21
    6  A    between atoms: C_15  and  C_23
                            x       y       z     vdW  Elec       q    Type
                         _______ _______ _______ _____ _____    ______ ____

>  <TORSDO>
F 6

$$$$
=
 OpenBabel11032421243D

 34 35  0  0  1  0  0  0  0  0999 V2000
  181.1060  176.4800  135.7640 C   0  0  0  0  0  0  0  0  0  0  0  0
  182.3940  172.9040  137.4900 C   0  0  0  0  0  2  0  0  0  0  0  0
  183.5650  171.2470  136.0620 C   0  0  0  0  0  3  0  0  0  0  0  0
  182.2860  170.8150  135.4190 C   0  0  0  0  0  1  0  0  0  0  0  0
  183.9800  177.5850  135.0100 O   0  0  0  0  0  0  0  0  0  0  0  0
  185.8750  173.2120  136.5770 C   0  0  0  0  0  2  0  0  0  0  0  0
  184.4960  174.7990  135.4690 O   0  0  0  0  0  0  0  0  0  0  0  0
  188.2910  176.7340  137.5470 C   0  0  0  0  0  0  0  0  0  0  0  0
  181.0110  176.1450  134.5940 O   0  0  0  0  0  0  0  0  0  0  0  0
  186.2420  177.9910  137.8380 C   0  0  0  0  0  3  0  0  0  0  0  0
  180.0240  173.6060  135.7240 O   0  0  0  0  0  1  0  0  0  0  0  0
  187.6280  177.8950  137.9590 C   0  0  0  0  0  3  0  0  0  0  0  0
  183.6220  172.2010  137.0010 C   0  0  0  0  0  0  0  0  0  0  0  0
  181.8860  177.7030  136.1250 C   0  0  0  0  0  2  0  0  0  0  0  0
  187.5570  175.6780  137.0040 C   0  0  0  0  0  3  0  0  0  0  0  0
  184.9460  172.5670  137.6020 C   0  0  0  0  0  2  0  0  0  0  0  0
  186.1650  175.7640  136.8590 C   0  0  0  0  0  0  0  0  0  0  0  0
  183.3610  177.4410  136.0970 C   0  0  0  0  0  0  0  0  0  0  0  0
  185.4520  174.6140  136.2680 C   0  0  0  0  0  0  0  0  0  0  0  0
  182.0920  173.9630  136.6300 O   0  0  0  0  0  0  0  0  0  0  0  0
  185.4980  176.9390  137.2890 C   0  0  0  0  0  0  0  0  0  0  0  0
  180.4230  175.6890  136.8430 C   0  0  0  0  0  2  0  0  0  0  0  0
  180.7230  174.1900  136.7830 C   0  0  1  0  0  3  0  0  0  0  0  0
  184.0650  177.0390  137.2870 N   0  0  0  0  0  0  0  0  0  0  0  0
  183.3730  177.0620  138.5740 C   0  0  0  0  0  2  0  0  0  0  0  0
  182.7830  179.3600  138.9590 O   0  0  0  0  0  1  0  0  0  0  0  0
  183.6760  178.3500  139.3280 C   0  0  1  0  0  3  0  0  0  0  0  0
  183.6400  178.1290  140.8400 C   0  0  0  0  0  2  0  0  0  0  0  0
  184.7670  178.8090  141.5480 C   0  0  0  0  0  0  0  0  0  0  0  0
  185.0230  178.5240  142.9180 N   0  0  0  0  0  1  0  0  0  0  0  0
  185.5080  179.6140  140.9260 O   0  0  0  0  0  0  0  0  0  0  0  0
  189.7100  176.6120  137.6680 N   0  0  0  0  0  2  0  0  0  0  0  0
  190.3130  175.5640  138.3780 N   0  0  0  0  0  2  0  0  0  0  0  0
  190.5460  176.0160  139.6340 O   0  0  0  0  0  1  0  0  0  0  0  0
  1 14  1  0  0  0  0
  1 22  1  0  0  0  0
  3 13  2  0  0  0  0
  4  3  1  0  0  0  0
  5 18  2  0  0  0  0
  6 16  1  0  0  0  0
  7 19  2  0  0  0  0
  8 32  1  0  0  0  0
  8 12  1  0  0  0  0
  9  1  2  0  0  0  0
 10 12  2  0  0  0  0
 13  2  1  0  0  0  0
 13 16  1  0  0  0  0
 15  8  2  0  0  0  0
 17 15  1  0  0  0  0
 17 21  2  0  0  0  0
 18 14  1  0  0  0  0
 18 24  1  0  0  0  0
 19  6  1  0  0  0  0
 19 17  1  0  0  0  0
 20 23  1  0  0  0  0
 20  2  1  0  0  0  0
 21 10  1  0  0  0  0
 23 11  1  6  0  0  0
 23 22  1  0  0  0  0
 24 21  1  0  0  0  0
 24 25  1  0  0  0  0
 25 27  1  0  0  0  0
 27 26  1  1  0  0  0
 27 28  1  0  0  0  0
 28 29  1  0  0  0  0
 29 30  1  0  0  0  0
 31 29  2  0  0  0  0
 32 33  1  0  0  0  0
 33 34  1  0  0  0  0
M  END
>  <MODEL>
4

>  <REMARK>
 VINA RESULT:      -5.4      3.151      4.884
  Name = 
  6 active torsions:
  status: ('A' for Active; 'I' for Inactive)
    1  A    between atoms: C_8  and  N_11
    2  A    between atoms: C_9  and  C_23
    3  A    between atoms: C_9  and  N_34
    4  A    between atoms: C_10  and  C_15
    5  A    between atoms: N_11  and  N_21
    6  A    between atoms: C_15  and  C_23
                            x       y       z     vdW  Elec       q    Type
                         _______ _______ _______ _____ _____    ______ ____

>  <TORSDO>
F 6

$$$$
=
 OpenBabel11032421243D

 34 35  0  0  1  0  0  0  0  0999 V2000
  190.2150  175.5450  135.0170 C   0  0  0  0  0  0  0  0  0  0  0  0
  190.9160  175.5680  139.1320 C   0  0  0  0  0  2  0  0  0  0  0  0
  191.7520  177.6540  140.1850 C   0  0  0  0  0  3  0  0  0  0  0  0
  193.1330  177.4330  139.6570 C   0  0  0  0  0  1  0  0  0  0  0  0
  187.9080  177.7210  135.0200 O   0  0  0  0  0  0  0  0  0  0  0  0
  188.7700  178.3650  139.9210 C   0  0  0  0  0  2  0  0  0  0  0  0
  189.1340  178.1230  137.5850 O   0  0  0  0  0  0  0  0  0  0  0  0
  184.5570  178.5450  138.7400 C   0  0  0  0  0  0  0  0  0  0  0  0
  190.9580  176.4440  134.6560 O   0  0  0  0  0  0  0  0  0  0  0  0
  185.0130  176.8610  137.0610 C   0  0  0  0  0  3  0  0  0  0  0  0
  192.7590  175.3650  136.7260 O   0  0  0  0  0  1  0  0  0  0  0  0
  184.1030  177.6350  137.7780 C   0  0  0  0  0  3  0  0  0  0  0  0
  190.7370  176.8120  139.9460 C   0  0  0  0  0  0  0  0  0  0  0  0
  188.7810  175.5530  134.5940 C   0  0  0  0  0  2  0  0  0  0  0  0
  185.9280  178.6800  138.9660 C   0  0  0  0  0  3  0  0  0  0  0  0
  189.3840  177.1040  140.5230 C   0  0  0  0  0  2  0  0  0  0  0  0
  186.8590  177.9220  138.2410 C   0  0  0  0  0  0  0  0  0  0  0  0
  187.9750  176.5220  135.4030 C   0  0  0  0  0  0  0  0  0  0  0  0
  188.2940  178.1220  138.5230 C   0  0  0  0  0  0  0  0  0  0  0  0
  190.7950  175.8800  137.7750 O   0  0  0  0  0  0  0  0  0  0  0  0
  186.3910  176.9940  137.2760 C   0  0  0  0  0  0  0  0  0  0  0  0
  190.7350  174.4170  135.8610 C   0  0  0  0  0  2  0  0  0  0  0  0
  191.5020  174.8840  137.0980 C   0  0  1  0  0  3  0  0  0  0  0  0
  187.2820  176.0990  136.5930 N   0  0  0  0  0  0  0  0  0  0  0  0
  187.2120  174.6760  136.9160 C   0  0  0  0  0  2  0  0  0  0  0  0
  186.0600  173.3940  135.2410 O   0  0  0  0  0  1  0  0  0  0  0  0
  185.8920  174.0790  136.4470 C   0  0  1  0  0  3  0  0  0  0  0  0
  185.2920  173.1570  137.5090 C   0  0  0  0  0  2  0  0  0  0  0  0
  183.9120  172.7020  137.1630 C   0  0  0  0  0  0  0  0  0  0  0  0
  182.8890  173.6570  136.9080 N   0  0  0  0  0  1  0  0  0  0  0  0
  183.6580  171.4730  137.0730 O   0  0  0  0  0  0  0  0  0  0  0  0
  183.6410  179.3430  139.4920 N   0  0  0  0  0  2  0  0  0  0  0  0
  182.4720  179.8740  138.9260 N   0  0  0  0  0  2  0  0  0  0  0  0
  181.4380  179.4860  139.7110 O   0  0  0  0  0  1  0  0  0  0  0  0
  1 22  1  0  0  0  0
  2 13  1  0  0  0  0
  4  3  1  0  0  0  0
  5 18  2  0  0  0  0
  6 16  1  0  0  0  0
  7 19  2  0  0  0  0
  8 15  1  0  0  0  0
  8 32  1  0  0  0  0
  9  1  2  0  0  0  0
 10 21  2  0  0  0  0
 10 12  1  0  0  0  0
 12  8  2  0  0  0  0
 13  3  2  0  0  0  0
 13 16  1  0  0  0  0
 14  1  1  0  0  0  0
 14 18  1  0  0  0  0
 17 19  1  0  0  0  0
 17 15  2  0  0  0  0
 18 24  1  0  0  0  0
 19  6  1  0  0  0  0
 20  2  1  0  0  0  0
 21 17  1  0  0  0  0
 22 23  1  0  0  0  0
 23 11  1  6  0  0  0
 23 20  1  0  0  0  0
 24 25  1  0  0  0  0
 24 21  1  0  0  0  0
 27 26  1  6  0  0  0
 27 25  1  0  0  0  0
 27 28  1  0  0  0  0
 29 28  1  0  0  0  0
 30 29  1  0  0  0  0
 31 29  2  0  0  0  0
 33 32  1  0  0  0  0
 33 34  1  0  0  0  0
M  END
>  <MODEL>
5

>  <REMARK>
 VINA RESULT:      -5.2      3.002      7.622
  Name = 
  6 active torsions:
  status: ('A' for Active; 'I' for Inactive)
    1  A    between atoms: C_8  and  N_11
    2  A    between atoms: C_9  and  C_23
    3  A    between atoms: C_9  and  N_34
    4  A    between atoms: C_10  and  C_15
    5  A    between atoms: N_11  and  N_21
    6  A    between atoms: C_15  and  C_23
                            x       y       z     vdW  Elec       q    Type
                         _______ _______ _______ _____ _____    ______ ____

>  <TORSDO>
F 6

$$$$
=
 OpenBabel11032421243D

 34 35  0  0  1  0  0  0  0  0999 V2000
  187.9740  178.3720  137.7680 C   0  0  0  0  0  0  0  0  0  0  0  0
  188.4270  176.7450  141.5850 C   0  0  0  0  0  2  0  0  0  0  0  0
  188.7890  178.2820  143.4990 C   0  0  0  0  0  3  0  0  0  0  0  0
  190.2130  178.5180  143.1130 C   0  0  0  0  0  1  0  0  0  0  0  0
  185.2960  179.9650  138.3590 O   0  0  0  0  0  0  0  0  0  0  0  0
  185.7450  178.5820  143.1600 C   0  0  0  0  0  2  0  0  0  0  0  0
  186.2780  179.4160  141.0000 O   0  0  0  0  0  0  0  0  0  0  0  0
  181.6480  178.6130  141.6150 C   0  0  0  0  0  0  0  0  0  0  0  0
  188.5500  179.4400  137.9070 O   0  0  0  0  0  0  0  0  0  0  0  0
  182.5110  177.8950  139.4690 C   0  0  0  0  0  3  0  0  0  0  0  0
  190.4060  177.8660  139.5710 O   0  0  0  0  0  1  0  0  0  0  0  0
  181.4300  178.1430  140.3150 C   0  0  0  0  0  3  0  0  0  0  0  0
  187.9680  177.4810  142.8060 C   0  0  0  0  0  0  0  0  0  0  0  0
  186.5900  178.3440  137.2010 C   0  0  0  0  0  2  0  0  0  0  0  0
  182.9520  178.8430  142.0540 C   0  0  0  0  0  3  0  0  0  0  0  0
  186.5550  177.2930  143.2690 C   0  0  0  0  0  2  0  0  0  0  0  0
  184.0500  178.6160  141.2110 C   0  0  0  0  0  0  0  0  0  0  0  0
  185.5700  178.7430  138.2220 C   0  0  0  0  0  0  0  0  0  0  0  0
  185.4030  178.8900  141.7360 C   0  0  0  0  0  0  0  0  0  0  0  0
  188.3250  177.5830  140.4710 O   0  0  0  0  0  0  0  0  0  0  0  0
  183.8230  178.1290  139.8990 C   0  0  0  0  0  0  0  0  0  0  0  0
  188.6520  177.0840  138.1370 C   0  0  0  0  0  2  0  0  0  0  0  0
  189.2460  177.0890  139.5460 C   0  0  1  0  0  3  0  0  0  0  0  0
  184.9060  177.7550  139.0330 N   0  0  0  0  0  0  0  0  0  0  0  0
  185.0910  176.3370  138.7330 C   0  0  0  0  0  2  0  0  0  0  0  0
  184.9590  175.5810  136.4550 O   0  0  0  0  0  1  0  0  0  0  0  0
  184.1950  175.9060  137.5800 C   0  0  1  0  0  3  0  0  0  0  0  0
  183.3030  174.7310  137.9810 C   0  0  0  0  0  2  0  0  0  0  0  0
  181.9900  174.7350  137.2670 C   0  0  0  0  0  0  0  0  0  0  0  0
  181.1250  173.6100  137.3610 N   0  0  0  0  0  1  0  0  0  0  0  0
  181.6380  175.7430  136.6030 O   0  0  0  0  0  0  0  0  0  0  0  0
  180.5550  178.8680  142.5000 N   0  0  0  0  0  2  0  0  0  0  0  0
  179.6780  177.8550  142.9170 N   0  0  0  0  0  2  0  0  0  0  0  0
  179.6780  177.8620  144.2720 O   0  0  0  0  0  1  0  0  0  0  0  0
  1  9  2  0  0  0  0
  1 22  1  0  0  0  0
  2 13  1  0  0  0  0
  4  3  1  0  0  0  0
  6 16  1  0  0  0  0
  7 19  2  0  0  0  0
  8 15  1  0  0  0  0
  8 32  1  0  0  0  0
 10 21  2  0  0  0  0
 10 12  1  0  0  0  0
 12  8  2  0  0  0  0
 13 16  1  0  0  0  0
 13  3  2  0  0  0  0
 14  1  1  0  0  0  0
 14 18  1  0  0  0  0
 17 19  1  0  0  0  0
 17 15  2  0  0  0  0
 18  5  2  0  0  0  0
 18 24  1  0  0  0  0
 19  6  1  0  0  0  0
 20  2  1  0  0  0  0
 21 17  1  0  0  0  0
 22 23  1  0  0  0  0
 23 11  1  6  0  0  0
 23 20  1  0  0  0  0
 24 21  1  0  0  0  0
 25 24  1  0  0  0  0
 27 26  1  6  0  0  0
 27 28  1  0  0  0  0
 27 25  1  0  0  0  0
 29 30  1  0  0  0  0
 29 28  1  0  0  0  0
 31 29  2  0  0  0  0
 32 33  1  0  0  0  0
 33 34  1  0  0  0  0
M  END
>  <MODEL>
6

>  <REMARK>
 VINA RESULT:      -4.5      4.530      9.031
  Name = 
  6 active torsions:
  status: ('A' for Active; 'I' for Inactive)
    1  A    between atoms: C_8  and  N_11
    2  A    between atoms: C_9  and  C_23
    3  A    between atoms: C_9  and  N_34
    4  A    between atoms: C_10  and  C_15
    5  A    between atoms: N_11  and  N_21
    6  A    between atoms: C_15  and  C_23
                            x       y       z     vdW  Elec       q    Type
                         _______ _______ _______ _____ _____    ______ ____

>  <TORSDO>
F 6

$$$$
=
 OpenBabel11032421243D

 34 35  0  0  1  0  0  0  0  0999 V2000
  188.5090  178.3230  137.6660 C   0  0  0  0  0  0  0  0  0  0  0  0
  188.6460  176.7060  141.5110 C   0  0  0  0  0  2  0  0  0  0  0  0
  188.7930  178.2520  143.4480 C   0  0  0  0  0  3  0  0  0  0  0  0
  190.2420  178.5200  143.1940 C   0  0  0  0  0  1  0  0  0  0  0  0
  185.7520  179.8520  138.0030 O   0  0  0  0  0  0  0  0  0  0  0  0
  185.7880  178.4800  142.8290 C   0  0  0  0  0  2  0  0  0  0  0  0
  186.4980  179.3260  140.7250 O   0  0  0  0  0  0  0  0  0  0  0  0
  181.8510  178.4140  140.9110 C   0  0  0  0  0  0  0  0  0  0  0  0
  189.0450  179.4030  137.8550 O   0  0  0  0  0  0  0  0  0  0  0  0
  182.9250  177.7160  138.8570 C   0  0  0  0  0  3  0  0  0  0  0  0
  190.7760  177.8730  139.6870 O   0  0  0  0  0  1  0  0  0  0  0  0
  181.7650  177.9390  139.5980 C   0  0  0  0  0  3  0  0  0  0  0  0
  188.0590  177.4310  142.6840 C   0  0  0  0  0  0  0  0  0  0  0  0
  187.1850  178.2620  136.9730 C   0  0  0  0  0  2  0  0  0  0  0  0
  183.1040  178.6740  141.4690 C   0  0  0  0  0  3  0  0  0  0  0  0
  186.6140  177.2100  143.0140 C   0  0  0  0  0  2  0  0  0  0  0  0
  184.2800  178.4730  140.7310 C   0  0  0  0  0  0  0  0  0  0  0  0
  186.0660  178.6370  137.8950 C   0  0  0  0  0  0  0  0  0  0  0  0
  185.5710  178.7790  141.3780 C   0  0  0  0  0  0  0  0  0  0  0  0
  188.6270  177.5420  140.3920 O   0  0  0  0  0  0  0  0  0  0  0  0
  184.1860  177.9810  139.4050 C   0  0  0  0  0  0  0  0  0  0  0  0
  189.1810  177.0510  138.0980 C   0  0  0  0  0  2  0  0  0  0  0  0
  189.6410  177.0700  139.5560 C   0  0  1  0  0  3  0  0  0  0  0  0
  185.3530  177.6330  138.6430 N   0  0  0  0  0  0  0  0  0  0  0  0
  185.5990  176.2200  138.3650 C   0  0  0  0  0  2  0  0  0  0  0  0
  185.2640  175.5840  136.0720 O   0  0  0  0  0  1  0  0  0  0  0  0
  184.6300  175.6990  137.3120 C   0  0  1  0  0  3  0  0  0  0  0  0
  184.0220  174.3610  137.7310 C   0  0  0  0  0  2  0  0  0  0  0  0
  184.8840  173.1970  137.3630 C   0  0  0  0  0  0  0  0  0  0  0  0
  184.4850  172.3160  136.3200 N   0  0  0  0  0  1  0  0  0  0  0  0
  185.9760  173.0080  137.9590 O   0  0  0  0  0  0  0  0  0  0  0  0
  180.6760  178.6420  141.6920 N   0  0  0  0  0  2  0  0  0  0  0  0
  180.0010  179.8730  141.6860 N   0  0  0  0  0  2  0  0  0  0  0  0
  180.3070  180.5000  142.8470 O   0  0  0  0  0  1  0  0  0  0  0  0
  1  9  2  0  0  0  0
  1 22  1  0  0  0  0
  2 13  1  0  0  0  0
  4  3  1  0  0  0  0
  6 16  1  0  0  0  0
  7 19  2  0  0  0  0
  8 15  1  0  0  0  0
  8 32  1  0  0  0  0
 10 21  2  0  0  0  0
 10 12  1  0  0  0  0
 12  8  2  0  0  0  0
 13 16  1  0  0  0  0
 13  3  2  0  0  0  0
 14  1  1  0  0  0  0
 14 18  1  0  0  0  0
 17 19  1  0  0  0  0
 17 15  2  0  0  0  0
 18  5  2  0  0  0  0
 18 24  1  0  0  0  0
 19  6  1  0  0  0  0
 20  2  1  0  0  0  0
 21 17  1  0  0  0  0
 22 23  1  0  0  0  0
 23 11  1  6  0  0  0
 23 20  1  0  0  0  0
 24 21  1  0  0  0  0
 25 24  1  0  0  0  0
 27 26  1  6  0  0  0
 27 28  1  0  0  0  0
 27 25  1  0  0  0  0
 29 28  1  0  0  0  0
 29 31  2  0  0  0  0
 30 29  1  0  0  0  0
 33 32  1  0  0  0  0
 33 34  1  0  0  0  0
M  END
>  <MODEL>
7

>  <REMARK>
 VINA RESULT:      -4.5      4.111      8.640
  Name = 
  6 active torsions:
  status: ('A' for Active; 'I' for Inactive)
    1  A    between atoms: C_8  and  N_11
    2  A    between atoms: C_9  and  C_23
    3  A    between atoms: C_9  and  N_34
    4  A    between atoms: C_10  and  C_15
    5  A    between atoms: N_11  and  N_21
    6  A    between atoms: C_15  and  C_23
                            x       y       z     vdW  Elec       q    Type
                         _______ _______ _______ _____ _____    ______ ____

>  <TORSDO>
F 6

$$$$
=
 OpenBabel11032421243D

 34 35  0  0  1  0  0  0  0  0999 V2000
  183.9740  172.4000  136.8220 C   0  0  0  0  0  0  0  0  0  0  0  0
  186.9020  175.3740  136.8800 C   0  0  0  0  0  2  0  0  0  0  0  0
  187.9160  176.0880  134.7300 C   0  0  0  0  0  3  0  0  0  0  0  0
  188.7570  174.8540  134.6530 C   0  0  0  0  0  1  0  0  0  0  0  0
  181.8330  174.0190  135.1350 O   0  0  0  0  0  0  0  0  0  0  0  0
  185.2630  177.6400  134.5940 C   0  0  0  0  0  2  0  0  0  0  0  0
  184.2450  175.4930  134.6380 O   0  0  0  0  0  0  0  0  0  0  0  0
  181.1560  179.0470  135.1680 C   0  0  0  0  0  0  0  0  0  0  0  0
  184.2520  171.8290  135.7790 O   0  0  0  0  0  0  0  0  0  0  0  0
  180.7760  177.1640  136.6420 C   0  0  0  0  0  3  0  0  0  0  0  0
  187.0360  172.3520  136.5970 O   0  0  0  0  0  1  0  0  0  0  0  0
  180.3530  178.3760  136.0960 C   0  0  0  0  0  3  0  0  0  0  0  0
  187.0660  176.3290  135.7380 C   0  0  0  0  0  0  0  0  0  0  0  0
  182.5700  172.8540  137.0690 C   0  0  0  0  0  2  0  0  0  0  0  0
  182.3760  178.4900  134.7830 C   0  0  0  0  0  3  0  0  0  0  0  0
  186.2670  177.5970  135.7420 C   0  0  0  0  0  2  0  0  0  0  0  0
  182.8090  177.2640  135.3080 C   0  0  0  0  0  0  0  0  0  0  0  0
  182.2600  174.1110  136.3170 C   0  0  0  0  0  0  0  0  0  0  0  0
  184.1060  176.7260  134.8500 C   0  0  0  0  0  0  0  0  0  0  0  0
  185.9850  174.3810  136.5270 O   0  0  0  0  0  0  0  0  0  0  0  0
  181.9960  176.5940  136.2570 C   0  0  0  0  0  0  0  0  0  0  0  0
  185.0240  172.6270  137.8720 C   0  0  0  0  0  2  0  0  0  0  0  0
  186.2950  173.2820  137.3300 C   0  0  1  0  0  3  0  0  0  0  0  0
  182.4380  175.4030  136.9260 N   0  0  0  0  0  0  0  0  0  0  0  0
  182.7500  175.4890  138.3520 C   0  0  0  0  0  2  0  0  0  0  0  0
  182.2440  177.0110  140.1410 O   0  0  0  0  0  1  0  0  0  0  0  0
  182.7140  176.9340  138.8280 C   0  0  1  0  0  3  0  0  0  0  0  0
  184.0900  177.5900  138.7110 C   0  0  0  0  0  2  0  0  0  0  0  0
  184.1020  178.9970  139.2150 C   0  0  0  0  0  0  0  0  0  0  0  0
  185.0130  179.3800  140.2380 N   0  0  0  0  0  1  0  0  0  0  0  0
  183.3230  179.8510  138.7180 O   0  0  0  0  0  0  0  0  0  0  0  0
  180.7450  180.2940  134.6010 N   0  0  0  0  0  2  0  0  0  0  0  0
  180.4590  181.4170  135.3920 N   0  0  0  0  0  2  0  0  0  0  0  0
  180.8480  182.5080  134.6890 O   0  0  0  0  0  1  0  0  0  0  0  0
  1 14  1  0  0  0  0
  1 22  1  0  0  0  0
  3 13  2  0  0  0  0
  4  3  1  0  0  0  0
  5 18  2  0  0  0  0
  6 19  1  0  0  0  0
  6 16  1  0  0  0  0
  7 19  2  0  0  0  0
  8 12  1  0  0  0  0
  9  1  2  0  0  0  0
 12 10  2  0  0  0  0
 13 16  1  0  0  0  0
 13  2  1  0  0  0  0
 15  8  2  0  0  0  0
 15 17  1  0  0  0  0
 17 21  2  0  0  0  0
 18 24  1  0  0  0  0
 18 14  1  0  0  0  0
 19 17  1  0  0  0  0
 20  2  1  0  0  0  0
 20 23  1  0  0  0  0
 21 10  1  0  0  0  0
 21 24  1  0  0  0  0
 23 11  1  6  0  0  0
 23 22  1  0  0  0  0
 24 25  1  0  0  0  0
 25 27  1  0  0  0  0
 27 26  1  1  0  0  0
 28 27  1  0  0  0  0
 28 29  1  0  0  0  0
 29 30  1  0  0  0  0
 31 29  2  0  0  0  0
 32  8  1  0  0  0  0
 32 33  1  0  0  0  0
 34 33  1  0  0  0  0
M  END
>  <MODEL>
8

>  <REMARK>
 VINA RESULT:      -4.4      4.739      8.360
  Name = 
  6 active torsions:
  status: ('A' for Active; 'I' for Inactive)
    1  A    between atoms: C_8  and  N_11
    2  A    between atoms: C_9  and  C_23
    3  A    between atoms: C_9  and  N_34
    4  A    between atoms: C_10  and  C_15
    5  A    between atoms: N_11  and  N_21
    6  A    between atoms: C_15  and  C_23
                            x       y       z     vdW  Elec       q    Type
                         _______ _______ _______ _____ _____    ______ ____

>  <TORSDO>
F 6

$$$$
=
 OpenBabel11032421243D

 34 35  0  0  1  0  0  0  0  0999 V2000
  191.0450  177.4470  139.9580 C   0  0  0  0  0  0  0  0  0  0  0  0
  188.6070  176.1060  143.0700 C   0  0  0  0  0  2  0  0  0  0  0  0
  187.9390  177.7150  144.8370 C   0  0  0  0  0  3  0  0  0  0  0  0
  189.2880  177.6550  145.4790 C   0  0  0  0  0  1  0  0  0  0  0  0
  188.9910  179.5410  138.7540 O   0  0  0  0  0  0  0  0  0  0  0  0
  185.9630  178.5260  142.6230 C   0  0  0  0  0  2  0  0  0  0  0  0
  187.9100  179.0580  141.3690 O   0  0  0  0  0  0  0  0  0  0  0  0
  183.9320  179.1580  138.7950 C   0  0  0  0  0  0  0  0  0  0  0  0
  191.5880  178.4010  140.4920 O   0  0  0  0  0  0  0  0  0  0  0  0
  185.8130  178.1110  137.6870 C   0  0  0  0  0  3  0  0  0  0  0  0
  191.5850  176.6710  142.8790 O   0  0  0  0  0  1  0  0  0  0  0  0
  184.5170  178.6230  137.6420 C   0  0  0  0  0  3  0  0  0  0  0  0
  187.6230  177.0170  143.7380 C   0  0  0  0  0  0  0  0  0  0  0  0
  190.3800  177.6180  138.6290 C   0  0  0  0  0  2  0  0  0  0  0  0
  184.6590  179.1870  139.9860 C   0  0  0  0  0  3  0  0  0  0  0  0
  186.2430  177.1270  143.1640 C   0  0  0  0  0  2  0  0  0  0  0  0
  185.9700  178.6930  140.0450 C   0  0  0  0  0  0  0  0  0  0  0  0
  189.0450  178.2830  138.7650 C   0  0  0  0  0  0  0  0  0  0  0  0
  186.6860  178.7640  141.3350 C   0  0  0  0  0  0  0  0  0  0  0  0
  189.4100  176.8470  142.2000 O   0  0  0  0  0  0  0  0  0  0  0  0
  186.5530  178.1420  138.8760 C   0  0  0  0  0  0  0  0  0  0  0  0
  191.0600  176.0950  140.6130 C   0  0  0  0  0  2  0  0  0  0  0  0
  190.5930  176.1170  142.0690 C   0  0  1  0  0  3  0  0  0  0  0  0
  187.8400  177.5050  138.9000 N   0  0  0  0  0  0  0  0  0  0  0  0
  187.8960  176.0560  138.7210 C   0  0  0  0  0  2  0  0  0  0  0  0
  188.5370  175.9140  136.4090 O   0  0  0  0  0  1  0  0  0  0  0  0
  187.4930  175.6710  137.3040 C   0  0  1  0  0  3  0  0  0  0  0  0
  187.0530  174.2080  137.2310 C   0  0  0  0  0  2  0  0  0  0  0  0
  185.5670  174.0540  137.2030 C   0  0  0  0  0  0  0  0  0  0  0  0
  184.9460  173.0040  137.9360 N   0  0  0  0  0  1  0  0  0  0  0  0
  184.8620  174.8660  136.5510 O   0  0  0  0  0  0  0  0  0  0  0  0
  182.6020  179.6820  138.7730 N   0  0  0  0  0  2  0  0  0  0  0  0
  181.6350  179.3070  139.7180 N   0  0  0  0  0  2  0  0  0  0  0  0
  181.0230  178.1960  139.2420 O   0  0  0  0  0  1  0  0  0  0  0  0
  1  9  2  0  0  0  0
  1 22  1  0  0  0  0
  2 13  1  0  0  0  0
  3  4  1  0  0  0  0
  5 18  2  0  0  0  0
  6 16  1  0  0  0  0
  8 15  1  0  0  0  0
 10 21  2  0  0  0  0
 12 10  1  0  0  0  0
 12  8  2  0  0  0  0
 13  3  2  0  0  0  0
 14 18  1  0  0  0  0
 14  1  1  0  0  0  0
 15 17  2  0  0  0  0
 16 13  1  0  0  0  0
 17 19  1  0  0  0  0
 18 24  1  0  0  0  0
 19  7  2  0  0  0  0
 19  6  1  0  0  0  0
 20  2  1  0  0  0  0
 21 24  1  0  0  0  0
 21 17  1  0  0  0  0
 22 23  1  0  0  0  0
 23 20  1  0  0  0  0
 23 11  1  1  0  0  0
 25 24  1  0  0  0  0
 27 26  1  6  0  0  0
 27 25  1  0  0  0  0
 28 27  1  0  0  0  0
 29 28  1  0  0  0  0
 29 30  1  0  0  0  0
 31 29  2  0  0  0  0
 32  8  1  0  0  0  0
 32 33  1  0  0  0  0
 34 33  1  0  0  0  0
M  END
>  <MODEL>
9

>  <REMARK>
 VINA RESULT:      -4.3      3.230      8.222
  Name = 
  6 active torsions:
  status: ('A' for Active; 'I' for Inactive)
    1  A    between atoms: C_8  and  N_11
    2  A    between atoms: C_9  and  C_23
    3  A    between atoms: C_9  and  N_34
    4  A    between atoms: C_10  and  C_15
    5  A    between atoms: N_11  and  N_21
    6  A    between atoms: C_15  and  C_23
                            x       y       z     vdW  Elec       q    Type
                         _______ _______ _______ _____ _____    ______ ____

>  <TORSDO>
F 6

$$$$
