=
 OpenBabel11032420233D

 39 45  0  0  1  0  0  0  0  0999 V2000
  183.4060  179.1790  142.6050 C   0  0  0  0  0  0  0  0  0  0  0  0
  180.8070  178.2870  142.8530 C   0  0  0  0  0  0  0  0  0  0  0  0
  182.8080  179.1660  143.8410 C   0  0  0  0  0  0  0  0  0  0  0  0
  181.4640  178.2160  141.6070 C   0  0  0  0  0  3  0  0  0  0  0  0
  186.0720  178.1900  141.0490 C   0  0  0  0  0  2  0  0  0  0  0  0
  185.6000  178.1980  142.4960 C   0  0  2  0  0  3  0  0  0  0  0  0
  183.5670  178.3830  140.1460 C   0  0  2  0  0  3  0  0  0  0  0  0
  184.9190  179.4380  144.2700 C   0  0  2  0  0  3  0  0  0  0  0  0
  179.4030  177.8150  142.9740 C   0  0  0  0  0  1  0  0  0  0  0  0
  186.8500  176.7080  143.8240 C   0  0  0  0  0  1  0  0  0  0  0  0
  182.7980  178.6460  141.4600 C   0  0  0  0  0  0  0  0  0  0  0  0
  183.7810  179.2660  144.8750 N   0  0  0  0  0  2  0  0  0  0  0  0
  185.0640  178.8480  140.0710 C   0  0  2  0  0  3  0  0  0  0  0  0
  184.8270  179.4490  142.8070 C   0  0  2  0  0  3  0  0  0  0  0  0
  186.6640  178.1140  143.5090 N   0  0  0  0  0  0  0  0  0  0  0  0
  186.0750  178.7110  144.6430 N   0  0  0  0  0  2  0  0  0  0  0  0
  181.5010  178.7110  143.9990 C   0  0  0  0  0  3  0  0  0  0  0  0
  185.6360  178.8050  138.6500 C   0  0  0  0  0  2  0  0  0  0  0  0
  186.5210  176.9860  137.3660 O   0  0  0  0  0  0  0  0  0  0  0  0
  188.1170  178.4990  138.3850 C   0  0  0  0  0  2  0  0  0  0  0  0
  187.3900  175.8850  137.4760 C   0  0  0  0  0  2  0  0  0  0  0  0
  186.7590  177.7880  138.4970 C   0  0  1  0  0  3  0  0  0  0  0  0
  189.0230  177.8270  137.3490 C   0  0  0  0  0  2  0  0  0  0  0  0
  188.8670  176.3050  137.3700 C   0  0  2  0  0  3  0  0  0  0  0  0
  189.9320  175.2780  135.2070 N   0  0  0  0  0  0  0  0  0  0  0  0
  189.4620  175.7310  136.1630 C   0  0  0  0  0  0  0  0  0  0  0  0
  182.8320  178.8170  138.9350 N   0  0  0  0  0  0  0  0  0  0  0  0
  181.1600  178.1270  137.3720 O   0  0  0  0  0  0  0  0  0  0  0  0
  182.0830  177.6970  138.3470 C   0  0  2  0  0  0  0  0  0  0  0  0
  182.9780  176.6090  137.7850 C   0  0  0  0  0  2  0  0  0  0  0  0
  182.3980  177.6720  136.8880 C   0  0  1  0  0  3  0  0  0  0  0  0
  181.9220  179.9220  139.2550 C   0  0  0  0  0  2  0  0  0  0  0  0
  183.4360  181.6730  138.6940 O   0  0  0  0  0  1  0  0  0  0  0  0
  182.2020  181.1130  138.3570 C   0  0  2  0  0  3  0  0  0  0  0  0
  181.1000  182.1430  138.5420 C   0  0  0  0  0  2  0  0  0  0  0  0
  180.5000  182.5460  137.2050 C   0  0  2  0  0  3  0  0  0  0  0  0
  180.9090  181.6530  136.2120 O   0  0  0  0  0  1  0  0  0  0  0  0
  181.9930  184.3640  137.3270 O   0  0  0  0  0  0  0  0  0  0  0  0
  180.9590  183.9210  136.8560 C   0  0  0  0  0  3  0  0  0  0  0  0
  1  3  1  0  0  0  0
  2  9  1  0  0  0  0
  2 17  1  0  0  0  0
  3 17  2  0  0  0  0
  3 12  1  0  0  0  0
  4  2  2  0  0  0  0
  6  5  1  6  0  0  0
  6 14  1  0  0  0  0
  6 15  1  0  0  0  0
  7 27  1  6  0  0  0
  7 11  1  0  0  0  0
  8 16  1  6  0  0  0
  8 12  1  0  0  0  0
 11  4  1  0  0  0  0
 11  1  2  0  0  0  0
 13 18  1  6  0  0  0
 13  7  1  0  0  0  0
 13  5  1  0  0  0  0
 14  1  1  1  0  0  0
 14  8  1  0  0  0  0
 15 10  1  0  0  0  0
 15 16  1  0  0  0  0
 19 21  1  0  0  0  0
 19 22  1  0  0  0  0
 20 22  1  0  0  0  0
 22 18  1  6  0  0  0
 23 24  1  0  0  0  0
 23 20  1  0  0  0  0
 24 26  1  6  0  0  0
 24 21  1  0  0  0  0
 25 26  3  0  0  0  0
 27 32  1  0  0  0  0
 28 29  1  0  0  0  0
 29 27  1  1  0  0  0
 30 29  1  0  0  0  0
 31 28  1  0  0  0  0
 31 30  1  6  0  0  0
 31 29  1  0  0  0  0
 34 35  1  0  0  0  0
 34 33  1  1  0  0  0
 34 32  1  0  0  0  0
 36 37  1  6  0  0  0
 36 35  1  0  0  0  0
 39 36  1  0  0  0  0
 39 38  2  0  0  0  0
M  END
>  <MODEL>
1

>  <REMARK>
 VINA RESULT:      -5.1      0.000      0.000
  Name = 
  10 active torsions:
  status: ('A' for Active; 'I' for Inactive)
    1  A    between atoms: C_1  and  C_13
    2  A    between atoms: C_1  and  C_33
    3  A    between atoms: C_6  and  N_11
    4  A    between atoms: C_8  and  C_17
    5  A    between atoms: C_8  and  C_37
    6  A    between atoms: N_11  and  C_14
    7  A    between atoms: N_11  and  C_19
    8  A    between atoms: C_14  and  C_37
    9  A    between atoms: C_17  and  C_32
   10  A    between atoms: C_23  and  C_35
                            x       y       z     vdW  Elec       q    Type
                         _______ _______ _______ _____ _____    ______ ____

>  <TORSDO>
F 10

$$$$
=
 OpenBabel11032420233D

 39 45  0  0  1  0  0  0  0  0999 V2000
  181.5840  177.4050  139.7050 C   0  0  0  0  0  0  0  0  0  0  0  0
  180.0620  175.1040  139.6900 C   0  0  0  0  0  0  0  0  0  0  0  0
  180.5810  177.2480  140.6310 C   0  0  0  0  0  0  0  0  0  0  0  0
  181.1540  175.2360  138.8070 C   0  0  0  0  0  3  0  0  0  0  0  0
  184.7340  178.1180  139.4510 C   0  0  0  0  0  2  0  0  0  0  0  0
  183.7140  178.1000  140.5800 C   0  0  2  0  0  3  0  0  0  0  0  0
  183.2620  176.4450  137.9820 C   0  0  2  0  0  3  0  0  0  0  0  0
  181.7550  178.9100  141.3880 C   0  0  2  0  0  3  0  0  0  0  0  0
  179.2410  173.8650  139.6660 C   0  0  0  0  0  1  0  0  0  0  0  0
  184.7560  178.0880  142.6910 C   0  0  0  0  0  1  0  0  0  0  0  0
  181.9580  176.3930  138.8100 C   0  0  0  0  0  0  0  0  0  0  0  0
  180.7430  178.1600  141.7110 N   0  0  0  0  0  2  0  0  0  0  0  0
  184.1310  177.7480  138.0710 C   0  0  2  0  0  3  0  0  0  0  0  0
  182.3690  178.5700  140.1010 C   0  0  2  0  0  3  0  0  0  0  0  0
  184.0460  178.9330  141.7460 N   0  0  0  0  0  0  0  0  0  0  0  0
  182.7840  179.2070  142.3130 N   0  0  0  0  0  2  0  0  0  0  0  0
  179.8040  176.0920  140.6550 C   0  0  0  0  0  3  0  0  0  0  0  0
  185.2290  177.8120  137.0040 C   0  0  0  0  0  2  0  0  0  0  0  0
  187.2330  176.6940  137.6970 O   0  0  0  0  0  0  0  0  0  0  0  0
  187.4760  178.9110  136.7480 C   0  0  0  0  0  2  0  0  0  0  0  0
  188.3460  176.8590  138.5430 C   0  0  0  0  0  2  0  0  0  0  0  0
  186.6240  177.9580  137.6010 C   0  0  1  0  0  3  0  0  0  0  0  0
  188.9190  178.4140  136.6170 C   0  0  0  0  0  2  0  0  0  0  0  0
  189.4130  177.7760  137.9170 C   0  0  2  0  0  3  0  0  0  0  0  0
  191.6000  176.4090  137.4540 N   0  0  0  0  0  0  0  0  0  0  0  0
  190.6340  177.0130  137.6590 C   0  0  0  0  0  0  0  0  0  0  0  0
  183.0780  176.0440  136.5670 N   0  0  0  0  0  0  0  0  0  0  0  0
  182.7930  174.0990  135.2070 O   0  0  0  0  0  0  0  0  0  0  0  0
  183.3690  174.6140  136.3860 C   0  0  2  0  0  0  0  0  0  0  0  0
  184.8500  174.2940  136.4360 C   0  0  0  0  0  2  0  0  0  0  0  0
  184.1430  174.4770  135.1170 C   0  0  1  0  0  3  0  0  0  0  0  0
  181.7140  176.3440  136.1210 C   0  0  0  0  0  2  0  0  0  0  0  0
  182.9830  177.6670  134.6020 O   0  0  0  0  0  1  0  0  0  0  0  0
  181.7180  177.5300  135.1730 C   0  0  2  0  0  3  0  0  0  0  0  0
  181.3620  178.7860  135.9510 C   0  0  0  0  0  2  0  0  0  0  0  0
  179.9930  178.6580  136.5990 C   0  0  2  0  0  3  0  0  0  0  0  0
  179.0010  178.6690  135.6160 O   0  0  0  0  0  1  0  0  0  0  0  0
  179.1140  179.6570  138.5420 O   0  0  0  0  0  0  0  0  0  0  0  0
  179.7820  179.8010  137.5320 C   0  0  0  0  0  3  0  0  0  0  0  0
  1  3  1  0  0  0  0
  2 17  1  0  0  0  0
  3 17  2  0  0  0  0
  3 12  1  0  0  0  0
  4 11  1  0  0  0  0
  4  2  2  0  0  0  0
  6  5  1  6  0  0  0
  6 15  1  0  0  0  0
  7 27  1  6  0  0  0
  7 13  1  0  0  0  0
  7 11  1  0  0  0  0
  8 12  1  1  0  0  0
  8 16  1  0  0  0  0
  9  2  1  0  0  0  0
 11  1  2  0  0  0  0
 13 18  1  6  0  0  0
 13  5  1  0  0  0  0
 14  1  1  1  0  0  0
 14  6  1  0  0  0  0
 14  8  1  0  0  0  0
 15 16  1  0  0  0  0
 15 10  1  0  0  0  0
 19 21  1  0  0  0  0
 20 22  1  0  0  0  0
 22 18  1  6  0  0  0
 22 19  1  0  0  0  0
 23 20  1  0  0  0  0
 23 24  1  0  0  0  0
 24 26  1  6  0  0  0
 24 21  1  0  0  0  0
 25 26  3  0  0  0  0
 28 29  1  0  0  0  0
 29 30  1  0  0  0  0
 29 27  1  1  0  0  0
 31 28  1  0  0  0  0
 31 29  1  0  0  0  0
 31 30  1  1  0  0  0
 32 27  1  0  0  0  0
 34 33  1  1  0  0  0
 34 35  1  0  0  0  0
 34 32  1  0  0  0  0
 35 36  1  0  0  0  0
 36 37  1  6  0  0  0
 36 39  1  0  0  0  0
 39 38  2  0  0  0  0
M  END
>  <MODEL>
2

>  <REMARK>
 VINA RESULT:      -4.9      2.486      3.689
  Name = 
  10 active torsions:
  status: ('A' for Active; 'I' for Inactive)
    1  A    between atoms: C_1  and  C_13
    2  A    between atoms: C_1  and  C_33
    3  A    between atoms: C_6  and  N_11
    4  A    between atoms: C_8  and  C_17
    5  A    between atoms: C_8  and  C_37
    6  A    between atoms: N_11  and  C_14
    7  A    between atoms: N_11  and  C_19
    8  A    between atoms: C_14  and  C_37
    9  A    between atoms: C_17  and  C_32
   10  A    between atoms: C_23  and  C_35
                            x       y       z     vdW  Elec       q    Type
                         _______ _______ _______ _____ _____    ______ ____

>  <TORSDO>
F 10

$$$$
=
 OpenBabel11032420233D

 39 45  0  0  1  0  0  0  0  0999 V2000
  188.1050  177.6720  143.4960 C   0  0  0  0  0  0  0  0  0  0  0  0
  190.6660  178.5470  144.0300 C   0  0  0  0  0  0  0  0  0  0  0  0
  188.5900  177.6090  144.7800 C   0  0  0  0  0  0  0  0  0  0  0  0
  190.1240  178.6940  142.7370 C   0  0  0  0  0  3  0  0  0  0  0  0
  185.5840  178.7520  141.7710 C   0  0  0  0  0  2  0  0  0  0  0  0
  185.9240  178.6570  143.2510 C   0  0  2  0  0  3  0  0  0  0  0  0
  188.1600  178.6160  141.0860 C   0  0  2  0  0  3  0  0  0  0  0  0
  186.4510  177.3110  145.0010 C   0  0  2  0  0  3  0  0  0  0  0  0
  192.0510  179.0110  144.3050 C   0  0  0  0  0  1  0  0  0  0  0  0
  184.5520  180.0640  144.5490 C   0  0  0  0  0  1  0  0  0  0  0  0
  188.8100  178.2730  142.4450 C   0  0  0  0  0  0  0  0  0  0  0  0
  187.5290  177.4470  145.7150 N   0  0  0  0  0  2  0  0  0  0  0  0
  186.6790  178.1560  140.8490 C   0  0  2  0  0  3  0  0  0  0  0  0
  186.6740  177.3900  143.5530 C   0  0  2  0  0  3  0  0  0  0  0  0
  184.7730  178.6800  144.1670 N   0  0  0  0  0  0  0  0  0  0  0  0
  185.2620  178.0150  145.3110 N   0  0  0  0  0  2  0  0  0  0  0  0
  189.8750  178.0540  145.0820 C   0  0  0  0  0  3  0  0  0  0  0  0
  186.2370  178.2840  139.3880 C   0  0  0  0  0  2  0  0  0  0  0  0
  184.4470  179.7770  138.8290 O   0  0  0  0  0  0  0  0  0  0  0  0
  184.1640  177.4420  138.2400 C   0  0  0  0  0  2  0  0  0  0  0  0
  183.0670  179.9630  139.0360 C   0  0  0  0  0  2  0  0  0  0  0  0
  184.7300  178.4620  139.2410 C   0  0  1  0  0  3  0  0  0  0  0  0
  183.0890  178.0670  137.3450 C   0  0  0  0  0  2  0  0  0  0  0  0
  182.2210  179.0600  138.1200 C   0  0  2  0  0  3  0  0  0  0  0  0
  180.8500  180.5320  136.4400 N   0  0  0  0  0  0  0  0  0  0  0  0
  181.4550  179.8820  137.1820 C   0  0  0  0  0  0  0  0  0  0  0  0
  189.0040  178.2550  139.9210 N   0  0  0  0  0  0  0  0  0  0  0  0
  189.4710  176.0060  139.2590 O   0  0  0  0  0  0  0  0  0  0  0  0
  189.7650  177.0260  140.1880 C   0  0  2  0  0  0  0  0  0  0  0  0
  191.2610  177.2540  140.2670 C   0  0  0  0  0  2  0  0  0  0  0  0
  190.6210  176.7680  138.9920 C   0  0  1  0  0  3  0  0  0  0  0  0
  188.1790  178.0910  138.7200 C   0  0  0  0  0  2  0  0  0  0  0  0
  188.9720  180.0330  137.5920 O   0  0  0  0  0  1  0  0  0  0  0  0
  188.9020  178.6420  137.5040 C   0  0  2  0  0  3  0  0  0  0  0  0
  188.1400  178.2400  136.2520 C   0  0  0  0  0  2  0  0  0  0  0  0
  187.7470  176.7730  136.3000 C   0  0  2  0  0  3  0  0  0  0  0  0
  188.8260  175.9790  135.9030 O   0  0  0  0  0  1  0  0  0  0  0  0
  185.8350  177.4550  135.1050 O   0  0  0  0  0  0  0  0  0  0  0  0
  186.5960  176.5430  135.3810 C   0  0  0  0  0  3  0  0  0  0  0  0
  1  3  1  0  0  0  0
  2  9  1  0  0  0  0
  2 17  1  0  0  0  0
  3 17  2  0  0  0  0
  3 12  1  0  0  0  0
  4  2  2  0  0  0  0
  6  5  1  6  0  0  0
  6 14  1  0  0  0  0
  6 15  1  0  0  0  0
  7 27  1  6  0  0  0
  7 11  1  0  0  0  0
  8 16  1  1  0  0  0
  8 12  1  0  0  0  0
 11  4  1  0  0  0  0
 11  1  2  0  0  0  0
 13 18  1  6  0  0  0
 13  7  1  0  0  0  0
 13  5  1  0  0  0  0
 14  1  1  1  0  0  0
 14  8  1  0  0  0  0
 15 10  1  0  0  0  0
 15 16  1  0  0  0  0
 19 21  1  0  0  0  0
 19 22  1  0  0  0  0
 20 22  1  0  0  0  0
 22 18  1  6  0  0  0
 23 24  1  0  0  0  0
 23 20  1  0  0  0  0
 24 26  1  6  0  0  0
 24 21  1  0  0  0  0
 25 26  3  0  0  0  0
 28 29  1  0  0  0  0
 29 27  1  6  0  0  0
 29 30  1  0  0  0  0
 31 28  1  0  0  0  0
 31 29  1  0  0  0  0
 31 30  1  1  0  0  0
 32 27  1  0  0  0  0
 34 33  1  1  0  0  0
 34 32  1  0  0  0  0
 35 36  1  0  0  0  0
 35 34  1  0  0  0  0
 36 37  1  6  0  0  0
 38 39  2  0  0  0  0
 39 36  1  0  0  0  0
M  END
>  <MODEL>
3

>  <REMARK>
 VINA RESULT:      -4.8      2.709      6.820
  Name = 
  10 active torsions:
  status: ('A' for Active; 'I' for Inactive)
    1  A    between atoms: C_1  and  C_13
    2  A    between atoms: C_1  and  C_33
    3  A    between atoms: C_6  and  N_11
    4  A    between atoms: C_8  and  C_17
    5  A    between atoms: C_8  and  C_37
    6  A    between atoms: N_11  and  C_14
    7  A    between atoms: N_11  and  C_19
    8  A    between atoms: C_14  and  C_37
    9  A    between atoms: C_17  and  C_32
   10  A    between atoms: C_23  and  C_35
                            x       y       z     vdW  Elec       q    Type
                         _______ _______ _______ _____ _____    ______ ____

>  <TORSDO>
F 10

$$$$
=
 OpenBabel11032420233D

 39 45  0  0  1  0  0  0  0  0999 V2000
  187.5540  177.3890  142.4260 C   0  0  0  0  0  0  0  0  0  0  0  0
  190.3090  177.5070  142.3740 C   0  0  0  0  0  0  0  0  0  0  0  0
  188.2680  177.0830  143.5590 C   0  0  0  0  0  0  0  0  0  0  0  0
  189.5630  177.9090  141.2480 C   0  0  0  0  0  3  0  0  0  0  0  0
  185.1200  179.2470  141.3660 C   0  0  0  0  0  2  0  0  0  0  0  0
  185.7310  178.9300  142.7230 C   0  0  2  0  0  3  0  0  0  0  0  0
  187.3460  178.5010  140.0970 C   0  0  2  0  0  3  0  0  0  0  0  0
  186.2290  177.3390  144.2630 C   0  0  2  0  0  3  0  0  0  0  0  0
  191.7940  177.5630  142.3330 C   0  0  0  0  0  1  0  0  0  0  0  0
  185.1160  180.5240  144.3450 C   0  0  0  0  0  1  0  0  0  0  0  0
  188.1530  177.8770  141.2570 C   0  0  0  0  0  0  0  0  0  0  0  0
  187.4300  177.1210  144.7100 N   0  0  0  0  0  2  0  0  0  0  0  0
  185.7810  178.4700  140.1980 C   0  0  2  0  0  3  0  0  0  0  0  0
  186.1480  177.4890  142.8060 C   0  0  2  0  0  3  0  0  0  0  0  0
  184.8580  179.1710  143.8820 N   0  0  0  0  0  0  0  0  0  0  0  0
  185.3780  178.2990  144.8620 N   0  0  0  0  0  2  0  0  0  0  0  0
  189.6590  177.1450  143.5660 C   0  0  0  0  0  3  0  0  0  0  0  0
  185.0870  178.8440  138.8840 C   0  0  0  0  0  2  0  0  0  0  0  0
  183.4580  177.3540  139.8170 O   0  0  0  0  0  0  0  0  0  0  0  0
  182.6380  179.4140  138.8380 C   0  0  0  0  0  2  0  0  0  0  0  0
  182.2920  176.6450  139.4710 C   0  0  0  0  0  2  0  0  0  0  0  0
  183.6750  178.2800  138.7820 C   0  0  1  0  0  3  0  0  0  0  0  0
  181.4160  179.0210  139.6730 C   0  0  0  0  0  2  0  0  0  0  0  0
  181.0470  177.5500  139.4710 C   0  0  2  0  0  3  0  0  0  0  0  0
  179.3920  176.7870  141.3540 N   0  0  0  0  0  0  0  0  0  0  0  0
  180.1230  177.1240  140.5220 C   0  0  0  0  0  0  0  0  0  0  0  0
  187.7850  178.0400  138.7580 N   0  0  0  0  0  0  0  0  0  0  0  0
  190.0070  177.6650  137.9610 O   0  0  0  0  0  0  0  0  0  0  0  0
  189.0810  178.6340  138.3990 C   0  0  2  0  0  0  0  0  0  0  0  0
  188.9660  179.7540  137.3840 C   0  0  0  0  0  2  0  0  0  0  0  0
  189.3120  178.3510  136.9520 C   0  0  1  0  0  3  0  0  0  0  0  0
  187.8700  176.5760  138.7210 C   0  0  0  0  0  2  0  0  0  0  0  0
  185.8710  175.9520  137.5870 O   0  0  0  0  0  1  0  0  0  0  0  0
  187.2560  176.0450  137.4390 C   0  0  2  0  0  3  0  0  0  0  0  0
  187.8380  174.6720  137.1450 C   0  0  0  0  0  2  0  0  0  0  0  0
  189.1240  174.7850  136.3430 C   0  0  2  0  0  3  0  0  0  0  0  0
  188.9290  174.2720  135.0590 O   0  0  0  0  0  1  0  0  0  0  0  0
  190.8050  174.5000  137.9680 O   0  0  0  0  0  0  0  0  0  0  0  0
  190.2000  174.0130  137.0280 C   0  0  0  0  0  3  0  0  0  0  0  0
  1  3  1  0  0  0  0
  2 17  1  0  0  0  0
  3 17  2  0  0  0  0
  3 12  1  0  0  0  0
  4 11  1  0  0  0  0
  4  2  2  0  0  0  0
  6  5  1  6  0  0  0
  6 14  1  0  0  0  0
  6 15  1  0  0  0  0
  7 27  1  6  0  0  0
  7 13  1  0  0  0  0
  7 11  1  0  0  0  0
  8 12  1  1  0  0  0
  8 16  1  0  0  0  0
  9  2  1  0  0  0  0
 11  1  2  0  0  0  0
 13 18  1  6  0  0  0
 13  5  1  0  0  0  0
 14  1  1  6  0  0  0
 14  8  1  0  0  0  0
 15 10  1  0  0  0  0
 15 16  1  0  0  0  0
 20 23  1  0  0  0  0
 21 24  1  0  0  0  0
 21 19  1  0  0  0  0
 22 20  1  0  0  0  0
 22 18  1  1  0  0  0
 22 19  1  0  0  0  0
 24 23  1  0  0  0  0
 24 26  1  1  0  0  0
 26 25  3  0  0  0  0
 28 29  1  0  0  0  0
 29 27  1  1  0  0  0
 30 29  1  0  0  0  0
 31 30  1  6  0  0  0
 31 28  1  0  0  0  0
 31 29  1  0  0  0  0
 32 27  1  0  0  0  0
 34 33  1  1  0  0  0
 34 32  1  0  0  0  0
 35 34  1  0  0  0  0
 36 37  1  6  0  0  0
 36 39  1  0  0  0  0
 36 35  1  0  0  0  0
 39 38  2  0  0  0  0
M  END
>  <MODEL>
4

>  <REMARK>
 VINA RESULT:      -4.7      2.858      7.368
  Name = 
  10 active torsions:
  status: ('A' for Active; 'I' for Inactive)
    1  A    between atoms: C_1  and  C_13
    2  A    between atoms: C_1  and  C_33
    3  A    between atoms: C_6  and  N_11
    4  A    between atoms: C_8  and  C_17
    5  A    between atoms: C_8  and  C_37
    6  A    between atoms: N_11  and  C_14
    7  A    between atoms: N_11  and  C_19
    8  A    between atoms: C_14  and  C_37
    9  A    between atoms: C_17  and  C_32
   10  A    between atoms: C_23  and  C_35
                            x       y       z     vdW  Elec       q    Type
                         _______ _______ _______ _____ _____    ______ ____

>  <TORSDO>
F 10

$$$$
=
 OpenBabel11032420233D

 39 45  0  0  1  0  0  0  0  0999 V2000
  187.5770  177.6800  143.3630 C   0  0  0  0  0  0  0  0  0  0  0  0
  190.2420  178.2980  143.7200 C   0  0  0  0  0  0  0  0  0  0  0  0
  188.1200  177.6390  144.6240 C   0  0  0  0  0  0  0  0  0  0  0  0
  189.6490  178.4280  142.4470 C   0  0  0  0  0  3  0  0  0  0  0  0
  185.0970  178.9290  141.6920 C   0  0  0  0  0  2  0  0  0  0  0  0
  185.5030  178.8820  143.1580 C   0  0  2  0  0  3  0  0  0  0  0  0
  187.6040  178.4710  140.8970 C   0  0  2  0  0  3  0  0  0  0  0  0
  185.9760  177.5910  144.9630 C   0  0  2  0  0  3  0  0  0  0  0  0
  191.6800  178.6220  143.9010 C   0  0  0  0  0  1  0  0  0  0  0  0
  184.3610  180.5040  144.4260 C   0  0  0  0  0  1  0  0  0  0  0  0
  188.2850  178.1380  142.2450 C   0  0  0  0  0  0  0  0  0  0  0  0
  187.0980  177.6480  145.6160 N   0  0  0  0  0  2  0  0  0  0  0  0
  186.0720  178.1630  140.7600 C   0  0  2  0  0  3  0  0  0  0  0  0
  186.1280  177.5610  143.5050 C   0  0  2  0  0  3  0  0  0  0  0  0
  184.4120  179.0840  144.1240 N   0  0  0  0  0  0  0  0  0  0  0  0
  184.8870  178.4370  145.2830 N   0  0  0  0  0  2  0  0  0  0  0  0
  189.4590  177.9570  144.8370 C   0  0  0  0  0  3  0  0  0  0  0  0
  185.5680  178.2540  139.3160 C   0  0  0  0  0  2  0  0  0  0  0  0
  184.0720  180.0290  138.7180 O   0  0  0  0  0  0  0  0  0  0  0  0
  183.3040  177.7610  138.3390 C   0  0  0  0  0  2  0  0  0  0  0  0
  182.7700  180.5000  138.9720 C   0  0  0  0  0  2  0  0  0  0  0  0
  184.1190  178.7170  139.2240 C   0  0  1  0  0  3  0  0  0  0  0  0
  182.3190  178.5200  137.4450 C   0  0  0  0  0  2  0  0  0  0  0  0
  181.7100  179.7200  138.1740 C   0  0  2  0  0  3  0  0  0  0  0  0
  180.5510  181.3090  136.4430 N   0  0  0  0  0  0  0  0  0  0  0  0
  181.0630  180.6070  137.2080 C   0  0  0  0  0  0  0  0  0  0  0  0
  188.3410  177.9530  139.7210 N   0  0  0  0  0  0  0  0  0  0  0  0
  189.0550  179.5530  138.0940 O   0  0  0  0  0  0  0  0  0  0  0  0
  187.9990  178.7170  138.5120 C   0  0  2  0  0  0  0  0  0  0  0  0
  187.5300  177.8440  137.3650 C   0  0  0  0  0  2  0  0  0  0  0  0
  188.9610  178.3110  137.4450 C   0  0  1  0  0  3  0  0  0  0  0  0
  189.7870  178.0000  139.9580 C   0  0  0  0  0  2  0  0  0  0  0  0
  190.5780  176.0020  140.9850 O   0  0  0  0  0  1  0  0  0  0  0  0
  190.4010  176.6270  139.7500 C   0  0  2  0  0  3  0  0  0  0  0  0
  191.7420  176.7860  139.0540 C   0  0  0  0  0  2  0  0  0  0  0  0
  191.7920  175.9700  137.7720 C   0  0  2  0  0  3  0  0  0  0  0  0
  191.2000  174.7230  137.9810 O   0  0  0  0  0  1  0  0  0  0  0  0
  193.9230  176.7490  137.1380 O   0  0  0  0  0  0  0  0  0  0  0  0
  193.2140  175.7830  137.3640 C   0  0  0  0  0  3  0  0  0  0  0  0
  1  3  1  0  0  0  0
  2  9  1  0  0  0  0
  2 17  1  0  0  0  0
  3 17  2  0  0  0  0
  3 12  1  0  0  0  0
  4  2  2  0  0  0  0
  6  5  1  6  0  0  0
  6 14  1  0  0  0  0
  6 15  1  0  0  0  0
  7 27  1  6  0  0  0
  7 11  1  0  0  0  0
  8 16  1  6  0  0  0
  8 12  1  0  0  0  0
 11  4  1  0  0  0  0
 11  1  2  0  0  0  0
 13 18  1  6  0  0  0
 13  7  1  0  0  0  0
 13  5  1  0  0  0  0
 14  1  1  1  0  0  0
 14  8  1  0  0  0  0
 15 10  1  0  0  0  0
 15 16  1  0  0  0  0
 19 21  1  0  0  0  0
 19 22  1  0  0  0  0
 20 22  1  0  0  0  0
 22 18  1  6  0  0  0
 23 24  1  0  0  0  0
 23 20  1  0  0  0  0
 24 26  1  6  0  0  0
 24 21  1  0  0  0  0
 25 26  3  0  0  0  0
 27 32  1  0  0  0  0
 28 29  1  0  0  0  0
 29 27  1  1  0  0  0
 30 29  1  0  0  0  0
 31 30  1  6  0  0  0
 31 28  1  0  0  0  0
 31 29  1  0  0  0  0
 34 32  1  0  0  0  0
 34 33  1  1  0  0  0
 35 34  1  0  0  0  0
 36 37  1  1  0  0  0
 36 35  1  0  0  0  0
 38 39  2  0  0  0  0
 39 36  1  0  0  0  0
M  END
>  <MODEL>
5

>  <REMARK>
 VINA RESULT:      -4.6      2.845      7.659
  Name = 
  10 active torsions:
  status: ('A' for Active; 'I' for Inactive)
    1  A    between atoms: C_1  and  C_13
    2  A    between atoms: C_1  and  C_33
    3  A    between atoms: C_6  and  N_11
    4  A    between atoms: C_8  and  C_17
    5  A    between atoms: C_8  and  C_37
    6  A    between atoms: N_11  and  C_14
    7  A    between atoms: N_11  and  C_19
    8  A    between atoms: C_14  and  C_37
    9  A    between atoms: C_17  and  C_32
   10  A    between atoms: C_23  and  C_35
                            x       y       z     vdW  Elec       q    Type
                         _______ _______ _______ _____ _____    ______ ____

>  <TORSDO>
F 10

$$$$
=
 OpenBabel11032420233D

 39 45  0  0  1  0  0  0  0  0999 V2000
  181.6740  177.5220  139.8620 C   0  0  0  0  0  0  0  0  0  0  0  0
  180.1240  175.2400  139.8180 C   0  0  0  0  0  0  0  0  0  0  0  0
  180.6540  177.3770  140.7710 C   0  0  0  0  0  0  0  0  0  0  0  0
  181.2320  175.3600  138.9550 C   0  0  0  0  0  3  0  0  0  0  0  0
  184.8370  178.1960  139.6630 C   0  0  0  0  0  2  0  0  0  0  0  0
  183.7970  178.1900  140.7740 C   0  0  2  0  0  3  0  0  0  0  0  0
  183.3690  176.5430  138.1670 C   0  0  2  0  0  3  0  0  0  0  0  0
  181.8350  179.0240  141.5500 C   0  0  2  0  0  3  0  0  0  0  0  0
  179.2880  174.0130  139.7790 C   0  0  0  0  0  1  0  0  0  0  0  0
  184.8030  178.1620  142.9030 C   0  0  0  0  0  1  0  0  0  0  0  0
  182.0510  176.5070  138.9730 C   0  0  0  0  0  0  0  0  0  0  0  0
  180.8090  178.2860  141.8550 N   0  0  0  0  0  2  0  0  0  0  0  0
  184.2520  177.8360  138.2720 C   0  0  2  0  0  3  0  0  0  0  0  0
  182.4670  178.6770  140.2730 C   0  0  2  0  0  3  0  0  0  0  0  0
  184.1200  179.0170  141.9470 N   0  0  0  0  0  0  0  0  0  0  0  0
  182.8520  179.3060  142.4930 N   0  0  0  0  0  2  0  0  0  0  0  0
  179.8620  176.2310  140.7800 C   0  0  0  0  0  3  0  0  0  0  0  0
  185.3690  177.8860  137.2250 C   0  0  0  0  0  2  0  0  0  0  0  0
  187.3740  176.7670  137.9090 O   0  0  0  0  0  0  0  0  0  0  0  0
  187.6080  179.0150  137.0340 C   0  0  0  0  0  2  0  0  0  0  0  0
  188.4750  176.9160  138.7750 C   0  0  0  0  0  2  0  0  0  0  0  0
  186.7540  178.0270  137.8450 C   0  0  1  0  0  3  0  0  0  0  0  0
  189.0580  178.5370  136.9070 C   0  0  0  0  0  2  0  0  0  0  0  0
  189.5400  177.8620  138.1930 C   0  0  2  0  0  3  0  0  0  0  0  0
  191.7470  176.5310  137.7170 N   0  0  0  0  0  0  0  0  0  0  0  0
  190.7730  177.1190  137.9270 C   0  0  0  0  0  0  0  0  0  0  0  0
  183.2040  176.1470  136.7490 N   0  0  0  0  0  0  0  0  0  0  0  0
  183.3870  177.1690  134.5950 O   0  0  0  0  0  0  0  0  0  0  0  0
  182.9000  177.3160  135.9100 C   0  0  2  0  0  0  0  0  0  0  0  0
  181.4270  177.6730  135.8930 C   0  0  0  0  0  2  0  0  0  0  0  0
  182.0340  176.8440  134.7900 C   0  0  1  0  0  3  0  0  0  0  0  0
  184.4100  175.4710  136.2600 C   0  0  0  0  0  2  0  0  0  0  0  0
  182.8480  173.6750  136.2700 O   0  0  0  0  0  1  0  0  0  0  0  0
  184.2130  173.9670  136.2680 C   0  0  2  0  0  3  0  0  0  0  0  0
  184.8680  173.3890  137.5110 C   0  0  0  0  0  2  0  0  0  0  0  0
  186.1550  172.6610  137.1620 C   0  0  2  0  0  3  0  0  0  0  0  0
  187.2320  173.5490  137.2140 O   0  0  0  0  0  1  0  0  0  0  0  0
  186.4910  170.9900  135.5350 O   0  0  0  0  0  0  0  0  0  0  0  0
  186.0430  172.0970  135.7860 C   0  0  0  0  0  3  0  0  0  0  0  0
  1  3  1  0  0  0  0
  2 17  1  0  0  0  0
  3 17  2  0  0  0  0
  3 12  1  0  0  0  0
  4 11  1  0  0  0  0
  4  2  2  0  0  0  0
  6  5  1  6  0  0  0
  6 15  1  0  0  0  0
  7 27  1  6  0  0  0
  7 13  1  0  0  0  0
  7 11  1  0  0  0  0
  8 12  1  1  0  0  0
  8 16  1  0  0  0  0
  9  2  1  0  0  0  0
 11  1  2  0  0  0  0
 13 18  1  6  0  0  0
 13  5  1  0  0  0  0
 14  1  1  1  0  0  0
 14  6  1  0  0  0  0
 14  8  1  0  0  0  0
 15 16  1  0  0  0  0
 15 10  1  0  0  0  0
 19 21  1  0  0  0  0
 20 22  1  0  0  0  0
 22 18  1  6  0  0  0
 22 19  1  0  0  0  0
 23 20  1  0  0  0  0
 23 24  1  0  0  0  0
 24 26  1  6  0  0  0
 24 21  1  0  0  0  0
 25 26  3  0  0  0  0
 28 31  1  0  0  0  0
 28 29  1  0  0  0  0
 29 27  1  1  0  0  0
 30 29  1  0  0  0  0
 31 30  1  6  0  0  0
 31 29  1  0  0  0  0
 32 34  1  0  0  0  0
 32 27  1  0  0  0  0
 34 33  1  1  0  0  0
 34 35  1  0  0  0  0
 36 37  1  6  0  0  0
 36 35  1  0  0  0  0
 38 39  2  0  0  0  0
 39 36  1  0  0  0  0
M  END
>  <MODEL>
6

>  <REMARK>
 VINA RESULT:      -4.5      3.013      5.459
  Name = 
  10 active torsions:
  status: ('A' for Active; 'I' for Inactive)
    1  A    between atoms: C_1  and  C_13
    2  A    between atoms: C_1  and  C_33
    3  A    between atoms: C_6  and  N_11
    4  A    between atoms: C_8  and  C_17
    5  A    between atoms: C_8  and  C_37
    6  A    between atoms: N_11  and  C_14
    7  A    between atoms: N_11  and  C_19
    8  A    between atoms: C_14  and  C_37
    9  A    between atoms: C_17  and  C_32
   10  A    between atoms: C_23  and  C_35
                            x       y       z     vdW  Elec       q    Type
                         _______ _______ _______ _____ _____    ______ ____

>  <TORSDO>
F 10

$$$$
=
 OpenBabel11032420233D

 39 45  0  0  1  0  0  0  0  0999 V2000
  187.6190  177.3630  142.2600 C   0  0  0  0  0  0  0  0  0  0  0  0
  190.3710  177.5210  142.1630 C   0  0  0  0  0  0  0  0  0  0  0  0
  188.3550  177.0790  143.3850 C   0  0  0  0  0  0  0  0  0  0  0  0
  189.6010  177.9010  141.0450 C   0  0  0  0  0  3  0  0  0  0  0  0
  185.1410  179.1740  141.2220 C   0  0  0  0  0  2  0  0  0  0  0  0
  185.7780  178.8800  142.5730 C   0  0  2  0  0  3  0  0  0  0  0  0
  187.3580  178.4490  139.9240 C   0  0  2  0  0  3  0  0  0  0  0  0
  186.3250  177.3120  144.1190 C   0  0  2  0  0  3  0  0  0  0  0  0
  191.8540  177.6000  142.0970 C   0  0  0  0  0  1  0  0  0  0  0  0
  185.1660  180.4790  144.1880 C   0  0  0  0  0  1  0  0  0  0  0  0
  188.1930  177.8480  141.0780 C   0  0  0  0  0  0  0  0  0  0  0  0
  187.5360  177.1150  144.5480 N   0  0  0  0  0  2  0  0  0  0  0  0
  185.7950  178.3960  140.0510 C   0  0  2  0  0  3  0  0  0  0  0  0
  186.2180  177.4460  142.6620 C   0  0  2  0  0  3  0  0  0  0  0  0
  184.9200  179.1180  143.7430 N   0  0  0  0  0  0  0  0  0  0  0  0
  185.4690  178.2640  144.7220 N   0  0  0  0  0  2  0  0  0  0  0  0
  189.7460  177.1620  143.3690 C   0  0  0  0  0  3  0  0  0  0  0  0
  185.0740  178.7460  138.7450 C   0  0  0  0  0  2  0  0  0  0  0  0
  183.5010  177.2220  139.7160 O   0  0  0  0  0  0  0  0  0  0  0  0
  182.6030  179.2000  138.6410 C   0  0  0  0  0  2  0  0  0  0  0  0
  182.3740  176.4460  139.3830 C   0  0  0  0  0  2  0  0  0  0  0  0
  183.6910  178.1150  138.6460 C   0  0  1  0  0  3  0  0  0  0  0  0
  181.3870  178.7860  139.4750 C   0  0  0  0  0  2  0  0  0  0  0  0
  181.0890  177.2920  139.3280 C   0  0  2  0  0  3  0  0  0  0  0  0
  179.4410  176.5300  141.2180 N   0  0  0  0  0  0  0  0  0  0  0  0
  180.1690  176.8670  140.3840 C   0  0  0  0  0  0  0  0  0  0  0  0
  187.7820  177.9820  138.5840 N   0  0  0  0  0  0  0  0  0  0  0  0
  189.9320  177.6050  137.6090 O   0  0  0  0  0  0  0  0  0  0  0  0
  189.0860  178.5540  138.2180 C   0  0  2  0  0  0  0  0  0  0  0  0
  188.9740  179.7950  137.3540 C   0  0  0  0  0  2  0  0  0  0  0  0
  189.2190  178.4420  136.7350 C   0  0  1  0  0  3  0  0  0  0  0  0
  187.8430  176.5170  138.5460 C   0  0  0  0  0  2  0  0  0  0  0  0
  185.8440  175.5940  137.6390 O   0  0  0  0  0  1  0  0  0  0  0  0
  187.1390  175.9920  137.3070 C   0  0  2  0  0  3  0  0  0  0  0  0
  187.9200  174.8080  136.7600 C   0  0  0  0  0  2  0  0  0  0  0  0
  187.0380  173.5750  136.6540 C   0  0  2  0  0  3  0  0  0  0  0  0
  187.6710  172.4850  137.2560 O   0  0  0  0  0  1  0  0  0  0  0  0
  185.6610  173.0120  134.8270 O   0  0  0  0  0  0  0  0  0  0  0  0
  186.7870  173.2720  135.2160 C   0  0  0  0  0  3  0  0  0  0  0  0
  1  3  1  0  0  0  0
  2 17  1  0  0  0  0
  3 12  1  0  0  0  0
  4 11  1  0  0  0  0
  4  2  2  0  0  0  0
  6  5  1  6  0  0  0
  6 14  1  0  0  0  0
  6 15  1  0  0  0  0
  7 27  1  6  0  0  0
  7 13  1  0  0  0  0
  7 11  1  0  0  0  0
  8 12  1  1  0  0  0
  8 16  1  0  0  0  0
  9  2  1  0  0  0  0
 11  1  2  0  0  0  0
 13 18  1  6  0  0  0
 13  5  1  0  0  0  0
 14  1  1  6  0  0  0
 14  8  1  0  0  0  0
 15 10  1  0  0  0  0
 15 16  1  0  0  0  0
 17  3  2  0  0  0  0
 20 22  1  0  0  0  0
 20 23  1  0  0  0  0
 21 19  1  0  0  0  0
 22 18  1  1  0  0  0
 22 19  1  0  0  0  0
 24 21  1  0  0  0  0
 24 23  1  0  0  0  0
 24 26  1  1  0  0  0
 26 25  3  0  0  0  0
 28 29  1  0  0  0  0
 29 27  1  1  0  0  0
 30 29  1  0  0  0  0
 31 30  1  1  0  0  0
 31 28  1  0  0  0  0
 31 29  1  0  0  0  0
 32 27  1  0  0  0  0
 34 33  1  1  0  0  0
 34 32  1  0  0  0  0
 35 34  1  0  0  0  0
 36 35  1  0  0  0  0
 36 37  1  6  0  0  0
 38 39  2  0  0  0  0
 39 36  1  0  0  0  0
M  END
>  <MODEL>
7

>  <REMARK>
 VINA RESULT:      -4.4      2.915      7.259
  Name = 
  10 active torsions:
  status: ('A' for Active; 'I' for Inactive)
    1  A    between atoms: C_1  and  C_13
    2  A    between atoms: C_1  and  C_33
    3  A    between atoms: C_6  and  N_11
    4  A    between atoms: C_8  and  C_17
    5  A    between atoms: C_8  and  C_37
    6  A    between atoms: N_11  and  C_14
    7  A    between atoms: N_11  and  C_19
    8  A    between atoms: C_14  and  C_37
    9  A    between atoms: C_17  and  C_32
   10  A    between atoms: C_23  and  C_35
                            x       y       z     vdW  Elec       q    Type
                         _______ _______ _______ _____ _____    ______ ____

>  <TORSDO>
F 10

$$$$
=
 OpenBabel11032420233D

 39 45  0  0  1  0  0  0  0  0999 V2000
  183.6780  178.0430  139.9210 C   0  0  0  0  0  0  0  0  0  0  0  0
  186.2690  178.5660  140.7100 C   0  0  0  0  0  0  0  0  0  0  0  0
  183.9290  178.4240  141.2160 C   0  0  0  0  0  0  0  0  0  0  0  0
  185.9870  178.2680  139.3610 C   0  0  0  0  0  3  0  0  0  0  0  0
  181.8290  178.7700  137.3610 C   0  0  0  0  0  2  0  0  0  0  0  0
  181.9030  179.2290  138.8100 C   0  0  2  0  0  3  0  0  0  0  0  0
  184.3470  177.8870  137.4240 C   0  0  2  0  0  3  0  0  0  0  0  0
  181.7800  178.6470  141.0000 C   0  0  2  0  0  3  0  0  0  0  0  0
  187.6690  178.8350  141.1280 C   0  0  0  0  0  1  0  0  0  0  0  0
  180.7790  181.2730  139.1320 C   0  0  0  0  0  1  0  0  0  0  0  0
  184.6680  178.0180  138.9300 C   0  0  0  0  0  0  0  0  0  0  0  0
  182.7340  178.8590  141.8560 N   0  0  0  0  0  2  0  0  0  0  0  0
  182.8500  177.6550  137.0150 C   0  0  2  0  0  3  0  0  0  0  0  0
  182.2320  178.0820  139.7240 C   0  0  2  0  0  3  0  0  0  0  0  0
  180.6760  179.8390  139.3450 N   0  0  0  0  0  0  0  0  0  0  0  0
  180.7910  179.6240  140.7340 N   0  0  0  0  0  2  0  0  0  0  0  0
  185.2250  178.7050  141.6410 C   0  0  0  0  0  3  0  0  0  0  0  0
  182.6830  177.2540  135.5460 C   0  0  0  0  0  2  0  0  0  0  0  0
  182.3290  174.9270  135.0960 O   0  0  0  0  0  0  0  0  0  0  0  0
  180.7580  176.0160  136.5880 C   0  0  0  0  0  2  0  0  0  0  0  0
  181.3520  174.0400  134.6050 C   0  0  0  0  0  2  0  0  0  0  0  0
  181.6630  176.1390  135.3510 C   0  0  1  0  0  3  0  0  0  0  0  0
  180.4680  174.5520  136.9310 C   0  0  0  0  0  2  0  0  0  0  0  0
  180.2920  173.7040  135.6700 C   0  0  2  0  0  3  0  0  0  0  0  0
  180.4290  171.1610  136.2900 N   0  0  0  0  0  0  0  0  0  0  0  0
  180.3680  172.2840  136.0160 C   0  0  0  0  0  0  0  0  0  0  0  0
  185.2280  176.9310  136.7130 N   0  0  0  0  0  0  0  0  0  0  0  0
  187.6040  176.8520  136.4610 O   0  0  0  0  0  0  0  0  0  0  0  0
  186.4370  177.6040  136.2160 C   0  0  2  0  0  0  0  0  0  0  0  0
  186.3500  177.9850  134.7510 C   0  0  0  0  0  2  0  0  0  0  0  0
  187.0430  176.7160  135.1800 C   0  0  1  0  0  3  0  0  0  0  0  0
  185.5940  175.8170  137.5940 C   0  0  0  0  0  2  0  0  0  0  0  0
  183.6800  174.5290  138.1840 O   0  0  0  0  0  1  0  0  0  0  0  0
  184.7440  174.5980  137.2840 C   0  0  2  0  0  3  0  0  0  0  0  0
  185.6050  173.3520  137.4050 C   0  0  0  0  0  2  0  0  0  0  0  0
  185.5460  172.5230  136.1320 C   0  0  2  0  0  3  0  0  0  0  0  0
  185.8030  173.3340  135.0250 O   0  0  0  0  0  1  0  0  0  0  0  0
  183.7780  171.1370  136.8430 O   0  0  0  0  0  0  0  0  0  0  0  0
  184.1890  171.9190  136.0020 C   0  0  0  0  0  3  0  0  0  0  0  0
  1  3  1  0  0  0  0
  2  9  1  0  0  0  0
  2 17  1  0  0  0  0
  3 17  2  0  0  0  0
  3 12  1  0  0  0  0
  4  2  2  0  0  0  0
  6  5  1  6  0  0  0
  6 15  1  0  0  0  0
  6 14  1  0  0  0  0
  7 27  1  1  0  0  0
  7 11  1  0  0  0  0
  8 16  1  6  0  0  0
  8 12  1  0  0  0  0
 10 15  1  0  0  0  0
 11  4  1  0  0  0  0
 11  1  2  0  0  0  0
 13 18  1  6  0  0  0
 13  5  1  0  0  0  0
 13  7  1  0  0  0  0
 14  1  1  1  0  0  0
 14  8  1  0  0  0  0
 15 16  1  0  0  0  0
 19 22  1  0  0  0  0
 20 23  1  0  0  0  0
 21 19  1  0  0  0  0
 21 24  1  0  0  0  0
 22 18  1  1  0  0  0
 22 20  1  0  0  0  0
 24 26  1  1  0  0  0
 24 23  1  0  0  0  0
 26 25  3  0  0  0  0
 27 32  1  0  0  0  0
 29 28  1  0  0  0  0
 29 27  1  1  0  0  0
 30 29  1  0  0  0  0
 31 30  1  6  0  0  0
 31 29  1  0  0  0  0
 31 28  1  0  0  0  0
 34 35  1  0  0  0  0
 34 32  1  0  0  0  0
 34 33  1  1  0  0  0
 36 37  1  6  0  0  0
 36 35  1  0  0  0  0
 39 36  1  0  0  0  0
 39 38  2  0  0  0  0
M  END
>  <MODEL>
8

>  <REMARK>
 VINA RESULT:      -4.3      3.225      7.125
  Name = 
  10 active torsions:
  status: ('A' for Active; 'I' for Inactive)
    1  A    between atoms: C_1  and  C_13
    2  A    between atoms: C_1  and  C_33
    3  A    between atoms: C_6  and  N_11
    4  A    between atoms: C_8  and  C_17
    5  A    between atoms: C_8  and  C_37
    6  A    between atoms: N_11  and  C_14
    7  A    between atoms: N_11  and  C_19
    8  A    between atoms: C_14  and  C_37
    9  A    between atoms: C_17  and  C_32
   10  A    between atoms: C_23  and  C_35
                            x       y       z     vdW  Elec       q    Type
                         _______ _______ _______ _____ _____    ______ ____

>  <TORSDO>
F 10

$$$$
=
 OpenBabel11032420233D

 39 45  0  0  1  0  0  0  0  0999 V2000
  185.2400  177.8610  137.7130 C   0  0  0  0  0  0  0  0  0  0  0  0
  184.0560  175.7220  136.4360 C   0  0  0  0  0  0  0  0  0  0  0  0
  183.8870  177.8760  137.4770 C   0  0  0  0  0  0  0  0  0  0  0  0
  185.4260  175.6770  136.7690 C   0  0  0  0  0  3  0  0  0  0  0  0
  187.4220  178.2490  140.0770 C   0  0  0  0  0  2  0  0  0  0  0  0
  185.9150  178.4200  139.9540 C   0  0  2  0  0  3  0  0  0  0  0  0
  187.4930  176.6100  137.9720 C   0  0  2  0  0  3  0  0  0  0  0  0
  184.1970  179.4750  138.9120 C   0  0  2  0  0  3  0  0  0  0  0  0
  183.4300  174.5690  135.7380 C   0  0  0  0  0  1  0  0  0  0  0  0
  184.8730  178.4790  142.0640 C   0  0  0  0  0  1  0  0  0  0  0  0
  186.0480  176.7490  137.4400 C   0  0  0  0  0  0  0  0  0  0  0  0
  183.2430  178.8530  138.2870 N   0  0  0  0  0  2  0  0  0  0  0  0
  188.1040  177.8270  138.7500 C   0  0  2  0  0  3  0  0  0  0  0  0
  185.5420  178.9750  138.6080 C   0  0  2  0  0  3  0  0  0  0  0  0
  185.2950  179.3080  140.9490 N   0  0  0  0  0  0  0  0  0  0  0  0
  184.1220  179.7470  140.3000 N   0  0  0  0  0  2  0  0  0  0  0  0
  183.2600  176.8050  136.8440 C   0  0  0  0  0  3  0  0  0  0  0  0
  189.6140  177.7000  138.9740 C   0  0  0  0  0  2  0  0  0  0  0  0
  189.6840  176.4000  140.9860 O   0  0  0  0  0  0  0  0  0  0  0  0
  191.4820  177.9860  140.6330 C   0  0  0  0  0  2  0  0  0  0  0  0
  189.7400  176.5440  142.3860 C   0  0  0  0  0  2  0  0  0  0  0  0
  189.9910  177.6630  140.4500 C   0  0  1  0  0  3  0  0  0  0  0  0
  192.1230  177.1050  141.7090 C   0  0  0  0  0  2  0  0  0  0  0  0
  191.1650  176.8560  142.8750 C   0  0  2  0  0  3  0  0  0  0  0  0
  192.0560  174.8760  144.3440 N   0  0  0  0  0  0  0  0  0  0  0  0
  191.6620  175.7510  143.6950 C   0  0  0  0  0  0  0  0  0  0  0  0
  188.4500  176.1150  136.9550 N   0  0  0  0  0  0  0  0  0  0  0  0
  190.2690  176.9540  135.6490 O   0  0  0  0  0  0  0  0  0  0  0  0
  188.9790  177.2270  136.1500 C   0  0  2  0  0  0  0  0  0  0  0  0
  188.0520  177.6460  135.0260 C   0  0  0  0  0  2  0  0  0  0  0  0
  189.2030  176.7060  134.7690 C   0  0  1  0  0  3  0  0  0  0  0  0
  189.5490  175.3850  137.5950 C   0  0  0  0  0  2  0  0  0  0  0  0
  190.7200  173.5870  136.5620 O   0  0  0  0  0  1  0  0  0  0  0  0
  189.5190  173.9230  137.1880 C   0  0  2  0  0  3  0  0  0  0  0  0
  188.3580  173.7000  136.2330 C   0  0  0  0  0  2  0  0  0  0  0  0
  187.8610  172.2660  136.3030 C   0  0  2  0  0  3  0  0  0  0  0  0
  187.8690  171.6980  135.0270 O   0  0  0  0  0  1  0  0  0  0  0  0
  186.2430  172.6720  137.9660 O   0  0  0  0  0  0  0  0  0  0  0  0
  186.4710  172.2530  136.8430 C   0  0  0  0  0  3  0  0  0  0  0  0
  2  4  2  0  0  0  0
  2 17  1  0  0  0  0
  3  1  1  0  0  0  0
  3 12  1  0  0  0  0
  4 11  1  0  0  0  0
  6  5  1  1  0  0  0
  6 15  1  0  0  0  0
  7 27  1  6  0  0  0
  7 13  1  0  0  0  0
  8 12  1  1  0  0  0
  8 16  1  0  0  0  0
  9  2  1  0  0  0  0
 11  1  2  0  0  0  0
 11  7  1  0  0  0  0
 13 18  1  1  0  0  0
 13  5  1  0  0  0  0
 14  1  1  6  0  0  0
 14  8  1  0  0  0  0
 14  6  1  0  0  0  0
 15 10  1  0  0  0  0
 16 15  1  0  0  0  0
 17  3  2  0  0  0  0
 19 21  1  0  0  0  0
 20 23  1  0  0  0  0
 21 24  1  0  0  0  0
 22 18  1  6  0  0  0
 22 20  1  0  0  0  0
 22 19  1  0  0  0  0
 23 24  1  0  0  0  0
 24 26  1  6  0  0  0
 26 25  3  0  0  0  0
 27 32  1  0  0  0  0
 28 29  1  0  0  0  0
 29 27  1  1  0  0  0
 30 29  1  0  0  0  0
 31 30  1  6  0  0  0
 31 28  1  0  0  0  0
 31 29  1  0  0  0  0
 34 33  1  6  0  0  0
 34 32  1  0  0  0  0
 35 36  1  0  0  0  0
 35 34  1  0  0  0  0
 36 37  1  6  0  0  0
 36 39  1  0  0  0  0
 39 38  2  0  0  0  0
M  END
>  <MODEL>
9

>  <REMARK>
 VINA RESULT:      -4.3      4.081      7.477
  Name = 
  10 active torsions:
  status: ('A' for Active; 'I' for Inactive)
    1  A    between atoms: C_1  and  C_13
    2  A    between atoms: C_1  and  C_33
    3  A    between atoms: C_6  and  N_11
    4  A    between atoms: C_8  and  C_17
    5  A    between atoms: C_8  and  C_37
    6  A    between atoms: N_11  and  C_14
    7  A    between atoms: N_11  and  C_19
    8  A    between atoms: C_14  and  C_37
    9  A    between atoms: C_17  and  C_32
   10  A    between atoms: C_23  and  C_35
                            x       y       z     vdW  Elec       q    Type
                         _______ _______ _______ _____ _____    ______ ____

>  <TORSDO>
F 10

$$$$
