=
 OpenBabel11042412103D

 37 43  0  0  1  0  0  0  0  0999 V2000
  192.2330  176.3400  147.8940 O   0  0  0  0  0  0  0  0  0  0  0  0
  187.0890  177.1470  146.7090 O   0  0  0  0  0  0  0  0  0  0  0  0
  187.4100  178.2930  145.9680 C   0  0  1  0  0  3  0  0  0  0  0  0
  185.1670  179.1910  145.2430 C   0  0  0  0  0  3  0  0  0  0  0  0
  186.9110  178.0730  142.2270 N   0  0  0  0  0  0  0  0  0  0  0  0
  186.6340  178.2260  143.5570 C   0  0  0  0  0  0  0  0  0  0  0  0
  190.6910  177.2960  140.1120 N   0  0  0  0  0  0  0  0  0  0  0  0
  187.6300  177.9420  144.5190 C   0  0  0  0  0  0  0  0  0  0  0  0
  186.3520  179.3940  146.1400 C   0  0  0  0  0  2  0  0  0  0  0  0
  189.1250  177.3630  142.7100 C   0  0  0  0  0  0  0  0  0  0  0  0
  190.0940  177.1400  144.7560 C   0  0  0  0  0  0  0  0  0  0  0  0
  185.2960  178.7010  144.0030 C   0  0  0  0  0  0  0  0  0  0  0  0
  188.2550  177.4250  140.4560 C   0  0  0  0  0  2  0  0  0  0  0  0
  189.7290  176.2850  147.3350 C   0  0  1  0  0  3  0  0  0  0  0  0
  191.1100  176.4180  147.3340 C   0  0  0  0  0  0  0  0  0  0  0  0
  189.0950  177.4310  148.0940 C   0  0  0  0  0  2  0  0  0  0  0  0
  190.2350  176.7450  146.1190 N   0  0  0  0  0  0  0  0  0  0  0  0
  190.4400  177.1870  142.5370 C   0  0  0  0  0  0  0  0  0  0  0  0
  188.1210  177.6460  141.7670 C   0  0  0  0  0  0  0  0  0  0  0  0
  188.8450  177.4200  144.0570 C   0  0  1  0  0  3  0  0  0  0  0  0
  192.5870  177.9850  141.4000 C   0  0  0  0  0  1  0  0  0  0  0  0
  191.0630  177.0080  143.8600 C   0  0  0  0  0  3  0  0  0  0  0  0
  191.2000  177.4530  141.2960 C   0  0  0  0  0  0  0  0  0  0  0  0
  189.3980  176.6850  139.8340 C   0  0  0  0  0  2  0  0  0  0  0  0
  187.5660  177.3560  148.0190 C   0  0  0  0  0  2  0  0  0  0  0  0
  184.1120  178.0610  141.9160 C   0  0  0  0  0  3  0  0  0  0  0  0
  182.8830  179.0010  143.4550 C   0  0  0  0  0  3  0  0  0  0  0  0
  182.0360  178.7450  142.3920 C   0  0  0  0  0  3  0  0  0  0  0  0
  182.8240  178.1280  141.4370 C   0  0  0  0  0  0  0  0  0  0  0  0
  184.1300  178.5790  143.1600 N   0  0  0  0  0  0  0  0  0  0  0  0
  182.4330  177.7420  140.0700 C   0  0  0  0  0  3  0  0  0  0  0  0
  182.6140  178.4360  138.9340 C   0  0  0  0  0  0  0  0  0  0  0  0
  182.2590  180.7690  138.7570 O   0  0  0  0  0  0  0  0  0  0  0  0
  184.4270  180.1400  139.1140 O   0  0  0  0  0  1  0  0  0  0  0  0
  183.0880  179.8320  138.9000 C   0  0  0  0  0  0  0  0  0  0  0  0
  183.1720  177.5260  136.8450 O   0  0  0  0  0  1  0  0  0  0  0  0
  182.2920  177.8180  137.6830 N   0  0  0  0  0  2  0  0  0  0  0  0
  2 25  1  0  0  0  0
  3  9  1  6  0  0  0
  3  2  1  0  0  0  0
  4  9  1  0  0  0  0
  5  6  1  0  0  0  0
  6 12  1  0  0  0  0
  6  8  2  0  0  0  0
  7 23  2  0  0  0  0
  8  3  1  0  0  0  0
 11 17  1  0  0  0  0
 12  4  2  0  0  0  0
 13 19  1  0  0  0  0
 14 16  1  1  0  0  0
 15 14  1  0  0  0  0
 15  1  2  0  0  0  0
 17 15  1  0  0  0  0
 17 14  1  0  0  0  0
 18 10  2  0  0  0  0
 18 22  1  0  0  0  0
 19  5  2  0  0  0  0
 19 10  1  0  0  0  0
 20 10  1  6  0  0  0
 20  8  1  0  0  0  0
 20 11  1  0  0  0  0
 22 11  2  0  0  0  0
 23 21  1  0  0  0  0
 23 18  1  0  0  0  0
 24  7  1  0  0  0  0
 24 13  1  0  0  0  0
 25 16  1  0  0  0  0
 26 30  1  0  0  0  0
 28 27  2  0  0  0  0
 29 26  2  0  0  0  0
 29 28  1  0  0  0  0
 30 27  1  0  0  0  0
 30 12  1  0  0  0  0
 31 29  1  0  0  0  0
 32 31  2  0  0  0  0
 33 35  2  0  0  0  0
 35 32  1  0  0  0  0
 35 34  1  0  0  0  0
 36 37  1  0  0  0  0
 37 32  1  0  0  0  0
M  END
>  <MODEL>
1

>  <REMARK>
 VINA RESULT:      -9.5      0.000      0.000
  Name = 
  4 active torsions:
  status: ('A' for Active; 'I' for Inactive)
    1  A    between atoms: C_5  and  C_33
    2  A    between atoms: C_17  and  N_35
    3  A    between atoms: C_19  and  N_22
    4  A    between atoms: C_19  and  C_31
                            x       y       z     vdW  Elec       q    Type
                         _______ _______ _______ _____ _____    ______ ____

>  <TORSDO>
F 4

$$$$
=
 OpenBabel11042412103D

 37 43  0  0  1  0  0  0  0  0999 V2000
  184.6870  178.9930  146.5930 O   0  0  0  0  0  0  0  0  0  0  0  0
  186.5370  177.8960  141.7050 O   0  0  0  0  0  0  0  0  0  0  0  0
  187.7150  178.6130  141.9590 C   0  0  1  0  0  3  0  0  0  0  0  0
  188.9690  178.5060  139.7730 C   0  0  0  0  0  3  0  0  0  0  0  0
  190.8960  176.5870  142.2220 N   0  0  0  0  0  0  0  0  0  0  0  0
  189.8390  177.2620  141.6760 C   0  0  0  0  0  0  0  0  0  0  0  0
  192.0390  175.8660  146.4100 N   0  0  0  0  0  0  0  0  0  0  0  0
  188.7820  177.7020  142.5070 C   0  0  0  0  0  0  0  0  0  0  0  0
  188.1920  179.3780  140.7150 C   0  0  0  0  0  2  0  0  0  0  0  0
  189.9460  176.7370  144.3930 C   0  0  0  0  0  0  0  0  0  0  0  0
  187.9800  177.7200  144.9820 C   0  0  0  0  0  0  0  0  0  0  0  0
  189.7950  177.5480  140.2170 C   0  0  0  0  0  0  0  0  0  0  0  0
  192.0050  175.5460  143.9680 C   0  0  0  0  0  3  0  0  0  0  0  0
  185.3540  178.0850  144.2880 C   0  0  1  0  0  3  0  0  0  0  0  0
  185.3050  178.5320  145.6000 C   0  0  0  0  0  0  0  0  0  0  0  0
  185.3080  179.2590  143.3340 C   0  0  0  0  0  2  0  0  0  0  0  0
  186.5920  178.0420  144.9280 N   0  0  0  0  0  0  0  0  0  0  0  0
  189.9010  176.8260  145.7280 C   0  0  0  0  0  0  0  0  0  0  0  0
  190.9860  176.3030  143.5530 C   0  0  0  0  0  0  0  0  0  0  0  0
  188.8280  177.3370  143.8580 C   0  0  0  0  0  0  0  0  0  0  0  0
  191.1010  177.5050  147.8810 C   0  0  0  0  0  1  0  0  0  0  0  0
  188.6130  177.4310  146.1100 C   0  0  0  0  0  3  0  0  0  0  0  0
  191.0460  176.6670  146.6510 C   0  0  0  0  0  0  0  0  0  0  0  0
  192.0880  174.9040  145.3180 C   0  0  0  0  0  2  0  0  0  0  0  0
  185.4630  178.7910  141.8830 C   0  0  0  0  0  2  0  0  0  0  0  0
  191.7650  177.1240  138.7660 C   0  0  0  0  0  3  0  0  0  0  0  0
  190.1940  175.6110  138.7000 C   0  0  0  0  0  3  0  0  0  0  0  0
  191.1720  175.1850  137.8200 C   0  0  0  0  0  3  0  0  0  0  0  0
  192.1690  176.1410  137.8920 C   0  0  0  0  0  0  0  0  0  0  0  0
  190.5640  176.7760  139.2700 N   0  0  0  0  0  0  0  0  0  0  0  0
  193.3920  176.2190  137.0740 C   0  0  0  0  0  3  0  0  0  0  0  0
  194.5380  175.5350  137.2370 C   0  0  0  0  0  0  0  0  0  0  0  0
  194.6810  173.4490  138.3440 O   0  0  0  0  0  0  0  0  0  0  0  0
  195.3370  175.2530  139.5830 O   0  0  0  0  0  1  0  0  0  0  0  0
  194.8240  174.6980  138.4170 C   0  0  0  0  0  0  0  0  0  0  0  0
  196.7570  175.3810  136.4920 O   0  0  0  0  0  1  0  0  0  0  0  0
  195.5620  175.6480  136.2430 N   0  0  0  0  0  2  0  0  0  0  0  0
  2 25  1  0  0  0  0
  2  3  1  0  0  0  0
  3  9  1  6  0  0  0
  3  8  1  0  0  0  0
  4 12  2  0  0  0  0
  4  9  1  0  0  0  0
  5 19  1  0  0  0  0
  6  5  2  0  0  0  0
  6  8  1  0  0  0  0
  7 23  2  0  0  0  0
  8 20  2  0  0  0  0
 10 18  2  0  0  0  0
 11 22  2  0  0  0  0
 12  6  1  0  0  0  0
 13 24  1  0  0  0  0
 14 16  1  6  0  0  0
 14 17  1  0  0  0  0
 14 15  1  0  0  0  0
 15  1  2  0  0  0  0
 17 11  1  0  0  0  0
 17 15  1  0  0  0  0
 18 22  1  0  0  0  0
 18 23  1  0  0  0  0
 19 13  2  0  0  0  0
 19 10  1  0  0  0  0
 20 10  1  0  0  0  0
 20 11  1  0  0  0  0
 23 21  1  0  0  0  0
 24  7  1  0  0  0  0
 25 16  1  0  0  0  0
 26 30  1  0  0  0  0
 27 30  1  0  0  0  0
 28 29  1  0  0  0  0
 28 27  2  0  0  0  0
 29 26  2  0  0  0  0
 30 12  1  0  0  0  0
 31 32  2  0  0  0  0
 31 29  1  0  0  0  0
 32 35  1  0  0  0  0
 33 35  2  0  0  0  0
 35 34  1  0  0  0  0
 37 36  1  0  0  0  0
 37 32  1  0  0  0  0
M  END
>  <MODEL>
2

>  <REMARK>
 VINA RESULT:      -9.4      3.881      7.841
  Name = 
  4 active torsions:
  status: ('A' for Active; 'I' for Inactive)
    1  A    between atoms: C_5  and  C_33
    2  A    between atoms: C_17  and  N_35
    3  A    between atoms: C_19  and  N_22
    4  A    between atoms: C_19  and  C_31
                            x       y       z     vdW  Elec       q    Type
                         _______ _______ _______ _____ _____    ______ ____

>  <TORSDO>
F 4

$$$$
=
 OpenBabel11042412103D

 37 43  0  0  1  0  0  0  0  0999 V2000
  179.3050  179.0580  144.6090 O   0  0  0  0  0  0  0  0  0  0  0  0
  181.9470  178.2870  140.0320 O   0  0  0  0  0  0  0  0  0  0  0  0
  182.8480  179.3150  140.3460 C   0  0  1  0  0  3  0  0  0  0  0  0
  184.3340  179.4570  138.3120 C   0  0  0  0  0  3  0  0  0  0  0  0
  186.4050  178.2680  141.0850 N   0  0  0  0  0  0  0  0  0  0  0  0
  185.2770  178.5960  140.3850 C   0  0  0  0  0  0  0  0  0  0  0  0
  187.1970  178.0940  145.4100 N   0  0  0  0  0  0  0  0  0  0  0  0
  184.0500  178.7630  141.0680 C   0  0  0  0  0  0  0  0  0  0  0  0
  183.2430  180.1220  139.1000 C   0  0  0  0  0  2  0  0  0  0  0  0
  185.2000  178.2510  143.1310 C   0  0  0  0  0  0  0  0  0  0  0  0
  182.9860  178.6750  143.4410 C   0  0  0  0  0  0  0  0  0  0  0  0
  185.3300  178.7890  138.9100 C   0  0  0  0  0  0  0  0  0  0  0  0
  187.5400  177.6610  143.0100 C   0  0  0  0  0  3  0  0  0  0  0  0
  180.4600  178.2620  142.4600 C   0  0  1  0  0  3  0  0  0  0  0  0
  180.1380  178.7400  143.7220 C   0  0  0  0  0  0  0  0  0  0  0  0
  180.2110  179.3300  141.4180 C   0  0  0  0  0  2  0  0  0  0  0  0
  181.5790  178.5960  143.2230 N   0  0  0  0  0  0  0  0  0  0  0  0
  184.9750  178.3870  144.4440 C   0  0  0  0  0  0  0  0  0  0  0  0
  186.4110  178.0850  142.4360 C   0  0  0  0  0  0  0  0  0  0  0  0
  184.0330  178.4900  142.4420 C   0  0  0  0  0  0  0  0  0  0  0  0
  185.6840  179.4750  146.6470 C   0  0  0  0  0  1  0  0  0  0  0  0
  183.5360  178.6280  144.6460 C   0  0  0  0  0  3  0  0  0  0  0  0
  186.0030  178.5970  145.4870 C   0  0  0  0  0  0  0  0  0  0  0  0
  187.6340  177.1320  144.4070 C   0  0  0  0  0  2  0  0  0  0  0  0
  180.6570  178.8560  140.0300 C   0  0  0  0  0  2  0  0  0  0  0  0
  186.7180  176.9120  138.0670 C   0  0  0  0  0  3  0  0  0  0  0  0
  187.2360  178.8910  137.3080 C   0  0  0  0  0  3  0  0  0  0  0  0
  188.1320  178.0120  136.7270 C   0  0  0  0  0  3  0  0  0  0  0  0
  187.7750  176.7610  137.1990 C   0  0  0  0  0  0  0  0  0  0  0  0
  186.3850  178.2170  138.1090 N   0  0  0  0  0  0  0  0  0  0  0  0
  188.4760  175.4860  136.9680 C   0  0  0  0  0  3  0  0  0  0  0  0
  189.6610  175.0950  137.4670 C   0  0  0  0  0  0  0  0  0  0  0  0
  190.5400  176.0030  139.4670 O   0  0  0  0  0  1  0  0  0  0  0  0
  191.5180  176.7590  137.5460 O   0  0  0  0  0  0  0  0  0  0  0  0
  190.5680  175.9910  138.2080 C   0  0  0  0  0  0  0  0  0  0  0  0
  191.2600  173.4940  136.8450 O   0  0  0  0  0  1  0  0  0  0  0  0
  190.1020  173.7520  137.2380 N   0  0  0  0  0  2  0  0  0  0  0  0
  2  3  1  0  0  0  0
  3  9  1  6  0  0  0
  3  8  1  0  0  0  0
  4 12  2  0  0  0  0
  4  9  1  0  0  0  0
  5 19  1  0  0  0  0
  6  8  1  0  0  0  0
  6  5  2  0  0  0  0
  7 23  2  0  0  0  0
  8 20  2  0  0  0  0
 10 18  2  0  0  0  0
 11 22  2  0  0  0  0
 12  6  1  0  0  0  0
 13 24  1  0  0  0  0
 14 16  1  6  0  0  0
 14 17  1  0  0  0  0
 14 15  1  0  0  0  0
 15  1  2  0  0  0  0
 17 11  1  0  0  0  0
 17 15  1  0  0  0  0
 18 22  1  0  0  0  0
 18 23  1  0  0  0  0
 19 13  2  0  0  0  0
 19 10  1  0  0  0  0
 20 10  1  0  0  0  0
 20 11  1  0  0  0  0
 23 21  1  0  0  0  0
 24  7  1  0  0  0  0
 25  2  1  0  0  0  0
 25 16  1  0  0  0  0
 26 30  1  0  0  0  0
 27 30  1  0  0  0  0
 28 29  1  0  0  0  0
 28 27  2  0  0  0  0
 29 26  2  0  0  0  0
 30 12  1  0  0  0  0
 31 29  1  0  0  0  0
 31 32  2  0  0  0  0
 32 35  1  0  0  0  0
 34 35  2  0  0  0  0
 35 33  1  0  0  0  0
 36 37  1  0  0  0  0
 37 32  1  0  0  0  0
M  END
>  <MODEL>
3

>  <REMARK>
 VINA RESULT:      -8.9      3.370      7.679
  Name = 
  4 active torsions:
  status: ('A' for Active; 'I' for Inactive)
    1  A    between atoms: C_5  and  C_33
    2  A    between atoms: C_17  and  N_35
    3  A    between atoms: C_19  and  N_22
    4  A    between atoms: C_19  and  C_31
                            x       y       z     vdW  Elec       q    Type
                         _______ _______ _______ _____ _____    ______ ____

>  <TORSDO>
F 4

$$$$
=
 OpenBabel11042412103D

 37 43  0  0  1  0  0  0  0  0999 V2000
  191.0990  177.5030  139.7990 O   0  0  0  0  0  0  0  0  0  0  0  0
  186.4720  179.0010  137.5920 O   0  0  0  0  0  0  0  0  0  0  0  0
  185.7900  177.9680  138.2510 C   0  0  1  0  0  3  0  0  0  0  0  0
  183.4250  178.1650  137.3960 C   0  0  0  0  0  3  0  0  0  0  0  0
  183.3630  179.0130  140.9560 N   0  0  0  0  0  0  0  0  0  0  0  0
  183.8770  178.7520  139.7150 C   0  0  0  0  0  0  0  0  0  0  0  0
  185.1080  178.5960  144.9730 N   0  0  0  0  0  0  0  0  0  0  0  0
  185.2510  178.4500  139.5730 C   0  0  0  0  0  0  0  0  0  0  0  0
  184.6910  177.3600  137.3670 C   0  0  0  0  0  2  0  0  0  0  0  0
  185.4900  178.7000  141.9650 C   0  0  0  0  0  0  0  0  0  0  0  0
  187.4480  178.1660  140.9380 C   0  0  0  0  0  0  0  0  0  0  0  0
  183.0000  178.7720  138.5130 C   0  0  0  0  0  0  0  0  0  0  0  0
  183.5480  179.3760  143.2350 C   0  0  0  0  0  3  0  0  0  0  0  0
  189.0430  178.6330  138.7580 C   0  0  1  0  0  3  0  0  0  0  0  0
  189.9540  177.9710  139.5680 C   0  0  0  0  0  0  0  0  0  0  0  0
  188.5620  177.7160  137.6540 C   0  0  0  0  0  2  0  0  0  0  0  0
  188.5010  178.2300  139.9790 N   0  0  0  0  0  0  0  0  0  0  0  0
  186.3840  178.3720  142.9050 C   0  0  0  0  0  0  0  0  0  0  0  0
  184.1220  179.0030  142.0880 C   0  0  0  0  0  0  0  0  0  0  0  0
  186.0510  178.5240  140.7210 C   0  0  0  0  0  0  0  0  0  0  0  0
  186.8960  177.0050  145.0050 C   0  0  0  0  0  1  0  0  0  0  0  0
  187.6620  178.0590  142.2420 C   0  0  0  0  0  3  0  0  0  0  0  0
  186.0860  178.0480  144.3180 C   0  0  0  0  0  0  0  0  0  0  0  0
  184.2960  179.7040  144.4890 C   0  0  0  0  0  2  0  0  0  0  0  0
  187.4790  178.3970  136.8110 C   0  0  0  0  0  2  0  0  0  0  0  0
  181.6040  180.8230  138.6010 C   0  0  0  0  0  3  0  0  0  0  0  0
  180.5150  178.9390  138.4350 C   0  0  0  0  0  3  0  0  0  0  0  0
  179.5540  179.9320  138.4820 C   0  0  0  0  0  3  0  0  0  0  0  0
  180.2600  181.1200  138.5620 C   0  0  0  0  0  0  0  0  0  0  0  0
  181.7460  179.4860  138.5010 N   0  0  0  0  0  0  0  0  0  0  0  0
  179.7120  182.4750  138.7410 C   0  0  0  0  0  3  0  0  0  0  0  0
  179.8830  183.5450  137.9450 C   0  0  0  0  0  0  0  0  0  0  0  0
  181.9310  184.1830  136.9470 O   0  0  0  0  0  1  0  0  0  0  0  0
  180.5830  182.8750  135.6470 O   0  0  0  0  0  0  0  0  0  0  0  0
  180.8350  183.5770  136.8190 C   0  0  0  0  0  0  0  0  0  0  0  0
  178.9790  185.6280  137.3540 O   0  0  0  0  0  1  0  0  0  0  0  0
  179.1420  184.7390  138.2170 N   0  0  0  0  0  2  0  0  0  0  0  0
  2  3  1  0  0  0  0
  3  9  1  6  0  0  0
  3  8  1  0  0  0  0
  4 12  2  0  0  0  0
  5 19  1  0  0  0  0
  6  5  2  0  0  0  0
  8  6  1  0  0  0  0
  8 20  2  0  0  0  0
  9  4  1  0  0  0  0
 10 19  1  0  0  0  0
 10 18  2  0  0  0  0
 11 22  2  0  0  0  0
 12  6  1  0  0  0  0
 13 24  1  0  0  0  0
 14 16  1  6  0  0  0
 14 15  1  0  0  0  0
 14 17  1  0  0  0  0
 15  1  2  0  0  0  0
 15 17  1  0  0  0  0
 17 11  1  0  0  0  0
 18 23  1  0  0  0  0
 19 13  2  0  0  0  0
 20 11  1  0  0  0  0
 20 10  1  0  0  0  0
 22 18  1  0  0  0  0
 23  7  2  0  0  0  0
 23 21  1  0  0  0  0
 24  7  1  0  0  0  0
 25  2  1  0  0  0  0
 25 16  1  0  0  0  0
 27 28  2  0  0  0  0
 27 30  1  0  0  0  0
 28 29  1  0  0  0  0
 29 26  2  0  0  0  0
 29 31  1  0  0  0  0
 30 12  1  0  0  0  0
 30 26  1  0  0  0  0
 32 37  1  0  0  0  0
 32 31  2  0  0  0  0
 34 35  2  0  0  0  0
 35 33  1  0  0  0  0
 35 32  1  0  0  0  0
 36 37  1  0  0  0  0
M  END
>  <MODEL>
4

>  <REMARK>
 VINA RESULT:      -8.7      3.195      6.663
  Name = 
  4 active torsions:
  status: ('A' for Active; 'I' for Inactive)
    1  A    between atoms: C_5  and  C_33
    2  A    between atoms: C_17  and  N_35
    3  A    between atoms: C_19  and  N_22
    4  A    between atoms: C_19  and  C_31
                            x       y       z     vdW  Elec       q    Type
                         _______ _______ _______ _____ _____    ______ ____

>  <TORSDO>
F 4

$$$$
=
 OpenBabel11042412103D

 37 43  0  0  1  0  0  0  0  0999 V2000
  183.5640  179.3470  142.6650 O   0  0  0  0  0  0  0  0  0  0  0  0
  186.7940  177.4260  138.8700 O   0  0  0  0  0  0  0  0  0  0  0  0
  187.8350  178.2650  139.2920 C   0  0  1  0  0  3  0  0  0  0  0  0
  189.6830  177.8120  137.6350 C   0  0  0  0  0  3  0  0  0  0  0  0
  190.8170  176.5750  140.8870 N   0  0  0  0  0  0  0  0  0  0  0  0
  189.9620  177.0450  139.9280 C   0  0  0  0  0  0  0  0  0  0  0  0
  190.6730  176.7990  145.2790 N   0  0  0  0  0  0  0  0  0  0  0  0
  188.7020  177.5640  140.3050 C   0  0  0  0  0  0  0  0  0  0  0  0
  188.6510  178.7960  138.1030 C   0  0  0  0  0  2  0  0  0  0  0  0
  189.2630  177.0880  142.6080 C   0  0  0  0  0  0  0  0  0  0  0  0
  187.2010  178.0220  142.3810 C   0  0  0  0  0  0  0  0  0  0  0  0
  190.3510  177.0280  138.4920 C   0  0  0  0  0  0  0  0  0  0  0  0
  191.3690  175.9920  143.0590 C   0  0  0  0  0  3  0  0  0  0  0  0
  184.8950  178.0440  140.8990 C   0  0  1  0  0  3  0  0  0  0  0  0
  184.4550  178.7410  142.0140 C   0  0  0  0  0  0  0  0  0  0  0  0
  185.1220  178.9950  139.7440 C   0  0  0  0  0  2  0  0  0  0  0  0
  185.8880  178.2230  141.8620 N   0  0  0  0  0  0  0  0  0  0  0  0
  188.8230  177.4410  143.8220 C   0  0  0  0  0  0  0  0  0  0  0  0
  190.5110  176.5720  142.2160 C   0  0  0  0  0  0  0  0  0  0  0  0
  188.3480  177.4840  141.6580 C   0  0  0  0  0  0  0  0  0  0  0  0
  189.3230  178.6270  146.0310 C   0  0  0  0  0  1  0  0  0  0  0  0
  187.4740  178.0140  143.6780 C   0  0  0  0  0  3  0  0  0  0  0  0
  189.6440  177.5570  145.0470 C   0  0  0  0  0  0  0  0  0  0  0  0
  191.0550  175.6430  144.4800 C   0  0  0  0  0  2  0  0  0  0  0  0
  185.7050  178.2570  138.5340 C   0  0  0  0  0  2  0  0  0  0  0  0
  192.6570  176.4780  137.7550 C   0  0  0  0  0  3  0  0  0  0  0  0
  191.2110  174.8460  137.6480 C   0  0  0  0  0  3  0  0  0  0  0  0
  192.4070  174.3290  137.1840 C   0  0  0  0  0  3  0  0  0  0  0  0
  193.3170  175.3670  137.2810 C   0  0  0  0  0  0  0  0  0  0  0  0
  191.3740  176.1390  137.9950 N   0  0  0  0  0  0  0  0  0  0  0  0
  194.7150  175.3760  136.8190 C   0  0  0  0  0  3  0  0  0  0  0  0
  195.7820  174.8120  137.4100 C   0  0  0  0  0  0  0  0  0  0  0  0
  195.4950  173.0010  138.9060 O   0  0  0  0  0  0  0  0  0  0  0  0
  196.0780  174.9830  139.8810 O   0  0  0  0  0  1  0  0  0  0  0  0
  195.7480  174.2260  138.7630 C   0  0  0  0  0  0  0  0  0  0  0  0
  197.9460  175.6190  136.9980 O   0  0  0  0  0  1  0  0  0  0  0  0
  197.0380  174.8080  136.7210 N   0  0  0  0  0  2  0  0  0  0  0  0
  2  3  1  0  0  0  0
  3  9  1  6  0  0  0
  3  8  1  0  0  0  0
  4  9  1  0  0  0  0
  4 12  2  0  0  0  0
  5 19  1  0  0  0  0
  6  8  1  0  0  0  0
  6  5  2  0  0  0  0
  8 20  2  0  0  0  0
 10 18  2  0  0  0  0
 11 22  2  0  0  0  0
 12  6  1  0  0  0  0
 13 24  1  0  0  0  0
 14 16  1  6  0  0  0
 14 17  1  0  0  0  0
 14 15  1  0  0  0  0
 15  1  2  0  0  0  0
 17 15  1  0  0  0  0
 17 11  1  0  0  0  0
 18 23  1  0  0  0  0
 19 10  1  0  0  0  0
 19 13  2  0  0  0  0
 20 11  1  0  0  0  0
 20 10  1  0  0  0  0
 22 18  1  0  0  0  0
 23  7  2  0  0  0  0
 23 21  1  0  0  0  0
 24  7  1  0  0  0  0
 25  2  1  0  0  0  0
 25 16  1  0  0  0  0
 26 30  1  0  0  0  0
 27 30  1  0  0  0  0
 28 29  1  0  0  0  0
 28 27  2  0  0  0  0
 29 26  2  0  0  0  0
 30 12  1  0  0  0  0
 31 29  1  0  0  0  0
 31 32  2  0  0  0  0
 32 35  1  0  0  0  0
 35 33  2  0  0  0  0
 35 34  1  0  0  0  0
 37 36  1  0  0  0  0
 37 32  1  0  0  0  0
M  END
>  <MODEL>
5

>  <REMARK>
 VINA RESULT:      -8.7      4.188      9.015
  Name = 
  4 active torsions:
  status: ('A' for Active; 'I' for Inactive)
    1  A    between atoms: C_5  and  C_33
    2  A    between atoms: C_17  and  N_35
    3  A    between atoms: C_19  and  N_22
    4  A    between atoms: C_19  and  C_31
                            x       y       z     vdW  Elec       q    Type
                         _______ _______ _______ _____ _____    ______ ____

>  <TORSDO>
F 4

$$$$
=
 OpenBabel11042412103D

 37 43  0  0  1  0  0  0  0  0999 V2000
  188.6240  177.9570  149.0450 O   0  0  0  0  0  0  0  0  0  0  0  0
  184.8470  177.8640  145.2710 O   0  0  0  0  0  0  0  0  0  0  0  0
  185.4670  178.9160  144.5840 C   0  0  1  0  0  3  0  0  0  0  0  0
  183.9090  179.3780  142.6540 C   0  0  0  0  0  3  0  0  0  0  0  0
  187.0190  178.0630  141.2440 N   0  0  0  0  0  0  0  0  0  0  0  0
  186.0780  178.3770  142.1850 C   0  0  0  0  0  0  0  0  0  0  0  0
  191.3720  177.4980  141.5550 N   0  0  0  0  0  0  0  0  0  0  0  0
  186.4290  178.3820  143.5550 C   0  0  0  0  0  0  0  0  0  0  0  0
  184.4370  179.8760  143.9680 C   0  0  0  0  0  2  0  0  0  0  0  0
  188.6720  177.7440  142.9180 C   0  0  0  0  0  0  0  0  0  0  0  0
  188.4280  177.9700  145.1690 C   0  0  0  0  0  0  0  0  0  0  0  0
  184.6890  178.7270  141.7810 C   0  0  0  0  0  0  0  0  0  0  0  0
  189.1160  177.3440  140.5770 C   0  0  0  0  0  2  0  0  0  0  0  0
  186.7930  177.4760  147.3130 C   0  0  1  0  0  3  0  0  0  0  0  0
  187.9620  177.7950  147.9880 C   0  0  0  0  0  0  0  0  0  0  0  0
  185.8120  178.6260  147.3940 C   0  0  0  0  0  2  0  0  0  0  0  0
  187.8460  177.8110  146.4610 N   0  0  0  0  0  0  0  0  0  0  0  0
  189.8870  177.7260  143.4790 C   0  0  0  0  0  0  0  0  0  0  0  0
  188.3050  177.7400  141.5610 C   0  0  0  0  0  0  0  0  0  0  0  0
  187.7240  177.9670  143.8910 C   0  0  1  0  0  3  0  0  0  0  0  0
  192.2800  178.6280  143.4600 C   0  0  0  0  0  1  0  0  0  0  0  0
  189.7270  177.8380  144.9390 C   0  0  0  0  0  3  0  0  0  0  0  0
  191.1760  177.9020  142.7740 C   0  0  0  0  0  0  0  0  0  0  0  0
  190.4420  176.6810  140.7870 C   0  0  0  0  0  2  0  0  0  0  0  0
  184.5550  178.3330  146.5680 C   0  0  0  0  0  2  0  0  0  0  0  0
  183.2740  177.3110  140.3130 C   0  0  0  0  0  3  0  0  0  0  0  0
  184.4510  178.8470  139.3030 C   0  0  0  0  0  3  0  0  0  0  0  0
  183.7600  178.1790  138.3080 C   0  0  0  0  0  3  0  0  0  0  0  0
  183.0020  177.2270  138.9660 C   0  0  0  0  0  0  0  0  0  0  0  0
  184.1460  178.3200  140.5070 N   0  0  0  0  0  0  0  0  0  0  0  0
  182.1610  176.1800  138.3610 C   0  0  0  0  0  3  0  0  0  0  0  0
  182.5630  175.0520  137.7480 C   0  0  0  0  0  0  0  0  0  0  0  0
  184.5570  173.7980  137.9680 O   0  0  0  0  0  1  0  0  0  0  0  0
  184.6350  175.4860  136.4300 O   0  0  0  0  0  0  0  0  0  0  0  0
  183.9700  174.7650  137.4140 C   0  0  0  0  0  0  0  0  0  0  0  0
  180.8680  174.2450  136.3410 O   0  0  0  0  0  1  0  0  0  0  0  0
  181.5800  174.0880  137.3550 N   0  0  0  0  0  2  0  0  0  0  0  0
  2 25  1  0  0  0  0
  3  9  1  6  0  0  0
  3  2  1  0  0  0  0
  4  9  1  0  0  0  0
  5 19  2  0  0  0  0
  5  6  1  0  0  0  0
  6  8  2  0  0  0  0
  7 23  2  0  0  0  0
  8 20  1  0  0  0  0
  8  3  1  0  0  0  0
 10 18  2  0  0  0  0
 11 17  1  0  0  0  0
 12  6  1  0  0  0  0
 12  4  2  0  0  0  0
 13 24  1  0  0  0  0
 13 19  1  0  0  0  0
 14 16  1  1  0  0  0
 14 15  1  0  0  0  0
 15  1  2  0  0  0  0
 17 14  1  0  0  0  0
 17 15  1  0  0  0  0
 18 22  1  0  0  0  0
 19 10  1  0  0  0  0
 20 10  1  6  0  0  0
 20 11  1  0  0  0  0
 22 11  2  0  0  0  0
 23 21  1  0  0  0  0
 23 18  1  0  0  0  0
 24  7  1  0  0  0  0
 25 16  1  0  0  0  0
 26 30  1  0  0  0  0
 27 30  1  0  0  0  0
 28 29  1  0  0  0  0
 28 27  2  0  0  0  0
 29 26  2  0  0  0  0
 30 12  1  0  0  0  0
 31 29  1  0  0  0  0
 32 31  2  0  0  0  0
 34 35  2  0  0  0  0
 35 32  1  0  0  0  0
 35 33  1  0  0  0  0
 36 37  1  0  0  0  0
 37 32  1  0  0  0  0
M  END
>  <MODEL>
6

>  <REMARK>
 VINA RESULT:      -8.7      2.195      3.097
  Name = 
  4 active torsions:
  status: ('A' for Active; 'I' for Inactive)
    1  A    between atoms: C_5  and  C_33
    2  A    between atoms: C_17  and  N_35
    3  A    between atoms: C_19  and  N_22
    4  A    between atoms: C_19  and  C_31
                            x       y       z     vdW  Elec       q    Type
                         _______ _______ _______ _____ _____    ______ ____

>  <TORSDO>
F 4

$$$$
=
 OpenBabel11042412103D

 37 43  0  0  1  0  0  0  0  0999 V2000
  184.5630  178.7670  146.7810 O   0  0  0  0  0  0  0  0  0  0  0  0
  186.5110  177.8130  141.9010 O   0  0  0  0  0  0  0  0  0  0  0  0
  187.6550  178.5730  142.1790 C   0  0  1  0  0  3  0  0  0  0  0  0
  188.9380  178.5470  140.0060 C   0  0  0  0  0  3  0  0  0  0  0  0
  190.9130  176.6730  142.4520 N   0  0  0  0  0  0  0  0  0  0  0  0
  189.8350  177.3120  141.9020 C   0  0  0  0  0  0  0  0  0  0  0  0
  192.0360  175.9400  146.6420 N   0  0  0  0  0  0  0  0  0  0  0  0
  188.7530  177.6980  142.7260 C   0  0  0  0  0  0  0  0  0  0  0  0
  188.1150  179.3740  140.9500 C   0  0  0  0  0  2  0  0  0  0  0  0
  189.9320  176.7540  144.6130 C   0  0  0  0  0  0  0  0  0  0  0  0
  187.9220  177.6490  145.1920 C   0  0  0  0  0  0  0  0  0  0  0  0
  189.7970  177.6170  140.4470 C   0  0  0  0  0  0  0  0  0  0  0  0
  192.0420  175.6530  144.1960 C   0  0  0  0  0  3  0  0  0  0  0  0
  185.2910  177.9180  144.4720 C   0  0  1  0  0  3  0  0  0  0  0  0
  185.2100  178.3440  145.7890 C   0  0  0  0  0  0  0  0  0  0  0  0
  185.2090  179.1030  143.5330 C   0  0  0  0  0  2  0  0  0  0  0  0
  186.5230  177.9170  145.1260 N   0  0  0  0  0  0  0  0  0  0  0  0
  189.8690  176.8220  145.9480 C   0  0  0  0  0  0  0  0  0  0  0  0
  190.9990  176.3740  143.7790 C   0  0  0  0  0  0  0  0  0  0  0  0
  188.7970  177.3160  144.0730 C   0  0  0  0  0  0  0  0  0  0  0  0
  191.0170  177.5190  148.1250 C   0  0  0  0  0  1  0  0  0  0  0  0
  188.5540  177.3700  146.3240 C   0  0  0  0  0  3  0  0  0  0  0  0
  191.0090  176.6970  146.8830 C   0  0  0  0  0  0  0  0  0  0  0  0
  192.1360  174.9960  145.5380 C   0  0  0  0  0  2  0  0  0  0  0  0
  185.3990  178.6620  142.0780 C   0  0  0  0  0  2  0  0  0  0  0  0
  190.1820  175.8710  138.7240 C   0  0  0  0  0  3  0  0  0  0  0  0
  191.9220  177.0750  139.2620 C   0  0  0  0  0  3  0  0  0  0  0  0
  192.3600  176.1710  138.3110 C   0  0  0  0  0  3  0  0  0  0  0  0
  191.2420  175.4330  137.9640 C   0  0  0  0  0  0  0  0  0  0  0  0
  190.6060  176.8900  139.4990 N   0  0  0  0  0  0  0  0  0  0  0  0
  191.1850  174.2680  137.0650 C   0  0  0  0  0  3  0  0  0  0  0  0
  191.7100  174.1510  135.8330 C   0  0  0  0  0  0  0  0  0  0  0  0
  191.5400  176.1590  134.5950 O   0  0  0  0  0  0  0  0  0  0  0  0
  193.6720  175.4420  134.9930 O   0  0  0  0  0  1  0  0  0  0  0  0
  192.2950  175.2800  135.0870 C   0  0  0  0  0  0  0  0  0  0  0  0
  192.6840  172.3730  134.6520 O   0  0  0  0  0  1  0  0  0  0  0  0
  191.6700  172.8770  135.1790 N   0  0  0  0  0  2  0  0  0  0  0  0
  2 25  1  0  0  0  0
  2  3  1  0  0  0  0
  3  9  1  6  0  0  0
  3  8  1  0  0  0  0
  4 12  2  0  0  0  0
  4  9  1  0  0  0  0
  5 19  1  0  0  0  0
  6  5  2  0  0  0  0
  6  8  1  0  0  0  0
  7 23  2  0  0  0  0
  8 20  2  0  0  0  0
 10 18  2  0  0  0  0
 11 22  2  0  0  0  0
 12  6  1  0  0  0  0
 13 24  1  0  0  0  0
 14 16  1  6  0  0  0
 14 17  1  0  0  0  0
 14 15  1  0  0  0  0
 15  1  2  0  0  0  0
 17 11  1  0  0  0  0
 17 15  1  0  0  0  0
 18 22  1  0  0  0  0
 18 23  1  0  0  0  0
 19 13  2  0  0  0  0
 19 10  1  0  0  0  0
 20 10  1  0  0  0  0
 20 11  1  0  0  0  0
 23 21  1  0  0  0  0
 24  7  1  0  0  0  0
 25 16  1  0  0  0  0
 26 30  1  0  0  0  0
 27 30  1  0  0  0  0
 28 27  2  0  0  0  0
 29 28  1  0  0  0  0
 29 26  2  0  0  0  0
 30 12  1  0  0  0  0
 31 29  1  0  0  0  0
 32 31  2  0  0  0  0
 33 35  2  0  0  0  0
 34 35  1  0  0  0  0
 35 32  1  0  0  0  0
 36 37  1  0  0  0  0
 37 32  1  0  0  0  0
M  END
>  <MODEL>
7

>  <REMARK>
 VINA RESULT:      -8.5      3.827      7.194
  Name = 
  4 active torsions:
  status: ('A' for Active; 'I' for Inactive)
    1  A    between atoms: C_5  and  C_33
    2  A    between atoms: C_17  and  N_35
    3  A    between atoms: C_19  and  N_22
    4  A    between atoms: C_19  and  C_31
                            x       y       z     vdW  Elec       q    Type
                         _______ _______ _______ _____ _____    ______ ____

>  <TORSDO>
F 4

$$$$
=
 OpenBabel11042412103D

 37 43  0  0  1  0  0  0  0  0999 V2000
  187.7700  178.1900  149.7290 O   0  0  0  0  0  0  0  0  0  0  0  0
  190.8160  177.4270  145.4100 O   0  0  0  0  0  0  0  0  0  0  0  0
  189.8940  176.5100  144.8860 C   0  0  1  0  0  3  0  0  0  0  0  0
  190.9900  175.6980  142.7640 C   0  0  0  0  0  3  0  0  0  0  0  0
  188.0150  177.5930  141.7900 N   0  0  0  0  0  0  0  0  0  0  0  0
  189.0170  177.1120  142.5870 C   0  0  0  0  0  0  0  0  0  0  0  0
  183.9740  179.0460  142.7490 N   0  0  0  0  0  0  0  0  0  0  0  0
  188.9020  177.2080  143.9930 C   0  0  0  0  0  0  0  0  0  0  0  0
  190.5970  175.3470  144.1690 C   0  0  0  0  0  2  0  0  0  0  0  0
  186.7570  178.2800  143.6830 C   0  0  0  0  0  0  0  0  0  0  0  0
  187.3180  178.0560  145.8770 C   0  0  0  0  0  0  0  0  0  0  0  0
  190.2220  176.4770  141.9900 C   0  0  0  0  0  0  0  0  0  0  0  0
  186.0220  178.7130  141.4230 C   0  0  0  0  0  2  0  0  0  0  0  0
  189.3490  178.2480  147.7070 C   0  0  1  0  0  3  0  0  0  0  0  0
  188.2680  178.1900  148.5740 C   0  0  0  0  0  0  0  0  0  0  0  0
  190.0810  176.9240  147.6960 C   0  0  0  0  0  2  0  0  0  0  0  0
  188.1250  178.1190  147.0500 N   0  0  0  0  0  0  0  0  0  0  0  0
  185.6790  178.5580  144.4260 C   0  0  0  0  0  0  0  0  0  0  0  0
  186.8890  178.1790  142.2870 C   0  0  0  0  0  0  0  0  0  0  0  0
  187.7890  177.8870  144.5060 C   0  0  1  0  0  3  0  0  0  0  0  0
  183.1850  178.1660  144.8310 C   0  0  0  0  0  1  0  0  0  0  0  0
  186.0520  178.4470  145.8470 C   0  0  0  0  0  3  0  0  0  0  0  0
  184.2830  178.6360  143.9420 C   0  0  0  0  0  0  0  0  0  0  0  0
  184.9080  179.6390  141.8020 C   0  0  0  0  0  2  0  0  0  0  0  0
  191.2180  176.9360  146.6680 C   0  0  0  0  0  2  0  0  0  0  0  0
  189.8220  176.6240  139.5440 C   0  0  0  0  0  3  0  0  0  0  0  0
  191.8500  177.0890  140.2040 C   0  0  0  0  0  3  0  0  0  0  0  0
  191.8570  177.2180  138.8270 C   0  0  0  0  0  3  0  0  0  0  0  0
  190.5600  176.9440  138.4280 C   0  0  0  0  0  0  0  0  0  0  0  0
  190.6180  176.7370  140.6260 N   0  0  0  0  0  0  0  0  0  0  0  0
  190.0530  176.8420  137.0490 C   0  0  0  0  0  3  0  0  0  0  0  0
  189.1950  177.6660  136.4230 C   0  0  0  0  0  0  0  0  0  0  0  0
  189.0550  179.8040  137.4260 O   0  0  0  0  0  1  0  0  0  0  0  0
  187.0870  178.6470  137.3280 O   0  0  0  0  0  0  0  0  0  0  0  0
  188.4560  178.7430  137.1070 C   0  0  0  0  0  0  0  0  0  0  0  0
  188.0710  176.6760  134.6170 O   0  0  0  0  0  1  0  0  0  0  0  0
  188.9400  177.4740  135.0270 N   0  0  0  0  0  2  0  0  0  0  0  0
  2 25  1  0  0  0  0
  3  9  1  6  0  0  0
  3  2  1  0  0  0  0
  4  9  1  0  0  0  0
  5 19  2  0  0  0  0
  5  6  1  0  0  0  0
  6  8  2  0  0  0  0
  7 23  2  0  0  0  0
  8 20  1  0  0  0  0
  8  3  1  0  0  0  0
 10 18  2  0  0  0  0
 11 17  1  0  0  0  0
 12  6  1  0  0  0  0
 12  4  2  0  0  0  0
 13 24  1  0  0  0  0
 13 19  1  0  0  0  0
 14 16  1  1  0  0  0
 14 15  1  0  0  0  0
 15  1  2  0  0  0  0
 17 14  1  0  0  0  0
 17 15  1  0  0  0  0
 18 22  1  0  0  0  0
 19 10  1  0  0  0  0
 20 10  1  6  0  0  0
 20 11  1  0  0  0  0
 22 11  2  0  0  0  0
 23 18  1  0  0  0  0
 23 21  1  0  0  0  0
 24  7  1  0  0  0  0
 25 16  1  0  0  0  0
 26 30  1  0  0  0  0
 27 30  1  0  0  0  0
 28 27  2  0  0  0  0
 29 28  1  0  0  0  0
 29 26  2  0  0  0  0
 30 12  1  0  0  0  0
 31 29  1  0  0  0  0
 32 31  2  0  0  0  0
 32 35  1  0  0  0  0
 35 34  2  0  0  0  0
 35 33  1  0  0  0  0
 36 37  1  0  0  0  0
 37 32  1  0  0  0  0
M  END
>  <MODEL>
8

>  <REMARK>
 VINA RESULT:      -8.4      2.322      5.751
  Name = 
  4 active torsions:
  status: ('A' for Active; 'I' for Inactive)
    1  A    between atoms: C_5  and  C_33
    2  A    between atoms: C_17  and  N_35
    3  A    between atoms: C_19  and  N_22
    4  A    between atoms: C_19  and  C_31
                            x       y       z     vdW  Elec       q    Type
                         _______ _______ _______ _____ _____    ______ ____

>  <TORSDO>
F 4

$$$$
=
 OpenBabel11042412103D

 37 43  0  0  1  0  0  0  0  0999 V2000
  184.5610  178.6290  147.3010 O   0  0  0  0  0  0  0  0  0  0  0  0
  189.1650  177.8520  144.7100 O   0  0  0  0  0  0  0  0  0  0  0  0
  188.5910  176.8360  143.9350 C   0  0  1  0  0  3  0  0  0  0  0  0
  190.5100  175.9870  142.5340 C   0  0  0  0  0  3  0  0  0  0  0  0
  188.1280  177.5790  140.2570 N   0  0  0  0  0  0  0  0  0  0  0  0
  188.7270  177.2280  141.4360 C   0  0  0  0  0  0  0  0  0  0  0  0
  183.9930  178.7630  139.3310 N   0  0  0  0  0  0  0  0  0  0  0  0
  188.0300  177.3980  142.6540 C   0  0  0  0  0  0  0  0  0  0  0  0
  189.5820  175.6910  143.6770 C   0  0  0  0  0  2  0  0  0  0  0  0
  186.1640  178.2760  141.3940 C   0  0  0  0  0  0  0  0  0  0  0  0
  185.7670  178.2300  143.6340 C   0  0  0  0  0  0  0  0  0  0  0  0
  190.1000  176.6550  141.4470 C   0  0  0  0  0  0  0  0  0  0  0  0
  186.4220  178.5150  139.0040 C   0  0  0  0  0  2  0  0  0  0  0  0
  186.8360  178.6910  146.1150 C   0  0  1  0  0  3  0  0  0  0  0  0
  185.4950  178.6000  146.4590 C   0  0  0  0  0  0  0  0  0  0  0  0
  187.5670  177.4300  146.5230 C   0  0  0  0  0  2  0  0  0  0  0  0
  186.0060  178.4270  145.0260 N   0  0  0  0  0  0  0  0  0  0  0  0
  184.8630  178.5130  141.5980 C   0  0  0  0  0  0  0  0  0  0  0  0
  186.8720  178.1040  140.1910 C   0  0  0  0  0  0  0  0  0  0  0  0
  186.7750  178.0170  142.6000 C   0  0  1  0  0  3  0  0  0  0  0  0
  182.4480  177.9500  140.9690 C   0  0  0  0  0  1  0  0  0  0  0  0
  184.6120  178.5170  143.0500 C   0  0  0  0  0  3  0  0  0  0  0  0
  183.7950  178.4510  140.5760 C   0  0  0  0  0  0  0  0  0  0  0  0
  185.2090  179.3700  138.8060 C   0  0  0  0  0  2  0  0  0  0  0  0
  189.0270  177.4700  146.0600 C   0  0  0  0  0  2  0  0  0  0  0  0
  190.8600  176.3910  139.0990 C   0  0  0  0  0  3  0  0  0  0  0  0
  192.1940  177.5190  140.4070 C   0  0  0  0  0  3  0  0  0  0  0  0
  192.8110  177.4850  139.1700 C   0  0  0  0  0  3  0  0  0  0  0  0
  191.9430  176.7880  138.3480 C   0  0  0  0  0  0  0  0  0  0  0  0
  191.0170  176.8630  140.3520 N   0  0  0  0  0  0  0  0  0  0  0  0
  192.1710  176.3790  136.9510 C   0  0  0  0  0  3  0  0  0  0  0  0
  193.0270  175.4500  136.4930 C   0  0  0  0  0  0  0  0  0  0  0  0
  195.1210  175.3960  137.5930 O   0  0  0  0  0  0  0  0  0  0  0  0
  193.8000  173.5620  137.9290 O   0  0  0  0  0  1  0  0  0  0  0  0
  194.0450  174.7960  137.3360 C   0  0  0  0  0  0  0  0  0  0  0  0
  193.8150  174.3000  134.6060 O   0  0  0  0  0  1  0  0  0  0  0  0
  192.9920  175.0960  135.1060 N   0  0  0  0  0  2  0  0  0  0  0  0
  2 25  1  0  0  0  0
  3  9  1  6  0  0  0
  3  2  1  0  0  0  0
  4  9  1  0  0  0  0
  5  6  1  0  0  0  0
  6 12  1  0  0  0  0
  6  8  2  0  0  0  0
  7 23  2  0  0  0  0
  8  3  1  0  0  0  0
 10 18  2  0  0  0  0
 11 17  1  0  0  0  0
 12  4  2  0  0  0  0
 13 19  1  0  0  0  0
 14 15  1  0  0  0  0
 14 16  1  1  0  0  0
 15  1  2  0  0  0  0
 17 14  1  0  0  0  0
 17 15  1  0  0  0  0
 18 22  1  0  0  0  0
 19  5  2  0  0  0  0
 19 10  1  0  0  0  0
 20 10  1  6  0  0  0
 20  8  1  0  0  0  0
 20 11  1  0  0  0  0
 22 11  2  0  0  0  0
 23 21  1  0  0  0  0
 23 18  1  0  0  0  0
 24 13  1  0  0  0  0
 24  7  1  0  0  0  0
 25 16  1  0  0  0  0
 26 30  1  0  0  0  0
 28 27  2  0  0  0  0
 29 26  2  0  0  0  0
 29 28  1  0  0  0  0
 30 27  1  0  0  0  0
 30 12  1  0  0  0  0
 31 29  1  0  0  0  0
 32 31  2  0  0  0  0
 32 35  1  0  0  0  0
 35 33  2  0  0  0  0
 35 34  1  0  0  0  0
 36 37  1  0  0  0  0
 37 32  1  0  0  0  0
M  END
>  <MODEL>
9

>  <REMARK>
 VINA RESULT:      -8.3      3.868      7.453
  Name = 
  4 active torsions:
  status: ('A' for Active; 'I' for Inactive)
    1  A    between atoms: C_5  and  C_33
    2  A    between atoms: C_17  and  N_35
    3  A    between atoms: C_19  and  N_22
    4  A    between atoms: C_19  and  C_31
                            x       y       z     vdW  Elec       q    Type
                         _______ _______ _______ _____ _____    ______ ____

>  <TORSDO>
F 4

$$$$
