=
 OpenBabel11042413023D

 40 45  0  0  1  0  0  0  0  0999 V2000
  186.1230  178.1840  139.3990 N   0  0  0  0  0  0  0  0  0  0  0  0
  184.6690  177.4880  137.5060 C   0  0  0  0  0  3  0  0  0  0  0  0
  182.6980  177.7500  140.3140 C   0  0  0  0  0  2  0  0  0  0  0  0
  183.3080  178.6830  139.2340 C   0  0  2  0  0  3  0  0  0  0  0  0
  184.2610  178.6600  143.0670 C   0  0  2  0  0  3  0  0  0  0  0  0
  182.2730  180.8070  138.2630 N   0  0  0  0  0  0  0  0  0  0  0  0
  186.4440  177.2120  142.5310 O   0  0  0  0  0  1  0  0  0  0  0  0
  187.3430  178.3020  140.0020 C   0  0  0  0  0  0  0  0  0  0  0  0
  188.6530  179.6750  141.6320 C   0  0  0  0  0  1  0  0  0  0  0  0
  180.9300  178.2540  142.1590 C   0  0  0  0  0  2  0  0  0  0  0  0
  180.3340  180.5130  140.2100 N   0  0  0  0  0  0  0  0  0  0  0  0
  187.1000  177.0900  137.5210 C   0  0  0  0  0  3  0  0  0  0  0  0
  186.5260  178.6050  142.3660 C   0  0  2  0  0  3  0  0  0  0  0  0
  185.2150  179.1990  142.1130 N   0  0  0  0  0  2  0  0  0  0  0  0
  182.2760  179.7440  139.1050 C   0  0  0  0  0  0  0  0  0  0  0  0
  182.9870  179.3860  142.9610 N   0  0  2  0  0  0  0  0  0  0  0  0
  181.5150  178.4480  140.8330 N   0  0  0  0  0  0  0  0  0  0  0  0
  185.9770  177.6000  138.1780 C   0  0  0  0  0  0  0  0  0  0  0  0
  183.9400  179.6600  144.0770 C   0  0  1  0  0  3  0  0  0  0  0  0
  181.9650  178.3890  143.2750 C   0  0  0  0  0  2  0  0  0  0  0  0
  188.4820  177.7910  139.3630 C   0  0  0  0  0  3  0  0  0  0  0  0
  183.4990  177.9560  137.9440 C   0  0  0  0  0  3  0  0  0  0  0  0
  179.2510  182.5460  139.4960 N   0  0  0  0  0  1  0  0  0  0  0  0
  187.4600  178.9180  141.2920 N   0  0  0  0  0  0  0  0  0  0  0  0
  188.3690  177.1760  138.1130 C   0  0  0  0  0  0  0  0  0  0  0  0
  181.3270  179.6050  140.0610 C   0  0  0  0  0  0  0  0  0  0  0  0
  181.2720  181.7300  138.3670 C   0  0  0  0  0  3  0  0  0  0  0  0
  180.2860  181.5810  139.3660 C   0  0  0  0  0  0  0  0  0  0  0  0
  190.6420  176.1060  138.2480 C   0  0  0  0  0  2  0  0  0  0  0  0
  191.4410  175.1090  137.4100 C   0  0  0  0  0  2  0  0  0  0  0  0
  191.8310  175.7180  136.2000 O   0  0  0  0  0  0  0  0  0  0  0  0
  189.5240  176.6240  137.4530 N   0  0  0  0  0  0  0  0  0  0  0  0
  190.6600  175.8430  135.4300 C   0  0  0  0  0  2  0  0  0  0  0  0
  189.7600  176.9200  136.0370 C   0  0  0  0  0  2  0  0  0  0  0  0
  183.6070  178.9710  145.4110 C   0  0  0  0  0  2  0  0  0  0  0  0
  184.7770  178.1090  145.8600 C   0  0  0  0  0  2  0  0  0  0  0  0
  185.7250  178.9030  146.7510 C   0  0  0  0  0  2  0  0  0  0  0  0
  187.0140  178.1350  146.9450 C   0  0  0  0  0  2  0  0  0  0  0  0
  187.2530  177.3460  145.8240 O   0  0  0  0  0  0  0  0  0  0  0  0
  188.5480  177.6930  145.4150 C   0  0  0  0  0  1  0  0  0  0  0  0
  1  8  1  0  0  0  0
  2 22  2  0  0  0  0
  2 18  1  0  0  0  0
  3 17  1  0  0  0  0
  4 22  1  6  0  0  0
  4  3  1  0  0  0  0
  5 14  1  6  0  0  0
  5 19  1  0  0  0  0
  6 27  2  0  0  0  0
  6 15  1  0  0  0  0
  8 24  1  0  0  0  0
 10 20  1  0  0  0  0
 12 25  2  0  0  0  0
 12 18  1  0  0  0  0
 13  7  1  6  0  0  0
 14 13  1  0  0  0  0
 15  4  1  0  0  0  0
 15 26  2  0  0  0  0
 16  5  1  0  0  0  0
 16 20  1  1  0  0  0
 16 19  1  0  0  0  0
 17 10  1  0  0  0  0
 18  1  2  0  0  0  0
 19 35  1  1  0  0  0
 21  8  2  0  0  0  0
 24  9  1  0  0  0  0
 24 13  1  0  0  0  0
 25 21  1  0  0  0  0
 26 11  1  0  0  0  0
 26 17  1  0  0  0  0
 27 28  1  0  0  0  0
 28 23  1  0  0  0  0
 28 11  2  0  0  0  0
 30 29  1  0  0  0  0
 31 30  1  0  0  0  0
 32 25  1  0  0  0  0
 32 29  1  0  0  0  0
 33 34  1  0  0  0  0
 33 31  1  0  0  0  0
 34 32  1  0  0  0  0
 35 36  1  0  0  0  0
 36 37  1  0  0  0  0
 37 38  1  0  0  0  0
 39 38  1  0  0  0  0
 40 39  1  0  0  0  0
M  END
>  <MODEL>
1

>  <REMARK>
 VINA RESULT:      -6.5      0.000      0.000
  Name = 
  6 active torsions:
  status: ('A' for Active; 'I' for Inactive)
    1  A    between atoms: C_4  and  C_8
    2  A    between atoms: C_4  and  C_30
    3  A    between atoms: C_8  and  C_25
    4  A    between atoms: C_24  and  C_30
    5  A    between atoms: C_25  and  O_27
    6  A    between atoms: N_32  and  C_35
                            x       y       z     vdW  Elec       q    Type
                         _______ _______ _______ _____ _____    ______ ____

>  <TORSDO>
F 6

$$$$
=
 OpenBabel11042413023D

 40 45  0  0  1  0  0  0  0  0999 V2000
  192.2660  175.2360  137.5740 N   0  0  0  0  0  0  0  0  0  0  0  0
  193.3790  176.8240  139.1300 C   0  0  0  0  0  3  0  0  0  0  0  0
  190.1150  177.8380  138.7400 C   0  0  0  0  0  2  0  0  0  0  0  0
  190.9140  176.7920  139.5620 C   0  0  2  0  0  3  0  0  0  0  0  0
  188.2810  175.9780  136.7330 C   0  0  2  0  0  3  0  0  0  0  0  0
  190.4200  175.9860  141.9360 N   0  0  0  0  0  0  0  0  0  0  0  0
  190.2610  175.5800  134.9820 O   0  0  0  0  0  1  0  0  0  0  0  0
  192.3000  174.2920  136.5870 C   0  0  0  0  0  0  0  0  0  0  0  0
  191.0780  172.3200  135.6540 C   0  0  0  0  0  1  0  0  0  0  0  0
  187.6270  178.5820  138.9420 C   0  0  0  0  0  2  0  0  0  0  0  0
  188.0710  177.4260  141.7210 N   0  0  0  0  0  0  0  0  0  0  0  0
  194.6380  175.4630  137.5070 C   0  0  0  0  0  3  0  0  0  0  0  0
  189.9090  174.5130  135.8250 C   0  0  2  0  0  3  0  0  0  0  0  0
  189.2850  174.9810  137.0610 N   0  0  0  0  0  2  0  0  0  0  0  0
  190.1440  176.7220  140.8310 C   0  0  0  0  0  0  0  0  0  0  0  0
  187.5060  176.3170  137.9360 N   0  0  2  0  0  0  0  0  0  0  0  0
  188.8900  178.1050  139.5040 N   0  0  0  0  0  0  0  0  0  0  0  0
  193.4000  175.8220  138.0490 C   0  0  0  0  0  0  0  0  0  0  0  0
  186.9440  175.4160  136.8870 C   0  0  1  0  0  3  0  0  0  0  0  0
  187.1560  177.7260  137.7660 C   0  0  0  0  0  2  0  0  0  0  0  0
  193.5310  173.9230  136.0250 C   0  0  0  0  0  3  0  0  0  0  0  0
  192.3120  177.2560  139.8050 C   0  0  0  0  0  3  0  0  0  0  0  0
  187.3830  176.7080  143.9180 N   0  0  0  0  0  1  0  0  0  0  0  0
  191.0860  173.7010  136.1060 N   0  0  0  0  0  0  0  0  0  0  0  0
  194.7150  174.5100  136.4830 C   0  0  0  0  0  0  0  0  0  0  0  0
  188.9900  177.4230  140.7270 C   0  0  0  0  0  0  0  0  0  0  0  0
  189.5280  175.9860  142.9700 C   0  0  0  0  0  3  0  0  0  0  0  0
  188.3270  176.7170  142.8560 C   0  0  0  0  0  0  0  0  0  0  0  0
  197.0560  175.1610  135.8270 C   0  0  0  0  0  2  0  0  0  0  0  0
  198.4040  174.4520  135.7140 C   0  0  0  0  0  2  0  0  0  0  0  0
  198.3780  173.5610  134.6230 O   0  0  0  0  0  0  0  0  0  0  0  0
  195.9850  174.1610  135.9000 N   0  0  0  0  0  0  0  0  0  0  0  0
  197.5420  172.4960  135.0090 C   0  0  0  0  0  2  0  0  0  0  0  0
  196.0900  172.9720  135.0500 C   0  0  0  0  0  2  0  0  0  0  0  0
  185.9770  176.0830  135.8950 C   0  0  0  0  0  2  0  0  0  0  0  0
  184.6110  175.4180  135.9690 C   0  0  0  0  0  2  0  0  0  0  0  0
  184.5610  174.4060  137.1080 C   0  0  0  0  0  2  0  0  0  0  0  0
  183.4120  174.7310  138.0370 C   0  0  0  0  0  2  0  0  0  0  0  0
  183.4420  176.0880  138.3490 O   0  0  0  0  0  0  0  0  0  0  0  0
  182.6210  176.2110  139.4770 C   0  0  0  0  0  1  0  0  0  0  0  0
  1 18  1  0  0  0  0
  2 22  2  0  0  0  0
  3 17  1  0  0  0  0
  4  3  1  6  0  0  0
  4 22  1  0  0  0  0
  4 15  1  0  0  0  0
  5 19  1  0  0  0  0
  5 14  1  1  0  0  0
  5 16  1  0  0  0  0
  6 27  1  0  0  0  0
  8  1  2  0  0  0  0
  9 24  1  0  0  0  0
 10 17  1  0  0  0  0
 11 28  1  0  0  0  0
 12 18  2  0  0  0  0
 13  7  1  6  0  0  0
 13 24  1  0  0  0  0
 13 14  1  0  0  0  0
 15  6  2  0  0  0  0
 16 20  1  6  0  0  0
 17 26  1  0  0  0  0
 18  2  1  0  0  0  0
 19 35  1  6  0  0  0
 19 16  1  0  0  0  0
 20 10  1  0  0  0  0
 21 25  2  0  0  0  0
 21  8  1  0  0  0  0
 24  8  1  0  0  0  0
 25 12  1  0  0  0  0
 26 15  1  0  0  0  0
 26 11  2  0  0  0  0
 28 27  2  0  0  0  0
 28 23  1  0  0  0  0
 29 32  1  0  0  0  0
 30 29  1  0  0  0  0
 31 33  1  0  0  0  0
 31 30  1  0  0  0  0
 32 25  1  0  0  0  0
 33 34  1  0  0  0  0
 34 32  1  0  0  0  0
 35 36  1  0  0  0  0
 36 37  1  0  0  0  0
 37 38  1  0  0  0  0
 38 39  1  0  0  0  0
 39 40  1  0  0  0  0
M  END
>  <MODEL>
2

>  <REMARK>
 VINA RESULT:      -6.1      4.391      8.484
  Name = 
  6 active torsions:
  status: ('A' for Active; 'I' for Inactive)
    1  A    between atoms: C_4  and  C_8
    2  A    between atoms: C_4  and  C_30
    3  A    between atoms: C_8  and  C_25
    4  A    between atoms: C_24  and  C_30
    5  A    between atoms: C_25  and  O_27
    6  A    between atoms: N_32  and  C_35
                            x       y       z     vdW  Elec       q    Type
                         _______ _______ _______ _____ _____    ______ ____

>  <TORSDO>
F 6

$$$$
=
 OpenBabel11042413023D

 40 45  0  0  1  0  0  0  0  0999 V2000
  184.9000  178.0820  139.4280 N   0  0  0  0  0  0  0  0  0  0  0  0
  184.4600  177.8810  136.9890 C   0  0  0  0  0  3  0  0  0  0  0  0
  187.8610  177.6850  137.4710 C   0  0  0  0  0  2  0  0  0  0  0  0
  186.6210  176.7560  137.5620 C   0  0  2  0  0  3  0  0  0  0  0  0
  188.8680  177.9110  140.5990 C   0  0  2  0  0  3  0  0  0  0  0  0
  186.5150  174.2610  137.0230 N   0  0  0  0  0  0  0  0  0  0  0  0
  187.0650  179.7780  141.2420 O   0  0  0  0  0  1  0  0  0  0  0  0
  184.5430  178.4650  140.6900 C   0  0  0  0  0  0  0  0  0  0  0  0
  184.8620  177.9360  143.1140 C   0  0  0  0  0  1  0  0  0  0  0  0
  190.3980  177.1090  137.5820 C   0  0  0  0  0  2  0  0  0  0  0  0
  189.2660  174.4000  136.7860 N   0  0  0  0  0  0  0  0  0  0  0  0
  182.8760  178.9680  138.5330 C   0  0  0  0  0  3  0  0  0  0  0  0
  186.8480  178.4700  141.7070 C   0  0  2  0  0  3  0  0  0  0  0  0
  187.5070  177.4770  140.8620 N   0  0  0  0  0  2  0  0  0  0  0  0
  187.1750  175.4380  137.1590 C   0  0  0  0  0  0  0  0  0  0  0  0
  189.6090  176.8390  139.9180 N   0  0  2  0  0  0  0  0  0  0  0  0
  189.0110  176.8050  137.2330 N   0  0  0  0  0  0  0  0  0  0  0  0
  184.0970  178.3100  138.3520 C   0  0  0  0  0  0  0  0  0  0  0  0
  189.8100  177.1120  141.3720 C   0  0  1  0  0  3  0  0  0  0  0  0
  190.5480  177.5360  139.0420 C   0  0  0  0  0  2  0  0  0  0  0  0
  183.3260  179.1320  140.8920 C   0  0  0  0  0  3  0  0  0  0  0  0
  185.5480  177.2000  136.6250 C   0  0  0  0  0  3  0  0  0  0  0  0
  189.3870  172.0330  136.3400 N   0  0  0  0  0  1  0  0  0  0  0  0
  185.4160  178.2140  141.7990 N   0  0  0  0  0  0  0  0  0  0  0  0
  182.4800  179.3900  139.8090 C   0  0  0  0  0  0  0  0  0  0  0  0
  188.5240  175.5020  137.0460 C   0  0  0  0  0  0  0  0  0  0  0  0
  187.2290  173.1320  136.7350 C   0  0  0  0  0  3  0  0  0  0  0  0
  188.6330  173.2050  136.6210 C   0  0  0  0  0  0  0  0  0  0  0  0
  180.9300  181.2660  139.1640 C   0  0  0  0  0  2  0  0  0  0  0  0
  179.4180  181.4840  139.1360 C   0  0  0  0  0  2  0  0  0  0  0  0
  178.9310  181.5730  140.4550 O   0  0  0  0  0  0  0  0  0  0  0  0
  181.2380  180.0960  139.9940 N   0  0  0  0  0  0  0  0  0  0  0  0
  179.0090  180.2730  140.9890 C   0  0  0  0  0  2  0  0  0  0  0  0
  180.4720  179.9030  141.2290 C   0  0  0  0  0  2  0  0  0  0  0  0
  191.0500  177.9520  141.7200 C   0  0  0  0  0  2  0  0  0  0  0  0
  191.4890  177.6710  143.1490 C   0  0  0  0  0  2  0  0  0  0  0  0
  190.6200  178.4330  144.1430 C   0  0  0  0  0  2  0  0  0  0  0  0
  190.1080  177.4900  145.2090 C   0  0  0  0  0  2  0  0  0  0  0  0
  188.9550  176.8590  144.7520 O   0  0  0  0  0  0  0  0  0  0  0  0
  187.9040  177.6650  145.2110 C   0  0  0  0  0  1  0  0  0  0  0  0
  1  8  1  0  0  0  0
  2 18  1  0  0  0  0
  3  4  1  0  0  0  0
  4 22  1  6  0  0  0
  5 14  1  1  0  0  0
  5 19  1  0  0  0  0
  6 15  1  0  0  0  0
  8 21  2  0  0  0  0
  8 24  1  0  0  0  0
 10 20  1  0  0  0  0
 11 26  1  0  0  0  0
 12 25  2  0  0  0  0
 13  7  1  6  0  0  0
 13 24  1  0  0  0  0
 14 13  1  0  0  0  0
 15  4  1  0  0  0  0
 16 20  1  6  0  0  0
 16  5  1  0  0  0  0
 16 19  1  0  0  0  0
 17  3  1  0  0  0  0
 17 10  1  0  0  0  0
 18 12  1  0  0  0  0
 18  1  2  0  0  0  0
 19 35  1  6  0  0  0
 22  2  2  0  0  0  0
 23 28  1  0  0  0  0
 24  9  1  0  0  0  0
 25 32  1  0  0  0  0
 25 21  1  0  0  0  0
 26 15  2  0  0  0  0
 26 17  1  0  0  0  0
 27  6  2  0  0  0  0
 28 27  1  0  0  0  0
 28 11  2  0  0  0  0
 29 32  1  0  0  0  0
 30 29  1  0  0  0  0
 30 31  1  0  0  0  0
 31 33  1  0  0  0  0
 32 34  1  0  0  0  0
 33 34  1  0  0  0  0
 35 36  1  0  0  0  0
 36 37  1  0  0  0  0
 37 38  1  0  0  0  0
 39 38  1  0  0  0  0
 39 40  1  0  0  0  0
M  END
>  <MODEL>
3

>  <REMARK>
 VINA RESULT:      -5.6      2.499      7.934
  Name = 
  6 active torsions:
  status: ('A' for Active; 'I' for Inactive)
    1  A    between atoms: C_4  and  C_8
    2  A    between atoms: C_4  and  C_30
    3  A    between atoms: C_8  and  C_25
    4  A    between atoms: C_24  and  C_30
    5  A    between atoms: C_25  and  O_27
    6  A    between atoms: N_32  and  C_35
                            x       y       z     vdW  Elec       q    Type
                         _______ _______ _______ _____ _____    ______ ____

>  <TORSDO>
F 6

$$$$
=
 OpenBabel11042413023D

 40 45  0  0  1  0  0  0  0  0999 V2000
  188.8660  175.8880  137.3800 N   0  0  0  0  0  0  0  0  0  0  0  0
  189.6740  178.1770  137.9180 C   0  0  0  0  0  3  0  0  0  0  0  0
  186.2490  178.3060  137.6200 C   0  0  0  0  0  2  0  0  0  0  0  0
  187.3070  177.9050  138.6830 C   0  0  2  0  0  3  0  0  0  0  0  0
  184.7770  175.4470  136.9050 C   0  0  2  0  0  3  0  0  0  0  0  0
  187.1350  178.1850  141.2170 N   0  0  0  0  0  0  0  0  0  0  0  0
  186.6990  174.6610  135.2220 O   0  0  0  0  0  1  0  0  0  0  0  0
  189.0590  174.6230  136.9020 C   0  0  0  0  0  0  0  0  0  0  0  0
  188.2650  172.2600  137.1010 C   0  0  0  0  0  1  0  0  0  0  0  0
  183.6720  178.6050  137.8510 C   0  0  0  0  0  2  0  0  0  0  0  0
  184.5130  178.9290  140.7570 N   0  0  0  0  0  0  0  0  0  0  0  0
  191.1180  176.4780  136.8700 C   0  0  0  0  0  3  0  0  0  0  0  0
  186.6420  174.0460  136.4840 C   0  0  2  0  0  3  0  0  0  0  0  0
  185.9960  174.9030  137.4770 N   0  0  0  0  0  2  0  0  0  0  0  0
  186.6410  178.2800  139.9580 C   0  0  0  0  0  0  0  0  0  0  0  0
  184.0110  176.1500  137.9460 N   0  0  2  0  0  0  0  0  0  0  0  0
  185.0380  178.6670  138.3690 N   0  0  0  0  0  0  0  0  0  0  0  0
  189.8620  176.8170  137.3830 C   0  0  0  0  0  0  0  0  0  0  0  0
  183.6120  174.7880  137.4830 C   0  0  1  0  0  3  0  0  0  0  0  0
  183.3440  177.2420  137.2420 C   0  0  0  0  0  2  0  0  0  0  0  0
  190.3090  174.2660  136.3770 C   0  0  0  0  0  3  0  0  0  0  0  0
  188.5740  178.6690  138.4920 C   0  0  0  0  0  3  0  0  0  0  0  0
  184.1240  179.1700  143.1240 N   0  0  0  0  0  1  0  0  0  0  0  0
  187.9860  173.6730  136.9090 N   0  0  0  0  0  0  0  0  0  0  0  0
  191.3530  175.1960  136.3560 C   0  0  0  0  0  0  0  0  0  0  0  0
  185.3540  178.6410  139.7360 C   0  0  0  0  0  0  0  0  0  0  0  0
  186.3230  178.4930  142.2710 C   0  0  0  0  0  3  0  0  0  0  0  0
  184.9830  178.8670  142.0340 C   0  0  0  0  0  0  0  0  0  0  0  0
  193.0270  173.4460  135.6700 C   0  0  0  0  0  2  0  0  0  0  0  0
  194.1030  173.3140  134.5940 C   0  0  0  0  0  2  0  0  0  0  0  0
  195.1740  174.1810  134.8900 O   0  0  0  0  0  0  0  0  0  0  0  0
  192.6370  174.8540  135.7980 N   0  0  0  0  0  0  0  0  0  0  0  0
  194.7010  175.4840  134.6440 C   0  0  0  0  0  2  0  0  0  0  0  0
  193.6870  175.8730  135.7190 C   0  0  0  0  0  2  0  0  0  0  0  0
  182.4680  174.7500  136.4560 C   0  0  0  0  0  2  0  0  0  0  0  0
  182.2690  173.3310  135.9450 C   0  0  0  0  0  2  0  0  0  0  0  0
  182.5120  172.3160  137.0560 C   0  0  0  0  0  2  0  0  0  0  0  0
  183.3640  171.1780  136.5370 C   0  0  0  0  0  2  0  0  0  0  0  0
  184.3970  171.6950  135.7610 O   0  0  0  0  0  0  0  0  0  0  0  0
  184.9760  170.5740  135.1500 C   0  0  0  0  0  1  0  0  0  0  0  0
  1 18  1  0  0  0  0
  2 22  2  0  0  0  0
  3 17  1  0  0  0  0
  4  3  1  6  0  0  0
  4 15  1  0  0  0  0
  5 14  1  1  0  0  0
  5 19  1  0  0  0  0
  5 16  1  0  0  0  0
  6 27  1  0  0  0  0
  8 24  1  0  0  0  0
  8  1  2  0  0  0  0
 10 17  1  0  0  0  0
 11 28  1  0  0  0  0
 12 18  2  0  0  0  0
 13  7  1  6  0  0  0
 13 24  1  0  0  0  0
 13 14  1  0  0  0  0
 15  6  2  0  0  0  0
 16 20  1  6  0  0  0
 17 26  1  0  0  0  0
 18  2  1  0  0  0  0
 19 35  1  6  0  0  0
 19 16  1  0  0  0  0
 20 10  1  0  0  0  0
 21  8  1  0  0  0  0
 22  4  1  0  0  0  0
 24  9  1  0  0  0  0
 25 21  2  0  0  0  0
 25 12  1  0  0  0  0
 26 15  1  0  0  0  0
 26 11  2  0  0  0  0
 28 27  2  0  0  0  0
 28 23  1  0  0  0  0
 29 32  1  0  0  0  0
 30 31  1  0  0  0  0
 30 29  1  0  0  0  0
 32 25  1  0  0  0  0
 33 31  1  0  0  0  0
 33 34  1  0  0  0  0
 34 32  1  0  0  0  0
 36 35  1  0  0  0  0
 36 37  1  0  0  0  0
 38 37  1  0  0  0  0
 39 38  1  0  0  0  0
 40 39  1  0  0  0  0
M  END
>  <MODEL>
4

>  <REMARK>
 VINA RESULT:      -5.3      3.524      6.916
  Name = 
  6 active torsions:
  status: ('A' for Active; 'I' for Inactive)
    1  A    between atoms: C_4  and  C_8
    2  A    between atoms: C_4  and  C_30
    3  A    between atoms: C_8  and  C_25
    4  A    between atoms: C_24  and  C_30
    5  A    between atoms: C_25  and  O_27
    6  A    between atoms: N_32  and  C_35
                            x       y       z     vdW  Elec       q    Type
                         _______ _______ _______ _____ _____    ______ ____

>  <TORSDO>
F 6

$$$$
=
 OpenBabel11042413023D

 40 45  0  0  1  0  0  0  0  0999 V2000
  188.7440  176.0550  137.6200 N   0  0  0  0  0  0  0  0  0  0  0  0
  189.6800  178.2120  138.4270 C   0  0  0  0  0  3  0  0  0  0  0  0
  186.2720  178.5790  138.1370 C   0  0  0  0  0  2  0  0  0  0  0  0
  187.2930  177.9940  139.1480 C   0  0  2  0  0  3  0  0  0  0  0  0
  184.6410  175.9180  137.0840 C   0  0  2  0  0  3  0  0  0  0  0  0
  187.1130  177.9820  141.6970 N   0  0  0  0  0  0  0  0  0  0  0  0
  186.5310  175.2220  135.3260 O   0  0  0  0  0  1  0  0  0  0  0  0
  188.8670  174.8450  136.9970 C   0  0  0  0  0  0  0  0  0  0  0  0
  187.9340  172.5270  136.9120 C   0  0  0  0  0  1  0  0  0  0  0  0
  183.7140  179.0030  138.3930 C   0  0  0  0  0  2  0  0  0  0  0  0
  184.5440  178.9310  141.3190 N   0  0  0  0  0  0  0  0  0  0  0  0
  191.0320  176.5650  137.1900 C   0  0  0  0  0  3  0  0  0  0  0  0
  186.4250  174.4670  136.5060 C   0  0  2  0  0  3  0  0  0  0  0  0
  185.8200  175.2380  137.5910 N   0  0  0  0  0  2  0  0  0  0  0  0
  186.6380  178.2550  140.4560 C   0  0  0  0  0  0  0  0  0  0  0  0
  183.9080  176.5370  138.1990 N   0  0  2  0  0  0  0  0  0  0  0  0
  185.0770  178.9210  138.9190 N   0  0  0  0  0  0  0  0  0  0  0  0
  189.7930  176.9150  137.7350 C   0  0  0  0  0  0  0  0  0  0  0  0
  183.4340  175.2650  137.5760 C   0  0  1  0  0  3  0  0  0  0  0  0
  183.3130  177.7430  137.6260 C   0  0  0  0  0  2  0  0  0  0  0  0
  190.1000  174.4790  136.4370 C   0  0  0  0  0  3  0  0  0  0  0  0
  188.6060  178.6980  139.0520 C   0  0  0  0  0  3  0  0  0  0  0  0
  184.1460  178.9140  143.6980 N   0  0  0  0  0  1  0  0  0  0  0  0
  187.7400  173.9670  136.8870 N   0  0  0  0  0  0  0  0  0  0  0  0
  191.1960  175.3410  136.5290 C   0  0  0  0  0  0  0  0  0  0  0  0
  185.3770  178.7150  140.2740 C   0  0  0  0  0  0  0  0  0  0  0  0
  186.3100  178.2120  142.7770 C   0  0  0  0  0  3  0  0  0  0  0  0
  184.9970  178.6900  142.5820 C   0  0  0  0  0  0  0  0  0  0  0  0
  193.6050  175.9030  136.0620 C   0  0  0  0  0  2  0  0  0  0  0  0
  194.9030  175.1180  135.8780 C   0  0  0  0  0  2  0  0  0  0  0  0
  194.8600  174.4160  134.6570 O   0  0  0  0  0  0  0  0  0  0  0  0
  192.4630  174.9910  135.9380 N   0  0  0  0  0  0  0  0  0  0  0  0
  193.9340  173.3720  134.8390 C   0  0  0  0  0  2  0  0  0  0  0  0
  192.5190  173.9470  134.9100 C   0  0  0  0  0  2  0  0  0  0  0  0
  182.3000  175.4170  136.5490 C   0  0  0  0  0  2  0  0  0  0  0  0
  181.1100  174.5580  136.9520 C   0  0  0  0  0  2  0  0  0  0  0  0
  180.6690  174.8760  138.3760 C   0  0  0  0  0  2  0  0  0  0  0  0
  179.8750  176.1640  138.3940 C   0  0  0  0  0  2  0  0  0  0  0  0
  179.9190  176.7130  139.6720 O   0  0  0  0  0  0  0  0  0  0  0  0
  179.6800  175.6320  140.5320 C   0  0  0  0  0  1  0  0  0  0  0  0
  1 18  1  0  0  0  0
  2 22  2  0  0  0  0
  3 17  1  0  0  0  0
  4  3  1  6  0  0  0
  4 15  1  0  0  0  0
  5 19  1  0  0  0  0
  5 14  1  1  0  0  0
  5 16  1  0  0  0  0
  6 27  1  0  0  0  0
  8  1  2  0  0  0  0
 10 17  1  0  0  0  0
 11 28  1  0  0  0  0
 12 18  2  0  0  0  0
 13  7  1  6  0  0  0
 13 24  1  0  0  0  0
 13 14  1  0  0  0  0
 15  6  2  0  0  0  0
 16 20  1  6  0  0  0
 17 26  1  0  0  0  0
 18  2  1  0  0  0  0
 19 35  1  6  0  0  0
 19 16  1  0  0  0  0
 20 10  1  0  0  0  0
 21 25  2  0  0  0  0
 21  8  1  0  0  0  0
 22  4  1  0  0  0  0
 24  9  1  0  0  0  0
 24  8  1  0  0  0  0
 25 12  1  0  0  0  0
 26 15  1  0  0  0  0
 26 11  2  0  0  0  0
 28 27  2  0  0  0  0
 28 23  1  0  0  0  0
 30 29  1  0  0  0  0
 31 33  1  0  0  0  0
 31 30  1  0  0  0  0
 32 29  1  0  0  0  0
 32 25  1  0  0  0  0
 33 34  1  0  0  0  0
 34 32  1  0  0  0  0
 35 36  1  0  0  0  0
 36 37  1  0  0  0  0
 37 38  1  0  0  0  0
 38 39  1  0  0  0  0
 39 40  1  0  0  0  0
M  END
>  <MODEL>
5

>  <REMARK>
 VINA RESULT:      -5.2      3.247      6.423
  Name = 
  6 active torsions:
  status: ('A' for Active; 'I' for Inactive)
    1  A    between atoms: C_4  and  C_8
    2  A    between atoms: C_4  and  C_30
    3  A    between atoms: C_8  and  C_25
    4  A    between atoms: C_24  and  C_30
    5  A    between atoms: C_25  and  O_27
    6  A    between atoms: N_32  and  C_35
                            x       y       z     vdW  Elec       q    Type
                         _______ _______ _______ _____ _____    ______ ____

>  <TORSDO>
F 6

$$$$
=
 OpenBabel11042413023D

 40 45  0  0  1  0  0  0  0  0999 V2000
  182.8670  178.0480  137.2050 N   0  0  0  0  0  0  0  0  0  0  0  0
  181.4160  177.2920  135.3320 C   0  0  0  0  0  3  0  0  0  0  0  0
  184.5130  175.8500  134.9200 C   0  0  0  0  0  2  0  0  0  0  0  0
  183.2210  175.6090  135.7460 C   0  0  2  0  0  3  0  0  0  0  0  0
  186.7480  176.6060  137.2190 C   0  0  2  0  0  3  0  0  0  0  0  0
  182.2220  173.3590  136.4320 N   0  0  0  0  0  0  0  0  0  0  0  0
  185.9630  179.1540  137.4140 O   0  0  0  0  0  1  0  0  0  0  0  0
  183.1860  178.9210  138.2050 C   0  0  0  0  0  0  0  0  0  0  0  0
  184.3260  179.1010  140.4250 C   0  0  0  0  0  1  0  0  0  0  0  0
  186.6020  174.3300  134.5940 C   0  0  0  0  0  2  0  0  0  0  0  0
  184.5470  172.2480  135.4320 N   0  0  0  0  0  0  0  0  0  0  0  0
  180.9820  179.3690  136.5850 C   0  0  0  0  0  3  0  0  0  0  0  0
  185.6100  178.2790  138.4550 C   0  0  2  0  0  3  0  0  0  0  0  0
  185.5580  176.8900  138.0020 N   0  0  0  0  0  2  0  0  0  0  0  0
  183.1730  174.1270  135.8440 C   0  0  0  0  0  0  0  0  0  0  0  0
  186.8140  175.1670  136.9200 N   0  0  2  0  0  0  0  0  0  0  0  0
  185.1710  174.5430  134.8040 N   0  0  0  0  0  0  0  0  0  0  0  0
  181.7860  178.2400  136.3990 C   0  0  0  0  0  0  0  0  0  0  0  0
  187.6680  175.7740  137.9850 C   0  0  1  0  0  3  0  0  0  0  0  0
  187.4560  175.0900  135.6090 C   0  0  0  0  0  2  0  0  0  0  0  0
  182.3970  180.0630  138.4040 C   0  0  0  0  0  3  0  0  0  0  0  0
  182.0220  176.1420  135.0350 C   0  0  0  0  0  3  0  0  0  0  0  0
  183.8180  170.0430  136.0790 N   0  0  0  0  0  1  0  0  0  0  0  0
  184.3360  178.6910  139.0310 N   0  0  0  0  0  0  0  0  0  0  0  0
  181.2840  180.2970  137.5910 C   0  0  0  0  0  0  0  0  0  0  0  0
  184.3130  173.5800  135.3590 C   0  0  0  0  0  0  0  0  0  0  0  0
  182.4120  172.0090  136.5010 C   0  0  0  0  0  3  0  0  0  0  0  0
  183.6020  171.4440  135.9950 C   0  0  0  0  0  0  0  0  0  0  0  0
  180.1950  182.3470  136.6170 C   0  0  0  0  0  2  0  0  0  0  0  0
  178.9310  183.1580  136.8950 C   0  0  0  0  0  2  0  0  0  0  0  0
  179.0720  183.8480  138.1160 O   0  0  0  0  0  0  0  0  0  0  0  0
  180.4770  181.4780  137.7650 N   0  0  0  0  0  0  0  0  0  0  0  0
  178.9970  182.8720  139.1270 C   0  0  0  0  0  2  0  0  0  0  0  0
  180.2640  182.0180  139.1110 C   0  0  0  0  0  2  0  0  0  0  0  0
  189.1170  176.0780  137.5730 C   0  0  0  0  0  2  0  0  0  0  0  0
  189.6670  177.2290  138.4030 C   0  0  0  0  0  2  0  0  0  0  0  0
  188.8500  177.4170  139.6760 C   0  0  0  0  0  2  0  0  0  0  0  0
  189.7570  177.3550  140.8850 C   0  0  0  0  0  2  0  0  0  0  0  0
  189.1930  178.0940  141.9220 O   0  0  0  0  0  0  0  0  0  0  0  0
  188.0190  178.6310  141.3770 C   0  0  0  0  0  1  0  0  0  0  0  0
  1  8  1  0  0  0  0
  2 18  1  0  0  0  0
  4  3  1  6  0  0  0
  4 15  1  0  0  0  0
  5 19  1  0  0  0  0
  5 14  1  1  0  0  0
  6 27  1  0  0  0  0
  8 21  2  0  0  0  0
  8 24  1  0  0  0  0
 10 17  1  0  0  0  0
 10 20  1  0  0  0  0
 11 28  1  0  0  0  0
 12 25  2  0  0  0  0
 13  7  1  6  0  0  0
 13 24  1  0  0  0  0
 14 13  1  0  0  0  0
 15  6  2  0  0  0  0
 16 20  1  6  0  0  0
 16  5  1  0  0  0  0
 16 19  1  0  0  0  0
 17  3  1  0  0  0  0
 17 26  1  0  0  0  0
 18 12  1  0  0  0  0
 18  1  2  0  0  0  0
 19 35  1  6  0  0  0
 22  2  2  0  0  0  0
 22  4  1  0  0  0  0
 24  9  1  0  0  0  0
 25 32  1  0  0  0  0
 25 21  1  0  0  0  0
 26 11  2  0  0  0  0
 26 15  1  0  0  0  0
 28 23  1  0  0  0  0
 28 27  2  0  0  0  0
 29 30  1  0  0  0  0
 29 32  1  0  0  0  0
 30 31  1  0  0  0  0
 31 33  1  0  0  0  0
 32 34  1  0  0  0  0
 34 33  1  0  0  0  0
 35 36  1  0  0  0  0
 36 37  1  0  0  0  0
 37 38  1  0  0  0  0
 38 39  1  0  0  0  0
 40 39  1  0  0  0  0
M  END
>  <MODEL>
6

>  <REMARK>
 VINA RESULT:      -4.8      3.940      8.508
  Name = 
  6 active torsions:
  status: ('A' for Active; 'I' for Inactive)
    1  A    between atoms: C_4  and  C_8
    2  A    between atoms: C_4  and  C_30
    3  A    between atoms: C_8  and  C_25
    4  A    between atoms: C_24  and  C_30
    5  A    between atoms: C_25  and  O_27
    6  A    between atoms: N_32  and  C_35
                            x       y       z     vdW  Elec       q    Type
                         _______ _______ _______ _____ _____    ______ ____

>  <TORSDO>
F 6

$$$$
=
 OpenBabel11042413023D

 40 45  0  0  1  0  0  0  0  0999 V2000
  187.5900  177.4510  141.8950 N   0  0  0  0  0  0  0  0  0  0  0  0
  185.5240  178.7930  141.5550 C   0  0  0  0  0  3  0  0  0  0  0  0
  187.2960  178.8130  138.6060 C   0  0  0  0  0  2  0  0  0  0  0  0
  186.3170  177.8770  139.3650 C   0  0  2  0  0  3  0  0  0  0  0  0
  190.1280  177.1300  138.6400 C   0  0  2  0  0  3  0  0  0  0  0  0
  184.5690  176.3160  138.3480 N   0  0  0  0  0  0  0  0  0  0  0  0
  190.7640  177.8820  141.1250 O   0  0  0  0  0  1  0  0  0  0  0  0
  188.5420  176.8870  142.6950 C   0  0  0  0  0  0  0  0  0  0  0  0
  190.1590  174.9850  142.8550 C   0  0  0  0  0  1  0  0  0  0  0  0
  188.2130  178.6600  136.1730 C   0  0  0  0  0  2  0  0  0  0  0  0
  185.7060  176.9560  135.9110 N   0  0  0  0  0  0  0  0  0  0  0  0
  186.4990  178.4110  143.7850 C   0  0  0  0  0  3  0  0  0  0  0  0
  190.3150  176.5640  140.9340 C   0  0  2  0  0  3  0  0  0  0  0  0
  189.4780  176.4430  139.7420 N   0  0  0  0  0  2  0  0  0  0  0  0
  185.5820  177.2140  138.2580 C   0  0  0  0  0  0  0  0  0  0  0  0
  189.4050  176.8550  137.3890 N   0  0  2  0  0  0  0  0  0  0  0  0
  187.1780  178.4580  137.1860 N   0  0  0  0  0  0  0  0  0  0  0  0
  186.5720  178.1990  142.4050 C   0  0  0  0  0  0  0  0  0  0  0  0
  190.6900  176.1620  137.7050 C   0  0  1  0  0  3  0  0  0  0  0  0
  189.5600  178.0730  136.5960 C   0  0  0  0  0  2  0  0  0  0  0  0
  188.4920  177.0940  144.0810 C   0  0  0  0  0  3  0  0  0  0  0  0
  185.3910  178.6620  140.2340 C   0  0  0  0  0  3  0  0  0  0  0  0
  184.1940  175.4650  134.7690 N   0  0  0  0  0  1  0  0  0  0  0  0
  189.6040  176.1110  142.1230 N   0  0  0  0  0  0  0  0  0  0  0  0
  187.4660  177.8620  144.6390 C   0  0  0  0  0  0  0  0  0  0  0  0
  186.1400  177.5220  137.0620 C   0  0  0  0  0  0  0  0  0  0  0  0
  184.0880  175.7450  137.2050 C   0  0  0  0  0  3  0  0  0  0  0  0
  184.6740  176.0690  135.9630 C   0  0  0  0  0  0  0  0  0  0  0  0
  188.4550  177.5590  146.9340 C   0  0  0  0  0  2  0  0  0  0  0  0
  188.5110  178.3740  148.2250 C   0  0  0  0  0  2  0  0  0  0  0  0
  187.2310  178.4140  148.8130 O   0  0  0  0  0  0  0  0  0  0  0  0
  187.4120  178.1050  146.0580 N   0  0  0  0  0  0  0  0  0  0  0  0
  186.4510  179.2520  147.9950 C   0  0  0  0  0  2  0  0  0  0  0  0
  186.1560  178.5480  146.6700 C   0  0  0  0  0  2  0  0  0  0  0  0
  191.9390  176.7500  137.0290 C   0  0  0  0  0  2  0  0  0  0  0  0
  193.1970  176.1880  137.6740 C   0  0  0  0  0  2  0  0  0  0  0  0
  193.2980  174.6850  137.4460 C   0  0  0  0  0  2  0  0  0  0  0  0
  194.6080  174.1660  137.9980 C   0  0  0  0  0  2  0  0  0  0  0  0
  195.1910  175.1460  138.7960 O   0  0  0  0  0  0  0  0  0  0  0  0
  196.2770  174.5060  139.4080 C   0  0  0  0  0  1  0  0  0  0  0  0
  1 18  2  0  0  0  0
  1  8  1  0  0  0  0
  2 18  1  0  0  0  0
  4  3  1  6  0  0  0
  4 22  1  0  0  0  0
  5 14  1  1  0  0  0
  8 21  2  0  0  0  0
 10 20  1  0  0  0  0
 10 17  1  0  0  0  0
 11 28  2  0  0  0  0
 11 26  1  0  0  0  0
 12 25  2  0  0  0  0
 13  7  1  1  0  0  0
 13 24  1  0  0  0  0
 14 13  1  0  0  0  0
 15  6  1  0  0  0  0
 15  4  1  0  0  0  0
 16 20  1  6  0  0  0
 16 19  1  0  0  0  0
 16  5  1  0  0  0  0
 17  3  1  0  0  0  0
 18 12  1  0  0  0  0
 19 35  1  6  0  0  0
 19  5  1  0  0  0  0
 21 25  1  0  0  0  0
 22  2  2  0  0  0  0
 23 28  1  0  0  0  0
 24  8  1  0  0  0  0
 24  9  1  0  0  0  0
 25 32  1  0  0  0  0
 26 17  1  0  0  0  0
 26 15  2  0  0  0  0
 27  6  2  0  0  0  0
 28 27  1  0  0  0  0
 29 30  1  0  0  0  0
 30 31  1  0  0  0  0
 32 34  1  0  0  0  0
 32 29  1  0  0  0  0
 33 31  1  0  0  0  0
 34 33  1  0  0  0  0
 35 36  1  0  0  0  0
 37 36  1  0  0  0  0
 37 38  1  0  0  0  0
 38 39  1  0  0  0  0
 39 40  1  0  0  0  0
M  END
>  <MODEL>
7

>  <REMARK>
 VINA RESULT:      -4.8      3.354      8.309
  Name = 
  6 active torsions:
  status: ('A' for Active; 'I' for Inactive)
    1  A    between atoms: C_4  and  C_8
    2  A    between atoms: C_4  and  C_30
    3  A    between atoms: C_8  and  C_25
    4  A    between atoms: C_24  and  C_30
    5  A    between atoms: C_25  and  O_27
    6  A    between atoms: N_32  and  C_35
                            x       y       z     vdW  Elec       q    Type
                         _______ _______ _______ _____ _____    ______ ____

>  <TORSDO>
F 6

$$$$
=
 OpenBabel11042413023D

 40 45  0  0  1  0  0  0  0  0999 V2000
  186.6320  177.6010  142.5840 N   0  0  0  0  0  0  0  0  0  0  0  0
  184.3690  178.5590  142.9620 C   0  0  0  0  0  3  0  0  0  0  0  0
  185.1640  179.0010  139.6440 C   0  0  0  0  0  2  0  0  0  0  0  0
  184.6180  177.8790  140.5670 C   0  0  2  0  0  3  0  0  0  0  0  0
  188.1130  177.8560  138.7260 C   0  0  2  0  0  3  0  0  0  0  0  0
  182.9240  176.0650  139.9590 N   0  0  0  0  0  0  0  0  0  0  0  0
  189.3240  178.6220  140.9830 O   0  0  0  0  0  1  0  0  0  0  0  0
  187.8560  177.1890  143.0280 C   0  0  0  0  0  0  0  0  0  0  0  0
  189.7340  175.6050  142.5570 C   0  0  0  0  0  1  0  0  0  0  0  0
  185.3340  179.1010  137.0470 C   0  0  0  0  0  2  0  0  0  0  0  0
  183.1720  176.9840  137.3640 N   0  0  0  0  0  0  0  0  0  0  0  0
  186.0070  178.2810  144.7810 C   0  0  0  0  0  3  0  0  0  0  0  0
  189.0580  177.2530  140.8150 C   0  0  2  0  0  3  0  0  0  0  0  0
  187.9380  177.0250  139.9040 N   0  0  0  0  0  2  0  0  0  0  0  0
  183.7060  177.1330  139.6610 C   0  0  0  0  0  0  0  0  0  0  0  0
  187.1080  177.4990  137.7130 N   0  0  2  0  0  0  0  0  0  0  0  0
  184.6910  178.6810  138.2920 N   0  0  0  0  0  0  0  0  0  0  0  0
  185.7030  178.1340  143.4250 C   0  0  0  0  0  0  0  0  0  0  0  0
  188.5230  177.0390  137.5900 C   0  0  1  0  0  3  0  0  0  0  0  0
  186.8220  178.7520  137.0170 C   0  0  0  0  0  2  0  0  0  0  0  0
  188.1850  177.3350  144.3840 C   0  0  0  0  0  3  0  0  0  0  0  0
  183.8760  178.4520  141.7270 C   0  0  0  0  0  3  0  0  0  0  0  0
  181.6530  175.2860  136.5750 N   0  0  0  0  0  1  0  0  0  0  0  0
  188.8130  176.6380  142.1130 N   0  0  0  0  0  0  0  0  0  0  0  0
  187.2580  177.8860  145.2740 C   0  0  0  0  0  0  0  0  0  0  0  0
  183.8290  177.5780  138.3880 C   0  0  0  0  0  0  0  0  0  0  0  0
  182.2270  175.4570  138.9540 C   0  0  0  0  0  3  0  0  0  0  0  0
  182.3590  175.9240  137.6300 C   0  0  0  0  0  0  0  0  0  0  0  0
  188.8270  177.4940  147.2040 C   0  0  0  0  0  2  0  0  0  0  0  0
  189.2270  178.2530  148.4680 C   0  0  0  0  0  2  0  0  0  0  0  0
  188.1520  178.2500  149.3790 O   0  0  0  0  0  0  0  0  0  0  0  0
  187.5880  178.0660  146.6650 N   0  0  0  0  0  0  0  0  0  0  0  0
  187.1800  179.1140  148.8390 C   0  0  0  0  0  2  0  0  0  0  0  0
  186.5420  178.4650  147.6120 C   0  0  0  0  0  2  0  0  0  0  0  0
  189.4040  177.8650  136.6400 C   0  0  0  0  0  2  0  0  0  0  0  0
  190.4530  176.9740  135.9910 C   0  0  0  0  0  2  0  0  0  0  0  0
  191.2350  176.2010  137.0460 C   0  0  0  0  0  2  0  0  0  0  0  0
  191.2880  174.7350  136.6760 C   0  0  0  0  0  2  0  0  0  0  0  0
  190.5390  174.0020  137.5940 O   0  0  0  0  0  0  0  0  0  0  0  0
  189.4800  173.4720  136.8450 C   0  0  0  0  0  1  0  0  0  0  0  0
  1  8  2  0  0  0  0
  1 18  1  0  0  0  0
  2 18  1  0  0  0  0
  4  3  1  6  0  0  0
  4 22  1  0  0  0  0
  5 14  1  1  0  0  0
  8 21  1  0  0  0  0
 10 17  1  0  0  0  0
 11 28  2  0  0  0  0
 11 26  1  0  0  0  0
 12 25  1  0  0  0  0
 13  7  1  1  0  0  0
 13 24  1  0  0  0  0
 14 13  1  0  0  0  0
 15  6  1  0  0  0  0
 15  4  1  0  0  0  0
 16 20  1  6  0  0  0
 16  5  1  0  0  0  0
 17 26  1  0  0  0  0
 17  3  1  0  0  0  0
 18 12  2  0  0  0  0
 19 35  1  6  0  0  0
 19 16  1  0  0  0  0
 19  5  1  0  0  0  0
 20 10  1  0  0  0  0
 21 25  2  0  0  0  0
 22  2  2  0  0  0  0
 23 28  1  0  0  0  0
 24  9  1  0  0  0  0
 24  8  1  0  0  0  0
 25 32  1  0  0  0  0
 26 15  2  0  0  0  0
 27  6  2  0  0  0  0
 28 27  1  0  0  0  0
 29 30  1  0  0  0  0
 30 31  1  0  0  0  0
 32 29  1  0  0  0  0
 32 34  1  0  0  0  0
 33 31  1  0  0  0  0
 34 33  1  0  0  0  0
 36 35  1  0  0  0  0
 36 37  1  0  0  0  0
 38 37  1  0  0  0  0
 38 39  1  0  0  0  0
 40 39  1  0  0  0  0
M  END
>  <MODEL>
8

>  <REMARK>
 VINA RESULT:      -4.7      2.687      7.677
  Name = 
  6 active torsions:
  status: ('A' for Active; 'I' for Inactive)
    1  A    between atoms: C_4  and  C_8
    2  A    between atoms: C_4  and  C_30
    3  A    between atoms: C_8  and  C_25
    4  A    between atoms: C_24  and  C_30
    5  A    between atoms: C_25  and  O_27
    6  A    between atoms: N_32  and  C_35
                            x       y       z     vdW  Elec       q    Type
                         _______ _______ _______ _____ _____    ______ ____

>  <TORSDO>
F 6

$$$$
=
 OpenBabel11042413023D

 40 45  0  0  1  0  0  0  0  0999 V2000
  187.7780  175.6600  136.9060 N   0  0  0  0  0  0  0  0  0  0  0  0
  187.9810  178.1300  137.1110 C   0  0  0  0  0  3  0  0  0  0  0  0
  184.8290  177.4220  135.9280 C   0  0  0  0  0  2  0  0  0  0  0  0
  185.5780  177.4530  137.2870 C   0  0  2  0  0  3  0  0  0  0  0  0
  184.1530  174.2240  135.5130 C   0  0  2  0  0  3  0  0  0  0  0  0
  184.6190  178.0980  139.5660 N   0  0  0  0  0  0  0  0  0  0  0  0
  186.5930  173.6340  134.5940 O   0  0  0  0  0  1  0  0  0  0  0  0
  188.3200  174.4120  136.7860 C   0  0  0  0  0  0  0  0  0  0  0  0
  187.9250  171.9950  137.2940 C   0  0  0  0  0  1  0  0  0  0  0  0
  182.2880  177.1570  135.4200 C   0  0  0  0  0  2  0  0  0  0  0  0
  182.1630  178.1370  138.2980 N   0  0  0  0  0  0  0  0  0  0  0  0
  189.9420  176.6580  136.8700 C   0  0  0  0  0  3  0  0  0  0  0  0
  186.2730  173.2370  135.9030 C   0  0  2  0  0  3  0  0  0  0  0  0
  185.2240  174.0740  136.4830 N   0  0  0  0  0  2  0  0  0  0  0  0
  184.5110  177.8700  138.2330 C   0  0  0  0  0  0  0  0  0  0  0  0
  183.0040  174.8940  136.1420 N   0  0  2  0  0  0  0  0  0  0  0  0
  183.4080  177.6140  136.2430 N   0  0  0  0  0  0  0  0  0  0  0  0
  188.5520  176.7790  136.9570 C   0  0  0  0  0  0  0  0  0  0  0  0
  183.0020  173.4200  135.9050 C   0  0  1  0  0  3  0  0  0  0  0  0
  182.3960  175.6740  135.0660 C   0  0  0  0  0  2  0  0  0  0  0  0
  189.7120  174.2690  136.6900 C   0  0  0  0  0  3  0  0  0  0  0  0
  186.6930  178.4450  137.2610 C   0  0  0  0  0  3  0  0  0  0  0  0
  181.0560  178.6680  140.3740 N   0  0  0  0  0  1  0  0  0  0  0  0
  187.4740  173.2560  136.7280 N   0  0  0  0  0  0  0  0  0  0  0  0
  190.5370  175.3970  136.7300 C   0  0  0  0  0  0  0  0  0  0  0  0
  183.3050  177.8850  137.6160 C   0  0  0  0  0  0  0  0  0  0  0  0
  183.4910  178.3800  140.2820 C   0  0  0  0  0  3  0  0  0  0  0  0
  182.2380  178.3940  139.6340 C   0  0  0  0  0  0  0  0  0  0  0  0
  192.5640  173.9620  136.3190 C   0  0  0  0  0  2  0  0  0  0  0  0
  193.9460  174.1610  135.7000 C   0  0  0  0  0  2  0  0  0  0  0  0
  194.7280  174.9740  136.5450 O   0  0  0  0  0  0  0  0  0  0  0  0
  191.9670  175.2700  136.6080 N   0  0  0  0  0  0  0  0  0  0  0  0
  194.1940  176.2730  136.4420 C   0  0  0  0  0  2  0  0  0  0  0  0
  192.8350  176.3250  137.1400 C   0  0  0  0  0  2  0  0  0  0  0  0
  182.2370  172.9540  134.6560 C   0  0  0  0  0  2  0  0  0  0  0  0
  181.8580  171.4870  134.7910 C   0  0  0  0  0  2  0  0  0  0  0  0
  180.3740  171.3370  135.1060 C   0  0  0  0  0  2  0  0  0  0  0  0
  179.7890  172.6810  135.4810 C   0  0  0  0  0  2  0  0  0  0  0  0
  178.9320  172.5230  136.5660 O   0  0  0  0  0  0  0  0  0  0  0  0
  179.7820  172.3430  137.6660 C   0  0  0  0  0  1  0  0  0  0  0  0
  1 18  1  0  0  0  0
  2 22  2  0  0  0  0
  3 17  1  0  0  0  0
  4  3  1  6  0  0  0
  4 15  1  0  0  0  0
  5 19  1  0  0  0  0
  5 16  1  0  0  0  0
  5 14  1  1  0  0  0
  6 27  1  0  0  0  0
  8  1  2  0  0  0  0
 10 17  1  0  0  0  0
 11 28  1  0  0  0  0
 12 18  2  0  0  0  0
 13  7  1  6  0  0  0
 13 14  1  0  0  0  0
 13 24  1  0  0  0  0
 15  6  2  0  0  0  0
 16 20  1  6  0  0  0
 17 26  1  0  0  0  0
 18  2  1  0  0  0  0
 19 35  1  6  0  0  0
 19 16  1  0  0  0  0
 20 10  1  0  0  0  0
 21 25  2  0  0  0  0
 21  8  1  0  0  0  0
 22  4  1  0  0  0  0
 24  8  1  0  0  0  0
 24  9  1  0  0  0  0
 25 12  1  0  0  0  0
 26 15  1  0  0  0  0
 26 11  2  0  0  0  0
 28 27  2  0  0  0  0
 28 23  1  0  0  0  0
 29 32  1  0  0  0  0
 30 29  1  0  0  0  0
 30 31  1  0  0  0  0
 32 25  1  0  0  0  0
 32 34  1  0  0  0  0
 33 31  1  0  0  0  0
 33 34  1  0  0  0  0
 35 36  1  0  0  0  0
 36 37  1  0  0  0  0
 37 38  1  0  0  0  0
 38 39  1  0  0  0  0
 39 40  1  0  0  0  0
M  END
>  <MODEL>
9

>  <REMARK>
 VINA RESULT:      -4.3      4.071      7.340
  Name = 
  6 active torsions:
  status: ('A' for Active; 'I' for Inactive)
    1  A    between atoms: C_4  and  C_8
    2  A    between atoms: C_4  and  C_30
    3  A    between atoms: C_8  and  C_25
    4  A    between atoms: C_24  and  C_30
    5  A    between atoms: C_25  and  O_27
    6  A    between atoms: N_32  and  C_35
                            x       y       z     vdW  Elec       q    Type
                         _______ _______ _______ _____ _____    ______ ____

>  <TORSDO>
F 6

$$$$
