=
 OpenBabel11042412033D

 28 31  0  0  1  0  0  0  0  0999 V2000
  189.1970  178.0680  141.8030 N   0  0  0  0  0  0  0  0  0  0  0  0
  190.5050  177.0850  138.7650 C   0  0  0  0  0  0  0  0  0  0  0  0
  190.8500  177.4350  140.0090 C   0  0  0  0  0  3  0  0  0  0  0  0
  189.0720  177.4230  138.4130 C   0  0  1  0  0  3  0  0  0  0  0  0
  188.6670  178.0830  139.6760 C   0  0  0  0  0  0  0  0  0  0  0  0
  187.8480  178.0540  141.6240 C   0  0  0  0  0  0  0  0  0  0  0  0
  189.6820  178.0960  140.5550 C   0  0  0  0  0  0  0  0  0  0  0  0
  189.0270  178.4270  137.2740 C   0  0  0  0  0  1  0  0  0  0  0  0
  187.4850  178.0000  140.3170 N   0  0  0  0  0  0  0  0  0  0  0  0
  190.8990  176.6060  145.5120 C   0  0  2  0  0  3  0  0  0  0  0  0
  189.5330  175.3300  142.8410 C   0  0  0  0  0  1  0  0  0  0  0  0
  190.6060  176.3970  142.9810 C   0  0  1  0  0  3  0  0  0  0  0  0
  191.0670  178.0830  145.7030 C   0  0  1  0  0  3  0  0  0  0  0  0
  189.9650  177.8000  143.0190 C   0  0  1  0  0  3  0  0  0  0  0  0
  191.9350  177.1460  146.2980 O   0  0  0  0  0  0  0  0  0  0  0  0
  191.4800  176.0690  144.1970 C   0  0  0  0  0  2  0  0  0  0  0  0
  191.7980  178.7900  144.5570 C   0  0  0  0  0  2  0  0  0  0  0  0
  190.9270  178.9650  143.3100 C   0  0  0  0  0  2  0  0  0  0  0  0
  191.3930  176.3690  137.8890 C   0  0  0  0  0  0  0  0  0  0  0  0
  192.1080  175.7940  137.1850 N   0  0  0  0  0  0  0  0  0  0  0  0
  186.8520  177.9400  142.7330 C   0  0  0  0  0  2  0  0  0  0  0  0
  185.5480  178.6610  142.3960 C   0  0  2  0  0  3  0  0  0  0  0  0
  185.8270  179.7680  141.5920 O   0  0  0  0  0  0  0  0  0  0  0  0
  184.9740  179.6770  140.5930 O   0  0  0  0  0  1  0  0  0  0  0  0
  183.2570  178.7830  143.5010 C   0  0  0  0  0  1  0  0  0  0  0  0
  184.7360  179.1060  143.6230 C   0  0  1  0  0  3  0  0  0  0  0  0
  184.4520  178.9610  146.0170 O   0  0  0  0  0  1  0  0  0  0  0  0
  185.3220  178.6680  144.9650 C   0  0  0  0  0  2  0  0  0  0  0  0
  2  3  2  0  0  0  0
  3  7  1  0  0  0  0
  4  8  1  6  0  0  0
  4  2  1  0  0  0  0
  4  5  1  0  0  0  0
  5  9  1  0  0  0  0
  5  7  2  0  0  0  0
  6  1  1  0  0  0  0
  6 21  1  0  0  0  0
  7  1  1  0  0  0  0
  9  6  2  0  0  0  0
 10 16  1  6  0  0  0
 10 13  1  0  0  0  0
 10 15  1  0  0  0  0
 12 11  1  1  0  0  0
 12 14  1  0  0  0  0
 12 16  1  0  0  0  0
 13 17  1  6  0  0  0
 13 15  1  0  0  0  0
 14  1  1  6  0  0  0
 14 18  1  0  0  0  0
 18 17  1  0  0  0  0
 19  2  1  0  0  0  0
 20 19  3  0  0  0  0
 22 21  1  1  0  0  0
 22 26  1  0  0  0  0
 23 22  1  0  0  0  0
 24 23  1  0  0  0  0
 26 25  1  6  0  0  0
 26 28  1  0  0  0  0
 28 27  1  0  0  0  0
M  END
>  <MODEL>
1

>  <REMARK>
 VINA RESULT:      -7.3      0.000      0.000
  Name = 
  7 active torsions:
  status: ('A' for Active; 'I' for Inactive)
    1  A    between atoms: C_1  and  C_4
    2  A    between atoms: O_2  and  C_26
    3  A    between atoms: N_3  and  C_20
    4  A    between atoms: C_5  and  C_15
    5  A    between atoms: C_5  and  C_26
    6  A    between atoms: C_14  and  C_23
    7  A    between atoms: C_14  and  C_26
                            x       y       z     vdW  Elec       q    Type
                         _______ _______ _______ _____ _____    ______ ____

>  <TORSDO>
F 7

$$$$
=
 OpenBabel11042412033D

 28 31  0  0  1  0  0  0  0  0999 V2000
  189.0350  178.2790  141.6210 N   0  0  0  0  0  0  0  0  0  0  0  0
  190.3600  177.2290  138.6120 C   0  0  0  0  0  0  0  0  0  0  0  0
  190.6950  177.5650  139.8640 C   0  0  0  0  0  3  0  0  0  0  0  0
  188.9530  177.6360  138.2300 C   0  0  1  0  0  3  0  0  0  0  0  0
  188.5530  178.3170  139.4830 C   0  0  0  0  0  0  0  0  0  0  0  0
  187.6920  178.3300  141.4130 C   0  0  0  0  0  0  0  0  0  0  0  0
  189.5480  178.2820  140.3830 C   0  0  0  0  0  0  0  0  0  0  0  0
  188.9810  178.6390  137.0890 C   0  0  0  0  0  1  0  0  0  0  0  0
  187.3550  178.2920  140.0980 N   0  0  0  0  0  0  0  0  0  0  0  0
  190.5520  176.7790  145.3940 C   0  0  2  0  0  3  0  0  0  0  0  0
  189.0860  175.5580  142.7510 C   0  0  0  0  0  1  0  0  0  0  0  0
  190.2590  176.5160  142.8680 C   0  0  1  0  0  3  0  0  0  0  0  0
  190.8680  178.2370  145.5390 C   0  0  1  0  0  3  0  0  0  0  0  0
  189.7630  177.9760  142.8530 C   0  0  1  0  0  3  0  0  0  0  0  0
  191.6320  177.2380  146.1730 O   0  0  0  0  0  0  0  0  0  0  0  0
  191.0870  176.1420  144.1040 C   0  0  0  0  0  2  0  0  0  0  0  0
  191.6750  178.8280  144.3790 C   0  0  0  0  0  2  0  0  0  0  0  0
  190.8350  179.0480  143.1170 C   0  0  0  0  0  2  0  0  0  0  0  0
  191.2310  176.4710  137.7560 C   0  0  0  0  0  0  0  0  0  0  0  0
  191.9320  175.8610  137.0680 N   0  0  0  0  0  0  0  0  0  0  0  0
  186.6680  178.2660  142.5000 C   0  0  0  0  0  2  0  0  0  0  0  0
  185.4710  179.1680  142.2010 C   0  0  2  0  0  3  0  0  0  0  0  0
  185.0920  179.8330  143.3690 O   0  0  0  0  0  0  0  0  0  0  0  0
  185.4990  179.0490  144.3460 O   0  0  0  0  0  1  0  0  0  0  0  0
  182.9970  178.6130  142.4390 C   0  0  0  0  0  1  0  0  0  0  0  0
  184.2580  178.4330  141.6110 C   0  0  1  0  0  3  0  0  0  0  0  0
  184.5790  179.9070  139.7240 O   0  0  0  0  0  1  0  0  0  0  0  0
  184.0210  178.6910  140.1230 C   0  0  0  0  0  2  0  0  0  0  0  0
  2  3  2  0  0  0  0
  3  7  1  0  0  0  0
  4  8  1  6  0  0  0
  4  2  1  0  0  0  0
  4  5  1  0  0  0  0
  5  9  1  0  0  0  0
  5  7  2  0  0  0  0
  6  1  1  0  0  0  0
  6 21  1  0  0  0  0
  7  1  1  0  0  0  0
  9  6  2  0  0  0  0
 10 16  1  6  0  0  0
 10 13  1  0  0  0  0
 10 15  1  0  0  0  0
 12 11  1  1  0  0  0
 12 16  1  0  0  0  0
 13 17  1  6  0  0  0
 13 15  1  0  0  0  0
 14  1  1  6  0  0  0
 14 12  1  0  0  0  0
 14 18  1  0  0  0  0
 18 17  1  0  0  0  0
 19  2  1  0  0  0  0
 20 19  3  0  0  0  0
 22 21  1  1  0  0  0
 22 23  1  0  0  0  0
 23 24  1  0  0  0  0
 26 22  1  0  0  0  0
 26 25  1  1  0  0  0
 27 28  1  0  0  0  0
 28 26  1  0  0  0  0
M  END
>  <MODEL>
2

>  <REMARK>
 VINA RESULT:      -6.9      0.904      1.819
  Name = 
  7 active torsions:
  status: ('A' for Active; 'I' for Inactive)
    1  A    between atoms: C_1  and  C_4
    2  A    between atoms: O_2  and  C_26
    3  A    between atoms: N_3  and  C_20
    4  A    between atoms: C_5  and  C_15
    5  A    between atoms: C_5  and  C_26
    6  A    between atoms: C_14  and  C_23
    7  A    between atoms: C_14  and  C_26
                            x       y       z     vdW  Elec       q    Type
                         _______ _______ _______ _____ _____    ______ ____

>  <TORSDO>
F 7

$$$$
=
 OpenBabel11042412033D

 28 31  0  0  1  0  0  0  0  0999 V2000
  188.0980  177.9070  142.3120 N   0  0  0  0  0  0  0  0  0  0  0  0
  184.9730  178.5390  143.6330 C   0  0  0  0  0  0  0  0  0  0  0  0
  186.1480  177.9600  143.9080 C   0  0  0  0  0  3  0  0  0  0  0  0
  184.7830  178.8630  142.1670 C   0  0  1  0  0  3  0  0  0  0  0  0
  186.0530  178.3160  141.6350 C   0  0  0  0  0  0  0  0  0  0  0  0
  188.0850  178.4990  141.0870 C   0  0  0  0  0  0  0  0  0  0  0  0
  186.8000  177.7980  142.6240 C   0  0  0  0  0  0  0  0  0  0  0  0
  183.6110  178.0820  141.5970 C   0  0  0  0  0  1  0  0  0  0  0  0
  186.8360  178.8230  140.6640 N   0  0  0  0  0  0  0  0  0  0  0  0
  191.0590  176.5460  145.1690 C   0  0  2  0  0  3  0  0  0  0  0  0
  189.2650  175.2420  142.7810 C   0  0  0  0  0  1  0  0  0  0  0  0
  190.0940  176.5150  142.8020 C   0  0  1  0  0  3  0  0  0  0  0  0
  190.9750  177.9970  145.5410 C   0  0  1  0  0  3  0  0  0  0  0  0
  189.2220  177.7150  143.2270 C   0  0  1  0  0  3  0  0  0  0  0  0
  192.1480  177.2400  145.7320 O   0  0  0  0  0  0  0  0  0  0  0  0
  191.3310  176.2900  143.6810 C   0  0  0  0  0  2  0  0  0  0  0  0
  191.1840  178.9620  144.3690 C   0  0  0  0  0  2  0  0  0  0  0  0
  189.9720  179.0430  143.4360 C   0  0  0  0  0  2  0  0  0  0  0  0
  184.0310  178.8980  144.6580 C   0  0  0  0  0  0  0  0  0  0  0  0
  183.2720  179.1870  145.4820 N   0  0  0  0  0  0  0  0  0  0  0  0
  189.3110  178.9120  140.3380 C   0  0  0  0  0  2  0  0  0  0  0  0
  189.3470  178.3060  138.9360 C   0  0  2  0  0  3  0  0  0  0  0  0
  188.2960  178.8310  138.1800 O   0  0  0  0  0  0  0  0  0  0  0  0
  188.8540  179.7670  137.4400 O   0  0  0  0  0  1  0  0  0  0  0  0
  188.3830  176.2360  137.8080 C   0  0  0  0  0  1  0  0  0  0  0  0
  189.2850  176.7710  138.9080 C   0  0  1  0  0  3  0  0  0  0  0  0
  190.6340  174.9040  138.1820 O   0  0  0  0  0  1  0  0  0  0  0  0
  190.6480  176.0800  138.9350 C   0  0  0  0  0  2  0  0  0  0  0  0
  1  7  1  0  0  0  0
  2  3  2  0  0  0  0
  2 19  1  0  0  0  0
  4  8  1  6  0  0  0
  4  2  1  0  0  0  0
  5  4  1  0  0  0  0
  5  7  2  0  0  0  0
  6  1  1  0  0  0  0
  7  3  1  0  0  0  0
  9  6  2  0  0  0  0
  9  5  1  0  0  0  0
 10 16  1  6  0  0  0
 10 13  1  0  0  0  0
 10 15  1  0  0  0  0
 12 11  1  1  0  0  0
 12 14  1  0  0  0  0
 12 16  1  0  0  0  0
 13 17  1  6  0  0  0
 13 15  1  0  0  0  0
 14  1  1  6  0  0  0
 14 18  1  0  0  0  0
 18 17  1  0  0  0  0
 19 20  3  0  0  0  0
 21  6  1  0  0  0  0
 22 21  1  1  0  0  0
 23 22  1  0  0  0  0
 24 23  1  0  0  0  0
 26 25  1  6  0  0  0
 26 28  1  0  0  0  0
 26 22  1  0  0  0  0
 27 28  1  0  0  0  0
M  END
>  <MODEL>
3

>  <REMARK>
 VINA RESULT:      -6.9      2.457      5.527
  Name = 
  7 active torsions:
  status: ('A' for Active; 'I' for Inactive)
    1  A    between atoms: C_1  and  C_4
    2  A    between atoms: O_2  and  C_26
    3  A    between atoms: N_3  and  C_20
    4  A    between atoms: C_5  and  C_15
    5  A    between atoms: C_5  and  C_26
    6  A    between atoms: C_14  and  C_23
    7  A    between atoms: C_14  and  C_26
                            x       y       z     vdW  Elec       q    Type
                         _______ _______ _______ _____ _____    ______ ____

>  <TORSDO>
F 7

$$$$
=
 OpenBabel11042412033D

 28 31  0  0  1  0  0  0  0  0999 V2000
  188.0220  177.8130  142.2220 N   0  0  0  0  0  0  0  0  0  0  0  0
  184.9230  178.5970  143.5230 C   0  0  0  0  0  0  0  0  0  0  0  0
  186.0920  178.0210  143.8290 C   0  0  0  0  0  3  0  0  0  0  0  0
  184.7220  178.8120  142.0380 C   0  0  1  0  0  3  0  0  0  0  0  0
  185.9760  178.2030  141.5370 C   0  0  0  0  0  0  0  0  0  0  0  0
  188.0050  178.3100  140.9550 C   0  0  0  0  0  0  0  0  0  0  0  0
  186.7260  177.7510  142.5550 C   0  0  0  0  0  0  0  0  0  0  0  0
  183.5310  178.0090  141.5410 C   0  0  0  0  0  1  0  0  0  0  0  0
  186.7560  178.6220  140.5220 N   0  0  0  0  0  0  0  0  0  0  0  0
  190.9910  176.6270  145.1490 C   0  0  2  0  0  3  0  0  0  0  0  0
  189.1410  175.1710  142.8940 C   0  0  0  0  0  1  0  0  0  0  0  0
  189.9950  176.4240  142.8020 C   0  0  1  0  0  3  0  0  0  0  0  0
  190.9400  178.1040  145.4020 C   0  0  1  0  0  3  0  0  0  0  0  0
  189.1540  177.6730  143.1380 C   0  0  1  0  0  3  0  0  0  0  0  0
  192.1000  177.3410  145.6420 O   0  0  0  0  0  0  0  0  0  0  0  0
  191.2380  176.2450  143.6830 C   0  0  0  0  0  2  0  0  0  0  0  0
  191.1540  178.9670  144.1540 C   0  0  0  0  0  2  0  0  0  0  0  0
  189.9320  178.9970  143.2300 C   0  0  0  0  0  2  0  0  0  0  0  0
  183.9980  179.0490  144.5270 C   0  0  0  0  0  0  0  0  0  0  0  0
  183.2540  179.4130  145.3340 N   0  0  0  0  0  0  0  0  0  0  0  0
  189.2290  178.6440  140.1650 C   0  0  0  0  0  2  0  0  0  0  0  0
  189.6270  177.5010  139.2320 C   0  0  2  0  0  3  0  0  0  0  0  0
  191.0100  177.3190  139.2890 O   0  0  0  0  0  0  0  0  0  0  0  0
  191.1760  176.0130  139.2330 O   0  0  0  0  0  1  0  0  0  0  0  0
  188.0030  176.8350  137.3860 C   0  0  0  0  0  1  0  0  0  0  0  0
  189.1930  177.6980  137.7710 C   0  0  1  0  0  3  0  0  0  0  0  0
  187.7100  179.4080  136.9280 O   0  0  0  0  0  1  0  0  0  0  0  0
  189.0160  179.1570  137.3510 C   0  0  0  0  0  2  0  0  0  0  0  0
  1  7  1  0  0  0  0
  2  3  2  0  0  0  0
  2 19  1  0  0  0  0
  4  8  1  6  0  0  0
  4  2  1  0  0  0  0
  5  4  1  0  0  0  0
  5  7  2  0  0  0  0
  6  1  1  0  0  0  0
  7  3  1  0  0  0  0
  9  6  2  0  0  0  0
  9  5  1  0  0  0  0
 10 16  1  6  0  0  0
 10 13  1  0  0  0  0
 10 15  1  0  0  0  0
 12 11  1  1  0  0  0
 12 14  1  0  0  0  0
 12 16  1  0  0  0  0
 13 17  1  6  0  0  0
 13 15  1  0  0  0  0
 14  1  1  6  0  0  0
 14 18  1  0  0  0  0
 18 17  1  0  0  0  0
 19 20  3  0  0  0  0
 21  6  1  0  0  0  0
 22 23  1  0  0  0  0
 22 21  1  1  0  0  0
 24 23  1  0  0  0  0
 26 25  1  1  0  0  0
 26 22  1  0  0  0  0
 27 28  1  0  0  0  0
 28 26  1  0  0  0  0
M  END
>  <MODEL>
4

>  <REMARK>
 VINA RESULT:      -6.9      2.519      5.633
  Name = 
  7 active torsions:
  status: ('A' for Active; 'I' for Inactive)
    1  A    between atoms: C_1  and  C_4
    2  A    between atoms: O_2  and  C_26
    3  A    between atoms: N_3  and  C_20
    4  A    between atoms: C_5  and  C_15
    5  A    between atoms: C_5  and  C_26
    6  A    between atoms: C_14  and  C_23
    7  A    between atoms: C_14  and  C_26
                            x       y       z     vdW  Elec       q    Type
                         _______ _______ _______ _____ _____    ______ ____

>  <TORSDO>
F 7

$$$$
=
 OpenBabel11042412033D

 28 31  0  0  1  0  0  0  0  0999 V2000
  189.2600  177.9110  141.4320 N   0  0  0  0  0  0  0  0  0  0  0  0
  190.2620  177.1970  138.2080 C   0  0  0  0  0  0  0  0  0  0  0  0
  190.7060  177.2770  139.4680 C   0  0  0  0  0  3  0  0  0  0  0  0
  188.9090  177.8430  137.9980 C   0  0  1  0  0  3  0  0  0  0  0  0
  188.6760  178.3590  139.3680 C   0  0  0  0  0  0  0  0  0  0  0  0
  187.9280  178.1730  141.3350 C   0  0  0  0  0  0  0  0  0  0  0  0
  189.7020  178.0460  140.1750 C   0  0  0  0  0  0  0  0  0  0  0  0
  189.0200  179.0050  137.0260 C   0  0  0  0  0  1  0  0  0  0  0  0
  187.5210  178.3940  140.0580 N   0  0  0  0  0  0  0  0  0  0  0  0
  191.8870  176.9260  144.7360 C   0  0  2  0  0  3  0  0  0  0  0  0
  190.3240  179.5630  143.6290 C   0  0  0  0  0  1  0  0  0  0  0  0
  189.8260  178.1440  143.8380 C   0  0  1  0  0  3  0  0  0  0  0  0
  191.8100  175.5960  144.0490 C   0  0  1  0  0  3  0  0  0  0  0  0
  190.0000  177.3190  142.5460 C   0  0  1  0  0  3  0  0  0  0  0  0
  192.0330  175.7130  145.4350 O   0  0  0  0  0  0  0  0  0  0  0  0
  190.5240  177.5470  145.0670 C   0  0  0  0  0  2  0  0  0  0  0  0
  190.3830  175.0900  143.8100 C   0  0  0  0  0  2  0  0  0  0  0  0
  189.6750  175.8190  142.6640 C   0  0  0  0  0  2  0  0  0  0  0  0
  190.9700  176.4780  137.1840 C   0  0  0  0  0  0  0  0  0  0  0  0
  191.5400  175.9000  136.3600 N   0  0  0  0  0  0  0  0  0  0  0  0
  186.9640  178.0700  142.4720 C   0  0  0  0  0  2  0  0  0  0  0  0
  185.6040  178.6700  142.1150 C   0  0  2  0  0  3  0  0  0  0  0  0
  185.7940  179.7920  141.3060 O   0  0  0  0  0  0  0  0  0  0  0  0
  184.8690  179.6890  140.3730 O   0  0  0  0  0  1  0  0  0  0  0  0
  183.2770  178.6920  143.1490 C   0  0  0  0  0  1  0  0  0  0  0  0
  184.7430  179.0500  143.3300 C   0  0  1  0  0  3  0  0  0  0  0  0
  184.5270  179.0600  145.7360 O   0  0  0  0  0  1  0  0  0  0  0  0
  185.2970  178.5810  144.6740 C   0  0  0  0  0  2  0  0  0  0  0  0
  2  3  2  0  0  0  0
  3  7  1  0  0  0  0
  4  8  1  6  0  0  0
  4  2  1  0  0  0  0
  4  5  1  0  0  0  0
  5  9  1  0  0  0  0
  5  7  2  0  0  0  0
  6  1  1  0  0  0  0
  6 21  1  0  0  0  0
  7  1  1  0  0  0  0
  9  6  2  0  0  0  0
 10 16  1  1  0  0  0
 10 15  1  0  0  0  0
 12 11  1  6  0  0  0
 12 16  1  0  0  0  0
 13 17  1  1  0  0  0
 13 10  1  0  0  0  0
 13 15  1  0  0  0  0
 14  1  1  6  0  0  0
 14 18  1  0  0  0  0
 14 12  1  0  0  0  0
 18 17  1  0  0  0  0
 19  2  1  0  0  0  0
 20 19  3  0  0  0  0
 22 21  1  1  0  0  0
 22 26  1  0  0  0  0
 23 22  1  0  0  0  0
 24 23  1  0  0  0  0
 26 25  1  6  0  0  0
 26 28  1  0  0  0  0
 28 27  1  0  0  0  0
M  END
>  <MODEL>
5

>  <REMARK>
 VINA RESULT:      -6.6      0.766      1.633
  Name = 
  7 active torsions:
  status: ('A' for Active; 'I' for Inactive)
    1  A    between atoms: C_1  and  C_4
    2  A    between atoms: O_2  and  C_26
    3  A    between atoms: N_3  and  C_20
    4  A    between atoms: C_5  and  C_15
    5  A    between atoms: C_5  and  C_26
    6  A    between atoms: C_14  and  C_23
    7  A    between atoms: C_14  and  C_26
                            x       y       z     vdW  Elec       q    Type
                         _______ _______ _______ _____ _____    ______ ____

>  <TORSDO>
F 7

$$$$
=
 OpenBabel11042412033D

 28 31  0  0  1  0  0  0  0  0999 V2000
  190.3240  177.1180  138.8130 N   0  0  0  0  0  0  0  0  0  0  0  0
  189.5440  177.0800  142.1740 C   0  0  0  0  0  0  0  0  0  0  0  0
  189.0080  177.2400  140.9590 C   0  0  0  0  0  3  0  0  0  0  0  0
  191.0560  177.1570  142.1870 C   0  0  1  0  0  3  0  0  0  0  0  0
  191.2920  177.4440  140.7520 C   0  0  0  0  0  0  0  0  0  0  0  0
  191.6550  176.8430  138.7600 C   0  0  0  0  0  0  0  0  0  0  0  0
  190.1310  177.5030  140.0810 C   0  0  0  0  0  0  0  0  0  0  0  0
  191.5210  178.3340  143.0260 C   0  0  0  0  0  1  0  0  0  0  0  0
  192.2750  176.9740  139.9610 N   0  0  0  0  0  0  0  0  0  0  0  0
  186.9070  176.9360  136.1520 C   0  0  2  0  0  3  0  0  0  0  0  0
  189.0140  179.1980  137.1870 C   0  0  0  0  0  1  0  0  0  0  0  0
  189.2600  177.7900  136.6730 C   0  0  1  0  0  3  0  0  0  0  0  0
  186.9640  175.5110  136.6130 C   0  0  1  0  0  3  0  0  0  0  0  0
  189.2790  176.7870  137.8450 C   0  0  1  0  0  3  0  0  0  0  0  0
  186.4480  175.8720  135.3530 O   0  0  0  0  0  0  0  0  0  0  0  0
  188.2290  177.4690  135.5830 C   0  0  0  0  0  2  0  0  0  0  0  0
  188.3280  174.8400  136.4260 C   0  0  0  0  0  2  0  0  0  0  0  0
  189.3690  175.3020  137.4510 C   0  0  0  0  0  2  0  0  0  0  0  0
  188.7520  176.7700  143.3330 C   0  0  0  0  0  0  0  0  0  0  0  0
  188.1140  176.5200  144.2650 N   0  0  0  0  0  0  0  0  0  0  0  0
  192.3540  176.2910  137.5590 C   0  0  0  0  0  2  0  0  0  0  0  0
  193.5580  175.4360  137.9500 C   0  0  2  0  0  3  0  0  0  0  0  0
  194.7000  175.9300  137.3170 O   0  0  0  0  0  0  0  0  0  0  0  0
  194.2410  176.7460  136.3910 O   0  0  0  0  0  1  0  0  0  0  0  0
  192.5150  173.6810  136.4270 C   0  0  0  0  0  1  0  0  0  0  0  0
  193.4000  173.9400  137.6350 C   0  0  1  0  0  3  0  0  0  0  0  0
  195.2530  172.9750  138.8490 O   0  0  0  0  0  1  0  0  0  0  0  0
  194.7140  173.1610  137.5740 C   0  0  0  0  0  2  0  0  0  0  0  0
  1  7  1  0  0  0  0
  2  4  1  0  0  0  0
  2 19  1  0  0  0  0
  3  2  2  0  0  0  0
  4  8  1  1  0  0  0
  5  4  1  0  0  0  0
  6  1  1  0  0  0  0
  6  9  2  0  0  0  0
  7  5  2  0  0  0  0
  7  3  1  0  0  0  0
  9  5  1  0  0  0  0
 10 16  1  6  0  0  0
 10 13  1  0  0  0  0
 12 11  1  1  0  0  0
 12 14  1  0  0  0  0
 13 17  1  6  0  0  0
 14 18  1  6  0  0  0
 14  1  1  0  0  0  0
 15 10  1  0  0  0  0
 15 13  1  0  0  0  0
 16 12  1  0  0  0  0
 17 18  1  0  0  0  0
 19 20  3  0  0  0  0
 21  6  1  0  0  0  0
 22 21  1  6  0  0  0
 23 22  1  0  0  0  0
 24 23  1  0  0  0  0
 26 25  1  6  0  0  0
 26 22  1  0  0  0  0
 28 26  1  0  0  0  0
 28 27  1  0  0  0  0
M  END
>  <MODEL>
6

>  <REMARK>
 VINA RESULT:      -6.5      4.112      8.476
  Name = 
  7 active torsions:
  status: ('A' for Active; 'I' for Inactive)
    1  A    between atoms: C_1  and  C_4
    2  A    between atoms: O_2  and  C_26
    3  A    between atoms: N_3  and  C_20
    4  A    between atoms: C_5  and  C_15
    5  A    between atoms: C_5  and  C_26
    6  A    between atoms: C_14  and  C_23
    7  A    between atoms: C_14  and  C_26
                            x       y       z     vdW  Elec       q    Type
                         _______ _______ _______ _____ _____    ______ ____

>  <TORSDO>
F 7

$$$$
=
 OpenBabel11042412033D

 28 31  0  0  1  0  0  0  0  0999 V2000
  189.1100  177.3460  141.4590 N   0  0  0  0  0  0  0  0  0  0  0  0
  189.7070  177.2300  138.0620 C   0  0  0  0  0  0  0  0  0  0  0  0
  188.7320  177.1460  138.9750 C   0  0  0  0  0  3  0  0  0  0  0  0
  191.0990  177.1160  138.6460 C   0  0  1  0  0  3  0  0  0  0  0  0
  190.7430  176.8980  140.0680 C   0  0  0  0  0  0  0  0  0  0  0  0
  190.3250  177.5920  142.0190 C   0  0  0  0  0  0  0  0  0  0  0  0
  189.4110  176.9010  140.2320 C   0  0  0  0  0  0  0  0  0  0  0  0
  191.8050  175.8860  138.1020 C   0  0  0  0  0  1  0  0  0  0  0  0
  191.3580  177.3840  141.1630 N   0  0  0  0  0  0  0  0  0  0  0  0
  185.0800  177.6860  143.0180 C   0  0  2  0  0  3  0  0  0  0  0  0
  187.7500  175.9310  143.6580 C   0  0  0  0  0  1  0  0  0  0  0  0
  187.5910  177.4230  143.4210 C   0  0  1  0  0  3  0  0  0  0  0  0
  185.0270  178.7010  141.9160 C   0  0  1  0  0  3  0  0  0  0  0  0
  187.7840  177.7520  141.9260 C   0  0  1  0  0  3  0  0  0  0  0  0
  184.2310  178.8090  143.0730 O   0  0  0  0  0  0  0  0  0  0  0  0
  186.2440  177.8780  143.9990 C   0  0  0  0  0  2  0  0  0  0  0  0
  186.1400  179.7530  141.9720 C   0  0  0  0  0  2  0  0  0  0  0  0
  187.5000  179.2090  141.5220 C   0  0  0  0  0  2  0  0  0  0  0  0
  189.4440  177.4990  136.6740 C   0  0  0  0  0  0  0  0  0  0  0  0
  189.2320  177.7150  135.5580 N   0  0  0  0  0  0  0  0  0  0  0  0
  190.5220  178.1870  143.3760 C   0  0  0  0  0  2  0  0  0  0  0  0
  191.2700  177.2340  144.3080 C   0  0  2  0  0  3  0  0  0  0  0  0
  190.9130  175.9190  144.0040 O   0  0  0  0  0  0  0  0  0  0  0  0
  192.0560  175.2650  143.9670 O   0  0  0  0  0  1  0  0  0  0  0  0
  189.5920  177.8390  146.1250 C   0  0  0  0  0  1  0  0  0  0  0  0
  191.0370  177.5000  145.8030 C   0  0  1  0  0  3  0  0  0  0  0  0
  192.0550  176.9890  147.9340 O   0  0  0  0  0  1  0  0  0  0  0  0
  191.6080  176.4310  146.7350 C   0  0  0  0  0  2  0  0  0  0  0  0
  1  6  1  0  0  0  0
  2  4  1  0  0  0  0
  2  3  2  0  0  0  0
  3  7  1  0  0  0  0
  4  8  1  6  0  0  0
  4  5  1  0  0  0  0
  5  7  2  0  0  0  0
  5  9  1  0  0  0  0
  6 21  1  0  0  0  0
  7  1  1  0  0  0  0
  9  6  2  0  0  0  0
 10 15  1  0  0  0  0
 10 16  1  1  0  0  0
 12 11  1  6  0  0  0
 12 16  1  0  0  0  0
 13 17  1  1  0  0  0
 13 10  1  0  0  0  0
 13 15  1  0  0  0  0
 14  1  1  1  0  0  0
 14 12  1  0  0  0  0
 18 14  1  0  0  0  0
 18 17  1  0  0  0  0
 19  2  1  0  0  0  0
 20 19  3  0  0  0  0
 22 21  1  6  0  0  0
 22 26  1  0  0  0  0
 23 22  1  0  0  0  0
 24 23  1  0  0  0  0
 26 25  1  6  0  0  0
 26 28  1  0  0  0  0
 28 27  1  0  0  0  0
M  END
>  <MODEL>
7

>  <REMARK>
 VINA RESULT:      -6.5      1.640      5.129
  Name = 
  7 active torsions:
  status: ('A' for Active; 'I' for Inactive)
    1  A    between atoms: C_1  and  C_4
    2  A    between atoms: O_2  and  C_26
    3  A    between atoms: N_3  and  C_20
    4  A    between atoms: C_5  and  C_15
    5  A    between atoms: C_5  and  C_26
    6  A    between atoms: C_14  and  C_23
    7  A    between atoms: C_14  and  C_26
                            x       y       z     vdW  Elec       q    Type
                         _______ _______ _______ _____ _____    ______ ____

>  <TORSDO>
F 7

$$$$
=
 OpenBabel11042412033D

 28 31  0  0  1  0  0  0  0  0999 V2000
  188.7320  178.1940  141.4290 N   0  0  0  0  0  0  0  0  0  0  0  0
  190.2340  176.3780  138.9080 C   0  0  0  0  0  0  0  0  0  0  0  0
  190.3970  176.7770  140.1750 C   0  0  0  0  0  3  0  0  0  0  0  0
  189.1380  177.1200  138.1730 C   0  0  1  0  0  3  0  0  0  0  0  0
  188.7310  178.0620  139.2410 C   0  0  0  0  0  0  0  0  0  0  0  0
  187.5460  178.6060  140.9040 C   0  0  0  0  0  0  0  0  0  0  0  0
  189.4580  177.8670  140.3520 C   0  0  0  0  0  0  0  0  0  0  0  0
  189.7160  177.8940  137.0010 C   0  0  0  0  0  1  0  0  0  0  0  0
  187.4890  178.4790  139.5530 N   0  0  0  0  0  0  0  0  0  0  0  0
  190.5040  177.0630  145.2200 C   0  0  2  0  0  3  0  0  0  0  0  0
  191.4360  178.6280  142.5170 C   0  0  0  0  0  1  0  0  0  0  0  0
  190.1810  178.7840  143.3570 C   0  0  1  0  0  3  0  0  0  0  0  0
  189.1260  176.4960  145.3880 C   0  0  1  0  0  3  0  0  0  0  0  0
  189.0580  177.8720  142.8180 C   0  0  1  0  0  3  0  0  0  0  0  0
  189.9020  176.9210  146.4850 O   0  0  0  0  0  0  0  0  0  0  0  0
  190.5340  178.5470  144.8310 C   0  0  0  0  0  2  0  0  0  0  0  0
  187.9960  177.5030  145.1510 C   0  0  0  0  0  2  0  0  0  0  0  0
  187.7770  177.8190  143.6680 C   0  0  0  0  0  2  0  0  0  0  0  0
  190.9730  175.2810  138.3430 C   0  0  0  0  0  0  0  0  0  0  0  0
  191.5670  174.3990  137.8890 N   0  0  0  0  0  0  0  0  0  0  0  0
  186.3570  179.0040  141.7180 C   0  0  0  0  0  2  0  0  0  0  0  0
  185.0480  178.6600  141.0090 C   0  0  2  0  0  3  0  0  0  0  0  0
  184.6380  179.7530  140.2440 O   0  0  0  0  0  0  0  0  0  0  0  0
  184.6430  179.3110  139.0030 O   0  0  0  0  0  1  0  0  0  0  0  0
  184.1660  178.6280  143.3980 C   0  0  0  0  0  1  0  0  0  0  0  0
  183.9110  178.2360  141.9520 C   0  0  1  0  0  3  0  0  0  0  0  0
  181.6400  178.7960  142.5560 O   0  0  0  0  0  1  0  0  0  0  0  0
  182.5120  178.6280  141.4780 C   0  0  0  0  0  2  0  0  0  0  0  0
  2  3  2  0  0  0  0
  3  7  1  0  0  0  0
  4  8  1  6  0  0  0
  4  2  1  0  0  0  0
  4  5  1  0  0  0  0
  5  9  1  0  0  0  0
  5  7  2  0  0  0  0
  6  1  1  0  0  0  0
  6 21  1  0  0  0  0
  7  1  1  0  0  0  0
  9  6  2  0  0  0  0
 10 16  1  6  0  0  0
 10 13  1  0  0  0  0
 10 15  1  0  0  0  0
 12 11  1  6  0  0  0
 12 16  1  0  0  0  0
 13 17  1  6  0  0  0
 13 15  1  0  0  0  0
 14  1  1  6  0  0  0
 14 12  1  0  0  0  0
 14 18  1  0  0  0  0
 18 17  1  0  0  0  0
 19  2  1  0  0  0  0
 20 19  3  0  0  0  0
 22 21  1  1  0  0  0
 22 26  1  0  0  0  0
 23 22  1  0  0  0  0
 24 23  1  0  0  0  0
 26 25  1  1  0  0  0
 28 26  1  0  0  0  0
 28 27  1  0  0  0  0
M  END
>  <MODEL>
8

>  <REMARK>
 VINA RESULT:      -6.3      1.512      2.175
  Name = 
  7 active torsions:
  status: ('A' for Active; 'I' for Inactive)
    1  A    between atoms: C_1  and  C_4
    2  A    between atoms: O_2  and  C_26
    3  A    between atoms: N_3  and  C_20
    4  A    between atoms: C_5  and  C_15
    5  A    between atoms: C_5  and  C_26
    6  A    between atoms: C_14  and  C_23
    7  A    between atoms: C_14  and  C_26
                            x       y       z     vdW  Elec       q    Type
                         _______ _______ _______ _____ _____    ______ ____

>  <TORSDO>
F 7

$$$$
=
 OpenBabel11042412033D

 28 31  0  0  1  0  0  0  0  0999 V2000
  188.6810  177.5990  142.8210 N   0  0  0  0  0  0  0  0  0  0  0  0
  188.4800  177.9250  139.3910 C   0  0  0  0  0  0  0  0  0  0  0  0
  187.7390  177.7220  140.4870 C   0  0  0  0  0  3  0  0  0  0  0  0
  189.9650  177.7380  139.6190 C   0  0  1  0  0  3  0  0  0  0  0  0
  189.9390  177.3370  141.0450 C   0  0  0  0  0  0  0  0  0  0  0  0
  189.9990  177.7710  143.1120 C   0  0  0  0  0  0  0  0  0  0  0  0
  188.6800  177.3180  141.5120 C   0  0  0  0  0  0  0  0  0  0  0  0
  190.4910  176.5890  138.7750 C   0  0  0  0  0  1  0  0  0  0  0  0
  190.8020  177.6770  142.0210 N   0  0  0  0  0  0  0  0  0  0  0  0
  185.2470  179.3780  144.7790 C   0  0  2  0  0  3  0  0  0  0  0  0
  186.5650  179.3780  141.7980 C   0  0  0  0  0  1  0  0  0  0  0  0
  186.2800  178.2240  142.7440 C   0  0  1  0  0  3  0  0  0  0  0  0
  185.8490  178.6240  145.9260 C   0  0  1  0  0  3  0  0  0  0  0  0
  187.5110  177.9400  143.6300 C   0  0  1  0  0  3  0  0  0  0  0  0
  184.4670  178.8860  145.8440 O   0  0  0  0  0  0  0  0  0  0  0  0
  184.9960  178.5270  143.5260 C   0  0  0  0  0  2  0  0  0  0  0  0
  186.0960  177.1380  145.6460 C   0  0  0  0  0  2  0  0  0  0  0  0
  187.3070  176.8930  144.7390 C   0  0  0  0  0  2  0  0  0  0  0  0
  187.9140  178.3710  138.1480 C   0  0  0  0  0  0  0  0  0  0  0  0
  187.4590  178.7300  137.1470 N   0  0  0  0  0  0  0  0  0  0  0  0
  190.5190  178.1860  144.4510 C   0  0  0  0  0  2  0  0  0  0  0  0
  191.3480  177.0800  145.1010 C   0  0  2  0  0  3  0  0  0  0  0  0
  190.9560  175.8440  144.5820 O   0  0  0  0  0  0  0  0  0  0  0  0
  192.0560  175.3380  144.0620 O   0  0  0  0  0  1  0  0  0  0  0  0
  189.8360  177.1280  147.1490 C   0  0  0  0  0  1  0  0  0  0  0  0
  191.2630  177.0450  146.6350 C   0  0  1  0  0  3  0  0  0  0  0  0
  192.7940  176.3780  148.3810 O   0  0  0  0  0  1  0  0  0  0  0  0
  192.0550  175.9140  147.2900 C   0  0  0  0  0  2  0  0  0  0  0  0
  1  6  1  0  0  0  0
  2  4  1  0  0  0  0
  2  3  2  0  0  0  0
  3  7  1  0  0  0  0
  4  8  1  6  0  0  0
  4  5  1  0  0  0  0
  5  7  2  0  0  0  0
  5  9  1  0  0  0  0
  6 21  1  0  0  0  0
  7  1  1  0  0  0  0
  9  6  2  0  0  0  0
 10 16  1  6  0  0  0
 10 15  1  0  0  0  0
 10 13  1  0  0  0  0
 12 11  1  6  0  0  0
 12 16  1  0  0  0  0
 12 14  1  0  0  0  0
 13 17  1  6  0  0  0
 14  1  1  6  0  0  0
 14 18  1  0  0  0  0
 15 13  1  0  0  0  0
 18 17  1  0  0  0  0
 19  2  1  0  0  0  0
 20 19  3  0  0  0  0
 22 21  1  6  0  0  0
 22 26  1  0  0  0  0
 23 22  1  0  0  0  0
 24 23  1  0  0  0  0
 26 25  1  6  0  0  0
 26 28  1  0  0  0  0
 28 27  1  0  0  0  0
M  END
>  <MODEL>
9

>  <REMARK>
 VINA RESULT:      -6.2      2.099      5.457
  Name = 
  7 active torsions:
  status: ('A' for Active; 'I' for Inactive)
    1  A    between atoms: C_1  and  C_4
    2  A    between atoms: O_2  and  C_26
    3  A    between atoms: N_3  and  C_20
    4  A    between atoms: C_5  and  C_15
    5  A    between atoms: C_5  and  C_26
    6  A    between atoms: C_14  and  C_23
    7  A    between atoms: C_14  and  C_26
                            x       y       z     vdW  Elec       q    Type
                         _______ _______ _______ _____ _____    ______ ____

>  <TORSDO>
F 7

$$$$
