=
 OpenBabel11032421003D

 46 53  0  0  1  0  0  0  0  0999 V2000
  191.6000  176.8090  142.3910 C   0  0  0  0  0  3  0  0  0  0  0  0
  187.7180  178.0460  143.9240 C   0  0  0  0  0  3  0  0  0  0  0  0
  188.3480  178.1340  141.0810 O   0  0  0  0  0  1  0  0  0  0  0  0
  189.2930  177.6980  142.0060 C   0  0  0  0  0  0  0  0  0  0  0  0
  189.4930  177.0520  146.9990 C   0  0  0  0  0  0  0  0  0  0  0  0
  187.8540  177.8630  145.2990 C   0  0  0  0  0  0  0  0  0  0  0  0
  186.7800  178.0360  146.3350 C   0  0  1  0  0  3  0  0  0  0  0  0
  190.6960  176.6560  147.3180 C   0  0  0  0  0  0  0  0  0  0  0  0
  188.9340  177.6820  143.3650 C   0  0  0  0  0  0  0  0  0  0  0  0
  191.8380  176.2800  147.6210 O   0  0  0  0  0  0  0  0  0  0  0  0
  187.4090  178.2410  147.7260 C   0  0  0  0  0  2  0  0  0  0  0  0
  189.8010  177.2530  144.4330 C   0  0  0  0  0  0  0  0  0  0  0  0
  190.5750  177.2870  141.5440 C   0  0  0  0  0  0  0  0  0  0  0  0
  188.4290  177.1380  148.0580 C   0  0  0  0  0  2  0  0  0  0  0  0
  191.3470  176.7110  144.0690 S   0  0  0  0  0  0  0  0  0  0  0  0
  189.1060  177.3630  145.6120 C   0  0  0  0  0  0  0  0  0  0  0  0
  191.3190  175.6480  138.6690 C   0  0  0  0  0  0  0  0  0  0  0  0
  192.5800  176.3110  138.9410 C   0  0  0  0  0  0  0  0  0  0  0  0
  190.8540  177.3790  140.0710 C   0  0  1  0  0  3  0  0  0  0  0  0
  192.3330  177.3190  139.7700 C   0  0  0  0  0  3  0  0  0  0  0  0
  190.3050  176.2680  139.3690 O   0  0  0  0  0  0  0  0  0  0  0  0
  191.1470  174.6360  137.9320 O   0  0  0  0  0  0  0  0  0  0  0  0
  193.2740  176.3350  135.9780 C   0  0  0  0  0  3  0  0  0  0  0  0
  193.6510  173.5460  135.7830 C   0  0  0  0  0  2  0  0  0  0  0  0
  194.4860  174.7690  138.9950 N   0  0  0  0  0  0  0  0  0  0  0  0
  193.8860  175.6670  136.9620 C   0  0  0  0  0  0  0  0  0  0  0  0
  194.5410  173.7590  138.0540 O   0  0  0  0  0  0  0  0  0  0  0  0
  193.3560  174.3640  134.5940 N   0  0  0  0  0  0  0  0  0  0  0  0
  193.9450  175.9910  138.3840 C   0  0  1  0  0  3  0  0  0  0  0  0
  193.1420  175.6480  134.6760 C   0  0  0  0  0  3  0  0  0  0  0  0
  194.4960  174.3550  136.7750 C   0  0  1  0  0  3  0  0  0  0  0  0
  196.7800  173.9630  138.9460 C   0  0  0  0  0  1  0  0  0  0  0  0
  195.8470  175.0520  139.4370 C   0  0  0  0  0  2  0  0  0  0  0  0
  185.9510  179.1470  146.0040 O   0  0  0  0  0  0  0  0  0  0  0  0
  183.6500  178.6610  145.4830 C   0  0  0  0  0  3  0  0  0  0  0  0
  184.9180  179.0730  145.0640 C   0  0  0  0  0  0  0  0  0  0  0  0
  184.0680  179.3410  142.8040 C   0  0  0  0  0  3  0  0  0  0  0  0
  182.7930  178.9340  143.2220 C   0  0  0  0  0  0  0  0  0  0  0  0
  182.5930  178.5920  144.5680 C   0  0  0  0  0  3  0  0  0  0  0  0
  185.1240  179.4130  143.7180 C   0  0  0  0  0  3  0  0  0  0  0  0
  179.6490  176.9450  140.5080 C   0  0  0  0  0  1  0  0  0  0  0  0
  179.6550  179.3340  141.1920 C   0  0  0  0  0  2  0  0  0  0  0  0
  180.3970  178.2640  140.3990 C   0  0  1  0  0  3  0  0  0  0  0  0
  181.7660  178.1260  141.0400 C   0  0  0  0  0  2  0  0  0  0  0  0
  181.7050  178.8720  142.2830 N   0  0  0  0  0  0  0  0  0  0  0  0
  180.4440  179.5610  142.4700 C   0  0  0  0  0  2  0  0  0  0  0  0
  1 15  1  0  0  0  0
  2  6  2  0  0  0  0
  3  4  1  0  0  0  0
  4  9  2  0  0  0  0
  5  8  2  0  0  0  0
  5 14  1  0  0  0  0
  6 16  1  0  0  0  0
  6  7  1  0  0  0  0
  7 34  1  6  0  0  0
  7 11  1  0  0  0  0
  8 10  2  0  0  0  0
  9  2  1  0  0  0  0
  9 12  1  0  0  0  0
 11 14  1  0  0  0  0
 12 16  2  0  0  0  0
 13  4  1  0  0  0  0
 13  1  2  0  0  0  0
 15 12  1  0  0  0  0
 16  5  1  0  0  0  0
 17 18  1  0  0  0  0
 17 21  1  0  0  0  0
 18 20  2  0  0  0  0
 19 13  1  1  0  0  0
 20 19  1  0  0  0  0
 21 19  1  0  0  0  0
 22 17  2  0  0  0  0
 23 26  2  0  0  0  0
 25 33  1  0  0  0  0
 26 29  1  0  0  0  0
 27 25  1  0  0  0  0
 28 30  2  0  0  0  0
 28 24  1  0  0  0  0
 29 18  1  1  0  0  0
 29 25  1  0  0  0  0
 30 23  1  0  0  0  0
 31 24  1  6  0  0  0
 31 26  1  0  0  0  0
 31 27  1  0  0  0  0
 32 33  1  0  0  0  0
 36 35  1  0  0  0  0
 36 34  1  0  0  0  0
 37 38  2  0  0  0  0
 37 40  1  0  0  0  0
 38 39  1  0  0  0  0
 39 35  2  0  0  0  0
 40 36  2  0  0  0  0
 42 46  1  0  0  0  0
 43 41  1  1  0  0  0
 43 44  1  0  0  0  0
 43 42  1  0  0  0  0
 44 45  1  0  0  0  0
 45 46  1  0  0  0  0
 45 38  1  0  0  0  0
M  END
>  <MODEL>
1

>  <REMARK>
 VINA RESULT:     -10.8      0.000      0.000
  Name = 
  6 active torsions:
  status: ('A' for Active; 'I' for Inactive)
    1  A    between atoms: C_14  and  O_18
    2  A    between atoms: C_16  and  N_27
    3  A    between atoms: C_17  and  O_18
    4  A    between atoms: C_24  and  N_37
    5  A    between atoms: C_26  and  C_38
    6  A    between atoms: C_30  and  C_39
                            x       y       z     vdW  Elec       q    Type
                         _______ _______ _______ _____ _____    ______ ____

>  <TORSDO>
F 6

$$$$
=
 OpenBabel11032421003D

 46 53  0  0  1  0  0  0  0  0999 V2000
  191.5980  176.9370  142.0000 C   0  0  0  0  0  3  0  0  0  0  0  0
  187.7290  178.0710  143.6400 C   0  0  0  0  0  3  0  0  0  0  0  0
  188.2830  178.1950  140.7820 O   0  0  0  0  0  1  0  0  0  0  0  0
  189.2620  177.7740  141.6800 C   0  0  0  0  0  0  0  0  0  0  0  0
  189.6040  177.0990  146.6620 C   0  0  0  0  0  0  0  0  0  0  0  0
  187.9040  177.8820  145.0100 C   0  0  0  0  0  0  0  0  0  0  0  0
  186.8530  178.0220  146.0740 C   0  0  1  0  0  3  0  0  0  0  0  0
  190.8240  176.7280  146.9460 C   0  0  0  0  0  0  0  0  0  0  0  0
  188.9380  177.7410  143.0470 C   0  0  0  0  0  0  0  0  0  0  0  0
  191.9810  176.3780  147.2170 O   0  0  0  0  0  0  0  0  0  0  0  0
  187.5120  178.2320  147.4500 C   0  0  0  0  0  2  0  0  0  0  0  0
  189.8410  177.3250  144.0900 C   0  0  0  0  0  0  0  0  0  0  0  0
  190.5410  177.3980  141.1820 C   0  0  0  0  0  0  0  0  0  0  0  0
  188.5660  177.1520  147.7480 C   0  0  0  0  0  2  0  0  0  0  0  0
  191.3910  176.8220  143.6830 S   0  0  0  0  0  0  0  0  0  0  0  0
  189.1740  177.4100  145.2870 C   0  0  0  0  0  0  0  0  0  0  0  0
  189.5110  176.5840  138.0540 C   0  0  0  0  0  0  0  0  0  0  0  0
  190.6960  175.7570  138.1770 C   0  0  0  0  0  0  0  0  0  0  0  0
  190.7790  177.5060  139.7030 C   0  0  1  0  0  3  0  0  0  0  0  0
  191.4450  176.2710  139.1460 C   0  0  0  0  0  3  0  0  0  0  0  0
  189.5530  177.6010  138.9850 O   0  0  0  0  0  0  0  0  0  0  0  0
  188.5540  176.4100  137.2480 O   0  0  0  0  0  0  0  0  0  0  0  0
  193.5650  174.9370  137.5770 C   0  0  0  0  0  3  0  0  0  0  0  0
  193.4190  175.5050  134.8180 C   0  0  0  0  0  2  0  0  0  0  0  0
  190.2950  174.4830  136.1210 N   0  0  0  0  0  0  0  0  0  0  0  0
  192.4610  174.6380  136.8850 C   0  0  0  0  0  0  0  0  0  0  0  0
  191.1110  174.7180  135.0310 O   0  0  0  0  0  0  0  0  0  0  0  0
  194.7130  175.4460  135.5200 N   0  0  0  0  0  0  0  0  0  0  0  0
  191.0830  174.5500  137.3590 C   0  0  1  0  0  3  0  0  0  0  0  0
  194.7910  175.2220  136.8030 C   0  0  0  0  0  3  0  0  0  0  0  0
  192.4450  174.4930  135.4330 C   0  0  1  0  0  3  0  0  0  0  0  0
  188.4830  173.0140  136.8120 C   0  0  0  0  0  1  0  0  0  0  0  0
  189.7590  173.1300  136.0020 C   0  0  0  0  0  2  0  0  0  0  0  0
  185.9890  179.1160  145.7730 O   0  0  0  0  0  0  0  0  0  0  0  0
  183.6280  178.7780  145.4390 C   0  0  0  0  0  3  0  0  0  0  0  0
  184.8990  179.0080  144.9040 C   0  0  0  0  0  0  0  0  0  0  0  0
  183.9380  179.0360  142.6730 C   0  0  0  0  0  3  0  0  0  0  0  0
  182.6600  178.8120  143.2060 C   0  0  0  0  0  0  0  0  0  0  0  0
  182.5150  178.6820  144.5970 C   0  0  0  0  0  3  0  0  0  0  0  0
  185.0500  179.1350  143.5150 C   0  0  0  0  0  3  0  0  0  0  0  0
  179.8960  176.9660  140.0190 C   0  0  0  0  0  1  0  0  0  0  0  0
  179.2840  178.8210  141.5560 C   0  0  0  0  0  2  0  0  0  0  0  0
  180.1870  178.4090  140.3990 C   0  0  1  0  0  3  0  0  0  0  0  0
  181.6140  178.5220  140.9070 C   0  0  0  0  0  2  0  0  0  0  0  0
  181.5160  178.7210  142.3410 N   0  0  0  0  0  0  0  0  0  0  0  0
  180.1480  178.8380  142.8050 C   0  0  0  0  0  2  0  0  0  0  0  0
  1 15  1  0  0  0  0
  2  6  2  0  0  0  0
  3  4  1  0  0  0  0
  4  9  2  0  0  0  0
  5  8  2  0  0  0  0
  5 14  1  0  0  0  0
  6 16  1  0  0  0  0
  6  7  1  0  0  0  0
  7 34  1  6  0  0  0
  7 11  1  0  0  0  0
  8 10  2  0  0  0  0
  9  2  1  0  0  0  0
  9 12  1  0  0  0  0
 11 14  1  0  0  0  0
 12 16  2  0  0  0  0
 13  4  1  0  0  0  0
 13  1  2  0  0  0  0
 15 12  1  0  0  0  0
 16  5  1  0  0  0  0
 17 18  1  0  0  0  0
 17 21  1  0  0  0  0
 18 20  2  0  0  0  0
 19 13  1  1  0  0  0
 20 19  1  0  0  0  0
 21 19  1  0  0  0  0
 22 17  2  0  0  0  0
 24 28  1  0  0  0  0
 25 29  1  0  0  0  0
 26 29  1  0  0  0  0
 26 23  2  0  0  0  0
 27 31  1  0  0  0  0
 27 25  1  0  0  0  0
 28 30  2  0  0  0  0
 29 18  1  6  0  0  0
 30 23  1  0  0  0  0
 31 24  1  6  0  0  0
 31 26  1  0  0  0  0
 33 25  1  0  0  0  0
 33 32  1  0  0  0  0
 36 35  1  0  0  0  0
 36 34  1  0  0  0  0
 37 38  2  0  0  0  0
 37 40  1  0  0  0  0
 38 39  1  0  0  0  0
 39 35  2  0  0  0  0
 40 36  2  0  0  0  0
 42 46  1  0  0  0  0
 43 41  1  1  0  0  0
 43 44  1  0  0  0  0
 43 42  1  0  0  0  0
 44 45  1  0  0  0  0
 45 46  1  0  0  0  0
 45 38  1  0  0  0  0
M  END
>  <MODEL>
2

>  <REMARK>
 VINA RESULT:     -10.6      1.387      2.304
  Name = 
  6 active torsions:
  status: ('A' for Active; 'I' for Inactive)
    1  A    between atoms: C_14  and  O_18
    2  A    between atoms: C_16  and  N_27
    3  A    between atoms: C_17  and  O_18
    4  A    between atoms: C_24  and  N_37
    5  A    between atoms: C_26  and  C_38
    6  A    between atoms: C_30  and  C_39
                            x       y       z     vdW  Elec       q    Type
                         _______ _______ _______ _____ _____    ______ ____

>  <TORSDO>
F 6

$$$$
=
 OpenBabel11032421003D

 46 53  0  0  1  0  0  0  0  0999 V2000
  191.4720  176.9660  142.2530 C   0  0  0  0  0  3  0  0  0  0  0  0
  187.5910  178.0750  143.8800 C   0  0  0  0  0  3  0  0  0  0  0  0
  188.1460  178.1760  141.0210 O   0  0  0  0  0  1  0  0  0  0  0  0
  189.1280  177.7750  141.9230 C   0  0  0  0  0  0  0  0  0  0  0  0
  189.4750  177.1530  146.9120 C   0  0  0  0  0  0  0  0  0  0  0  0
  187.7670  177.9020  145.2520 C   0  0  0  0  0  0  0  0  0  0  0  0
  186.7140  178.0420  146.3140 C   0  0  1  0  0  3  0  0  0  0  0  0
  190.6980  176.7980  147.2010 C   0  0  0  0  0  0  0  0  0  0  0  0
  188.8040  177.7510  143.2910 C   0  0  0  0  0  0  0  0  0  0  0  0
  191.8590  176.4630  147.4760 O   0  0  0  0  0  0  0  0  0  0  0  0
  187.3710  178.2720  147.6880 C   0  0  0  0  0  2  0  0  0  0  0  0
  189.7110  177.3560  144.3380 C   0  0  0  0  0  0  0  0  0  0  0  0
  190.4110  177.4070  141.4300 C   0  0  0  0  0  0  0  0  0  0  0  0
  188.4350  177.2060  147.9970 C   0  0  0  0  0  2  0  0  0  0  0  0
  191.2660  176.8650  143.9370 S   0  0  0  0  0  0  0  0  0  0  0  0
  189.0420  177.4460  145.5340 C   0  0  0  0  0  0  0  0  0  0  0  0
  189.1310  178.1130  138.3690 C   0  0  0  0  0  0  0  0  0  0  0  0
  189.2560  176.6700  138.2880 C   0  0  0  0  0  0  0  0  0  0  0  0
  190.6500  177.5030  139.9500 C   0  0  1  0  0  3  0  0  0  0  0  0
  190.1300  176.2910  139.2140 C   0  0  0  0  0  3  0  0  0  0  0  0
  189.9360  178.5950  139.3800 O   0  0  0  0  0  0  0  0  0  0  0  0
  188.3840  178.8420  137.6580 O   0  0  0  0  0  0  0  0  0  0  0  0
  190.4950  174.0860  137.2640 C   0  0  0  0  0  3  0  0  0  0  0  0
  190.7850  174.9800  134.6050 C   0  0  0  0  0  2  0  0  0  0  0  0
  187.9950  176.4590  136.1960 N   0  0  0  0  0  0  0  0  0  0  0  0
  189.5370  174.8230  136.6930 C   0  0  0  0  0  0  0  0  0  0  0  0
  188.6880  176.1660  135.0370 O   0  0  0  0  0  0  0  0  0  0  0  0
  191.5950  173.8680  135.1300 N   0  0  0  0  0  0  0  0  0  0  0  0
  188.5800  175.7250  137.3260 C   0  0  1  0  0  3  0  0  0  0  0  0
  191.4970  173.4700  136.3690 C   0  0  0  0  0  3  0  0  0  0  0  0
  189.3930  174.9610  135.2470 C   0  0  1  0  0  3  0  0  0  0  0  0
  185.8480  177.0050  135.1920 C   0  0  0  0  0  1  0  0  0  0  0  0
  186.6180  176.0040  136.0290 C   0  0  0  0  0  2  0  0  0  0  0  0
  185.8400  179.1230  146.0010 O   0  0  0  0  0  0  0  0  0  0  0  0
  185.1460  179.1690  143.6950 C   0  0  0  0  0  3  0  0  0  0  0  0
  184.8220  179.0270  145.0470 C   0  0  0  0  0  0  0  0  0  0  0  0
  182.4960  178.6800  144.4370 C   0  0  0  0  0  3  0  0  0  0  0  0
  182.8190  178.8150  143.0780 C   0  0  0  0  0  0  0  0  0  0  0  0
  184.1520  179.0630  142.7160 C   0  0  0  0  0  3  0  0  0  0  0  0
  183.4890  178.7830  145.4150 C   0  0  0  0  0  3  0  0  0  0  0  0
  180.2680  176.7420  139.8540 C   0  0  0  0  0  1  0  0  0  0  0  0
  179.7280  178.9100  140.9430 C   0  0  0  0  0  2  0  0  0  0  0  0
  180.7090  178.1860  140.0270 C   0  0  1  0  0  3  0  0  0  0  0  0
  182.0570  178.2240  140.7250 C   0  0  0  0  0  2  0  0  0  0  0  0
  181.7980  178.6980  142.0720 N   0  0  0  0  0  0  0  0  0  0  0  0
  180.4120  179.0590  142.2900 C   0  0  0  0  0  2  0  0  0  0  0  0
  1 15  1  0  0  0  0
  2  6  2  0  0  0  0
  3  4  1  0  0  0  0
  4  9  2  0  0  0  0
  5  8  2  0  0  0  0
  5 14  1  0  0  0  0
  6 16  1  0  0  0  0
  6  7  1  0  0  0  0
  7 34  1  6  0  0  0
  7 11  1  0  0  0  0
  8 10  2  0  0  0  0
  9  2  1  0  0  0  0
  9 12  1  0  0  0  0
 11 14  1  0  0  0  0
 12 16  2  0  0  0  0
 13  4  1  0  0  0  0
 13  1  2  0  0  0  0
 15 12  1  0  0  0  0
 16  5  1  0  0  0  0
 17 21  1  0  0  0  0
 18 17  1  0  0  0  0
 18 20  2  0  0  0  0
 19 13  1  1  0  0  0
 20 19  1  0  0  0  0
 21 19  1  0  0  0  0
 22 17  2  0  0  0  0
 24 28  1  0  0  0  0
 25 29  1  0  0  0  0
 26 23  2  0  0  0  0
 26 29  1  0  0  0  0
 27 31  1  0  0  0  0
 27 25  1  0  0  0  0
 28 30  2  0  0  0  0
 29 18  1  1  0  0  0
 30 23  1  0  0  0  0
 31 24  1  6  0  0  0
 31 26  1  0  0  0  0
 32 33  1  0  0  0  0
 33 25  1  0  0  0  0
 35 36  1  0  0  0  0
 36 40  2  0  0  0  0
 36 34  1  0  0  0  0
 37 40  1  0  0  0  0
 38 37  2  0  0  0  0
 39 38  1  0  0  0  0
 39 35  2  0  0  0  0
 42 46  1  0  0  0  0
 43 41  1  1  0  0  0
 43 44  1  0  0  0  0
 43 42  1  0  0  0  0
 44 45  1  0  0  0  0
 45 46  1  0  0  0  0
 45 38  1  0  0  0  0
M  END
>  <MODEL>
3

>  <REMARK>
 VINA RESULT:     -10.3      2.250      3.447
  Name = 
  6 active torsions:
  status: ('A' for Active; 'I' for Inactive)
    1  A    between atoms: C_14  and  O_18
    2  A    between atoms: C_16  and  N_27
    3  A    between atoms: C_17  and  O_18
    4  A    between atoms: C_24  and  N_37
    5  A    between atoms: C_26  and  C_38
    6  A    between atoms: C_30  and  C_39
                            x       y       z     vdW  Elec       q    Type
                         _______ _______ _______ _____ _____    ______ ____

>  <TORSDO>
F 6

$$$$
=
 OpenBabel11032421003D

 46 53  0  0  1  0  0  0  0  0999 V2000
  191.0110  177.2260  140.8650 C   0  0  0  0  0  3  0  0  0  0  0  0
  187.1590  178.1520  142.6690 C   0  0  0  0  0  3  0  0  0  0  0  0
  187.6220  178.4300  139.8060 O   0  0  0  0  0  1  0  0  0  0  0  0
  188.6400  178.0000  140.6530 C   0  0  0  0  0  0  0  0  0  0  0  0
  189.1560  177.1000  145.5850 C   0  0  0  0  0  0  0  0  0  0  0  0
  187.3820  177.9040  144.0220 C   0  0  0  0  0  0  0  0  0  0  0  0
  186.3600  177.9580  145.1220 C   0  0  1  0  0  3  0  0  0  0  0  0
  190.3940  176.7570  145.8160 C   0  0  0  0  0  0  0  0  0  0  0  0
  188.3590  177.8900  142.0260 C   0  0  0  0  0  0  0  0  0  0  0  0
  191.5700  176.4320  146.0360 O   0  0  0  0  0  0  0  0  0  0  0  0
  187.0540  178.1240  146.4870 C   0  0  0  0  0  2  0  0  0  0  0  0
  189.3070  177.4550  143.0210 C   0  0  0  0  0  0  0  0  0  0  0  0
  189.9150  177.6900  140.1010 C   0  0  0  0  0  0  0  0  0  0  0  0
  188.1490  177.0660  146.7020 C   0  0  0  0  0  2  0  0  0  0  0  0
  190.8590  177.0240  142.5460 S   0  0  0  0  0  0  0  0  0  0  0  0
  188.6740  177.4610  144.2400 C   0  0  0  0  0  0  0  0  0  0  0  0
  188.4690  178.2110  137.0780 C   0  0  0  0  0  0  0  0  0  0  0  0
  188.8840  176.8270  136.9480 C   0  0  0  0  0  0  0  0  0  0  0  0
  190.1050  177.8760  138.6230 C   0  0  1  0  0  3  0  0  0  0  0  0
  189.8310  176.6060  137.8530 C   0  0  0  0  0  3  0  0  0  0  0  0
  189.1760  178.8170  138.0950 O   0  0  0  0  0  0  0  0  0  0  0  0
  187.5780  178.7940  136.3970 O   0  0  0  0  0  0  0  0  0  0  0  0
  185.9600  176.0970  136.5250 C   0  0  0  0  0  3  0  0  0  0  0  0
  186.1890  173.4990  137.5990 C   0  0  0  0  0  2  0  0  0  0  0  0
  189.1920  174.5610  136.0640 N   0  0  0  0  0  0  0  0  0  0  0  0
  187.0400  175.3540  136.2660 C   0  0  0  0  0  0  0  0  0  0  0  0
  188.4130  173.5420  136.5790 O   0  0  0  0  0  0  0  0  0  0  0  0
  184.8860  174.1840  137.5230 N   0  0  0  0  0  0  0  0  0  0  0  0
  188.3980  175.7930  135.9630 C   0  0  1  0  0  3  0  0  0  0  0  0
  184.7730  175.4000  137.0640 C   0  0  0  0  0  3  0  0  0  0  0  0
  187.0590  173.9010  136.4030 C   0  0  1  0  0  3  0  0  0  0  0  0
  191.1110  174.2940  134.5940 C   0  0  0  0  0  1  0  0  0  0  0  0
  189.6050  174.1800  134.7180 C   0  0  0  0  0  2  0  0  0  0  0  0
  185.4530  179.0360  144.8990 O   0  0  0  0  0  0  0  0  0  0  0  0
  183.0550  178.9700  144.6890 C   0  0  0  0  0  3  0  0  0  0  0  0
  184.3170  178.9200  144.0920 C   0  0  0  0  0  0  0  0  0  0  0  0
  183.2620  178.6680  141.9180 C   0  0  0  0  0  3  0  0  0  0  0  0
  181.9930  178.7240  142.5130 C   0  0  0  0  0  0  0  0  0  0  0  0
  181.9000  178.8740  143.9060 C   0  0  0  0  0  3  0  0  0  0  0  0
  184.4160  178.7670  142.7000 C   0  0  0  0  0  3  0  0  0  0  0  0
  179.2220  179.5950  138.9400 C   0  0  0  0  0  1  0  0  0  0  0  0
  178.9320  177.7410  140.5690 C   0  0  0  0  0  2  0  0  0  0  0  0
  178.9310  179.2550  140.3920 C   0  0  1  0  0  3  0  0  0  0  0  0
  180.0460  179.7900  141.2730 C   0  0  0  0  0  2  0  0  0  0  0  0
  180.8060  178.6330  141.7070 N   0  0  0  0  0  0  0  0  0  0  0  0
  180.2330  177.3790  141.2620 C   0  0  0  0  0  2  0  0  0  0  0  0
  1 15  1  0  0  0  0
  2  6  2  0  0  0  0
  3  4  1  0  0  0  0
  4  9  2  0  0  0  0
  5  8  2  0  0  0  0
  5 14  1  0  0  0  0
  6 16  1  0  0  0  0
  6  7  1  0  0  0  0
  7 34  1  6  0  0  0
  7 11  1  0  0  0  0
  8 10  2  0  0  0  0
  9  2  1  0  0  0  0
  9 12  1  0  0  0  0
 11 14  1  0  0  0  0
 12 16  2  0  0  0  0
 13  4  1  0  0  0  0
 13  1  2  0  0  0  0
 15 12  1  0  0  0  0
 16  5  1  0  0  0  0
 17 21  1  0  0  0  0
 18 17  1  0  0  0  0
 18 20  2  0  0  0  0
 19 13  1  1  0  0  0
 20 19  1  0  0  0  0
 21 19  1  0  0  0  0
 22 17  2  0  0  0  0
 23 30  1  0  0  0  0
 25 27  1  0  0  0  0
 26 31  1  0  0  0  0
 26 23  2  0  0  0  0
 28 24  1  0  0  0  0
 29 25  1  0  0  0  0
 29 26  1  0  0  0  0
 29 18  1  1  0  0  0
 30 28  2  0  0  0  0
 31 27  1  0  0  0  0
 31 24  1  1  0  0  0
 32 33  1  0  0  0  0
 33 25  1  0  0  0  0
 36 35  1  0  0  0  0
 36 34  1  0  0  0  0
 37 38  2  0  0  0  0
 37 40  1  0  0  0  0
 38 39  1  0  0  0  0
 39 35  2  0  0  0  0
 40 36  2  0  0  0  0
 42 46  1  0  0  0  0
 43 41  1  6  0  0  0
 43 42  1  0  0  0  0
 43 44  1  0  0  0  0
 44 45  1  0  0  0  0
 45 38  1  0  0  0  0
 46 45  1  0  0  0  0
M  END
>  <MODEL>
4

>  <REMARK>
 VINA RESULT:     -10.1      2.848      4.074
  Name = 
  6 active torsions:
  status: ('A' for Active; 'I' for Inactive)
    1  A    between atoms: C_14  and  O_18
    2  A    between atoms: C_16  and  N_27
    3  A    between atoms: C_17  and  O_18
    4  A    between atoms: C_24  and  N_37
    5  A    between atoms: C_26  and  C_38
    6  A    between atoms: C_30  and  C_39
                            x       y       z     vdW  Elec       q    Type
                         _______ _______ _______ _____ _____    ______ ____

>  <TORSDO>
F 6

$$$$
=
 OpenBabel11032421003D

 46 53  0  0  1  0  0  0  0  0999 V2000
  184.2060  178.7780  142.1300 C   0  0  0  0  0  3  0  0  0  0  0  0
  188.3290  178.0250  143.3050 C   0  0  0  0  0  3  0  0  0  0  0  0
  187.5610  178.3590  140.5140 O   0  0  0  0  0  1  0  0  0  0  0  0
  186.6080  178.4270  141.5270 C   0  0  0  0  0  0  0  0  0  0  0  0
  186.5850  178.0670  146.5530 C   0  0  0  0  0  0  0  0  0  0  0  0
  188.2420  177.9160  144.6920 C   0  0  0  0  0  0  0  0  0  0  0  0
  189.3880  177.7550  145.6500 C   0  0  1  0  0  3  0  0  0  0  0  0
  185.3510  178.1630  146.9690 C   0  0  0  0  0  0  0  0  0  0  0  0
  187.0370  178.2530  142.8540 C   0  0  0  0  0  0  0  0  0  0  0  0
  184.1800  178.2530  147.3650 O   0  0  0  0  0  0  0  0  0  0  0  0
  188.8870  177.1760  146.9860 C   0  0  0  0  0  2  0  0  0  0  0  0
  186.1710  178.3010  144.0050 C   0  0  0  0  0  0  0  0  0  0  0  0
  185.2490  178.6690  141.1830 C   0  0  0  0  0  0  0  0  0  0  0  0
  187.7070  177.9840  147.5510 C   0  0  0  0  0  2  0  0  0  0  0  0
  184.5330  178.6020  143.7890 S   0  0  0  0  0  0  0  0  0  0  0  0
  186.9410  178.1030  145.1240 C   0  0  0  0  0  0  0  0  0  0  0  0
  183.2210  180.0560  138.8430 C   0  0  0  0  0  0  0  0  0  0  0  0
  182.7760  178.6750  138.8090 C   0  0  0  0  0  0  0  0  0  0  0  0
  184.9060  178.8070  139.7270 C   0  0  1  0  0  3  0  0  0  0  0  0
  183.7410  177.9290  139.3340 C   0  0  0  0  0  3  0  0  0  0  0  0
  184.4730  180.1280  139.4190 O   0  0  0  0  0  0  0  0  0  0  0  0
  182.5730  181.0630  138.4420 O   0  0  0  0  0  0  0  0  0  0  0  0
  180.1400  178.6160  140.3280 C   0  0  0  0  0  3  0  0  0  0  0  0
  180.0580  175.8090  140.5860 C   0  0  0  0  0  2  0  0  0  0  0  0
  181.7080  176.8140  137.6240 N   0  0  0  0  0  0  0  0  0  0  0  0
  180.5230  177.8350  139.3130 C   0  0  0  0  0  0  0  0  0  0  0  0
  181.0960  175.8240  138.3690 O   0  0  0  0  0  0  0  0  0  0  0  0
  179.2940  176.6830  141.4930 N   0  0  0  0  0  0  0  0  0  0  0  0
  181.4870  178.1210  138.2550 C   0  0  1  0  0  3  0  0  0  0  0  0
  179.3540  177.9840  141.4080 C   0  0  0  0  0  3  0  0  0  0  0  0
  180.1240  176.4370  139.1890 C   0  0  1  0  0  3  0  0  0  0  0  0
  181.8350  177.7970  135.4030 C   0  0  0  0  0  1  0  0  0  0  0  0
  181.0830  176.8390  136.3050 C   0  0  0  0  0  2  0  0  0  0  0  0
  190.3830  176.9020  145.0890 O   0  0  0  0  0  0  0  0  0  0  0  0
  189.9590  175.9750  142.9070 C   0  0  0  0  0  3  0  0  0  0  0  0
  190.6690  176.8630  143.7200 C   0  0  0  0  0  0  0  0  0  0  0  0
  191.8930  177.6440  141.7740 C   0  0  0  0  0  3  0  0  0  0  0  0
  191.1790  176.7600  140.9520 C   0  0  0  0  0  0  0  0  0  0  0  0
  190.2110  175.9240  141.5310 C   0  0  0  0  0  3  0  0  0  0  0  0
  191.6400  177.6980  143.1470 C   0  0  0  0  0  3  0  0  0  0  0  0
  193.0400  175.2210  137.0320 C   0  0  0  0  0  1  0  0  0  0  0  0
  191.0900  176.7520  137.1960 C   0  0  0  0  0  2  0  0  0  0  0  0
  192.5830  176.6040  137.4650 C   0  0  1  0  0  3  0  0  0  0  0  0
  192.7650  176.7520  138.9650 C   0  0  0  0  0  2  0  0  0  0  0  0
  191.4330  176.7130  139.5380 N   0  0  0  0  0  0  0  0  0  0  0  0
  190.3870  176.6420  138.5370 C   0  0  0  0  0  2  0  0  0  0  0  0
  1 15  1  0  0  0  0
  2  6  2  0  0  0  0
  3  4  1  0  0  0  0
  4  9  2  0  0  0  0
  5  8  2  0  0  0  0
  5 14  1  0  0  0  0
  6 16  1  0  0  0  0
  6  7  1  0  0  0  0
  7 34  1  6  0  0  0
  7 11  1  0  0  0  0
  8 10  2  0  0  0  0
  9  2  1  0  0  0  0
  9 12  1  0  0  0  0
 11 14  1  0  0  0  0
 12 16  2  0  0  0  0
 13  4  1  0  0  0  0
 13  1  2  0  0  0  0
 15 12  1  0  0  0  0
 16  5  1  0  0  0  0
 17 21  1  0  0  0  0
 18 17  1  0  0  0  0
 18 20  2  0  0  0  0
 19 13  1  1  0  0  0
 20 19  1  0  0  0  0
 21 19  1  0  0  0  0
 22 17  2  0  0  0  0
 23 30  1  0  0  0  0
 24 28  1  0  0  0  0
 25 29  1  0  0  0  0
 25 27  1  0  0  0  0
 26 23  2  0  0  0  0
 27 31  1  0  0  0  0
 29 18  1  1  0  0  0
 29 26  1  0  0  0  0
 30 28  2  0  0  0  0
 31 26  1  0  0  0  0
 31 24  1  1  0  0  0
 32 33  1  0  0  0  0
 33 25  1  0  0  0  0
 35 36  1  0  0  0  0
 36 34  1  0  0  0  0
 37 40  1  0  0  0  0
 38 39  1  0  0  0  0
 38 37  2  0  0  0  0
 39 35  2  0  0  0  0
 40 36  2  0  0  0  0
 42 43  1  0  0  0  0
 42 46  1  0  0  0  0
 43 41  1  1  0  0  0
 43 44  1  0  0  0  0
 44 45  1  0  0  0  0
 45 38  1  0  0  0  0
 46 45  1  0  0  0  0
M  END
>  <MODEL>
5

>  <REMARK>
 VINA RESULT:      -9.6      2.901      9.672
  Name = 
  6 active torsions:
  status: ('A' for Active; 'I' for Inactive)
    1  A    between atoms: C_14  and  O_18
    2  A    between atoms: C_16  and  N_27
    3  A    between atoms: C_17  and  O_18
    4  A    between atoms: C_24  and  N_37
    5  A    between atoms: C_26  and  C_38
    6  A    between atoms: C_30  and  C_39
                            x       y       z     vdW  Elec       q    Type
                         _______ _______ _______ _____ _____    ______ ____

>  <TORSDO>
F 6

$$$$
=
 OpenBabel11032421003D

 46 53  0  0  1  0  0  0  0  0999 V2000
  186.2280  178.4570  138.9760 C   0  0  0  0  0  3  0  0  0  0  0  0
  185.5150  178.8620  143.2510 C   0  0  0  0  0  3  0  0  0  0  0  0
  188.2050  178.6300  142.1560 O   0  0  0  0  0  1  0  0  0  0  0  0
  187.0920  178.6060  141.3200 C   0  0  0  0  0  0  0  0  0  0  0  0
  182.0940  178.9250  141.8780 C   0  0  0  0  0  0  0  0  0  0  0  0
  184.1250  178.9220  143.3300 C   0  0  0  0  0  0  0  0  0  0  0  0
  183.3090  179.1650  144.5680 C   0  0  1  0  0  3  0  0  0  0  0  0
  181.5360  178.7810  140.7060 C   0  0  0  0  0  0  0  0  0  0  0  0
  185.8190  178.7170  141.9060 C   0  0  0  0  0  0  0  0  0  0  0  0
  181.0060  178.6450  139.5940 O   0  0  0  0  0  0  0  0  0  0  0  0
  181.8660  178.6690  144.3610 C   0  0  0  0  0  2  0  0  0  0  0  0
  184.5790  178.7120  141.1720 C   0  0  0  0  0  0  0  0  0  0  0  0
  187.2840  178.4720  139.9160 C   0  0  0  0  0  0  0  0  0  0  0  0
  181.2440  179.2430  143.0770 C   0  0  0  0  0  2  0  0  0  0  0  0
  184.6150  178.5860  139.4980 S   0  0  0  0  0  0  0  0  0  0  0  0
  183.5520  178.8530  142.0730 C   0  0  0  0  0  0  0  0  0  0  0  0
  189.3200  177.8140  137.2840 C   0  0  0  0  0  0  0  0  0  0  0  0
  189.4890  176.6070  138.0710 C   0  0  0  0  0  0  0  0  0  0  0  0
  188.6900  178.3300  139.4090 C   0  0  1  0  0  3  0  0  0  0  0  0
  189.1130  176.8830  139.3140 C   0  0  0  0  0  3  0  0  0  0  0  0
  188.8150  178.8220  138.0790 O   0  0  0  0  0  0  0  0  0  0  0  0
  189.5610  177.9460  136.0510 O   0  0  0  0  0  0  0  0  0  0  0  0
  192.4430  175.9870  137.6830 C   0  0  0  0  0  3  0  0  0  0  0  0
  192.2800  175.7170  134.8800 C   0  0  0  0  0  2  0  0  0  0  0  0
  189.2730  174.7580  136.4750 N   0  0  0  0  0  0  0  0  0  0  0  0
  191.3930  175.3760  137.1250 C   0  0  0  0  0  0  0  0  0  0  0  0
  190.0750  174.7640  135.3490 O   0  0  0  0  0  0  0  0  0  0  0  0
  193.5600  176.0120  135.5470 N   0  0  0  0  0  0  0  0  0  0  0  0
  190.0270  175.2690  137.6270 C   0  0  1  0  0  3  0  0  0  0  0  0
  193.6410  176.1770  136.8390 C   0  0  0  0  0  3  0  0  0  0  0  0
  191.4190  174.8190  135.7760 C   0  0  1  0  0  3  0  0  0  0  0  0
  187.3900  173.2630  136.8430 C   0  0  0  0  0  1  0  0  0  0  0  0
  188.8980  173.3770  136.7580 C   0  0  0  0  0  2  0  0  0  0  0  0
  183.8990  178.5050  145.6850 O   0  0  0  0  0  0  0  0  0  0  0  0
  186.0880  178.9680  146.5770 C   0  0  0  0  0  3  0  0  0  0  0  0
  185.2610  178.1970  145.7550 C   0  0  0  0  0  0  0  0  0  0  0  0
  187.1750  176.8370  145.1310 C   0  0  0  0  0  3  0  0  0  0  0  0
  188.0070  177.6040  145.9600 C   0  0  0  0  0  0  0  0  0  0  0  0
  187.4520  178.6740  146.6800 C   0  0  0  0  0  3  0  0  0  0  0  0
  185.8120  177.1280  145.0300 C   0  0  0  0  0  3  0  0  0  0  0  0
  191.7370  175.2860  147.3440 C   0  0  0  0  0  1  0  0  0  0  0  0
  191.6800  176.9570  145.5040 C   0  0  0  0  0  2  0  0  0  0  0  0
  191.5190  176.7520  147.0060 C   0  0  1  0  0  3  0  0  0  0  0  0
  190.0910  177.1430  147.3420 C   0  0  0  0  0  2  0  0  0  0  0  0
  189.4070  177.2970  146.0720 N   0  0  0  0  0  0  0  0  0  0  0  0
  190.2850  177.1290  144.9310 C   0  0  0  0  0  2  0  0  0  0  0  0
  1 15  1  0  0  0  0
  1 13  2  0  0  0  0
  2  6  2  0  0  0  0
  4  9  2  0  0  0  0
  4  3  1  0  0  0  0
  5 16  1  0  0  0  0
  5 14  1  0  0  0  0
  6  7  1  0  0  0  0
  7 34  1  1  0  0  0
  8  5  2  0  0  0  0
  9  2  1  0  0  0  0
 10  8  2  0  0  0  0
 11  7  1  0  0  0  0
 12  9  1  0  0  0  0
 12 16  2  0  0  0  0
 13  4  1  0  0  0  0
 14 11  1  0  0  0  0
 15 12  1  0  0  0  0
 16  6  1  0  0  0  0
 17 18  1  0  0  0  0
 17 21  1  0  0  0  0
 18 20  2  0  0  0  0
 19 13  1  6  0  0  0
 20 19  1  0  0  0  0
 21 19  1  0  0  0  0
 22 17  2  0  0  0  0
 24 28  1  0  0  0  0
 25 33  1  0  0  0  0
 25 29  1  0  0  0  0
 26 29  1  0  0  0  0
 26 23  2  0  0  0  0
 27 31  1  0  0  0  0
 27 25  1  0  0  0  0
 28 30  2  0  0  0  0
 29 18  1  6  0  0  0
 30 23  1  0  0  0  0
 31 24  1  6  0  0  0
 31 26  1  0  0  0  0
 33 32  1  0  0  0  0
 34 36  1  0  0  0  0
 35 39  1  0  0  0  0
 36 35  2  0  0  0  0
 37 38  1  0  0  0  0
 38 45  1  0  0  0  0
 38 39  2  0  0  0  0
 40 37  2  0  0  0  0
 40 36  1  0  0  0  0
 42 43  1  0  0  0  0
 43 44  1  0  0  0  0
 43 41  1  6  0  0  0
 45 44  1  0  0  0  0
 46 42  1  0  0  0  0
 46 45  1  0  0  0  0
M  END
>  <MODEL>
6

>  <REMARK>
 VINA RESULT:      -9.6      2.979      6.708
  Name = 
  6 active torsions:
  status: ('A' for Active; 'I' for Inactive)
    1  A    between atoms: C_14  and  O_18
    2  A    between atoms: C_16  and  N_27
    3  A    between atoms: C_17  and  O_18
    4  A    between atoms: C_24  and  N_37
    5  A    between atoms: C_26  and  C_38
    6  A    between atoms: C_30  and  C_39
                            x       y       z     vdW  Elec       q    Type
                         _______ _______ _______ _____ _____    ______ ____

>  <TORSDO>
F 6

$$$$
=
 OpenBabel11032421003D

 46 53  0  0  1  0  0  0  0  0999 V2000
  191.3420  176.6400  140.1830 C   0  0  0  0  0  3  0  0  0  0  0  0
  187.5590  177.9060  141.9260 C   0  0  0  0  0  3  0  0  0  0  0  0
  187.9970  177.8930  139.0460 O   0  0  0  0  0  1  0  0  0  0  0  0
  189.0060  177.4980  139.9210 C   0  0  0  0  0  0  0  0  0  0  0  0
  189.5450  177.0410  144.9100 C   0  0  0  0  0  0  0  0  0  0  0  0
  187.7890  177.7750  143.2950 C   0  0  0  0  0  0  0  0  0  0  0  0
  186.7850  177.9790  144.3940 C   0  0  1  0  0  3  0  0  0  0  0  0
  190.7710  176.6650  145.1610 C   0  0  0  0  0  0  0  0  0  0  0  0
  188.7380  177.5300  141.3000 C   0  0  0  0  0  0  0  0  0  0  0  0
  191.9330  176.3090  145.4000 O   0  0  0  0  0  0  0  0  0  0  0  0
  187.5030  178.2400  145.7310 C   0  0  0  0  0  2  0  0  0  0  0  0
  189.6790  177.1480  142.3230 C   0  0  0  0  0  0  0  0  0  0  0  0
  190.2580  177.0800  139.3890 C   0  0  0  0  0  0  0  0  0  0  0  0
  188.5530  177.1580  146.0340 C   0  0  0  0  0  2  0  0  0  0  0  0
  191.2030  176.6030  141.8770 S   0  0  0  0  0  0  0  0  0  0  0  0
  189.0630  177.2960  143.5420 C   0  0  0  0  0  0  0  0  0  0  0  0
  190.7300  175.3300  136.5220 C   0  0  0  0  0  0  0  0  0  0  0  0
  192.0340  175.9450  136.6860 C   0  0  0  0  0  0  0  0  0  0  0  0
  190.4370  177.1180  137.8980 C   0  0  1  0  0  3  0  0  0  0  0  0
  191.8870  176.9850  137.4990 C   0  0  0  0  0  3  0  0  0  0  0  0
  189.7950  176.0130  137.2700 O   0  0  0  0  0  0  0  0  0  0  0  0
  190.4650  174.3070  135.8300 O   0  0  0  0  0  0  0  0  0  0  0  0
  193.4510  173.2950  137.1700 C   0  0  0  0  0  3  0  0  0  0  0  0
  195.6310  174.4230  138.5600 C   0  0  0  0  0  2  0  0  0  0  0  0
  194.3200  176.6420  136.1380 N   0  0  0  0  0  0  0  0  0  0  0  0
  193.9830  174.4520  136.7630 C   0  0  0  0  0  0  0  0  0  0  0  0
  195.3400  176.2870  137.0000 O   0  0  0  0  0  0  0  0  0  0  0  0
  195.2760  173.0020  138.7170 N   0  0  0  0  0  0  0  0  0  0  0  0
  193.3420  175.5490  136.0470 C   0  0  1  0  0  3  0  0  0  0  0  0
  194.2470  172.4780  138.1090 C   0  0  0  0  0  3  0  0  0  0  0  0
  195.3300  174.8810  137.1280 C   0  0  1  0  0  3  0  0  0  0  0  0
  195.8090  178.0520  134.8300 C   0  0  0  0  0  1  0  0  0  0  0  0
  194.8960  176.8420  134.8120 C   0  0  0  0  0  2  0  0  0  0  0  0
  185.9240  179.0710  144.0790 O   0  0  0  0  0  0  0  0  0  0  0  0
  183.5180  179.0100  144.1550 C   0  0  0  0  0  3  0  0  0  0  0  0
  184.7020  178.9110  143.4190 C   0  0  0  0  0  0  0  0  0  0  0  0
  183.4000  178.5250  141.4050 C   0  0  0  0  0  3  0  0  0  0  0  0
  182.2090  178.6300  142.1390 C   0  0  0  0  0  0  0  0  0  0  0  0
  182.2790  178.8710  143.5200 C   0  0  0  0  0  3  0  0  0  0  0  0
  184.6370  178.6660  142.0380 C   0  0  0  0  0  3  0  0  0  0  0  0
  179.0580  179.2380  138.8360 C   0  0  0  0  0  1  0  0  0  0  0  0
  178.9310  177.5480  140.6540 C   0  0  0  0  0  2  0  0  0  0  0  0
  178.9310  179.0390  140.3380 C   0  0  1  0  0  3  0  0  0  0  0  0
  180.1470  179.6250  141.0320 C   0  0  0  0  0  2  0  0  0  0  0  0
  180.9360  178.4940  141.4840 N   0  0  0  0  0  0  0  0  0  0  0  0
  180.2980  177.2190  141.2260 C   0  0  0  0  0  2  0  0  0  0  0  0
  1 15  1  0  0  0  0
  2  6  2  0  0  0  0
  3  4  1  0  0  0  0
  4  9  2  0  0  0  0
  5  8  2  0  0  0  0
  5 14  1  0  0  0  0
  6 16  1  0  0  0  0
  6  7  1  0  0  0  0
  7 34  1  6  0  0  0
  7 11  1  0  0  0  0
  8 10  2  0  0  0  0
  9  2  1  0  0  0  0
  9 12  1  0  0  0  0
 11 14  1  0  0  0  0
 12 16  2  0  0  0  0
 13  4  1  0  0  0  0
 13  1  2  0  0  0  0
 15 12  1  0  0  0  0
 16  5  1  0  0  0  0
 17 18  1  0  0  0  0
 17 21  1  0  0  0  0
 18 20  2  0  0  0  0
 19 13  1  1  0  0  0
 20 19  1  0  0  0  0
 21 19  1  0  0  0  0
 22 17  2  0  0  0  0
 23 30  1  0  0  0  0
 24 28  1  0  0  0  0
 25 27  1  0  0  0  0
 26 31  1  0  0  0  0
 26 23  2  0  0  0  0
 27 31  1  0  0  0  0
 29 25  1  0  0  0  0
 29 18  1  1  0  0  0
 29 26  1  0  0  0  0
 30 28  2  0  0  0  0
 31 24  1  1  0  0  0
 33 32  1  0  0  0  0
 33 25  1  0  0  0  0
 36 34  1  0  0  0  0
 36 35  2  0  0  0  0
 37 40  2  0  0  0  0
 37 38  1  0  0  0  0
 38 39  2  0  0  0  0
 39 35  1  0  0  0  0
 40 36  1  0  0  0  0
 42 46  1  0  0  0  0
 43 41  1  6  0  0  0
 43 42  1  0  0  0  0
 43 44  1  0  0  0  0
 44 45  1  0  0  0  0
 45 38  1  0  0  0  0
 46 45  1  0  0  0  0
M  END
>  <MODEL>
7

>  <REMARK>
 VINA RESULT:      -9.6      1.611      2.574
  Name = 
  6 active torsions:
  status: ('A' for Active; 'I' for Inactive)
    1  A    between atoms: C_14  and  O_18
    2  A    between atoms: C_16  and  N_27
    3  A    between atoms: C_17  and  O_18
    4  A    between atoms: C_24  and  N_37
    5  A    between atoms: C_26  and  C_38
    6  A    between atoms: C_30  and  C_39
                            x       y       z     vdW  Elec       q    Type
                         _______ _______ _______ _____ _____    ______ ____

>  <TORSDO>
F 6

$$$$
=
 OpenBabel11032421003D

 46 53  0  0  1  0  0  0  0  0999 V2000
  186.2200  178.2560  138.9590 C   0  0  0  0  0  3  0  0  0  0  0  0
  185.5180  178.8080  143.2190 C   0  0  0  0  0  3  0  0  0  0  0  0
  188.2050  178.5350  142.1270 O   0  0  0  0  0  1  0  0  0  0  0  0
  187.0890  178.4840  141.2940 C   0  0  0  0  0  0  0  0  0  0  0  0
  182.0930  178.8290  141.8520 C   0  0  0  0  0  0  0  0  0  0  0  0
  184.1270  178.8720  143.2990 C   0  0  0  0  0  0  0  0  0  0  0  0
  183.3150  179.1590  144.5300 C   0  0  1  0  0  3  0  0  0  0  0  0
  181.5330  178.6470  140.6870 C   0  0  0  0  0  0  0  0  0  0  0  0
  185.8180  178.6160  141.8790 C   0  0  0  0  0  0  0  0  0  0  0  0
  181.0000  178.4730  139.5810 O   0  0  0  0  0  0  0  0  0  0  0  0
  181.8700  178.6580  144.3430 C   0  0  0  0  0  2  0  0  0  0  0  0
  184.5760  178.5890  141.1480 C   0  0  0  0  0  0  0  0  0  0  0  0
  187.2780  178.3020  139.8950 C   0  0  0  0  0  0  0  0  0  0  0  0
  181.2460  179.1890  143.0420 C   0  0  0  0  0  2  0  0  0  0  0  0
  184.6090  178.4060  139.4790 S   0  0  0  0  0  0  0  0  0  0  0  0
  183.5520  178.7610  142.0460 C   0  0  0  0  0  0  0  0  0  0  0  0
  189.3640  178.2370  137.2210 C   0  0  0  0  0  0  0  0  0  0  0  0
  189.3420  176.8330  137.5870 C   0  0  0  0  0  0  0  0  0  0  0  0
  188.6830  178.1410  139.3910 C   0  0  1  0  0  3  0  0  0  0  0  0
  188.9330  176.7530  138.8480 C   0  0  0  0  0  3  0  0  0  0  0  0
  188.9410  179.0030  138.2880 O   0  0  0  0  0  0  0  0  0  0  0  0
  189.6880  178.7150  136.0980 O   0  0  0  0  0  0  0  0  0  0  0  0
  187.6150  175.6270  135.3910 C   0  0  0  0  0  3  0  0  0  0  0  0
  187.1040  173.2170  136.7650 C   0  0  0  0  0  2  0  0  0  0  0  0
  190.2670  174.5630  137.5930 N   0  0  0  0  0  0  0  0  0  0  0  0
  188.5840  175.0340  136.0950 C   0  0  0  0  0  0  0  0  0  0  0  0
  189.3900  173.4950  137.5940 O   0  0  0  0  0  0  0  0  0  0  0  0
  186.2190  173.6840  135.6840 N   0  0  0  0  0  0  0  0  0  0  0  0
  189.7380  175.6420  136.7490 C   0  0  1  0  0  3  0  0  0  0  0  0
  186.4220  174.8160  135.0670 C   0  0  0  0  0  3  0  0  0  0  0  0
  188.5520  173.6230  136.4650 C   0  0  1  0  0  3  0  0  0  0  0  0
  192.6740  174.9160  137.5930 C   0  0  0  0  0  1  0  0  0  0  0  0
  191.5280  174.1140  137.0110 C   0  0  0  0  0  2  0  0  0  0  0  0
  183.9060  178.5360  145.6670 O   0  0  0  0  0  0  0  0  0  0  0  0
  186.0980  179.0030  146.5480 C   0  0  0  0  0  3  0  0  0  0  0  0
  185.2660  178.2210  145.7420 C   0  0  0  0  0  0  0  0  0  0  0  0
  187.1720  176.8390  145.1410 C   0  0  0  0  0  3  0  0  0  0  0  0
  188.0090  177.6170  145.9550 C   0  0  0  0  0  0  0  0  0  0  0  0
  187.4610  178.7030  146.6560 C   0  0  0  0  0  3  0  0  0  0  0  0
  185.8100  177.1370  145.0360 C   0  0  0  0  0  3  0  0  0  0  0  0
  191.7260  175.2870  147.3550 C   0  0  0  0  0  1  0  0  0  0  0  0
  191.6810  176.9510  145.5100 C   0  0  0  0  0  2  0  0  0  0  0  0
  191.5150  176.7530  147.0130 C   0  0  1  0  0  3  0  0  0  0  0  0
  190.0880  177.1510  147.3440 C   0  0  0  0  0  2  0  0  0  0  0  0
  189.4070  177.3040  146.0710 N   0  0  0  0  0  0  0  0  0  0  0  0
  190.2870  177.1280  144.9330 C   0  0  0  0  0  2  0  0  0  0  0  0
  1 15  1  0  0  0  0
  1 13  2  0  0  0  0
  2  6  2  0  0  0  0
  4  9  2  0  0  0  0
  4  3  1  0  0  0  0
  5 16  1  0  0  0  0
  5 14  1  0  0  0  0
  6  7  1  0  0  0  0
  7 34  1  1  0  0  0
  8  5  2  0  0  0  0
  9  2  1  0  0  0  0
 10  8  2  0  0  0  0
 11  7  1  0  0  0  0
 12  9  1  0  0  0  0
 12 16  2  0  0  0  0
 13  4  1  0  0  0  0
 14 11  1  0  0  0  0
 15 12  1  0  0  0  0
 16  6  1  0  0  0  0
 17 18  1  0  0  0  0
 17 21  1  0  0  0  0
 18 20  2  0  0  0  0
 19 13  1  6  0  0  0
 20 19  1  0  0  0  0
 21 19  1  0  0  0  0
 22 17  2  0  0  0  0
 23 26  2  0  0  0  0
 25 27  1  0  0  0  0
 26 31  1  0  0  0  0
 26 29  1  0  0  0  0
 28 24  1  0  0  0  0
 29 18  1  1  0  0  0
 29 25  1  0  0  0  0
 30 23  1  0  0  0  0
 30 28  2  0  0  0  0
 31 24  1  1  0  0  0
 31 27  1  0  0  0  0
 33 25  1  0  0  0  0
 33 32  1  0  0  0  0
 34 36  1  0  0  0  0
 35 39  1  0  0  0  0
 36 35  2  0  0  0  0
 37 38  1  0  0  0  0
 38 45  1  0  0  0  0
 38 39  2  0  0  0  0
 40 37  2  0  0  0  0
 40 36  1  0  0  0  0
 42 43  1  0  0  0  0
 43 44  1  0  0  0  0
 43 41  1  6  0  0  0
 45 44  1  0  0  0  0
 46 42  1  0  0  0  0
 46 45  1  0  0  0  0
M  END
>  <MODEL>
8

>  <REMARK>
 VINA RESULT:      -9.5      3.424      6.860
  Name = 
  6 active torsions:
  status: ('A' for Active; 'I' for Inactive)
    1  A    between atoms: C_14  and  O_18
    2  A    between atoms: C_16  and  N_27
    3  A    between atoms: C_17  and  O_18
    4  A    between atoms: C_24  and  N_37
    5  A    between atoms: C_26  and  C_38
    6  A    between atoms: C_30  and  C_39
                            x       y       z     vdW  Elec       q    Type
                         _______ _______ _______ _____ _____    ______ ____

>  <TORSDO>
F 6

$$$$
=
 OpenBabel11032421003D

 46 53  0  0  1  0  0  0  0  0999 V2000
  184.2210  178.6810  145.0080 C   0  0  0  0  0  3  0  0  0  0  0  0
  187.1020  178.2700  141.7720 C   0  0  0  0  0  3  0  0  0  0  0  0
  184.3920  179.2330  141.3050 O   0  0  0  0  0  1  0  0  0  0  0  0
  184.8100  178.8770  142.5840 C   0  0  0  0  0  0  0  0  0  0  0  0
  189.0490  177.1580  144.6980 C   0  0  0  0  0  0  0  0  0  0  0  0
  188.2310  177.7740  142.4220 C   0  0  0  0  0  0  0  0  0  0  0  0
  189.5820  177.5330  141.8100 C   0  0  1  0  0  3  0  0  0  0  0  0
  188.8240  176.9490  145.9680 C   0  0  0  0  0  0  0  0  0  0  0  0
  186.1270  178.4140  142.7470 C   0  0  0  0  0  0  0  0  0  0  0  0
  188.6100  176.7490  147.1720 O   0  0  0  0  0  0  0  0  0  0  0  0
  190.3880  176.5430  142.6710 C   0  0  0  0  0  2  0  0  0  0  0  0
  186.7020  178.0140  144.0070 C   0  0  0  0  0  0  0  0  0  0  0  0
  183.8960  178.9950  143.6690 C   0  0  0  0  0  0  0  0  0  0  0  0
  190.4360  176.9770  144.1450 C   0  0  0  0  0  2  0  0  0  0  0  0
  185.7730  178.1110  145.4020 S   0  0  0  0  0  0  0  0  0  0  0  0
  188.0020  177.6370  143.7790 C   0  0  0  0  0  0  0  0  0  0  0  0
  180.6690  178.1700  143.0290 C   0  0  0  0  0  0  0  0  0  0  0  0
  181.1010  178.6230  141.7200 C   0  0  0  0  0  0  0  0  0  0  0  0
  182.5040  179.4720  143.3660 C   0  0  1  0  0  3  0  0  0  0  0  0
  182.1820  179.3750  141.8930 C   0  0  0  0  0  3  0  0  0  0  0  0
  181.5260  178.6510  143.9960 O   0  0  0  0  0  0  0  0  0  0  0  0
  179.6800  177.4230  143.2750 O   0  0  0  0  0  0  0  0  0  0  0  0
  181.8420  176.3090  139.8880 C   0  0  0  0  0  3  0  0  0  0  0  0
  182.9940  177.9290  137.8870 C   0  0  0  0  0  2  0  0  0  0  0  0
  180.3780  179.5940  139.5880 N   0  0  0  0  0  0  0  0  0  0  0  0
  181.2760  177.4740  139.5560 C   0  0  0  0  0  0  0  0  0  0  0  0
  181.2340  179.5130  138.5050 O   0  0  0  0  0  0  0  0  0  0  0  0
  183.3350  176.5010  138.0060 N   0  0  0  0  0  0  0  0  0  0  0  0
  180.4600  178.3600  140.3800 C   0  0  1  0  0  3  0  0  0  0  0  0
  182.8380  175.7500  138.9510 C   0  0  0  0  0  3  0  0  0  0  0  0
  181.5310  178.1510  138.2880 C   0  0  1  0  0  3  0  0  0  0  0  0
  178.9310  180.8780  138.1140 C   0  0  0  0  0  1  0  0  0  0  0  0
  179.0150  179.7130  139.0800 C   0  0  0  0  0  2  0  0  0  0  0  0
  189.4400  177.0280  140.4850 O   0  0  0  0  0  0  0  0  0  0  0  0
  190.3260  175.9050  138.5470 C   0  0  0  0  0  3  0  0  0  0  0  0
  190.5310  176.7150  139.6680 C   0  0  0  0  0  0  0  0  0  0  0  0
  192.8860  176.8840  139.0980 C   0  0  0  0  0  3  0  0  0  0  0  0
  192.6840  176.0760  137.9680 C   0  0  0  0  0  0  0  0  0  0  0  0
  191.3950  175.5880  137.7020 C   0  0  0  0  0  3  0  0  0  0  0  0
  191.8180  177.2030  139.9410 C   0  0  0  0  0  3  0  0  0  0  0  0
  196.2130  176.8970  135.1270 C   0  0  0  0  0  1  0  0  0  0  0  0
  195.7200  174.7190  136.2190 C   0  0  0  0  0  2  0  0  0  0  0  0
  195.2220  175.7480  135.2100 C   0  0  1  0  0  3  0  0  0  0  0  0
  193.8940  176.2610  135.7400 C   0  0  0  0  0  2  0  0  0  0  0  0
  193.7810  175.7570  137.0960 N   0  0  0  0  0  0  0  0  0  0  0  0
  194.8760  174.8850  137.4700 C   0  0  0  0  0  2  0  0  0  0  0  0
  1 15  1  0  0  0  0
  2  6  2  0  0  0  0
  2  9  1  0  0  0  0
  3  4  1  0  0  0  0
  4  9  2  0  0  0  0
  4 13  1  0  0  0  0
  5  8  2  0  0  0  0
  6 16  1  0  0  0  0
  7 34  1  6  0  0  0
  7  6  1  0  0  0  0
  7 11  1  0  0  0  0
  8 10  2  0  0  0  0
  9 12  1  0  0  0  0
 11 14  1  0  0  0  0
 12 15  1  0  0  0  0
 13  1  2  0  0  0  0
 14  5  1  0  0  0  0
 16 12  2  0  0  0  0
 16  5  1  0  0  0  0
 17 22  2  0  0  0  0
 17 21  1  0  0  0  0
 18 20  2  0  0  0  0
 18 17  1  0  0  0  0
 19 13  1  6  0  0  0
 19 21  1  0  0  0  0
 20 19  1  0  0  0  0
 24 28  1  0  0  0  0
 25 29  1  0  0  0  0
 26 23  2  0  0  0  0
 26 29  1  0  0  0  0
 27 25  1  0  0  0  0
 28 30  2  0  0  0  0
 29 18  1  1  0  0  0
 30 23  1  0  0  0  0
 31 24  1  1  0  0  0
 31 27  1  0  0  0  0
 31 26  1  0  0  0  0
 32 33  1  0  0  0  0
 33 25  1  0  0  0  0
 35 36  1  0  0  0  0
 36 40  2  0  0  0  0
 36 34  1  0  0  0  0
 37 40  1  0  0  0  0
 38 37  2  0  0  0  0
 39 38  1  0  0  0  0
 39 35  2  0  0  0  0
 42 46  1  0  0  0  0
 43 41  1  1  0  0  0
 43 44  1  0  0  0  0
 43 42  1  0  0  0  0
 44 45  1  0  0  0  0
 45 46  1  0  0  0  0
 45 38  1  0  0  0  0
M  END
>  <MODEL>
9

>  <REMARK>
 VINA RESULT:      -9.5      2.703     10.816
  Name = 
  6 active torsions:
  status: ('A' for Active; 'I' for Inactive)
    1  A    between atoms: C_14  and  O_18
    2  A    between atoms: C_16  and  N_27
    3  A    between atoms: C_17  and  O_18
    4  A    between atoms: C_24  and  N_37
    5  A    between atoms: C_26  and  C_38
    6  A    between atoms: C_30  and  C_39
                            x       y       z     vdW  Elec       q    Type
                         _______ _______ _______ _____ _____    ______ ____

>  <TORSDO>
F 6

$$$$
