=
 OpenBabel11042412403D

 43 46  0  0  1  0  0  0  0  0999 V2000
  186.0240  178.2390  143.7630 C   0  0  1  0  0  3  0  0  0  0  0  0
  185.0670  178.4020  142.6230 C   0  0  0  0  0  0  0  0  0  0  0  0
  184.0990  178.7970  140.6350 C   0  0  0  0  0  0  0  0  0  0  0  0
  185.4280  178.9680  141.2950 C   0  0  0  0  0  3  0  0  0  0  0  0
  183.8380  178.0080  142.6630 N   0  0  0  0  0  2  0  0  0  0  0  0
  183.2400  178.2480  141.4250 N   0  0  0  0  0  0  0  0  0  0  0  0
  183.8060  179.0780  139.2000 C   0  0  1  0  0  3  0  0  0  0  0  0
  184.5770  180.2220  138.7460 N   0  0  0  0  0  1  0  0  0  0  0  0
  184.1320  177.9050  138.3830 C   0  0  0  0  0  0  0  0  0  0  0  0
  184.4000  176.9350  137.7180 C   0  0  0  0  0  0  0  0  0  0  0  0
  184.7240  175.7550  136.9130 C   0  0  0  0  0  2  0  0  0  0  0  0
  188.2960  175.5290  136.3370 N   0  0  0  0  0  0  0  0  0  0  0  0
  187.2290  175.2820  137.1190 C   0  0  0  0  0  3  0  0  0  0  0  0
  189.6460  175.1540  136.6270 C   0  0  0  0  0  0  0  0  0  0  0  0
  186.6000  176.3610  135.2780 C   0  0  0  0  0  3  0  0  0  0  0  0
  191.3670  174.3100  137.6700 N   0  0  0  0  0  0  0  0  0  0  0  0
  191.8760  174.8080  136.5910 C   0  0  0  0  0  3  0  0  0  0  0  0
  190.8130  175.4360  135.7490 C   0  0  0  0  0  3  0  0  0  0  0  0
  189.9880  174.5220  137.6960 N   0  0  0  0  0  2  0  0  0  0  0  0
  187.9330  176.1710  135.2370 N   0  0  0  0  0  0  0  0  0  0  0  0
  186.1410  175.8150  136.4630 C   0  0  0  0  0  0  0  0  0  0  0  0
  185.2690  179.2310  145.7800 C   0  0  0  0  0  2  0  0  0  0  0  0
  186.2510  177.4630  145.9930 C   0  0  0  0  0  2  0  0  0  0  0  0
  185.3040  177.9870  145.0140 N   0  0  0  0  0  0  0  0  0  0  0  0
  186.2350  178.7240  146.8230 C   0  0  0  0  0  2  0  0  0  0  0  0
  186.9250  177.1330  143.4680 N   0  0  0  0  0  2  0  0  0  0  0  0
  188.1970  177.7230  143.0800 C   0  0  0  0  0  2  0  0  0  0  0  0
  189.3690  176.9400  143.6650 C   0  0  1  0  0  3  0  0  0  0  0  0
  190.2690  176.3330  142.5810 C   0  0  0  0  0  2  0  0  0  0  0  0
  190.8060  177.3250  140.3160 C   0  0  0  0  0  0  0  0  0  0  0  0
  192.0290  177.4150  140.6040 O   0  0  0  0  0  0  0  0  0  0  0  0
  189.8700  176.8060  141.2630 N   0  0  0  0  0  2  0  0  0  0  0  0
  190.3360  177.7350  138.9660 C   0  0  0  0  0  2  0  0  0  0  0  0
  188.4570  178.7650  137.7270 C   0  0  0  0  0  1  0  0  0  0  0  0
  188.8620  178.0870  139.0200 C   0  0  0  0  0  2  0  0  0  0  0  0
  190.0920  177.7420  144.6640 N   0  0  0  0  0  0  0  0  0  0  0  0
  191.2170  179.5200  144.0510 C   0  0  0  0  0  1  0  0  0  0  0  0
  191.3040  178.1310  144.1790 O   0  0  0  0  0  0  0  0  0  0  0  0
  190.2640  176.9400  145.8850 C   0  0  0  0  0  3  0  0  0  0  0  0
  191.7260  176.6040  146.1800 C   0  0  0  0  0  2  0  0  0  0  0  0
  192.0740  175.4020  145.5610 O   0  0  0  0  0  1  0  0  0  0  0  0
  188.9930  176.7110  147.8930 O   0  0  0  0  0  1  0  0  0  0  0  0
  189.6300  177.6440  147.0760 C   0  0  0  0  0  2  0  0  0  0  0  0
  1 26  1  6  0  0  0
  1 24  1  0  0  0  0
  2  5  1  0  0  0  0
  2  1  1  0  0  0  0
  3  4  1  0  0  0  0
  3  6  2  0  0  0  0
  4  2  2  0  0  0  0
  6  5  1  0  0  0  0
  7  8  1  6  0  0  0
  7  3  1  0  0  0  0
  9  7  1  0  0  0  0
 10  9  3  0  0  0  0
 11 10  1  0  0  0  0
 12 14  1  0  0  0  0
 12 13  1  0  0  0  0
 14 19  1  0  0  0  0
 15 21  1  0  0  0  0
 16 19  1  0  0  0  0
 17 16  2  0  0  0  0
 18 17  1  0  0  0  0
 18 14  2  0  0  0  0
 20 15  2  0  0  0  0
 20 12  1  0  0  0  0
 21 11  1  0  0  0  0
 21 13  2  0  0  0  0
 22 25  1  0  0  0  0
 23 25  1  0  0  0  0
 24 22  1  0  0  0  0
 24 23  1  0  0  0  0
 27 26  1  0  0  0  0
 27 28  1  0  0  0  0
 28 29  1  6  0  0  0
 28 36  1  0  0  0  0
 30 31  2  0  0  0  0
 30 32  1  0  0  0  0
 32 29  1  0  0  0  0
 33 35  1  0  0  0  0
 33 30  1  0  0  0  0
 34 35  1  0  0  0  0
 36 39  1  0  0  0  0
 37 38  1  0  0  0  0
 38 36  1  0  0  0  0
 39 40  1  0  0  0  0
 39 43  1  0  0  0  0
 41 40  1  0  0  0  0
 43 42  1  0  0  0  0
M  END
>  <MODEL>
1

>  <REMARK>
 VINA RESULT:      -6.8      0.000      0.000
  Name = 
  18 active torsions:
  status: ('A' for Active; 'I' for Inactive)
    1  A    between atoms: C_3  and  C_9
    2  A    between atoms: C_3  and  C_22
    3  A    between atoms: C_5  and  C_42
    4  A    between atoms: C_8  and  C_35
    5  A    between atoms: C_12  and  N_24
    6  A    between atoms: C_12  and  C_27
    7  A    between atoms: C_13  and  C_39
    8  A    between atoms: C_14  and  C_21
    9  A    between atoms: C_14  and  C_41
   10  A    between atoms: C_15  and  C_42
   11  A    between atoms: C_18  and  C_39
   12  A    between atoms: N_23  and  C_35
   13  A    between atoms: N_24  and  C_35
   14  A    between atoms: C_27  and  N_28
   15  A    between atoms: C_27  and  C_43
   16  A    between atoms: N_28  and  O_37
   17  A    between atoms: N_28  and  C_42
   18  A    between atoms: N_32  and  C_43
                            x       y       z     vdW  Elec       q    Type
                         _______ _______ _______ _____ _____    ______ ____

>  <TORSDO>
F 18

$$$$
=
 OpenBabel11042412403D

 43 46  0  0  1  0  0  0  0  0999 V2000
  190.0570  177.1860  139.9930 C   0  0  1  0  0  3  0  0  0  0  0  0
  189.9580  177.3590  141.4760 C   0  0  0  0  0  0  0  0  0  0  0  0
  189.4000  177.2320  143.6480 C   0  0  0  0  0  0  0  0  0  0  0  0
  188.9110  176.7340  142.3290 C   0  0  0  0  0  2  0  0  0  0  0  0
  190.8150  178.0260  142.1750 N   0  0  0  0  0  0  0  0  0  0  0  0
  190.4710  177.9410  143.5250 N   0  0  0  0  0  0  0  0  0  0  0  0
  188.8340  176.8580  144.9770 C   0  0  1  0  0  3  0  0  0  0  0  0
  189.8240  177.0640  146.0190 N   0  0  0  0  0  1  0  0  0  0  0  0
  187.6430  177.6660  145.2580 C   0  0  0  0  0  0  0  0  0  0  0  0
  186.6680  178.3350  145.4950 C   0  0  0  0  0  0  0  0  0  0  0  0
  185.4850  179.1480  145.7860 C   0  0  0  0  0  2  0  0  0  0  0  0
  182.6040  178.8610  143.6040 N   0  0  0  0  0  0  0  0  0  0  0  0
  183.1150  178.9440  144.8460 C   0  0  0  0  0  3  0  0  0  0  0  0
  181.2140  178.7750  143.2790 C   0  0  0  0  0  0  0  0  0  0  0  0
  184.7510  178.9720  143.3390 C   0  0  0  0  0  3  0  0  0  0  0  0
  179.0470  178.6770  143.5230 N   0  0  0  0  0  0  0  0  0  0  0  0
  179.2140  178.6270  142.2420 C   0  0  0  0  0  3  0  0  0  0  0  0
  180.6670  178.6840  141.8990 C   0  0  0  0  0  3  0  0  0  0  0  0
  180.2810  178.7680  144.1680 N   0  0  0  0  0  2  0  0  0  0  0  0
  183.5700  178.8780  142.6980 N   0  0  0  0  0  0  0  0  0  0  0  0
  184.4830  179.0050  144.6950 C   0  0  0  0  0  0  0  0  0  0  0  0
  192.2380  176.8500  139.1240 C   0  0  0  0  0  2  0  0  0  0  0  0
  190.7850  175.6870  138.3030 C   0  0  0  0  0  2  0  0  0  0  0  0
  191.0580  176.1700  139.6540 N   0  0  0  0  0  0  0  0  0  0  0  0
  192.0010  176.3610  137.7160 C   0  0  0  0  0  2  0  0  0  0  0  0
  188.7520  176.8000  139.4750 N   0  0  0  0  0  2  0  0  0  0  0  0
  188.3240  177.8670  138.5840 C   0  0  0  0  0  2  0  0  0  0  0  0
  187.2310  177.3880  137.6330 C   0  0  1  0  0  3  0  0  0  0  0  0
  186.2310  178.4970  137.2800 C   0  0  0  0  0  2  0  0  0  0  0  0
  184.1990  178.7910  138.7600 C   0  0  0  0  0  0  0  0  0  0  0  0
  184.7520  179.7280  139.3940 O   0  0  0  0  0  0  0  0  0  0  0  0
  184.8870  178.1230  137.7000 N   0  0  0  0  0  2  0  0  0  0  0  0
  182.8050  178.3960  139.0950 C   0  0  0  0  0  2  0  0  0  0  0  0
  182.4540  175.9910  139.5590 C   0  0  0  0  0  1  0  0  0  0  0  0
  182.4900  177.0490  138.4760 C   0  0  0  0  0  2  0  0  0  0  0  0
  187.8110  176.7100  136.4630 N   0  0  0  0  0  0  0  0  0  0  0  0
  189.3280  177.7870  135.3030 C   0  0  0  0  0  1  0  0  0  0  0  0
  187.9500  177.5820  135.4250 O   0  0  0  0  0  0  0  0  0  0  0  0
  186.9350  175.5930  136.0760 C   0  0  0  0  0  3  0  0  0  0  0  0
  187.5540  174.6850  135.0140 C   0  0  0  0  0  2  0  0  0  0  0  0
  188.8730  174.3830  135.3550 O   0  0  0  0  0  1  0  0  0  0  0  0
  185.2210  174.3440  137.1730 O   0  0  0  0  0  1  0  0  0  0  0  0
  186.5370  174.7830  137.3020 C   0  0  0  0  0  2  0  0  0  0  0  0
  1 26  1  1  0  0  0
  1  2  1  0  0  0  0
  2  5  2  0  0  0  0
  2  4  1  0  0  0  0
  3  7  1  0  0  0  0
  4  3  1  0  0  0  0
  5  6  1  0  0  0  0
  6  3  2  0  0  0  0
  7  9  1  0  0  0  0
  7  8  1  1  0  0  0
  9 10  3  0  0  0  0
 10 11  1  0  0  0  0
 12 13  1  0  0  0  0
 14 12  1  0  0  0  0
 14 19  1  0  0  0  0
 15 21  1  0  0  0  0
 16 19  1  0  0  0  0
 17 16  2  0  0  0  0
 18 17  1  0  0  0  0
 18 14  2  0  0  0  0
 20 15  2  0  0  0  0
 20 12  1  0  0  0  0
 21 13  2  0  0  0  0
 21 11  1  0  0  0  0
 22 24  1  0  0  0  0
 23 24  1  0  0  0  0
 24  1  1  0  0  0  0
 25 23  1  0  0  0  0
 25 22  1  0  0  0  0
 27 26  1  0  0  0  0
 28 29  1  6  0  0  0
 28 27  1  0  0  0  0
 29 32  1  0  0  0  0
 30 33  1  0  0  0  0
 30 31  2  0  0  0  0
 32 30  1  0  0  0  0
 35 33  1  0  0  0  0
 35 34  1  0  0  0  0
 36 28  1  0  0  0  0
 37 38  1  0  0  0  0
 38 36  1  0  0  0  0
 39 36  1  0  0  0  0
 39 43  1  0  0  0  0
 40 41  1  0  0  0  0
 40 39  1  0  0  0  0
 42 43  1  0  0  0  0
M  END
>  <MODEL>
2

>  <REMARK>
 VINA RESULT:      -6.3      3.245      9.046
  Name = 
  18 active torsions:
  status: ('A' for Active; 'I' for Inactive)
    1  A    between atoms: C_3  and  C_9
    2  A    between atoms: C_3  and  C_22
    3  A    between atoms: C_5  and  C_42
    4  A    between atoms: C_8  and  C_35
    5  A    between atoms: C_12  and  N_24
    6  A    between atoms: C_12  and  C_27
    7  A    between atoms: C_13  and  C_39
    8  A    between atoms: C_14  and  C_21
    9  A    between atoms: C_14  and  C_41
   10  A    between atoms: C_15  and  C_42
   11  A    between atoms: C_18  and  C_39
   12  A    between atoms: N_23  and  C_35
   13  A    between atoms: N_24  and  C_35
   14  A    between atoms: C_27  and  N_28
   15  A    between atoms: C_27  and  C_43
   16  A    between atoms: N_28  and  O_37
   17  A    between atoms: N_28  and  C_42
   18  A    between atoms: N_32  and  C_43
                            x       y       z     vdW  Elec       q    Type
                         _______ _______ _______ _____ _____    ______ ____

>  <TORSDO>
F 18

$$$$
=
 OpenBabel11042412403D

 43 46  0  0  1  0  0  0  0  0999 V2000
  188.8860  177.4410  138.7160 C   0  0  1  0  0  3  0  0  0  0  0  0
  189.0820  177.6010  140.1910 C   0  0  0  0  0  0  0  0  0  0  0  0
  189.8200  177.5040  142.3110 C   0  0  0  0  0  0  0  0  0  0  0  0
  190.0990  176.8640  140.9900 C   0  0  0  0  0  2  0  0  0  0  0  0
  188.4220  178.4460  140.9110 N   0  0  0  0  0  0  0  0  0  0  0  0
  188.8860  178.3880  142.2260 N   0  0  0  0  0  0  0  0  0  0  0  0
  190.6020  177.2790  143.5610 C   0  0  1  0  0  3  0  0  0  0  0  0
  191.7000  178.2270  143.6420 N   0  0  0  0  0  1  0  0  0  0  0  0
  189.7310  177.4290  144.7300 C   0  0  0  0  0  0  0  0  0  0  0  0
  189.0190  177.5470  145.6960 C   0  0  0  0  0  0  0  0  0  0  0  0
  188.1560  177.6890  146.8720 C   0  0  0  0  0  2  0  0  0  0  0  0
  185.0010  178.4790  145.2700 N   0  0  0  0  0  0  0  0  0  0  0  0
  186.2780  178.0670  145.1760 C   0  0  0  0  0  3  0  0  0  0  0  0
  184.0840  178.6050  144.1800 C   0  0  0  0  0  0  0  0  0  0  0  0
  185.7720  178.5230  147.2940 C   0  0  0  0  0  3  0  0  0  0  0  0
  183.2820  178.5540  142.1510 N   0  0  0  0  0  0  0  0  0  0  0  0
  182.2870  178.9700  142.8630 C   0  0  0  0  0  3  0  0  0  0  0  0
  182.6740  179.0630  144.3040 C   0  0  0  0  0  2  0  0  0  0  0  0
  184.3950  178.3270  142.9610 N   0  0  0  0  0  0  0  0  0  0  0  0
  184.6880  178.7530  146.5280 N   0  0  0  0  0  0  0  0  0  0  0  0
  186.7870  178.0990  146.4570 C   0  0  0  0  0  0  0  0  0  0  0  0
  186.9470  178.1420  137.5440 C   0  0  0  0  0  2  0  0  0  0  0  0
  188.7090  178.8450  136.8120 C   0  0  0  0  0  2  0  0  0  0  0  0
  188.1920  178.6030  138.1560 N   0  0  0  0  0  0  0  0  0  0  0  0
  187.4370  178.3900  136.1390 C   0  0  0  0  0  2  0  0  0  0  0  0
  190.1870  177.2760  138.0830 N   0  0  0  0  0  2  0  0  0  0  0  0
  190.5280  175.8660  138.1890 C   0  0  0  0  0  2  0  0  0  0  0  0
  190.8610  175.2740  136.8230 C   0  0  1  0  0  3  0  0  0  0  0  0
  190.0030  175.8710  135.6990 C   0  0  0  0  0  2  0  0  0  0  0  0
  187.9610  174.3760  135.6610 C   0  0  0  0  0  0  0  0  0  0  0  0
  187.5560  174.8390  136.7600 O   0  0  0  0  0  0  0  0  0  0  0  0
  189.1830  174.8380  135.0810 N   0  0  0  0  0  2  0  0  0  0  0  0
  187.1440  173.3610  134.9440 C   0  0  0  0  0  2  0  0  0  0  0  0
  185.5240  171.6320  135.6560 C   0  0  0  0  0  1  0  0  0  0  0  0
  185.8560  173.1090  135.7030 C   0  0  0  0  0  2  0  0  0  0  0  0
  192.3080  175.3270  136.5640 N   0  0  0  0  0  0  0  0  0  0  0  0
  193.4020  176.2380  134.8990 C   0  0  0  0  0  1  0  0  0  0  0  0
  192.5620  175.1730  135.2340 O   0  0  0  0  0  0  0  0  0  0  0  0
  192.9690  174.2630  137.3360 C   0  0  0  0  0  3  0  0  0  0  0  0
  193.2310  173.0010  136.5140 C   0  0  0  0  0  2  0  0  0  0  0  0
  194.6020  172.7520  136.4450 O   0  0  0  0  0  1  0  0  0  0  0  0
  194.0550  176.0350  138.5100 O   0  0  0  0  0  1  0  0  0  0  0  0
  194.2640  174.7780  137.9470 C   0  0  0  0  0  2  0  0  0  0  0  0
  1 26  1  6  0  0  0
  1  2  1  0  0  0  0
  2  5  2  0  0  0  0
  2  4  1  0  0  0  0
  3  7  1  0  0  0  0
  4  3  1  0  0  0  0
  5  6  1  0  0  0  0
  6  3  2  0  0  0  0
  7  8  1  1  0  0  0
  7  9  1  0  0  0  0
  9 10  3  0  0  0  0
 10 11  1  0  0  0  0
 12 20  1  0  0  0  0
 13 12  1  0  0  0  0
 13 21  2  0  0  0  0
 14 18  1  0  0  0  0
 14 12  1  0  0  0  0
 16 17  2  0  0  0  0
 16 19  1  0  0  0  0
 17 18  1  0  0  0  0
 19 14  2  0  0  0  0
 20 15  2  0  0  0  0
 21 11  1  0  0  0  0
 21 15  1  0  0  0  0
 22 24  1  0  0  0  0
 23 24  1  0  0  0  0
 24  1  1  0  0  0  0
 25 23  1  0  0  0  0
 25 22  1  0  0  0  0
 26 27  1  0  0  0  0
 28 29  1  6  0  0  0
 28 27  1  0  0  0  0
 30 31  2  0  0  0  0
 32 30  1  0  0  0  0
 32 29  1  0  0  0  0
 33 30  1  0  0  0  0
 33 35  1  0  0  0  0
 34 35  1  0  0  0  0
 36 28  1  0  0  0  0
 36 39  1  0  0  0  0
 37 38  1  0  0  0  0
 38 36  1  0  0  0  0
 39 43  1  0  0  0  0
 40 39  1  0  0  0  0
 41 40  1  0  0  0  0
 43 42  1  0  0  0  0
M  END
>  <MODEL>
3

>  <REMARK>
 VINA RESULT:      -6.3      2.999      8.783
  Name = 
  18 active torsions:
  status: ('A' for Active; 'I' for Inactive)
    1  A    between atoms: C_3  and  C_9
    2  A    between atoms: C_3  and  C_22
    3  A    between atoms: C_5  and  C_42
    4  A    between atoms: C_8  and  C_35
    5  A    between atoms: C_12  and  N_24
    6  A    between atoms: C_12  and  C_27
    7  A    between atoms: C_13  and  C_39
    8  A    between atoms: C_14  and  C_21
    9  A    between atoms: C_14  and  C_41
   10  A    between atoms: C_15  and  C_42
   11  A    between atoms: C_18  and  C_39
   12  A    between atoms: N_23  and  C_35
   13  A    between atoms: N_24  and  C_35
   14  A    between atoms: C_27  and  N_28
   15  A    between atoms: C_27  and  C_43
   16  A    between atoms: N_28  and  O_37
   17  A    between atoms: N_28  and  C_42
   18  A    between atoms: N_32  and  C_43
                            x       y       z     vdW  Elec       q    Type
                         _______ _______ _______ _____ _____    ______ ____

>  <TORSDO>
F 18

$$$$
=
 OpenBabel11042412403D

 43 46  0  0  1  0  0  0  0  0999 V2000
  186.2510  178.1730  143.7920 C   0  0  1  0  0  3  0  0  0  0  0  0
  185.4030  178.4530  142.5900 C   0  0  0  0  0  0  0  0  0  0  0  0
  184.6310  178.9660  140.5440 C   0  0  0  0  0  0  0  0  0  0  0  0
  185.9210  178.9740  141.2970 C   0  0  0  0  0  3  0  0  0  0  0  0
  184.1350  178.2100  142.5400 N   0  0  0  0  0  2  0  0  0  0  0  0
  183.6590  178.5240  141.2670 N   0  0  0  0  0  0  0  0  0  0  0  0
  184.4750  179.2840  139.0950 C   0  0  1  0  0  3  0  0  0  0  0  0
  185.5910  178.7390  138.3410 N   0  0  0  0  0  1  0  0  0  0  0  0
  183.2170  178.7240  138.5930 C   0  0  0  0  0  0  0  0  0  0  0  0
  182.1770  178.2690  138.1850 C   0  0  0  0  0  0  0  0  0  0  0  0
  180.9130  177.7180  137.6920 C   0  0  0  0  0  2  0  0  0  0  0  0
  180.8600  174.2540  136.6210 N   0  0  0  0  0  0  0  0  0  0  0  0
  180.3090  175.2590  137.3270 C   0  0  0  0  0  3  0  0  0  0  0  0
  180.3450  172.9230  136.5250 C   0  0  0  0  0  0  0  0  0  0  0  0
  182.1550  175.9610  136.3020 C   0  0  0  0  0  3  0  0  0  0  0  0
  179.0450  171.1950  136.8210 N   0  0  0  0  0  0  0  0  0  0  0  0
  179.9770  170.7490  136.0440 C   0  0  0  0  0  3  0  0  0  0  0  0
  180.9670  171.8250  135.7380 C   0  0  0  0  0  3  0  0  0  0  0  0
  179.2680  172.5390  137.1210 N   0  0  0  0  0  2  0  0  0  0  0  0
  181.9600  174.6620  136.0050 N   0  0  0  0  0  0  0  0  0  0  0  0
  181.1290  176.3510  137.1430 C   0  0  0  0  0  0  0  0  0  0  0  0
  185.2330  179.2130  145.6640 C   0  0  0  0  0  2  0  0  0  0  0  0
  186.2820  177.5200  146.0720 C   0  0  0  0  0  2  0  0  0  0  0  0
  185.4170  177.9390  144.9730 N   0  0  0  0  0  0  0  0  0  0  0  0
  186.1090  178.8150  146.8270 C   0  0  0  0  0  2  0  0  0  0  0  0
  187.0820  177.0080  143.5210 N   0  0  0  0  0  2  0  0  0  0  0  0
  188.4020  177.5090  143.1710 C   0  0  0  0  0  2  0  0  0  0  0  0
  189.4970  176.7280  143.8910 C   0  0  1  0  0  3  0  0  0  0  0  0
  190.4350  175.9990  142.9190 C   0  0  0  0  0  2  0  0  0  0  0  0
  190.9580  177.0710  140.6870 C   0  0  0  0  0  0  0  0  0  0  0  0
  192.0610  177.5060  141.1130 O   0  0  0  0  0  0  0  0  0  0  0  0
  190.0910  176.3220  141.5410 N   0  0  0  0  0  2  0  0  0  0  0  0
  190.5690  177.3120  139.2720 C   0  0  0  0  0  2  0  0  0  0  0  0
  188.5390  176.5200  138.0990 C   0  0  0  0  0  1  0  0  0  0  0  0
  189.0630  177.4540  139.1710 C   0  0  0  0  0  2  0  0  0  0  0  0
  190.1920  177.5760  144.8710 N   0  0  0  0  0  0  0  0  0  0  0  0
  191.2350  179.3320  144.0750 C   0  0  0  0  0  1  0  0  0  0  0  0
  191.4000  177.9790  144.3840 O   0  0  0  0  0  0  0  0  0  0  0  0
  190.3730  176.8150  146.1170 C   0  0  0  0  0  3  0  0  0  0  0  0
  191.8330  176.4560  146.3940 C   0  0  0  0  0  2  0  0  0  0  0  0
  192.1170  176.6250  147.7500 O   0  0  0  0  0  1  0  0  0  0  0  0
  188.8490  176.7780  147.9550 O   0  0  0  0  0  1  0  0  0  0  0  0
  189.7810  177.5770  147.2940 C   0  0  0  0  0  2  0  0  0  0  0  0
  1 26  1  6  0  0  0
  1 24  1  0  0  0  0
  2  1  1  0  0  0  0
  3  6  2  0  0  0  0
  3  4  1  0  0  0  0
  4  2  2  0  0  0  0
  5  2  1  0  0  0  0
  6  5  1  0  0  0  0
  7  8  1  6  0  0  0
  7  3  1  0  0  0  0
  9  7  1  0  0  0  0
 10  9  3  0  0  0  0
 11 10  1  0  0  0  0
 12 13  1  0  0  0  0
 14 12  1  0  0  0  0
 14 19  1  0  0  0  0
 15 21  1  0  0  0  0
 16 19  1  0  0  0  0
 17 16  2  0  0  0  0
 18 17  1  0  0  0  0
 18 14  2  0  0  0  0
 20 15  2  0  0  0  0
 20 12  1  0  0  0  0
 21 13  2  0  0  0  0
 21 11  1  0  0  0  0
 22 25  1  0  0  0  0
 23 25  1  0  0  0  0
 24 22  1  0  0  0  0
 24 23  1  0  0  0  0
 27 26  1  0  0  0  0
 27 28  1  0  0  0  0
 28 29  1  6  0  0  0
 28 36  1  0  0  0  0
 30 31  2  0  0  0  0
 30 32  1  0  0  0  0
 32 29  1  0  0  0  0
 33 30  1  0  0  0  0
 34 35  1  0  0  0  0
 35 33  1  0  0  0  0
 36 39  1  0  0  0  0
 37 38  1  0  0  0  0
 38 36  1  0  0  0  0
 39 40  1  0  0  0  0
 39 43  1  0  0  0  0
 40 41  1  0  0  0  0
 43 42  1  0  0  0  0
M  END
>  <MODEL>
4

>  <REMARK>
 VINA RESULT:      -6.2      3.112      4.519
  Name = 
  18 active torsions:
  status: ('A' for Active; 'I' for Inactive)
    1  A    between atoms: C_3  and  C_9
    2  A    between atoms: C_3  and  C_22
    3  A    between atoms: C_5  and  C_42
    4  A    between atoms: C_8  and  C_35
    5  A    between atoms: C_12  and  N_24
    6  A    between atoms: C_12  and  C_27
    7  A    between atoms: C_13  and  C_39
    8  A    between atoms: C_14  and  C_21
    9  A    between atoms: C_14  and  C_41
   10  A    between atoms: C_15  and  C_42
   11  A    between atoms: C_18  and  C_39
   12  A    between atoms: N_23  and  C_35
   13  A    between atoms: N_24  and  C_35
   14  A    between atoms: C_27  and  N_28
   15  A    between atoms: C_27  and  C_43
   16  A    between atoms: N_28  and  O_37
   17  A    between atoms: N_28  and  C_42
   18  A    between atoms: N_32  and  C_43
                            x       y       z     vdW  Elec       q    Type
                         _______ _______ _______ _____ _____    ______ ____

>  <TORSDO>
F 18

$$$$
=
 OpenBabel11042412403D

 43 46  0  0  1  0  0  0  0  0999 V2000
  188.2500  178.1700  137.9020 C   0  0  1  0  0  3  0  0  0  0  0  0
  188.4700  177.9220  139.3610 C   0  0  0  0  0  0  0  0  0  0  0  0
  189.2110  177.2130  141.3600 C   0  0  0  0  0  0  0  0  0  0  0  0
  189.4230  176.9210  139.9110 C   0  0  0  0  0  3  0  0  0  0  0  0
  187.8910  178.6010  140.2950 N   0  0  0  0  0  2  0  0  0  0  0  0
  188.3570  178.1640  141.5360 N   0  0  0  0  0  0  0  0  0  0  0  0
  189.9790  176.6050  142.4850 C   0  0  1  0  0  3  0  0  0  0  0  0
  191.3620  177.0480  142.4440 N   0  0  0  0  0  1  0  0  0  0  0  0
  189.3750  176.9840  143.7650 C   0  0  0  0  0  0  0  0  0  0  0  0
  188.8790  177.2880  144.8220 C   0  0  0  0  0  0  0  0  0  0  0  0
  188.2770  177.6540  146.1060 C   0  0  0  0  0  2  0  0  0  0  0  0
  184.9280  178.5070  145.0080 N   0  0  0  0  0  0  0  0  0  0  0  0
  186.1700  178.0780  144.7180 C   0  0  0  0  0  3  0  0  0  0  0  0
  183.8590  178.6590  144.0700 C   0  0  0  0  0  0  0  0  0  0  0  0
  185.9970  178.5160  146.8920 C   0  0  0  0  0  3  0  0  0  0  0  0
  182.7600  178.6430  142.1850 N   0  0  0  0  0  0  0  0  0  0  0  0
  181.8900  179.0640  143.0440 C   0  0  0  0  0  3  0  0  0  0  0  0
  182.4920  179.1350  144.4100 C   0  0  0  0  0  2  0  0  0  0  0  0
  183.9790  178.3910  142.8150 N   0  0  0  0  0  0  0  0  0  0  0  0
  184.8130  178.7700  146.3010 N   0  0  0  0  0  0  0  0  0  0  0  0
  186.8670  178.0880  145.9070 C   0  0  0  0  0  0  0  0  0  0  0  0
  189.9780  176.9360  136.8440 C   0  0  0  0  0  2  0  0  0  0  0  0
  188.3230  177.2670  135.7090 C   0  0  0  0  0  2  0  0  0  0  0  0
  188.5430  176.9650  137.1200 N   0  0  0  0  0  0  0  0  0  0  0  0
  189.7950  177.2330  135.3760 C   0  0  0  0  0  2  0  0  0  0  0  0
  186.8690  178.5820  137.6960 N   0  0  0  0  0  2  0  0  0  0  0  0
  186.0490  177.3920  137.8630 C   0  0  0  0  0  2  0  0  0  0  0  0
  184.6140  177.6420  137.4080 C   0  0  1  0  0  3  0  0  0  0  0  0
  184.2400  176.8230  136.1650 C   0  0  0  0  0  2  0  0  0  0  0  0
  184.9050  174.3820  136.1210 C   0  0  0  0  0  0  0  0  0  0  0  0
  183.7610  174.0260  136.5110 O   0  0  0  0  0  0  0  0  0  0  0  0
  185.2160  175.7650  135.9400 N   0  0  0  0  0  2  0  0  0  0  0  0
  185.9320  173.3510  135.8150 C   0  0  0  0  0  2  0  0  0  0  0  0
  188.1830  173.0040  136.7830 C   0  0  0  0  0  1  0  0  0  0  0  0
  186.6970  172.9980  137.0760 C   0  0  0  0  0  2  0  0  0  0  0  0
  183.6730  177.4940  138.5280 N   0  0  0  0  0  0  0  0  0  0  0  0
  182.4370  176.0230  139.5830 C   0  0  0  0  0  1  0  0  0  0  0  0
  182.8310  176.4440  138.3100 O   0  0  0  0  0  0  0  0  0  0  0  0
  182.9050  178.7410  138.6740 C   0  0  0  0  0  3  0  0  0  0  0  0
  183.7920  179.9820  138.7730 C   0  0  0  0  0  2  0  0  0  0  0  0
  184.6390  179.8770  139.8760 O   0  0  0  0  0  1  0  0  0  0  0  0
  181.1220  180.0200  137.7320 O   0  0  0  0  0  1  0  0  0  0  0  0
  181.9100  178.8880  137.5320 C   0  0  0  0  0  2  0  0  0  0  0  0
  1 26  1  1  0  0  0
  1  2  1  0  0  0  0
  2  4  2  0  0  0  0
  2  5  1  0  0  0  0
  3  6  2  0  0  0  0
  3  7  1  0  0  0  0
  4  3  1  0  0  0  0
  5  6  1  0  0  0  0
  7  8  1  1  0  0  0
  7  9  1  0  0  0  0
  9 10  3  0  0  0  0
 10 11  1  0  0  0  0
 12 20  1  0  0  0  0
 13 12  1  0  0  0  0
 13 21  2  0  0  0  0
 14 18  1  0  0  0  0
 14 12  1  0  0  0  0
 16 19  1  0  0  0  0
 16 17  2  0  0  0  0
 17 18  1  0  0  0  0
 19 14  2  0  0  0  0
 20 15  2  0  0  0  0
 21 11  1  0  0  0  0
 21 15  1  0  0  0  0
 22 24  1  0  0  0  0
 23 24  1  0  0  0  0
 24  1  1  0  0  0  0
 25 23  1  0  0  0  0
 25 22  1  0  0  0  0
 26 27  1  0  0  0  0
 28 29  1  6  0  0  0
 28 27  1  0  0  0  0
 28 36  1  0  0  0  0
 30 31  2  0  0  0  0
 32 30  1  0  0  0  0
 32 29  1  0  0  0  0
 33 30  1  0  0  0  0
 33 35  1  0  0  0  0
 34 35  1  0  0  0  0
 36 39  1  0  0  0  0
 38 36  1  0  0  0  0
 38 37  1  0  0  0  0
 39 40  1  0  0  0  0
 40 41  1  0  0  0  0
 43 42  1  0  0  0  0
 43 39  1  0  0  0  0
M  END
>  <MODEL>
5

>  <REMARK>
 VINA RESULT:      -6.1      3.484      9.153
  Name = 
  18 active torsions:
  status: ('A' for Active; 'I' for Inactive)
    1  A    between atoms: C_3  and  C_9
    2  A    between atoms: C_3  and  C_22
    3  A    between atoms: C_5  and  C_42
    4  A    between atoms: C_8  and  C_35
    5  A    between atoms: C_12  and  N_24
    6  A    between atoms: C_12  and  C_27
    7  A    between atoms: C_13  and  C_39
    8  A    between atoms: C_14  and  C_21
    9  A    between atoms: C_14  and  C_41
   10  A    between atoms: C_15  and  C_42
   11  A    between atoms: C_18  and  C_39
   12  A    between atoms: N_23  and  C_35
   13  A    between atoms: N_24  and  C_35
   14  A    between atoms: C_27  and  N_28
   15  A    between atoms: C_27  and  C_43
   16  A    between atoms: N_28  and  O_37
   17  A    between atoms: N_28  and  C_42
   18  A    between atoms: N_32  and  C_43
                            x       y       z     vdW  Elec       q    Type
                         _______ _______ _______ _____ _____    ______ ____

>  <TORSDO>
F 18

$$$$
=
 OpenBabel11042412403D

 43 46  0  0  1  0  0  0  0  0999 V2000
  190.1360  177.0050  139.3590 C   0  0  1  0  0  3  0  0  0  0  0  0
  190.1150  177.3160  140.8220 C   0  0  0  0  0  0  0  0  0  0  0  0
  190.6320  177.6580  142.9810 C   0  0  0  0  0  0  0  0  0  0  0  0
  191.2680  177.1210  141.7420 C   0  0  0  0  0  2  0  0  0  0  0  0
  189.1010  177.8440  141.4240 N   0  0  0  0  0  0  0  0  0  0  0  0
  189.4270  178.0620  142.7640 N   0  0  0  0  0  0  0  0  0  0  0  0
  191.3210  177.8540  144.2900 C   0  0  1  0  0  3  0  0  0  0  0  0
  191.9640  179.1560  144.3270 N   0  0  0  0  0  1  0  0  0  0  0  0
  190.3530  177.7480  145.3860 C   0  0  0  0  0  0  0  0  0  0  0  0
  189.5510  177.6550  146.2820 C   0  0  0  0  0  0  0  0  0  0  0  0
  188.5760  177.5410  147.3690 C   0  0  0  0  0  2  0  0  0  0  0  0
  185.5010  178.4450  145.6750 N   0  0  0  0  0  0  0  0  0  0  0  0
  186.7550  177.9600  145.6220 C   0  0  0  0  0  3  0  0  0  0  0  0
  184.6130  178.5820  144.5620 C   0  0  0  0  0  0  0  0  0  0  0  0
  186.2340  178.5200  147.7110 C   0  0  0  0  0  3  0  0  0  0  0  0
  183.8490  178.5020  142.5190 N   0  0  0  0  0  0  0  0  0  0  0  0
  182.8650  178.9970  143.1950 C   0  0  0  0  0  3  0  0  0  0  0  0
  183.2290  179.1210  144.6390 C   0  0  0  0  0  2  0  0  0  0  0  0
  184.9320  178.2440  143.3600 N   0  0  0  0  0  0  0  0  0  0  0  0
  185.1800  178.7810  146.9150 N   0  0  0  0  0  0  0  0  0  0  0  0
  187.2400  178.0110  146.9110 C   0  0  0  0  0  0  0  0  0  0  0  0
  192.2930  176.6640  138.4330 C   0  0  0  0  0  2  0  0  0  0  0  0
  190.8470  175.4040  137.7580 C   0  0  0  0  0  2  0  0  0  0  0  0
  191.1540  175.9940  139.0580 N   0  0  0  0  0  0  0  0  0  0  0  0
  192.0200  176.0650  137.0750 C   0  0  0  0  0  2  0  0  0  0  0  0
  188.8200  176.5300  138.9580 N   0  0  0  0  0  2  0  0  0  0  0  0
  188.4360  177.3000  137.7860 C   0  0  0  0  0  2  0  0  0  0  0  0
  186.9550  177.1210  137.4680 C   0  0  1  0  0  3  0  0  0  0  0  0
  186.1310  178.3790  137.7760 C   0  0  0  0  0  2  0  0  0  0  0  0
  183.9360  178.9380  138.9040 C   0  0  0  0  0  0  0  0  0  0  0  0
  184.3180  180.1150  139.1440 O   0  0  0  0  0  0  0  0  0  0  0  0
  184.7980  178.0150  138.2360 N   0  0  0  0  0  2  0  0  0  0  0  0
  182.5640  178.5150  139.2930 C   0  0  0  0  0  2  0  0  0  0  0  0
  181.5250  178.7010  137.0540 C   0  0  0  0  0  1  0  0  0  0  0  0
  181.5410  179.2640  138.4600 C   0  0  0  0  0  2  0  0  0  0  0  0
  186.7670  176.6020  136.1040 N   0  0  0  0  0  0  0  0  0  0  0  0
  187.0190  178.1700  134.5940 C   0  0  0  0  0  1  0  0  0  0  0  0
  186.0600  177.4870  135.3480 O   0  0  0  0  0  0  0  0  0  0  0  0
  186.0590  175.3140  136.1780 C   0  0  0  0  0  3  0  0  0  0  0  0
  186.6520  174.3620  137.2170 C   0  0  0  0  0  2  0  0  0  0  0  0
  187.8570  173.8360  136.7500 O   0  0  0  0  0  1  0  0  0  0  0  0
  184.0760  174.5000  137.2300 O   0  0  0  0  0  1  0  0  0  0  0  0
  184.5780  175.5380  136.4470 C   0  0  0  0  0  2  0  0  0  0  0  0
  1 26  1  1  0  0  0
  1  2  1  0  0  0  0
  2  5  2  0  0  0  0
  2  4  1  0  0  0  0
  3  7  1  0  0  0  0
  4  3  1  0  0  0  0
  5  6  1  0  0  0  0
  6  3  2  0  0  0  0
  7  8  1  6  0  0  0
  7  9  1  0  0  0  0
  9 10  3  0  0  0  0
 10 11  1  0  0  0  0
 12 20  1  0  0  0  0
 13 12  1  0  0  0  0
 13 21  2  0  0  0  0
 14 18  1  0  0  0  0
 14 12  1  0  0  0  0
 16 17  2  0  0  0  0
 16 19  1  0  0  0  0
 17 18  1  0  0  0  0
 19 14  2  0  0  0  0
 20 15  2  0  0  0  0
 21 11  1  0  0  0  0
 21 15  1  0  0  0  0
 22 24  1  0  0  0  0
 23 24  1  0  0  0  0
 24  1  1  0  0  0  0
 25 23  1  0  0  0  0
 25 22  1  0  0  0  0
 27 26  1  0  0  0  0
 28 29  1  6  0  0  0
 28 27  1  0  0  0  0
 29 32  1  0  0  0  0
 30 31  2  0  0  0  0
 30 33  1  0  0  0  0
 32 30  1  0  0  0  0
 34 35  1  0  0  0  0
 35 33  1  0  0  0  0
 36 39  1  0  0  0  0
 36 28  1  0  0  0  0
 37 38  1  0  0  0  0
 38 36  1  0  0  0  0
 39 43  1  0  0  0  0
 39 40  1  0  0  0  0
 41 40  1  0  0  0  0
 43 42  1  0  0  0  0
M  END
>  <MODEL>
6

>  <REMARK>
 VINA RESULT:      -6.1      3.160      9.233
  Name = 
  18 active torsions:
  status: ('A' for Active; 'I' for Inactive)
    1  A    between atoms: C_3  and  C_9
    2  A    between atoms: C_3  and  C_22
    3  A    between atoms: C_5  and  C_42
    4  A    between atoms: C_8  and  C_35
    5  A    between atoms: C_12  and  N_24
    6  A    between atoms: C_12  and  C_27
    7  A    between atoms: C_13  and  C_39
    8  A    between atoms: C_14  and  C_21
    9  A    between atoms: C_14  and  C_41
   10  A    between atoms: C_15  and  C_42
   11  A    between atoms: C_18  and  C_39
   12  A    between atoms: N_23  and  C_35
   13  A    between atoms: N_24  and  C_35
   14  A    between atoms: C_27  and  N_28
   15  A    between atoms: C_27  and  C_43
   16  A    between atoms: N_28  and  O_37
   17  A    between atoms: N_28  and  C_42
   18  A    between atoms: N_32  and  C_43
                            x       y       z     vdW  Elec       q    Type
                         _______ _______ _______ _____ _____    ______ ____

>  <TORSDO>
F 18

$$$$
=
 OpenBabel11042412403D

 43 46  0  0  1  0  0  0  0  0999 V2000
  189.9990  177.0510  139.2030 C   0  0  1  0  0  3  0  0  0  0  0  0
  190.4670  177.1390  140.6210 C   0  0  0  0  0  0  0  0  0  0  0  0
  190.6700  177.0310  142.8560 C   0  0  0  0  0  0  0  0  0  0  0  0
  189.6340  176.7980  141.8060 C   0  0  0  0  0  2  0  0  0  0  0  0
  191.6720  177.4650  140.9560 N   0  0  0  0  0  0  0  0  0  0  0  0
  191.7970  177.3920  142.3440 N   0  0  0  0  0  0  0  0  0  0  0  0
  190.5020  176.7510  144.3110 C   0  0  1  0  0  3  0  0  0  0  0  0
  191.5480  177.4120  145.0720 N   0  0  0  0  0  1  0  0  0  0  0  0
  189.1890  177.2200  144.7630 C   0  0  0  0  0  0  0  0  0  0  0  0
  188.1060  177.5980  145.1360 C   0  0  0  0  0  0  0  0  0  0  0  0
  186.7900  178.0540  145.5900 C   0  0  0  0  0  2  0  0  0  0  0  0
  184.0810  178.4990  143.2210 N   0  0  0  0  0  0  0  0  0  0  0  0
  184.5240  178.5060  144.4920 C   0  0  0  0  0  3  0  0  0  0  0  0
  182.7500  178.8100  142.8010 C   0  0  0  0  0  0  0  0  0  0  0  0
  186.1720  177.9480  143.1070 C   0  0  0  0  0  3  0  0  0  0  0  0
  180.6450  179.3780  142.8930 N   0  0  0  0  0  0  0  0  0  0  0  0
  180.8590  179.1990  141.6310 C   0  0  0  0  0  3  0  0  0  0  0  0
  182.2780  178.7980  141.3900 C   0  0  0  0  0  3  0  0  0  0  0  0
  181.8110  179.1400  143.6200 N   0  0  0  0  0  2  0  0  0  0  0  0
  185.0560  178.1690  142.3870 N   0  0  0  0  0  0  0  0  0  0  0  0
  185.8530  178.1460  144.4370 C   0  0  0  0  0  0  0  0  0  0  0  0
  188.0020  178.2470  138.7480 C   0  0  0  0  0  2  0  0  0  0  0  0
  189.4200  178.3340  137.2930 C   0  0  0  0  0  2  0  0  0  0  0  0
  189.4610  178.3370  138.7530 N   0  0  0  0  0  0  0  0  0  0  0  0
  187.9140  178.2550  137.2420 C   0  0  0  0  0  2  0  0  0  0  0  0
  191.1170  176.6490  138.3610 N   0  0  0  0  0  2  0  0  0  0  0  0
  191.0240  175.2060  138.2030 C   0  0  0  0  0  2  0  0  0  0  0  0
  191.7240  174.7440  136.9280 C   0  0  1  0  0  3  0  0  0  0  0  0
  190.8120  174.8200  135.6970 C   0  0  0  0  0  2  0  0  0  0  0  0
  188.4510  174.1320  136.2920 C   0  0  0  0  0  0  0  0  0  0  0  0
  188.7200  172.9150  136.1050 O   0  0  0  0  0  0  0  0  0  0  0  0
  189.4460  175.1370  136.0930 N   0  0  0  0  0  2  0  0  0  0  0  0
  187.0930  174.5230  136.7550 C   0  0  0  0  0  2  0  0  0  0  0  0
  185.4630  172.9350  137.7270 C   0  0  0  0  0  1  0  0  0  0  0  0
  186.1050  173.4160  136.4430 C   0  0  0  0  0  2  0  0  0  0  0  0
  193.0160  175.4270  136.7590 N   0  0  0  0  0  0  0  0  0  0  0  0
  194.3540  176.6100  135.4890 C   0  0  0  0  0  1  0  0  0  0  0  0
  193.0910  176.0130  135.5320 O   0  0  0  0  0  0  0  0  0  0  0  0
  194.0990  174.4440  136.9220 C   0  0  0  0  0  3  0  0  0  0  0  0
  194.6930  174.4340  138.3300 C   0  0  0  0  0  2  0  0  0  0  0  0
  196.0010  174.9200  138.3000 O   0  0  0  0  0  1  0  0  0  0  0  0
  194.3940  172.5480  135.5000 O   0  0  0  0  0  1  0  0  0  0  0  0
  193.6140  173.0530  136.5400 C   0  0  0  0  0  2  0  0  0  0  0  0
  1 26  1  6  0  0  0
  1  2  1  0  0  0  0
  2  5  2  0  0  0  0
  2  4  1  0  0  0  0
  3  7  1  0  0  0  0
  4  3  1  0  0  0  0
  5  6  1  0  0  0  0
  6  3  2  0  0  0  0
  7  9  1  0  0  0  0
  7  8  1  1  0  0  0
  9 10  3  0  0  0  0
 10 11  1  0  0  0  0
 12 13  1  0  0  0  0
 14 12  1  0  0  0  0
 14 19  1  0  0  0  0
 15 21  1  0  0  0  0
 16 19  1  0  0  0  0
 17 16  2  0  0  0  0
 18 17  1  0  0  0  0
 18 14  2  0  0  0  0
 20 15  2  0  0  0  0
 20 12  1  0  0  0  0
 21 13  2  0  0  0  0
 21 11  1  0  0  0  0
 22 24  1  0  0  0  0
 23 24  1  0  0  0  0
 24  1  1  0  0  0  0
 25 23  1  0  0  0  0
 25 22  1  0  0  0  0
 27 26  1  0  0  0  0
 28 29  1  6  0  0  0
 28 27  1  0  0  0  0
 29 32  1  0  0  0  0
 30 33  1  0  0  0  0
 31 30  2  0  0  0  0
 32 30  1  0  0  0  0
 35 33  1  0  0  0  0
 35 34  1  0  0  0  0
 36 39  1  0  0  0  0
 36 28  1  0  0  0  0
 37 38  1  0  0  0  0
 38 36  1  0  0  0  0
 39 40  1  0  0  0  0
 41 40  1  0  0  0  0
 42 43  1  0  0  0  0
 43 39  1  0  0  0  0
M  END
>  <MODEL>
7

>  <REMARK>
 VINA RESULT:      -6.1      3.271      8.679
  Name = 
  18 active torsions:
  status: ('A' for Active; 'I' for Inactive)
    1  A    between atoms: C_3  and  C_9
    2  A    between atoms: C_3  and  C_22
    3  A    between atoms: C_5  and  C_42
    4  A    between atoms: C_8  and  C_35
    5  A    between atoms: C_12  and  N_24
    6  A    between atoms: C_12  and  C_27
    7  A    between atoms: C_13  and  C_39
    8  A    between atoms: C_14  and  C_21
    9  A    between atoms: C_14  and  C_41
   10  A    between atoms: C_15  and  C_42
   11  A    between atoms: C_18  and  C_39
   12  A    between atoms: N_23  and  C_35
   13  A    between atoms: N_24  and  C_35
   14  A    between atoms: C_27  and  N_28
   15  A    between atoms: C_27  and  C_43
   16  A    between atoms: N_28  and  O_37
   17  A    between atoms: N_28  and  C_42
   18  A    between atoms: N_32  and  C_43
                            x       y       z     vdW  Elec       q    Type
                         _______ _______ _______ _____ _____    ______ ____

>  <TORSDO>
F 18

$$$$
=
 OpenBabel11042412403D

 43 46  0  0  1  0  0  0  0  0999 V2000
  189.4900  177.6040  141.2770 C   0  0  1  0  0  3  0  0  0  0  0  0
  188.0910  178.0520  140.9900 C   0  0  0  0  0  0  0  0  0  0  0  0
  185.9710  178.7830  141.1210 C   0  0  0  0  0  0  0  0  0  0  0  0
  187.0720  178.3500  142.0320 C   0  0  0  0  0  2  0  0  0  0  0  0
  187.6460  178.2840  139.7990 N   0  0  0  0  0  0  0  0  0  0  0  0
  186.3310  178.7430  139.8830 N   0  0  0  0  0  0  0  0  0  0  0  0
  184.6570  179.3380  141.5570 C   0  0  1  0  0  3  0  0  0  0  0  0
  183.5860  178.7860  140.7460 N   0  0  0  0  0  1  0  0  0  0  0  0
  184.4240  179.0190  142.9690 C   0  0  0  0  0  0  0  0  0  0  0  0
  184.2290  178.7650  144.1320 C   0  0  0  0  0  0  0  0  0  0  0  0
  183.9930  178.4590  145.5440 C   0  0  0  0  0  2  0  0  0  0  0  0
  187.3400  178.0880  146.8880 N   0  0  0  0  0  0  0  0  0  0  0  0
  186.4120  177.7470  145.9750 C   0  0  0  0  0  3  0  0  0  0  0  0
  188.6760  177.5810  146.9460 C   0  0  0  0  0  0  0  0  0  0  0  0
  185.5780  179.2390  147.3980 C   0  0  0  0  0  3  0  0  0  0  0  0
  190.4670  176.4410  146.4400 N   0  0  0  0  0  0  0  0  0  0  0  0
  190.8210  177.1210  147.4810 C   0  0  0  0  0  3  0  0  0  0  0  0
  189.6890  177.9700  147.9640 C   0  0  0  0  0  2  0  0  0  0  0  0
  189.1420  176.7220  146.1050 N   0  0  0  0  0  0  0  0  0  0  0  0
  186.8540  178.9770  147.7410 N   0  0  0  0  0  0  0  0  0  0  0  0
  185.2800  178.4650  146.2930 C   0  0  0  0  0  0  0  0  0  0  0  0
  190.9680  177.8900  143.1100 C   0  0  0  0  0  2  0  0  0  0  0  0
  190.2290  176.0110  142.8720 C   0  0  0  0  0  2  0  0  0  0  0  0
  189.6700  177.3500  142.7090 N   0  0  0  0  0  0  0  0  0  0  0  0
  191.5800  176.5260  143.3040 C   0  0  0  0  0  2  0  0  0  0  0  0
  189.7650  176.3970  140.5110 N   0  0  0  0  0  2  0  0  0  0  0  0
  190.8240  176.7300  139.5710 C   0  0  0  0  0  2  0  0  0  0  0  0
  190.3910  176.4590  138.1330 C   0  0  1  0  0  3  0  0  0  0  0  0
  190.0100  177.7420  137.3830 C   0  0  0  0  0  2  0  0  0  0  0  0
  188.5030  177.3860  135.3810 C   0  0  0  0  0  0  0  0  0  0  0  0
  189.4920  177.3220  134.6020 O   0  0  0  0  0  0  0  0  0  0  0  0
  188.6910  177.6070  136.7800 N   0  0  0  0  0  2  0  0  0  0  0  0
  187.1300  177.1970  134.8430 C   0  0  0  0  0  2  0  0  0  0  0  0
  185.4110  176.3610  136.4140 C   0  0  0  0  0  1  0  0  0  0  0  0
  186.1090  177.5980  135.8900 C   0  0  0  0  0  2  0  0  0  0  0  0
  191.3810  175.6270  137.4330 N   0  0  0  0  0  0  0  0  0  0  0  0
  193.4440  176.3620  137.3470 C   0  0  0  0  0  1  0  0  0  0  0  0
  192.2140  176.4030  136.6840 O   0  0  0  0  0  0  0  0  0  0  0  0
  190.6720  174.6640  136.5750 C   0  0  0  0  0  3  0  0  0  0  0  0
  191.4790  173.3930  136.3070 C   0  0  0  0  0  2  0  0  0  0  0  0
  191.6530  173.2190  134.9340 O   0  0  0  0  0  1  0  0  0  0  0  0
  188.5390  173.6470  136.2310 O   0  0  0  0  0  1  0  0  0  0  0  0
  189.3170  174.3170  137.1740 C   0  0  0  0  0  2  0  0  0  0  0  0
  1 26  1  6  0  0  0
  1 24  1  0  0  0  0
  2  1  1  0  0  0  0
  2  4  1  0  0  0  0
  3  7  1  0  0  0  0
  3  4  1  0  0  0  0
  5  6  1  0  0  0  0
  5  2  2  0  0  0  0
  6  3  2  0  0  0  0
  7  8  1  6  0  0  0
  7  9  1  0  0  0  0
  9 10  3  0  0  0  0
 10 11  1  0  0  0  0
 11 21  1  0  0  0  0
 12 14  1  0  0  0  0
 12 20  1  0  0  0  0
 13 21  2  0  0  0  0
 13 12  1  0  0  0  0
 14 18  1  0  0  0  0
 15 20  2  0  0  0  0
 16 17  2  0  0  0  0
 17 18  1  0  0  0  0
 19 16  1  0  0  0  0
 19 14  2  0  0  0  0
 21 15  1  0  0  0  0
 22 25  1  0  0  0  0
 23 25  1  0  0  0  0
 24 23  1  0  0  0  0
 24 22  1  0  0  0  0
 27 26  1  0  0  0  0
 28 29  1  6  0  0  0
 28 27  1  0  0  0  0
 30 32  1  0  0  0  0
 31 30  2  0  0  0  0
 32 29  1  0  0  0  0
 33 30  1  0  0  0  0
 33 35  1  0  0  0  0
 35 34  1  0  0  0  0
 36 28  1  0  0  0  0
 38 37  1  0  0  0  0
 38 36  1  0  0  0  0
 39 43  1  0  0  0  0
 39 36  1  0  0  0  0
 40 39  1  0  0  0  0
 41 40  1  0  0  0  0
 42 43  1  0  0  0  0
M  END
>  <MODEL>
8

>  <REMARK>
 VINA RESULT:      -6.1      3.060      7.722
  Name = 
  18 active torsions:
  status: ('A' for Active; 'I' for Inactive)
    1  A    between atoms: C_3  and  C_9
    2  A    between atoms: C_3  and  C_22
    3  A    between atoms: C_5  and  C_42
    4  A    between atoms: C_8  and  C_35
    5  A    between atoms: C_12  and  N_24
    6  A    between atoms: C_12  and  C_27
    7  A    between atoms: C_13  and  C_39
    8  A    between atoms: C_14  and  C_21
    9  A    between atoms: C_14  and  C_41
   10  A    between atoms: C_15  and  C_42
   11  A    between atoms: C_18  and  C_39
   12  A    between atoms: N_23  and  C_35
   13  A    between atoms: N_24  and  C_35
   14  A    between atoms: C_27  and  N_28
   15  A    between atoms: C_27  and  C_43
   16  A    between atoms: N_28  and  O_37
   17  A    between atoms: N_28  and  C_42
   18  A    between atoms: N_32  and  C_43
                            x       y       z     vdW  Elec       q    Type
                         _______ _______ _______ _____ _____    ______ ____

>  <TORSDO>
F 18

$$$$
=
 OpenBabel11042412403D

 43 46  0  0  1  0  0  0  0  0999 V2000
  185.0180  179.3280  141.9300 C   0  0  1  0  0  3  0  0  0  0  0  0
  184.4730  178.9320  140.5940 C   0  0  0  0  0  0  0  0  0  0  0  0
  183.4380  177.9080  138.8830 C   0  0  0  0  0  0  0  0  0  0  0  0
  183.7510  177.6600  140.3220 C   0  0  0  0  0  2  0  0  0  0  0  0
  184.5250  179.6910  139.5500 N   0  0  0  0  0  0  0  0  0  0  0  0
  183.8770  179.0560  138.4890 N   0  0  0  0  0  0  0  0  0  0  0  0
  182.6000  177.0290  138.0180 C   0  0  1  0  0  3  0  0  0  0  0  0
  182.3940  177.6510  136.7220 N   0  0  0  0  0  1  0  0  0  0  0  0
  183.2540  175.7280  137.8440 C   0  0  0  0  0  0  0  0  0  0  0  0
  183.7860  174.6540  137.7060 C   0  0  0  0  0  0  0  0  0  0  0  0
  184.4300  173.3490  137.5400 C   0  0  0  0  0  2  0  0  0  0  0  0
  187.7600  173.6170  136.1300 N   0  0  0  0  0  0  0  0  0  0  0  0
  186.9600  173.5310  137.2100 C   0  0  0  0  0  3  0  0  0  0  0  0
  189.1880  173.6890  136.1560 C   0  0  0  0  0  0  0  0  0  0  0  0
  185.7420  173.5340  135.3480 C   0  0  0  0  0  3  0  0  0  0  0  0
  191.2300  173.7590  136.9230 N   0  0  0  0  0  0  0  0  0  0  0  0
  191.3820  173.8200  135.6400 C   0  0  0  0  0  3  0  0  0  0  0  0
  190.0560  173.7830  134.9520 C   0  0  0  0  0  3  0  0  0  0  0  0
  189.8750  173.6770  137.2460 N   0  0  0  0  0  2  0  0  0  0  0  0
  187.0440  173.6190  135.0160 N   0  0  0  0  0  0  0  0  0  0  0  0
  185.6700  173.4880  136.7280 C   0  0  0  0  0  0  0  0  0  0  0  0
  183.4860  178.6510  143.6090 C   0  0  0  0  0  2  0  0  0  0  0  0
  185.4430  178.6420  144.1620 C   0  0  0  0  0  2  0  0  0  0  0  0
  184.7330  178.2980  142.9330 N   0  0  0  0  0  0  0  0  0  0  0  0
  184.1780  179.0030  144.9020 C   0  0  0  0  0  2  0  0  0  0  0  0
  186.4550  179.5320  141.8120 N   0  0  0  0  0  2  0  0  0  0  0  0
  186.9300  178.5920  140.8090 C   0  0  0  0  0  2  0  0  0  0  0  0
  188.3090  178.0490  141.1710 C   0  0  1  0  0  3  0  0  0  0  0  0
  188.2650  177.0840  142.3640 C   0  0  0  0  0  2  0  0  0  0  0  0
  190.3400  176.9360  143.8050 C   0  0  0  0  0  0  0  0  0  0  0  0
  190.7270  175.8980  143.2050 O   0  0  0  0  0  0  0  0  0  0  0  0
  189.1120  177.5710  143.4440 N   0  0  0  0  0  2  0  0  0  0  0  0
  191.1840  177.5230  144.8790 C   0  0  0  0  0  2  0  0  0  0  0  0
  191.2190  176.7240  147.2210 C   0  0  0  0  0  1  0  0  0  0  0  0
  191.6720  176.4270  145.8070 C   0  0  0  0  0  2  0  0  0  0  0  0
  188.9880  177.5040  139.9850 N   0  0  0  0  0  0  0  0  0  0  0  0
  191.0430  176.7420  139.9930 C   0  0  0  0  0  1  0  0  0  0  0  0
  190.2860  177.9170  139.9460 O   0  0  0  0  0  0  0  0  0  0  0  0
  188.2740  177.9530  138.7790 C   0  0  0  0  0  3  0  0  0  0  0  0
  189.1250  178.8470  137.8770 C   0  0  0  0  0  2  0  0  0  0  0  0
  188.3140  179.7770  137.2250 O   0  0  0  0  0  1  0  0  0  0  0  0
  186.4960  177.0530  137.4650 O   0  0  0  0  0  1  0  0  0  0  0  0
  187.7490  176.7570  137.9990 C   0  0  0  0  0  2  0  0  0  0  0  0
  1 26  1  6  0  0  0
  1 24  1  0  0  0  0
  2  1  1  0  0  0  0
  3  4  1  0  0  0  0
  4  2  1  0  0  0  0
  5  2  2  0  0  0  0
  6  3  2  0  0  0  0
  6  5  1  0  0  0  0
  7  8  1  6  0  0  0
  7  3  1  0  0  0  0
  9  7  1  0  0  0  0
 10  9  3  0  0  0  0
 11 10  1  0  0  0  0
 12 14  1  0  0  0  0
 12 13  1  0  0  0  0
 14 19  1  0  0  0  0
 15 21  1  0  0  0  0
 16 19  1  0  0  0  0
 17 16  2  0  0  0  0
 18 17  1  0  0  0  0
 18 14  2  0  0  0  0
 20 15  2  0  0  0  0
 20 12  1  0  0  0  0
 21 13  2  0  0  0  0
 21 11  1  0  0  0  0
 22 25  1  0  0  0  0
 23 25  1  0  0  0  0
 24 22  1  0  0  0  0
 24 23  1  0  0  0  0
 27 26  1  0  0  0  0
 28 27  1  6  0  0  0
 28 29  1  0  0  0  0
 29 32  1  0  0  0  0
 30 33  1  0  0  0  0
 31 30  2  0  0  0  0
 32 30  1  0  0  0  0
 33 35  1  0  0  0  0
 35 34  1  0  0  0  0
 36 28  1  0  0  0  0
 38 36  1  0  0  0  0
 38 37  1  0  0  0  0
 39 36  1  0  0  0  0
 40 39  1  0  0  0  0
 41 40  1  0  0  0  0
 42 43  1  0  0  0  0
 43 39  1  0  0  0  0
M  END
>  <MODEL>
9

>  <REMARK>
 VINA RESULT:      -6.1      2.116      4.597
  Name = 
  18 active torsions:
  status: ('A' for Active; 'I' for Inactive)
    1  A    between atoms: C_3  and  C_9
    2  A    between atoms: C_3  and  C_22
    3  A    between atoms: C_5  and  C_42
    4  A    between atoms: C_8  and  C_35
    5  A    between atoms: C_12  and  N_24
    6  A    between atoms: C_12  and  C_27
    7  A    between atoms: C_13  and  C_39
    8  A    between atoms: C_14  and  C_21
    9  A    between atoms: C_14  and  C_41
   10  A    between atoms: C_15  and  C_42
   11  A    between atoms: C_18  and  C_39
   12  A    between atoms: N_23  and  C_35
   13  A    between atoms: N_24  and  C_35
   14  A    between atoms: C_27  and  N_28
   15  A    between atoms: C_27  and  C_43
   16  A    between atoms: N_28  and  O_37
   17  A    between atoms: N_28  and  C_42
   18  A    between atoms: N_32  and  C_43
                            x       y       z     vdW  Elec       q    Type
                         _______ _______ _______ _____ _____    ______ ____

>  <TORSDO>
F 18

$$$$
