=
 OpenBabel11042413163D

 70 76  0  0  1  0  0  0  0  0999 V2000
  189.6720  175.7010  137.1160 C   0  0  1  0  0  3  0  0  0  0  0  0
  191.4050  173.9460  136.7160 C   0  0  0  0  0  0  0  0  0  0  0  0
  192.7510  173.4750  136.2650 C   0  0  0  0  0  2  0  0  0  0  0  0
  192.1520  176.3160  136.8230 C   0  0  0  0  0  3  0  0  0  0  0  0
  189.0020  173.3500  136.9870 C   0  0  0  0  0  0  0  0  0  0  0  0
  188.6950  174.6020  137.1280 N   0  0  0  0  0  0  0  0  0  0  0  0
  190.3690  172.9670  136.7900 N   0  0  0  0  0  2  0  0  0  0  0  0
  191.1150  175.2550  136.8700 C   0  0  0  0  0  0  0  0  0  0  0  0
  193.8240  173.7770  137.2640 C   0  0  0  0  0  3  0  0  0  0  0  0
  193.4470  176.2160  137.1430 C   0  0  0  0  0  3  0  0  0  0  0  0
  194.1690  175.0170  137.6210 C   0  0  0  0  0  0  0  0  0  0  0  0
  189.8920  176.7000  134.8100 C   0  0  0  0  0  1  0  0  0  0  0  0
  189.1800  176.7890  136.1480 C   0  0  2  0  0  3  0  0  0  0  0  0
  189.3230  178.1820  136.7560 C   0  0  0  0  0  2  0  0  0  0  0  0
  188.1560  178.5640  137.6130 C   0  0  0  0  0  0  0  0  0  0  0  0
  187.1400  179.0760  137.0690 O   0  0  0  0  0  0  0  0  0  0  0  0
  188.1530  178.3120  139.0620 C   0  0  0  0  0  0  0  0  0  0  0  0
  187.1040  178.4940  139.7370 O   0  0  0  0  0  0  0  0  0  0  0  0
  189.3820  177.8090  139.7510 C   0  0  0  0  0  2  0  0  0  0  0  0
  189.3040  178.0450  141.2540 C   0  0  0  0  0  2  0  0  0  0  0  0
  190.6280  177.6800  141.9270 C   0  0  2  0  0  3  0  0  0  0  0  0
  191.5520  177.0910  140.8760 C   0  0  0  0  0  1  0  0  0  0  0  0
  191.5880  175.6560  143.4450 O   0  0  0  0  0  0  0  0  0  0  0  0
  190.3640  176.5140  143.2700 S   0  0  0  0  0  0  0  0  0  0  0  0
  189.1780  175.6380  142.9620 O   0  0  0  0  0  0  0  0  0  0  0  0
  190.0750  177.3780  144.8100 C   0  0  1  0  0  3  0  0  0  0  0  0
  188.6350  177.8720  144.8720 C   0  0  0  0  0  2  0  0  0  0  0  0
  190.3900  176.4600  146.0000 C   0  0  2  0  0  3  0  0  0  0  0  0
  188.3290  178.5060  146.2460 C   0  0  2  0  0  3  0  0  0  0  0  0
  189.3770  176.6340  147.1440 C   0  0  0  0  0  2  0  0  0  0  0  0
  189.0860  178.0000  147.3400 O   0  0  0  0  0  0  0  0  0  0  0  0
  186.8320  178.5930  146.5760 C   0  0  2  0  0  0  0  0  0  0  0  0
  186.3370  179.1350  147.8710 C   0  0  0  0  0  2  0  0  0  0  0  0
  186.5250  177.7560  147.6650 O   0  0  0  0  0  0  0  0  0  0  0  0
  185.9070  178.3500  145.4550 N   0  0  0  0  0  2  0  0  0  0  0  0
  184.7480  179.2410  145.4740 C   0  0  2  0  0  3  0  0  0  0  0  0
  183.6990  178.6280  146.1690 O   0  0  0  0  0  1  0  0  0  0  0  0
  182.9510  179.0040  143.7630 C   0  0  0  0  0  1  0  0  0  0  0  0
  184.3210  179.6030  144.0560 C   0  0  2  0  0  3  0  0  0  0  0  0
  184.8340  177.9220  142.2710 C   0  0  0  0  0  1  0  0  0  0  0  0
  185.3440  179.1350  143.0270 C   0  0  0  0  0  2  0  0  0  0  0  0
  192.1370  175.7760  147.4990 O   0  0  0  0  0  1  0  0  0  0  0  0
  191.8190  176.6730  146.4810 C   0  0  0  0  0  2  0  0  0  0  0  0
  195.2600  175.2380  138.4710 O   0  0  0  0  0  0  0  0  0  0  0  0
  195.8700  174.1980  139.2360 C   0  0  0  0  0  1  0  0  0  0  0  0
  187.9000  172.3370  136.9460 C   0  0  0  0  0  2  0  0  0  0  0  0
  185.6470  172.8580  135.8800 N   0  0  0  0  0  2  0  0  0  0  0  0
  187.0110  172.4530  135.7430 C   0  0  0  0  0  0  0  0  0  0  0  0
  187.4810  172.2350  134.5940 O   0  0  0  0  0  0  0  0  0  0  0  0
  185.0530  173.1560  137.1760 C   0  0  0  0  0  2  0  0  0  0  0  0
  180.8850  175.4110  136.6010 N   0  0  0  0  0  2  0  0  0  0  0  0
  183.2150  171.8690  136.0240 C   0  0  1  0  0  3  0  0  0  0  0  0
  183.5550  172.8430  137.1670 C   0  0  2  0  0  3  0  0  0  0  0  0
  183.7160  170.4800  136.3610 C   0  0  0  0  0  1  0  0  0  0  0  0
  183.0070  175.5040  138.2280 S   0  0  0  0  0  0  0  0  0  0  0  0
  181.6180  174.2150  136.4050 C   0  0  0  0  0  0  0  0  0  0  0  0
  181.1740  173.1730  135.4190 C   0  0  0  0  0  2  0  0  0  0  0  0
  181.3720  176.1660  137.7440 C   0  0  1  0  0  3  0  0  0  0  0  0
  182.7240  174.1070  137.1240 C   0  0  0  0  0  0  0  0  0  0  0  0
  181.7120  171.8020  135.8070 C   0  0  0  0  0  2  0  0  0  0  0  0
  181.3130  177.6740  137.4930 C   0  0  0  0  0  2  0  0  0  0  0  0
  180.6750  178.5750  138.5600 C   0  0  2  0  0  0  0  0  0  0  0  0
  179.6080  179.4480  137.8740 C   0  0  0  0  0  2  0  0  0  0  0  0
  181.7030  179.4580  139.2490 C   0  0  0  0  0  0  0  0  0  0  0  0
  180.8860  180.2030  135.9670 O   0  0  0  0  0  1  0  0  0  0  0  0
  182.1610  179.1460  140.3400 O   0  0  0  0  0  0  0  0  0  0  0  0
  182.2210  180.6840  138.5560 C   0  0  0  0  0  2  0  0  0  0  0  0
  181.0610  181.5020  137.9840 C   0  0  0  0  0  2  0  0  0  0  0  0
  180.1730  180.6420  137.0850 C   0  0  2  0  0  3  0  0  0  0  0  0
  180.0270  177.7780  139.5000 O   0  0  0  0  0  1  0  0  0  0  0  0
  1 13  1  6  0  0  0
  1  6  1  0  0  0  0
  2  7  1  0  0  0  0
  2  8  2  0  0  0  0
  3  2  1  0  0  0  0
  3  9  1  0  0  0  0
  4  8  1  0  0  0  0
  4 10  2  0  0  0  0
  5  6  2  0  0  0  0
  7  5  1  0  0  0  0
  8  1  1  0  0  0  0
  9 11  2  0  0  0  0
 10 11  1  0  0  0  0
 11 44  1  0  0  0  0
 13 12  1  6  0  0  0
 13 14  1  0  0  0  0
 14 15  1  0  0  0  0
 15 17  1  0  0  0  0
 16 15  2  0  0  0  0
 17 18  2  0  0  0  0
 17 19  1  0  0  0  0
 19 20  1  0  0  0  0
 20 21  1  0  0  0  0
 21 22  1  6  0  0  0
 21 24  1  0  0  0  0
 24 23  2  0  0  0  0
 25 24  2  0  0  0  0
 26 24  1  6  0  0  0
 26 27  1  0  0  0  0
 26 28  1  0  0  0  0
 28 43  1  1  0  0  0
 28 30  1  0  0  0  0
 29 27  1  6  0  0  0
 29 32  1  0  0  0  0
 29 31  1  0  0  0  0
 30 31  1  0  0  0  0
 32 35  1  6  0  0  0
 32 34  1  0  0  0  0
 32 33  1  0  0  0  0
 34 33  1  0  0  0  0
 35 36  1  0  0  0  0
 36 37  1  6  0  0  0
 39 38  1  6  0  0  0
 39 36  1  0  0  0  0
 40 41  1  0  0  0  0
 41 39  1  0  0  0  0
 43 42  1  0  0  0  0
 44 45  1  0  0  0  0
 46  5  1  0  0  0  0
 47 50  1  0  0  0  0
 48 47  1  0  0  0  0
 48 46  1  0  0  0  0
 49 48  2  0  0  0  0
 51 58  1  0  0  0  0
 52 54  1  1  0  0  0
 52 53  1  0  0  0  0
 53 50  1  6  0  0  0
 56 51  1  0  0  0  0
 56 59  2  0  0  0  0
 57 60  1  0  0  0  0
 57 56  1  0  0  0  0
 58 61  1  6  0  0  0
 58 55  1  0  0  0  0
 59 53  1  0  0  0  0
 59 55  1  0  0  0  0
 60 52  1  0  0  0  0
 61 62  1  0  0  0  0
 62 64  1  0  0  0  0
 62 70  1  1  0  0  0
 63 62  1  0  0  0  0
 64 66  2  0  0  0  0
 67 64  1  0  0  0  0
 68 67  1  0  0  0  0
 69 65  1  6  0  0  0
 69 63  1  0  0  0  0
 69 68  1  0  0  0  0
M  END
>  <MODEL>
1

>  <REMARK>
 VINA RESULT:      -8.1      0.000      0.000
  Name = 
  22 active torsions:
  status: ('A' for Active; 'I' for Inactive)
    1  A    between atoms: C_1  and  S_58
    2  A    between atoms: C_2  and  C_64
    3  A    between atoms: C_4  and  C_41
    4  A    between atoms: C_4  and  N_43
    5  A    between atoms: C_7  and  C_31
    6  A    between atoms: C_7  and  C_45
    7  A    between atoms: C_9  and  C_25
    8  A    between atoms: C_11  and  C_23
    9  A    between atoms: C_11  and  C_32
   10  A    between atoms: C_16  and  C_27
   11  A    between atoms: C_17  and  C_29
   12  A    between atoms: C_19  and  C_54
   13  A    between atoms: N_22  and  C_49
   14  A    between atoms: C_23  and  C_64
   15  A    between atoms: C_25  and  C_50
   16  A    between atoms: C_26  and  C_49
   17  A    between atoms: C_27  and  C_35
   18  A    between atoms: C_29  and  C_60
   19  A    between atoms: C_31  and  C_32
   20  A    between atoms: C_35  and  N_43
   21  A    between atoms: O_39  and  C_70
   22  A    between atoms: C_45  and  S_58
                            x       y       z     vdW  Elec       q    Type
                         _______ _______ _______ _____ _____    ______ ____

>  <TORSDO>
F 22

$$$$
=
 OpenBabel11042413163D

 70 76  0  0  1  0  0  0  0  0999 V2000
  187.7050  177.3120  142.6880 C   0  0  1  0  0  3  0  0  0  0  0  0
  190.0190  177.9260  143.4000 C   0  0  0  0  0  0  0  0  0  0  0  0
  191.0220  178.4510  144.3770 C   0  0  0  0  0  2  0  0  0  0  0  0
  188.3060  177.5950  145.1730 C   0  0  0  0  0  3  0  0  0  0  0  0
  189.4350  177.6640  140.9920 C   0  0  0  0  0  0  0  0  0  0  0  0
  188.2070  177.3900  141.3080 N   0  0  0  0  0  0  0  0  0  0  0  0
  190.3960  177.9280  142.0220 N   0  0  0  0  0  2  0  0  0  0  0  0
  188.7510  177.6330  143.7570 C   0  0  0  0  0  0  0  0  0  0  0  0
  191.3640  177.4510  145.4360 C   0  0  0  0  0  3  0  0  0  0  0  0
  189.0370  177.3150  146.2580 C   0  0  0  0  0  3  0  0  0  0  0  0
  190.4760  176.9770  146.3150 C   0  0  0  0  0  0  0  0  0  0  0  0
  185.7880  178.0210  144.1680 C   0  0  0  0  0  1  0  0  0  0  0  0
  186.4230  178.1540  142.7950 C   0  0  2  0  0  3  0  0  0  0  0  0
  185.4280  177.7980  141.6920 C   0  0  0  0  0  2  0  0  0  0  0  0
  185.3550  178.8390  140.6180 C   0  0  0  0  0  0  0  0  0  0  0  0
  185.2410  180.0500  140.9490 O   0  0  0  0  0  0  0  0  0  0  0  0
  185.4580  178.4830  139.1950 C   0  0  0  0  0  0  0  0  0  0  0  0
  186.5830  178.4450  138.6290 O   0  0  0  0  0  0  0  0  0  0  0  0
  184.2360  178.1300  138.4070 C   0  0  0  0  0  2  0  0  0  0  0  0
  183.9660  176.6310  138.4530 C   0  0  0  0  0  2  0  0  0  0  0  0
  184.4080  175.9640  137.1510 C   0  0  2  0  0  3  0  0  0  0  0  0
  184.1190  176.9150  136.0030 C   0  0  0  0  0  1  0  0  0  0  0  0
  184.3190  173.2940  137.5860 O   0  0  0  0  0  0  0  0  0  0  0  0
  183.5530  174.3990  136.9110 S   0  0  0  0  0  0  0  0  0  0  0  0
  183.4340  174.1020  135.4400 O   0  0  0  0  0  0  0  0  0  0  0  0
  181.9180  174.4550  137.6360 C   0  0  1  0  0  3  0  0  0  0  0  0
  181.5820  175.8790  138.0620 C   0  0  0  0  0  2  0  0  0  0  0  0
  180.8780  173.9230  136.6390 C   0  0  2  0  0  3  0  0  0  0  0  0
  180.1270  175.9730  138.5690 C   0  0  2  0  0  3  0  0  0  0  0  0
  179.5750  174.7400  136.6780 C   0  0  0  0  0  2  0  0  0  0  0  0
  179.2170  175.0330  138.0090 O   0  0  0  0  0  0  0  0  0  0  0  0
  179.5530  177.3980  138.5670 C   0  0  2  0  0  0  0  0  0  0  0  0
  179.3890  178.1820  137.3130 C   0  0  0  0  0  2  0  0  0  0  0  0
  180.5280  178.3130  138.1280 O   0  0  0  0  0  0  0  0  0  0  0  0
  178.9420  177.8510  139.8280 N   0  0  0  0  0  2  0  0  0  0  0  0
  179.8000  177.6160  140.9890 C   0  0  2  0  0  3  0  0  0  0  0  0
  179.1940  176.6820  141.8360 O   0  0  0  0  0  1  0  0  0  0  0  0
  181.5790  179.0970  141.9140 C   0  0  0  0  0  1  0  0  0  0  0  0
  180.0770  178.9210  141.7290 C   0  0  2  0  0  3  0  0  0  0  0  0
  180.2060  178.3200  144.1580 C   0  0  0  0  0  1  0  0  0  0  0  0
  179.3610  178.9640  143.0750 C   0  0  0  0  0  2  0  0  0  0  0  0
  180.4740  172.1740  138.2330 O   0  0  0  0  0  1  0  0  0  0  0  0
  180.6180  172.4420  136.8730 C   0  0  0  0  0  2  0  0  0  0  0  0
  190.8820  176.1320  147.3550 O   0  0  0  0  0  0  0  0  0  0  0  0
  192.2270  176.0750  147.8280 C   0  0  0  0  0  1  0  0  0  0  0  0
  189.7980  177.7830  139.5450 C   0  0  0  0  0  2  0  0  0  0  0  0
  191.0080  176.3420  137.8300 N   0  0  0  0  0  2  0  0  0  0  0  0
  190.9560  176.9220  139.1350 C   0  0  0  0  0  0  0  0  0  0  0  0
  191.9160  176.7420  139.9320 O   0  0  0  0  0  0  0  0  0  0  0  0
  189.9470  176.5380  136.8520 C   0  0  0  0  0  2  0  0  0  0  0  0
  192.9210  173.2960  135.0000 N   0  0  0  0  0  2  0  0  0  0  0  0
  188.9630  174.2840  136.2930 C   0  0  1  0  0  3  0  0  0  0  0  0
  189.9300  175.3920  135.8370 C   0  0  2  0  0  3  0  0  0  0  0  0
  187.5310  174.7400  136.1150 C   0  0  0  0  0  1  0  0  0  0  0  0
  192.7130  175.9570  135.1730 S   0  0  0  0  0  0  0  0  0  0  0  0
  191.5950  173.5880  135.4030 C   0  0  0  0  0  0  0  0  0  0  0  0
  190.5930  172.5000  135.6620 C   0  0  0  0  0  2  0  0  0  0  0  0
  193.6450  174.4910  134.5990 C   0  0  1  0  0  3  0  0  0  0  0  0
  191.3250  174.8750  135.5610 C   0  0  0  0  0  0  0  0  0  0  0  0
  189.1740  173.0190  135.4740 C   0  0  0  0  0  2  0  0  0  0  0  0
  195.1140  174.4310  135.0190 C   0  0  0  0  0  2  0  0  0  0  0  0
  195.6160  175.4110  136.0890 C   0  0  2  0  0  0  0  0  0  0  0  0
  197.1200  175.6470  135.8560 C   0  0  0  0  0  2  0  0  0  0  0  0
  195.3860  174.8840  137.4970 C   0  0  0  0  0  0  0  0  0  0  0  0
  197.8390  173.3550  135.5890 O   0  0  0  0  0  1  0  0  0  0  0  0
  194.4250  175.2610  138.1540 O   0  0  0  0  0  0  0  0  0  0  0  0
  196.2990  173.8350  138.0620 C   0  0  0  0  0  2  0  0  0  0  0  0
  197.7610  174.2220  137.8310 C   0  0  0  0  0  2  0  0  0  0  0  0
  198.0280  174.5090  136.3540 C   0  0  2  0  0  3  0  0  0  0  0  0
  194.9680  176.6330  135.9270 O   0  0  0  0  0  1  0  0  0  0  0  0
  1 13  1  6  0  0  0
  1  8  1  0  0  0  0
  2  8  2  0  0  0  0
  2  3  1  0  0  0  0
  3  9  1  0  0  0  0
  4 10  2  0  0  0  0
  5  6  2  0  0  0  0
  5  7  1  0  0  0  0
  6  1  1  0  0  0  0
  7  2  1  0  0  0  0
  8  4  1  0  0  0  0
  9 11  2  0  0  0  0
 10 11  1  0  0  0  0
 11 44  1  0  0  0  0
 13 12  1  1  0  0  0
 14 13  1  0  0  0  0
 15 16  2  0  0  0  0
 15 14  1  0  0  0  0
 17 15  1  0  0  0  0
 18 17  2  0  0  0  0
 19 20  1  0  0  0  0
 19 17  1  0  0  0  0
 21 22  1  6  0  0  0
 21 20  1  0  0  0  0
 24 21  1  0  0  0  0
 24 23  2  0  0  0  0
 25 24  2  0  0  0  0
 26 24  1  6  0  0  0
 26 27  1  0  0  0  0
 28 30  1  0  0  0  0
 28 43  1  1  0  0  0
 28 26  1  0  0  0  0
 29 27  1  6  0  0  0
 30 31  1  0  0  0  0
 31 29  1  0  0  0  0
 32 29  1  0  0  0  0
 32 35  1  1  0  0  0
 33 34  1  0  0  0  0
 33 32  1  0  0  0  0
 34 32  1  0  0  0  0
 35 36  1  0  0  0  0
 36 39  1  0  0  0  0
 36 37  1  1  0  0  0
 39 38  1  1  0  0  0
 39 41  1  0  0  0  0
 41 40  1  0  0  0  0
 43 42  1  0  0  0  0
 44 45  1  0  0  0  0
 46  5  1  0  0  0  0
 47 48  1  0  0  0  0
 48 46  1  0  0  0  0
 48 49  2  0  0  0  0
 50 47  1  0  0  0  0
 51 56  1  0  0  0  0
 52 54  1  6  0  0  0
 53 52  1  0  0  0  0
 53 50  1  1  0  0  0
 55 59  1  0  0  0  0
 56 59  2  0  0  0  0
 56 57  1  0  0  0  0
 58 51  1  0  0  0  0
 58 61  1  1  0  0  0
 58 55  1  0  0  0  0
 59 53  1  0  0  0  0
 60 57  1  0  0  0  0
 60 52  1  0  0  0  0
 61 62  1  0  0  0  0
 62 70  1  6  0  0  0
 62 64  1  0  0  0  0
 63 62  1  0  0  0  0
 63 69  1  0  0  0  0
 64 67  1  0  0  0  0
 64 66  2  0  0  0  0
 68 67  1  0  0  0  0
 69 65  1  6  0  0  0
 69 68  1  0  0  0  0
M  END
>  <MODEL>
2

>  <REMARK>
 VINA RESULT:      -6.2      2.713     10.349
  Name = 
  22 active torsions:
  status: ('A' for Active; 'I' for Inactive)
    1  A    between atoms: C_1  and  S_58
    2  A    between atoms: C_2  and  C_64
    3  A    between atoms: C_4  and  C_41
    4  A    between atoms: C_4  and  N_43
    5  A    between atoms: C_7  and  C_31
    6  A    between atoms: C_7  and  C_45
    7  A    between atoms: C_9  and  C_25
    8  A    between atoms: C_11  and  C_23
    9  A    between atoms: C_11  and  C_32
   10  A    between atoms: C_16  and  C_27
   11  A    between atoms: C_17  and  C_29
   12  A    between atoms: C_19  and  C_54
   13  A    between atoms: N_22  and  C_49
   14  A    between atoms: C_23  and  C_64
   15  A    between atoms: C_25  and  C_50
   16  A    between atoms: C_26  and  C_49
   17  A    between atoms: C_27  and  C_35
   18  A    between atoms: C_29  and  C_60
   19  A    between atoms: C_31  and  C_32
   20  A    between atoms: C_35  and  N_43
   21  A    between atoms: O_39  and  C_70
   22  A    between atoms: C_45  and  S_58
                            x       y       z     vdW  Elec       q    Type
                         _______ _______ _______ _____ _____    ______ ____

>  <TORSDO>
F 22

$$$$
