=
 OpenBabel11032420593D

 39 43  0  0  1  0  0  0  0  0999 V2000
  188.5350  177.7110  145.5910 C   0  0  0  0  0  0  0  0  0  0  0  0
  184.1620  178.6810  140.7020 C   0  0  0  0  0  2  0  0  0  0  0  0
  186.3590  178.1420  144.9480 C   0  0  0  0  0  0  0  0  0  0  0  0
  183.8690  178.6310  144.4060 C   0  0  0  0  0  3  0  0  0  0  0  0
  187.6370  177.9110  144.4510 C   0  0  1  0  0  3  0  0  0  0  0  0
  190.5260  177.2990  146.8680 C   0  0  0  0  0  3  0  0  0  0  0  0
  189.7800  177.4110  148.0580 C   0  0  0  0  0  3  0  0  0  0  0  0
  187.7990  177.8210  146.7610 C   0  0  0  0  0  0  0  0  0  0  0  0
  184.2920  178.6150  142.0280 C   0  0  0  0  0  0  0  0  0  0  0  0
  187.6640  177.7840  149.1830 O   0  0  0  0  0  1  0  0  0  0  0  0
  188.4010  177.6740  148.0120 C   0  0  0  0  0  0  0  0  0  0  0  0
  186.4080  178.0940  146.4060 C   0  0  0  0  0  0  0  0  0  0  0  0
  186.8140  178.1290  142.1840 C   0  0  0  0  0  3  0  0  0  0  0  0
  185.2980  178.3680  144.0760 C   0  0  0  0  0  0  0  0  0  0  0  0
  187.8950  177.8970  143.0680 C   0  0  0  0  0  0  0  0  0  0  0  0
  183.1910  178.8010  143.0310 C   0  0  0  0  0  3  0  0  0  0  0  0
  189.9050  177.4500  145.6160 C   0  0  0  0  0  3  0  0  0  0  0  0
  185.5330  178.3590  142.7200 C   0  0  0  0  0  0  0  0  0  0  0  0
  185.4440  178.2580  147.1990 O   0  0  0  0  0  0  0  0  0  0  0  0
  182.8550  178.9390  140.0240 C   0  0  0  0  0  2  0  0  0  0  0  0
  184.0960  180.6270  138.8920 O   0  0  0  0  0  0  0  0  0  0  0  0
  182.9890  180.0390  139.0260 C   0  0  0  0  0  0  0  0  0  0  0  0
  181.3330  181.6890  138.2630 C   0  0  0  0  0  1  0  0  0  0  0  0
  181.8950  180.3860  138.2350 O   0  0  0  0  0  0  0  0  0  0  0  0
  189.2200  177.6610  142.5800 N   0  0  0  0  0  2  0  0  0  0  0  0
  189.6180  176.4420  141.8870 C   0  0  2  0  0  3  0  0  0  0  0  0
  190.4560  175.5840  142.8230 C   0  0  0  0  0  1  0  0  0  0  0  0
  190.4180  176.7940  140.6350 C   0  0  2  0  0  3  0  0  0  0  0  0
  191.6360  177.3770  140.9960 O   0  0  0  0  0  1  0  0  0  0  0  0
  189.6400  177.7680  139.7650 C   0  0  0  0  0  2  0  0  0  0  0  0
  189.3990  177.1880  138.4890 O   0  0  0  0  0  0  0  0  0  0  0  0
  186.4630  175.5940  136.8580 C   0  0  0  0  0  0  0  0  0  0  0  0
  185.5120  176.6070  137.0060 C   0  0  0  0  0  3  0  0  0  0  0  0
  187.7590  175.7770  137.3480 C   0  0  0  0  0  3  0  0  0  0  0  0
  187.1540  177.9840  138.1330 C   0  0  0  0  0  3  0  0  0  0  0  0
  188.1120  176.9760  137.9890 C   0  0  0  0  0  0  0  0  0  0  0  0
  185.8570  177.8020  137.6440 C   0  0  0  0  0  3  0  0  0  0  0  0
  185.8230  173.3760  135.6770 N   0  0  0  0  0  0  0  0  0  0  0  0
  186.1080  174.3660  136.2030 C   0  0  0  0  0  0  0  0  0  0  0  0
  1 17  2  0  0  0  0
  1  8  1  0  0  0  0
  2  9  1  0  0  0  0
  3 12  1  0  0  0  0
  5 15  1  1  0  0  0
  5  3  1  0  0  0  0
  5  1  1  0  0  0  0
  6  7  2  0  0  0  0
  8 11  2  0  0  0  0
  9 18  2  0  0  0  0
  9 16  1  0  0  0  0
 11  7  1  0  0  0  0
 11 10  1  0  0  0  0
 12  8  1  0  0  0  0
 12 19  2  0  0  0  0
 13 18  1  0  0  0  0
 13 15  2  0  0  0  0
 14  4  1  0  0  0  0
 14  3  2  0  0  0  0
 16  4  2  0  0  0  0
 17  6  1  0  0  0  0
 18 14  1  0  0  0  0
 20  2  1  0  0  0  0
 21 22  2  0  0  0  0
 22 20  1  0  0  0  0
 24 23  1  0  0  0  0
 24 22  1  0  0  0  0
 25 15  1  0  0  0  0
 26 25  1  0  0  0  0
 26 27  1  1  0  0  0
 28 29  1  1  0  0  0
 28 26  1  0  0  0  0
 30 28  1  0  0  0  0
 31 30  1  0  0  0  0
 32 33  2  0  0  0  0
 32 34  1  0  0  0  0
 33 37  1  0  0  0  0
 34 36  2  0  0  0  0
 36 35  1  0  0  0  0
 36 31  1  0  0  0  0
 37 35  2  0  0  0  0
 38 39  3  0  0  0  0
 39 32  1  0  0  0  0
M  END
>  <MODEL>
1

>  <REMARK>
 VINA RESULT:      -9.8      0.000      0.000
  Name = 
  10 active torsions:
  status: ('A' for Active; 'I' for Inactive)
    1  A    between atoms: C_1  and  C_8
    2  A    between atoms: C_6  and  C_26
    3  A    between atoms: C_6  and  C_30
    4  A    between atoms: C_9  and  C_12
    5  A    between atoms: C_12  and  C_33
    6  A    between atoms: O_14  and  C_20
    7  A    between atoms: O_14  and  C_30
    8  A    between atoms: C_26  and  N_34
    9  A    between atoms: C_31  and  N_34
   10  A    between atoms: C_33  and  O_37
                            x       y       z     vdW  Elec       q    Type
                         _______ _______ _______ _____ _____    ______ ____

>  <TORSDO>
F 10

$$$$
=
 OpenBabel11032420593D

 39 43  0  0  1  0  0  0  0  0999 V2000
  188.0890  177.5670  145.4420 C   0  0  0  0  0  0  0  0  0  0  0  0
  183.0030  178.6120  141.3190 C   0  0  0  0  0  2  0  0  0  0  0  0
  185.9030  178.2500  145.1390 C   0  0  0  0  0  0  0  0  0  0  0  0
  183.4410  179.0510  144.9820 C   0  0  0  0  0  3  0  0  0  0  0  0
  187.0180  177.7670  144.4630 C   0  0  2  0  0  3  0  0  0  0  0  0
  190.2220  177.0070  146.3920 C   0  0  0  0  0  3  0  0  0  0  0  0
  189.7460  177.3740  147.6660 C   0  0  0  0  0  3  0  0  0  0  0  0
  187.6180  177.9290  146.6960 C   0  0  0  0  0  0  0  0  0  0  0  0
  183.3820  178.6850  142.5960 C   0  0  0  0  0  0  0  0  0  0  0  0
  187.9590  178.2030  149.0820 O   0  0  0  0  0  1  0  0  0  0  0  0
  188.4310  177.8410  147.8270 C   0  0  0  0  0  0  0  0  0  0  0  0
  186.2320  178.3700  146.5570 C   0  0  0  0  0  0  0  0  0  0  0  0
  185.8010  177.8370  142.3710 C   0  0  0  0  0  3  0  0  0  0  0  0
  184.7300  178.5320  144.4460 C   0  0  0  0  0  0  0  0  0  0  0  0
  186.9950  177.5470  143.0730 C   0  0  0  0  0  0  0  0  0  0  0  0
  182.5330  179.1590  143.7400 C   0  0  0  0  0  3  0  0  0  0  0  0
  189.3920  177.1020  145.2620 C   0  0  0  0  0  3  0  0  0  0  0  0
  184.6910  178.3250  143.0870 C   0  0  0  0  0  0  0  0  0  0  0  0
  185.4720  178.7750  147.4760 O   0  0  0  0  0  0  0  0  0  0  0  0
  181.6330  178.9870  140.8530 C   0  0  0  0  0  2  0  0  0  0  0  0
  180.9070  176.8560  140.0780 O   0  0  0  0  0  0  0  0  0  0  0  0
  180.7240  177.8060  140.8870 C   0  0  0  0  0  0  0  0  0  0  0  0
  179.0390  178.9250  142.2870 C   0  0  0  0  0  1  0  0  0  0  0  0
  179.6980  177.7540  141.8300 O   0  0  0  0  0  0  0  0  0  0  0  0
  188.1560  177.0530  142.3980 N   0  0  0  0  0  2  0  0  0  0  0  0
  189.0840  177.9050  141.6630 C   0  0  2  0  0  3  0  0  0  0  0  0
  188.4400  178.3340  140.3530 C   0  0  0  0  0  1  0  0  0  0  0  0
  190.3800  177.1470  141.3910 C   0  0  2  0  0  3  0  0  0  0  0  0
  191.4190  177.6900  142.1520 O   0  0  0  0  0  1  0  0  0  0  0  0
  190.7460  177.2360  139.9180 C   0  0  0  0  0  2  0  0  0  0  0  0
  190.8060  175.9300  139.3560 O   0  0  0  0  0  0  0  0  0  0  0  0
  193.0210  175.9340  136.3710 C   0  0  0  0  0  0  0  0  0  0  0  0
  192.2640  175.1520  135.4940 C   0  0  0  0  0  3  0  0  0  0  0  0
  192.5460  176.1990  137.6580 C   0  0  0  0  0  3  0  0  0  0  0  0
  190.5570  174.9020  137.1930 C   0  0  0  0  0  3  0  0  0  0  0  0
  191.3080  175.6830  138.0760 C   0  0  0  0  0  0  0  0  0  0  0  0
  191.0320  174.6360  135.9050 C   0  0  0  0  0  3  0  0  0  0  0  0
  195.3080  176.8920  135.6100 N   0  0  0  0  0  0  0  0  0  0  0  0
  194.2880  176.4640  135.9490 C   0  0  0  0  0  0  0  0  0  0  0  0
  1  8  1  0  0  0  0
  2  9  1  0  0  0  0
  3 12  1  0  0  0  0
  5 15  1  1  0  0  0
  5  3  1  0  0  0  0
  5  1  1  0  0  0  0
  6  7  2  0  0  0  0
  7 11  1  0  0  0  0
  8 11  2  0  0  0  0
  9 18  2  0  0  0  0
  9 16  1  0  0  0  0
 11 10  1  0  0  0  0
 12  8  1  0  0  0  0
 12 19  2  0  0  0  0
 13 15  2  0  0  0  0
 13 18  1  0  0  0  0
 14  4  1  0  0  0  0
 14  3  2  0  0  0  0
 16  4  2  0  0  0  0
 17  1  2  0  0  0  0
 17  6  1  0  0  0  0
 18 14  1  0  0  0  0
 20 22  1  0  0  0  0
 20  2  1  0  0  0  0
 21 22  2  0  0  0  0
 22 24  1  0  0  0  0
 24 23  1  0  0  0  0
 25 15  1  0  0  0  0
 26 27  1  6  0  0  0
 26 25  1  0  0  0  0
 28 26  1  0  0  0  0
 28 29  1  1  0  0  0
 30 28  1  0  0  0  0
 31 30  1  0  0  0  0
 32 34  1  0  0  0  0
 33 37  1  0  0  0  0
 33 32  2  0  0  0  0
 34 36  2  0  0  0  0
 35 36  1  0  0  0  0
 36 31  1  0  0  0  0
 37 35  2  0  0  0  0
 38 39  3  0  0  0  0
 39 32  1  0  0  0  0
M  END
>  <MODEL>
2

>  <REMARK>
 VINA RESULT:      -9.7      2.814      3.580
  Name = 
  10 active torsions:
  status: ('A' for Active; 'I' for Inactive)
    1  A    between atoms: C_1  and  C_8
    2  A    between atoms: C_6  and  C_26
    3  A    between atoms: C_6  and  C_30
    4  A    between atoms: C_9  and  C_12
    5  A    between atoms: C_12  and  C_33
    6  A    between atoms: O_14  and  C_20
    7  A    between atoms: O_14  and  C_30
    8  A    between atoms: C_26  and  N_34
    9  A    between atoms: C_31  and  N_34
   10  A    between atoms: C_33  and  O_37
                            x       y       z     vdW  Elec       q    Type
                         _______ _______ _______ _____ _____    ______ ____

>  <TORSDO>
F 10

$$$$
=
 OpenBabel11032420593D

 39 43  0  0  1  0  0  0  0  0999 V2000
  185.2090  178.1490  142.8280 C   0  0  0  0  0  0  0  0  0  0  0  0
  190.4460  177.0720  146.7480 C   0  0  0  0  0  2  0  0  0  0  0  0
  186.1120  178.1350  144.9540 C   0  0  0  0  0  0  0  0  0  0  0  0
  186.9590  178.1730  147.4060 C   0  0  0  0  0  3  0  0  0  0  0  0
  186.4150  177.8910  143.6180 C   0  0  0  0  0  0  0  0  0  0  0  0
  183.7270  178.3610  140.9500 C   0  0  0  0  0  3  0  0  0  0  0  0
  182.6920  178.7630  141.8180 C   0  0  0  0  0  3  0  0  0  0  0  0
  184.1920  178.5450  143.6840 C   0  0  0  0  0  0  0  0  0  0  0  0
  189.1670  177.4520  146.7460 C   0  0  0  0  0  0  0  0  0  0  0  0
  181.9020  179.2540  144.0580 O   0  0  0  0  0  1  0  0  0  0  0  0
  182.9200  178.8580  143.2010 C   0  0  0  0  0  0  0  0  0  0  0  0
  184.7160  178.5530  145.0480 C   0  0  0  0  0  0  0  0  0  0  0  0
  188.6830  177.2990  144.2240 C   0  0  0  0  0  3  0  0  0  0  0  0
  187.0830  177.9660  145.9350 C   0  0  0  0  0  0  0  0  0  0  0  0
  187.6980  177.4730  143.2220 C   0  0  0  0  0  0  0  0  0  0  0  0
  188.3570  177.8250  147.9540 C   0  0  0  0  0  2  0  0  0  0  0  0
  185.0020  178.0480  141.4510 C   0  0  0  0  0  3  0  0  0  0  0  0
  188.3430  177.5550  145.5660 C   0  0  0  0  0  0  0  0  0  0  0  0
  184.0880  178.8570  146.0960 O   0  0  0  0  0  0  0  0  0  0  0  0
  191.2680  176.9870  147.9940 C   0  0  0  0  0  2  0  0  0  0  0  0
  192.3960  175.2490  146.8210 O   0  0  0  0  0  0  0  0  0  0  0  0
  192.3860  176.0160  147.8220 C   0  0  0  0  0  0  0  0  0  0  0  0
  193.5290  176.9550  149.7870 C   0  0  0  0  0  1  0  0  0  0  0  0
  193.4210  175.9850  148.7560 O   0  0  0  0  0  0  0  0  0  0  0  0
  187.9850  177.2240  141.8420 N   0  0  0  0  0  2  0  0  0  0  0  0
  189.0170  177.9320  141.0940 C   0  0  2  0  0  3  0  0  0  0  0  0
  188.4350  178.4180  139.7740 C   0  0  0  0  0  1  0  0  0  0  0  0
  190.2030  177.0050  140.8390 C   0  0  2  0  0  3  0  0  0  0  0  0
  191.3240  177.4620  141.5370 O   0  0  0  0  0  1  0  0  0  0  0  0
  190.5280  176.9570  139.3550 C   0  0  0  0  0  2  0  0  0  0  0  0
  190.7800  175.6140  138.9590 O   0  0  0  0  0  0  0  0  0  0  0  0
  193.3430  175.7590  136.2700 C   0  0  0  0  0  0  0  0  0  0  0  0
  193.0390  174.5890  135.5690 C   0  0  0  0  0  3  0  0  0  0  0  0
  192.5990  176.1100  137.4000 C   0  0  0  0  0  3  0  0  0  0  0  0
  191.2450  174.1220  137.1270 C   0  0  0  0  0  3  0  0  0  0  0  0
  191.5430  175.2910  137.8350 C   0  0  0  0  0  0  0  0  0  0  0  0
  191.9900  173.7700  135.9970 C   0  0  0  0  0  3  0  0  0  0  0  0
  195.2890  177.2780  135.4780 N   0  0  0  0  0  0  0  0  0  0  0  0
  194.4210  176.6000  135.8310 C   0  0  0  0  0  0  0  0  0  0  0  0
  1  5  1  0  0  0  0
  1  8  1  0  0  0  0
  2 20  1  0  0  0  0
  3 12  1  0  0  0  0
  3 14  1  0  0  0  0
  4 16  1  0  0  0  0
  5  3  2  0  0  0  0
  6 17  1  0  0  0  0
  6  7  2  0  0  0  0
  7 11  1  0  0  0  0
  8 12  1  0  0  0  0
  9  2  1  0  0  0  0
  9 16  1  0  0  0  0
 11  8  2  0  0  0  0
 11 10  1  0  0  0  0
 12 19  2  0  0  0  0
 13 18  1  0  0  0  0
 14  4  2  0  0  0  0
 15  5  1  0  0  0  0
 15 13  2  0  0  0  0
 17  1  2  0  0  0  0
 18 14  1  0  0  0  0
 18  9  2  0  0  0  0
 21 22  2  0  0  0  0
 22 20  1  0  0  0  0
 22 24  1  0  0  0  0
 24 23  1  0  0  0  0
 25 15  1  0  0  0  0
 26 27  1  6  0  0  0
 26 25  1  0  0  0  0
 28 26  1  0  0  0  0
 28 29  1  1  0  0  0
 30 28  1  0  0  0  0
 31 30  1  0  0  0  0
 32 34  1  0  0  0  0
 33 37  1  0  0  0  0
 33 32  2  0  0  0  0
 34 36  2  0  0  0  0
 35 36  1  0  0  0  0
 36 31  1  0  0  0  0
 37 35  2  0  0  0  0
 38 39  3  0  0  0  0
 39 32  1  0  0  0  0
M  END
>  <MODEL>
3

>  <REMARK>
 VINA RESULT:      -9.7      3.211      7.357
  Name = 
  10 active torsions:
  status: ('A' for Active; 'I' for Inactive)
    1  A    between atoms: C_1  and  C_8
    2  A    between atoms: C_6  and  C_26
    3  A    between atoms: C_6  and  C_30
    4  A    between atoms: C_9  and  C_12
    5  A    between atoms: C_12  and  C_33
    6  A    between atoms: O_14  and  C_20
    7  A    between atoms: O_14  and  C_30
    8  A    between atoms: C_26  and  N_34
    9  A    between atoms: C_31  and  N_34
   10  A    between atoms: C_33  and  O_37
                            x       y       z     vdW  Elec       q    Type
                         _______ _______ _______ _____ _____    ______ ____

>  <TORSDO>
F 10

$$$$
=
 OpenBabel11032420593D

 39 43  0  0  1  0  0  0  0  0999 V2000
  188.1050  177.5680  145.4290 C   0  0  0  0  0  0  0  0  0  0  0  0
  183.0710  178.6090  141.2420 C   0  0  0  0  0  2  0  0  0  0  0  0
  185.9190  178.2370  145.1000 C   0  0  0  0  0  0  0  0  0  0  0  0
  183.4530  179.0210  144.9140 C   0  0  0  0  0  3  0  0  0  0  0  0
  187.0470  177.7680  144.4350 C   0  0  2  0  0  3  0  0  0  0  0  0
  190.2290  177.0160  146.4040 C   0  0  0  0  0  3  0  0  0  0  0  0
  189.7320  177.3690  147.6740 C   0  0  0  0  0  3  0  0  0  0  0  0
  187.6140  177.9160  146.6780 C   0  0  0  0  0  0  0  0  0  0  0  0
  183.4310  178.6750  142.5240 C   0  0  0  0  0  0  0  0  0  0  0  0
  187.9180  178.1730  149.0710 O   0  0  0  0  0  1  0  0  0  0  0  0
  188.4110  177.8240  147.8200 C   0  0  0  0  0  0  0  0  0  0  0  0
  186.2260  178.3480  146.5230 C   0  0  0  0  0  0  0  0  0  0  0  0
  185.8590  177.8460  142.3270 C   0  0  0  0  0  3  0  0  0  0  0  0
  184.7540  178.5160  144.3930 C   0  0  0  0  0  0  0  0  0  0  0  0
  187.0450  177.5590  143.0440 C   0  0  0  0  0  0  0  0  0  0  0  0
  182.5620  179.1320  143.6600 C   0  0  0  0  0  3  0  0  0  0  0  0
  189.4140  177.1140  145.2630 C   0  0  0  0  0  3  0  0  0  0  0  0
  184.7350  178.3200  143.0310 C   0  0  0  0  0  0  0  0  0  0  0  0
  185.4510  178.7390  147.4340 O   0  0  0  0  0  0  0  0  0  0  0  0
  181.7040  178.9780  140.7600 C   0  0  0  0  0  2  0  0  0  0  0  0
  182.8080  180.1060  138.9760 O   0  0  0  0  0  0  0  0  0  0  0  0
  181.7640  179.5190  139.3710 C   0  0  0  0  0  0  0  0  0  0  0  0
  179.4520  178.7850  138.9680 C   0  0  0  0  0  1  0  0  0  0  0  0
  180.6750  179.3460  138.5180 O   0  0  0  0  0  0  0  0  0  0  0  0
  188.2190  177.0790  142.3810 N   0  0  0  0  0  2  0  0  0  0  0  0
  189.1660  177.9480  141.6920 C   0  0  2  0  0  3  0  0  0  0  0  0
  188.5540  178.4170  140.3800 C   0  0  0  0  0  1  0  0  0  0  0  0
  190.4660  177.1920  141.4270 C   0  0  2  0  0  3  0  0  0  0  0  0
  191.5060  177.7580  142.1700 O   0  0  0  0  0  1  0  0  0  0  0  0
  190.8220  177.2510  139.9510 C   0  0  0  0  0  2  0  0  0  0  0  0
  190.8190  175.9390  139.4010 O   0  0  0  0  0  0  0  0  0  0  0  0
  193.0070  175.9060  136.3960 C   0  0  0  0  0  0  0  0  0  0  0  0
  192.2850  175.0420  135.5680 C   0  0  0  0  0  3  0  0  0  0  0  0
  192.5280  176.2120  137.6730 C   0  0  0  0  0  3  0  0  0  0  0  0
  190.6060  174.7900  137.2950 C   0  0  0  0  0  3  0  0  0  0  0  0
  191.3230  175.6540  138.1300 C   0  0  0  0  0  0  0  0  0  0  0  0
  191.0850  174.4840  136.0170 C   0  0  0  0  0  3  0  0  0  0  0  0
  195.2340  176.9420  135.5640 N   0  0  0  0  0  0  0  0  0  0  0  0
  194.2400  176.4800  135.9350 C   0  0  0  0  0  0  0  0  0  0  0  0
  1  8  1  0  0  0  0
  2  9  1  0  0  0  0
  3 12  1  0  0  0  0
  5 15  1  1  0  0  0
  5  3  1  0  0  0  0
  5  1  1  0  0  0  0
  6  7  2  0  0  0  0
  7 11  1  0  0  0  0
  8 11  2  0  0  0  0
  9 18  2  0  0  0  0
  9 16  1  0  0  0  0
 11 10  1  0  0  0  0
 12  8  1  0  0  0  0
 12 19  2  0  0  0  0
 13 18  1  0  0  0  0
 13 15  2  0  0  0  0
 14  4  1  0  0  0  0
 14  3  2  0  0  0  0
 16  4  2  0  0  0  0
 17  1  2  0  0  0  0
 17  6  1  0  0  0  0
 18 14  1  0  0  0  0
 20  2  1  0  0  0  0
 21 22  2  0  0  0  0
 22 20  1  0  0  0  0
 24 23  1  0  0  0  0
 24 22  1  0  0  0  0
 25 15  1  0  0  0  0
 26 27  1  6  0  0  0
 26 25  1  0  0  0  0
 28 26  1  0  0  0  0
 28 29  1  1  0  0  0
 30 28  1  0  0  0  0
 31 30  1  0  0  0  0
 32 34  1  0  0  0  0
 33 37  1  0  0  0  0
 33 32  2  0  0  0  0
 34 36  2  0  0  0  0
 35 36  1  0  0  0  0
 36 31  1  0  0  0  0
 37 35  2  0  0  0  0
 38 39  3  0  0  0  0
 39 32  1  0  0  0  0
M  END
>  <MODEL>
4

>  <REMARK>
 VINA RESULT:      -9.6      2.582      3.300
  Name = 
  10 active torsions:
  status: ('A' for Active; 'I' for Inactive)
    1  A    between atoms: C_1  and  C_8
    2  A    between atoms: C_6  and  C_26
    3  A    between atoms: C_6  and  C_30
    4  A    between atoms: C_9  and  C_12
    5  A    between atoms: C_12  and  C_33
    6  A    between atoms: O_14  and  C_20
    7  A    between atoms: O_14  and  C_30
    8  A    between atoms: C_26  and  N_34
    9  A    between atoms: C_31  and  N_34
   10  A    between atoms: C_33  and  O_37
                            x       y       z     vdW  Elec       q    Type
                         _______ _______ _______ _____ _____    ______ ____

>  <TORSDO>
F 10

$$$$
=
 OpenBabel11032420593D

 39 43  0  0  1  0  0  0  0  0999 V2000
  188.1000  177.5380  145.4580 C   0  0  0  0  0  0  0  0  0  0  0  0
  183.0490  178.6190  141.3010 C   0  0  0  0  0  2  0  0  0  0  0  0
  185.9140  178.2130  145.1440 C   0  0  0  0  0  0  0  0  0  0  0  0
  183.4480  179.0030  144.9750 C   0  0  0  0  0  3  0  0  0  0  0  0
  187.0380  177.7470  144.4710 C   0  0  2  0  0  3  0  0  0  0  0  0
  190.2280  176.9760  146.4190 C   0  0  0  0  0  3  0  0  0  0  0  0
  189.7360  177.3200  147.6950 C   0  0  0  0  0  3  0  0  0  0  0  0
  187.6150  177.8770  146.7120 C   0  0  0  0  0  0  0  0  0  0  0  0
  183.4150  178.6740  142.5830 C   0  0  0  0  0  0  0  0  0  0  0  0
  187.9310  178.1160  149.1050 O   0  0  0  0  0  1  0  0  0  0  0  0
  188.4170  177.7760  147.8500 C   0  0  0  0  0  0  0  0  0  0  0  0
  186.2280  178.3130  146.5660 C   0  0  0  0  0  0  0  0  0  0  0  0
  185.8400  177.8430  142.3690 C   0  0  0  0  0  3  0  0  0  0  0  0
  184.7460  178.4990  144.4440 C   0  0  0  0  0  0  0  0  0  0  0  0
  187.0300  177.5490  143.0780 C   0  0  0  0  0  0  0  0  0  0  0  0
  182.5520  179.1250  143.7260 C   0  0  0  0  0  3  0  0  0  0  0  0
  189.4080  177.0830  145.2830 C   0  0  0  0  0  3  0  0  0  0  0  0
  184.7210  178.3140  143.0810 C   0  0  0  0  0  0  0  0  0  0  0  0
  185.4570  178.6980  147.4840 O   0  0  0  0  0  0  0  0  0  0  0  0
  181.6810  178.9940  140.8280 C   0  0  0  0  0  2  0  0  0  0  0  0
  180.0200  177.4400  141.5320 O   0  0  0  0  0  0  0  0  0  0  0  0
  180.8400  177.7780  140.6350 C   0  0  0  0  0  0  0  0  0  0  0  0
  181.3750  175.6900  139.4520 C   0  0  0  0  0  1  0  0  0  0  0  0
  180.9510  177.0440  139.4550 O   0  0  0  0  0  0  0  0  0  0  0  0
  188.2000  177.0720  142.4060 N   0  0  0  0  0  2  0  0  0  0  0  0
  189.1930  177.9500  141.7990 C   0  0  2  0  0  3  0  0  0  0  0  0
  188.5870  178.6230  140.5760 C   0  0  0  0  0  1  0  0  0  0  0  0
  190.4260  177.1420  141.3990 C   0  0  2  0  0  3  0  0  0  0  0  0
  191.5110  177.5000  142.2030 O   0  0  0  0  0  1  0  0  0  0  0  0
  190.7790  177.4000  139.9440 C   0  0  0  0  0  2  0  0  0  0  0  0
  190.8690  176.1660  139.2430 O   0  0  0  0  0  0  0  0  0  0  0  0
  188.1300  176.1430  136.7300 C   0  0  0  0  0  0  0  0  0  0  0  0
  188.7000  175.3340  135.7440 C   0  0  0  0  0  3  0  0  0  0  0  0
  188.8420  176.4260  137.8980 C   0  0  0  0  0  3  0  0  0  0  0  0
  190.6950  175.0920  137.0940 C   0  0  0  0  0  3  0  0  0  0  0  0
  190.1320  175.9010  138.0870 C   0  0  0  0  0  0  0  0  0  0  0  0
  189.9820  174.8080  135.9250 C   0  0  0  0  0  3  0  0  0  0  0  0
  185.7510  177.1190  136.3940 N   0  0  0  0  0  0  0  0  0  0  0  0
  186.8120  176.6830  136.5440 C   0  0  0  0  0  0  0  0  0  0  0  0
  1  8  1  0  0  0  0
  2  9  1  0  0  0  0
  3 12  1  0  0  0  0
  5 15  1  1  0  0  0
  5  3  1  0  0  0  0
  5  1  1  0  0  0  0
  6  7  2  0  0  0  0
  7 11  1  0  0  0  0
  8 11  2  0  0  0  0
  9 18  2  0  0  0  0
  9 16  1  0  0  0  0
 11 10  1  0  0  0  0
 12  8  1  0  0  0  0
 12 19  2  0  0  0  0
 13 15  2  0  0  0  0
 13 18  1  0  0  0  0
 14  4  1  0  0  0  0
 14  3  2  0  0  0  0
 16  4  2  0  0  0  0
 17  1  2  0  0  0  0
 17  6  1  0  0  0  0
 18 14  1  0  0  0  0
 20  2  1  0  0  0  0
 22 20  1  0  0  0  0
 22 21  2  0  0  0  0
 23 24  1  0  0  0  0
 24 22  1  0  0  0  0
 25 15  1  0  0  0  0
 26 27  1  6  0  0  0
 26 25  1  0  0  0  0
 28 26  1  0  0  0  0
 28 29  1  1  0  0  0
 30 28  1  0  0  0  0
 31 30  1  0  0  0  0
 32 34  1  0  0  0  0
 33 37  1  0  0  0  0
 33 32  2  0  0  0  0
 34 36  2  0  0  0  0
 35 36  1  0  0  0  0
 36 31  1  0  0  0  0
 37 35  2  0  0  0  0
 38 39  3  0  0  0  0
 39 32  1  0  0  0  0
M  END
>  <MODEL>
5

>  <REMARK>
 VINA RESULT:      -9.5      1.775      2.446
  Name = 
  10 active torsions:
  status: ('A' for Active; 'I' for Inactive)
    1  A    between atoms: C_1  and  C_8
    2  A    between atoms: C_6  and  C_26
    3  A    between atoms: C_6  and  C_30
    4  A    between atoms: C_9  and  C_12
    5  A    between atoms: C_12  and  C_33
    6  A    between atoms: O_14  and  C_20
    7  A    between atoms: O_14  and  C_30
    8  A    between atoms: C_26  and  N_34
    9  A    between atoms: C_31  and  N_34
   10  A    between atoms: C_33  and  O_37
                            x       y       z     vdW  Elec       q    Type
                         _______ _______ _______ _____ _____    ______ ____

>  <TORSDO>
F 10

$$$$
=
 OpenBabel11032420593D

 39 43  0  0  1  0  0  0  0  0999 V2000
  188.1400  177.5740  145.4440 C   0  0  0  0  0  0  0  0  0  0  0  0
  183.1800  178.5350  141.1500 C   0  0  0  0  0  2  0  0  0  0  0  0
  185.9600  178.2370  145.0640 C   0  0  0  0  0  0  0  0  0  0  0  0
  183.4980  179.0180  144.8200 C   0  0  0  0  0  3  0  0  0  0  0  0
  187.0990  177.7550  144.4280 C   0  0  2  0  0  3  0  0  0  0  0  0
  190.2460  177.0410  146.4660 C   0  0  0  0  0  3  0  0  0  0  0  0
  189.7270  177.4190  147.7210 C   0  0  0  0  0  3  0  0  0  0  0  0
  187.6270  177.9460  146.6770 C   0  0  0  0  0  0  0  0  0  0  0  0
  183.5170  178.6250  142.4370 C   0  0  0  0  0  0  0  0  0  0  0  0
  187.8900  178.2490  149.0700 O   0  0  0  0  0  1  0  0  0  0  0  0
  188.4040  177.8770  147.8350 C   0  0  0  0  0  0  0  0  0  0  0  0
  186.2420  178.3750  146.4890 C   0  0  0  0  0  0  0  0  0  0  0  0
  185.9480  177.7930  142.2990 C   0  0  0  0  0  3  0  0  0  0  0  0
  184.8080  178.5020  144.3310 C   0  0  0  0  0  0  0  0  0  0  0  0
  187.1220  177.5200  143.0410 C   0  0  0  0  0  0  0  0  0  0  0  0
  182.6290  179.1050  143.5490 C   0  0  0  0  0  3  0  0  0  0  0  0
  189.4510  177.1170  145.3100 C   0  0  0  0  0  3  0  0  0  0  0  0
  184.8130  178.2810  142.9730 C   0  0  0  0  0  0  0  0  0  0  0  0
  185.4510  178.7840  147.3800 O   0  0  0  0  0  0  0  0  0  0  0  0
  181.8220  178.8940  140.6370 C   0  0  0  0  0  2  0  0  0  0  0  0
  182.9450  179.7460  138.7180 O   0  0  0  0  0  0  0  0  0  0  0  0
  181.9280  179.8050  139.4610 C   0  0  0  0  0  0  0  0  0  0  0  0
  181.0740  181.8220  138.3440 C   0  0  0  0  0  1  0  0  0  0  0  0
  180.8900  180.6920  139.1820 O   0  0  0  0  0  0  0  0  0  0  0  0
  188.3070  177.0270  142.4090 N   0  0  0  0  0  2  0  0  0  0  0  0
  189.2810  177.8850  141.7460 C   0  0  2  0  0  3  0  0  0  0  0  0
  188.6630  178.4610  140.4800 C   0  0  0  0  0  1  0  0  0  0  0  0
  190.5330  177.0810  141.4030 C   0  0  2  0  0  3  0  0  0  0  0  0
  191.6050  177.5090  142.1920 O   0  0  0  0  0  1  0  0  0  0  0  0
  190.8940  177.2610  139.9370 C   0  0  0  0  0  2  0  0  0  0  0  0
  190.5790  176.0770  139.2140 O   0  0  0  0  0  0  0  0  0  0  0  0
  188.2040  176.0550  136.3540 C   0  0  0  0  0  0  0  0  0  0  0  0
  189.0980  176.1560  135.2840 C   0  0  0  0  0  3  0  0  0  0  0  0
  188.6860  176.0280  137.6660 C   0  0  0  0  0  3  0  0  0  0  0  0
  190.9540  176.2020  136.8390 C   0  0  0  0  0  3  0  0  0  0  0  0
  190.0670  176.1010  137.9150 C   0  0  0  0  0  0  0  0  0  0  0  0
  190.4730  176.2290  135.5260 C   0  0  0  0  0  3  0  0  0  0  0  0
  185.6540  175.9180  135.9070 N   0  0  0  0  0  0  0  0  0  0  0  0
  186.7920  175.9790  136.1060 C   0  0  0  0  0  0  0  0  0  0  0  0
  1  8  1  0  0  0  0
  2  9  1  0  0  0  0
  3 12  1  0  0  0  0
  5 15  1  1  0  0  0
  5  3  1  0  0  0  0
  5  1  1  0  0  0  0
  6  7  2  0  0  0  0
  7 11  1  0  0  0  0
  8 11  2  0  0  0  0
  9 18  2  0  0  0  0
  9 16  1  0  0  0  0
 11 10  1  0  0  0  0
 12  8  1  0  0  0  0
 12 19  2  0  0  0  0
 13 18  1  0  0  0  0
 13 15  2  0  0  0  0
 14  4  1  0  0  0  0
 14  3  2  0  0  0  0
 16  4  2  0  0  0  0
 17  1  2  0  0  0  0
 17  6  1  0  0  0  0
 18 14  1  0  0  0  0
 20  2  1  0  0  0  0
 21 22  2  0  0  0  0
 22 20  1  0  0  0  0
 23 24  1  0  0  0  0
 24 22  1  0  0  0  0
 25 15  1  0  0  0  0
 26 27  1  6  0  0  0
 26 25  1  0  0  0  0
 28 26  1  0  0  0  0
 28 29  1  1  0  0  0
 30 28  1  0  0  0  0
 31 30  1  0  0  0  0
 32 34  1  0  0  0  0
 33 37  1  0  0  0  0
 33 32  2  0  0  0  0
 34 36  2  0  0  0  0
 35 36  1  0  0  0  0
 36 31  1  0  0  0  0
 37 35  2  0  0  0  0
 38 39  3  0  0  0  0
 39 32  1  0  0  0  0
M  END
>  <MODEL>
6

>  <REMARK>
 VINA RESULT:      -9.4      1.312      1.790
  Name = 
  10 active torsions:
  status: ('A' for Active; 'I' for Inactive)
    1  A    between atoms: C_1  and  C_8
    2  A    between atoms: C_6  and  C_26
    3  A    between atoms: C_6  and  C_30
    4  A    between atoms: C_9  and  C_12
    5  A    between atoms: C_12  and  C_33
    6  A    between atoms: O_14  and  C_20
    7  A    between atoms: O_14  and  C_30
    8  A    between atoms: C_26  and  N_34
    9  A    between atoms: C_31  and  N_34
   10  A    between atoms: C_33  and  O_37
                            x       y       z     vdW  Elec       q    Type
                         _______ _______ _______ _____ _____    ______ ____

>  <TORSDO>
F 10

$$$$
=
 OpenBabel11032420593D

 39 43  0  0  1  0  0  0  0  0999 V2000
  189.3470  177.2450  144.2260 C   0  0  0  0  0  0  0  0  0  0  0  0
  183.0260  179.0030  143.2680 C   0  0  0  0  0  2  0  0  0  0  0  0
  187.2940  177.7930  145.1300 C   0  0  0  0  0  0  0  0  0  0  0  0
  185.0630  178.3870  146.3140 C   0  0  0  0  0  3  0  0  0  0  0  0
  187.9660  177.6280  143.9230 C   0  0  0  0  0  0  0  0  0  0  0  0
  191.6470  176.6200  143.9290 C   0  0  0  0  0  3  0  0  0  0  0  0
  191.8040  176.5540  145.3280 C   0  0  0  0  0  3  0  0  0  0  0  0
  189.5000  177.1810  145.6020 C   0  0  0  0  0  0  0  0  0  0  0  0
  183.9340  178.7320  144.2070 C   0  0  0  0  0  0  0  0  0  0  0  0
  190.8760  176.7730  147.5590 O   0  0  0  0  0  1  0  0  0  0  0  0
  190.7230  176.8370  146.1800 C   0  0  0  0  0  0  0  0  0  0  0  0
  188.2210  177.5210  146.2230 C   0  0  0  0  0  0  0  0  0  0  0  0
  185.9540  178.2010  142.7040 C   0  0  0  0  0  3  0  0  0  0  0  0
  185.9520  178.1620  145.1400 C   0  0  0  0  0  0  0  0  0  0  0  0
  187.3180  177.8230  142.6900 C   0  0  0  0  0  0  0  0  0  0  0  0
  183.7070  178.7740  145.6910 C   0  0  0  0  0  2  0  0  0  0  0  0
  190.4080  176.9680  143.3630 C   0  0  0  0  0  3  0  0  0  0  0  0
  185.3040  178.3600  143.9430 C   0  0  0  0  0  0  0  0  0  0  0  0
  187.9700  177.5700  147.4560 O   0  0  0  0  0  0  0  0  0  0  0  0
  181.6140  179.3770  143.5860 C   0  0  0  0  0  2  0  0  0  0  0  0
  179.7130  179.9730  142.2810 O   0  0  0  0  0  0  0  0  0  0  0  0
  180.7560  179.2700  142.3710 C   0  0  0  0  0  0  0  0  0  0  0  0
  180.3150  178.2170  140.1930 C   0  0  0  0  0  1  0  0  0  0  0  0
  181.1300  178.4120  141.3380 O   0  0  0  0  0  0  0  0  0  0  0  0
  188.0320  177.6520  141.4610 N   0  0  0  0  0  2  0  0  0  0  0  0
  187.9010  178.5520  140.3220 C   0  0  2  0  0  3  0  0  0  0  0  0
  186.5980  178.2540  139.5950 C   0  0  0  0  0  1  0  0  0  0  0  0
  189.0860  178.3700  139.3760 C   0  0  2  0  0  3  0  0  0  0  0  0
  189.0610  179.3540  138.3850 O   0  0  0  0  0  1  0  0  0  0  0  0
  189.0320  177.0010  138.7180 C   0  0  0  0  0  2  0  0  0  0  0  0
  190.2040  176.2630  139.0430 O   0  0  0  0  0  0  0  0  0  0  0  0
  192.9660  175.7330  136.6110 C   0  0  0  0  0  0  0  0  0  0  0  0
  192.6290  174.4690  136.1190 C   0  0  0  0  0  3  0  0  0  0  0  0
  192.1660  176.3400  137.5840 C   0  0  0  0  0  3  0  0  0  0  0  0
  190.6940  174.4190  137.5730 C   0  0  0  0  0  3  0  0  0  0  0  0
  191.0230  175.6840  138.0710 C   0  0  0  0  0  0  0  0  0  0  0  0
  191.4940  173.8110  136.6000 C   0  0  0  0  0  3  0  0  0  0  0  0
  195.0720  176.9550  135.7190 N   0  0  0  0  0  0  0  0  0  0  0  0
  194.1330  176.4090  136.1170 C   0  0  0  0  0  0  0  0  0  0  0  0
  1  8  1  0  0  0  0
  2 20  1  0  0  0  0
  2  9  1  0  0  0  0
  3 14  1  0  0  0  0
  3 12  1  0  0  0  0
  5  1  1  0  0  0  0
  5  3  2  0  0  0  0
  6  7  2  0  0  0  0
  7 11  1  0  0  0  0
  8 11  2  0  0  0  0
  8 12  1  0  0  0  0
  9 16  1  0  0  0  0
 11 10  1  0  0  0  0
 12 19  2  0  0  0  0
 13 18  1  0  0  0  0
 14  4  2  0  0  0  0
 15 13  2  0  0  0  0
 15  5  1  0  0  0  0
 16  4  1  0  0  0  0
 17  6  1  0  0  0  0
 17  1  2  0  0  0  0
 18  9  2  0  0  0  0
 18 14  1  0  0  0  0
 21 22  2  0  0  0  0
 22 20  1  0  0  0  0
 23 24  1  0  0  0  0
 24 22  1  0  0  0  0
 25 15  1  0  0  0  0
 26 27  1  6  0  0  0
 26 25  1  0  0  0  0
 28 29  1  6  0  0  0
 28 26  1  0  0  0  0
 30 31  1  0  0  0  0
 30 28  1  0  0  0  0
 32 34  1  0  0  0  0
 33 37  1  0  0  0  0
 33 32  2  0  0  0  0
 34 36  2  0  0  0  0
 35 36  1  0  0  0  0
 36 31  1  0  0  0  0
 37 35  2  0  0  0  0
 38 39  3  0  0  0  0
 39 32  1  0  0  0  0
M  END
>  <MODEL>
7

>  <REMARK>
 VINA RESULT:      -9.2      2.881      4.038
  Name = 
  10 active torsions:
  status: ('A' for Active; 'I' for Inactive)
    1  A    between atoms: C_1  and  C_8
    2  A    between atoms: C_6  and  C_26
    3  A    between atoms: C_6  and  C_30
    4  A    between atoms: C_9  and  C_12
    5  A    between atoms: C_12  and  C_33
    6  A    between atoms: O_14  and  C_20
    7  A    between atoms: O_14  and  C_30
    8  A    between atoms: C_26  and  N_34
    9  A    between atoms: C_31  and  N_34
   10  A    between atoms: C_33  and  O_37
                            x       y       z     vdW  Elec       q    Type
                         _______ _______ _______ _____ _____    ______ ____

>  <TORSDO>
F 10

$$$$
=
 OpenBabel11032420593D

 39 43  0  0  1  0  0  0  0  0999 V2000
  188.3740  177.7380  145.6360 C   0  0  0  0  0  0  0  0  0  0  0  0
  183.8460  178.6970  140.8870 C   0  0  0  0  0  2  0  0  0  0  0  0
  186.1770  178.1620  145.0610 C   0  0  0  0  0  0  0  0  0  0  0  0
  183.6700  178.6440  144.5980 C   0  0  0  0  0  3  0  0  0  0  0  0
  187.4400  177.9360  144.5240 C   0  0  2  0  0  3  0  0  0  0  0  0
  190.4060  177.3320  146.8490 C   0  0  0  0  0  3  0  0  0  0  0  0
  189.6970  177.4400  148.0620 C   0  0  0  0  0  3  0  0  0  0  0  0
  187.6740  177.8440  146.8280 C   0  0  0  0  0  0  0  0  0  0  0  0
  184.0180  178.6300  142.2080 C   0  0  0  0  0  0  0  0  0  0  0  0
  187.6160  177.8060  149.2530 O   0  0  0  0  0  1  0  0  0  0  0  0
  188.3160  177.6990  148.0590 C   0  0  0  0  0  0  0  0  0  0  0  0
  186.2720  178.1130  146.5170 C   0  0  0  0  0  0  0  0  0  0  0  0
  186.5460  178.1520  142.2850 C   0  0  0  0  0  3  0  0  0  0  0  0
  185.0890  178.3850  144.2230 C   0  0  0  0  0  0  0  0  0  0  0  0
  187.6550  177.9230  143.1340 C   0  0  0  0  0  0  0  0  0  0  0  0
  182.9480  178.8120  143.2460 C   0  0  0  0  0  3  0  0  0  0  0  0
  189.7450  177.4810  145.6170 C   0  0  0  0  0  3  0  0  0  0  0  0
  185.2810  178.3780  142.8610 C   0  0  0  0  0  0  0  0  0  0  0  0
  185.3330  178.2730  147.3400 O   0  0  0  0  0  0  0  0  0  0  0  0
  182.5180  178.9510  140.2510 C   0  0  0  0  0  2  0  0  0  0  0  0
  180.8710  177.4860  139.3510 O   0  0  0  0  0  0  0  0  0  0  0  0
  182.0940  177.7810  139.4310 C   0  0  0  0  0  0  0  0  0  0  0  0
  182.8740  175.6630  138.4530 C   0  0  0  0  0  1  0  0  0  0  0  0
  183.0530  177.0410  138.7400 O   0  0  0  0  0  0  0  0  0  0  0  0
  188.9640  177.6920  142.6040 N   0  0  0  0  0  2  0  0  0  0  0  0
  189.3550  176.4590  141.9320 C   0  0  2  0  0  3  0  0  0  0  0  0
  190.2060  175.6220  142.8760 C   0  0  0  0  0  1  0  0  0  0  0  0
  190.1390  176.7850  140.6630 C   0  0  2  0  0  3  0  0  0  0  0  0
  191.4500  177.1410  140.9920 O   0  0  0  0  0  1  0  0  0  0  0  0
  189.4840  177.9350  139.9170 C   0  0  0  0  0  2  0  0  0  0  0  0
  188.2470  177.5070  139.3590 O   0  0  0  0  0  0  0  0  0  0  0  0
  186.5020  177.3180  136.0830 C   0  0  0  0  0  0  0  0  0  0  0  0
  187.5830  177.4740  135.2120 C   0  0  0  0  0  3  0  0  0  0  0  0
  186.7110  177.3270  137.4640 C   0  0  0  0  0  3  0  0  0  0  0  0
  189.0830  177.6480  137.1050 C   0  0  0  0  0  3  0  0  0  0  0  0
  188.0060  177.4920  137.9840 C   0  0  0  0  0  0  0  0  0  0  0  0
  188.8740  177.6390  135.7220 C   0  0  0  0  0  3  0  0  0  0  0  0
  184.1070  177.0130  135.1360 N   0  0  0  0  0  0  0  0  0  0  0  0
  185.1750  177.1490  135.5580 C   0  0  0  0  0  0  0  0  0  0  0  0
  1  8  1  0  0  0  0
  2  9  1  0  0  0  0
  3 12  1  0  0  0  0
  5 15  1  6  0  0  0
  5  3  1  0  0  0  0
  5  1  1  0  0  0  0
  6  7  2  0  0  0  0
  8 11  2  0  0  0  0
  9 18  2  0  0  0  0
  9 16  1  0  0  0  0
 11  7  1  0  0  0  0
 11 10  1  0  0  0  0
 12  8  1  0  0  0  0
 12 19  2  0  0  0  0
 13 18  1  0  0  0  0
 13 15  2  0  0  0  0
 14  4  1  0  0  0  0
 14  3  2  0  0  0  0
 16  4  2  0  0  0  0
 17  1  2  0  0  0  0
 17  6  1  0  0  0  0
 18 14  1  0  0  0  0
 20  2  1  0  0  0  0
 21 22  2  0  0  0  0
 22 20  1  0  0  0  0
 23 24  1  0  0  0  0
 24 22  1  0  0  0  0
 25 15  1  0  0  0  0
 26 25  1  0  0  0  0
 26 27  1  1  0  0  0
 28 29  1  1  0  0  0
 28 26  1  0  0  0  0
 30 28  1  0  0  0  0
 31 30  1  0  0  0  0
 32 34  1  0  0  0  0
 33 37  1  0  0  0  0
 33 32  2  0  0  0  0
 34 36  2  0  0  0  0
 35 36  1  0  0  0  0
 36 31  1  0  0  0  0
 37 35  2  0  0  0  0
 38 39  3  0  0  0  0
 39 32  1  0  0  0  0
M  END
>  <MODEL>
8

>  <REMARK>
 VINA RESULT:      -9.1      1.440      1.899
  Name = 
  10 active torsions:
  status: ('A' for Active; 'I' for Inactive)
    1  A    between atoms: C_1  and  C_8
    2  A    between atoms: C_6  and  C_26
    3  A    between atoms: C_6  and  C_30
    4  A    between atoms: C_9  and  C_12
    5  A    between atoms: C_12  and  C_33
    6  A    between atoms: O_14  and  C_20
    7  A    between atoms: O_14  and  C_30
    8  A    between atoms: C_26  and  N_34
    9  A    between atoms: C_31  and  N_34
   10  A    between atoms: C_33  and  O_37
                            x       y       z     vdW  Elec       q    Type
                         _______ _______ _______ _____ _____    ______ ____

>  <TORSDO>
F 10

$$$$
=
 OpenBabel11032420593D

 39 43  0  0  1  0  0  0  0  0999 V2000
  185.2220  178.1810  142.9800 C   0  0  0  0  0  0  0  0  0  0  0  0
  190.4860  177.0670  146.8540 C   0  0  0  0  0  2  0  0  0  0  0  0
  186.1520  178.1880  145.0950 C   0  0  0  0  0  0  0  0  0  0  0  0
  187.0320  178.2550  147.5340 C   0  0  0  0  0  3  0  0  0  0  0  0
  186.4320  177.9120  143.7600 C   0  0  0  0  0  0  0  0  0  0  0  0
  183.7200  178.3880  141.1180 C   0  0  0  0  0  3  0  0  0  0  0  0
  182.7060  178.8290  141.9910 C   0  0  0  0  0  3  0  0  0  0  0  0
  184.2250  178.6150  143.8410 C   0  0  0  0  0  0  0  0  0  0  0  0
  189.2160  177.4730  146.8610 C   0  0  0  0  0  0  0  0  0  0  0  0
  181.9560  179.3800  144.2310 O   0  0  0  0  0  1  0  0  0  0  0  0
  182.9540  178.9460  143.3690 C   0  0  0  0  0  0  0  0  0  0  0  0
  184.7670  178.6370  145.1980 C   0  0  0  0  0  0  0  0  0  0  0  0
  188.6960  177.2840  144.3480 C   0  0  0  0  0  3  0  0  0  0  0  0
  187.1320  178.0170  146.0670 C   0  0  0  0  0  0  0  0  0  0  0  0
  187.7020  177.4590  143.3560 C   0  0  0  0  0  0  0  0  0  0  0  0
  188.4300  177.8870  148.0710 C   0  0  0  0  0  2  0  0  0  0  0  0
  184.9950  178.0580  141.6090 C   0  0  0  0  0  3  0  0  0  0  0  0
  188.3780  177.5720  145.6890 C   0  0  0  0  0  0  0  0  0  0  0  0
  184.1600  178.9750  146.2490 O   0  0  0  0  0  0  0  0  0  0  0  0
  191.3220  176.9880  148.0910 C   0  0  0  0  0  2  0  0  0  0  0  0
  192.4250  175.2240  146.9330 O   0  0  0  0  0  0  0  0  0  0  0  0
  192.4470  176.0270  147.9050 C   0  0  0  0  0  0  0  0  0  0  0  0
  193.5550  176.9190  149.9110 C   0  0  0  0  0  1  0  0  0  0  0  0
  193.5210  176.0440  148.7940 O   0  0  0  0  0  0  0  0  0  0  0  0
  187.9650  177.1770  141.9770 N   0  0  0  0  0  2  0  0  0  0  0  0
  188.9790  177.8730  141.1940 C   0  0  2  0  0  3  0  0  0  0  0  0
  188.3040  178.6280  140.0580 C   0  0  0  0  0  1  0  0  0  0  0  0
  189.9840  176.8680  140.6350 C   0  0  2  0  0  3  0  0  0  0  0  0
  190.8760  176.4790  141.6380 O   0  0  0  0  0  1  0  0  0  0  0  0
  190.7660  177.4840  139.4870 C   0  0  0  0  0  2  0  0  0  0  0  0
  190.7030  176.6330  138.3490 O   0  0  0  0  0  0  0  0  0  0  0  0
  187.7250  175.6200  136.3660 C   0  0  0  0  0  0  0  0  0  0  0  0
  187.5150  176.7810  135.6160 C   0  0  0  0  0  3  0  0  0  0  0  0
  188.7830  175.5600  137.2780 C   0  0  0  0  0  3  0  0  0  0  0  0
  189.4200  177.8200  136.6910 C   0  0  0  0  0  3  0  0  0  0  0  0
  189.6380  176.6620  137.4450 C   0  0  0  0  0  0  0  0  0  0  0  0
  188.3630  177.8810  135.7780 C   0  0  0  0  0  3  0  0  0  0  0  0
  186.1530  173.5800  136.0660 N   0  0  0  0  0  0  0  0  0  0  0  0
  186.8550  174.4900  136.2000 C   0  0  0  0  0  0  0  0  0  0  0  0
  1  5  1  0  0  0  0
  1  8  1  0  0  0  0
  2  9  1  0  0  0  0
  2 20  1  0  0  0  0
  3 12  1  0  0  0  0
  3 14  1  0  0  0  0
  4 16  1  0  0  0  0
  5  3  2  0  0  0  0
  6 17  1  0  0  0  0
  6  7  2  0  0  0  0
  7 11  1  0  0  0  0
  8 12  1  0  0  0  0
  9 16  1  0  0  0  0
 11  8  2  0  0  0  0
 11 10  1  0  0  0  0
 12 19  2  0  0  0  0
 13 18  1  0  0  0  0
 14  4  2  0  0  0  0
 15  5  1  0  0  0  0
 15 13  2  0  0  0  0
 17  1  2  0  0  0  0
 18 14  1  0  0  0  0
 18  9  2  0  0  0  0
 21 22  2  0  0  0  0
 22 20  1  0  0  0  0
 22 24  1  0  0  0  0
 24 23  1  0  0  0  0
 25 15  1  0  0  0  0
 26 27  1  6  0  0  0
 26 25  1  0  0  0  0
 28 26  1  0  0  0  0
 28 29  1  1  0  0  0
 30 28  1  0  0  0  0
 31 30  1  0  0  0  0
 32 34  1  0  0  0  0
 33 37  1  0  0  0  0
 33 32  2  0  0  0  0
 34 36  2  0  0  0  0
 35 36  1  0  0  0  0
 36 31  1  0  0  0  0
 37 35  2  0  0  0  0
 38 39  3  0  0  0  0
 39 32  1  0  0  0  0
M  END
>  <MODEL>
9

>  <REMARK>
 VINA RESULT:      -9.1      2.185      6.665
  Name = 
  10 active torsions:
  status: ('A' for Active; 'I' for Inactive)
    1  A    between atoms: C_1  and  C_8
    2  A    between atoms: C_6  and  C_26
    3  A    between atoms: C_6  and  C_30
    4  A    between atoms: C_9  and  C_12
    5  A    between atoms: C_12  and  C_33
    6  A    between atoms: O_14  and  C_20
    7  A    between atoms: O_14  and  C_30
    8  A    between atoms: C_26  and  N_34
    9  A    between atoms: C_31  and  N_34
   10  A    between atoms: C_33  and  O_37
                            x       y       z     vdW  Elec       q    Type
                         _______ _______ _______ _____ _____    ______ ____

>  <TORSDO>
F 10

$$$$
