=
 OpenBabel11042411373D

 35 38  0  0  1  0  0  0  0  0999 V2000
  187.7780  176.9270  143.5480 C   0  0  0  0  0  3  0  0  0  0  0  0
  186.6830  178.5400  142.1120 C   0  0  0  0  0  0  0  0  0  0  0  0
  188.7720  177.5010  141.4110 C   0  0  0  0  0  0  0  0  0  0  0  0
  188.8030  176.7510  142.6070 C   0  0  0  0  0  0  0  0  0  0  0  0
  187.7090  178.3730  141.1690 C   0  0  0  0  0  3  0  0  0  0  0  0
  186.7220  177.8080  143.3000 C   0  0  0  0  0  3  0  0  0  0  0  0
  183.6270  177.6960  141.5810 N   0  0  0  0  0  0  0  0  0  0  0  0
  185.4760  179.3780  141.7980 C   0  0  2  0  0  3  0  0  0  0  0  0
  184.2150  178.7350  142.4430 C   0  0  0  0  0  2  0  0  0  0  0  0
  185.3160  179.5350  140.3360 N   0  0  0  0  0  0  0  0  0  0  0  0
  184.4680  178.6320  138.3390 N   0  0  0  0  0  0  0  0  0  0  0  0
  183.6690  177.5570  138.1000 C   0  0  0  0  0  3  0  0  0  0  0  0
  182.4680  175.8270  139.4680 N   0  0  0  0  0  1  0  0  0  0  0  0
  183.2270  177.0210  139.3040 C   0  0  1  0  0  3  0  0  0  0  0  0
  184.5360  178.7300  139.6800 C   0  0  0  0  0  0  0  0  0  0  0  0
  183.7610  177.7950  140.2940 C   0  0  0  0  0  0  0  0  0  0  0  0
  190.8060  176.8350  144.9110 N   0  0  0  0  0  2  0  0  0  0  0  0
  191.6800  176.7940  146.0710 C   0  0  0  0  0  1  0  0  0  0  0  0
  189.8680  175.8170  142.8370 N   0  0  0  0  0  2  0  0  0  0  0  0
  190.8430  175.8370  143.8890 C   0  0  0  0  0  0  0  0  0  0  0  0
  191.7190  174.9310  143.9260 O   0  0  0  0  0  0  0  0  0  0  0  0
  189.8280  177.3770  140.3500 C   0  0  2  0  0  3  0  0  0  0  0  0
  191.0500  177.8780  140.8110 O   0  0  0  0  0  1  0  0  0  0  0  0
  189.4120  178.0880  139.1030 C   0  0  0  0  0  3  0  0  0  0  0  0
  189.4590  177.5030  137.9590 N   0  0  0  0  0  0  0  0  0  0  0  0
  189.0510  178.2010  136.7600 C   0  0  0  0  0  2  0  0  0  0  0  0
  187.8180  177.7630  134.7370 O   0  0  0  0  0  0  0  0  0  0  0  0
  188.0830  175.9420  136.1760 N   0  0  0  0  0  2  0  0  0  0  0  0
  188.2940  177.3110  135.8160 C   0  0  0  0  0  0  0  0  0  0  0  0
  186.1880  173.0290  137.2370 C   0  0  0  0  0  2  0  0  0  0  0  0
  187.8360  173.6040  135.4390 C   0  0  0  0  0  2  0  0  0  0  0  0
  185.6550  174.4580  137.2180 C   0  0  0  0  0  2  0  0  0  0  0  0
  187.6610  173.0110  136.8380 C   0  0  0  0  0  2  0  0  0  0  0  0
  185.8190  175.0630  135.8220 C   0  0  0  0  0  2  0  0  0  0  0  0
  187.2790  175.0310  135.3650 C   0  0  0  0  0  3  0  0  0  0  0  0
  2  6  2  0  0  0  0
  3  4  1  0  0  0  0
  4 19  1  0  0  0  0
  4  1  2  0  0  0  0
  5  3  2  0  0  0  0
  5  2  1  0  0  0  0
  6  1  1  0  0  0  0
  7  9  1  0  0  0  0
  8  2  1  6  0  0  0
  8  9  1  0  0  0  0
 10  8  1  0  0  0  0
 11 15  1  0  0  0  0
 12 11  2  0  0  0  0
 12 14  1  0  0  0  0
 14 13  1  1  0  0  0
 14 16  1  0  0  0  0
 15 16  1  0  0  0  0
 15 10  2  0  0  0  0
 16  7  2  0  0  0  0
 17 18  1  0  0  0  0
 19 20  1  0  0  0  0
 20 21  2  0  0  0  0
 20 17  1  0  0  0  0
 22 23  1  1  0  0  0
 22  3  1  0  0  0  0
 24 22  1  0  0  0  0
 25 24  2  0  0  0  0
 26 25  1  0  0  0  0
 27 29  2  0  0  0  0
 29 28  1  0  0  0  0
 29 26  1  0  0  0  0
 31 33  1  0  0  0  0
 32 30  1  0  0  0  0
 33 30  1  0  0  0  0
 34 32  1  0  0  0  0
 35 31  1  0  0  0  0
 35 34  1  0  0  0  0
 35 28  1  0  0  0  0
M  END
>  <MODEL>
1

>  <REMARK>
 VINA RESULT:      -7.7      0.000      0.000
  Name = 
  7 active torsions:
  status: ('A' for Active; 'I' for Inactive)
    1  A    between atoms: C_1  and  N_11
    2  A    between atoms: C_1  and  C_23
    3  A    between atoms: C_4  and  C_8
    4  A    between atoms: C_4  and  C_9
    5  A    between atoms: C_6  and  C_10
    6  A    between atoms: N_19  and  C_29
    7  A    between atoms: N_21  and  C_30
                            x       y       z     vdW  Elec       q    Type
                         _______ _______ _______ _____ _____    ______ ____

>  <TORSDO>
F 7

$$$$
=
 OpenBabel11042411373D

 35 38  0  0  1  0  0  0  0  0999 V2000
  184.0180  175.3250  137.4890 C   0  0  0  0  0  3  0  0  0  0  0  0
  185.3440  177.2490  136.8580 C   0  0  0  0  0  0  0  0  0  0  0  0
  183.6520  177.4500  138.5990 C   0  0  0  0  0  0  0  0  0  0  0  0
  183.3350  176.0820  138.4520 C   0  0  0  0  0  0  0  0  0  0  0  0
  184.6600  178.0140  137.8160 C   0  0  0  0  0  3  0  0  0  0  0  0
  185.0200  175.9010  136.7030 C   0  0  0  0  0  3  0  0  0  0  0  0
  188.3710  176.2040  136.5820 N   0  0  0  0  0  0  0  0  0  0  0  0
  186.5130  177.8210  136.1070 C   0  0  2  0  0  3  0  0  0  0  0  0
  187.4040  176.6630  135.5720 C   0  0  0  0  0  2  0  0  0  0  0  0
  187.2840  178.7440  136.9670 N   0  0  0  0  0  0  0  0  0  0  0  0
  188.9720  178.9840  138.5840 N   0  0  0  0  0  0  0  0  0  0  0  0
  189.8610  178.0930  139.1030 C   0  0  0  0  0  3  0  0  0  0  0  0
  190.4480  175.6770  138.7520 N   0  0  0  0  0  1  0  0  0  0  0  0
  189.7650  176.8830  138.4260 C   0  0  1  0  0  3  0  0  0  0  0  0
  188.3210  178.3100  137.6180 C   0  0  0  0  0  0  0  0  0  0  0  0
  188.8060  177.0480  137.4670 C   0  0  0  0  0  0  0  0  0  0  0  0
  180.3530  175.8720  137.8260 N   0  0  0  0  0  2  0  0  0  0  0  0
  178.9580  175.6540  137.4810 C   0  0  0  0  0  1  0  0  0  0  0  0
  182.3340  175.4860  139.2900 N   0  0  0  0  0  2  0  0  0  0  0  0
  180.9240  175.3920  139.0450 C   0  0  0  0  0  0  0  0  0  0  0  0
  180.1910  174.8380  139.9070 O   0  0  0  0  0  0  0  0  0  0  0  0
  182.9700  178.3340  139.6040 C   0  0  2  0  0  3  0  0  0  0  0  0
  182.1510  179.2690  138.9610 O   0  0  0  0  0  1  0  0  0  0  0  0
  183.9750  179.0280  140.4650 C   0  0  0  0  0  3  0  0  0  0  0  0
  184.6570  178.3790  141.3420 N   0  0  0  0  0  0  0  0  0  0  0  0
  185.6280  179.0620  142.1680 C   0  0  0  0  0  2  0  0  0  0  0  0
  185.6870  177.8130  144.2280 O   0  0  0  0  0  0  0  0  0  0  0  0
  187.6000  177.6610  142.8960 N   0  0  0  0  0  2  0  0  0  0  0  0
  186.2770  178.1380  143.1600 C   0  0  0  0  0  0  0  0  0  0  0  0
  191.1930  177.4440  143.3880 C   0  0  0  0  0  2  0  0  0  0  0  0
  189.2700  175.8620  143.1120 C   0  0  0  0  0  2  0  0  0  0  0  0
  190.2780  178.4530  144.0740 C   0  0  0  0  0  2  0  0  0  0  0  0
  190.3980  176.6020  142.3940 C   0  0  0  0  0  2  0  0  0  0  0  0
  189.1450  177.7250  144.8020 C   0  0  0  0  0  2  0  0  0  0  0  0
  188.3420  176.8380  143.8480 C   0  0  0  0  0  3  0  0  0  0  0  0
  1  4  1  0  0  0  0
  2  5  2  0  0  0  0
  3 22  1  0  0  0  0
  4  3  2  0  0  0  0
  4 19  1  0  0  0  0
  5  3  1  0  0  0  0
  6  2  1  0  0  0  0
  6  1  2  0  0  0  0
  7 16  2  0  0  0  0
  8  2  1  1  0  0  0
  8 10  1  0  0  0  0
  9  8  1  0  0  0  0
  9  7  1  0  0  0  0
 10 15  2  0  0  0  0
 11 12  2  0  0  0  0
 14 13  1  1  0  0  0
 14 12  1  0  0  0  0
 15 11  1  0  0  0  0
 16 15  1  0  0  0  0
 16 14  1  0  0  0  0
 17 20  1  0  0  0  0
 18 17  1  0  0  0  0
 20 19  1  0  0  0  0
 20 21  2  0  0  0  0
 22 23  1  6  0  0  0
 22 24  1  0  0  0  0
 24 25  2  0  0  0  0
 25 26  1  0  0  0  0
 26 29  1  0  0  0  0
 28 29  1  0  0  0  0
 28 35  1  0  0  0  0
 29 27  2  0  0  0  0
 30 32  1  0  0  0  0
 31 35  1  0  0  0  0
 32 34  1  0  0  0  0
 33 31  1  0  0  0  0
 33 30  1  0  0  0  0
 35 34  1  0  0  0  0
M  END
>  <MODEL>
2

>  <REMARK>
 VINA RESULT:      -7.6      2.905      8.039
  Name = 
  7 active torsions:
  status: ('A' for Active; 'I' for Inactive)
    1  A    between atoms: C_1  and  N_11
    2  A    between atoms: C_1  and  C_23
    3  A    between atoms: C_4  and  C_8
    4  A    between atoms: C_4  and  C_9
    5  A    between atoms: C_6  and  C_10
    6  A    between atoms: N_19  and  C_29
    7  A    between atoms: N_21  and  C_30
                            x       y       z     vdW  Elec       q    Type
                         _______ _______ _______ _____ _____    ______ ____

>  <TORSDO>
F 7

$$$$
=
 OpenBabel11042411373D

 35 38  0  0  1  0  0  0  0  0999 V2000
  187.6570  177.8150  137.9780 C   0  0  0  0  0  3  0  0  0  0  0  0
  186.6390  178.5350  140.0530 C   0  0  0  0  0  0  0  0  0  0  0  0
  188.9320  177.7150  140.0390 C   0  0  0  0  0  0  0  0  0  0  0  0
  188.8550  177.5180  138.6430 C   0  0  0  0  0  0  0  0  0  0  0  0
  187.8340  178.2340  140.7250 C   0  0  0  0  0  3  0  0  0  0  0  0
  186.5590  178.3270  138.6750 C   0  0  0  0  0  3  0  0  0  0  0  0
  183.7910  177.3960  141.0120 N   0  0  0  0  0  0  0  0  0  0  0  0
  185.5030  179.2120  140.7660 C   0  0  2  0  0  3  0  0  0  0  0  0
  184.8060  178.1960  141.7160 C   0  0  0  0  0  2  0  0  0  0  0  0
  184.5470  179.7890  139.7960 N   0  0  0  0  0  0  0  0  0  0  0  0
  182.6780  179.4270  138.4190 N   0  0  0  0  0  0  0  0  0  0  0  0
  181.8410  178.3620  138.2910 C   0  0  0  0  0  3  0  0  0  0  0  0
  181.5600  176.1130  139.3740 N   0  0  0  0  0  1  0  0  0  0  0  0
  182.1400  177.4090  139.2580 C   0  0  1  0  0  3  0  0  0  0  0  0
  183.5000  179.1100  139.4370 C   0  0  0  0  0  0  0  0  0  0  0  0
  183.1730  177.9130  139.9950 C   0  0  0  0  0  0  0  0  0  0  0  0
  189.1540  174.7460  137.3950 N   0  0  0  0  0  2  0  0  0  0  0  0
  189.2550  173.4790  136.6900 C   0  0  0  0  0  1  0  0  0  0  0  0
  190.0000  177.0320  137.9260 N   0  0  0  0  0  2  0  0  0  0  0  0
  190.1890  175.7310  137.3490 C   0  0  0  0  0  0  0  0  0  0  0  0
  191.2740  175.4780  136.7600 O   0  0  0  0  0  0  0  0  0  0  0  0
  190.1760  177.4220  140.8300 C   0  0  2  0  0  3  0  0  0  0  0  0
  190.4550  176.0510  140.8180 O   0  0  0  0  0  1  0  0  0  0  0  0
  190.0350  177.9130  142.2350 C   0  0  0  0  0  3  0  0  0  0  0  0
  191.0530  178.3510  142.8880 N   0  0  0  0  0  0  0  0  0  0  0  0
  190.9050  178.8250  144.2460 C   0  0  0  0  0  2  0  0  0  0  0  0
  190.6320  176.7750  145.4820 O   0  0  0  0  0  0  0  0  0  0  0  0
  188.7730  178.1890  145.4430 N   0  0  0  0  0  2  0  0  0  0  0  0
  190.1240  177.8660  145.1000 C   0  0  0  0  0  0  0  0  0  0  0  0
  185.4470  178.7840  146.7780 C   0  0  0  0  0  2  0  0  0  0  0  0
  187.6160  177.8260  147.5880 C   0  0  0  0  0  2  0  0  0  0  0  0
  185.7460  178.2910  145.3660 C   0  0  0  0  0  2  0  0  0  0  0  0
  186.7480  179.0830  147.5180 C   0  0  0  0  0  2  0  0  0  0  0  0
  186.6100  177.0290  145.4210 C   0  0  0  0  0  2  0  0  0  0  0  0
  187.9120  177.2740  146.1880 C   0  0  0  0  0  3  0  0  0  0  0  0
  1  4  2  0  0  0  0
  1  6  1  0  0  0  0
  2  5  1  0  0  0  0
  3  5  2  0  0  0  0
  3 22  1  0  0  0  0
  4  3  1  0  0  0  0
  6  2  2  0  0  0  0
  7  9  1  0  0  0  0
  8  2  1  6  0  0  0
  8  9  1  0  0  0  0
 10  8  1  0  0  0  0
 11 15  1  0  0  0  0
 12 11  2  0  0  0  0
 12 14  1  0  0  0  0
 14 13  1  6  0  0  0
 14 16  1  0  0  0  0
 15 10  2  0  0  0  0
 15 16  1  0  0  0  0
 16  7  2  0  0  0  0
 18 17  1  0  0  0  0
 19  4  1  0  0  0  0
 20 17  1  0  0  0  0
 20 19  1  0  0  0  0
 21 20  2  0  0  0  0
 22 23  1  1  0  0  0
 22 24  1  0  0  0  0
 24 25  2  0  0  0  0
 25 26  1  0  0  0  0
 26 29  1  0  0  0  0
 28 35  1  0  0  0  0
 29 28  1  0  0  0  0
 29 27  2  0  0  0  0
 30 33  1  0  0  0  0
 32 34  1  0  0  0  0
 32 30  1  0  0  0  0
 33 31  1  0  0  0  0
 34 35  1  0  0  0  0
 35 31  1  0  0  0  0
M  END
>  <MODEL>
3

>  <REMARK>
 VINA RESULT:      -7.5      2.221      6.612
  Name = 
  7 active torsions:
  status: ('A' for Active; 'I' for Inactive)
    1  A    between atoms: C_1  and  N_11
    2  A    between atoms: C_1  and  C_23
    3  A    between atoms: C_4  and  C_8
    4  A    between atoms: C_4  and  C_9
    5  A    between atoms: C_6  and  C_10
    6  A    between atoms: N_19  and  C_29
    7  A    between atoms: N_21  and  C_30
                            x       y       z     vdW  Elec       q    Type
                         _______ _______ _______ _____ _____    ______ ____

>  <TORSDO>
F 7

$$$$
=
 OpenBabel11042411373D

 35 38  0  0  1  0  0  0  0  0999 V2000
  188.7860  177.0000  143.0050 C   0  0  0  0  0  3  0  0  0  0  0  0
  189.0130  177.7820  140.7250 C   0  0  0  0  0  0  0  0  0  0  0  0
  186.9680  178.2290  141.9710 C   0  0  0  0  0  0  0  0  0  0  0  0
  187.5050  177.5650  143.0950 C   0  0  0  0  0  0  0  0  0  0  0  0
  187.7300  178.3440  140.8070 C   0  0  0  0  0  3  0  0  0  0  0  0
  189.5370  177.1130  141.8330 C   0  0  0  0  0  3  0  0  0  0  0  0
  188.4060  177.3850  137.5940 N   0  0  0  0  0  0  0  0  0  0  0  0
  189.8820  178.0160  139.5220 C   0  0  2  0  0  3  0  0  0  0  0  0
  189.0040  178.5070  138.3350 C   0  0  0  0  0  2  0  0  0  0  0  0
  190.6280  176.7880  139.1710 N   0  0  0  0  0  0  0  0  0  0  0  0
  190.6200  174.7380  138.0220 N   0  0  0  0  0  0  0  0  0  0  0  0
  189.7270  174.1910  137.1550 C   0  0  0  0  0  3  0  0  0  0  0  0
  187.5600  174.8750  136.0820 N   0  0  0  0  0  1  0  0  0  0  0  0
  188.7300  175.1140  136.8600 C   0  0  1  0  0  3  0  0  0  0  0  0
  190.1530  175.9750  138.2760 C   0  0  0  0  0  0  0  0  0  0  0  0
  189.0330  176.2500  137.5550 C   0  0  0  0  0  0  0  0  0  0  0  0
  188.6320  177.6330  145.9330 N   0  0  0  0  0  2  0  0  0  0  0  0
  189.1460  177.7930  147.2830 C   0  0  0  0  0  1  0  0  0  0  0  0
  186.7440  177.4880  144.3100 N   0  0  0  0  0  2  0  0  0  0  0  0
  187.2370  177.4900  145.6570 C   0  0  0  0  0  0  0  0  0  0  0  0
  186.4130  177.4040  146.6080 O   0  0  0  0  0  0  0  0  0  0  0  0
  185.6050  178.8610  141.9790 C   0  0  2  0  0  3  0  0  0  0  0  0
  184.6570  177.9800  142.5110 O   0  0  0  0  0  1  0  0  0  0  0  0
  185.2090  179.2810  140.6000 C   0  0  0  0  0  3  0  0  0  0  0  0
  183.9700  179.3570  140.2610 N   0  0  0  0  0  0  0  0  0  0  0  0
  183.6000  179.7670  138.9240 C   0  0  0  0  0  2  0  0  0  0  0  0
  181.2510  179.5670  139.4210 O   0  0  0  0  0  0  0  0  0  0  0  0
  181.8500  181.3750  138.0690 N   0  0  0  0  0  2  0  0  0  0  0  0
  182.1680  180.2160  138.8450 C   0  0  0  0  0  0  0  0  0  0  0  0
  180.4800  183.2510  135.2750 C   0  0  0  0  0  2  0  0  0  0  0  0
  180.4170  183.3590  137.7770 C   0  0  0  0  0  2  0  0  0  0  0  0
  180.5950  181.7310  135.3340 C   0  0  0  0  0  2  0  0  0  0  0  0
  181.1110  183.8750  136.5170 C   0  0  0  0  0  2  0  0  0  0  0  0
  179.9000  181.1990  136.5900 C   0  0  0  0  0  2  0  0  0  0  0  0
  180.4770  181.8280  137.8600 C   0  0  0  0  0  3  0  0  0  0  0  0
  1  4  1  0  0  0  0
  2  5  2  0  0  0  0
  2  6  1  0  0  0  0
  3 22  1  0  0  0  0
  3  4  2  0  0  0  0
  4 19  1  0  0  0  0
  5  3  1  0  0  0  0
  6  1  2  0  0  0  0
  7  9  1  0  0  0  0
  8  2  1  1  0  0  0
  9  8  1  0  0  0  0
 10  8  1  0  0  0  0
 11 15  1  0  0  0  0
 12 11  2  0  0  0  0
 14 13  1  1  0  0  0
 14 12  1  0  0  0  0
 14 16  1  0  0  0  0
 15 10  2  0  0  0  0
 16  7  2  0  0  0  0
 16 15  1  0  0  0  0
 17 18  1  0  0  0  0
 19 20  1  0  0  0  0
 20 17  1  0  0  0  0
 20 21  2  0  0  0  0
 22 23  1  6  0  0  0
 24 22  1  0  0  0  0
 25 24  2  0  0  0  0
 26 25  1  0  0  0  0
 28 29  1  0  0  0  0
 29 26  1  0  0  0  0
 29 27  2  0  0  0  0
 30 32  1  0  0  0  0
 30 33  1  0  0  0  0
 31 35  1  0  0  0  0
 32 34  1  0  0  0  0
 33 31  1  0  0  0  0
 34 35  1  0  0  0  0
 35 28  1  0  0  0  0
M  END
>  <MODEL>
4

>  <REMARK>
 VINA RESULT:      -7.2      3.744      6.737
  Name = 
  7 active torsions:
  status: ('A' for Active; 'I' for Inactive)
    1  A    between atoms: C_1  and  N_11
    2  A    between atoms: C_1  and  C_23
    3  A    between atoms: C_4  and  C_8
    4  A    between atoms: C_4  and  C_9
    5  A    between atoms: C_6  and  C_10
    6  A    between atoms: N_19  and  C_29
    7  A    between atoms: N_21  and  C_30
                            x       y       z     vdW  Elec       q    Type
                         _______ _______ _______ _____ _____    ______ ____

>  <TORSDO>
F 7

$$$$
=
 OpenBabel11042411373D

 35 38  0  0  1  0  0  0  0  0999 V2000
  187.6210  176.9820  143.5930 C   0  0  0  0  0  3  0  0  0  0  0  0
  186.5290  178.5300  142.0860 C   0  0  0  0  0  0  0  0  0  0  0  0
  188.5680  177.3890  141.3980 C   0  0  0  0  0  0  0  0  0  0  0  0
  188.6130  176.7170  142.6390 C   0  0  0  0  0  0  0  0  0  0  0  0
  187.5220  178.2730  141.1280 C   0  0  0  0  0  3  0  0  0  0  0  0
  186.5830  177.8760  143.3170 C   0  0  0  0  0  3  0  0  0  0  0  0
  183.4620  177.7250  141.5640 N   0  0  0  0  0  0  0  0  0  0  0  0
  185.3370  179.3800  141.7500 C   0  0  2  0  0  3  0  0  0  0  0  0
  184.0640  178.7720  142.4040 C   0  0  0  0  0  2  0  0  0  0  0  0
  185.1830  179.5080  140.2850 N   0  0  0  0  0  0  0  0  0  0  0  0
  184.3260  178.5770  138.3050 N   0  0  0  0  0  0  0  0  0  0  0  0
  183.5100  177.5110  138.0860 C   0  0  0  0  0  3  0  0  0  0  0  0
  182.2780  175.8290  139.4880 N   0  0  0  0  0  1  0  0  0  0  0  0
  183.0560  177.0070  139.3000 C   0  0  1  0  0  3  0  0  0  0  0  0
  184.3910  178.7020  139.6440 C   0  0  0  0  0  0  0  0  0  0  0  0
  183.6000  177.7940  140.2750 C   0  0  0  0  0  0  0  0  0  0  0  0
  190.7460  176.9430  144.8130 N   0  0  0  0  0  2  0  0  0  0  0  0
  191.6830  176.9780  145.9230 C   0  0  0  0  0  1  0  0  0  0  0  0
  189.6590  175.7690  142.9000 N   0  0  0  0  0  2  0  0  0  0  0  0
  190.6930  175.8510  143.8920 C   0  0  0  0  0  0  0  0  0  0  0  0
  191.5390  174.9210  143.9690 O   0  0  0  0  0  0  0  0  0  0  0  0
  189.5900  177.1660  140.3190 C   0  0  2  0  0  3  0  0  0  0  0  0
  190.7610  177.8790  140.5960 O   0  0  0  0  0  1  0  0  0  0  0  0
  189.0440  177.5590  138.9840 C   0  0  0  0  0  3  0  0  0  0  0  0
  189.4470  178.6280  138.3930 N   0  0  0  0  0  0  0  0  0  0  0  0
  188.9130  178.9970  137.1010 C   0  0  0  0  0  2  0  0  0  0  0  0
  188.0610  177.6840  135.2690 O   0  0  0  0  0  0  0  0  0  0  0  0
  190.0940  176.9670  136.1710 N   0  0  0  0  0  2  0  0  0  0  0  0
  188.9820  177.8660  136.1140 C   0  0  0  0  0  0  0  0  0  0  0  0
  192.2340  174.0570  136.5600 C   0  0  0  0  0  2  0  0  0  0  0  0
  191.6090  175.6570  134.7360 C   0  0  0  0  0  2  0  0  0  0  0  0
  190.8510  174.2130  137.1840 C   0  0  0  0  0  2  0  0  0  0  0  0
  192.6290  175.3370  135.8280 C   0  0  0  0  0  2  0  0  0  0  0  0
  189.8170  174.5290  136.1000 C   0  0  0  0  0  2  0  0  0  0  0  0
  190.1940  175.7880  135.3150 C   0  0  0  0  0  3  0  0  0  0  0  0
  2  6  2  0  0  0  0
  3  4  1  0  0  0  0
  4 19  1  0  0  0  0
  4  1  2  0  0  0  0
  5  3  2  0  0  0  0
  5  2  1  0  0  0  0
  6  1  1  0  0  0  0
  7  9  1  0  0  0  0
  8  2  1  6  0  0  0
  8  9  1  0  0  0  0
 10  8  1  0  0  0  0
 11 15  1  0  0  0  0
 12 11  2  0  0  0  0
 12 14  1  0  0  0  0
 14 13  1  1  0  0  0
 14 16  1  0  0  0  0
 15 16  1  0  0  0  0
 15 10  2  0  0  0  0
 16  7  2  0  0  0  0
 17 18  1  0  0  0  0
 19 20  1  0  0  0  0
 20 21  2  0  0  0  0
 20 17  1  0  0  0  0
 22 23  1  1  0  0  0
 22  3  1  0  0  0  0
 24 22  1  0  0  0  0
 25 24  2  0  0  0  0
 26 25  1  0  0  0  0
 27 29  2  0  0  0  0
 29 28  1  0  0  0  0
 29 26  1  0  0  0  0
 30 32  1  0  0  0  0
 31 35  1  0  0  0  0
 31 33  1  0  0  0  0
 33 30  1  0  0  0  0
 34 32  1  0  0  0  0
 35 34  1  0  0  0  0
 35 28  1  0  0  0  0
M  END
>  <MODEL>
5

>  <REMARK>
 VINA RESULT:      -7.2      1.595      2.073
  Name = 
  7 active torsions:
  status: ('A' for Active; 'I' for Inactive)
    1  A    between atoms: C_1  and  N_11
    2  A    between atoms: C_1  and  C_23
    3  A    between atoms: C_4  and  C_8
    4  A    between atoms: C_4  and  C_9
    5  A    between atoms: C_6  and  C_10
    6  A    between atoms: N_19  and  C_29
    7  A    between atoms: N_21  and  C_30
                            x       y       z     vdW  Elec       q    Type
                         _______ _______ _______ _____ _____    ______ ____

>  <TORSDO>
F 7

$$$$
=
 OpenBabel11042411373D

 35 38  0  0  1  0  0  0  0  0999 V2000
  188.7400  176.8020  142.7930 C   0  0  0  0  0  3  0  0  0  0  0  0
  189.1470  177.6770  140.5740 C   0  0  0  0  0  0  0  0  0  0  0  0
  187.1540  178.3470  141.8030 C   0  0  0  0  0  0  0  0  0  0  0  0
  187.5540  177.5440  142.8930 C   0  0  0  0  0  0  0  0  0  0  0  0
  187.9590  178.4170  140.6650 C   0  0  0  0  0  3  0  0  0  0  0  0
  189.5350  176.8730  141.6470 C   0  0  0  0  0  3  0  0  0  0  0  0
  188.6510  177.2770  137.4230 N   0  0  0  0  0  0  0  0  0  0  0  0
  190.0760  177.8510  139.4060 C   0  0  2  0  0  3  0  0  0  0  0  0
  189.2760  178.3740  138.1780 C   0  0  0  0  0  2  0  0  0  0  0  0
  190.7710  176.5820  139.0970 N   0  0  0  0  0  0  0  0  0  0  0  0
  190.7020  174.5230  137.9690 N   0  0  0  0  0  0  0  0  0  0  0  0
  189.8180  174.0130  137.0690 C   0  0  0  0  0  3  0  0  0  0  0  0
  187.7370  174.7970  135.9010 N   0  0  0  0  0  1  0  0  0  0  0  0
  188.8840  174.9830  136.7240 C   0  0  1  0  0  3  0  0  0  0  0  0
  190.2910  175.7850  138.1910 C   0  0  0  0  0  0  0  0  0  0  0  0
  189.2180  176.1100  137.4210 C   0  0  0  0  0  0  0  0  0  0  0  0
  188.5910  177.6790  145.7630 N   0  0  0  0  0  2  0  0  0  0  0  0
  189.0640  177.8710  147.1240 C   0  0  0  0  0  1  0  0  0  0  0  0
  186.7540  177.5080  144.0850 N   0  0  0  0  0  2  0  0  0  0  0  0
  187.2040  177.5420  145.4470 C   0  0  0  0  0  0  0  0  0  0  0  0
  186.3500  177.4900  146.3720 O   0  0  0  0  0  0  0  0  0  0  0  0
  185.8990  179.1720  141.8230 C   0  0  2  0  0  3  0  0  0  0  0  0
  185.2060  178.9860  143.0250 O   0  0  0  0  0  1  0  0  0  0  0  0
  185.0240  178.8330  140.6600 C   0  0  0  0  0  3  0  0  0  0  0  0
  184.5550  179.7520  139.8930 N   0  0  0  0  0  0  0  0  0  0  0  0
  183.7110  179.4110  138.7690 C   0  0  0  0  0  2  0  0  0  0  0  0
  182.2390  177.5040  138.8150 O   0  0  0  0  0  0  0  0  0  0  0  0
  181.5120  179.3750  140.0100 N   0  0  0  0  0  2  0  0  0  0  0  0
  182.4660  178.6870  139.1950 C   0  0  0  0  0  0  0  0  0  0  0  0
  179.3940  180.1820  142.8500 C   0  0  0  0  0  2  0  0  0  0  0  0
  180.3300  178.1230  141.7730 C   0  0  0  0  0  2  0  0  0  0  0  0
  179.3380  180.8770  141.4930 C   0  0  0  0  0  2  0  0  0  0  0  0
  180.5310  179.1650  142.8730 C   0  0  0  0  0  2  0  0  0  0  0  0
  179.1320  179.8460  140.3810 C   0  0  0  0  0  2  0  0  0  0  0  0
  180.2320  178.7820  140.3910 C   0  0  0  0  0  3  0  0  0  0  0  0
  1  4  1  0  0  0  0
  2  5  2  0  0  0  0
  2  6  1  0  0  0  0
  3 22  1  0  0  0  0
  3  4  2  0  0  0  0
  4 19  1  0  0  0  0
  5  3  1  0  0  0  0
  6  1  2  0  0  0  0
  7  9  1  0  0  0  0
  8  2  1  1  0  0  0
  9  8  1  0  0  0  0
 10  8  1  0  0  0  0
 11 15  1  0  0  0  0
 12 11  2  0  0  0  0
 14 13  1  1  0  0  0
 14 12  1  0  0  0  0
 14 16  1  0  0  0  0
 15 10  2  0  0  0  0
 16  7  2  0  0  0  0
 16 15  1  0  0  0  0
 17 18  1  0  0  0  0
 19 20  1  0  0  0  0
 20 17  1  0  0  0  0
 20 21  2  0  0  0  0
 22 23  1  1  0  0  0
 24 22  1  0  0  0  0
 25 24  2  0  0  0  0
 26 29  1  0  0  0  0
 26 25  1  0  0  0  0
 27 29  2  0  0  0  0
 28 35  1  0  0  0  0
 29 28  1  0  0  0  0
 30 33  1  0  0  0  0
 31 33  1  0  0  0  0
 32 30  1  0  0  0  0
 34 35  1  0  0  0  0
 34 32  1  0  0  0  0
 35 31  1  0  0  0  0
M  END
>  <MODEL>
6

>  <REMARK>
 VINA RESULT:      -7.2      3.143      6.574
  Name = 
  7 active torsions:
  status: ('A' for Active; 'I' for Inactive)
    1  A    between atoms: C_1  and  N_11
    2  A    between atoms: C_1  and  C_23
    3  A    between atoms: C_4  and  C_8
    4  A    between atoms: C_4  and  C_9
    5  A    between atoms: C_6  and  C_10
    6  A    between atoms: N_19  and  C_29
    7  A    between atoms: N_21  and  C_30
                            x       y       z     vdW  Elec       q    Type
                         _______ _______ _______ _____ _____    ______ ____

>  <TORSDO>
F 7

$$$$
=
 OpenBabel11042411373D

 35 38  0  0  1  0  0  0  0  0999 V2000
  191.5210  177.4880  141.4440 C   0  0  0  0  0  3  0  0  0  0  0  0
  189.8760  177.4990  139.6680 C   0  0  0  0  0  0  0  0  0  0  0  0
  189.1590  177.4930  141.9960 C   0  0  0  0  0  0  0  0  0  0  0  0
  190.5080  177.5020  142.4140 C   0  0  0  0  0  0  0  0  0  0  0  0
  188.8570  177.5070  140.6340 C   0  0  0  0  0  3  0  0  0  0  0  0
  191.2090  177.4940  140.0820 C   0  0  0  0  0  3  0  0  0  0  0  0
  188.1130  175.6500  137.7180 N   0  0  0  0  0  0  0  0  0  0  0  0
  189.5540  177.6440  138.2080 C   0  0  2  0  0  3  0  0  0  0  0  0
  188.1200  177.1060  137.9350 C   0  0  0  0  0  2  0  0  0  0  0  0
  190.5610  176.9440  137.3800 N   0  0  0  0  0  0  0  0  0  0  0  0
  191.2520  174.9170  136.4140 N   0  0  0  0  0  0  0  0  0  0  0  0
  190.6470  173.7010  136.3310 C   0  0  0  0  0  3  0  0  0  0  0  0
  188.4450  172.7010  137.0120 N   0  0  0  0  0  1  0  0  0  0  0  0
  189.3510  173.7850  136.8270 C   0  0  1  0  0  3  0  0  0  0  0  0
  190.3410  175.7270  136.9840 C   0  0  0  0  0  0  0  0  0  0  0  0
  189.1630  175.0840  137.2070 C   0  0  0  0  0  0  0  0  0  0  0  0
  191.7310  175.2280  144.0440 N   0  0  0  0  0  2  0  0  0  0  0  0
  192.4290  174.2000  144.7980 C   0  0  0  0  0  1  0  0  0  0  0  0
  190.8220  177.5390  143.8140 N   0  0  0  0  0  2  0  0  0  0  0  0
  191.3710  176.4860  144.6200 C   0  0  0  0  0  0  0  0  0  0  0  0
  191.5720  176.6980  145.8450 O   0  0  0  0  0  0  0  0  0  0  0  0
  188.0110  177.5050  142.9660 C   0  0  2  0  0  3  0  0  0  0  0  0
  187.5970  176.2010  143.2560 O   0  0  0  0  0  1  0  0  0  0  0  0
  186.8710  178.3050  142.4250 C   0  0  0  0  0  3  0  0  0  0  0  0
  185.7020  178.2370  142.9570 N   0  0  0  0  0  0  0  0  0  0  0  0
  184.6070  179.0180  142.4260 C   0  0  0  0  0  2  0  0  0  0  0  0
  185.0210  179.5530  140.1130 O   0  0  0  0  0  0  0  0  0  0  0  0
  183.5420  177.7850  140.4960 N   0  0  0  0  0  2  0  0  0  0  0  0
  184.4290  178.8120  140.9480 C   0  0  0  0  0  0  0  0  0  0  0  0
  180.5000  176.4770  138.9990 C   0  0  0  0  0  2  0  0  0  0  0  0
  182.9680  176.0940  138.7980 C   0  0  0  0  0  2  0  0  0  0  0  0
  180.7460  177.9440  139.3370 C   0  0  0  0  0  2  0  0  0  0  0  0
  181.6770  175.6240  139.4670 C   0  0  0  0  0  2  0  0  0  0  0  0
  182.0350  178.4290  138.6690 C   0  0  0  0  0  2  0  0  0  0  0  0
  183.2370  177.5770  139.0820 C   0  0  0  0  0  3  0  0  0  0  0  0
  1  4  1  0  0  0  0
  2  6  1  0  0  0  0
  2  5  2  0  0  0  0
  3  4  2  0  0  0  0
  3 22  1  0  0  0  0
  4 19  1  0  0  0  0
  5  3  1  0  0  0  0
  6  1  2  0  0  0  0
  7  9  1  0  0  0  0
  8  2  1  1  0  0  0
  9  8  1  0  0  0  0
 10  8  1  0  0  0  0
 11 15  1  0  0  0  0
 12 11  2  0  0  0  0
 12 14  1  0  0  0  0
 14 13  1  1  0  0  0
 14 16  1  0  0  0  0
 15 16  1  0  0  0  0
 15 10  2  0  0  0  0
 16  7  2  0  0  0  0
 17 20  1  0  0  0  0
 17 18  1  0  0  0  0
 19 20  1  0  0  0  0
 20 21  2  0  0  0  0
 22 23  1  6  0  0  0
 24 25  2  0  0  0  0
 24 22  1  0  0  0  0
 26 25  1  0  0  0  0
 27 29  2  0  0  0  0
 28 29  1  0  0  0  0
 29 26  1  0  0  0  0
 30 32  1  0  0  0  0
 30 33  1  0  0  0  0
 31 35  1  0  0  0  0
 31 33  1  0  0  0  0
 34 35  1  0  0  0  0
 34 32  1  0  0  0  0
 35 28  1  0  0  0  0
M  END
>  <MODEL>
7

>  <REMARK>
 VINA RESULT:      -7.1      2.285      5.605
  Name = 
  7 active torsions:
  status: ('A' for Active; 'I' for Inactive)
    1  A    between atoms: C_1  and  N_11
    2  A    between atoms: C_1  and  C_23
    3  A    between atoms: C_4  and  C_8
    4  A    between atoms: C_4  and  C_9
    5  A    between atoms: C_6  and  C_10
    6  A    between atoms: N_19  and  C_29
    7  A    between atoms: N_21  and  C_30
                            x       y       z     vdW  Elec       q    Type
                         _______ _______ _______ _____ _____    ______ ____

>  <TORSDO>
F 7

$$$$
=
 OpenBabel11042411373D

 35 38  0  0  1  0  0  0  0  0999 V2000
  186.6460  173.0930  137.1260 C   0  0  0  0  0  3  0  0  0  0  0  0
  187.6150  175.2380  136.5590 C   0  0  0  0  0  0  0  0  0  0  0  0
  185.2040  175.0210  136.8310 C   0  0  0  0  0  0  0  0  0  0  0  0
  185.3600  173.6510  137.1360 C   0  0  0  0  0  0  0  0  0  0  0  0
  186.3300  175.8010  136.5620 C   0  0  0  0  0  3  0  0  0  0  0  0
  187.7660  173.8800  136.8480 C   0  0  0  0  0  3  0  0  0  0  0  0
  190.1710  175.6320  138.4670 N   0  0  0  0  0  0  0  0  0  0  0  0
  188.8340  176.1010  136.3970 C   0  0  2  0  0  3  0  0  0  0  0  0
  190.0660  175.3830  137.0210 C   0  0  0  0  0  2  0  0  0  0  0  0
  188.6170  177.4300  137.0070 N   0  0  0  0  0  0  0  0  0  0  0  0
  188.6860  178.7370  138.9590 N   0  0  0  0  0  0  0  0  0  0  0  0
  189.1530  178.4730  140.2090 C   0  0  0  0  0  3  0  0  0  0  0  0
  190.3040  176.5650  141.3680 N   0  0  0  0  0  1  0  0  0  0  0  0
  189.7880  177.2360  140.2230 C   0  0  1  0  0  3  0  0  0  0  0  0
  189.0080  177.6560  138.2250 C   0  0  0  0  0  0  0  0  0  0  0  0
  189.7140  176.7460  138.9500 C   0  0  0  0  0  0  0  0  0  0  0  0
  184.4420  171.1280  135.6800 N   0  0  0  0  0  2  0  0  0  0  0  0
  184.0710  169.8600  135.0760 C   0  0  0  0  0  1  0  0  0  0  0  0
  184.2090  172.8570  137.4630 N   0  0  0  0  0  2  0  0  0  0  0  0
  183.7310  171.6840  136.7890 C   0  0  0  0  0  0  0  0  0  0  0  0
  182.6880  171.1190  137.2150 O   0  0  0  0  0  0  0  0  0  0  0  0
  183.8640  175.7000  136.8170 C   0  0  2  0  0  3  0  0  0  0  0  0
  183.8900  176.8240  135.9850 O   0  0  0  0  0  1  0  0  0  0  0  0
  183.4540  176.0870  138.2010 C   0  0  0  0  0  3  0  0  0  0  0  0
  183.6060  177.2920  138.6250 N   0  0  0  0  0  0  0  0  0  0  0  0
  183.2030  177.6540  139.9650 C   0  0  0  0  0  2  0  0  0  0  0  0
  184.8970  179.3670  139.9240 O   0  0  0  0  0  0  0  0  0  0  0  0
  184.3170  178.5670  142.0410 N   0  0  0  0  0  2  0  0  0  0  0  0
  184.1800  178.5920  140.6170 C   0  0  0  0  0  0  0  0  0  0  0  0
  185.9460  177.8890  145.2160 C   0  0  0  0  0  2  0  0  0  0  0  0
  184.7710  179.8100  144.1190 C   0  0  0  0  0  2  0  0  0  0  0  0
  186.4460  177.4060  143.8580 C   0  0  0  0  0  2  0  0  0  0  0  0
  184.6130  178.6150  145.0600 C   0  0  0  0  0  2  0  0  0  0  0  0
  186.6130  178.5930  142.9070 C   0  0  0  0  0  2  0  0  0  0  0  0
  185.3060  179.3750  142.7490 C   0  0  0  0  0  3  0  0  0  0  0  0
  1  4  1  0  0  0  0
  2  5  2  0  0  0  0
  2  6  1  0  0  0  0
  3  4  2  0  0  0  0
  4 19  1  0  0  0  0
  5  3  1  0  0  0  0
  6  1  2  0  0  0  0
  7 16  2  0  0  0  0
  8  2  1  1  0  0  0
  8 10  1  0  0  0  0
  8  9  1  0  0  0  0
  9  7  1  0  0  0  0
 10 15  2  0  0  0  0
 11 12  2  0  0  0  0
 12 14  1  0  0  0  0
 14 13  1  1  0  0  0
 15 16  1  0  0  0  0
 15 11  1  0  0  0  0
 16 14  1  0  0  0  0
 17 20  1  0  0  0  0
 18 17  1  0  0  0  0
 20 21  2  0  0  0  0
 20 19  1  0  0  0  0
 22 23  1  6  0  0  0
 22  3  1  0  0  0  0
 22 24  1  0  0  0  0
 24 25  2  0  0  0  0
 25 26  1  0  0  0  0
 26 29  1  0  0  0  0
 27 29  2  0  0  0  0
 28 35  1  0  0  0  0
 29 28  1  0  0  0  0
 31 33  1  0  0  0  0
 32 30  1  0  0  0  0
 33 30  1  0  0  0  0
 34 32  1  0  0  0  0
 35 34  1  0  0  0  0
 35 31  1  0  0  0  0
M  END
>  <MODEL>
8

>  <REMARK>
 VINA RESULT:      -7.0      2.801      8.144
  Name = 
  7 active torsions:
  status: ('A' for Active; 'I' for Inactive)
    1  A    between atoms: C_1  and  N_11
    2  A    between atoms: C_1  and  C_23
    3  A    between atoms: C_4  and  C_8
    4  A    between atoms: C_4  and  C_9
    5  A    between atoms: C_6  and  C_10
    6  A    between atoms: N_19  and  C_29
    7  A    between atoms: N_21  and  C_30
                            x       y       z     vdW  Elec       q    Type
                         _______ _______ _______ _____ _____    ______ ____

>  <TORSDO>
F 7

$$$$
=
 OpenBabel11042411373D

 35 38  0  0  1  0  0  0  0  0999 V2000
  181.8820  176.5980  140.1420 C   0  0  0  0  0  3  0  0  0  0  0  0
  182.7270  176.3180  137.8910 C   0  0  0  0  0  0  0  0  0  0  0  0
  183.8110  177.8780  139.4160 C   0  0  0  0  0  0  0  0  0  0  0  0
  182.8870  177.5330  140.4280 C   0  0  0  0  0  0  0  0  0  0  0  0
  183.7320  177.2580  138.1690 C   0  0  0  0  0  3  0  0  0  0  0  0
  181.8060  175.9890  138.8870 C   0  0  0  0  0  3  0  0  0  0  0  0
  184.0530  173.4970  137.1090 N   0  0  0  0  0  0  0  0  0  0  0  0
  182.7200  175.5580  136.5950 C   0  0  2  0  0  3  0  0  0  0  0  0
  182.7000  174.0310  136.8880 C   0  0  0  0  0  2  0  0  0  0  0  0
  183.8830  175.9340  135.7630 N   0  0  0  0  0  0  0  0  0  0  0  0
  186.1520  175.5720  135.2710 N   0  0  0  0  0  0  0  0  0  0  0  0
  187.0340  174.6340  135.7090 C   0  0  0  0  0  3  0  0  0  0  0  0
  186.9750  172.6270  137.2190 N   0  0  0  0  0  1  0  0  0  0  0  0
  186.3730  173.6940  136.4910 C   0  0  1  0  0  3  0  0  0  0  0  0
  184.9690  175.2220  135.8080 C   0  0  0  0  0  0  0  0  0  0  0  0
  185.0590  174.0650  136.5180 C   0  0  0  0  0  0  0  0  0  0  0  0
  180.8120  179.3360  141.7590 N   0  0  0  0  0  2  0  0  0  0  0  0
  179.7780  180.0870  142.4510 C   0  0  0  0  0  1  0  0  0  0  0  0
  182.9950  178.1320  141.7280 N   0  0  0  0  0  2  0  0  0  0  0  0
  182.0580  179.0030  142.3760 C   0  0  0  0  0  0  0  0  0  0  0  0
  182.3290  179.4440  143.5250 O   0  0  0  0  0  0  0  0  0  0  0  0
  184.9170  178.8700  139.6350 C   0  0  2  0  0  3  0  0  0  0  0  0
  184.5560  180.1280  139.1410 O   0  0  0  0  0  1  0  0  0  0  0  0
  186.1820  178.4010  138.9910 C   0  0  0  0  0  3  0  0  0  0  0  0
  187.3260  178.6280  139.5340 N   0  0  0  0  0  0  0  0  0  0  0  0
  188.5420  178.1680  138.9020 C   0  0  0  0  0  2  0  0  0  0  0  0
  190.2180  176.5030  139.3750 O   0  0  0  0  0  0  0  0  0  0  0  0
  189.1920  177.4660  141.2400 N   0  0  0  0  0  2  0  0  0  0  0  0
  189.3820  177.3340  139.8280 C   0  0  0  0  0  0  0  0  0  0  0  0
  189.4310  177.8770  144.8420 C   0  0  0  0  0  2  0  0  0  0  0  0
  190.9870  177.4350  142.9280 C   0  0  0  0  0  2  0  0  0  0  0  0
  188.3150  177.1280  144.1210 C   0  0  0  0  0  2  0  0  0  0  0  0
  190.3810  178.5110  143.8290 C   0  0  0  0  0  2  0  0  0  0  0  0
  188.9080  176.0430  143.2190 C   0  0  0  0  0  2  0  0  0  0  0  0
  189.8970  176.6300  142.2090 C   0  0  0  0  0  3  0  0  0  0  0  0
  1  4  1  0  0  0  0
  2  5  2  0  0  0  0
  2  6  1  0  0  0  0
  3 22  1  0  0  0  0
  3  4  2  0  0  0  0
  4 19  1  0  0  0  0
  5  3  1  0  0  0  0
  6  1  2  0  0  0  0
  8  9  1  0  0  0  0
  8  2  1  1  0  0  0
  9  7  1  0  0  0  0
 10 15  2  0  0  0  0
 10  8  1  0  0  0  0
 11 12  2  0  0  0  0
 11 15  1  0  0  0  0
 12 14  1  0  0  0  0
 14 16  1  0  0  0  0
 14 13  1  1  0  0  0
 15 16  1  0  0  0  0
 16  7  2  0  0  0  0
 17 20  1  0  0  0  0
 17 18  1  0  0  0  0
 19 20  1  0  0  0  0
 20 21  2  0  0  0  0
 22 23  1  6  0  0  0
 24 25  2  0  0  0  0
 24 22  1  0  0  0  0
 26 25  1  0  0  0  0
 26 29  1  0  0  0  0
 27 29  2  0  0  0  0
 28 35  1  0  0  0  0
 29 28  1  0  0  0  0
 31 33  1  0  0  0  0
 32 30  1  0  0  0  0
 33 30  1  0  0  0  0
 34 32  1  0  0  0  0
 35 31  1  0  0  0  0
 35 34  1  0  0  0  0
M  END
>  <MODEL>
9

>  <REMARK>
 VINA RESULT:      -7.0      2.796      7.023
  Name = 
  7 active torsions:
  status: ('A' for Active; 'I' for Inactive)
    1  A    between atoms: C_1  and  N_11
    2  A    between atoms: C_1  and  C_23
    3  A    between atoms: C_4  and  C_8
    4  A    between atoms: C_4  and  C_9
    5  A    between atoms: C_6  and  C_10
    6  A    between atoms: N_19  and  C_29
    7  A    between atoms: N_21  and  C_30
                            x       y       z     vdW  Elec       q    Type
                         _______ _______ _______ _____ _____    ______ ____

>  <TORSDO>
F 7

$$$$
