=
 OpenBabel11042410063D

 29 31  0  0  1  0  0  0  0  0999 V2000
  187.4370  178.6740  141.6730 N   0  0  0  0  0  0  0  0  0  0  0  0
  186.0230  178.9680  141.4840 C   0  0  0  0  0  2  0  0  0  0  0  0
  185.2300  178.5430  142.7120 C   0  0  2  0  0  3  0  0  0  0  0  0
  184.0370  177.9320  142.3220 O   0  0  0  0  0  1  0  0  0  0  0  0
  184.9510  179.7180  143.6520 C   0  0  0  0  0  2  0  0  0  0  0  0
  184.7610  179.2860  145.0710 C   0  0  0  0  0  0  0  0  0  0  0  0
  183.4870  179.0130  145.5500 O   0  0  0  0  0  0  0  0  0  0  0  0
  185.7530  179.1890  145.8380 O   0  0  0  0  0  1  0  0  0  0  0  0
  187.5340  177.4120  142.3970 C   0  0  0  0  0  2  0  0  0  0  0  0
  190.3470  177.0860  146.0800 C   0  0  0  0  0  0  0  0  0  0  0  0
  189.8600  176.6270  142.8610 C   0  0  2  0  0  3  0  0  0  0  0  0
  192.0210  177.9840  142.9180 C   0  0  0  0  0  2  0  0  0  0  0  0
  190.6390  175.8710  143.9440 C   0  0  0  0  0  2  0  0  0  0  0  0
  190.8130  177.5420  142.0800 C   0  0  0  0  0  2  0  0  0  0  0  0
  188.1870  177.0520  144.7850 C   0  0  0  0  0  2  0  0  0  0  0  0
  188.6810  177.4620  143.3960 C   0  0  2  0  0  3  0  0  0  0  0  0
  190.7800  176.9320  147.2760 N   0  0  0  0  0  2  0  0  0  0  0  0
  189.0090  177.7410  145.8710 C   0  0  0  0  0  2  0  0  0  0  0  0
  191.2860  176.8580  144.9340 C   0  0  1  0  0  3  0  0  0  0  0  0
  191.6410  178.1510  144.3210 N   0  0  0  0  0  2  0  0  0  0  0  0
  188.0750  178.5320  140.3620 C   0  0  0  0  0  2  0  0  0  0  0  0
  187.1310  178.5190  139.3240 O   0  0  0  0  0  0  0  0  0  0  0  0
  189.7970  176.7870  136.6360 C   0  0  0  0  0  2  0  0  0  0  0  0
  189.8050  176.4560  138.1070 C   0  0  0  0  0  0  0  0  0  0  0  0
  190.8400  175.6400  138.6430 N   0  0  0  0  0  1  0  0  0  0  0  0
  188.1940  178.5850  137.1950 C   0  0  0  0  0  3  0  0  0  0  0  0
  189.1760  178.1430  136.3960 C   0  0  0  0  0  3  0  0  0  0  0  0
  187.7020  177.7230  138.3310 C   0  0  1  0  0  3  0  0  0  0  0  0
  188.8270  176.8990  138.9030 C   0  0  0  0  0  3  0  0  0  0  0  0
  1  9  1  0  0  0  0
  2  1  1  0  0  0  0
  2  3  1  0  0  0  0
  3  4  1  6  0  0  0
  3  5  1  0  0  0  0
  5  6  1  0  0  0  0
  6  7  2  0  0  0  0
  6  8  1  0  0  0  0
 10 17  2  0  0  0  0
 11 14  1  1  0  0  0
 11 16  1  0  0  0  0
 11 13  1  0  0  0  0
 12 20  1  0  0  0  0
 14 12  1  0  0  0  0
 15 18  1  0  0  0  0
 16  9  1  6  0  0  0
 16 15  1  0  0  0  0
 18 10  1  0  0  0  0
 19 13  1  6  0  0  0
 19 10  1  0  0  0  0
 20 19  1  0  0  0  0
 21  1  1  0  0  0  0
 22 21  1  0  0  0  0
 23 24  1  0  0  0  0
 24 25  1  0  0  0  0
 24 29  2  0  0  0  0
 26 28  1  0  0  0  0
 27 23  1  0  0  0  0
 27 26  2  0  0  0  0
 28 29  1  0  0  0  0
 28 22  1  1  0  0  0
M  END
>  <MODEL>
1

>  <REMARK>
 VINA RESULT:      -7.7      0.000      0.000
  Name = 
  9 active torsions:
  status: ('A' for Active; 'I' for Inactive)
    1  A    between atoms: C_4  and  C_7
    2  A    between atoms: C_4  and  C_15
    3  A    between atoms: C_6  and  C_15
    4  A    between atoms: C_7  and  N_18
    5  A    between atoms: C_10  and  C_12
    6  A    between atoms: C_12  and  N_18
    7  A    between atoms: N_18  and  C_29
    8  A    between atoms: C_26  and  O_28
    9  A    between atoms: O_28  and  C_29
                            x       y       z     vdW  Elec       q    Type
                         _______ _______ _______ _____ _____    ______ ____

>  <TORSDO>
F 9

$$$$
=
 OpenBabel11042410063D

 29 31  0  0  1  0  0  0  0  0999 V2000
  189.6530  177.3540  142.8560 N   0  0  0  0  0  0  0  0  0  0  0  0
  190.5150  176.7230  143.8460 C   0  0  0  0  0  2  0  0  0  0  0  0
  190.6880  177.6380  145.0500 C   0  0  2  0  0  3  0  0  0  0  0  0
  191.9730  178.1820  145.0560 O   0  0  0  0  0  1  0  0  0  0  0  0
  190.4030  176.9160  146.3680 C   0  0  0  0  0  2  0  0  0  0  0  0
  191.6460  176.4040  147.0230 C   0  0  0  0  0  0  0  0  0  0  0  0
  192.1490  177.0370  148.1520 O   0  0  0  0  0  1  0  0  0  0  0  0
  192.2490  175.4110  146.5400 O   0  0  0  0  0  0  0  0  0  0  0  0
  190.4150  177.4750  141.6180 C   0  0  0  0  0  2  0  0  0  0  0  0
  187.2520  178.2560  138.3060 C   0  0  0  0  0  0  0  0  0  0  0  0
  190.3180  177.3970  139.1230 C   0  0  2  0  0  3  0  0  0  0  0  0
  189.5770  175.4770  137.6130 C   0  0  0  0  0  2  0  0  0  0  0  0
  189.7010  178.1780  137.9570 C   0  0  0  0  0  2  0  0  0  0  0  0
  190.5530  175.9400  138.7040 C   0  0  0  0  0  2  0  0  0  0  0  0
  188.4620  178.5630  140.4940 C   0  0  0  0  0  2  0  0  0  0  0  0
  189.4820  177.4240  140.4160 C   0  0  2  0  0  3  0  0  0  0  0  0
  186.2600  178.7380  137.6540 N   0  0  0  0  0  2  0  0  0  0  0  0
  187.1600  178.1630  139.8040 C   0  0  0  0  0  2  0  0  0  0  0  0
  188.3480  177.5640  137.5510 C   0  0  1  0  0  3  0  0  0  0  0  0
  188.2700  176.1110  137.7890 N   0  0  0  0  0  2  0  0  0  0  0  0
  188.4850  176.5000  142.6250 C   0  0  0  0  0  2  0  0  0  0  0  0
  187.7210  176.3410  143.7920 O   0  0  0  0  0  0  0  0  0  0  0  0
  184.9290  179.3070  144.6510 C   0  0  0  0  0  2  0  0  0  0  0  0
  185.6650  178.5560  145.7310 C   0  0  0  0  0  0  0  0  0  0  0  0
  185.3070  178.7440  147.0950 N   0  0  0  0  0  1  0  0  0  0  0  0
  185.8970  177.6830  143.0580 C   0  0  0  0  0  3  0  0  0  0  0  0
  184.8830  178.5020  143.3750 C   0  0  0  0  0  3  0  0  0  0  0  0
  187.0890  177.5720  143.9750 C   0  0  1  0  0  3  0  0  0  0  0  0
  186.6730  177.7370  145.4150 C   0  0  0  0  0  3  0  0  0  0  0  0
  1  2  1  0  0  0  0
  2  3  1  0  0  0  0
  3  4  1  1  0  0  0
  3  5  1  0  0  0  0
  5  6  1  0  0  0  0
  6  7  1  0  0  0  0
  8  6  2  0  0  0  0
  9  1  1  0  0  0  0
 10 18  1  0  0  0  0
 11 13  1  6  0  0  0
 11 16  1  0  0  0  0
 12 20  1  0  0  0  0
 12 14  1  0  0  0  0
 14 11  1  0  0  0  0
 16 15  1  0  0  0  0
 16  9  1  1  0  0  0
 17 10  2  0  0  0  0
 18 15  1  0  0  0  0
 19 20  1  0  0  0  0
 19 13  1  1  0  0  0
 19 10  1  0  0  0  0
 21  1  1  0  0  0  0
 21 22  1  0  0  0  0
 23 24  1  0  0  0  0
 24 25  1  0  0  0  0
 26 27  2  0  0  0  0
 26 28  1  0  0  0  0
 27 23  1  0  0  0  0
 28 22  1  1  0  0  0
 28 29  1  0  0  0  0
 29 24  2  0  0  0  0
M  END
>  <MODEL>
2

>  <REMARK>
 VINA RESULT:      -7.3      2.987      6.950
  Name = 
  9 active torsions:
  status: ('A' for Active; 'I' for Inactive)
    1  A    between atoms: C_4  and  C_7
    2  A    between atoms: C_4  and  C_15
    3  A    between atoms: C_6  and  C_15
    4  A    between atoms: C_7  and  N_18
    5  A    between atoms: C_10  and  C_12
    6  A    between atoms: C_12  and  N_18
    7  A    between atoms: N_18  and  C_29
    8  A    between atoms: C_26  and  O_28
    9  A    between atoms: O_28  and  C_29
                            x       y       z     vdW  Elec       q    Type
                         _______ _______ _______ _____ _____    ______ ____

>  <TORSDO>
F 9

$$$$
=
 OpenBabel11042410063D

 29 31  0  0  1  0  0  0  0  0999 V2000
  187.2220  177.9190  141.6040 N   0  0  0  0  0  0  0  0  0  0  0  0
  186.2840  178.9950  141.8940 C   0  0  0  0  0  2  0  0  0  0  0  0
  185.1530  178.4810  142.7740 C   0  0  2  0  0  3  0  0  0  0  0  0
  184.1280  177.9630  141.9810 O   0  0  0  0  0  1  0  0  0  0  0  0
  184.6130  179.5640  143.7100 C   0  0  0  0  0  2  0  0  0  0  0  0
  183.6850  179.0170  144.7470 C   0  0  0  0  0  0  0  0  0  0  0  0
  182.3750  178.7030  144.4130 O   0  0  0  0  0  0  0  0  0  0  0  0
  184.0850  178.8620  145.9300 O   0  0  0  0  0  1  0  0  0  0  0  0
  188.2620  178.4600  140.7380 C   0  0  0  0  0  2  0  0  0  0  0  0
  187.6060  176.8580  136.4270 C   0  0  0  0  0  0  0  0  0  0  0  0
  189.6800  177.8740  138.7660 C   0  0  2  0  0  3  0  0  0  0  0  0
  190.6400  175.6020  138.1090 C   0  0  0  0  0  2  0  0  0  0  0  0
  189.6530  177.9890  137.2370 C   0  0  0  0  0  2  0  0  0  0  0  0
  190.5740  176.6980  139.1820 C   0  0  0  0  0  2  0  0  0  0  0  0
  187.1210  178.1510  138.5330 C   0  0  0  0  0  2  0  0  0  0  0  0
  188.2930  177.7100  139.4140 C   0  0  2  0  0  3  0  0  0  0  0  0
  187.0960  176.6260  135.2750 N   0  0  0  0  0  2  0  0  0  0  0  0
  186.6890  177.0150  137.6080 C   0  0  0  0  0  2  0  0  0  0  0  0
  189.0870  176.7010  136.6090 C   0  0  1  0  0  3  0  0  0  0  0  0
  189.3610  175.4920  137.4060 N   0  0  0  0  0  2  0  0  0  0  0  0
  187.8240  177.4580  142.8570 C   0  0  0  0  0  2  0  0  0  0  0  0
  189.1680  177.8510  142.9610 O   0  0  0  0  0  0  0  0  0  0  0  0
  189.6490  177.4040  147.0720 C   0  0  0  0  0  2  0  0  0  0  0  0
  190.7510  177.0910  146.0930 C   0  0  0  0  0  0  0  0  0  0  0  0
  191.9530  176.4840  146.5500 N   0  0  0  0  0  1  0  0  0  0  0  0
  188.1630  177.6370  145.1090 C   0  0  0  0  0  3  0  0  0  0  0  0
  188.2980  177.3150  146.4040 C   0  0  0  0  0  3  0  0  0  0  0  0
  189.3640  178.0980  144.3210 C   0  0  1  0  0  3  0  0  0  0  0  0
  190.6160  177.4090  144.8020 C   0  0  0  0  0  3  0  0  0  0  0  0
  1  2  1  0  0  0  0
  1 21  1  0  0  0  0
  2  3  1  0  0  0  0
  3  4  1  6  0  0  0
  3  5  1  0  0  0  0
  5  6  1  0  0  0  0
  6  8  1  0  0  0  0
  7  6  2  0  0  0  0
  9  1  1  0  0  0  0
 10 19  1  0  0  0  0
 10 18  1  0  0  0  0
 11 13  1  6  0  0  0
 11 14  1  0  0  0  0
 11 16  1  0  0  0  0
 12 14  1  0  0  0  0
 15 16  1  0  0  0  0
 16  9  1  1  0  0  0
 17 10  2  0  0  0  0
 18 15  1  0  0  0  0
 19 13  1  1  0  0  0
 19 20  1  0  0  0  0
 20 12  1  0  0  0  0
 21 22  1  0  0  0  0
 24 25  1  0  0  0  0
 24 23  1  0  0  0  0
 26 27  2  0  0  0  0
 27 23  1  0  0  0  0
 28 22  1  6  0  0  0
 28 29  1  0  0  0  0
 28 26  1  0  0  0  0
 29 24  2  0  0  0  0
M  END
>  <MODEL>
3

>  <REMARK>
 VINA RESULT:      -7.3      1.618      6.302
  Name = 
  9 active torsions:
  status: ('A' for Active; 'I' for Inactive)
    1  A    between atoms: C_4  and  C_7
    2  A    between atoms: C_4  and  C_15
    3  A    between atoms: C_6  and  C_15
    4  A    between atoms: C_7  and  N_18
    5  A    between atoms: C_10  and  C_12
    6  A    between atoms: C_12  and  N_18
    7  A    between atoms: N_18  and  C_29
    8  A    between atoms: C_26  and  O_28
    9  A    between atoms: O_28  and  C_29
                            x       y       z     vdW  Elec       q    Type
                         _______ _______ _______ _____ _____    ______ ____

>  <TORSDO>
F 9

$$$$
=
 OpenBabel11042410063D

 29 31  0  0  1  0  0  0  0  0999 V2000
  187.4600  178.6740  141.7140 N   0  0  0  0  0  0  0  0  0  0  0  0
  186.0430  178.8940  141.4590 C   0  0  0  0  0  2  0  0  0  0  0  0
  185.2230  178.4950  142.6780 C   0  0  2  0  0  3  0  0  0  0  0  0
  184.0240  177.9050  142.2740 O   0  0  0  0  0  1  0  0  0  0  0  0
  184.9530  179.6820  143.6040 C   0  0  0  0  0  2  0  0  0  0  0  0
  184.7760  179.2700  145.0310 C   0  0  0  0  0  0  0  0  0  0  0  0
  183.5070  179.0070  145.5270 O   0  0  0  0  0  0  0  0  0  0  0  0
  185.7770  179.1810  145.7880 O   0  0  0  0  0  1  0  0  0  0  0  0
  187.5940  177.3940  142.3990 C   0  0  0  0  0  2  0  0  0  0  0  0
  190.3340  177.0820  146.1370 C   0  0  0  0  0  0  0  0  0  0  0  0
  189.9280  176.6610  142.9020 C   0  0  2  0  0  3  0  0  0  0  0  0
  192.0530  178.0710  143.0260 C   0  0  0  0  0  2  0  0  0  0  0  0
  190.7030  175.9080  143.9900 C   0  0  0  0  0  2  0  0  0  0  0  0
  190.8740  177.6110  142.1560 C   0  0  0  0  0  2  0  0  0  0  0  0
  188.2040  177.0130  144.7960 C   0  0  0  0  0  2  0  0  0  0  0  0
  188.7180  177.4580  143.4240 C   0  0  2  0  0  3  0  0  0  0  0  0
  190.7460  176.9190  147.3400 N   0  0  0  0  0  2  0  0  0  0  0  0
  188.9860  177.7060  145.9090 C   0  0  0  0  0  2  0  0  0  0  0  0
  191.3040  176.8950  145.0080 C   0  0  1  0  0  3  0  0  0  0  0  0
  191.6390  178.2060  144.4230 N   0  0  0  0  0  2  0  0  0  0  0  0
  188.1720  178.6160  140.4350 C   0  0  0  0  0  2  0  0  0  0  0  0
  187.2980  178.3680  139.3650 O   0  0  0  0  0  0  0  0  0  0  0  0
  189.8230  176.7110  136.5010 C   0  0  0  0  0  2  0  0  0  0  0  0
  188.3360  176.4660  136.5030 C   0  0  0  0  0  0  0  0  0  0  0  0
  187.7720  175.5260  135.5960 N   0  0  0  0  0  1  0  0  0  0  0  0
  189.5080  177.7750  138.7110 C   0  0  0  0  0  3  0  0  0  0  0  0
  190.3060  177.0850  137.8810 C   0  0  0  0  0  3  0  0  0  0  0  0
  188.1290  178.1830  138.2600 C   0  0  1  0  0  3  0  0  0  0  0  0
  187.5410  177.1500  137.3310 C   0  0  0  0  0  3  0  0  0  0  0  0
  1  9  1  0  0  0  0
  2  1  1  0  0  0  0
  2  3  1  0  0  0  0
  3  4  1  6  0  0  0
  3  5  1  0  0  0  0
  5  6  1  0  0  0  0
  6  7  2  0  0  0  0
  6  8  1  0  0  0  0
 10 17  2  0  0  0  0
 11 14  1  1  0  0  0
 11 16  1  0  0  0  0
 11 13  1  0  0  0  0
 12 20  1  0  0  0  0
 14 12  1  0  0  0  0
 15 18  1  0  0  0  0
 16  9  1  6  0  0  0
 16 15  1  0  0  0  0
 18 10  1  0  0  0  0
 19 13  1  6  0  0  0
 19 10  1  0  0  0  0
 20 19  1  0  0  0  0
 21  1  1  0  0  0  0
 22 21  1  0  0  0  0
 23 24  1  0  0  0  0
 23 27  1  0  0  0  0
 24 29  2  0  0  0  0
 25 24  1  0  0  0  0
 27 26  2  0  0  0  0
 28 26  1  0  0  0  0
 28 22  1  1  0  0  0
 29 28  1  0  0  0  0
M  END
>  <MODEL>
4

>  <REMARK>
 VINA RESULT:      -7.2      0.930      1.137
  Name = 
  9 active torsions:
  status: ('A' for Active; 'I' for Inactive)
    1  A    between atoms: C_4  and  C_7
    2  A    between atoms: C_4  and  C_15
    3  A    between atoms: C_6  and  C_15
    4  A    between atoms: C_7  and  N_18
    5  A    between atoms: C_10  and  C_12
    6  A    between atoms: C_12  and  N_18
    7  A    between atoms: N_18  and  C_29
    8  A    between atoms: C_26  and  O_28
    9  A    between atoms: O_28  and  C_29
                            x       y       z     vdW  Elec       q    Type
                         _______ _______ _______ _____ _____    ______ ____

>  <TORSDO>
F 9

$$$$
=
 OpenBabel11042410063D

 29 31  0  0  1  0  0  0  0  0999 V2000
  186.8740  177.8840  144.6330 N   0  0  0  0  0  0  0  0  0  0  0  0
  185.9420  177.5330  145.6960 C   0  0  0  0  0  2  0  0  0  0  0  0
  186.3200  178.2520  146.9830 C   0  0  2  0  0  3  0  0  0  0  0  0
  185.6800  179.4920  147.0420 O   0  0  0  0  0  1  0  0  0  0  0  0
  187.8340  178.4210  147.1260 C   0  0  0  0  0  2  0  0  0  0  0  0
  188.3310  178.0280  148.4800 C   0  0  0  0  0  0  0  0  0  0  0  0
  189.6540  178.2610  148.8310 O   0  0  0  0  0  0  0  0  0  0  0  0
  187.5550  177.4670  149.2970 O   0  0  0  0  0  1  0  0  0  0  0  0
  187.2800  176.6490  143.9720 C   0  0  0  0  0  2  0  0  0  0  0  0
  191.2020  177.4650  141.6200 C   0  0  0  0  0  0  0  0  0  0  0  0
  189.5220  177.6450  144.4400 C   0  0  2  0  0  3  0  0  0  0  0  0
  191.6770  176.4690  145.1400 C   0  0  0  0  0  2  0  0  0  0  0  0
  190.5650  178.5380  143.7570 C   0  0  0  0  0  2  0  0  0  0  0  0
  190.2080  176.7530  145.4830 C   0  0  0  0  0  2  0  0  0  0  0  0
  188.7250  177.2350  142.0150 C   0  0  0  0  0  2  0  0  0  0  0  0
  188.7130  176.7630  143.4720 C   0  0  2  0  0  3  0  0  0  0  0  0
  192.0270  177.7410  140.6790 N   0  0  0  0  0  2  0  0  0  0  0  0
  189.9540  176.6940  141.2880 C   0  0  0  0  0  2  0  0  0  0  0  0
  191.6260  177.6800  143.0420 C   0  0  1  0  0  3  0  0  0  0  0  0
  191.8580  176.3770  143.6910 N   0  0  0  0  0  2  0  0  0  0  0  0
  186.1930  178.7500  143.6670 C   0  0  0  0  0  2  0  0  0  0  0  0
  184.8110  178.8030  143.9030 O   0  0  0  0  0  0  0  0  0  0  0  0
  182.8310  178.5180  140.2520 C   0  0  0  0  0  2  0  0  0  0  0  0
  184.2520  179.0080  140.3620 C   0  0  0  0  0  0  0  0  0  0  0  0
  184.9110  179.5330  139.2160 N   0  0  0  0  0  1  0  0  0  0  0  0
  182.7520  178.6250  142.7210 C   0  0  0  0  0  3  0  0  0  0  0  0
  182.0940  178.7140  141.5550 C   0  0  0  0  0  3  0  0  0  0  0  0
  184.2290  178.3210  142.7300 C   0  0  1  0  0  3  0  0  0  0  0  0
  184.9060  178.9220  141.5240 C   0  0  0  0  0  3  0  0  0  0  0  0
  1  2  1  0  0  0  0
  2  3  1  0  0  0  0
  3  4  1  6  0  0  0
  3  5  1  0  0  0  0
  5  6  1  0  0  0  0
  6  7  2  0  0  0  0
  6  8  1  0  0  0  0
  9  1  1  0  0  0  0
 10 19  1  0  0  0  0
 11 13  1  6  0  0  0
 11 14  1  0  0  0  0
 12 14  1  0  0  0  0
 15 16  1  0  0  0  0
 16  9  1  1  0  0  0
 16 11  1  0  0  0  0
 17 10  2  0  0  0  0
 18 10  1  0  0  0  0
 18 15  1  0  0  0  0
 19 20  1  0  0  0  0
 19 13  1  1  0  0  0
 20 12  1  0  0  0  0
 21 22  1  0  0  0  0
 21  1  1  0  0  0  0
 23 24  1  0  0  0  0
 23 27  1  0  0  0  0
 24 29  2  0  0  0  0
 25 24  1  0  0  0  0
 26 28  1  0  0  0  0
 27 26  2  0  0  0  0
 28 22  1  1  0  0  0
 29 28  1  0  0  0  0
M  END
>  <MODEL>
5

>  <REMARK>
 VINA RESULT:      -7.2      2.651      5.002
  Name = 
  9 active torsions:
  status: ('A' for Active; 'I' for Inactive)
    1  A    between atoms: C_4  and  C_7
    2  A    between atoms: C_4  and  C_15
    3  A    between atoms: C_6  and  C_15
    4  A    between atoms: C_7  and  N_18
    5  A    between atoms: C_10  and  C_12
    6  A    between atoms: C_12  and  N_18
    7  A    between atoms: N_18  and  C_29
    8  A    between atoms: C_26  and  O_28
    9  A    between atoms: O_28  and  C_29
                            x       y       z     vdW  Elec       q    Type
                         _______ _______ _______ _____ _____    ______ ____

>  <TORSDO>
F 9

$$$$
=
 OpenBabel11042410063D

 29 31  0  0  1  0  0  0  0  0999 V2000
  187.5150  177.9950  141.5680 N   0  0  0  0  0  0  0  0  0  0  0  0
  186.4040  178.9350  141.6240 C   0  0  0  0  0  2  0  0  0  0  0  0
  185.3400  178.4330  142.5900 C   0  0  2  0  0  3  0  0  0  0  0  0
  184.2740  177.8780  141.8800 O   0  0  0  0  0  1  0  0  0  0  0  0
  184.8450  179.5370  143.5260 C   0  0  0  0  0  2  0  0  0  0  0  0
  183.9710  179.0140  144.6200 C   0  0  0  0  0  0  0  0  0  0  0  0
  182.6660  178.6280  144.3440 O   0  0  0  0  0  0  0  0  0  0  0  0
  184.4090  178.9430  145.7980 O   0  0  0  0  0  1  0  0  0  0  0  0
  188.6620  178.6970  141.0060 C   0  0  0  0  0  2  0  0  0  0  0  0
  190.6490  175.6600  138.1060 C   0  0  0  0  0  0  0  0  0  0  0  0
  188.0670  177.5440  138.8710 C   0  0  2  0  0  3  0  0  0  0  0  0
  188.5910  178.2510  136.4750 C   0  0  0  0  0  2  0  0  0  0  0  0
  188.2310  176.1740  138.2030 C   0  0  0  0  0  2  0  0  0  0  0  0
  187.9080  178.6290  137.7980 C   0  0  0  0  0  2  0  0  0  0  0  0
  190.0700  176.7530  140.3000 C   0  0  0  0  0  2  0  0  0  0  0  0
  189.2200  177.9310  139.8150 C   0  0  2  0  0  3  0  0  0  0  0  0
  191.3510  174.6940  137.6420 N   0  0  0  0  0  2  0  0  0  0  0  0
  191.1670  176.4330  139.2870 C   0  0  0  0  0  2  0  0  0  0  0  0
  189.4820  176.1560  137.3050 C   0  0  1  0  0  3  0  0  0  0  0  0
  189.8050  177.4730  136.7260 N   0  0  0  0  0  2  0  0  0  0  0  0
  187.8350  177.5520  142.9270 C   0  0  0  0  0  2  0  0  0  0  0  0
  189.1620  177.8530  143.2710 O   0  0  0  0  0  0  0  0  0  0  0  0
  188.8510  177.5380  147.4110 C   0  0  0  0  0  2  0  0  0  0  0  0
  190.0910  177.1230  146.6620 C   0  0  0  0  0  0  0  0  0  0  0  0
  191.1470  176.4650  147.3510 N   0  0  0  0  0  1  0  0  0  0  0  0
  187.7690  177.7820  145.2000 C   0  0  0  0  0  3  0  0  0  0  0  0
  187.6420  177.5030  146.5070 C   0  0  0  0  0  3  0  0  0  0  0  0
  189.1210  178.1410  144.6360 C   0  0  1  0  0  3  0  0  0  0  0  0
  190.2160  177.3990  145.3600 C   0  0  0  0  0  3  0  0  0  0  0  0
  1  2  1  0  0  0  0
  1 21  1  0  0  0  0
  2  3  1  0  0  0  0
  3  4  1  6  0  0  0
  3  5  1  0  0  0  0
  5  6  1  0  0  0  0
  6  8  1  0  0  0  0
  7  6  2  0  0  0  0
  9  1  1  0  0  0  0
 10 18  1  0  0  0  0
 11 14  1  6  0  0  0
 11 16  1  0  0  0  0
 12 20  1  0  0  0  0
 12 14  1  0  0  0  0
 13 11  1  0  0  0  0
 16 15  1  0  0  0  0
 16  9  1  1  0  0  0
 17 10  2  0  0  0  0
 18 15  1  0  0  0  0
 19 10  1  0  0  0  0
 19 13  1  1  0  0  0
 20 19  1  0  0  0  0
 21 22  1  0  0  0  0
 24 25  1  0  0  0  0
 24 23  1  0  0  0  0
 26 27  2  0  0  0  0
 27 23  1  0  0  0  0
 28 22  1  6  0  0  0
 28 26  1  0  0  0  0
 28 29  1  0  0  0  0
 29 24  2  0  0  0  0
M  END
>  <MODEL>
6

>  <REMARK>
 VINA RESULT:      -7.1      1.539      6.093
  Name = 
  9 active torsions:
  status: ('A' for Active; 'I' for Inactive)
    1  A    between atoms: C_4  and  C_7
    2  A    between atoms: C_4  and  C_15
    3  A    between atoms: C_6  and  C_15
    4  A    between atoms: C_7  and  N_18
    5  A    between atoms: C_10  and  C_12
    6  A    between atoms: C_12  and  N_18
    7  A    between atoms: N_18  and  C_29
    8  A    between atoms: C_26  and  O_28
    9  A    between atoms: O_28  and  C_29
                            x       y       z     vdW  Elec       q    Type
                         _______ _______ _______ _____ _____    ______ ____

>  <TORSDO>
F 9

$$$$
=
 OpenBabel11042410063D

 29 31  0  0  1  0  0  0  0  0999 V2000
  188.9370  177.7950  142.7290 N   0  0  0  0  0  0  0  0  0  0  0  0
  188.9440  177.1980  141.4000 C   0  0  0  0  0  2  0  0  0  0  0  0
  188.7730  178.2760  140.3400 C   0  0  2  0  0  3  0  0  0  0  0  0
  187.4200  178.5830  140.1830 O   0  0  0  0  0  1  0  0  0  0  0  0
  189.3910  177.8700  139.0000 C   0  0  0  0  0  2  0  0  0  0  0  0
  188.7460  178.5550  137.8380 C   0  0  0  0  0  0  0  0  0  0  0  0
  187.8280  177.8740  137.0500 O   0  0  0  0  0  0  0  0  0  0  0  0
  189.0500  179.7450  137.5610 O   0  0  0  0  0  1  0  0  0  0  0  0
  188.1140  176.9530  143.5890 C   0  0  0  0  0  2  0  0  0  0  0  0
  184.1030  179.0870  144.5570 C   0  0  0  0  0  0  0  0  0  0  0  0
  186.5770  177.1610  145.5460 C   0  0  2  0  0  3  0  0  0  0  0  0
  186.5170  178.9730  147.3440 C   0  0  0  0  0  2  0  0  0  0  0  0
  185.0740  177.2110  145.8460 C   0  0  0  0  0  2  0  0  0  0  0  0
  187.3510  177.8810  146.6590 C   0  0  0  0  0  2  0  0  0  0  0  0
  185.8220  177.8690  143.1770 C   0  0  0  0  0  2  0  0  0  0  0  0
  186.9710  177.7620  144.1840 C   0  0  2  0  0  3  0  0  0  0  0  0
  182.9340  179.5990  144.4450 N   0  0  0  0  0  2  0  0  0  0  0  0
  185.0460  179.1660  143.3880 C   0  0  0  0  0  2  0  0  0  0  0  0
  184.5840  178.6700  145.9150 C   0  0  1  0  0  3  0  0  0  0  0  0
  185.6170  179.6120  146.3830 N   0  0  0  0  0  2  0  0  0  0  0  0
  190.3070  177.8250  143.2460 C   0  0  0  0  0  2  0  0  0  0  0  0
  190.3970  178.5700  144.4320 O   0  0  0  0  0  0  0  0  0  0  0  0
  192.0630  175.5970  146.8220 C   0  0  0  0  0  2  0  0  0  0  0  0
  192.0210  175.4940  145.3190 C   0  0  0  0  0  0  0  0  0  0  0  0
  192.4240  174.2880  144.6810 N   0  0  0  0  0  1  0  0  0  0  0  0
  190.6010  177.5770  146.5860 C   0  0  0  0  0  3  0  0  0  0  0  0
  190.9840  176.5260  147.3250 C   0  0  0  0  0  3  0  0  0  0  0  0
  191.2550  177.8360  145.2520 C   0  0  1  0  0  3  0  0  0  0  0  0
  191.6360  176.5400  144.5820 C   0  0  0  0  0  3  0  0  0  0  0  0
  1 21  1  0  0  0  0
  1  9  1  0  0  0  0
  2  1  1  0  0  0  0
  3  4  1  6  0  0  0
  3  2  1  0  0  0  0
  5  3  1  0  0  0  0
  6  5  1  0  0  0  0
  7  6  2  0  0  0  0
  8  6  1  0  0  0  0
 10 19  1  0  0  0  0
 11 13  1  1  0  0  0
 11 14  1  0  0  0  0
 14 12  1  0  0  0  0
 15 18  1  0  0  0  0
 15 16  1  0  0  0  0
 16  9  1  6  0  0  0
 16 11  1  0  0  0  0
 17 10  2  0  0  0  0
 18 10  1  0  0  0  0
 19 13  1  6  0  0  0
 19 20  1  0  0  0  0
 20 12  1  0  0  0  0
 21 22  1  0  0  0  0
 23 27  1  0  0  0  0
 24 23  1  0  0  0  0
 25 24  1  0  0  0  0
 26 27  2  0  0  0  0
 28 22  1  6  0  0  0
 28 26  1  0  0  0  0
 29 28  1  0  0  0  0
 29 24  2  0  0  0  0
M  END
>  <MODEL>
7

>  <REMARK>
 VINA RESULT:      -7.1      2.487      6.715
  Name = 
  9 active torsions:
  status: ('A' for Active; 'I' for Inactive)
    1  A    between atoms: C_4  and  C_7
    2  A    between atoms: C_4  and  C_15
    3  A    between atoms: C_6  and  C_15
    4  A    between atoms: C_7  and  N_18
    5  A    between atoms: C_10  and  C_12
    6  A    between atoms: C_12  and  N_18
    7  A    between atoms: N_18  and  C_29
    8  A    between atoms: C_26  and  O_28
    9  A    between atoms: O_28  and  C_29
                            x       y       z     vdW  Elec       q    Type
                         _______ _______ _______ _____ _____    ______ ____

>  <TORSDO>
F 9

$$$$
=
 OpenBabel11042410063D

 29 31  0  0  1  0  0  0  0  0999 V2000
  186.7960  178.8410  142.0260 N   0  0  0  0  0  0  0  0  0  0  0  0
  185.6770  179.5770  142.6000 C   0  0  0  0  0  2  0  0  0  0  0  0
  184.9380  178.7070  143.6060 C   0  0  2  0  0  3  0  0  0  0  0  0
  183.7600  178.2160  143.0400 O   0  0  0  0  0  1  0  0  0  0  0  0
  184.6370  179.4570  144.9050 C   0  0  0  0  0  2  0  0  0  0  0  0
  185.3410  178.8680  146.0860 C   0  0  0  0  0  0  0  0  0  0  0  0
  185.6020  177.5060  146.1320 O   0  0  0  0  0  0  0  0  0  0  0  0
  185.6800  179.6050  147.0480 O   0  0  0  0  0  1  0  0  0  0  0  0
  186.9740  177.6240  142.8100 C   0  0  0  0  0  2  0  0  0  0  0  0
  190.8980  176.9630  145.2070 C   0  0  0  0  0  0  0  0  0  0  0  0
  189.1740  176.4970  142.4480 C   0  0  2  0  0  3  0  0  0  0  0  0
  191.3590  177.4980  141.5870 C   0  0  0  0  0  2  0  0  0  0  0  0
  190.1940  175.6580  143.2270 C   0  0  0  0  0  2  0  0  0  0  0  0
  189.8760  177.2280  141.2950 C   0  0  0  0  0  2  0  0  0  0  0  0
  188.4260  177.2330  144.8100 C   0  0  0  0  0  2  0  0  0  0  0  0
  188.4090  177.5210  143.3060 C   0  0  2  0  0  3  0  0  0  0  0  0
  191.7260  176.7760  146.1670 N   0  0  0  0  0  2  0  0  0  0  0  0
  189.6830  177.8140  145.4520 C   0  0  0  0  0  2  0  0  0  0  0  0
  191.2950  176.5580  143.8190 C   0  0  1  0  0  3  0  0  0  0  0  0
  191.5630  177.7620  143.0120 N   0  0  0  0  0  2  0  0  0  0  0  0
  186.4730  178.4840  140.6420 C   0  0  0  0  0  2  0  0  0  0  0  0
  185.5390  179.3680  140.0830 O   0  0  0  0  0  0  0  0  0  0  0  0
  182.7260  177.6940  137.5110 C   0  0  0  0  0  2  0  0  0  0  0  0
  184.2090  177.5200  137.3070 C   0  0  0  0  0  0  0  0  0  0  0  0
  184.6920  176.8900  136.1260 N   0  0  0  0  0  1  0  0  0  0  0  0
  183.3040  179.3400  139.2640 C   0  0  0  0  0  3  0  0  0  0  0  0
  182.4390  178.9360  138.3210 C   0  0  0  0  0  3  0  0  0  0  0  0
  184.5610  178.5470  139.5210 C   0  0  1  0  0  3  0  0  0  0  0  0
  185.0700  177.9240  138.2450 C   0  0  0  0  0  3  0  0  0  0  0  0
  1  2  1  0  0  0  0
  1  9  1  0  0  0  0
  2  3  1  0  0  0  0
  3  4  1  6  0  0  0
  3  5  1  0  0  0  0
  5  6  1  0  0  0  0
  6  7  2  0  0  0  0
  6  8  1  0  0  0  0
 10 18  1  0  0  0  0
 10 17  2  0  0  0  0
 11 14  1  6  0  0  0
 11 13  1  0  0  0  0
 11 16  1  0  0  0  0
 12 20  1  0  0  0  0
 14 12  1  0  0  0  0
 15 18  1  0  0  0  0
 16  9  1  6  0  0  0
 16 15  1  0  0  0  0
 19 13  1  6  0  0  0
 19 10  1  0  0  0  0
 20 19  1  0  0  0  0
 21  1  1  0  0  0  0
 22 21  1  0  0  0  0
 23 27  1  0  0  0  0
 24 23  1  0  0  0  0
 24 29  2  0  0  0  0
 25 24  1  0  0  0  0
 26 28  1  0  0  0  0
 27 26  2  0  0  0  0
 28 22  1  6  0  0  0
 29 28  1  0  0  0  0
M  END
>  <MODEL>
8

>  <REMARK>
 VINA RESULT:      -7.1      2.299      3.063
  Name = 
  9 active torsions:
  status: ('A' for Active; 'I' for Inactive)
    1  A    between atoms: C_4  and  C_7
    2  A    between atoms: C_4  and  C_15
    3  A    between atoms: C_6  and  C_15
    4  A    between atoms: C_7  and  N_18
    5  A    between atoms: C_10  and  C_12
    6  A    between atoms: C_12  and  N_18
    7  A    between atoms: N_18  and  C_29
    8  A    between atoms: C_26  and  O_28
    9  A    between atoms: O_28  and  C_29
                            x       y       z     vdW  Elec       q    Type
                         _______ _______ _______ _____ _____    ______ ____

>  <TORSDO>
F 9

$$$$
=
 OpenBabel11042410063D

 29 31  0  0  1  0  0  0  0  0999 V2000
  188.5330  177.4870  142.6090 N   0  0  0  0  0  0  0  0  0  0  0  0
  188.7310  177.8690  141.2170 C   0  0  0  0  0  2  0  0  0  0  0  0
  189.4530  176.7590  140.4660 C   0  0  2  0  0  3  0  0  0  0  0  0
  190.5960  176.3720  141.1670 O   0  0  0  0  0  1  0  0  0  0  0  0
  189.8120  177.1700  139.0370 C   0  0  0  0  0  2  0  0  0  0  0  0
  190.8700  176.2990  138.4370 C   0  0  0  0  0  0  0  0  0  0  0  0
  190.5840  174.9810  138.1100 O   0  0  0  0  0  0  0  0  0  0  0  0
  192.0270  176.7550  138.2470 O   0  0  0  0  0  1  0  0  0  0  0  0
  189.4040  178.3230  143.4260 C   0  0  0  0  0  2  0  0  0  0  0  0
  191.6900  176.2350  146.8890 C   0  0  0  0  0  0  0  0  0  0  0  0
  189.3580  178.3410  145.9230 C   0  0  2  0  0  3  0  0  0  0  0  0
  188.0960  176.7890  147.5080 C   0  0  0  0  0  2  0  0  0  0  0  0
  190.3330  178.2930  147.1060 C   0  0  0  0  0  2  0  0  0  0  0  0
  187.9900  177.7990  146.3570 C   0  0  0  0  0  2  0  0  0  0  0  0
  191.3420  177.3000  144.6340 C   0  0  0  0  0  2  0  0  0  0  0  0
  189.8360  177.5730  144.6770 C   0  0  2  0  0  3  0  0  0  0  0  0
  192.6130  175.6830  147.5850 N   0  0  0  0  0  2  0  0  0  0  0  0
  191.6770  176.0230  145.4010 C   0  0  0  0  0  2  0  0  0  0  0  0
  190.5160  176.8450  147.5970 C   0  0  1  0  0  3  0  0  0  0  0  0
  189.3240  176.0020  147.3910 N   0  0  0  0  0  2  0  0  0  0  0  0
  187.1370  177.7340  142.9780 C   0  0  0  0  0  2  0  0  0  0  0  0
  186.4150  178.3060  141.9200 O   0  0  0  0  0  0  0  0  0  0  0  0
  182.9370  179.1840  144.0340 C   0  0  0  0  0  2  0  0  0  0  0  0
  184.2280  178.8210  144.7210 C   0  0  0  0  0  0  0  0  0  0  0  0
  184.2490  178.6220  146.1300 N   0  0  0  0  0  1  0  0  0  0  0  0
  184.0450  178.5370  141.9200 C   0  0  0  0  0  3  0  0  0  0  0  0
  182.9090  178.6400  142.6260 C   0  0  0  0  0  3  0  0  0  0  0  0
  185.3530  178.9730  142.5320 C   0  0  1  0  0  3  0  0  0  0  0  0
  185.3600  178.7150  144.0180 C   0  0  0  0  0  3  0  0  0  0  0  0
  1 21  1  0  0  0  0
  1  9  1  0  0  0  0
  2  1  1  0  0  0  0
  3  4  1  1  0  0  0
  3  2  1  0  0  0  0
  5  3  1  0  0  0  0
  6  5  1  0  0  0  0
  7  6  2  0  0  0  0
  8  6  1  0  0  0  0
 10 17  2  0  0  0  0
 10 19  1  0  0  0  0
 11 14  1  1  0  0  0
 11 13  1  0  0  0  0
 14 12  1  0  0  0  0
 15 16  1  0  0  0  0
 15 18  1  0  0  0  0
 16  9  1  6  0  0  0
 16 11  1  0  0  0  0
 18 10  1  0  0  0  0
 19 13  1  6  0  0  0
 20 12  1  0  0  0  0
 20 19  1  0  0  0  0
 22 21  1  0  0  0  0
 23 24  1  0  0  0  0
 24 25  1  0  0  0  0
 26 28  1  0  0  0  0
 26 27  2  0  0  0  0
 27 23  1  0  0  0  0
 28 22  1  6  0  0  0
 28 29  1  0  0  0  0
 29 24  2  0  0  0  0
M  END
>  <MODEL>
9

>  <REMARK>
 VINA RESULT:      -6.8      2.364      6.171
  Name = 
  9 active torsions:
  status: ('A' for Active; 'I' for Inactive)
    1  A    between atoms: C_4  and  C_7
    2  A    between atoms: C_4  and  C_15
    3  A    between atoms: C_6  and  C_15
    4  A    between atoms: C_7  and  N_18
    5  A    between atoms: C_10  and  C_12
    6  A    between atoms: C_12  and  N_18
    7  A    between atoms: N_18  and  C_29
    8  A    between atoms: C_26  and  O_28
    9  A    between atoms: O_28  and  C_29
                            x       y       z     vdW  Elec       q    Type
                         _______ _______ _______ _____ _____    ______ ____

>  <TORSDO>
F 9

$$$$
