=
 OpenBabel11042413243D

 50 56  0  0  1  0  0  0  0  0999 V2000
  187.0940  178.0140  137.3130 C   0  0  0  0  0  0  0  0  0  0  0  0
  186.5930  178.5930  136.0080 C   0  0  0  0  0  2  0  0  0  0  0  0
  187.8910  179.1000  136.6040 C   0  0  0  0  0  2  0  0  0  0  0  0
  187.8490  176.6930  137.3400 C   0  0  0  0  0  0  0  0  0  0  0  0
  189.7000  174.6800  135.7730 C   0  0  0  0  0  0  0  0  0  0  0  0
  190.4740  174.3770  134.8260 O   0  0  0  0  0  0  0  0  0  0  0  0
  187.6300  174.2090  137.0000 C   0  0  0  0  0  2  0  0  0  0  0  0
  190.1640  177.1370  138.4370 C   0  0  0  0  0  0  0  0  0  0  0  0
  191.3800  175.6690  137.4160 C   0  0  0  0  0  0  0  0  0  0  0  0
  189.3400  176.5790  137.4650 C   0  0  0  0  0  0  0  0  0  0  0  0
  188.4450  174.0780  135.8460 O   0  0  0  0  0  0  0  0  0  0  0  0
  187.0980  175.6040  137.0920 C   0  0  0  0  0  3  0  0  0  0  0  0
  191.3740  176.5500  138.4370 N   0  0  0  0  0  2  0  0  0  0  0  0
  190.1410  175.6720  136.7830 C   0  0  0  0  0  0  0  0  0  0  0  0
  190.1430  177.5070  140.8740 C   0  0  0  0  0  1  0  0  0  0  0  0
  189.7650  178.0750  139.5200 C   0  0  0  0  0  2  0  0  0  0  0  0
  192.4900  174.2380  137.4060 S   0  0  0  0  0  0  0  0  0  0  0  0
  196.0740  175.6430  134.9820 C   0  0  2  0  0  3  0  0  0  0  0  0
  195.0680  176.7180  135.3640 C   0  0  0  0  0  2  0  0  0  0  0  0
  195.0220  174.0660  136.5670 O   0  0  0  0  0  0  0  0  0  0  0  0
  193.7860  176.0470  135.8340 C   0  0  0  0  0  2  0  0  0  0  0  0
  196.2530  174.6530  136.1450 C   0  0  2  0  0  3  0  0  0  0  0  0
  194.0650  175.0460  136.9530 C   0  0  1  0  0  0  0  0  0  0  0  0
  194.5060  175.7420  138.0810 O   0  0  0  0  0  1  0  0  0  0  0  0
  197.2870  176.2710  134.7310 F   0  0  0  0  0  0  0  0  0  0  0  0
  197.8380  174.2350  137.6300 C   0  0  0  0  0  1  0  0  0  0  0  0
  196.9500  175.2330  137.2190 O   0  0  0  0  0  0  0  0  0  0  0  0
  186.2630  178.4620  138.5300 C   0  0  1  0  0  3  0  0  0  0  0  0
  182.7710  176.8020  137.5440 C   0  0  0  0  0  2  0  0  0  0  0  0
  184.1220  176.9750  138.3190 C   0  0  0  0  0  2  0  0  0  0  0  0
  180.7550  178.2870  138.1260 O   0  0  0  0  0  0  0  0  0  0  0  0
  181.8700  178.3320  138.9770 C   0  0  2  0  0  3  0  0  0  0  0  0
  184.7570  178.4020  138.1950 C   0  0  1  0  0  3  0  0  0  0  0  0
  182.6690  179.5690  139.1760 C   0  0  0  0  0  3  0  0  0  0  0  0
  183.9990  179.5590  138.8760 C   0  0  0  0  0  3  0  0  0  0  0  0
  182.0120  178.1170  137.5150 C   0  0  1  0  0  3  0  0  0  0  0  0
  186.6300  177.7340  139.8400 C   0  0  0  0  0  2  0  0  0  0  0  0
  186.6550  178.6480  141.0670 C   0  0  0  0  0  2  0  0  0  0  0  0
  185.6060  178.2320  142.0980 C   0  0  0  0  0  2  0  0  0  0  0  0
  185.6750  178.3120  145.9810 C   0  0  0  0  0  0  0  0  0  0  0  0
  184.8440  178.5500  147.0730 O   0  0  0  0  0  1  0  0  0  0  0  0
  185.1760  178.4840  144.6710 C   0  0  0  0  0  0  0  0  0  0  0  0
  187.7800  177.5250  145.0880 C   0  0  0  0  0  3  0  0  0  0  0  0
  186.0190  178.2110  143.5500 C   0  0  0  0  0  0  0  0  0  0  0  0
  183.7680  178.9630  144.5150 C   0  0  0  0  0  1  0  0  0  0  0  0
  187.2900  177.6810  143.7890 C   0  0  0  0  0  3  0  0  0  0  0  0
  187.0070  177.8980  146.1810 C   0  0  0  0  0  0  0  0  0  0  0  0
  187.5660  177.7010  147.5480 C   0  0  0  0  0  2  0  0  0  0  0  0
  188.8140  176.8500  147.4840 C   0  0  0  0  0  2  0  0  0  0  0  0
  189.8990  177.5990  147.9740 O   0  0  0  0  0  1  0  0  0  0  0  0
  1  4  1  0  0  0  0
  1 28  1  0  0  0  0
  2  3  1  0  0  0  0
  2  1  1  0  0  0  0
  3  1  1  0  0  0  0
  4 10  1  0  0  0  0
  5 11  1  0  0  0  0
  5 14  1  0  0  0  0
  6  5  2  0  0  0  0
  7 12  1  0  0  0  0
  8 16  1  0  0  0  0
  9 13  1  0  0  0  0
 10  8  2  0  0  0  0
 11  7  1  0  0  0  0
 12  4  2  0  0  0  0
 13  8  1  0  0  0  0
 14  9  2  0  0  0  0
 14 10  1  0  0  0  0
 16 15  1  0  0  0  0
 17  9  1  0  0  0  0
 18 25  1  1  0  0  0
 18 19  1  0  0  0  0
 18 22  1  0  0  0  0
 19 21  1  0  0  0  0
 20 23  1  0  0  0  0
 21 23  1  0  0  0  0
 22 20  1  0  0  0  0
 22 27  1  1  0  0  0
 23 17  1  0  0  0  0
 23 24  1  1  0  0  0
 27 26  1  0  0  0  0
 28 37  1  1  0  0  0
 29 30  1  0  0  0  0
 31 32  1  0  0  0  0
 32 34  1  6  0  0  0
 33 30  1  0  0  0  0
 33 28  1  1  0  0  0
 33 35  1  0  0  0  0
 35 34  2  0  0  0  0
 36 29  1  1  0  0  0
 36 31  1  0  0  0  0
 36 32  1  0  0  0  0
 37 38  1  0  0  0  0
 38 39  1  0  0  0  0
 39 44  1  0  0  0  0
 40 47  1  0  0  0  0
 40 41  1  0  0  0  0
 42 40  2  0  0  0  0
 43 47  2  0  0  0  0
 44 46  2  0  0  0  0
 44 42  1  0  0  0  0
 45 42  1  0  0  0  0
 46 43  1  0  0  0  0
 47 48  1  0  0  0  0
 49 48  1  0  0  0  0
 49 50  1  0  0  0  0
M  END
>  <MODEL>
1

>  <REMARK>
 VINA RESULT:      -8.1      0.000      0.000
  Name = 
  13 active torsions:
  status: ('A' for Active; 'I' for Inactive)
    1  A    between atoms: C_3  and  C_6
    2  A    between atoms: C_3  and  C_11
    3  A    between atoms: C_11  and  C_35
    4  A    between atoms: C_11  and  C_41
    5  A    between atoms: C_12  and  C_36
    6  A    between atoms: C_12  and  C_45
    7  A    between atoms: C_16  and  C_42
    8  A    between atoms: C_24  and  C_37
    9  A    between atoms: C_25  and  O_38
   10  A    between atoms: C_26  and  S_31
   11  A    between atoms: C_27  and  S_31
   12  A    between atoms: C_37  and  C_39
   13  A    between atoms: C_39  and  C_41
                            x       y       z     vdW  Elec       q    Type
                         _______ _______ _______ _____ _____    ______ ____

>  <TORSDO>
F 13

$$$$
=
 OpenBabel11042413243D

 50 56  0  0  1  0  0  0  0  0999 V2000
  188.6390  177.9180  138.6410 C   0  0  0  0  0  0  0  0  0  0  0  0
  189.3190  179.1680  138.1270 C   0  0  0  0  0  2  0  0  0  0  0  0
  188.7290  178.1770  137.1440 C   0  0  0  0  0  2  0  0  0  0  0  0
  187.1990  177.9600  139.1300 C   0  0  0  0  0  0  0  0  0  0  0  0
  184.4800  179.5530  139.1940 C   0  0  0  0  0  0  0  0  0  0  0  0
  183.7000  180.4520  138.7810 O   0  0  0  0  0  0  0  0  0  0  0  0
  185.7190  178.5740  141.0700 C   0  0  0  0  0  2  0  0  0  0  0  0
  185.7560  176.6170  137.4350 C   0  0  0  0  0  0  0  0  0  0  0  0
  183.8740  177.6710  137.5860 C   0  0  0  0  0  0  0  0  0  0  0  0
  186.0050  177.7130  138.2540 C   0  0  1  0  0  3  0  0  0  0  0  0
  185.0220  179.6580  140.4740 O   0  0  0  0  0  0  0  0  0  0  0  0
  187.0410  178.3870  140.3960 C   0  0  0  0  0  3  0  0  0  0  0  0
  184.4610  176.5680  137.0770 N   0  0  0  0  0  0  0  0  0  0  0  0
  184.8050  178.4100  138.3080 C   0  0  0  0  0  0  0  0  0  0  0  0
  186.8760  175.3300  135.6540 C   0  0  0  0  0  1  0  0  0  0  0  0
  186.6760  175.4830  137.1500 C   0  0  0  0  0  2  0  0  0  0  0  0
  182.0940  177.7280  137.9190 S   0  0  0  0  0  0  0  0  0  0  0  0
  180.4190  173.5180  137.5130 C   0  0  2  0  0  3  0  0  0  0  0  0
  179.5790  174.6290  136.9030 C   0  0  0  0  0  2  0  0  0  0  0  0
  182.3260  175.0710  137.7630 O   0  0  0  0  0  0  0  0  0  0  0  0
  180.0730  175.9670  137.4320 C   0  0  0  0  0  2  0  0  0  0  0  0
  181.9120  173.7950  137.2710 C   0  0  2  0  0  3  0  0  0  0  0  0
  181.5720  176.1350  137.1940 C   0  0  1  0  0  0  0  0  0  0  0  0
  181.8040  176.2170  135.8180 O   0  0  0  0  0  1  0  0  0  0  0  0
  180.0700  172.3310  136.8830 F   0  0  0  0  0  0  0  0  0  0  0  0
  183.5400  173.0550  135.9700 C   0  0  0  0  0  1  0  0  0  0  0  0
  182.2610  173.6180  135.9210 O   0  0  0  0  0  0  0  0  0  0  0  0
  189.6280  176.8850  139.2150 C   0  0  1  0  0  3  0  0  0  0  0  0
  192.9930  176.4510  137.1150 C   0  0  0  0  0  2  0  0  0  0  0  0
  192.0830  176.5250  138.3880 C   0  0  0  0  0  2  0  0  0  0  0  0
  193.0000  174.3330  135.6580 O   0  0  0  0  0  0  0  0  0  0  0  0
  192.3340  174.2780  136.8920 C   0  0  2  0  0  3  0  0  0  0  0  0
  190.5530  176.3580  138.0960 C   0  0  1  0  0  3  0  0  0  0  0  0
  190.8710  174.0410  136.9970 C   0  0  0  0  0  3  0  0  0  0  0  0
  190.0870  174.9720  137.6100 C   0  0  0  0  0  3  0  0  0  0  0  0
  192.3760  175.5220  136.0830 C   0  0  1  0  0  3  0  0  0  0  0  0
  190.3910  177.3770  140.4620 C   0  0  0  0  0  2  0  0  0  0  0  0
  190.3480  176.3970  141.6370 C   0  0  0  0  0  2  0  0  0  0  0  0
  190.6640  177.0950  142.9600 C   0  0  0  0  0  2  0  0  0  0  0  0
  188.6510  177.3700  146.2710 C   0  0  0  0  0  0  0  0  0  0  0  0
  188.8410  177.4720  147.6470 O   0  0  0  0  0  1  0  0  0  0  0  0
  189.7680  177.2170  145.4200 C   0  0  0  0  0  0  0  0  0  0  0  0
  187.1860  177.4640  144.3500 C   0  0  0  0  0  3  0  0  0  0  0  0
  189.5760  177.1410  144.0070 C   0  0  0  0  0  0  0  0  0  0  0  0
  191.1210  177.1270  146.0500 C   0  0  0  0  0  1  0  0  0  0  0  0
  188.2870  177.3240  143.5010 C   0  0  0  0  0  3  0  0  0  0  0  0
  187.3520  177.4220  145.7290 C   0  0  0  0  0  0  0  0  0  0  0  0
  186.1510  177.5890  146.5950 C   0  0  0  0  0  2  0  0  0  0  0  0
  185.5210  178.9430  146.3590 C   0  0  0  0  0  2  0  0  0  0  0  0
  185.8450  179.7880  147.4360 O   0  0  0  0  0  1  0  0  0  0  0  0
  1  4  1  0  0  0  0
  1 28  1  0  0  0  0
  2  1  1  0  0  0  0
  3  2  1  0  0  0  0
  3  1  1  0  0  0  0
  4 12  2  0  0  0  0
  5 11  1  0  0  0  0
  6  5  2  0  0  0  0
  9 17  1  0  0  0  0
  9 14  2  0  0  0  0
 10  8  1  1  0  0  0
 10 14  1  0  0  0  0
 10  4  1  0  0  0  0
 11  7  1  0  0  0  0
 12  7  1  0  0  0  0
 13  8  2  0  0  0  0
 13  9  1  0  0  0  0
 14  5  1  0  0  0  0
 15 16  1  0  0  0  0
 16  8  1  0  0  0  0
 18 25  1  6  0  0  0
 19 21  1  0  0  0  0
 19 18  1  0  0  0  0
 22 27  1  6  0  0  0
 22 18  1  0  0  0  0
 22 20  1  0  0  0  0
 23 24  1  6  0  0  0
 23 21  1  0  0  0  0
 23 20  1  0  0  0  0
 23 17  1  0  0  0  0
 27 26  1  0  0  0  0
 28 37  1  1  0  0  0
 29 30  1  0  0  0  0
 31 36  1  0  0  0  0
 31 32  1  0  0  0  0
 32 34  1  6  0  0  0
 33 30  1  0  0  0  0
 33 28  1  1  0  0  0
 34 35  2  0  0  0  0
 35 33  1  0  0  0  0
 36 32  1  0  0  0  0
 36 29  1  1  0  0  0
 37 38  1  0  0  0  0
 38 39  1  0  0  0  0
 39 44  1  0  0  0  0
 40 41  1  0  0  0  0
 42 45  1  0  0  0  0
 42 40  2  0  0  0  0
 43 47  2  0  0  0  0
 44 42  1  0  0  0  0
 46 44  2  0  0  0  0
 46 43  1  0  0  0  0
 47 40  1  0  0  0  0
 47 48  1  0  0  0  0
 49 48  1  0  0  0  0
 49 50  1  0  0  0  0
M  END
>  <MODEL>
2

>  <REMARK>
 VINA RESULT:      -7.5      3.789      8.761
  Name = 
  13 active torsions:
  status: ('A' for Active; 'I' for Inactive)
    1  A    between atoms: C_3  and  C_6
    2  A    between atoms: C_3  and  C_11
    3  A    between atoms: C_11  and  C_35
    4  A    between atoms: C_11  and  C_41
    5  A    between atoms: C_12  and  C_36
    6  A    between atoms: C_12  and  C_45
    7  A    between atoms: C_16  and  C_42
    8  A    between atoms: C_24  and  C_37
    9  A    between atoms: C_25  and  O_38
   10  A    between atoms: C_26  and  S_31
   11  A    between atoms: C_27  and  S_31
   12  A    between atoms: C_37  and  C_39
   13  A    between atoms: C_39  and  C_41
                            x       y       z     vdW  Elec       q    Type
                         _______ _______ _______ _____ _____    ______ ____

>  <TORSDO>
F 13

$$$$
=
 OpenBabel11042413243D

 50 56  0  0  1  0  0  0  0  0999 V2000
  186.9840  177.7550  136.9920 C   0  0  0  0  0  0  0  0  0  0  0  0
  187.4270  179.1820  136.7590 C   0  0  0  0  0  2  0  0  0  0  0  0
  187.6110  178.1510  135.6640 C   0  0  0  0  0  2  0  0  0  0  0  0
  185.5260  177.3540  136.8250 C   0  0  0  0  0  0  0  0  0  0  0  0
  183.4060  175.0230  136.8950 C   0  0  0  0  0  0  0  0  0  0  0  0
  183.0340  173.8570  137.1960 O   0  0  0  0  0  0  0  0  0  0  0  0
  183.7670  176.7040  135.1470 C   0  0  0  0  0  2  0  0  0  0  0  0
  184.3290  177.7920  139.0910 C   0  0  0  0  0  0  0  0  0  0  0  0
  182.8180  176.2450  139.0530 C   0  0  0  0  0  0  0  0  0  0  0  0
  184.6080  177.0230  137.9660 C   0  0  0  0  0  0  0  0  0  0  0  0
  183.5710  175.3580  135.5520 O   0  0  0  0  0  0  0  0  0  0  0  0
  185.1310  177.1640  135.5530 C   0  0  0  0  0  3  0  0  0  0  0  0
  183.2210  177.3500  139.7130 N   0  0  0  0  0  2  0  0  0  0  0  0
  183.6640  176.0050  137.9740 C   0  0  0  0  0  0  0  0  0  0  0  0
  184.8470  179.2940  140.9760 C   0  0  0  0  0  1  0  0  0  0  0  0
  184.9670  179.0780  139.4800 C   0  0  0  0  0  2  0  0  0  0  0  0
  181.0950  175.6890  139.0990 S   0  0  0  0  0  0  0  0  0  0  0  0
  180.4120  179.9880  140.4210 C   0  0  2  0  0  3  0  0  0  0  0  0
  179.7550  179.5840  139.1100 C   0  0  0  0  0  2  0  0  0  0  0  0
  180.8870  177.6180  140.9370 O   0  0  0  0  0  0  0  0  0  0  0  0
  180.3660  178.2740  138.6370 C   0  0  0  0  0  2  0  0  0  0  0  0
  180.3220  178.8330  141.4320 C   0  0  2  0  0  3  0  0  0  0  0  0
  180.2780  177.2010  139.7200 C   0  0  1  0  0  0  0  0  0  0  0  0
  178.9340  176.8810  139.9300 O   0  0  0  0  0  1  0  0  0  0  0  0
  179.7180  181.0820  140.9210 F   0  0  0  0  0  0  0  0  0  0  0  0
  179.0360  179.1210  143.2080 C   0  0  0  0  0  1  0  0  0  0  0  0
  179.0070  178.6470  141.8940 O   0  0  0  0  0  0  0  0  0  0  0  0
  187.8940  176.9930  137.9760 C   0  0  1  0  0  3  0  0  0  0  0  0
  191.2710  175.2640  136.7380 C   0  0  0  0  0  2  0  0  0  0  0  0
  190.2480  175.8750  137.7560 C   0  0  0  0  0  2  0  0  0  0  0  0
  190.9020  172.8960  135.8070 O   0  0  0  0  0  0  0  0  0  0  0  0
  190.0830  173.3200  136.8650 C   0  0  2  0  0  3  0  0  0  0  0  0
  188.7860  175.9940  137.2060 C   0  0  1  0  0  3  0  0  0  0  0  0
  188.6100  173.4610  136.7230 C   0  0  0  0  0  3  0  0  0  0  0  0
  188.0320  174.6740  136.9490 C   0  0  0  0  0  3  0  0  0  0  0  0
  190.5730  174.2650  135.8300 C   0  0  1  0  0  3  0  0  0  0  0  0
  188.6830  177.9090  138.9340 C   0  0  0  0  0  2  0  0  0  0  0  0
  188.1100  177.9560  140.3520 C   0  0  0  0  0  2  0  0  0  0  0  0
  189.1180  177.4460  141.3820 C   0  0  0  0  0  2  0  0  0  0  0  0
  188.9780  177.5820  145.2610 C   0  0  0  0  0  0  0  0  0  0  0  0
  189.8110  177.7170  146.3700 O   0  0  0  0  0  1  0  0  0  0  0  0
  189.5400  177.5180  143.9680 C   0  0  0  0  0  0  0  0  0  0  0  0
  186.7550  177.5260  144.3110 C   0  0  0  0  0  3  0  0  0  0  0  0
  188.6850  177.4090  142.8280 C   0  0  0  0  0  0  0  0  0  0  0  0
  191.0310  177.5540  143.8490 C   0  0  0  0  0  1  0  0  0  0  0  0
  187.3040  177.4730  143.0270 C   0  0  0  0  0  3  0  0  0  0  0  0
  187.5810  177.5150  145.4290 C   0  0  0  0  0  0  0  0  0  0  0  0
  186.9520  177.5870  146.7780 C   0  0  0  0  0  2  0  0  0  0  0  0
  185.5850  178.2250  146.6840 C   0  0  0  0  0  2  0  0  0  0  0  0
  185.7200  179.6140  146.8610 O   0  0  0  0  0  1  0  0  0  0  0  0
  1 28  1  0  0  0  0
  2  1  1  0  0  0  0
  3  2  1  0  0  0  0
  3  1  1  0  0  0  0
  4  1  1  0  0  0  0
  4 10  1  0  0  0  0
  5  6  2  0  0  0  0
  5 14  1  0  0  0  0
  7 11  1  0  0  0  0
  7 12  1  0  0  0  0
  8 16  1  0  0  0  0
  8 13  1  0  0  0  0
  9 17  1  0  0  0  0
  9 13  1  0  0  0  0
 10 14  1  0  0  0  0
 10  8  2  0  0  0  0
 11  5  1  0  0  0  0
 12  4  2  0  0  0  0
 14  9  2  0  0  0  0
 16 15  1  0  0  0  0
 17 23  1  0  0  0  0
 18 25  1  1  0  0  0
 18 22  1  0  0  0  0
 19 18  1  0  0  0  0
 20 22  1  0  0  0  0
 21 19  1  0  0  0  0
 21 23  1  0  0  0  0
 22 27  1  6  0  0  0
 23 24  1  1  0  0  0
 23 20  1  0  0  0  0
 27 26  1  0  0  0  0
 28 37  1  6  0  0  0
 29 30  1  0  0  0  0
 31 36  1  0  0  0  0
 31 32  1  0  0  0  0
 32 34  1  6  0  0  0
 33 30  1  0  0  0  0
 33 28  1  1  0  0  0
 34 35  2  0  0  0  0
 35 33  1  0  0  0  0
 36 29  1  1  0  0  0
 36 32  1  0  0  0  0
 37 38  1  0  0  0  0
 38 39  1  0  0  0  0
 39 44  1  0  0  0  0
 40 47  1  0  0  0  0
 40 41  1  0  0  0  0
 42 40  2  0  0  0  0
 43 47  2  0  0  0  0
 44 46  2  0  0  0  0
 44 42  1  0  0  0  0
 45 42  1  0  0  0  0
 46 43  1  0  0  0  0
 47 48  1  0  0  0  0
 49 48  1  0  0  0  0
 49 50  1  0  0  0  0
M  END
>  <MODEL>
3

>  <REMARK>
 VINA RESULT:      -7.0      4.194      9.207
  Name = 
  13 active torsions:
  status: ('A' for Active; 'I' for Inactive)
    1  A    between atoms: C_3  and  C_6
    2  A    between atoms: C_3  and  C_11
    3  A    between atoms: C_11  and  C_35
    4  A    between atoms: C_11  and  C_41
    5  A    between atoms: C_12  and  C_36
    6  A    between atoms: C_12  and  C_45
    7  A    between atoms: C_16  and  C_42
    8  A    between atoms: C_24  and  C_37
    9  A    between atoms: C_25  and  O_38
   10  A    between atoms: C_26  and  S_31
   11  A    between atoms: C_27  and  S_31
   12  A    between atoms: C_37  and  C_39
   13  A    between atoms: C_39  and  C_41
                            x       y       z     vdW  Elec       q    Type
                         _______ _______ _______ _____ _____    ______ ____

>  <TORSDO>
F 13

$$$$
=
 OpenBabel11042413243D

 50 56  0  0  1  0  0  0  0  0999 V2000
  188.4270  177.9620  138.2700 C   0  0  0  0  0  0  0  0  0  0  0  0
  189.0800  179.2230  137.7500 C   0  0  0  0  0  2  0  0  0  0  0  0
  188.4170  178.2670  136.7790 C   0  0  0  0  0  2  0  0  0  0  0  0
  187.0240  177.9970  138.8580 C   0  0  0  0  0  0  0  0  0  0  0  0
  184.2980  179.5620  139.0870 C   0  0  0  0  0  0  0  0  0  0  0  0
  183.4810  180.4470  138.7150 O   0  0  0  0  0  0  0  0  0  0  0  0
  185.6760  178.6280  140.8870 C   0  0  0  0  0  2  0  0  0  0  0  0
  185.4820  176.6120  137.2890 C   0  0  0  0  0  0  0  0  0  0  0  0
  183.6030  177.6480  137.5540 C   0  0  0  0  0  0  0  0  0  0  0  0
  185.7750  177.7230  138.0720 C   0  0  1  0  0  3  0  0  0  0  0  0
  184.9270  179.6940  140.3240 O   0  0  0  0  0  0  0  0  0  0  0  0
  186.9500  178.4430  140.1250 C   0  0  0  0  0  3  0  0  0  0  0  0
  184.1660  176.5430  137.0230 N   0  0  0  0  0  0  0  0  0  0  0  0
  184.5740  178.4080  138.1980 C   0  0  0  0  0  0  0  0  0  0  0  0
  185.7020  174.1570  137.2140 C   0  0  0  0  0  1  0  0  0  0  0  0
  186.3920  175.4820  136.9580 C   0  0  0  0  0  2  0  0  0  0  0  0
  181.8510  177.6930  138.0100 S   0  0  0  0  0  0  0  0  0  0  0  0
  180.3000  173.4240  137.7560 C   0  0  2  0  0  3  0  0  0  0  0  0
  179.3390  174.5080  137.2940 C   0  0  0  0  0  2  0  0  0  0  0  0
  182.1610  175.0500  137.7670 O   0  0  0  0  0  0  0  0  0  0  0  0
  179.8510  175.8570  137.7760 C   0  0  0  0  0  2  0  0  0  0  0  0
  181.7320  173.7660  137.3110 C   0  0  2  0  0  3  0  0  0  0  0  0
  181.2930  176.0900  137.3320 C   0  0  1  0  0  0  0  0  0  0  0  0
  181.3240  176.2040  135.9400 O   0  0  0  0  0  1  0  0  0  0  0  0
  179.9120  172.2330  137.1560 F   0  0  0  0  0  0  0  0  0  0  0  0
  182.7000  172.4910  135.7850 C   0  0  0  0  0  1  0  0  0  0  0  0
  181.8930  173.6240  135.9210 O   0  0  0  0  0  0  0  0  0  0  0  0
  189.4440  176.9060  138.7430 C   0  0  1  0  0  3  0  0  0  0  0  0
  192.2010  176.1030  135.9710 C   0  0  0  0  0  2  0  0  0  0  0  0
  191.6290  176.3860  137.4020 C   0  0  0  0  0  2  0  0  0  0  0  0
  191.9000  173.7860  134.8990 O   0  0  0  0  0  0  0  0  0  0  0  0
  191.5590  173.9320  136.2530 C   0  0  2  0  0  3  0  0  0  0  0  0
  190.0790  176.1990  137.5240 C   0  0  1  0  0  3  0  0  0  0  0  0
  190.1720  173.7350  136.7490 C   0  0  0  0  0  3  0  0  0  0  0  0
  189.5410  174.7610  137.3860 C   0  0  0  0  0  3  0  0  0  0  0  0
  191.3720  175.0350  135.2770 C   0  0  1  0  0  3  0  0  0  0  0  0
  190.4820  177.4440  139.7490 C   0  0  0  0  0  2  0  0  0  0  0  0
  190.3500  176.8440  141.1510 C   0  0  0  0  0  2  0  0  0  0  0  0
  189.4510  177.6990  142.0440 C   0  0  0  0  0  2  0  0  0  0  0  0
  188.9880  177.3080  145.8810 C   0  0  0  0  0  0  0  0  0  0  0  0
  187.9890  177.1650  146.8410 O   0  0  0  0  0  1  0  0  0  0  0  0
  188.6350  177.4960  144.5270 C   0  0  0  0  0  0  0  0  0  0  0  0
  191.3290  177.2590  145.2760 C   0  0  0  0  0  3  0  0  0  0  0  0
  189.6590  177.6120  143.5370 C   0  0  0  0  0  0  0  0  0  0  0  0
  187.1810  177.5770  144.1860 C   0  0  0  0  0  1  0  0  0  0  0  0
  190.9870  177.4340  143.9320 C   0  0  0  0  0  3  0  0  0  0  0  0
  190.3450  177.2610  146.2570 C   0  0  0  0  0  0  0  0  0  0  0  0
  190.7540  177.0580  147.6750 C   0  0  0  0  0  2  0  0  0  0  0  0
  192.0520  176.2850  147.7390 C   0  0  0  0  0  2  0  0  0  0  0  0
  191.7710  174.9140  147.5870 O   0  0  0  0  0  1  0  0  0  0  0  0
  1 28  1  0  0  0  0
  1  4  1  0  0  0  0
  2  1  1  0  0  0  0
  3  2  1  0  0  0  0
  3  1  1  0  0  0  0
  4 12  2  0  0  0  0
  5 11  1  0  0  0  0
  6  5  2  0  0  0  0
  9 17  1  0  0  0  0
  9 14  2  0  0  0  0
 10  8  1  1  0  0  0
 10 14  1  0  0  0  0
 10  4  1  0  0  0  0
 11  7  1  0  0  0  0
 12  7  1  0  0  0  0
 13  8  2  0  0  0  0
 13  9  1  0  0  0  0
 14  5  1  0  0  0  0
 16 15  1  0  0  0  0
 16  8  1  0  0  0  0
 18 25  1  6  0  0  0
 19 18  1  0  0  0  0
 19 21  1  0  0  0  0
 22 27  1  6  0  0  0
 22 18  1  0  0  0  0
 22 20  1  0  0  0  0
 23 24  1  6  0  0  0
 23 20  1  0  0  0  0
 23 21  1  0  0  0  0
 23 17  1  0  0  0  0
 26 27  1  0  0  0  0
 28 37  1  6  0  0  0
 29 30  1  0  0  0  0
 30 33  1  0  0  0  0
 31 36  1  0  0  0  0
 31 32  1  0  0  0  0
 32 34  1  6  0  0  0
 33 28  1  1  0  0  0
 34 35  2  0  0  0  0
 35 33  1  0  0  0  0
 36 29  1  1  0  0  0
 36 32  1  0  0  0  0
 37 38  1  0  0  0  0
 38 39  1  0  0  0  0
 39 44  1  0  0  0  0
 40 47  1  0  0  0  0
 40 41  1  0  0  0  0
 42 40  2  0  0  0  0
 43 47  2  0  0  0  0
 44 46  2  0  0  0  0
 44 42  1  0  0  0  0
 45 42  1  0  0  0  0
 46 43  1  0  0  0  0
 47 48  1  0  0  0  0
 48 49  1  0  0  0  0
 50 49  1  0  0  0  0
M  END
>  <MODEL>
4

>  <REMARK>
 VINA RESULT:      -6.9      3.948      8.753
  Name = 
  13 active torsions:
  status: ('A' for Active; 'I' for Inactive)
    1  A    between atoms: C_3  and  C_6
    2  A    between atoms: C_3  and  C_11
    3  A    between atoms: C_11  and  C_35
    4  A    between atoms: C_11  and  C_41
    5  A    between atoms: C_12  and  C_36
    6  A    between atoms: C_12  and  C_45
    7  A    between atoms: C_16  and  C_42
    8  A    between atoms: C_24  and  C_37
    9  A    between atoms: C_25  and  O_38
   10  A    between atoms: C_26  and  S_31
   11  A    between atoms: C_27  and  S_31
   12  A    between atoms: C_37  and  C_39
   13  A    between atoms: C_39  and  C_41
                            x       y       z     vdW  Elec       q    Type
                         _______ _______ _______ _____ _____    ______ ____

>  <TORSDO>
F 13

$$$$
=
 OpenBabel11042413243D

 50 56  0  0  1  0  0  0  0  0999 V2000
  188.2980  178.0910  137.4390 C   0  0  0  0  0  0  0  0  0  0  0  0
  187.6000  179.1930  136.6740 C   0  0  0  0  0  2  0  0  0  0  0  0
  189.1140  179.1620  136.7290 C   0  0  0  0  0  2  0  0  0  0  0  0
  188.5090  176.7200  136.8130 C   0  0  0  0  0  0  0  0  0  0  0  0
  188.2960  173.5960  137.1720 C   0  0  0  0  0  0  0  0  0  0  0  0
  187.8820  172.5630  137.7630 O   0  0  0  0  0  0  0  0  0  0  0  0
  190.2060  174.9130  136.3780 C   0  0  0  0  0  2  0  0  0  0  0  0
  186.3920  176.1670  135.4090 C   0  0  0  0  0  0  0  0  0  0  0  0
  186.3410  174.0130  135.5900 C   0  0  0  0  0  0  0  0  0  0  0  0
  187.3980  175.8440  136.3140 C   0  0  1  0  0  3  0  0  0  0  0  0
  189.6560  173.8990  137.2050 O   0  0  0  0  0  0  0  0  0  0  0  0
  189.7720  176.2590  136.8660 C   0  0  0  0  0  3  0  0  0  0  0  0
  185.7940  175.0580  134.9380 N   0  0  0  0  0  0  0  0  0  0  0  0
  187.3280  174.4640  136.4610 C   0  0  0  0  0  0  0  0  0  0  0  0
  184.6280  177.7030  134.6280 C   0  0  0  0  0  1  0  0  0  0  0  0
  186.1200  177.5010  134.8090 C   0  0  0  0  0  2  0  0  0  0  0  0
  186.3390  172.3460  134.8800 S   0  0  0  0  0  0  0  0  0  0  0  0
  182.2360  170.3880  135.0490 C   0  0  2  0  0  3  0  0  0  0  0  0
  183.3620  169.6320  135.7360 C   0  0  0  0  0  2  0  0  0  0  0  0
  183.6670  172.3960  134.8710 O   0  0  0  0  0  0  0  0  0  0  0  0
  184.6930  170.2120  135.2840 C   0  0  0  0  0  2  0  0  0  0  0  0
  182.3940  171.8990  135.2890 C   0  0  2  0  0  3  0  0  0  0  0  0
  184.7430  171.7210  135.5130 C   0  0  1  0  0  0  0  0  0  0  0  0
  184.7250  171.9690  136.8880 O   0  0  0  0  0  1  0  0  0  0  0  0
  181.0390  169.9640  135.6100 F   0  0  0  0  0  0  0  0  0  0  0  0
  180.9750  173.0560  136.5300 C   0  0  0  0  0  1  0  0  0  0  0  0
  182.1110  172.2460  136.6220 O   0  0  0  0  0  0  0  0  0  0  0  0
  188.1640  178.2380  138.9670 C   0  0  1  0  0  3  0  0  0  0  0  0
  184.1900  178.3510  138.6170 C   0  0  0  0  0  2  0  0  0  0  0  0
  185.6220  177.7150  138.6400 C   0  0  0  0  0  2  0  0  0  0  0  0
  183.0050  178.9340  140.8230 O   0  0  0  0  0  0  0  0  0  0  0  0
  184.1880  178.1820  140.8920 C   0  0  2  0  0  3  0  0  0  0  0  0
  186.7090  178.6020  139.3370 C   0  0  1  0  0  3  0  0  0  0  0  0
  185.4110  178.6830  141.5710 C   0  0  0  0  0  3  0  0  0  0  0  0
  186.5670  178.8030  140.8590 C   0  0  0  0  0  3  0  0  0  0  0  0
  183.9820  179.2170  139.8480 C   0  0  1  0  0  3  0  0  0  0  0  0
  188.7180  177.0370  139.7610 C   0  0  0  0  0  2  0  0  0  0  0  0
  189.9520  177.3710  140.6010 C   0  0  0  0  0  2  0  0  0  0  0  0
  190.1310  176.3820  141.7530 C   0  0  0  0  0  2  0  0  0  0  0  0
  189.0270  177.5590  145.2870 C   0  0  0  0  0  0  0  0  0  0  0  0
  189.5280  178.1920  146.4220 O   0  0  0  0  0  1  0  0  0  0  0  0
  189.8910  177.2710  144.2080 C   0  0  0  0  0  0  0  0  0  0  0  0
  187.1470  176.7130  144.0240 C   0  0  0  0  0  3  0  0  0  0  0  0
  189.3720  176.6490  143.0310 C   0  0  0  0  0  0  0  0  0  0  0  0
  191.3360  177.6260  144.3530 C   0  0  0  0  0  1  0  0  0  0  0  0
  187.9940  176.4350  142.9460 C   0  0  0  0  0  3  0  0  0  0  0  0
  187.6640  177.2110  145.2130 C   0  0  0  0  0  0  0  0  0  0  0  0
  186.7220  177.5050  146.3300 C   0  0  0  0  0  2  0  0  0  0  0  0
  185.8400  178.6790  145.9730 C   0  0  0  0  0  2  0  0  0  0  0  0
  185.5130  179.3750  147.1520 O   0  0  0  0  0  1  0  0  0  0  0  0
  1 28  1  0  0  0  0
  2  3  1  0  0  0  0
  2  1  1  0  0  0  0
  3  1  1  0  0  0  0
  4 12  2  0  0  0  0
  4  1  1  0  0  0  0
  5 11  1  0  0  0  0
  5  6  2  0  0  0  0
  7 12  1  0  0  0  0
  7 11  1  0  0  0  0
  9 14  2  0  0  0  0
 10  8  1  6  0  0  0
 10 14  1  0  0  0  0
 10  4  1  0  0  0  0
 13  8  2  0  0  0  0
 13  9  1  0  0  0  0
 14  5  1  0  0  0  0
 15 16  1  0  0  0  0
 16  8  1  0  0  0  0
 17 23  1  0  0  0  0
 17  9  1  0  0  0  0
 18 22  1  0  0  0  0
 18 25  1  1  0  0  0
 18 19  1  0  0  0  0
 20 22  1  0  0  0  0
 20 23  1  0  0  0  0
 21 23  1  0  0  0  0
 21 19  1  0  0  0  0
 22 27  1  1  0  0  0
 23 24  1  1  0  0  0
 26 27  1  0  0  0  0
 28 37  1  1  0  0  0
 29 30  1  0  0  0  0
 30 33  1  0  0  0  0
 31 32  1  0  0  0  0
 32 34  1  1  0  0  0
 33 28  1  1  0  0  0
 33 35  1  0  0  0  0
 35 34  2  0  0  0  0
 36 29  1  6  0  0  0
 36 31  1  0  0  0  0
 36 32  1  0  0  0  0
 37 38  1  0  0  0  0
 38 39  1  0  0  0  0
 39 44  1  0  0  0  0
 40 41  1  0  0  0  0
 42 45  1  0  0  0  0
 42 40  2  0  0  0  0
 43 47  2  0  0  0  0
 44 42  1  0  0  0  0
 46 44  2  0  0  0  0
 46 43  1  0  0  0  0
 47 40  1  0  0  0  0
 47 48  1  0  0  0  0
 49 48  1  0  0  0  0
 49 50  1  0  0  0  0
M  END
>  <MODEL>
5

>  <REMARK>
 VINA RESULT:      -6.9      3.976      7.075
  Name = 
  13 active torsions:
  status: ('A' for Active; 'I' for Inactive)
    1  A    between atoms: C_3  and  C_6
    2  A    between atoms: C_3  and  C_11
    3  A    between atoms: C_11  and  C_35
    4  A    between atoms: C_11  and  C_41
    5  A    between atoms: C_12  and  C_36
    6  A    between atoms: C_12  and  C_45
    7  A    between atoms: C_16  and  C_42
    8  A    between atoms: C_24  and  C_37
    9  A    between atoms: C_25  and  O_38
   10  A    between atoms: C_26  and  S_31
   11  A    between atoms: C_27  and  S_31
   12  A    between atoms: C_37  and  C_39
   13  A    between atoms: C_39  and  C_41
                            x       y       z     vdW  Elec       q    Type
                         _______ _______ _______ _____ _____    ______ ____

>  <TORSDO>
F 13

$$$$
=
 OpenBabel11042413243D

 50 56  0  0  1  0  0  0  0  0999 V2000
  187.9930  175.7800  135.7510 C   0  0  0  0  0  0  0  0  0  0  0  0
  188.4240  174.3320  135.6840 C   0  0  0  0  0  2  0  0  0  0  0  0
  188.8590  175.2950  134.5970 C   0  0  0  0  0  2  0  0  0  0  0  0
  188.7380  176.7750  136.6290 C   0  0  0  0  0  0  0  0  0  0  0  0
  188.7300  178.4700  139.2860 C   0  0  0  0  0  0  0  0  0  0  0  0
  188.2910  178.7500  140.4340 O   0  0  0  0  0  0  0  0  0  0  0  0
  189.2050  179.2200  137.0010 C   0  0  0  0  0  2  0  0  0  0  0  0
  190.3790  175.4240  138.1250 C   0  0  0  0  0  0  0  0  0  0  0  0
  190.4300  176.6700  139.8920 C   0  0  0  0  0  0  0  0  0  0  0  0
  189.4250  176.4140  137.9130 C   0  0  0  0  0  0  0  0  0  0  0  0
  188.5420  179.3780  138.2460 O   0  0  0  0  0  0  0  0  0  0  0  0
  188.6190  178.0630  136.2560 C   0  0  0  0  0  3  0  0  0  0  0  0
  191.0160  175.6120  139.2950 N   0  0  0  0  0  2  0  0  0  0  0  0
  189.4310  177.1810  139.0710 C   0  0  0  0  0  0  0  0  0  0  0  0
  192.3670  174.4800  137.0140 C   0  0  0  0  0  1  0  0  0  0  0  0
  190.8570  174.4140  137.1440 C   0  0  0  0  0  2  0  0  0  0  0  0
  191.3090  177.6720  141.1190 S   0  0  0  0  0  0  0  0  0  0  0  0
  188.4460  177.4790  144.6500 C   0  0  2  0  0  3  0  0  0  0  0  0
  188.2520  176.4170  143.5790 C   0  0  0  0  0  2  0  0  0  0  0  0
  190.6280  178.0990  143.6680 O   0  0  0  0  0  0  0  0  0  0  0  0
  189.0170  176.8310  142.3310 C   0  0  0  0  0  2  0  0  0  0  0  0
  189.9460  177.7360  144.8700 C   0  0  2  0  0  3  0  0  0  0  0  0
  190.4830  177.1140  142.6510 C   0  0  1  0  0  0  0  0  0  0  0  0
  191.1000  175.9210  143.0350 O   0  0  0  0  0  1  0  0  0  0  0  0
  187.8920  176.9960  145.8280 F   0  0  0  0  0  0  0  0  0  0  0  0
  190.7080  177.0830  146.8400 C   0  0  0  0  0  1  0  0  0  0  0  0
  190.5700  176.6550  145.5170 O   0  0  0  0  0  0  0  0  0  0  0  0
  186.4970  175.9800  135.4440 C   0  0  1  0  0  3  0  0  0  0  0  0
  185.3590  172.8920  137.7010 C   0  0  0  0  0  2  0  0  0  0  0  0
  185.7290  174.3760  137.3620 C   0  0  0  0  0  2  0  0  0  0  0  0
  183.0620  171.9530  137.0320 O   0  0  0  0  0  0  0  0  0  0  0  0
  183.2700  173.3340  136.8960 C   0  0  2  0  0  3  0  0  0  0  0  0
  185.7030  174.7130  135.8320 C   0  0  1  0  0  3  0  0  0  0  0  0
  183.2260  174.0190  135.5780 C   0  0  0  0  0  3  0  0  0  0  0  0
  184.3240  174.6990  135.1430 C   0  0  0  0  0  3  0  0  0  0  0  0
  184.3660  172.3540  136.6850 C   0  0  1  0  0  3  0  0  0  0  0  0
  185.9060  177.2780  136.0300 C   0  0  0  0  0  2  0  0  0  0  0  0
  185.2470  177.0920  137.3990 C   0  0  0  0  0  2  0  0  0  0  0  0
  184.3420  178.2730  137.7510 C   0  0  0  0  0  2  0  0  0  0  0  0
  182.4470  178.4290  141.1380 C   0  0  0  0  0  0  0  0  0  0  0  0
  181.1650  178.2980  141.6680 O   0  0  0  0  0  1  0  0  0  0  0  0
  182.6380  178.3490  139.7420 C   0  0  0  0  0  0  0  0  0  0  0  0
  184.8350  178.6220  141.4670 C   0  0  0  0  0  3  0  0  0  0  0  0
  183.9560  178.4540  139.2000 C   0  0  0  0  0  0  0  0  0  0  0  0
  181.4310  178.1670  138.8780 C   0  0  0  0  0  1  0  0  0  0  0  0
  185.0340  178.5320  140.0860 C   0  0  0  0  0  3  0  0  0  0  0  0
  183.5490  178.6370  141.9920 C   0  0  0  0  0  0  0  0  0  0  0  0
  183.3850  178.7210  143.4700 C   0  0  0  0  0  2  0  0  0  0  0  0
  184.4730  179.5830  144.0680 C   0  0  0  0  0  2  0  0  0  0  0  0
  184.9670  178.9530  145.2250 O   0  0  0  0  0  1  0  0  0  0  0  0
  1  4  1  0  0  0  0
  2  1  1  0  0  0  0
  3  2  1  0  0  0  0
  3  1  1  0  0  0  0
  4 10  1  0  0  0  0
  5  6  2  0  0  0  0
  7 11  1  0  0  0  0
  8 13  1  0  0  0  0
  9 17  1  0  0  0  0
 10  8  2  0  0  0  0
 10 14  1  0  0  0  0
 11  5  1  0  0  0  0
 12  4  2  0  0  0  0
 12  7  1  0  0  0  0
 13  9  1  0  0  0  0
 14  5  1  0  0  0  0
 14  9  2  0  0  0  0
 15 16  1  0  0  0  0
 16  8  1  0  0  0  0
 17 23  1  0  0  0  0
 18 22  1  0  0  0  0
 18 25  1  1  0  0  0
 19 18  1  0  0  0  0
 20 22  1  0  0  0  0
 21 23  1  0  0  0  0
 21 19  1  0  0  0  0
 22 27  1  6  0  0  0
 23 24  1  1  0  0  0
 23 20  1  0  0  0  0
 27 26  1  0  0  0  0
 28  1  1  0  0  0  0
 28 37  1  1  0  0  0
 30 29  1  0  0  0  0
 32 34  1  6  0  0  0
 32 31  1  0  0  0  0
 33 28  1  1  0  0  0
 33 30  1  0  0  0  0
 35 34  2  0  0  0  0
 35 33  1  0  0  0  0
 36 32  1  0  0  0  0
 36 31  1  0  0  0  0
 36 29  1  1  0  0  0
 37 38  1  0  0  0  0
 38 39  1  0  0  0  0
 39 44  1  0  0  0  0
 40 41  1  0  0  0  0
 40 47  1  0  0  0  0
 42 40  2  0  0  0  0
 43 47  2  0  0  0  0
 44 42  1  0  0  0  0
 44 46  2  0  0  0  0
 45 42  1  0  0  0  0
 46 43  1  0  0  0  0
 47 48  1  0  0  0  0
 48 49  1  0  0  0  0
 49 50  1  0  0  0  0
M  END
>  <MODEL>
6

>  <REMARK>
 VINA RESULT:      -6.8      3.677      6.433
  Name = 
  13 active torsions:
  status: ('A' for Active; 'I' for Inactive)
    1  A    between atoms: C_3  and  C_6
    2  A    between atoms: C_3  and  C_11
    3  A    between atoms: C_11  and  C_35
    4  A    between atoms: C_11  and  C_41
    5  A    between atoms: C_12  and  C_36
    6  A    between atoms: C_12  and  C_45
    7  A    between atoms: C_16  and  C_42
    8  A    between atoms: C_24  and  C_37
    9  A    between atoms: C_25  and  O_38
   10  A    between atoms: C_26  and  S_31
   11  A    between atoms: C_27  and  S_31
   12  A    between atoms: C_37  and  C_39
   13  A    between atoms: C_39  and  C_41
                            x       y       z     vdW  Elec       q    Type
                         _______ _______ _______ _____ _____    ______ ____

>  <TORSDO>
F 13

$$$$
=
 OpenBabel11042413243D

 50 56  0  0  1  0  0  0  0  0999 V2000
  186.7050  177.4960  136.2950 C   0  0  0  0  0  0  0  0  0  0  0  0
  186.5690  178.2130  134.9700 C   0  0  0  0  0  2  0  0  0  0  0  0
  187.5440  178.7320  136.0070 C   0  0  0  0  0  2  0  0  0  0  0  0
  187.5700  176.2500  136.4210 C   0  0  0  0  0  0  0  0  0  0  0  0
  190.0270  174.6210  135.3070 C   0  0  0  0  0  0  0  0  0  0  0  0
  191.0770  174.5100  134.6190 O   0  0  0  0  0  0  0  0  0  0  0  0
  187.7590  173.8230  135.7830 C   0  0  0  0  0  2  0  0  0  0  0  0
  189.3870  176.7350  138.2160 C   0  0  0  0  0  0  0  0  0  0  0  0
  191.0160  175.5210  137.4770 C   0  0  0  0  0  0  0  0  0  0  0  0
  188.9600  176.2440  136.9870 C   0  0  0  0  0  0  0  0  0  0  0  0
  188.8880  173.9130  134.9280 O   0  0  0  0  0  0  0  0  0  0  0  0
  187.0620  175.1450  135.8460 C   0  0  0  0  0  3  0  0  0  0  0  0
  190.6040  176.2560  138.5300 N   0  0  0  0  0  2  0  0  0  0  0  0
  190.0290  175.5040  136.4970 C   0  0  0  0  0  0  0  0  0  0  0  0
  189.3610  177.6740  140.4960 C   0  0  0  0  0  1  0  0  0  0  0  0
  188.5760  177.4860  139.2120 C   0  0  0  0  0  2  0  0  0  0  0  0
  192.2420  174.2000  137.6670 S   0  0  0  0  0  0  0  0  0  0  0  0
  195.5080  175.8130  134.9420 C   0  0  2  0  0  3  0  0  0  0  0  0
  194.5430  176.8450  135.5040 C   0  0  0  0  0  2  0  0  0  0  0  0
  194.6610  174.1230  136.5340 O   0  0  0  0  0  0  0  0  0  0  0  0
  193.3300  176.1250  136.0740 C   0  0  0  0  0  2  0  0  0  0  0  0
  195.8300  174.7560  136.0110 C   0  0  2  0  0  3  0  0  0  0  0  0
  193.7460  175.0610  137.0880 C   0  0  1  0  0  0  0  0  0  0  0  0
  194.3070  175.6930  138.2010 O   0  0  0  0  0  1  0  0  0  0  0  0
  196.6780  176.4760  134.5940 F   0  0  0  0  0  0  0  0  0  0  0  0
  197.4990  174.2280  137.3620 C   0  0  0  0  0  1  0  0  0  0  0  0
  196.6400  175.2810  137.0340 O   0  0  0  0  0  0  0  0  0  0  0  0
  185.4890  177.6970  137.2190 C   0  0  1  0  0  3  0  0  0  0  0  0
  183.5690  174.2170  137.5870 C   0  0  0  0  0  2  0  0  0  0  0  0
  184.2670  175.5400  138.0540 C   0  0  0  0  0  2  0  0  0  0  0  0
  181.1780  174.2870  136.6450 O   0  0  0  0  0  0  0  0  0  0  0  0
  181.6830  175.4540  137.2410 C   0  0  2  0  0  3  0  0  0  0  0  0
  184.4200  176.6190  136.9290 C   0  0  1  0  0  3  0  0  0  0  0  0
  181.8770  176.7150  136.4790 C   0  0  0  0  0  3  0  0  0  0  0  0
  183.1210  177.2650  136.4070 C   0  0  0  0  0  3  0  0  0  0  0  0
  182.5590  174.5170  136.4920 C   0  0  1  0  0  3  0  0  0  0  0  0
  185.8510  177.8150  138.7130 C   0  0  0  0  0  2  0  0  0  0  0  0
  184.9880  178.8200  139.4790 C   0  0  0  0  0  2  0  0  0  0  0  0
  184.1560  178.1340  140.5620 C   0  0  0  0  0  2  0  0  0  0  0  0
  184.3190  178.6480  144.4090 C   0  0  0  0  0  0  0  0  0  0  0  0
  183.5080  178.9810  145.4910 O   0  0  0  0  0  1  0  0  0  0  0  0
  183.7820  178.6570  143.1030 C   0  0  0  0  0  0  0  0  0  0  0  0
  186.4260  177.8320  143.5490 C   0  0  0  0  0  3  0  0  0  0  0  0
  184.6050  178.2880  141.9960 C   0  0  0  0  0  0  0  0  0  0  0  0
  182.3550  179.0720  142.9350 C   0  0  0  0  0  1  0  0  0  0  0  0
  185.8980  177.8270  142.2550 C   0  0  0  0  0  3  0  0  0  0  0  0
  185.6680  178.3000  144.6150 C   0  0  0  0  0  0  0  0  0  0  0  0
  186.2670  178.2740  145.9790 C   0  0  0  0  0  2  0  0  0  0  0  0
  187.7230  177.8730  145.9030 C   0  0  0  0  0  2  0  0  0  0  0  0
  188.2240  177.7330  147.2100 O   0  0  0  0  0  1  0  0  0  0  0  0
  1  4  1  0  0  0  0
  1 28  1  0  0  0  0
  2  3  1  0  0  0  0
  2  1  1  0  0  0  0
  3  1  1  0  0  0  0
  4 10  1  0  0  0  0
  5 14  1  0  0  0  0
  6  5  2  0  0  0  0
  7 12  1  0  0  0  0
  8 13  1  0  0  0  0
  8 16  1  0  0  0  0
  9 17  1  0  0  0  0
  9 13  1  0  0  0  0
 10  8  2  0  0  0  0
 11  5  1  0  0  0  0
 11  7  1  0  0  0  0
 12  4  2  0  0  0  0
 14 10  1  0  0  0  0
 14  9  2  0  0  0  0
 16 15  1  0  0  0  0
 18 25  1  1  0  0  0
 18 19  1  0  0  0  0
 18 22  1  0  0  0  0
 19 21  1  0  0  0  0
 20 23  1  0  0  0  0
 21 23  1  0  0  0  0
 22 20  1  0  0  0  0
 22 27  1  1  0  0  0
 23 17  1  0  0  0  0
 23 24  1  1  0  0  0
 27 26  1  0  0  0  0
 28 37  1  1  0  0  0
 29 30  1  0  0  0  0
 31 32  1  0  0  0  0
 32 34  1  6  0  0  0
 33 28  1  1  0  0  0
 33 30  1  0  0  0  0
 35 34  2  0  0  0  0
 35 33  1  0  0  0  0
 36 31  1  0  0  0  0
 36 32  1  0  0  0  0
 36 29  1  1  0  0  0
 37 38  1  0  0  0  0
 38 39  1  0  0  0  0
 39 44  1  0  0  0  0
 40 47  1  0  0  0  0
 40 41  1  0  0  0  0
 42 40  2  0  0  0  0
 43 47  2  0  0  0  0
 44 46  2  0  0  0  0
 44 42  1  0  0  0  0
 45 42  1  0  0  0  0
 46 43  1  0  0  0  0
 47 48  1  0  0  0  0
 49 48  1  0  0  0  0
 49 50  1  0  0  0  0
M  END
>  <MODEL>
7

>  <REMARK>
 VINA RESULT:      -6.7      1.313      1.822
  Name = 
  13 active torsions:
  status: ('A' for Active; 'I' for Inactive)
    1  A    between atoms: C_3  and  C_6
    2  A    between atoms: C_3  and  C_11
    3  A    between atoms: C_11  and  C_35
    4  A    between atoms: C_11  and  C_41
    5  A    between atoms: C_12  and  C_36
    6  A    between atoms: C_12  and  C_45
    7  A    between atoms: C_16  and  C_42
    8  A    between atoms: C_24  and  C_37
    9  A    between atoms: C_25  and  O_38
   10  A    between atoms: C_26  and  S_31
   11  A    between atoms: C_27  and  S_31
   12  A    between atoms: C_37  and  C_39
   13  A    between atoms: C_39  and  C_41
                            x       y       z     vdW  Elec       q    Type
                         _______ _______ _______ _____ _____    ______ ____

>  <TORSDO>
F 13

$$$$
=
 OpenBabel11042413243D

 50 56  0  0  1  0  0  0  0  0999 V2000
  186.9030  177.7740  137.0830 C   0  0  0  0  0  0  0  0  0  0  0  0
  187.4060  179.1360  136.6570 C   0  0  0  0  0  2  0  0  0  0  0  0
  187.6250  177.9400  135.7540 C   0  0  0  0  0  2  0  0  0  0  0  0
  185.4460  177.3850  136.8840 C   0  0  0  0  0  0  0  0  0  0  0  0
  183.2990  175.0780  136.9540 C   0  0  0  0  0  0  0  0  0  0  0  0
  182.9060  173.9250  137.2760 O   0  0  0  0  0  0  0  0  0  0  0  0
  183.7300  176.7060  135.1730 C   0  0  0  0  0  2  0  0  0  0  0  0
  184.1870  177.8970  139.1000 C   0  0  0  0  0  0  0  0  0  0  0  0
  182.6610  176.3660  139.0590 C   0  0  0  0  0  0  0  0  0  0  0  0
  184.4910  177.0950  138.0050 C   0  0  0  0  0  0  0  0  0  0  0  0
  183.5080  175.3740  135.6080 O   0  0  0  0  0  0  0  0  0  0  0  0
  185.0870  177.1630  135.6060 C   0  0  0  0  0  3  0  0  0  0  0  0
  183.0570  177.4850  139.7000 N   0  0  0  0  0  2  0  0  0  0  0  0
  183.5360  176.0870  138.0140 C   0  0  0  0  0  0  0  0  0  0  0  0
  185.0750  179.2410  140.9670 C   0  0  0  0  0  1  0  0  0  0  0  0
  184.8270  179.1880  139.4720 C   0  0  0  0  0  2  0  0  0  0  0  0
  180.9310  175.8290  139.0690 S   0  0  0  0  0  0  0  0  0  0  0  0
  180.2850  179.8520  141.0920 C   0  0  2  0  0  3  0  0  0  0  0  0
  179.3870  179.5560  139.9010 C   0  0  0  0  0  2  0  0  0  0  0  0
  181.0060  177.4900  141.1620 O   0  0  0  0  0  0  0  0  0  0  0  0
  179.9610  178.3750  139.1340 C   0  0  0  0  0  2  0  0  0  0  0  0
  180.4870  178.5780  141.9280 C   0  0  2  0  0  3  0  0  0  0  0  0
  180.1760  177.1730  140.0500 C   0  0  1  0  0  0  0  0  0  0  0  0
  178.9310  176.7100  140.4850 O   0  0  0  0  0  1  0  0  0  0  0  0
  179.6490  180.8090  141.8720 F   0  0  0  0  0  0  0  0  0  0  0  0
  179.6930  178.2430  143.9650 C   0  0  0  0  0  1  0  0  0  0  0  0
  179.3160  178.2180  142.6190 O   0  0  0  0  0  0  0  0  0  0  0  0
  187.7240  177.1610  138.2340 C   0  0  1  0  0  3  0  0  0  0  0  0
  188.3260  173.4800  136.8120 C   0  0  0  0  0  2  0  0  0  0  0  0
  187.6740  174.9010  136.9170 C   0  0  0  0  0  2  0  0  0  0  0  0
  190.6260  173.1980  135.7010 O   0  0  0  0  0  0  0  0  0  0  0  0
  189.9910  174.4450  135.5880 C   0  0  2  0  0  3  0  0  0  0  0  0
  188.5240  175.9420  137.7220 C   0  0  1  0  0  3  0  0  0  0  0  0
  190.5700  175.6870  136.1630 C   0  0  0  0  0  3  0  0  0  0  0  0
  189.8540  176.3910  137.0850 C   0  0  0  0  0  3  0  0  0  0  0  0
  189.8400  173.5990  136.7980 C   0  0  1  0  0  3  0  0  0  0  0  0
  188.5870  178.1830  139.0010 C   0  0  0  0  0  2  0  0  0  0  0  0
  189.1860  177.6340  140.2970 C   0  0  0  0  0  2  0  0  0  0  0  0
  188.1910  177.7160  141.4550 C   0  0  0  0  0  2  0  0  0  0  0  0
  188.6220  177.4040  145.3020 C   0  0  0  0  0  0  0  0  0  0  0  0
  187.8710  177.3370  146.4730 O   0  0  0  0  0  1  0  0  0  0  0  0
  187.9720  177.5970  144.0640 C   0  0  0  0  0  0  0  0  0  0  0  0
  190.7480  177.1990  144.1680 C   0  0  0  0  0  3  0  0  0  0  0  0
  188.7390  177.6360  142.8590 C   0  0  0  0  0  0  0  0  0  0  0  0
  186.4860  177.7660  144.0710 C   0  0  0  0  0  1  0  0  0  0  0  0
  190.1100  177.3780  142.9370 C   0  0  0  0  0  3  0  0  0  0  0  0
  190.0240  177.2750  145.3510 C   0  0  0  0  0  0  0  0  0  0  0  0
  190.7440  177.0650  146.6390 C   0  0  0  0  0  2  0  0  0  0  0  0
  191.9250  176.1440  146.4330 C   0  0  0  0  0  2  0  0  0  0  0  0
  192.2130  175.4970  147.6480 O   0  0  0  0  0  1  0  0  0  0  0  0
  1 28  1  0  0  0  0
  2  1  1  0  0  0  0
  3  2  1  0  0  0  0
  3  1  1  0  0  0  0
  4  1  1  0  0  0  0
  4 10  1  0  0  0  0
  5  6  2  0  0  0  0
  5 14  1  0  0  0  0
  7 12  1  0  0  0  0
  7 11  1  0  0  0  0
  8 16  1  0  0  0  0
  8 13  1  0  0  0  0
  9 17  1  0  0  0  0
  9 13  1  0  0  0  0
 10 14  1  0  0  0  0
 10  8  2  0  0  0  0
 11  5  1  0  0  0  0
 12  4  2  0  0  0  0
 14  9  2  0  0  0  0
 16 15  1  0  0  0  0
 17 23  1  0  0  0  0
 18 25  1  1  0  0  0
 18 22  1  0  0  0  0
 19 18  1  0  0  0  0
 20 22  1  0  0  0  0
 21 19  1  0  0  0  0
 21 23  1  0  0  0  0
 22 27  1  6  0  0  0
 23 24  1  1  0  0  0
 23 20  1  0  0  0  0
 27 26  1  0  0  0  0
 28 37  1  6  0  0  0
 29 30  1  0  0  0  0
 30 33  1  0  0  0  0
 31 36  1  0  0  0  0
 32 31  1  0  0  0  0
 32 34  1  1  0  0  0
 32 36  1  0  0  0  0
 33 28  1  6  0  0  0
 34 35  2  0  0  0  0
 35 33  1  0  0  0  0
 36 29  1  6  0  0  0
 37 38  1  0  0  0  0
 38 39  1  0  0  0  0
 39 44  1  0  0  0  0
 40 47  1  0  0  0  0
 40 41  1  0  0  0  0
 42 45  1  0  0  0  0
 42 40  2  0  0  0  0
 43 47  2  0  0  0  0
 44 46  2  0  0  0  0
 44 42  1  0  0  0  0
 46 43  1  0  0  0  0
 47 48  1  0  0  0  0
 49 48  1  0  0  0  0
 49 50  1  0  0  0  0
M  END
>  <MODEL>
8

>  <REMARK>
 VINA RESULT:      -6.6      4.397      9.127
  Name = 
  13 active torsions:
  status: ('A' for Active; 'I' for Inactive)
    1  A    between atoms: C_3  and  C_6
    2  A    between atoms: C_3  and  C_11
    3  A    between atoms: C_11  and  C_35
    4  A    between atoms: C_11  and  C_41
    5  A    between atoms: C_12  and  C_36
    6  A    between atoms: C_12  and  C_45
    7  A    between atoms: C_16  and  C_42
    8  A    between atoms: C_24  and  C_37
    9  A    between atoms: C_25  and  O_38
   10  A    between atoms: C_26  and  S_31
   11  A    between atoms: C_27  and  S_31
   12  A    between atoms: C_37  and  C_39
   13  A    between atoms: C_39  and  C_41
                            x       y       z     vdW  Elec       q    Type
                         _______ _______ _______ _____ _____    ______ ____

>  <TORSDO>
F 13

$$$$
=
 OpenBabel11042413243D

 50 56  0  0  1  0  0  0  0  0999 V2000
  183.7400  175.7240  136.2200 C   0  0  0  0  0  0  0  0  0  0  0  0
  183.4810  175.6210  134.7340 C   0  0  0  0  0  2  0  0  0  0  0  0
  183.5090  176.9830  135.3970 C   0  0  0  0  0  2  0  0  0  0  0  0
  185.1580  175.6670  136.7700 C   0  0  0  0  0  0  0  0  0  0  0  0
  188.2270  176.0990  136.1980 C   0  0  0  0  0  0  0  0  0  0  0  0
  189.1860  176.5510  135.5170 O   0  0  0  0  0  0  0  0  0  0  0  0
  187.1220  174.1520  137.1980 C   0  0  0  0  0  2  0  0  0  0  0  0
  185.6150  177.9130  137.9950 C   0  0  0  0  0  0  0  0  0  0  0  0
  187.7430  178.1210  137.6730 C   0  0  0  0  0  0  0  0  0  0  0  0
  185.9670  176.8760  137.1380 C   0  0  0  0  0  0  0  0  0  0  0  0
  188.0360  174.7200  136.2730 O   0  0  0  0  0  0  0  0  0  0  0  0
  185.7180  174.4430  136.7690 C   0  0  0  0  0  3  0  0  0  0  0  0
  186.6960  178.6290  138.3540 N   0  0  0  0  0  2  0  0  0  0  0  0
  187.3250  177.0440  136.8990 C   0  0  0  0  0  0  0  0  0  0  0  0
  184.3160  179.4050  139.4670 C   0  0  0  0  0  1  0  0  0  0  0  0
  184.3010  178.1210  138.6600 C   0  0  0  0  0  2  0  0  0  0  0  0
  189.4420  178.3050  138.2730 S   0  0  0  0  0  0  0  0  0  0  0  0
  189.3420  178.2490  142.8210 C   0  0  2  0  0  3  0  0  0  0  0  0
  187.9920  178.1720  142.1260 C   0  0  0  0  0  2  0  0  0  0  0  0
  190.4930  177.8060  140.6790 O   0  0  0  0  0  0  0  0  0  0  0  0
  188.1660  178.5640  140.6670 C   0  0  0  0  0  2  0  0  0  0  0  0
  190.3800  177.4170  142.0490 C   0  0  2  0  0  3  0  0  0  0  0  0
  189.2480  177.7230  139.9940 C   0  0  1  0  0  0  0  0  0  0  0  0
  188.8130  176.3960  139.9290 O   0  0  0  0  0  1  0  0  0  0  0  0
  189.1930  177.7180  144.0950 F   0  0  0  0  0  0  0  0  0  0  0  0
  190.9990  175.6430  143.2150 C   0  0  0  0  0  1  0  0  0  0  0  0
  190.1430  176.0380  142.1830 O   0  0  0  0  0  0  0  0  0  0  0  0
  182.5530  175.2410  137.0750 C   0  0  1  0  0  3  0  0  0  0  0  0
  182.4010  171.4270  135.9120 C   0  0  0  0  0  2  0  0  0  0  0  0
  182.6810  172.6370  136.8670 C   0  0  0  0  0  2  0  0  0  0  0  0
  179.9980  170.5720  135.5870 O   0  0  0  0  0  0  0  0  0  0  0  0
  180.2280  171.5140  136.6020 C   0  0  2  0  0  3  0  0  0  0  0  0
  181.9460  173.9600  136.4620 C   0  0  1  0  0  3  0  0  0  0  0  0
  179.6080  172.8650  136.5880 C   0  0  0  0  0  3  0  0  0  0  0  0
  180.4100  173.9670  136.5930 C   0  0  0  0  0  3  0  0  0  0  0  0
  181.0000  171.5290  135.3330 C   0  0  1  0  0  3  0  0  0  0  0  0
  182.8770  175.1090  138.5780 C   0  0  0  0  0  2  0  0  0  0  0  0
  182.0820  176.0670  139.4670 C   0  0  0  0  0  2  0  0  0  0  0  0
  180.8430  176.6010  138.7480 C   0  0  0  0  0  2  0  0  0  0  0  0
  180.3390  180.3720  139.5320 C   0  0  0  0  0  0  0  0  0  0  0  0
  180.0540  181.2270  140.5940 O   0  0  0  0  0  1  0  0  0  0  0  0
  180.3520  178.9750  139.7430 C   0  0  0  0  0  0  0  0  0  0  0  0
  181.0410  180.0450  137.2420 C   0  0  0  0  0  3  0  0  0  0  0  0
  180.6730  178.0990  138.6620 C   0  0  0  0  0  0  0  0  0  0  0  0
  180.0100  178.4690  141.1080 C   0  0  0  0  0  1  0  0  0  0  0  0
  181.0660  178.6620  137.4450 C   0  0  0  0  0  3  0  0  0  0  0  0
  180.6180  180.8960  138.2550 C   0  0  0  0  0  0  0  0  0  0  0  0
  180.6200  182.3640  137.9970 C   0  0  0  0  0  2  0  0  0  0  0  0
  180.8080  182.6350  136.5220 C   0  0  0  0  0  2  0  0  0  0  0  0
  181.1660  183.9840  136.3510 O   0  0  0  0  0  1  0  0  0  0  0  0
  1  4  1  0  0  0  0
  1 28  1  0  0  0  0
  2  3  1  0  0  0  0
  2  1  1  0  0  0  0
  3  1  1  0  0  0  0
  4 10  1  0  0  0  0
  5 11  1  0  0  0  0
  5 14  1  0  0  0  0
  6  5  2  0  0  0  0
  8 13  1  0  0  0  0
  8 16  1  0  0  0  0
  9 17  1  0  0  0  0
  9 13  1  0  0  0  0
 10  8  2  0  0  0  0
 11  7  1  0  0  0  0
 12  4  2  0  0  0  0
 12  7  1  0  0  0  0
 14 10  1  0  0  0  0
 14  9  2  0  0  0  0
 16 15  1  0  0  0  0
 17 23  1  0  0  0  0
 18 25  1  1  0  0  0
 19 18  1  0  0  0  0
 20 22  1  0  0  0  0
 21 19  1  0  0  0  0
 22 27  1  6  0  0  0
 22 18  1  0  0  0  0
 23 24  1  6  0  0  0
 23 21  1  0  0  0  0
 23 20  1  0  0  0  0
 27 26  1  0  0  0  0
 28 37  1  1  0  0  0
 29 30  1  0  0  0  0
 31 32  1  0  0  0  0
 32 34  1  6  0  0  0
 33 35  1  0  0  0  0
 33 30  1  0  0  0  0
 33 28  1  1  0  0  0
 34 35  2  0  0  0  0
 36 31  1  0  0  0  0
 36 29  1  1  0  0  0
 36 32  1  0  0  0  0
 37 38  1  0  0  0  0
 39 38  1  0  0  0  0
 40 42  1  0  0  0  0
 40 41  1  0  0  0  0
 42 45  1  0  0  0  0
 43 46  2  0  0  0  0
 43 47  1  0  0  0  0
 44 39  1  0  0  0  0
 44 42  2  0  0  0  0
 46 44  1  0  0  0  0
 47 40  2  0  0  0  0
 48 47  1  0  0  0  0
 49 48  1  0  0  0  0
 50 49  1  0  0  0  0
M  END
>  <MODEL>
9

>  <REMARK>
 VINA RESULT:      -6.6      4.435      7.413
  Name = 
  13 active torsions:
  status: ('A' for Active; 'I' for Inactive)
    1  A    between atoms: C_3  and  C_6
    2  A    between atoms: C_3  and  C_11
    3  A    between atoms: C_11  and  C_35
    4  A    between atoms: C_11  and  C_41
    5  A    between atoms: C_12  and  C_36
    6  A    between atoms: C_12  and  C_45
    7  A    between atoms: C_16  and  C_42
    8  A    between atoms: C_24  and  C_37
    9  A    between atoms: C_25  and  O_38
   10  A    between atoms: C_26  and  S_31
   11  A    between atoms: C_27  and  S_31
   12  A    between atoms: C_37  and  C_39
   13  A    between atoms: C_39  and  C_41
                            x       y       z     vdW  Elec       q    Type
                         _______ _______ _______ _____ _____    ______ ____

>  <TORSDO>
F 13

$$$$
