=
 OpenBabel11042412263D

 26 28  0  0  1  0  0  0  0  0999 V2000
  188.9420  177.7660  143.8460 C   0  0  0  0  0  0  0  0  0  0  0  0
  186.2430  178.0850  143.2140 C   0  0  0  0  0  3  0  0  0  0  0  0
  188.5620  178.0860  142.5410 C   0  0  0  0  0  3  0  0  0  0  0  0
  186.6110  177.7580  144.5250 C   0  0  0  0  0  0  0  0  0  0  0  0
  187.9700  177.6050  144.8360 C   0  0  0  0  0  3  0  0  0  0  0  0
  187.2080  178.2550  142.2150 C   0  0  0  0  0  0  0  0  0  0  0  0
  190.3190  177.6060  144.1660 N   0  0  0  0  0  0  0  0  0  0  0  0
  191.4540  176.8510  144.7620 C   0  0  1  0  0  0  0  0  0  0  0  0
  191.7560  175.5890  143.9790 C   0  0  0  0  0  1  0  0  0  0  0  0
  191.7460  178.0590  144.1670 C   0  0  0  0  0  2  0  0  0  0  0  0
  191.3580  176.8050  146.2810 C   0  0  0  0  0  2  0  0  0  0  0  0
  192.7350  176.0410  148.1430 N   0  0  0  0  0  1  0  0  0  0  0  0
  192.1790  175.6610  146.8570 C   0  0  0  0  0  2  0  0  0  0  0  0
  185.6010  177.6180  145.4870 O   0  0  0  0  0  0  0  0  0  0  0  0
  183.7020  179.0970  145.6420 O   0  0  0  0  0  0  0  0  0  0  0  0
  185.5250  179.3470  146.9530 O   0  0  0  0  0  0  0  0  0  0  0  0
  184.9350  178.6770  146.0820 N   0  0  0  0  0  0  0  0  0  0  0  0
  186.7720  178.5660  140.9160 O   0  0  0  0  0  0  0  0  0  0  0  0
  187.4430  178.3050  139.7100 C   0  0  0  0  0  0  0  0  0  0  0  0
  188.8390  178.3470  139.5850 C   0  0  0  0  0  3  0  0  0  0  0  0
  187.2900  177.7670  137.3810 N   0  0  0  0  0  0  0  0  0  0  0  0
  186.6830  178.0130  138.5730 C   0  0  0  0  0  3  0  0  0  0  0  0
  188.6430  177.7980  137.2450 C   0  0  0  0  0  0  0  0  0  0  0  0
  189.4440  178.0920  138.3540 C   0  0  0  0  0  3  0  0  0  0  0  0
  189.2410  177.5240  135.9360 C   0  0  0  0  0  3  0  0  0  0  0  0
  190.2000  176.7170  135.8110 O   0  0  0  0  0  0  0  0  0  0  0  0
  1  7  1  0  0  0  0
  1  5  1  0  0  0  0
  2  4  1  0  0  0  0
  3  1  2  0  0  0  0
  4  5  2  0  0  0  0
  4 14  1  0  0  0  0
  6  3  1  0  0  0  0
  6  2  2  0  0  0  0
  7 10  1  0  0  0  0
  7  8  1  0  0  0  0
  8  9  1  6  0  0  0
  8 11  1  0  0  0  0
 10  8  1  0  0  0  0
 11 13  1  0  0  0  0
 13 12  1  0  0  0  0
 14 17  1  0  0  0  0
 15 17  2  0  0  0  0
 17 16  2  0  0  0  0
 18  6  1  0  0  0  0
 19 18  1  0  0  0  0
 20 19  1  0  0  0  0
 21 22  1  0  0  0  0
 22 19  2  0  0  0  0
 23 21  2  0  0  0  0
 23 24  1  0  0  0  0
 24 20  2  0  0  0  0
 25 23  1  0  0  0  0
 26 25  2  0  0  0  0
M  END
>  <MODEL>
1

>  <REMARK>
 VINA RESULT:      -7.6      0.000      0.000
  Name = 
  8 active torsions:
  status: ('A' for Active; 'I' for Inactive)
    1  A    between atoms: C_1  and  N_11
    2  A    between atoms: C_2  and  CA_16
    3  A    between atoms: C_4  and  C_17
    4  A    between atoms: C_4  and  C_18
    5  A    between atoms: O_5  and  C_19
    6  A    between atoms: O_5  and  N_21
    7  A    between atoms: C_6  and  O_22
    8  A    between atoms: O_22  and  C_26
                            x       y       z     vdW  Elec       q    Type
                         _______ _______ _______ _____ _____    ______ ____

>  <TORSDO>
F 8

$$$$
=
 OpenBabel11042412263D

 26 28  0  0  1  0  0  0  0  0999 V2000
  188.4170  177.2010  144.7630 C   0  0  0  0  0  0  0  0  0  0  0  0
  190.9900  176.6190  143.8570 C   0  0  0  0  0  3  0  0  0  0  0  0
  188.6140  176.7710  143.4500 C   0  0  0  0  0  3  0  0  0  0  0  0
  190.8050  177.0560  145.1740 C   0  0  0  0  0  0  0  0  0  0  0  0
  189.5080  177.3410  145.6240 C   0  0  0  0  0  3  0  0  0  0  0  0
  189.9040  176.4700  142.9860 C   0  0  0  0  0  0  0  0  0  0  0  0
  187.1020  177.4950  145.2240 N   0  0  0  0  0  0  0  0  0  0  0  0
  186.0250  178.4440  145.6150 C   0  0  1  0  0  0  0  0  0  0  0  0
  185.4970  179.2100  144.4180 C   0  0  0  0  0  1  0  0  0  0  0  0
  185.7370  177.0990  145.6910 C   0  0  0  0  0  2  0  0  0  0  0  0
  186.3660  179.1790  146.9040 C   0  0  0  0  0  2  0  0  0  0  0  0
  188.1500  178.6150  148.4670 N   0  0  0  0  0  1  0  0  0  0  0  0
  186.8380  178.2190  147.9850 C   0  0  0  0  0  2  0  0  0  0  0  0
  191.9290  177.1690  146.0040 O   0  0  0  0  0  0  0  0  0  0  0  0
  192.3770  174.9490  146.8300 O   0  0  0  0  0  0  0  0  0  0  0  0
  192.2350  176.7340  148.2080 O   0  0  0  0  0  0  0  0  0  0  0  0
  192.2280  176.3000  147.0390 N   0  0  0  0  0  0  0  0  0  0  0  0
  190.1590  176.0440  141.6720 O   0  0  0  0  0  0  0  0  0  0  0  0
  189.8630  176.7320  140.4840 C   0  0  0  0  0  0  0  0  0  0  0  0
  190.3970  176.3730  139.2370 C   0  0  0  0  0  3  0  0  0  0  0  0
  188.7130  178.5460  139.4250 N   0  0  0  0  0  0  0  0  0  0  0  0
  189.0160  177.8430  140.5490 C   0  0  0  0  0  3  0  0  0  0  0  0
  189.2160  178.2070  138.2090 C   0  0  0  0  0  0  0  0  0  0  0  0
  190.0740  177.1070  138.0960 C   0  0  0  0  0  3  0  0  0  0  0  0
  188.8540  179.0020  137.0330 C   0  0  0  0  0  3  0  0  0  0  0  0
  187.6720  179.3980  136.8490 O   0  0  0  0  0  0  0  0  0  0  0  0
  1  7  1  0  0  0  0
  1  5  1  0  0  0  0
  2  4  1  0  0  0  0
  3  1  2  0  0  0  0
  4  5  2  0  0  0  0
  4 14  1  0  0  0  0
  6  3  1  0  0  0  0
  6  2  2  0  0  0  0
  7  8  1  0  0  0  0
  7 10  1  0  0  0  0
  8  9  1  6  0  0  0
  8 10  1  0  0  0  0
  8 11  1  0  0  0  0
 11 13  1  0  0  0  0
 13 12  1  0  0  0  0
 14 17  1  0  0  0  0
 15 17  2  0  0  0  0
 17 16  2  0  0  0  0
 18  6  1  0  0  0  0
 19 22  1  0  0  0  0
 19 18  1  0  0  0  0
 20 19  2  0  0  0  0
 21 22  2  0  0  0  0
 23 21  1  0  0  0  0
 24 23  2  0  0  0  0
 24 20  1  0  0  0  0
 25 23  1  0  0  0  0
 26 25  2  0  0  0  0
M  END
>  <MODEL>
2

>  <REMARK>
 VINA RESULT:      -7.4      3.175      4.849
  Name = 
  8 active torsions:
  status: ('A' for Active; 'I' for Inactive)
    1  A    between atoms: C_1  and  N_11
    2  A    between atoms: C_2  and  CA_16
    3  A    between atoms: C_4  and  C_17
    4  A    between atoms: C_4  and  C_18
    5  A    between atoms: O_5  and  C_19
    6  A    between atoms: O_5  and  N_21
    7  A    between atoms: C_6  and  O_22
    8  A    between atoms: O_22  and  C_26
                            x       y       z     vdW  Elec       q    Type
                         _______ _______ _______ _____ _____    ______ ____

>  <TORSDO>
F 8

$$$$
=
 OpenBabel11042412263D

 26 28  0  0  1  0  0  0  0  0999 V2000
  188.0670  177.4940  145.2070 C   0  0  0  0  0  0  0  0  0  0  0  0
  186.8240  178.2890  142.8390 C   0  0  0  0  0  3  0  0  0  0  0  0
  188.8370  177.8470  144.0980 C   0  0  0  0  0  3  0  0  0  0  0  0
  186.0410  177.9320  143.9420 C   0  0  0  0  0  0  0  0  0  0  0  0
  186.6730  177.5390  145.1310 C   0  0  0  0  0  3  0  0  0  0  0  0
  188.2220  178.2540  142.9040 C   0  0  0  0  0  0  0  0  0  0  0  0
  188.7030  177.0900  146.4140 N   0  0  0  0  0  0  0  0  0  0  0  0
  189.7240  177.2520  147.4840 C   0  0  1  0  0  0  0  0  0  0  0  0
  189.4400  178.4670  148.3450 C   0  0  0  0  0  1  0  0  0  0  0  0
  188.8680  176.1780  147.5890 C   0  0  0  0  0  2  0  0  0  0  0  0
  191.1310  177.0000  146.9580 C   0  0  0  0  0  2  0  0  0  0  0  0
  193.0120  176.0140  148.1550 N   0  0  0  0  0  1  0  0  0  0  0  0
  191.7260  175.7290  147.5430 C   0  0  0  0  0  2  0  0  0  0  0  0
  184.6460  178.0040  143.8230 O   0  0  0  0  0  0  0  0  0  0  0  0
  183.4670  180.0980  143.6260 O   0  0  0  0  0  0  0  0  0  0  0  0
  183.6260  178.9930  145.5900 O   0  0  0  0  0  0  0  0  0  0  0  0
  183.8650  179.0100  144.3660 N   0  0  0  0  0  0  0  0  0  0  0  0
  188.9500  178.6090  141.7560 O   0  0  0  0  0  0  0  0  0  0  0  0
  189.3030  177.7740  140.6830 C   0  0  0  0  0  0  0  0  0  0  0  0
  188.5220  177.6440  139.5250 C   0  0  0  0  0  3  0  0  0  0  0  0
  190.8490  176.1890  139.7710 N   0  0  0  0  0  0  0  0  0  0  0  0
  190.4760  177.0200  140.7820 C   0  0  0  0  0  3  0  0  0  0  0  0
  190.1070  176.0560  138.6400 C   0  0  0  0  0  0  0  0  0  0  0  0
  188.9220  176.7870  138.4990 C   0  0  0  0  0  3  0  0  0  0  0  0
  190.5600  175.1460  137.5850 C   0  0  0  0  0  3  0  0  0  0  0  0
  190.2090  173.9360  137.5700 O   0  0  0  0  0  0  0  0  0  0  0  0
  1  7  1  0  0  0  0
  2  6  2  0  0  0  0
  2  4  1  0  0  0  0
  3  1  2  0  0  0  0
  4  5  2  0  0  0  0
  5  1  1  0  0  0  0
  6  3  1  0  0  0  0
  7  8  1  0  0  0  0
  7 10  1  0  0  0  0
  8 10  1  0  0  0  0
  8  9  1  1  0  0  0
 11  8  1  0  0  0  0
 11 13  1  0  0  0  0
 13 12  1  0  0  0  0
 14  4  1  0  0  0  0
 14 17  1  0  0  0  0
 15 17  2  0  0  0  0
 17 16  2  0  0  0  0
 18  6  1  0  0  0  0
 19 22  1  0  0  0  0
 19 18  1  0  0  0  0
 20 19  2  0  0  0  0
 21 22  2  0  0  0  0
 23 21  1  0  0  0  0
 24 23  2  0  0  0  0
 24 20  1  0  0  0  0
 25 23  1  0  0  0  0
 26 25  2  0  0  0  0
M  END
>  <MODEL>
3

>  <REMARK>
 VINA RESULT:      -7.3      2.056      2.678
  Name = 
  8 active torsions:
  status: ('A' for Active; 'I' for Inactive)
    1  A    between atoms: C_1  and  N_11
    2  A    between atoms: C_2  and  CA_16
    3  A    between atoms: C_4  and  C_17
    4  A    between atoms: C_4  and  C_18
    5  A    between atoms: O_5  and  C_19
    6  A    between atoms: O_5  and  N_21
    7  A    between atoms: C_6  and  O_22
    8  A    between atoms: O_22  and  C_26
                            x       y       z     vdW  Elec       q    Type
                         _______ _______ _______ _____ _____    ______ ____

>  <TORSDO>
F 8

$$$$
=
 OpenBabel11042412263D

 26 28  0  0  1  0  0  0  0  0999 V2000
  188.8670  177.7620  143.9080 C   0  0  0  0  0  0  0  0  0  0  0  0
  186.1340  178.0620  143.4350 C   0  0  0  0  0  3  0  0  0  0  0  0
  188.4100  178.0820  142.6280 C   0  0  0  0  0  3  0  0  0  0  0  0
  186.5790  177.7340  144.7210 C   0  0  0  0  0  0  0  0  0  0  0  0
  187.9550  177.5900  144.9520 C   0  0  0  0  0  3  0  0  0  0  0  0
  187.0380  178.2410  142.3810 C   0  0  0  0  0  0  0  0  0  0  0  0
  190.2620  177.6100  144.1470 N   0  0  0  0  0  0  0  0  0  0  0  0
  191.4310  176.8820  144.7090 C   0  0  1  0  0  0  0  0  0  0  0  0
  191.6790  175.5790  143.9760 C   0  0  0  0  0  1  0  0  0  0  0  0
  191.6860  178.0550  144.0330 C   0  0  0  0  0  2  0  0  0  0  0  0
  191.4330  176.9160  146.2310 C   0  0  0  0  0  2  0  0  0  0  0  0
  192.8080  175.9950  148.0220 N   0  0  0  0  0  1  0  0  0  0  0  0
  192.0680  175.6650  146.8160 C   0  0  0  0  0  2  0  0  0  0  0  0
  185.6280  177.5840  145.7390 O   0  0  0  0  0  0  0  0  0  0  0  0
  183.6970  179.0010  146.0190 O   0  0  0  0  0  0  0  0  0  0  0  0
  185.6140  179.3470  147.1650 O   0  0  0  0  0  0  0  0  0  0  0  0
  184.9770  178.6350  146.3630 N   0  0  0  0  0  0  0  0  0  0  0  0
  186.5250  178.5530  141.1110 O   0  0  0  0  0  0  0  0  0  0  0  0
  185.1750  178.6900  140.7500 C   0  0  0  0  0  0  0  0  0  0  0  0
  184.1170  178.4900  141.6500 C   0  0  0  0  0  3  0  0  0  0  0  0
  183.5740  179.1480  139.0300 N   0  0  0  0  0  0  0  0  0  0  0  0
  184.8680  179.0180  139.4260 C   0  0  0  0  0  3  0  0  0  0  0  0
  182.5380  178.9640  139.8900 C   0  0  0  0  0  0  0  0  0  0  0  0
  182.7960  178.6290  141.2240 C   0  0  0  0  0  3  0  0  0  0  0  0
  181.1640  179.1190  139.4060 C   0  0  0  0  0  3  0  0  0  0  0  0
  180.1770  178.9560  140.1720 O   0  0  0  0  0  0  0  0  0  0  0  0
  1  7  1  0  0  0  0
  1  5  1  0  0  0  0
  2  4  1  0  0  0  0
  3  1  2  0  0  0  0
  4  5  2  0  0  0  0
  4 14  1  0  0  0  0
  6  3  1  0  0  0  0
  6  2  2  0  0  0  0
  7  8  1  0  0  0  0
  8  9  1  6  0  0  0
  8 11  1  0  0  0  0
 10  7  1  0  0  0  0
 10  8  1  0  0  0  0
 11 13  1  0  0  0  0
 13 12  1  0  0  0  0
 14 17  1  0  0  0  0
 15 17  2  0  0  0  0
 17 16  2  0  0  0  0
 18  6  1  0  0  0  0
 19 18  1  0  0  0  0
 19 20  1  0  0  0  0
 21 22  1  0  0  0  0
 21 23  2  0  0  0  0
 22 19  2  0  0  0  0
 23 24  1  0  0  0  0
 24 20  2  0  0  0  0
 25 23  1  0  0  0  0
 25 26  2  0  0  0  0
M  END
>  <MODEL>
4

>  <REMARK>
 VINA RESULT:      -7.3      2.469      3.720
  Name = 
  8 active torsions:
  status: ('A' for Active; 'I' for Inactive)
    1  A    between atoms: C_1  and  N_11
    2  A    between atoms: C_2  and  CA_16
    3  A    between atoms: C_4  and  C_17
    4  A    between atoms: C_4  and  C_18
    5  A    between atoms: O_5  and  C_19
    6  A    between atoms: O_5  and  N_21
    7  A    between atoms: C_6  and  O_22
    8  A    between atoms: O_22  and  C_26
                            x       y       z     vdW  Elec       q    Type
                         _______ _______ _______ _____ _____    ______ ____

>  <TORSDO>
F 8

$$$$
=
 OpenBabel11042412263D

 26 28  0  0  1  0  0  0  0  0999 V2000
  189.7560  177.7840  141.6750 C   0  0  0  0  0  0  0  0  0  0  0  0
  188.9270  177.1150  139.0960 C   0  0  0  0  0  3  0  0  0  0  0  0
  190.4790  176.8520  140.9280 C   0  0  0  0  0  3  0  0  0  0  0  0
  188.1900  178.0460  139.8370 C   0  0  0  0  0  0  0  0  0  0  0  0
  188.6170  178.3810  141.1310 C   0  0  0  0  0  3  0  0  0  0  0  0
  190.0730  176.5130  139.6280 C   0  0  0  0  0  0  0  0  0  0  0  0
  190.1820  178.1240  142.9900 N   0  0  0  0  0  0  0  0  0  0  0  0
  190.3220  177.8430  144.4440 C   0  0  1  0  0  0  0  0  0  0  0  0
  191.3000  176.7130  144.7000 C   0  0  0  0  0  1  0  0  0  0  0  0
  190.8310  179.0370  143.9820 C   0  0  0  0  0  2  0  0  0  0  0  0
  188.9730  177.8620  145.1500 C   0  0  0  0  0  2  0  0  0  0  0  0
  188.1030  177.0690  147.2850 N   0  0  0  0  0  1  0  0  0  0  0  0
  189.1360  177.8780  146.6620 C   0  0  0  0  0  2  0  0  0  0  0  0
  187.0610  178.6280  139.2460 O   0  0  0  0  0  0  0  0  0  0  0  0
  187.1770  179.1520  136.8950 O   0  0  0  0  0  0  0  0  0  0  0  0
  185.7320  177.6180  137.7110 O   0  0  0  0  0  0  0  0  0  0  0  0
  186.6660  178.4130  137.9360 N   0  0  0  0  0  0  0  0  0  0  0  0
  190.7580  175.5740  138.8390 O   0  0  0  0  0  0  0  0  0  0  0  0
  191.7480  175.8340  137.8760 C   0  0  0  0  0  0  0  0  0  0  0  0
  191.5940  175.5240  136.5170 C   0  0  0  0  0  3  0  0  0  0  0  0
  193.9440  176.6620  137.4000 N   0  0  0  0  0  0  0  0  0  0  0  0
  192.9530  176.4050  138.2960 C   0  0  0  0  0  3  0  0  0  0  0  0
  193.8080  176.3740  136.0780 C   0  0  0  0  0  0  0  0  0  0  0  0
  192.6220  175.7960  135.6130 C   0  0  0  0  0  3  0  0  0  0  0  0
  194.9090  176.6740  135.1600 C   0  0  0  0  0  3  0  0  0  0  0  0
  195.6470  177.6810  135.3290 O   0  0  0  0  0  0  0  0  0  0  0  0
  1  7  1  0  0  0  0
  2  6  2  0  0  0  0
  2  4  1  0  0  0  0
  3  1  2  0  0  0  0
  4  5  2  0  0  0  0
  5  1  1  0  0  0  0
  6  3  1  0  0  0  0
  7 10  1  0  0  0  0
  7  8  1  0  0  0  0
  8  9  1  1  0  0  0
  8 11  1  0  0  0  0
 10  8  1  0  0  0  0
 11 13  1  0  0  0  0
 13 12  1  0  0  0  0
 14  4  1  0  0  0  0
 15 17  2  0  0  0  0
 16 17  2  0  0  0  0
 17 14  1  0  0  0  0
 18  6  1  0  0  0  0
 19 22  1  0  0  0  0
 19 18  1  0  0  0  0
 20 19  2  0  0  0  0
 21 22  2  0  0  0  0
 23 21  1  0  0  0  0
 24 23  2  0  0  0  0
 24 20  1  0  0  0  0
 25 26  2  0  0  0  0
 25 23  1  0  0  0  0
M  END
>  <MODEL>
5

>  <REMARK>
 VINA RESULT:      -7.2      3.217      5.278
  Name = 
  8 active torsions:
  status: ('A' for Active; 'I' for Inactive)
    1  A    between atoms: C_1  and  N_11
    2  A    between atoms: C_2  and  CA_16
    3  A    between atoms: C_4  and  C_17
    4  A    between atoms: C_4  and  C_18
    5  A    between atoms: O_5  and  C_19
    6  A    between atoms: O_5  and  N_21
    7  A    between atoms: C_6  and  O_22
    8  A    between atoms: O_22  and  C_26
                            x       y       z     vdW  Elec       q    Type
                         _______ _______ _______ _____ _____    ______ ____

>  <TORSDO>
F 8

$$$$
=
 OpenBabel11042412263D

 26 28  0  0  1  0  0  0  0  0999 V2000
  188.3870  177.8670  142.7510 C   0  0  0  0  0  0  0  0  0  0  0  0
  185.6840  178.5350  142.9180 C   0  0  0  0  0  3  0  0  0  0  0  0
  187.7400  178.4410  141.6550 C   0  0  0  0  0  3  0  0  0  0  0  0
  186.3200  177.9540  144.0210 C   0  0  0  0  0  0  0  0  0  0  0  0
  187.6810  177.6260  143.9310 C   0  0  0  0  0  3  0  0  0  0  0  0
  186.3820  178.7860  141.7310 C   0  0  0  0  0  0  0  0  0  0  0  0
  189.7670  177.5290  142.6630 N   0  0  0  0  0  0  0  0  0  0  0  0
  191.0120  176.9200  143.2060 C   0  0  1  0  0  0  0  0  0  0  0  0
  190.9110  175.4090  143.2650 C   0  0  0  0  0  1  0  0  0  0  0  0
  191.0890  177.5080  141.9620 C   0  0  0  0  0  2  0  0  0  0  0  0
  191.5410  177.6990  144.4020 C   0  0  0  0  0  2  0  0  0  0  0  0
  192.0380  176.7430  146.5890 N   0  0  0  0  0  1  0  0  0  0  0  0
  190.9660  177.1730  145.7080 C   0  0  0  0  0  2  0  0  0  0  0  0
  185.5730  177.7420  145.1880 O   0  0  0  0  0  0  0  0  0  0  0  0
  185.6840  179.3820  146.9520 O   0  0  0  0  0  0  0  0  0  0  0  0
  183.7860  179.0030  145.7860 O   0  0  0  0  0  0  0  0  0  0  0  0
  184.9970  178.7500  145.9420 N   0  0  0  0  0  0  0  0  0  0  0  0
  185.6810  179.3560  140.6550 O   0  0  0  0  0  0  0  0  0  0  0  0
  184.9090  178.6840  139.6940 C   0  0  0  0  0  0  0  0  0  0  0  0
  183.5470  178.3990  139.8690 C   0  0  0  0  0  3  0  0  0  0  0  0
  184.8240  177.5920  137.5640 N   0  0  0  0  0  0  0  0  0  0  0  0
  185.5310  178.2580  138.5170 C   0  0  0  0  0  3  0  0  0  0  0  0
  183.5020  177.3140  137.7160 C   0  0  0  0  0  0  0  0  0  0  0  0
  182.8380  177.7160  138.8810 C   0  0  0  0  0  3  0  0  0  0  0  0
  182.7920  176.5950  136.6550 C   0  0  0  0  0  3  0  0  0  0  0  0
  182.1050  175.5690  136.9070 O   0  0  0  0  0  0  0  0  0  0  0  0
  1  5  1  0  0  0  0
  2  4  1  0  0  0  0
  3  6  1  0  0  0  0
  3  1  2  0  0  0  0
  4 14  1  0  0  0  0
  5  4  2  0  0  0  0
  6  2  2  0  0  0  0
  7  1  1  0  0  0  0
  7  8  1  0  0  0  0
  8  9  1  1  0  0  0
  8 11  1  0  0  0  0
 10  7  1  0  0  0  0
 10  8  1  0  0  0  0
 11 13  1  0  0  0  0
 13 12  1  0  0  0  0
 14 17  1  0  0  0  0
 16 17  2  0  0  0  0
 17 15  2  0  0  0  0
 18  6  1  0  0  0  0
 19 20  1  0  0  0  0
 19 18  1  0  0  0  0
 21 23  2  0  0  0  0
 21 22  1  0  0  0  0
 22 19  2  0  0  0  0
 23 24  1  0  0  0  0
 24 20  2  0  0  0  0
 25 26  2  0  0  0  0
 25 23  1  0  0  0  0
M  END
>  <MODEL>
6

>  <REMARK>
 VINA RESULT:      -7.2      2.322      3.207
  Name = 
  8 active torsions:
  status: ('A' for Active; 'I' for Inactive)
    1  A    between atoms: C_1  and  N_11
    2  A    between atoms: C_2  and  CA_16
    3  A    between atoms: C_4  and  C_17
    4  A    between atoms: C_4  and  C_18
    5  A    between atoms: O_5  and  C_19
    6  A    between atoms: O_5  and  N_21
    7  A    between atoms: C_6  and  O_22
    8  A    between atoms: O_22  and  C_26
                            x       y       z     vdW  Elec       q    Type
                         _______ _______ _______ _____ _____    ______ ____

>  <TORSDO>
F 8

$$$$
=
 OpenBabel11042412263D

 26 28  0  0  1  0  0  0  0  0999 V2000
  188.1000  177.4400  143.2300 C   0  0  0  0  0  0  0  0  0  0  0  0
  185.5990  178.5940  143.6750 C   0  0  0  0  0  3  0  0  0  0  0  0
  187.4130  178.0470  142.1770 C   0  0  0  0  0  3  0  0  0  0  0  0
  186.2760  177.9830  144.7370 C   0  0  0  0  0  0  0  0  0  0  0  0
  187.5350  177.4100  144.5070 C   0  0  0  0  0  3  0  0  0  0  0  0
  186.1570  178.6350  142.3920 C   0  0  0  0  0  0  0  0  0  0  0  0
  189.3760  176.8530  143.0000 N   0  0  0  0  0  0  0  0  0  0  0  0
  190.8430  176.9390  142.7660 C   0  0  1  0  0  0  0  0  0  0  0  0
  191.5760  177.4240  144.0010 C   0  0  0  0  0  1  0  0  0  0  0  0
  190.2850  175.6800  142.8070 C   0  0  0  0  0  2  0  0  0  0  0  0
  191.1580  177.5400  141.4030 C   0  0  0  0  0  2  0  0  0  0  0  0
  189.7930  177.7630  139.3950 N   0  0  0  0  0  1  0  0  0  0  0  0
  190.4270  176.8090  140.2880 C   0  0  0  0  0  2  0  0  0  0  0  0
  185.6740  177.9880  146.0040 O   0  0  0  0  0  0  0  0  0  0  0  0
  187.1380  178.0650  147.9180 O   0  0  0  0  0  0  0  0  0  0  0  0
  185.6820  179.7290  147.4560 O   0  0  0  0  0  0  0  0  0  0  0  0
  186.1870  178.6430  147.1100 N   0  0  0  0  0  0  0  0  0  0  0  0
  185.4190  179.2480  141.3660 O   0  0  0  0  0  0  0  0  0  0  0  0
  184.5950  178.6180  140.4200 C   0  0  0  0  0  0  0  0  0  0  0  0
  183.4480  177.8890  140.7670 C   0  0  0  0  0  3  0  0  0  0  0  0
  184.1830  178.0950  138.1190 N   0  0  0  0  0  0  0  0  0  0  0  0
  184.9450  178.7010  139.0690 C   0  0  0  0  0  3  0  0  0  0  0  0
  183.0650  177.3900  138.4390 C   0  0  0  0  0  0  0  0  0  0  0  0
  182.6790  177.2750  139.7790 C   0  0  0  0  0  3  0  0  0  0  0  0
  182.2830  176.7600  137.3730 C   0  0  0  0  0  3  0  0  0  0  0  0
  181.8430  175.5850  137.4910 O   0  0  0  0  0  0  0  0  0  0  0  0
  1  5  1  0  0  0  0
  2  4  1  0  0  0  0
  3  6  1  0  0  0  0
  3  1  2  0  0  0  0
  4 14  1  0  0  0  0
  5  4  2  0  0  0  0
  6  2  2  0  0  0  0
  7  1  1  0  0  0  0
  8 10  1  0  0  0  0
  8  7  1  0  0  0  0
  8  9  1  1  0  0  0
 10  7  1  0  0  0  0
 11  8  1  0  0  0  0
 12 13  1  0  0  0  0
 13 11  1  0  0  0  0
 14 17  1  0  0  0  0
 17 16  2  0  0  0  0
 17 15  2  0  0  0  0
 18  6  1  0  0  0  0
 19 20  1  0  0  0  0
 19 18  1  0  0  0  0
 21 23  2  0  0  0  0
 21 22  1  0  0  0  0
 22 19  2  0  0  0  0
 23 24  1  0  0  0  0
 24 20  2  0  0  0  0
 25 26  2  0  0  0  0
 25 23  1  0  0  0  0
M  END
>  <MODEL>
7

>  <REMARK>
 VINA RESULT:      -7.1      2.805      4.248
  Name = 
  8 active torsions:
  status: ('A' for Active; 'I' for Inactive)
    1  A    between atoms: C_1  and  N_11
    2  A    between atoms: C_2  and  CA_16
    3  A    between atoms: C_4  and  C_17
    4  A    between atoms: C_4  and  C_18
    5  A    between atoms: O_5  and  C_19
    6  A    between atoms: O_5  and  N_21
    7  A    between atoms: C_6  and  O_22
    8  A    between atoms: O_22  and  C_26
                            x       y       z     vdW  Elec       q    Type
                         _______ _______ _______ _____ _____    ______ ____

>  <TORSDO>
F 8

$$$$
=
 OpenBabel11042412263D

 26 28  0  0  1  0  0  0  0  0999 V2000
  189.8130  177.8140  142.2670 C   0  0  0  0  0  0  0  0  0  0  0  0
  188.7230  177.4420  139.7250 C   0  0  0  0  0  3  0  0  0  0  0  0
  188.6100  178.4330  141.9250 C   0  0  0  0  0  3  0  0  0  0  0  0
  189.9340  176.8210  140.0540 C   0  0  0  0  0  0  0  0  0  0  0  0
  190.4720  177.0080  141.3350 C   0  0  0  0  0  3  0  0  0  0  0  0
  188.0500  178.2470  140.6510 C   0  0  0  0  0  0  0  0  0  0  0  0
  190.3660  178.0030  143.5640 N   0  0  0  0  0  0  0  0  0  0  0  0
  190.6200  177.5710  144.9650 C   0  0  1  0  0  0  0  0  0  0  0  0
  191.5660  176.3870  145.0180 C   0  0  0  0  0  1  0  0  0  0  0  0
  191.1390  178.7870  144.5780 C   0  0  0  0  0  2  0  0  0  0  0  0
  189.3400  177.5660  145.7900 C   0  0  0  0  0  2  0  0  0  0  0  0
  189.0910  178.0870  148.1590 N   0  0  0  0  0  1  0  0  0  0  0  0
  189.5980  177.1050  147.2160 C   0  0  0  0  0  2  0  0  0  0  0  0
  190.5530  176.0130  139.0900 O   0  0  0  0  0  0  0  0  0  0  0  0
  190.9330  176.7170  136.8160 O   0  0  0  0  0  0  0  0  0  0  0  0
  192.6100  176.5820  138.3250 O   0  0  0  0  0  0  0  0  0  0  0  0
  191.3880  176.4860  138.0930 N   0  0  0  0  0  0  0  0  0  0  0  0
  186.8480  178.8550  140.2540 O   0  0  0  0  0  0  0  0  0  0  0  0
  185.6140  178.8150  140.9230 C   0  0  0  0  0  0  0  0  0  0  0  0
  185.4980  178.6200  142.3070 C   0  0  0  0  0  3  0  0  0  0  0  0
  183.2250  178.9060  140.7760 N   0  0  0  0  0  0  0  0  0  0  0  0
  184.4430  178.9520  140.1710 C   0  0  0  0  0  3  0  0  0  0  0  0
  183.0970  178.7240  142.1170 C   0  0  0  0  0  0  0  0  0  0  0  0
  184.2410  178.5760  142.9090 C   0  0  0  0  0  3  0  0  0  0  0  0
  181.7590  178.6840  142.7130 C   0  0  0  0  0  3  0  0  0  0  0  0
  181.5990  178.6570  143.9620 O   0  0  0  0  0  0  0  0  0  0  0  0
  1  7  1  0  0  0  0
  2  4  2  0  0  0  0
  2  6  1  0  0  0  0
  3  1  1  0  0  0  0
  4  5  1  0  0  0  0
  5  1  2  0  0  0  0
  6  3  2  0  0  0  0
  7 10  1  0  0  0  0
  7  8  1  0  0  0  0
  8  9  1  1  0  0  0
  8 11  1  0  0  0  0
 10  8  1  0  0  0  0
 11 13  1  0  0  0  0
 13 12  1  0  0  0  0
 14  4  1  0  0  0  0
 15 17  2  0  0  0  0
 17 16  2  0  0  0  0
 17 14  1  0  0  0  0
 18  6  1  0  0  0  0
 18 19  1  0  0  0  0
 19 20  1  0  0  0  0
 20 24  2  0  0  0  0
 21 23  2  0  0  0  0
 22 21  1  0  0  0  0
 22 19  2  0  0  0  0
 23 25  1  0  0  0  0
 23 24  1  0  0  0  0
 25 26  2  0  0  0  0
M  END
>  <MODEL>
8

>  <REMARK>
 VINA RESULT:      -7.1      2.589      6.113
  Name = 
  8 active torsions:
  status: ('A' for Active; 'I' for Inactive)
    1  A    between atoms: C_1  and  N_11
    2  A    between atoms: C_2  and  CA_16
    3  A    between atoms: C_4  and  C_17
    4  A    between atoms: C_4  and  C_18
    5  A    between atoms: O_5  and  C_19
    6  A    between atoms: O_5  and  N_21
    7  A    between atoms: C_6  and  O_22
    8  A    between atoms: O_22  and  C_26
                            x       y       z     vdW  Elec       q    Type
                         _______ _______ _______ _____ _____    ______ ____

>  <TORSDO>
F 8

$$$$
=
 OpenBabel11042412263D

 26 28  0  0  1  0  0  0  0  0999 V2000
  182.7260  178.9030  142.8840 C   0  0  0  0  0  0  0  0  0  0  0  0
  185.2650  178.6600  144.0150 C   0  0  0  0  0  3  0  0  0  0  0  0
  183.8410  178.7220  142.0650 C   0  0  0  0  0  3  0  0  0  0  0  0
  184.1550  178.8480  144.8470 C   0  0  0  0  0  0  0  0  0  0  0  0
  182.8810  178.9630  144.2710 C   0  0  0  0  0  3  0  0  0  0  0  0
  185.1220  178.5930  142.6240 C   0  0  0  0  0  0  0  0  0  0  0  0
  181.4310  179.0250  142.3050 N   0  0  0  0  0  0  0  0  0  0  0  0
  180.0140  178.6030  142.1460 C   0  0  1  0  0  0  0  0  0  0  0  0
  179.2010  178.9050  143.3900 C   0  0  0  0  0  1  0  0  0  0  0  0
  180.4410  179.6710  141.3880 C   0  0  0  0  0  2  0  0  0  0  0  0
  179.9070  177.2410  141.4740 C   0  0  0  0  0  2  0  0  0  0  0  0
  181.3330  175.8890  140.0310 N   0  0  0  0  0  1  0  0  0  0  0  0
  180.7090  177.1920  140.1830 C   0  0  0  0  0  2  0  0  0  0  0  0
  184.3580  178.8900  146.2330 O   0  0  0  0  0  0  0  0  0  0  0  0
  186.4190  177.7400  146.7280 O   0  0  0  0  0  0  0  0  0  0  0  0
  185.9290  179.7570  147.6190 O   0  0  0  0  0  0  0  0  0  0  0  0
  185.6000  178.8390  146.8430 N   0  0  0  0  0  0  0  0  0  0  0  0
  186.2780  178.4200  141.8450 O   0  0  0  0  0  0  0  0  0  0  0  0
  187.4960  177.8500  142.2470 C   0  0  0  0  0  0  0  0  0  0  0  0
  187.5840  176.8160  143.1910 C   0  0  0  0  0  3  0  0  0  0  0  0
  189.8850  177.8390  142.0720 N   0  0  0  0  0  0  0  0  0  0  0  0
  188.6810  178.3520  141.7010 C   0  0  0  0  0  3  0  0  0  0  0  0
  189.9860  176.8320  142.9800 C   0  0  0  0  0  0  0  0  0  0  0  0
  188.8280  176.3010  143.5580 C   0  0  0  0  0  3  0  0  0  0  0  0
  191.3100  176.3180  143.3400 C   0  0  0  0  0  3  0  0  0  0  0  0
  191.6440  176.1560  144.5440 O   0  0  0  0  0  0  0  0  0  0  0  0
  1  5  1  0  0  0  0
  2  4  1  0  0  0  0
  3  6  1  0  0  0  0
  3  1  2  0  0  0  0
  4 14  1  0  0  0  0
  5  4  2  0  0  0  0
  6  2  2  0  0  0  0
  7  1  1  0  0  0  0
  8  7  1  0  0  0  0
  8  9  1  1  0  0  0
 10  8  1  0  0  0  0
 10  7  1  0  0  0  0
 11  8  1  0  0  0  0
 12 13  1  0  0  0  0
 13 11  1  0  0  0  0
 14 17  1  0  0  0  0
 15 17  2  0  0  0  0
 17 16  2  0  0  0  0
 18 19  1  0  0  0  0
 18  6  1  0  0  0  0
 19 20  1  0  0  0  0
 20 24  2  0  0  0  0
 21 23  2  0  0  0  0
 22 21  1  0  0  0  0
 22 19  2  0  0  0  0
 23 25  1  0  0  0  0
 23 24  1  0  0  0  0
 25 26  2  0  0  0  0
M  END
>  <MODEL>
9

>  <REMARK>
 VINA RESULT:      -7.1      3.877      7.482
  Name = 
  8 active torsions:
  status: ('A' for Active; 'I' for Inactive)
    1  A    between atoms: C_1  and  N_11
    2  A    between atoms: C_2  and  CA_16
    3  A    between atoms: C_4  and  C_17
    4  A    between atoms: C_4  and  C_18
    5  A    between atoms: O_5  and  C_19
    6  A    between atoms: O_5  and  N_21
    7  A    between atoms: C_6  and  O_22
    8  A    between atoms: O_22  and  C_26
                            x       y       z     vdW  Elec       q    Type
                         _______ _______ _______ _____ _____    ______ ____

>  <TORSDO>
F 8

$$$$
