=
 OpenBabel11032419183D

 25 28  0  0  1  0  0  0  0  0999 V2000
  189.5220  176.9440  144.9260 C   0  0  0  0  0  0  0  0  0  0  0  0
  191.5960  177.5320  143.7110 C   0  0  0  0  0  3  0  0  0  0  0  0
  187.3200  176.5480  144.1160 O   0  0  0  0  0  0  0  0  0  0  0  0
  189.2030  175.9220  142.6740 C   0  0  0  0  0  3  0  0  0  0  0  0
  191.3050  177.2760  142.4360 C   0  0  0  0  0  0  0  0  0  0  0  0
  187.7720  178.3690  148.5430 C   0  0  0  0  0  3  0  0  0  0  0  0
  188.7110  176.5030  143.9410 C   0  0  0  0  0  0  0  0  0  0  0  0
  186.6730  177.4260  145.0440 C   0  0  1  0  0  3  0  0  0  0  0  0
  190.3210  176.2580  142.0190 C   0  0  0  0  0  3  0  0  0  0  0  0
  186.9520  178.1080  147.4430 C   0  0  0  0  0  3  0  0  0  0  0  0
  187.5280  177.6490  146.2550 C   0  0  0  0  0  0  0  0  0  0  0  0
  188.9160  177.4630  146.1750 C   0  0  0  0  0  0  0  0  0  0  0  0
  189.6990  177.7420  147.3040 C   0  0  0  0  0  3  0  0  0  0  0  0
  191.0080  176.7680  144.8490 C   0  0  0  0  0  2  0  0  0  0  0  0
  189.1170  178.1840  148.4500 N   0  0  0  0  0  0  0  0  0  0  0  0
  191.9820  177.9790  141.4500 O   0  0  0  0  0  1  0  0  0  0  0  0
  186.3820  178.7650  144.3730 C   0  0  0  0  0  2  0  0  0  0  0  0
  184.1060  179.9400  144.1700 C   0  0  0  0  0  2  0  0  0  0  0  0
  184.9890  178.7860  143.7580 C   0  0  0  0  0  0  0  0  0  0  0  0
  183.8680  178.5460  144.7410 C   0  0  0  0  0  2  0  0  0  0  0  0
  184.7420  178.2380  142.3620 C   0  0  0  0  0  2  0  0  0  0  0  0
  185.0810  179.2420  141.3660 N   0  0  0  0  0  2  0  0  0  0  0  0
  184.9450  178.7380  139.0010 C   0  0  0  0  0  1  0  0  0  0  0  0
  183.2010  177.9360  140.5580 C   0  0  0  0  0  1  0  0  0  0  0  0
  184.1620  179.0690  140.2550 C   0  0  0  0  0  3  0  0  0  0  0  0
  1 12  1  0  0  0  0
  2 14  1  0  0  0  0
  3  8  1  0  0  0  0
  4  7  1  0  0  0  0
  5  2  2  0  0  0  0
  7  3  1  0  0  0  0
  7  1  2  0  0  0  0
  8 17  1  6  0  0  0
  8 11  1  0  0  0  0
  9  5  1  0  0  0  0
  9  4  2  0  0  0  0
 10  6  2  0  0  0  0
 11 10  1  0  0  0  0
 12 11  2  0  0  0  0
 12 13  1  0  0  0  0
 13 15  2  0  0  0  0
 14  1  1  0  0  0  0
 15  6  1  0  0  0  0
 16  5  1  0  0  0  0
 18 20  1  0  0  0  0
 19 18  1  0  0  0  0
 19 17  1  0  0  0  0
 19 20  1  0  0  0  0
 21 19  1  0  0  0  0
 22 21  1  0  0  0  0
 23 25  1  0  0  0  0
 25 24  1  0  0  0  0
 25 22  1  0  0  0  0
M  END
>  <MODEL>
1

>  <REMARK>
 VINA RESULT:      -8.4      0.000      0.000
  Name = 
  5 active torsions:
  status: ('A' for Active; 'I' for Inactive)
    1  A    between atoms: C_10  and  C_19
    2  A    between atoms: N_12  and  C_14
    3  A    between atoms: N_12  and  C_15
    4  A    between atoms: C_13  and  C_15
    5  A    between atoms: C_13  and  C_19
                            x       y       z     vdW  Elec       q    Type
                         _______ _______ _______ _____ _____    ______ ____

>  <TORSDO>
F 5

$$$$
=
 OpenBabel11032419183D

 25 28  0  0  1  0  0  0  0  0999 V2000
  186.1130  178.0470  143.6670 C   0  0  0  0  0  0  0  0  0  0  0  0
  185.0880  179.4980  145.3900 C   0  0  0  0  0  3  0  0  0  0  0  0
  188.0600  176.6830  143.7580 O   0  0  0  0  0  0  0  0  0  0  0  0
  186.7570  176.9630  145.8180 C   0  0  0  0  0  3  0  0  0  0  0  0
  185.6830  179.1210  146.5210 C   0  0  0  0  0  0  0  0  0  0  0  0
  186.8560  178.5670  139.5020 C   0  0  0  0  0  3  0  0  0  0  0  0
  186.9530  177.2730  144.3860 C   0  0  0  0  0  0  0  0  0  0  0  0
  188.6330  177.1830  142.5450 C   0  0  1  0  0  3  0  0  0  0  0  0
  186.2140  177.7620  146.7440 C   0  0  0  0  0  3  0  0  0  0  0  0
  187.8230  177.9480  140.2960 C   0  0  0  0  0  3  0  0  0  0  0  0
  187.5810  177.7860  141.6630 C   0  0  0  0  0  0  0  0  0  0  0  0
  186.3820  178.2500  142.2240 C   0  0  0  0  0  0  0  0  0  0  0  0
  185.4430  178.8690  141.3870 C   0  0  0  0  0  3  0  0  0  0  0  0
  184.8350  178.5640  144.2540 C   0  0  0  0  0  2  0  0  0  0  0  0
  185.6980  179.0120  140.0590 N   0  0  0  0  0  0  0  0  0  0  0  0
  185.7810  180.0420  147.5550 O   0  0  0  0  0  1  0  0  0  0  0  0
  189.6910  178.2340  142.8670 C   0  0  0  0  0  2  0  0  0  0  0  0
  192.0390  177.4120  142.2250 C   0  0  0  0  0  2  0  0  0  0  0  0
  190.9990  177.5900  143.3050 C   0  0  0  0  0  0  0  0  0  0  0  0
  191.2420  176.2150  142.7310 C   0  0  0  0  0  2  0  0  0  0  0  0
  191.5430  177.8000  144.7090 C   0  0  0  0  0  2  0  0  0  0  0  0
  191.6720  176.5210  145.3900 N   0  0  0  0  0  2  0  0  0  0  0  0
  190.0990  176.8170  147.2070 C   0  0  0  0  0  1  0  0  0  0  0  0
  192.2630  175.6860  147.5910 C   0  0  0  0  0  1  0  0  0  0  0  0
  191.5610  176.7830  146.8140 C   0  0  0  0  0  3  0  0  0  0  0  0
  1 14  1  0  0  0  0
  1  7  2  0  0  0  0
  2  5  2  0  0  0  0
  3  7  1  0  0  0  0
  4  9  2  0  0  0  0
  5  9  1  0  0  0  0
  5 16  1  0  0  0  0
  6 15  2  0  0  0  0
  6 10  1  0  0  0  0
  7  4  1  0  0  0  0
  8 17  1  1  0  0  0
  8  3  1  0  0  0  0
 10 11  2  0  0  0  0
 11 12  1  0  0  0  0
 11  8  1  0  0  0  0
 12  1  1  0  0  0  0
 13 12  2  0  0  0  0
 14  2  1  0  0  0  0
 15 13  1  0  0  0  0
 17 19  1  0  0  0  0
 18 20  1  0  0  0  0
 18 19  1  0  0  0  0
 19 21  1  0  0  0  0
 20 19  1  0  0  0  0
 21 22  1  0  0  0  0
 22 25  1  0  0  0  0
 25 23  1  0  0  0  0
 25 24  1  0  0  0  0
M  END
>  <MODEL>
2

>  <REMARK>
 VINA RESULT:      -8.3      2.085      7.127
  Name = 
  5 active torsions:
  status: ('A' for Active; 'I' for Inactive)
    1  A    between atoms: C_10  and  C_19
    2  A    between atoms: N_12  and  C_14
    3  A    between atoms: N_12  and  C_15
    4  A    between atoms: C_13  and  C_15
    5  A    between atoms: C_13  and  C_19
                            x       y       z     vdW  Elec       q    Type
                         _______ _______ _______ _____ _____    ______ ____

>  <TORSDO>
F 5

$$$$
=
 OpenBabel11032419183D

 25 28  0  0  1  0  0  0  0  0999 V2000
  184.3850  178.6340  142.2220 C   0  0  0  0  0  0  0  0  0  0  0  0
  182.7030  177.5220  140.7860 C   0  0  0  0  0  3  0  0  0  0  0  0
  186.7360  178.8660  141.9460 O   0  0  0  0  0  0  0  0  0  0  0  0
  185.3430  178.8210  139.9270 C   0  0  0  0  0  3  0  0  0  0  0  0
  183.3410  177.3340  139.6310 C   0  0  0  0  0  0  0  0  0  0  0  0
  185.0250  178.6850  146.4360 C   0  0  0  0  0  3  0  0  0  0  0  0
  185.4490  178.7540  141.4000 C   0  0  0  0  0  0  0  0  0  0  0  0
  187.0730  178.4130  143.2630 C   0  0  1  0  0  3  0  0  0  0  0  0
  184.4370  178.2040  139.1600 C   0  0  0  0  0  3  0  0  0  0  0  0
  186.1230  178.5980  145.5780 C   0  0  0  0  0  3  0  0  0  0  0  0
  185.9120  178.5730  144.1970 C   0  0  0  0  0  0  0  0  0  0  0  0
  184.6060  178.6270  143.6870 C   0  0  0  0  0  0  0  0  0  0  0  0
  183.5350  178.7100  144.5870 C   0  0  0  0  0  3  0  0  0  0  0  0
  182.9830  178.6740  141.6920 C   0  0  0  0  0  2  0  0  0  0  0  0
  183.7650  178.7370  145.9270 N   0  0  0  0  0  0  0  0  0  0  0  0
  182.9360  176.2870  138.8150 O   0  0  0  0  0  1  0  0  0  0  0  0
  187.4900  176.9460  143.2140 C   0  0  0  0  0  2  0  0  0  0  0  0
  189.9590  177.0820  142.5180 C   0  0  0  0  0  2  0  0  0  0  0  0
  188.9530  176.7720  143.6000 C   0  0  0  0  0  0  0  0  0  0  0  0
  189.6540  175.6370  142.8950 C   0  0  0  0  0  2  0  0  0  0  0  0
  189.4220  177.0270  145.0220 C   0  0  0  0  0  2  0  0  0  0  0  0
  190.8710  176.9240  145.0950 N   0  0  0  0  0  2  0  0  0  0  0  0
  189.9720  176.8970  147.3430 C   0  0  0  0  0  1  0  0  0  0  0  0
  192.0840  175.7250  146.8230 C   0  0  0  0  0  1  0  0  0  0  0  0
  191.2310  176.9360  146.5020 C   0  0  0  0  0  3  0  0  0  0  0  0
  1 12  1  0  0  0  0
  2 14  1  0  0  0  0
  3  8  1  0  0  0  0
  4  7  1  0  0  0  0
  5  2  2  0  0  0  0
  7  3  1  0  0  0  0
  7  1  2  0  0  0  0
  8 17  1  6  0  0  0
  8 11  1  0  0  0  0
  9  5  1  0  0  0  0
  9  4  2  0  0  0  0
 10  6  2  0  0  0  0
 11 10  1  0  0  0  0
 12 11  2  0  0  0  0
 12 13  1  0  0  0  0
 13 15  2  0  0  0  0
 14  1  1  0  0  0  0
 15  6  1  0  0  0  0
 16  5  1  0  0  0  0
 17 19  1  0  0  0  0
 18 20  1  0  0  0  0
 18 19  1  0  0  0  0
 19 21  1  0  0  0  0
 20 19  1  0  0  0  0
 21 22  1  0  0  0  0
 22 25  1  0  0  0  0
 25 24  1  0  0  0  0
 25 23  1  0  0  0  0
M  END
>  <MODEL>
3

>  <REMARK>
 VINA RESULT:      -7.9      2.241      6.710
  Name = 
  5 active torsions:
  status: ('A' for Active; 'I' for Inactive)
    1  A    between atoms: C_10  and  C_19
    2  A    between atoms: N_12  and  C_14
    3  A    between atoms: N_12  and  C_15
    4  A    between atoms: C_13  and  C_15
    5  A    between atoms: C_13  and  C_19
                            x       y       z     vdW  Elec       q    Type
                         _______ _______ _______ _____ _____    ______ ____

>  <TORSDO>
F 5

$$$$
=
 OpenBabel11032419183D

 25 28  0  0  1  0  0  0  0  0999 V2000
  187.8130  177.5260  144.7610 C   0  0  0  0  0  0  0  0  0  0  0  0
  190.1090  178.2430  145.3440 C   0  0  0  0  0  3  0  0  0  0  0  0
  186.8910  176.8490  142.6750 O   0  0  0  0  0  0  0  0  0  0  0  0
  189.2480  176.3260  143.1120 C   0  0  0  0  0  3  0  0  0  0  0  0
  190.8370  177.8730  144.2910 C   0  0  0  0  0  0  0  0  0  0  0  0
  183.9560  179.0020  145.8160 C   0  0  0  0  0  3  0  0  0  0  0  0
  187.9780  176.9380  143.5580 C   0  0  0  0  0  0  0  0  0  0  0  0
  185.7530  177.7160  142.7420 C   0  0  1  0  0  3  0  0  0  0  0  0
  190.4850  176.7320  143.4230 C   0  0  0  0  0  3  0  0  0  0  0  0
  184.1930  178.5830  144.5050 C   0  0  0  0  0  3  0  0  0  0  0  0
  185.4600  178.1080  144.1590 C   0  0  0  0  0  0  0  0  0  0  0  0
  186.4800  178.0620  145.1220 C   0  0  0  0  0  0  0  0  0  0  0  0
  186.1950  178.4960  146.4240 C   0  0  0  0  0  3  0  0  0  0  0  0
  188.8970  177.5000  145.7960 C   0  0  0  0  0  2  0  0  0  0  0  0
  184.9530  178.9520  146.7390 N   0  0  0  0  0  0  0  0  0  0  0  0
  192.0030  178.5740  144.0140 O   0  0  0  0  0  1  0  0  0  0  0  0
  186.0080  178.9690  141.9090 C   0  0  0  0  0  2  0  0  0  0  0  0
  184.2720  179.4830  140.0860 C   0  0  0  0  0  2  0  0  0  0  0  0
  185.5520  178.7800  140.4690 C   0  0  0  0  0  0  0  0  0  0  0  0
  184.2840  177.9760  140.3140 C   0  0  0  0  0  2  0  0  0  0  0  0
  186.5610  178.6030  139.3460 C   0  0  0  0  0  2  0  0  0  0  0  0
  187.9120  178.6180  139.8840 N   0  0  0  0  0  2  0  0  0  0  0  0
  189.0450  178.7370  137.7470 C   0  0  0  0  0  1  0  0  0  0  0  0
  190.0540  177.5010  139.6350 C   0  0  0  0  0  1  0  0  0  0  0  0
  188.7500  177.8770  138.9580 C   0  0  0  0  0  3  0  0  0  0  0  0
  1 12  1  0  0  0  0
  1 14  1  0  0  0  0
  2 14  1  0  0  0  0
  3  8  1  0  0  0  0
  3  7  1  0  0  0  0
  4  9  2  0  0  0  0
  4  7  1  0  0  0  0
  5  2  2  0  0  0  0
  6 15  1  0  0  0  0
  7  1  2  0  0  0  0
  8 17  1  6  0  0  0
  8 11  1  0  0  0  0
  9  5  1  0  0  0  0
 10  6  2  0  0  0  0
 11 10  1  0  0  0  0
 11 12  2  0  0  0  0
 12 13  1  0  0  0  0
 13 15  2  0  0  0  0
 16  5  1  0  0  0  0
 18 20  1  0  0  0  0
 18 19  1  0  0  0  0
 19 17  1  0  0  0  0
 20 19  1  0  0  0  0
 21 22  1  0  0  0  0
 21 19  1  0  0  0  0
 23 25  1  0  0  0  0
 25 24  1  0  0  0  0
 25 22  1  0  0  0  0
M  END
>  <MODEL>
4

>  <REMARK>
 VINA RESULT:      -7.7      2.034      3.436
  Name = 
  5 active torsions:
  status: ('A' for Active; 'I' for Inactive)
    1  A    between atoms: C_10  and  C_19
    2  A    between atoms: N_12  and  C_14
    3  A    between atoms: N_12  and  C_15
    4  A    between atoms: C_13  and  C_15
    5  A    between atoms: C_13  and  C_19
                            x       y       z     vdW  Elec       q    Type
                         _______ _______ _______ _____ _____    ______ ____

>  <TORSDO>
F 5

$$$$
=
 OpenBabel11032419183D

 25 28  0  0  1  0  0  0  0  0999 V2000
  184.2490  178.6440  142.0280 C   0  0  0  0  0  0  0  0  0  0  0  0
  182.6000  177.4650  140.6080 C   0  0  0  0  0  3  0  0  0  0  0  0
  186.5930  178.9350  141.7520 O   0  0  0  0  0  0  0  0  0  0  0  0
  185.2060  178.8220  139.7320 C   0  0  0  0  0  3  0  0  0  0  0  0
  183.2450  177.2770  139.4570 C   0  0  0  0  0  0  0  0  0  0  0  0
  184.8800  178.7760  146.2420 C   0  0  0  0  0  3  0  0  0  0  0  0
  185.3110  178.7810  141.2070 C   0  0  0  0  0  0  0  0  0  0  0  0
  186.9400  178.5120  143.0760 C   0  0  1  0  0  3  0  0  0  0  0  0
  184.3170  178.1690  138.9740 C   0  0  0  0  0  3  0  0  0  0  0  0
  185.9820  178.7060  145.3870 C   0  0  0  0  0  3  0  0  0  0  0  0
  185.7730  178.6540  144.0070 C   0  0  0  0  0  0  0  0  0  0  0  0
  184.4670  178.6650  143.4930 C   0  0  0  0  0  0  0  0  0  0  0  0
  183.3930  178.7330  144.3910 C   0  0  0  0  0  3  0  0  0  0  0  0
  182.8470  178.6380  141.4960 C   0  0  0  0  0  2  0  0  0  0  0  0
  183.6200  178.7860  145.7310 N   0  0  0  0  0  0  0  0  0  0  0  0
  182.8700  176.2070  138.6560 O   0  0  0  0  0  1  0  0  0  0  0  0
  187.3970  177.0560  143.0510 C   0  0  0  0  0  2  0  0  0  0  0  0
  189.2480  176.7400  144.8040 C   0  0  0  0  0  2  0  0  0  0  0  0
  188.8850  176.9360  143.3520 C   0  0  0  0  0  0  0  0  0  0  0  0
  189.4600  178.0930  144.1330 C   0  0  0  0  0  2  0  0  0  0  0  0
  189.8370  176.3080  142.3480 C   0  0  0  0  0  2  0  0  0  0  0  0
  190.2940  177.3110  141.3990 N   0  0  0  0  0  2  0  0  0  0  0  0
  189.0740  178.2270  139.5180 C   0  0  0  0  0  1  0  0  0  0  0  0
  190.7710  176.4640  139.1750 C   0  0  0  0  0  1  0  0  0  0  0  0
  189.7010  176.9840  140.1140 C   0  0  0  0  0  3  0  0  0  0  0  0
  1 12  1  0  0  0  0
  2 14  1  0  0  0  0
  3  8  1  0  0  0  0
  4  7  1  0  0  0  0
  5  2  2  0  0  0  0
  7  3  1  0  0  0  0
  7  1  2  0  0  0  0
  8 17  1  6  0  0  0
  8 11  1  0  0  0  0
  9  5  1  0  0  0  0
  9  4  2  0  0  0  0
 10  6  2  0  0  0  0
 11 10  1  0  0  0  0
 12 11  2  0  0  0  0
 12 13  1  0  0  0  0
 13 15  2  0  0  0  0
 14  1  1  0  0  0  0
 15  6  1  0  0  0  0
 16  5  1  0  0  0  0
 17 19  1  0  0  0  0
 19 20  1  0  0  0  0
 19 18  1  0  0  0  0
 20 18  1  0  0  0  0
 21 19  1  0  0  0  0
 22 21  1  0  0  0  0
 23 25  1  0  0  0  0
 24 25  1  0  0  0  0
 25 22  1  0  0  0  0
M  END
>  <MODEL>
5

>  <REMARK>
 VINA RESULT:      -7.6      2.526      6.047
  Name = 
  5 active torsions:
  status: ('A' for Active; 'I' for Inactive)
    1  A    between atoms: C_10  and  C_19
    2  A    between atoms: N_12  and  C_14
    3  A    between atoms: N_12  and  C_15
    4  A    between atoms: C_13  and  C_15
    5  A    between atoms: C_13  and  C_19
                            x       y       z     vdW  Elec       q    Type
                         _______ _______ _______ _____ _____    ______ ____

>  <TORSDO>
F 5

$$$$
=
 OpenBabel11032419183D

 25 28  0  0  1  0  0  0  0  0999 V2000
  189.3770  177.0150  145.0550 C   0  0  0  0  0  0  0  0  0  0  0  0
  191.4140  177.6570  143.8050 C   0  0  0  0  0  3  0  0  0  0  0  0
  187.1640  176.5970  144.2880 O   0  0  0  0  0  0  0  0  0  0  0  0
  189.0240  176.0270  142.7930 C   0  0  0  0  0  3  0  0  0  0  0  0
  191.0980  177.4190  142.5320 C   0  0  0  0  0  0  0  0  0  0  0  0
  187.6890  178.3480  148.7350 C   0  0  0  0  0  3  0  0  0  0  0  0
  188.5510  176.5780  144.0810 C   0  0  0  0  0  0  0  0  0  0  0  0
  186.5250  177.4480  145.2470 C   0  0  1  0  0  3  0  0  0  0  0  0
  190.1210  176.3930  142.1190 C   0  0  0  0  0  3  0  0  0  0  0  0
  186.8480  178.0930  147.6500 C   0  0  0  0  0  3  0  0  0  0  0  0
  187.4040  177.6640  146.4420 C   0  0  0  0  0  0  0  0  0  0  0  0
  188.7930  177.5020  146.3270 C   0  0  0  0  0  0  0  0  0  0  0  0
  189.5960  177.7740  147.4420 C   0  0  0  0  0  3  0  0  0  0  0  0
  190.8640  176.8640  144.9420 C   0  0  0  0  0  2  0  0  0  0  0  0
  189.0340  178.1860  148.6090 N   0  0  0  0  0  0  0  0  0  0  0  0
  191.7410  178.1490  141.5430 O   0  0  0  0  0  1  0  0  0  0  0  0
  186.1980  178.7940  144.6060 C   0  0  0  0  0  2  0  0  0  0  0  0
  185.0470  177.8690  142.5040 C   0  0  0  0  0  2  0  0  0  0  0  0
  184.9400  178.7110  143.7520 C   0  0  0  0  0  0  0  0  0  0  0  0
  185.0490  179.3900  142.4090 C   0  0  0  0  0  2  0  0  0  0  0  0
  183.5590  178.7690  144.3860 C   0  0  0  0  0  2  0  0  0  0  0  0
  182.6540  179.5290  143.5380 N   0  0  0  0  0  2  0  0  0  0  0  0
  180.4580  178.6230  144.0100 C   0  0  0  0  0  1  0  0  0  0  0  0
  181.1770  179.0230  141.6790 C   0  0  0  0  0  1  0  0  0  0  0  0
  181.6390  178.6060  143.0610 C   0  0  0  0  0  3  0  0  0  0  0  0
  1 12  1  0  0  0  0
  2 14  1  0  0  0  0
  3  8  1  0  0  0  0
  4  7  1  0  0  0  0
  5  2  2  0  0  0  0
  7  3  1  0  0  0  0
  7  1  2  0  0  0  0
  8 17  1  6  0  0  0
  8 11  1  0  0  0  0
  9  5  1  0  0  0  0
  9  4  2  0  0  0  0
 10  6  2  0  0  0  0
 11 10  1  0  0  0  0
 12 11  2  0  0  0  0
 12 13  1  0  0  0  0
 13 15  2  0  0  0  0
 14  1  1  0  0  0  0
 15  6  1  0  0  0  0
 16  5  1  0  0  0  0
 18 19  1  0  0  0  0
 19 21  1  0  0  0  0
 19 17  1  0  0  0  0
 20 18  1  0  0  0  0
 20 19  1  0  0  0  0
 22 21  1  0  0  0  0
 24 25  1  0  0  0  0
 25 22  1  0  0  0  0
 25 23  1  0  0  0  0
M  END
>  <MODEL>
6

>  <REMARK>
 VINA RESULT:      -7.6      1.266      1.991
  Name = 
  5 active torsions:
  status: ('A' for Active; 'I' for Inactive)
    1  A    between atoms: C_10  and  C_19
    2  A    between atoms: N_12  and  C_14
    3  A    between atoms: N_12  and  C_15
    4  A    between atoms: C_13  and  C_15
    5  A    between atoms: C_13  and  C_19
                            x       y       z     vdW  Elec       q    Type
                         _______ _______ _______ _____ _____    ______ ____

>  <TORSDO>
F 5

$$$$
=
 OpenBabel11032419183D

 25 28  0  0  1  0  0  0  0  0999 V2000
  188.6670  177.6210  139.0940 C   0  0  0  0  0  0  0  0  0  0  0  0
  189.1660  175.7820  137.5160 C   0  0  0  0  0  3  0  0  0  0  0  0
  189.7490  178.2540  141.1170 O   0  0  0  0  0  0  0  0  0  0  0  0
  191.1260  177.2800  139.3350 C   0  0  0  0  0  3  0  0  0  0  0  0
  190.3890  175.3820  137.8660 C   0  0  0  0  0  0  0  0  0  0  0  0
  185.0360  179.1290  140.7400 C   0  0  0  0  0  3  0  0  0  0  0  0
  189.7970  177.7040  139.8280 C   0  0  0  0  0  0  0  0  0  0  0  0
  188.5490  178.3210  141.8970 C   0  0  1  0  0  3  0  0  0  0  0  0
  191.3840  176.2740  138.4920 C   0  0  0  0  0  3  0  0  0  0  0  0
  186.1620  179.0150  141.5580 C   0  0  0  0  0  3  0  0  0  0  0  0
  187.3490  178.5130  141.0200 C   0  0  0  0  0  0  0  0  0  0  0  0
  187.3990  178.1220  139.6730 C   0  0  0  0  0  0  0  0  0  0  0  0
  186.2410  178.2520  138.8920 C   0  0  0  0  0  3  0  0  0  0  0  0
  188.6990  177.1910  137.6590 C   0  0  0  0  0  2  0  0  0  0  0  0
  185.0980  178.7470  139.4370 N   0  0  0  0  0  0  0  0  0  0  0  0
  190.7570  174.0710  137.5990 O   0  0  0  0  0  1  0  0  0  0  0  0
  188.3880  177.0390  142.7080 C   0  0  0  0  0  2  0  0  0  0  0  0
  189.9000  178.2410  144.4020 C   0  0  0  0  0  2  0  0  0  0  0  0
  188.7880  177.2480  144.1620 C   0  0  0  0  0  0  0  0  0  0  0  0
  190.1680  176.7440  144.5090 C   0  0  0  0  0  2  0  0  0  0  0  0
  187.7660  177.1280  145.2800 C   0  0  0  0  0  2  0  0  0  0  0  0
  186.4330  177.4010  144.7670 N   0  0  0  0  0  2  0  0  0  0  0  0
  184.5450  178.9010  144.9850 C   0  0  0  0  0  1  0  0  0  0  0  0
  186.0540  178.4970  146.9000 C   0  0  0  0  0  1  0  0  0  0  0  0
  185.9780  178.6310  145.3910 C   0  0  0  0  0  3  0  0  0  0  0  0
  1 12  1  0  0  0  0
  1  7  2  0  0  0  0
  2 14  1  0  0  0  0
  2  5  2  0  0  0  0
  3  8  1  0  0  0  0
  4  7  1  0  0  0  0
  5  9  1  0  0  0  0
  6 10  1  0  0  0  0
  7  3  1  0  0  0  0
  8 17  1  6  0  0  0
  9  4  2  0  0  0  0
 11 10  2  0  0  0  0
 11  8  1  0  0  0  0
 12 11  1  0  0  0  0
 13 15  1  0  0  0  0
 13 12  2  0  0  0  0
 14  1  1  0  0  0  0
 15  6  2  0  0  0  0
 16  5  1  0  0  0  0
 17 19  1  0  0  0  0
 18 20  1  0  0  0  0
 19 18  1  0  0  0  0
 19 20  1  0  0  0  0
 19 21  1  0  0  0  0
 22 21  1  0  0  0  0
 22 25  1  0  0  0  0
 23 25  1  0  0  0  0
 25 24  1  0  0  0  0
M  END
>  <MODEL>
7

>  <REMARK>
 VINA RESULT:      -7.5      2.804      5.979
  Name = 
  5 active torsions:
  status: ('A' for Active; 'I' for Inactive)
    1  A    between atoms: C_10  and  C_19
    2  A    between atoms: N_12  and  C_14
    3  A    between atoms: N_12  and  C_15
    4  A    between atoms: C_13  and  C_15
    5  A    between atoms: C_13  and  C_19
                            x       y       z     vdW  Elec       q    Type
                         _______ _______ _______ _____ _____    ______ ____

>  <TORSDO>
F 5

$$$$
=
 OpenBabel11032419183D

 25 28  0  0  1  0  0  0  0  0999 V2000
  190.5870  177.5180  142.1390 C   0  0  0  0  0  0  0  0  0  0  0  0
  191.9490  176.0530  143.5950 C   0  0  0  0  0  3  0  0  0  0  0  0
  188.7920  178.9850  142.6720 O   0  0  0  0  0  0  0  0  0  0  0  0
  190.5610  178.6810  144.3440 C   0  0  0  0  0  3  0  0  0  0  0  0
  191.6790  176.4840  144.8270 C   0  0  0  0  0  0  0  0  0  0  0  0
  188.7870  176.9490  138.3170 C   0  0  0  0  0  3  0  0  0  0  0  0
  189.9940  178.3510  143.0200 C   0  0  0  0  0  0  0  0  0  0  0  0
  187.9070  178.4900  141.6610 C   0  0  1  0  0  3  0  0  0  0  0  0
  191.2850  177.8740  145.1300 C   0  0  0  0  0  3  0  0  0  0  0  0
  188.0840  177.6350  139.3080 C   0  0  0  0  0  3  0  0  0  0  0  0
  188.6720  177.8140  140.5630 C   0  0  0  0  0  0  0  0  0  0  0  0
  189.9520  177.2990  140.8180 C   0  0  0  0  0  0  0  0  0  0  0  0
  190.6170  176.6140  139.7920 C   0  0  0  0  0  3  0  0  0  0  0  0
  191.9480  176.9470  142.4010 C   0  0  0  0  0  2  0  0  0  0  0  0
  190.0280  176.4550  138.5780 N   0  0  0  0  0  0  0  0  0  0  0  0
  191.8050  175.5930  145.8820 O   0  0  0  0  0  1  0  0  0  0  0  0
  186.9190  177.5030  142.2760 C   0  0  0  0  0  2  0  0  0  0  0  0
  184.4500  178.2130  142.2300 C   0  0  0  0  0  2  0  0  0  0  0  0
  185.7690  178.2250  142.9650 C   0  0  0  0  0  0  0  0  0  0  0  0
  185.3040  179.4760  142.2600 C   0  0  0  0  0  2  0  0  0  0  0  0
  185.6730  178.2740  144.4810 C   0  0  0  0  0  2  0  0  0  0  0  0
  186.8940  177.7550  145.0750 N   0  0  0  0  0  2  0  0  0  0  0  0
  187.9850  177.7100  147.2360 C   0  0  0  0  0  1  0  0  0  0  0  0
  185.7750  178.7830  146.9680 C   0  0  0  0  0  1  0  0  0  0  0  0
  186.6610  177.6440  146.5040 C   0  0  0  0  0  3  0  0  0  0  0  0
  1 14  1  0  0  0  0
  1  7  2  0  0  0  0
  2  5  2  0  0  0  0
  3  7  1  0  0  0  0
  4  9  2  0  0  0  0
  5  9  1  0  0  0  0
  5 16  1  0  0  0  0
  6 15  2  0  0  0  0
  6 10  1  0  0  0  0
  7  4  1  0  0  0  0
  8 17  1  1  0  0  0
  8  3  1  0  0  0  0
 10 11  2  0  0  0  0
 11 12  1  0  0  0  0
 11  8  1  0  0  0  0
 12  1  1  0  0  0  0
 13 12  2  0  0  0  0
 14  2  1  0  0  0  0
 15 13  1  0  0  0  0
 17 19  1  0  0  0  0
 18 20  1  0  0  0  0
 18 19  1  0  0  0  0
 19 21  1  0  0  0  0
 20 19  1  0  0  0  0
 21 22  1  0  0  0  0
 22 25  1  0  0  0  0
 25 24  1  0  0  0  0
 25 23  1  0  0  0  0
M  END
>  <MODEL>
8

>  <REMARK>
 VINA RESULT:      -7.3      2.591      5.392
  Name = 
  5 active torsions:
  status: ('A' for Active; 'I' for Inactive)
    1  A    between atoms: C_10  and  C_19
    2  A    between atoms: N_12  and  C_14
    3  A    between atoms: N_12  and  C_15
    4  A    between atoms: C_13  and  C_15
    5  A    between atoms: C_13  and  C_19
                            x       y       z     vdW  Elec       q    Type
                         _______ _______ _______ _____ _____    ______ ____

>  <TORSDO>
F 5

$$$$
=
 OpenBabel11032419183D

 25 28  0  0  1  0  0  0  0  0999 V2000
  188.6030  177.7760  139.2570 C   0  0  0  0  0  0  0  0  0  0  0  0
  189.3840  176.0100  137.7090 C   0  0  0  0  0  3  0  0  0  0  0  0
  189.3640  178.3670  141.4320 O   0  0  0  0  0  0  0  0  0  0  0  0
  191.0130  177.5000  139.8360 C   0  0  0  0  0  3  0  0  0  0  0  0
  190.5580  175.6350  138.2160 C   0  0  0  0  0  0  0  0  0  0  0  0
  184.7250  179.1130  140.4150 C   0  0  0  0  0  3  0  0  0  0  0  0
  189.6140  177.8650  140.1470 C   0  0  0  0  0  0  0  0  0  0  0  0
  188.0650  178.3700  142.0350 C   0  0  1  0  0  3  0  0  0  0  0  0
  191.4230  176.5330  139.0060 C   0  0  0  0  0  3  0  0  0  0  0  0
  185.7270  179.0030  141.3810 C   0  0  0  0  0  3  0  0  0  0  0  0
  186.9950  178.5570  141.0020 C   0  0  0  0  0  0  0  0  0  0  0  0
  187.2480  178.2170  139.6640 C   0  0  0  0  0  0  0  0  0  0  0  0
  186.2100  178.3400  138.7310 C   0  0  0  0  0  3  0  0  0  0  0  0
  188.8530  177.3990  137.8280 C   0  0  0  0  0  2  0  0  0  0  0  0
  184.9840  178.7800  139.1220 N   0  0  0  0  0  0  0  0  0  0  0  0
  191.0050  174.3460  137.9640 O   0  0  0  0  0  1  0  0  0  0  0  0
  187.8350  177.0550  142.7740 C   0  0  0  0  0  2  0  0  0  0  0  0
  186.6470  176.7990  145.0370 C   0  0  0  0  0  2  0  0  0  0  0  0
  187.8740  177.2520  144.2830 C   0  0  0  0  0  0  0  0  0  0  0  0
  186.9030  178.2840  144.8040 C   0  0  0  0  0  2  0  0  0  0  0  0
  189.1830  177.1630  145.0500 C   0  0  0  0  0  2  0  0  0  0  0  0
  190.1490  176.3790  144.2970 N   0  0  0  0  0  2  0  0  0  0  0  0
  191.5820  178.3300  144.2620 C   0  0  0  0  0  1  0  0  0  0  0  0
  191.6800  176.7360  146.1480 C   0  0  0  0  0  1  0  0  0  0  0  0
  191.4680  176.8720  144.6530 C   0  0  0  0  0  3  0  0  0  0  0  0
  1 12  1  0  0  0  0
  1  7  2  0  0  0  0
  2 14  1  0  0  0  0
  2  5  2  0  0  0  0
  3  8  1  0  0  0  0
  4  7  1  0  0  0  0
  5  9  1  0  0  0  0
  6 10  1  0  0  0  0
  7  3  1  0  0  0  0
  8 17  1  6  0  0  0
  9  4  2  0  0  0  0
 11 10  2  0  0  0  0
 11  8  1  0  0  0  0
 12 11  1  0  0  0  0
 13 15  1  0  0  0  0
 13 12  2  0  0  0  0
 14  1  1  0  0  0  0
 15  6  2  0  0  0  0
 16  5  1  0  0  0  0
 17 19  1  0  0  0  0
 19 20  1  0  0  0  0
 19 18  1  0  0  0  0
 19 21  1  0  0  0  0
 20 18  1  0  0  0  0
 22 25  1  0  0  0  0
 22 21  1  0  0  0  0
 23 25  1  0  0  0  0
 25 24  1  0  0  0  0
M  END
>  <MODEL>
9

>  <REMARK>
 VINA RESULT:      -7.3      2.708      6.311
  Name = 
  5 active torsions:
  status: ('A' for Active; 'I' for Inactive)
    1  A    between atoms: C_10  and  C_19
    2  A    between atoms: N_12  and  C_14
    3  A    between atoms: N_12  and  C_15
    4  A    between atoms: C_13  and  C_15
    5  A    between atoms: C_13  and  C_19
                            x       y       z     vdW  Elec       q    Type
                         _______ _______ _______ _____ _____    ______ ____

>  <TORSDO>
F 5

$$$$
