=
 OpenBabel11042411513D

 68 76  0  0  1  0  0  0  0  0999 V2000
  190.4720  176.9910  142.8620 C   0  0  0  0  0  1  0  0  0  0  0  0
  186.9610  178.0610  142.0860 O   0  0  0  0  0  0  0  0  0  0  0  0
  189.4030  177.8840  140.6920 C   0  0  2  0  0  3  0  0  0  0  0  0
  189.2530  177.4310  142.1260 C   0  0  0  0  0  0  0  0  0  0  0  0
  188.1980  178.5160  140.1560 N   0  0  0  0  0  0  0  0  0  0  0  0
  188.0750  177.5340  142.7570 C   0  0  0  0  0  0  0  0  0  0  0  0
  187.0720  178.5850  140.7920 C   0  0  0  0  0  0  0  0  0  0  0  0
  185.9940  179.2110  140.1680 O   0  0  0  0  0  0  0  0  0  0  0  0
  184.6400  178.9210  140.4810 C   0  0  0  0  0  2  0  0  0  0  0  0
  183.7300  179.4990  139.4010 C   0  0  0  0  0  2  0  0  0  0  0  0
  182.7360  178.4780  138.8640 C   0  0  0  0  0  2  0  0  0  0  0  0
  180.6100  177.4880  139.8250 C   0  0  1  0  0  0  0  0  0  0  0  0
  180.3830  178.1470  138.6070 O   0  0  0  0  0  0  0  0  0  0  0  0
  181.3500  178.7250  139.4530 C   0  0  2  0  0  3  0  0  0  0  0  0
  179.4080  177.6890  140.7610 C   0  0  1  0  0  0  0  0  0  0  0  0
  179.3170  176.6820  141.7320 O   0  0  0  0  0  0  0  0  0  0  0  0
  179.8550  177.9120  142.1460 C   0  0  2  0  0  3  0  0  0  0  0  0
  179.4170  178.9660  141.3340 O   0  0  0  0  0  0  0  0  0  0  0  0
  181.1940  176.0960  139.5660 C   0  0  0  0  0  2  0  0  0  0  0  0
  180.3380  175.3590  138.7440 O   0  0  0  0  0  0  0  0  0  0  0  0
  182.8290  175.6980  136.5480 C   0  0  0  0  0  2  0  0  0  0  0  0
  182.8030  173.7810  135.2140 C   0  0  0  0  0  2  0  0  0  0  0  0
  181.1800  174.5360  137.9910 C   0  0  1  0  0  3  0  0  0  0  0  0
  180.5030  173.2010  137.7480 C   0  0  0  0  0  2  0  0  0  0  0  0
  181.3640  174.0540  135.6130 C   0  0  1  0  0  3  0  0  0  0  0  0
  183.6960  174.6970  135.9270 N   0  0  2  0  0  0  0  0  0  0  0  0
  180.7710  172.8340  136.2930 C   0  0  0  0  0  2  0  0  0  0  0  0
  181.4200  175.1580  136.6290 C   0  0  2  0  0  3  0  0  0  0  0  0
  185.2280  171.8770  135.9540 C   0  0  0  0  0  3  0  0  0  0  0  0
  185.9100  174.3740  137.1010 C   0  0  2  0  0  3  0  0  0  0  0  0
  186.1910  175.7990  137.0100 N   0  0  0  0  0  0  0  0  0  0  0  0
  184.3690  172.5010  136.7200 N   0  0  0  0  0  0  0  0  0  0  0  0
  187.2750  174.7750  135.2880 N   0  0  0  0  0  0  0  0  0  0  0  0
  186.6310  173.8600  135.9260 C   0  0  0  0  0  0  0  0  0  0  0  0
  186.9950  175.9700  136.0070 C   0  0  0  0  0  3  0  0  0  0  0  0
  184.4220  173.9570  136.9830 C   0  0  2  0  0  3  0  0  0  0  0  0
  186.3500  172.5730  135.3950 N   0  0  0  0  0  2  0  0  0  0  0  0
  189.8200  176.7210  139.7910 C   0  0  0  0  0  2  0  0  0  0  0  0
  191.3290  176.7030  139.5550 C   0  0  0  0  0  2  0  0  0  0  0  0
  191.6780  176.7010  138.0720 C   0  0  2  0  0  3  0  0  0  0  0  0
  190.5610  176.0980  137.2340 C   0  0  0  0  0  1  0  0  0  0  0  0
  193.0250  176.0270  137.8030 C   0  0  0  0  0  2  0  0  0  0  0  0
  193.1510  175.4700  136.4180 C   0  0  0  0  0  0  0  0  0  0  0  0
  193.6460  176.1500  135.5310 O   0  0  0  0  0  0  0  0  0  0  0  0
  192.7320  173.8370  134.7660 O   0  0  0  0  0  1  0  0  0  0  0  0
  192.7040  174.0720  136.1410 C   0  0  1  0  0  3  0  0  0  0  0  0
  193.5710  173.0420  136.8670 C   0  0  1  0  0  3  0  0  0  0  0  0
  193.4910  171.7850  136.2540 O   0  0  0  0  0  1  0  0  0  0  0  0
  195.0250  173.5190  136.9670 C   0  0  2  0  0  3  0  0  0  0  0  0
  195.5490  173.1100  134.6510 O   0  0  0  0  0  1  0  0  0  0  0  0
  195.9740  172.8540  135.9560 C   0  0  2  0  0  3  0  0  0  0  0  0
  196.0540  171.3470  136.1670 C   0  0  0  0  0  2  0  0  0  0  0  0
  198.1350  170.2760  135.3520 C   0  0  0  0  0  1  0  0  0  0  0  0
  197.4350  170.0200  137.6110 O   0  0  0  0  0  1  0  0  0  0  0  0
  197.4660  170.9280  136.5460 C   0  0  2  0  0  3  0  0  0  0  0  0
  195.5130  173.2920  138.3880 C   0  0  0  0  0  2  0  0  0  0  0  0
  196.2000  174.5110  138.8980 C   0  0  0  0  0  0  0  0  0  0  0  0
  195.6800  175.1980  139.9890 O   0  0  0  0  0  1  0  0  0  0  0  0
  197.2750  174.9020  138.3660 O   0  0  0  0  0  0  0  0  0  0  0  0
  187.9630  177.1220  144.0870 O   0  0  0  0  0  0  0  0  0  0  0  0
  187.9430  178.0360  145.1770 C   0  0  0  0  0  2  0  0  0  0  0  0
  188.1450  178.3090  147.6240 C   0  0  0  0  0  2  0  0  0  0  0  0
  187.8960  177.3090  146.5170 C   0  0  2  0  0  3  0  0  0  0  0  0
  189.9220  176.9470  147.7230 C   0  0  1  0  0  3  0  0  0  0  0  0
  189.5080  178.2650  147.9690 O   0  0  0  0  0  0  0  0  0  0  0  0
  189.0560  176.3590  146.6330 C   0  0  0  0  0  2  0  0  0  0  0  0
  191.3670  176.9340  147.2680 C   0  0  0  0  0  2  0  0  0  0  0  0
  191.4980  177.6060  146.0550 O   0  0  0  0  0  1  0  0  0  0  0  0
  2  6  1  0  0  0  0
  3 38  1  6  0  0  0
  3  4  1  0  0  0  0
  4  6  2  0  0  0  0
  4  1  1  0  0  0  0
  5  3  1  0  0  0  0
  5  7  2  0  0  0  0
  6 60  1  0  0  0  0
  7  2  1  0  0  0  0
  8  9  1  0  0  0  0
  8  7  1  0  0  0  0
 10  9  1  0  0  0  0
 11 10  1  0  0  0  0
 12 19  1  1  0  0  0
 12 15  1  0  0  0  0
 13 14  1  0  0  0  0
 13 12  1  0  0  0  0
 14 11  1  6  0  0  0
 14 12  1  0  0  0  0
 15 18  1  6  0  0  0
 15 16  1  0  0  0  0
 15 17  1  0  0  0  0
 16 17  1  0  0  0  0
 17 18  1  1  0  0  0
 20 19  1  0  0  0  0
 23 20  1  1  0  0  0
 24 23  1  0  0  0  0
 25 22  1  1  0  0  0
 25 27  1  0  0  0  0
 25 28  1  0  0  0  0
 26 22  1  1  0  0  0
 26 21  1  0  0  0  0
 26 36  1  0  0  0  0
 27 24  1  0  0  0  0
 28 21  1  1  0  0  0
 28 23  1  0  0  0  0
 29 32  2  0  0  0  0
 30 34  1  6  0  0  0
 31 30  1  0  0  0  0
 33 34  2  0  0  0  0
 33 35  1  0  0  0  0
 35 31  2  0  0  0  0
 36 32  1  6  0  0  0
 36 30  1  0  0  0  0
 37 34  1  0  0  0  0
 37 29  1  0  0  0  0
 39 38  1  0  0  0  0
 40 41  1  6  0  0  0
 40 39  1  0  0  0  0
 42 40  1  0  0  0  0
 43 42  1  0  0  0  0
 44 43  2  0  0  0  0
 46 45  1  6  0  0  0
 46 43  1  0  0  0  0
 46 47  1  0  0  0  0
 47 48  1  6  0  0  0
 47 49  1  0  0  0  0
 49 56  1  1  0  0  0
 51 50  1  6  0  0  0
 51 52  1  0  0  0  0
 51 49  1  0  0  0  0
 52 55  1  0  0  0  0
 55 53  1  6  0  0  0
 55 54  1  0  0  0  0
 56 57  1  0  0  0  0
 57 58  1  0  0  0  0
 59 57  2  0  0  0  0
 60 61  1  0  0  0  0
 62 65  1  0  0  0  0
 63 61  1  6  0  0  0
 63 66  1  0  0  0  0
 63 62  1  0  0  0  0
 64 67  1  6  0  0  0
 64 65  1  0  0  0  0
 66 64  1  0  0  0  0
 68 67  1  0  0  0  0
M  END
>  <MODEL>
1

>  <REMARK>
 VINA RESULT:      -6.0      0.000      0.000
  Name = 
  27 active torsions:
  status: ('A' for Active; 'I' for Inactive)
    1  A    between atoms: C_2  and  C_39
    2  A    between atoms: C_5  and  C_22
    3  A    between atoms: C_5  and  C_42
    4  A    between atoms: C_6  and  C_31
    5  A    between atoms: C_8  and  C_22
    6  A    between atoms: C_8  and  C_59
    7  A    between atoms: C_11  and  C_46
    8  A    between atoms: C_11  and  C_57
    9  A    between atoms: C_15  and  C_63
   10  A    between atoms: C_16  and  C_32
   11  A    between atoms: C_18  and  C_59
   12  A    between atoms: C_21  and  O_66
   13  A    between atoms: C_24  and  C_25
   14  A    between atoms: C_24  and  C_60
   15  A    between atoms: O_26  and  C_53
   16  A    between atoms: O_26  and  C_63
   17  A    between atoms: C_31  and  C_33
   18  A    between atoms: C_33  and  O_66
   19  A    between atoms: O_35  and  C_58
   20  A    between atoms: O_35  and  C_67
   21  A    between atoms: C_39  and  C_65
   22  A    between atoms: N_41  and  C_50
   23  A    between atoms: C_42  and  C_49
   24  A    between atoms: C_45  and  C_49
   25  A    between atoms: C_45  and  C_65
   26  A    between atoms: C_46  and  C_58
   27  A    between atoms: C_60  and  C_65
                            x       y       z     vdW  Elec       q    Type
                         _______ _______ _______ _____ _____    ______ ____

>  <TORSDO>
F 27

$$$$
=
 OpenBabel11042411513D

 68 76  0  0  1  0  0  0  0  0999 V2000
  186.6760  177.1840  146.8440 C   0  0  0  0  0  1  0  0  0  0  0  0
  189.5560  178.2320  144.6810 O   0  0  0  0  0  0  0  0  0  0  0  0
  186.9660  177.1970  144.2820 C   0  0  2  0  0  3  0  0  0  0  0  0
  187.5030  177.5310  145.6540 C   0  0  0  0  0  0  0  0  0  0  0  0
  187.9570  177.3570  143.2180 N   0  0  0  0  0  0  0  0  0  0  0  0
  188.7430  178.0200  145.8040 C   0  0  0  0  0  0  0  0  0  0  0  0
  189.1430  177.8450  143.4000 C   0  0  0  0  0  0  0  0  0  0  0  0
  189.9930  177.9500  142.3000 O   0  0  0  0  0  0  0  0  0  0  0  0
  190.0200  176.9990  141.2460 C   0  0  0  0  0  2  0  0  0  0  0  0
  189.7190  177.6950  139.9210 C   0  0  0  0  0  2  0  0  0  0  0  0
  188.2710  177.5200  139.4840 C   0  0  0  0  0  2  0  0  0  0  0  0
  188.9270  177.0010  137.0910 C   0  0  1  0  0  0  0  0  0  0  0  0
  189.3680  178.2690  137.4970 O   0  0  0  0  0  0  0  0  0  0  0  0
  188.1190  177.8570  138.0040 C   0  0  2  0  0  3  0  0  0  0  0  0
  188.5180  177.0380  135.6110 C   0  0  1  0  0  0  0  0  0  0  0  0
  189.2830  177.9530  134.8720 O   0  0  0  0  0  0  0  0  0  0  0  0
  189.6280  176.5960  134.7500 C   0  0  2  0  0  3  0  0  0  0  0  0
  188.5430  175.7600  135.0430 O   0  0  0  0  0  0  0  0  0  0  0  0
  189.8690  175.9210  137.6310 C   0  0  0  0  0  2  0  0  0  0  0  0
  191.1990  176.3250  137.4870 O   0  0  0  0  0  0  0  0  0  0  0  0
  194.2330  175.4040  136.4470 C   0  0  0  0  0  2  0  0  0  0  0  0
  194.0130  173.2420  135.5890 C   0  0  0  0  0  2  0  0  0  0  0  0
  191.9180  175.1420  137.2980 C   0  0  1  0  0  3  0  0  0  0  0  0
  190.9570  173.9950  137.0540 C   0  0  0  0  0  2  0  0  0  0  0  0
  192.6990  173.9530  135.3230 C   0  0  1  0  0  3  0  0  0  0  0  0
  194.8740  174.0890  136.4180 N   0  0  2  0  0  0  0  0  0  0  0  0
  191.5490  173.1640  135.9210 C   0  0  0  0  0  2  0  0  0  0  0  0
  192.7810  175.2610  136.0560 C   0  0  2  0  0  3  0  0  0  0  0  0
  195.3030  171.1250  137.5720 C   0  0  0  0  0  3  0  0  0  0  0  0
  196.3430  173.6180  138.4190 C   0  0  2  0  0  3  0  0  0  0  0  0
  197.0870  174.8470  138.1900 N   0  0  0  0  0  0  0  0  0  0  0  0
  194.4930  172.1280  137.8020 N   0  0  0  0  0  0  0  0  0  0  0  0
  198.2810  173.1420  137.2660 N   0  0  0  0  0  0  0  0  0  0  0  0
  197.2020  172.6300  137.7470 C   0  0  0  0  0  0  0  0  0  0  0  0
  198.1860  174.5260  137.5810 C   0  0  0  0  0  3  0  0  0  0  0  0
  194.9280  173.5430  137.7920 C   0  0  2  0  0  3  0  0  0  0  0  0
  196.7080  171.3460  137.3930 N   0  0  0  0  0  2  0  0  0  0  0  0
  185.7250  178.0300  143.9610 C   0  0  0  0  0  2  0  0  0  0  0  0
  185.5550  178.2330  142.4570 C   0  0  0  0  0  2  0  0  0  0  0  0
  184.1740  178.7740  142.1040 C   0  0  2  0  0  3  0  0  0  0  0  0
  183.2570  178.8040  143.3160 C   0  0  0  0  0  1  0  0  0  0  0  0
  183.5490  178.0180  140.9300 C   0  0  0  0  0  2  0  0  0  0  0  0
  183.6100  178.7670  139.6340 C   0  0  0  0  0  0  0  0  0  0  0  0
  184.3510  178.3810  138.7420 O   0  0  0  0  0  0  0  0  0  0  0  0
  183.4440  180.9450  138.7390 O   0  0  0  0  0  1  0  0  0  0  0  0
  182.7360  179.9610  139.4280 C   0  0  1  0  0  3  0  0  0  0  0  0
  181.4560  179.6050  138.6690 C   0  0  1  0  0  3  0  0  0  0  0  0
  181.7350  179.2150  137.3530 O   0  0  0  0  0  1  0  0  0  0  0  0
  180.6590  178.5250  139.4100 C   0  0  2  0  0  3  0  0  0  0  0  0
  178.9330  177.0250  138.6490 O   0  0  0  0  0  1  0  0  0  0  0  0
  180.2960  177.3080  138.5420 C   0  0  2  0  0  3  0  0  0  0  0  0
  181.0940  176.0740  138.9440 C   0  0  0  0  0  2  0  0  0  0  0  0
  181.3530  175.9030  136.4850 C   0  0  0  0  0  1  0  0  0  0  0  0
  180.1110  174.2770  137.6970 O   0  0  0  0  0  1  0  0  0  0  0  0
  181.2300  175.1130  137.7730 C   0  0  2  0  0  3  0  0  0  0  0  0
  179.4060  179.1600  139.9910 C   0  0  0  0  0  2  0  0  0  0  0  0
  179.6840  179.6900  141.3550 C   0  0  0  0  0  0  0  0  0  0  0  0
  179.8720  178.8120  142.4180 O   0  0  0  0  0  1  0  0  0  0  0  0
  179.7880  180.9320  141.5430 O   0  0  0  0  0  0  0  0  0  0  0  0
  189.2230  178.3090  147.0840 O   0  0  0  0  0  0  0  0  0  0  0  0
  189.8510  177.3340  147.9090 C   0  0  0  0  0  2  0  0  0  0  0  0
  190.9520  175.1610  147.5020 C   0  0  0  0  0  2  0  0  0  0  0  0
  190.9950  176.6390  147.1800 C   0  0  2  0  0  3  0  0  0  0  0  0
  192.8720  175.8540  148.4250 C   0  0  1  0  0  3  0  0  0  0  0  0
  191.8460  174.9060  148.5560 O   0  0  0  0  0  0  0  0  0  0  0  0
  192.3170  177.0820  147.7420 C   0  0  0  0  0  2  0  0  0  0  0  0
  193.3980  176.2420  149.7930 C   0  0  0  0  0  2  0  0  0  0  0  0
  194.2750  177.3190  149.6840 O   0  0  0  0  0  1  0  0  0  0  0  0
  2  6  1  0  0  0  0
  3 38  1  6  0  0  0
  3  4  1  0  0  0  0
  4  6  2  0  0  0  0
  4  1  1  0  0  0  0
  5  7  2  0  0  0  0
  5  3  1  0  0  0  0
  6 60  1  0  0  0  0
  7  2  1  0  0  0  0
  8  7  1  0  0  0  0
  9  8  1  0  0  0  0
 10  9  1  0  0  0  0
 11 10  1  0  0  0  0
 12 13  1  0  0  0  0
 12 19  1  1  0  0  0
 12 14  1  0  0  0  0
 13 14  1  0  0  0  0
 14 11  1  1  0  0  0
 15 16  1  6  0  0  0
 15 12  1  0  0  0  0
 17 16  1  6  0  0  0
 17 18  1  0  0  0  0
 17 15  1  0  0  0  0
 18 15  1  0  0  0  0
 20 19  1  0  0  0  0
 23 20  1  6  0  0  0
 24 23  1  0  0  0  0
 25 22  1  1  0  0  0
 25 27  1  0  0  0  0
 25 28  1  0  0  0  0
 26 22  1  6  0  0  0
 26 21  1  0  0  0  0
 26 36  1  0  0  0  0
 27 24  1  0  0  0  0
 28 21  1  1  0  0  0
 28 23  1  0  0  0  0
 29 32  2  0  0  0  0
 30 34  1  6  0  0  0
 31 30  1  0  0  0  0
 33 35  1  0  0  0  0
 33 34  2  0  0  0  0
 35 31  2  0  0  0  0
 36 32  1  6  0  0  0
 36 30  1  0  0  0  0
 37 29  1  0  0  0  0
 37 34  1  0  0  0  0
 39 38  1  0  0  0  0
 40 39  1  0  0  0  0
 40 41  1  1  0  0  0
 42 40  1  0  0  0  0
 43 42  1  0  0  0  0
 44 43  2  0  0  0  0
 46 45  1  6  0  0  0
 46 43  1  0  0  0  0
 47 48  1  6  0  0  0
 47 49  1  0  0  0  0
 47 46  1  0  0  0  0
 49 56  1  6  0  0  0
 51 50  1  1  0  0  0
 51 52  1  0  0  0  0
 51 49  1  0  0  0  0
 54 55  1  0  0  0  0
 55 53  1  6  0  0  0
 55 52  1  0  0  0  0
 56 57  1  0  0  0  0
 57 59  2  0  0  0  0
 57 58  1  0  0  0  0
 60 61  1  0  0  0  0
 62 65  1  0  0  0  0
 63 62  1  0  0  0  0
 63 66  1  0  0  0  0
 63 61  1  1  0  0  0
 64 65  1  0  0  0  0
 64 67  1  1  0  0  0
 66 64  1  0  0  0  0
 68 67  1  0  0  0  0
M  END
>  <MODEL>
2

>  <REMARK>
 VINA RESULT:      -6.0      3.415     10.710
  Name = 
  27 active torsions:
  status: ('A' for Active; 'I' for Inactive)
    1  A    between atoms: C_2  and  C_39
    2  A    between atoms: C_5  and  C_22
    3  A    between atoms: C_5  and  C_42
    4  A    between atoms: C_6  and  C_31
    5  A    between atoms: C_8  and  C_22
    6  A    between atoms: C_8  and  C_59
    7  A    between atoms: C_11  and  C_46
    8  A    between atoms: C_11  and  C_57
    9  A    between atoms: C_15  and  C_63
   10  A    between atoms: C_16  and  C_32
   11  A    between atoms: C_18  and  C_59
   12  A    between atoms: C_21  and  O_66
   13  A    between atoms: C_24  and  C_25
   14  A    between atoms: C_24  and  C_60
   15  A    between atoms: O_26  and  C_53
   16  A    between atoms: O_26  and  C_63
   17  A    between atoms: C_31  and  C_33
   18  A    between atoms: C_33  and  O_66
   19  A    between atoms: O_35  and  C_58
   20  A    between atoms: O_35  and  C_67
   21  A    between atoms: C_39  and  C_65
   22  A    between atoms: N_41  and  C_50
   23  A    between atoms: C_42  and  C_49
   24  A    between atoms: C_45  and  C_49
   25  A    between atoms: C_45  and  C_65
   26  A    between atoms: C_46  and  C_58
   27  A    between atoms: C_60  and  C_65
                            x       y       z     vdW  Elec       q    Type
                         _______ _______ _______ _____ _____    ______ ____

>  <TORSDO>
F 27

$$$$
=
 OpenBabel11042411513D

 68 76  0  0  1  0  0  0  0  0999 V2000
  190.3650  177.0100  142.7410 C   0  0  0  0  0  1  0  0  0  0  0  0
  186.9090  178.3250  142.1110 O   0  0  0  0  0  0  0  0  0  0  0  0
  189.1970  177.7560  140.5670 C   0  0  2  0  0  3  0  0  0  0  0  0
  189.1310  177.4820  142.0520 C   0  0  0  0  0  0  0  0  0  0  0  0
  188.0100  178.4400  140.0530 N   0  0  0  0  0  0  0  0  0  0  0  0
  188.0250  177.7690  142.7540 C   0  0  0  0  0  0  0  0  0  0  0  0
  186.9540  178.6890  140.7590 C   0  0  0  0  0  0  0  0  0  0  0  0
  185.8860  179.3440  140.1490 O   0  0  0  0  0  0  0  0  0  0  0  0
  184.5270  179.0250  140.4100 C   0  0  0  0  0  2  0  0  0  0  0  0
  183.6730  179.3910  139.1990 C   0  0  0  0  0  2  0  0  0  0  0  0
  182.6550  178.3130  138.8540 C   0  0  0  0  0  2  0  0  0  0  0  0
  180.4020  177.5550  139.7370 C   0  0  1  0  0  0  0  0  0  0  0  0
  180.2950  178.1920  138.4920 O   0  0  0  0  0  0  0  0  0  0  0  0
  181.2720  178.7060  139.3680 C   0  0  2  0  0  3  0  0  0  0  0  0
  179.1830  177.8960  140.6070 C   0  0  1  0  0  0  0  0  0  0  0  0
  178.9310  176.9140  141.5750 O   0  0  0  0  0  0  0  0  0  0  0  0
  179.5790  178.0820  142.0130 C   0  0  2  0  0  3  0  0  0  0  0  0
  179.3030  179.1690  141.1750 O   0  0  0  0  0  0  0  0  0  0  0  0
  180.8650  176.1070  139.5450 C   0  0  0  0  0  2  0  0  0  0  0  0
  179.9080  175.3870  138.8260 O   0  0  0  0  0  0  0  0  0  0  0  0
  182.3190  175.2410  136.5240 C   0  0  0  0  0  2  0  0  0  0  0  0
  182.0500  173.2060  135.4090 C   0  0  0  0  0  2  0  0  0  0  0  0
  180.6330  174.4080  138.1400 C   0  0  1  0  0  3  0  0  0  0  0  0
  179.8210  173.1300  138.0680 C   0  0  0  0  0  2  0  0  0  0  0  0
  180.6640  173.6620  135.8240 C   0  0  1  0  0  3  0  0  0  0  0  0
  183.0580  174.0980  135.9860 N   0  0  2  0  0  0  0  0  0  0  0  0
  179.9880  172.5860  136.6540 C   0  0  0  0  0  2  0  0  0  0  0  0
  180.8710  174.8560  136.7110 C   0  0  2  0  0  3  0  0  0  0  0  0
  184.5830  171.2810  136.1760 C   0  0  0  0  0  3  0  0  0  0  0  0
  185.2410  173.8260  137.2280 C   0  0  2  0  0  3  0  0  0  0  0  0
  185.5280  175.2440  137.0810 N   0  0  0  0  0  0  0  0  0  0  0  0
  183.7070  171.9390  136.8920 N   0  0  0  0  0  0  0  0  0  0  0  0
  186.6520  174.1450  135.4340 N   0  0  0  0  0  0  0  0  0  0  0  0
  185.9910  173.2600  136.0960 C   0  0  0  0  0  0  0  0  0  0  0  0
  186.3570  175.3710  136.0920 C   0  0  0  0  0  3  0  0  0  0  0  0
  183.7560  173.4050  137.0910 C   0  0  2  0  0  3  0  0  0  0  0  0
  185.7200  171.9500  135.6150 N   0  0  0  0  0  2  0  0  0  0  0  0
  189.4300  176.4650  139.7820 C   0  0  0  0  0  2  0  0  0  0  0  0
  190.9180  176.1640  139.6210 C   0  0  0  0  0  2  0  0  0  0  0  0
  191.5430  176.9550  138.4780 C   0  0  2  0  0  3  0  0  0  0  0  0
  190.7930  176.7410  137.1720 C   0  0  0  0  0  1  0  0  0  0  0  0
  193.0390  176.6650  138.3340 C   0  0  0  0  0  2  0  0  0  0  0  0
  193.4420  176.2680  136.9470 C   0  0  0  0  0  0  0  0  0  0  0  0
  194.2670  176.9340  136.3400 O   0  0  0  0  0  0  0  0  0  0  0  0
  193.1940  174.9910  134.9790 O   0  0  0  0  0  1  0  0  0  0  0  0
  192.8590  175.0380  136.3320 C   0  0  1  0  0  3  0  0  0  0  0  0
  193.3370  173.7670  137.0370 C   0  0  1  0  0  3  0  0  0  0  0  0
  192.8440  172.6180  136.4040 O   0  0  0  0  0  1  0  0  0  0  0  0
  194.8670  173.7340  137.1350 C   0  0  2  0  0  3  0  0  0  0  0  0
  196.2070  171.7320  137.0860 O   0  0  0  0  0  1  0  0  0  0  0  0
  195.5260  172.6420  136.2750 C   0  0  2  0  0  3  0  0  0  0  0  0
  196.5000  173.2340  135.2640 C   0  0  0  0  0  2  0  0  0  0  0  0
  197.2170  170.8700  135.4570 C   0  0  0  0  0  1  0  0  0  0  0  0
  198.8120  172.6340  135.4730 O   0  0  0  0  0  1  0  0  0  0  0  0
  197.5920  172.2350  134.9150 C   0  0  2  0  0  3  0  0  0  0  0  0
  195.2550  173.5730  138.5950 C   0  0  0  0  0  2  0  0  0  0  0  0
  196.2350  174.6240  138.9860 C   0  0  0  0  0  0  0  0  0  0  0  0
  196.1490  175.2260  140.2360 O   0  0  0  0  0  1  0  0  0  0  0  0
  197.1690  174.9420  138.2010 O   0  0  0  0  0  0  0  0  0  0  0  0
  187.9930  177.5200  144.1280 O   0  0  0  0  0  0  0  0  0  0  0  0
  186.7810  177.3220  144.8470 C   0  0  0  0  0  2  0  0  0  0  0  0
  185.3160  178.2950  146.5810 C   0  0  0  0  0  2  0  0  0  0  0  0
  186.2750  178.6240  145.4580 C   0  0  2  0  0  3  0  0  0  0  0  0
  184.0260  179.3090  145.0560 C   0  0  1  0  0  3  0  0  0  0  0  0
  184.0030  178.3500  146.0800 O   0  0  0  0  0  0  0  0  0  0  0  0
  185.4170  179.3640  144.4690 C   0  0  0  0  0  2  0  0  0  0  0  0
  183.0440  178.9270  143.9660 C   0  0  0  0  0  2  0  0  0  0  0  0
  181.8310  178.5320  144.5260 O   0  0  0  0  0  1  0  0  0  0  0  0
  2  6  1  0  0  0  0
  3 38  1  6  0  0  0
  3  4  1  0  0  0  0
  4  1  1  0  0  0  0
  4  6  2  0  0  0  0
  5  3  1  0  0  0  0
  5  7  2  0  0  0  0
  6 60  1  0  0  0  0
  7  2  1  0  0  0  0
  8  9  1  0  0  0  0
  8  7  1  0  0  0  0
 10  9  1  0  0  0  0
 11 10  1  0  0  0  0
 12 19  1  1  0  0  0
 12 15  1  0  0  0  0
 13 14  1  0  0  0  0
 13 12  1  0  0  0  0
 14 11  1  6  0  0  0
 14 12  1  0  0  0  0
 15 18  1  6  0  0  0
 15 16  1  0  0  0  0
 15 17  1  0  0  0  0
 16 17  1  0  0  0  0
 17 18  1  1  0  0  0
 20 19  1  0  0  0  0
 23 20  1  1  0  0  0
 24 23  1  0  0  0  0
 25 22  1  1  0  0  0
 25 27  1  0  0  0  0
 25 28  1  0  0  0  0
 26 22  1  1  0  0  0
 26 21  1  0  0  0  0
 26 36  1  0  0  0  0
 27 24  1  0  0  0  0
 28 21  1  1  0  0  0
 28 23  1  0  0  0  0
 29 32  2  0  0  0  0
 30 34  1  6  0  0  0
 31 30  1  0  0  0  0
 33 35  1  0  0  0  0
 33 34  2  0  0  0  0
 35 31  2  0  0  0  0
 36 32  1  6  0  0  0
 36 30  1  0  0  0  0
 37 34  1  0  0  0  0
 37 29  1  0  0  0  0
 39 38  1  0  0  0  0
 40 41  1  6  0  0  0
 40 39  1  0  0  0  0
 42 40  1  0  0  0  0
 43 42  1  0  0  0  0
 44 43  2  0  0  0  0
 46 45  1  6  0  0  0
 46 43  1  0  0  0  0
 46 47  1  0  0  0  0
 47 48  1  6  0  0  0
 47 49  1  0  0  0  0
 49 56  1  1  0  0  0
 51 50  1  1  0  0  0
 51 49  1  0  0  0  0
 52 51  1  0  0  0  0
 55 52  1  0  0  0  0
 55 53  1  1  0  0  0
 55 54  1  0  0  0  0
 56 57  1  0  0  0  0
 57 58  1  0  0  0  0
 59 57  2  0  0  0  0
 60 61  1  0  0  0  0
 63 61  1  6  0  0  0
 63 62  1  0  0  0  0
 64 67  1  6  0  0  0
 64 65  1  0  0  0  0
 65 62  1  0  0  0  0
 66 64  1  0  0  0  0
 66 63  1  0  0  0  0
 67 68  1  0  0  0  0
M  END
>  <MODEL>
3

>  <REMARK>
 VINA RESULT:      -5.9      1.421      2.304
  Name = 
  27 active torsions:
  status: ('A' for Active; 'I' for Inactive)
    1  A    between atoms: C_2  and  C_39
    2  A    between atoms: C_5  and  C_22
    3  A    between atoms: C_5  and  C_42
    4  A    between atoms: C_6  and  C_31
    5  A    between atoms: C_8  and  C_22
    6  A    between atoms: C_8  and  C_59
    7  A    between atoms: C_11  and  C_46
    8  A    between atoms: C_11  and  C_57
    9  A    between atoms: C_15  and  C_63
   10  A    between atoms: C_16  and  C_32
   11  A    between atoms: C_18  and  C_59
   12  A    between atoms: C_21  and  O_66
   13  A    between atoms: C_24  and  C_25
   14  A    between atoms: C_24  and  C_60
   15  A    between atoms: O_26  and  C_53
   16  A    between atoms: O_26  and  C_63
   17  A    between atoms: C_31  and  C_33
   18  A    between atoms: C_33  and  O_66
   19  A    between atoms: O_35  and  C_58
   20  A    between atoms: O_35  and  C_67
   21  A    between atoms: C_39  and  C_65
   22  A    between atoms: N_41  and  C_50
   23  A    between atoms: C_42  and  C_49
   24  A    between atoms: C_45  and  C_49
   25  A    between atoms: C_45  and  C_65
   26  A    between atoms: C_46  and  C_58
   27  A    between atoms: C_60  and  C_65
                            x       y       z     vdW  Elec       q    Type
                         _______ _______ _______ _____ _____    ______ ____

>  <TORSDO>
F 27

$$$$
=
 OpenBabel11042411513D

 68 76  0  0  1  0  0  0  0  0999 V2000
  182.4850  179.3510  142.0490 C   0  0  0  0  0  1  0  0  0  0  0  0
  184.0250  178.2960  138.7960 O   0  0  0  0  0  0  0  0  0  0  0  0
  184.9360  179.3410  141.2490 C   0  0  2  0  0  3  0  0  0  0  0  0
  183.4850  179.0030  141.0000 C   0  0  0  0  0  0  0  0  0  0  0  0
  185.7790  179.1780  140.0640 N   0  0  0  0  0  0  0  0  0  0  0  0
  183.0890  178.5100  139.8180 C   0  0  0  0  0  0  0  0  0  0  0  0
  185.3630  178.6850  138.9410 C   0  0  0  0  0  0  0  0  0  0  0  0
  186.2690  178.5780  137.8870 O   0  0  0  0  0  0  0  0  0  0  0  0
  187.1250  177.4600  137.7100 C   0  0  0  0  0  2  0  0  0  0  0  0
  188.1920  177.7920  136.6710 C   0  0  0  0  0  2  0  0  0  0  0  0
  188.3850  176.6750  135.6530 C   0  0  0  0  0  2  0  0  0  0  0  0
  188.1710  174.1820  136.0580 C   0  0  1  0  0  0  0  0  0  0  0  0
  187.4890  174.5890  134.9020 O   0  0  0  0  0  0  0  0  0  0  0  0
  187.4740  175.4950  135.9820 C   0  0  2  0  0  3  0  0  0  0  0  0
  187.3930  173.0560  136.7560 C   0  0  1  0  0  0  0  0  0  0  0  0
  186.1910  172.7560  136.0990 O   0  0  0  0  0  0  0  0  0  0  0  0
  187.2690  171.8820  135.8760 C   0  0  2  0  0  3  0  0  0  0  0  0
  188.1890  171.9190  136.9320 O   0  0  0  0  0  0  0  0  0  0  0  0
  189.6690  174.0510  135.7640 C   0  0  0  0  0  2  0  0  0  0  0  0
  190.4120  174.3250  136.9150 O   0  0  0  0  0  0  0  0  0  0  0  0
  193.2370  175.6540  138.0930 C   0  0  0  0  0  2  0  0  0  0  0  0
  194.3840  176.5160  136.2500 C   0  0  0  0  0  2  0  0  0  0  0  0
  191.7030  174.5960  136.4560 C   0  0  1  0  0  3  0  0  0  0  0  0
  191.6840  174.7650  134.9490 C   0  0  0  0  0  2  0  0  0  0  0  0
  192.9040  176.6500  135.9440 C   0  0  1  0  0  3  0  0  0  0  0  0
  194.5660  175.7590  137.4900 N   0  0  2  0  0  0  0  0  0  0  0  0
  192.5780  175.9590  134.6330 C   0  0  0  0  0  2  0  0  0  0  0  0
  192.1880  175.9110  137.0370 C   0  0  2  0  0  3  0  0  0  0  0  0
  196.8640  174.6890  135.5220 C   0  0  0  0  0  3  0  0  0  0  0  0
  196.1630  173.9170  138.1540 C   0  0  2  0  0  3  0  0  0  0  0  0
  195.9420  174.2030  139.5630 N   0  0  0  0  0  0  0  0  0  0  0  0
  195.6250  174.3690  135.8020 N   0  0  0  0  0  0  0  0  0  0  0  0
  197.8620  175.2590  138.9440 N   0  0  0  0  0  0  0  0  0  0  0  0
  197.3930  174.6810  137.8930 C   0  0  0  0  0  0  0  0  0  0  0  0
  196.9410  174.9200  139.9740 C   0  0  0  0  0  3  0  0  0  0  0  0
  195.0670  174.4040  137.1730 C   0  0  2  0  0  3  0  0  0  0  0  0
  197.7930  175.0010  136.5680 N   0  0  0  0  0  2  0  0  0  0  0  0
  185.5020  178.5120  142.4030 C   0  0  0  0  0  2  0  0  0  0  0  0
  186.3320  177.3340  141.8970 C   0  0  0  0  0  2  0  0  0  0  0  0
  187.6160  177.1510  142.6980 C   0  0  2  0  0  3  0  0  0  0  0  0
  187.3640  177.2590  144.1940 C   0  0  0  0  0  1  0  0  0  0  0  0
  188.7190  178.1030  142.2320 C   0  0  0  0  0  2  0  0  0  0  0  0
  190.0790  177.7440  142.7480 C   0  0  0  0  0  0  0  0  0  0  0  0
  191.0760  178.1430  142.1640 O   0  0  0  0  0  0  0  0  0  0  0  0
  190.8520  175.7300  143.7050 O   0  0  0  0  0  1  0  0  0  0  0  0
  190.2060  176.9320  143.9950 C   0  0  1  0  0  3  0  0  0  0  0  0
  190.9620  177.6850  145.0910 C   0  0  1  0  0  3  0  0  0  0  0  0
  190.6710  179.0550  145.0620 O   0  0  0  0  0  1  0  0  0  0  0  0
  190.6710  177.0850  146.4720 C   0  0  2  0  0  3  0  0  0  0  0  0
  189.7780  177.7020  148.6230 O   0  0  0  0  0  1  0  0  0  0  0  0
  189.5590  177.8110  147.2490 C   0  0  2  0  0  3  0  0  0  0  0  0
  188.1830  177.2480  146.9170 C   0  0  0  0  0  2  0  0  0  0  0  0
  185.9340  178.2870  146.8260 C   0  0  0  0  0  1  0  0  0  0  0  0
  187.6050  179.1200  148.2990 O   0  0  0  0  0  1  0  0  0  0  0  0
  187.1030  177.9450  147.7300 C   0  0  2  0  0  3  0  0  0  0  0  0
  191.9610  177.0680  147.2740 C   0  0  0  0  0  2  0  0  0  0  0  0
  192.3720  175.6650  147.5590 C   0  0  0  0  0  0  0  0  0  0  0  0
  192.3810  174.7210  146.5370 O   0  0  0  0  0  0  0  0  0  0  0  0
  192.7490  175.3380  148.7160 O   0  0  0  0  0  1  0  0  0  0  0  0
  181.7390  178.2180  139.6060 O   0  0  0  0  0  0  0  0  0  0  0  0
  181.0430  178.6050  138.4270 C   0  0  0  0  0  2  0  0  0  0  0  0
  180.8390  176.1440  138.4540 C   0  0  0  0  0  2  0  0  0  0  0  0
  180.4380  177.4010  137.7140 C   0  0  2  0  0  3  0  0  0  0  0  0
  181.8580  175.9440  136.4680 C   0  0  1  0  0  3  0  0  0  0  0  0
  181.9680  175.5940  137.8220 O   0  0  0  0  0  0  0  0  0  0  0  0
  181.0680  177.2280  136.3600 C   0  0  0  0  0  2  0  0  0  0  0  0
  183.2350  176.1590  135.8730 C   0  0  0  0  0  2  0  0  0  0  0  0
  184.1520  175.2830  136.4520 O   0  0  0  0  0  1  0  0  0  0  0  0
  2  7  1  0  0  0  0
  2  6  1  0  0  0  0
  3 38  1  1  0  0  0
  4  3  1  0  0  0  0
  4  1  1  0  0  0  0
  5  3  1  0  0  0  0
  6  4  2  0  0  0  0
  7  5  2  0  0  0  0
  8  7  1  0  0  0  0
  9  8  1  0  0  0  0
 10  9  1  0  0  0  0
 11 10  1  0  0  0  0
 12 19  1  6  0  0  0
 12 15  1  0  0  0  0
 13 14  1  0  0  0  0
 13 12  1  0  0  0  0
 14 11  1  6  0  0  0
 14 12  1  0  0  0  0
 15 16  1  1  0  0  0
 15 18  1  0  0  0  0
 17 16  1  1  0  0  0
 17 15  1  0  0  0  0
 17 18  1  0  0  0  0
 19 20  1  0  0  0  0
 23 20  1  1  0  0  0
 23 28  1  0  0  0  0
 24 23  1  0  0  0  0
 25 27  1  6  0  0  0
 25 22  1  0  0  0  0
 25 28  1  0  0  0  0
 26 22  1  6  0  0  0
 26 21  1  0  0  0  0
 27 24  1  0  0  0  0
 28 21  1  1  0  0  0
 29 32  2  0  0  0  0
 29 37  1  0  0  0  0
 30 34  1  6  0  0  0
 30 31  1  0  0  0  0
 31 35  2  0  0  0  0
 33 35  1  0  0  0  0
 34 33  2  0  0  0  0
 36 32  1  6  0  0  0
 36 26  1  0  0  0  0
 36 30  1  0  0  0  0
 37 34  1  0  0  0  0
 39 38  1  0  0  0  0
 39 40  1  0  0  0  0
 40 41  1  1  0  0  0
 42 40  1  0  0  0  0
 42 43  1  0  0  0  0
 43 46  1  0  0  0  0
 44 43  2  0  0  0  0
 46 45  1  6  0  0  0
 46 47  1  0  0  0  0
 47 48  1  1  0  0  0
 47 49  1  0  0  0  0
 49 51  1  0  0  0  0
 49 56  1  1  0  0  0
 51 50  1  1  0  0  0
 52 51  1  0  0  0  0
 52 55  1  0  0  0  0
 55 53  1  6  0  0  0
 55 54  1  0  0  0  0
 56 57  1  0  0  0  0
 57 59  1  0  0  0  0
 58 57  2  0  0  0  0
 60  6  1  0  0  0  0
 61 60  1  0  0  0  0
 63 61  1  1  0  0  0
 63 62  1  0  0  0  0
 64 67  1  1  0  0  0
 64 65  1  0  0  0  0
 65 62  1  0  0  0  0
 66 64  1  0  0  0  0
 66 63  1  0  0  0  0
 67 68  1  0  0  0  0
M  END
>  <MODEL>
4

>  <REMARK>
 VINA RESULT:      -5.6      3.312     10.433
  Name = 
  27 active torsions:
  status: ('A' for Active; 'I' for Inactive)
    1  A    between atoms: C_2  and  C_39
    2  A    between atoms: C_5  and  C_22
    3  A    between atoms: C_5  and  C_42
    4  A    between atoms: C_6  and  C_31
    5  A    between atoms: C_8  and  C_22
    6  A    between atoms: C_8  and  C_59
    7  A    between atoms: C_11  and  C_46
    8  A    between atoms: C_11  and  C_57
    9  A    between atoms: C_15  and  C_63
   10  A    between atoms: C_16  and  C_32
   11  A    between atoms: C_18  and  C_59
   12  A    between atoms: C_21  and  O_66
   13  A    between atoms: C_24  and  C_25
   14  A    between atoms: C_24  and  C_60
   15  A    between atoms: O_26  and  C_53
   16  A    between atoms: O_26  and  C_63
   17  A    between atoms: C_31  and  C_33
   18  A    between atoms: C_33  and  O_66
   19  A    between atoms: O_35  and  C_58
   20  A    between atoms: O_35  and  C_67
   21  A    between atoms: C_39  and  C_65
   22  A    between atoms: N_41  and  C_50
   23  A    between atoms: C_42  and  C_49
   24  A    between atoms: C_45  and  C_49
   25  A    between atoms: C_45  and  C_65
   26  A    between atoms: C_46  and  C_58
   27  A    between atoms: C_60  and  C_65
                            x       y       z     vdW  Elec       q    Type
                         _______ _______ _______ _____ _____    ______ ____

>  <TORSDO>
F 27

$$$$
=
 OpenBabel11042411513D

 68 76  0  0  1  0  0  0  0  0999 V2000
  186.5860  177.3290  146.4100 C   0  0  0  0  0  1  0  0  0  0  0  0
  189.6510  178.1380  144.4060 O   0  0  0  0  0  0  0  0  0  0  0  0
  187.0040  177.3370  143.8660 C   0  0  2  0  0  3  0  0  0  0  0  0
  187.4990  177.6120  145.2670 C   0  0  0  0  0  0  0  0  0  0  0  0
  188.0590  177.4190  142.8550 N   0  0  0  0  0  0  0  0  0  0  0  0
  188.7670  177.9890  145.4850 C   0  0  0  0  0  0  0  0  0  0  0  0
  189.2710  177.8000  143.1010 C   0  0  0  0  0  0  0  0  0  0  0  0
  190.1820  177.8390  142.0460 O   0  0  0  0  0  0  0  0  0  0  0  0
  190.1160  176.9620  140.9310 C   0  0  0  0  0  2  0  0  0  0  0  0
  189.6790  177.7400  139.6930 C   0  0  0  0  0  2  0  0  0  0  0  0
  188.4260  177.1600  139.0510 C   0  0  0  0  0  2  0  0  0  0  0  0
  188.9850  176.3240  136.7240 C   0  0  1  0  0  0  0  0  0  0  0  0
  189.7570  177.4390  137.0850 O   0  0  0  0  0  0  0  0  0  0  0  0
  188.4260  177.4310  137.5490 C   0  0  2  0  0  3  0  0  0  0  0  0
  188.6540  176.3800  135.2250 C   0  0  1  0  0  0  0  0  0  0  0  0
  187.7070  175.4140  134.8550 O   0  0  0  0  0  0  0  0  0  0  0  0
  187.2390  176.7300  135.0150 C   0  0  2  0  0  3  0  0  0  0  0  0
  188.2640  177.6670  134.8370 O   0  0  0  0  0  0  0  0  0  0  0  0
  189.5620  175.0590  137.3660 C   0  0  0  0  0  2  0  0  0  0  0  0
  190.9260  175.2240  137.6180 O   0  0  0  0  0  0  0  0  0  0  0  0
  193.9220  174.4980  136.3390 C   0  0  0  0  0  2  0  0  0  0  0  0
  193.5610  172.9210  134.6560 C   0  0  0  0  0  2  0  0  0  0  0  0
  191.5470  174.1560  136.9650 C   0  0  1  0  0  3  0  0  0  0  0  0
  190.5030  173.3200  136.2490 C   0  0  0  0  0  2  0  0  0  0  0  0
  192.3330  173.8120  134.6880 C   0  0  1  0  0  3  0  0  0  0  0  0
  194.4430  173.2530  135.7760 N   0  0  2  0  0  0  0  0  0  0  0  0
  191.0840  172.9730  134.8830 C   0  0  0  0  0  2  0  0  0  0  0  0
  192.4890  174.6850  135.9000 C   0  0  2  0  0  3  0  0  0  0  0  0
  195.8760  170.3950  136.0560 C   0  0  0  0  0  3  0  0  0  0  0  0
  195.3470  172.4060  137.9780 C   0  0  2  0  0  3  0  0  0  0  0  0
  195.4580  173.7660  138.4820 N   0  0  0  0  0  0  0  0  0  0  0  0
  194.6630  170.8690  136.1910 N   0  0  0  0  0  0  0  0  0  0  0  0
  197.5140  173.1480  137.7220 N   0  0  0  0  0  0  0  0  0  0  0  0
  196.7160  172.1620  137.4970 C   0  0  0  0  0  0  0  0  0  0  0  0
  196.6990  174.1240  138.3590 C   0  0  0  0  0  3  0  0  0  0  0  0
  194.3670  172.1860  136.7980 C   0  0  2  0  0  3  0  0  0  0  0  0
  197.0010  171.1020  136.5950 N   0  0  0  0  0  2  0  0  0  0  0  0
  185.8580  178.2790  143.4950 C   0  0  0  0  0  2  0  0  0  0  0  0
  185.7430  178.4590  141.9830 C   0  0  0  0  0  2  0  0  0  0  0  0
  184.2960  178.6160  141.5320 C   0  0  2  0  0  3  0  0  0  0  0  0
  183.3610  178.8300  142.7130 C   0  0  0  0  0  1  0  0  0  0  0  0
  183.8450  177.4530  140.6470 C   0  0  0  0  0  2  0  0  0  0  0  0
  183.4790  177.8660  139.2540 C   0  0  0  0  0  0  0  0  0  0  0  0
  183.9890  178.8610  138.7610 O   0  0  0  0  0  0  0  0  0  0  0  0
  182.7850  175.6840  138.6830 O   0  0  0  0  0  1  0  0  0  0  0  0
  182.5210  177.0360  138.4650 C   0  0  1  0  0  3  0  0  0  0  0  0
  181.0670  177.3520  138.8210 C   0  0  1  0  0  3  0  0  0  0  0  0
  180.7870  177.0300  140.1550 O   0  0  0  0  0  1  0  0  0  0  0  0
  180.7340  178.8190  138.5220 C   0  0  2  0  0  3  0  0  0  0  0  0
  179.1320  180.5370  139.0600 O   0  0  0  0  0  1  0  0  0  0  0  0
  179.8930  179.5050  139.6120 C   0  0  2  0  0  3  0  0  0  0  0  0
  180.7680  180.0710  140.7240 C   0  0  0  0  0  2  0  0  0  0  0  0
  179.4090  178.8290  142.3830 C   0  0  0  0  0  1  0  0  0  0  0  0
  178.9450  181.1090  141.8860 O   0  0  0  0  0  1  0  0  0  0  0  0
  179.9860  180.1850  142.0230 C   0  0  2  0  0  3  0  0  0  0  0  0
  180.0300  178.8920  137.1780 C   0  0  0  0  0  2  0  0  0  0  0  0
  180.8570  179.6560  136.2040 C   0  0  0  0  0  0  0  0  0  0  0  0
  180.9610  181.0380  136.3130 O   0  0  0  0  0  1  0  0  0  0  0  0
  181.4970  179.0490  135.3030 O   0  0  0  0  0  0  0  0  0  0  0  0
  189.2060  178.2240  146.7900 O   0  0  0  0  0  0  0  0  0  0  0  0
  189.6910  177.1890  147.6380 C   0  0  0  0  0  2  0  0  0  0  0  0
  190.6620  174.9180  147.5890 C   0  0  0  0  0  2  0  0  0  0  0  0
  190.6500  176.2630  146.8970 C   0  0  2  0  0  3  0  0  0  0  0  0
  192.7400  175.6980  147.8970 C   0  0  1  0  0  3  0  0  0  0  0  0
  191.7560  174.8790  148.4710 O   0  0  0  0  0  0  0  0  0  0  0  0
  192.0640  176.7490  147.0480 C   0  0  0  0  0  2  0  0  0  0  0  0
  193.5460  176.3810  148.9830 C   0  0  0  0  0  2  0  0  0  0  0  0
  192.9040  177.5470  149.3980 O   0  0  0  0  0  1  0  0  0  0  0  0
  2  6  1  0  0  0  0
  3 38  1  6  0  0  0
  3  4  1  0  0  0  0
  4  6  2  0  0  0  0
  4  1  1  0  0  0  0
  5  7  2  0  0  0  0
  5  3  1  0  0  0  0
  6 60  1  0  0  0  0
  7  2  1  0  0  0  0
  8  7  1  0  0  0  0
  9  8  1  0  0  0  0
 10  9  1  0  0  0  0
 11 10  1  0  0  0  0
 12 13  1  0  0  0  0
 12 19  1  1  0  0  0
 12 14  1  0  0  0  0
 13 14  1  0  0  0  0
 14 11  1  1  0  0  0
 15 18  1  6  0  0  0
 15 12  1  0  0  0  0
 16 17  1  0  0  0  0
 16 15  1  0  0  0  0
 17 18  1  6  0  0  0
 17 15  1  0  0  0  0
 19 20  1  0  0  0  0
 23 20  1  6  0  0  0
 24 23  1  0  0  0  0
 25 22  1  1  0  0  0
 25 27  1  0  0  0  0
 25 28  1  0  0  0  0
 26 22  1  6  0  0  0
 26 21  1  0  0  0  0
 26 36  1  0  0  0  0
 27 24  1  0  0  0  0
 28 21  1  1  0  0  0
 28 23  1  0  0  0  0
 29 32  2  0  0  0  0
 29 37  1  0  0  0  0
 30 34  1  6  0  0  0
 30 31  1  0  0  0  0
 33 35  1  0  0  0  0
 34 33  2  0  0  0  0
 35 31  2  0  0  0  0
 36 32  1  6  0  0  0
 36 30  1  0  0  0  0
 37 34  1  0  0  0  0
 39 38  1  0  0  0  0
 40 39  1  0  0  0  0
 40 41  1  1  0  0  0
 42 40  1  0  0  0  0
 43 42  1  0  0  0  0
 44 43  2  0  0  0  0
 46 45  1  1  0  0  0
 46 47  1  0  0  0  0
 46 43  1  0  0  0  0
 47 48  1  1  0  0  0
 49 56  1  6  0  0  0
 49 47  1  0  0  0  0
 49 51  1  0  0  0  0
 51 50  1  6  0  0  0
 51 52  1  0  0  0  0
 52 55  1  0  0  0  0
 54 55  1  0  0  0  0
 55 53  1  6  0  0  0
 57 58  1  0  0  0  0
 57 56  1  0  0  0  0
 59 57  2  0  0  0  0
 60 61  1  0  0  0  0
 62 65  1  0  0  0  0
 63 66  1  0  0  0  0
 63 62  1  0  0  0  0
 63 61  1  1  0  0  0
 64 65  1  0  0  0  0
 64 67  1  1  0  0  0
 66 64  1  0  0  0  0
 67 68  1  0  0  0  0
M  END
>  <MODEL>
5

>  <REMARK>
 VINA RESULT:      -5.4      3.492     10.803
  Name = 
  27 active torsions:
  status: ('A' for Active; 'I' for Inactive)
    1  A    between atoms: C_2  and  C_39
    2  A    between atoms: C_5  and  C_22
    3  A    between atoms: C_5  and  C_42
    4  A    between atoms: C_6  and  C_31
    5  A    between atoms: C_8  and  C_22
    6  A    between atoms: C_8  and  C_59
    7  A    between atoms: C_11  and  C_46
    8  A    between atoms: C_11  and  C_57
    9  A    between atoms: C_15  and  C_63
   10  A    between atoms: C_16  and  C_32
   11  A    between atoms: C_18  and  C_59
   12  A    between atoms: C_21  and  O_66
   13  A    between atoms: C_24  and  C_25
   14  A    between atoms: C_24  and  C_60
   15  A    between atoms: O_26  and  C_53
   16  A    between atoms: O_26  and  C_63
   17  A    between atoms: C_31  and  C_33
   18  A    between atoms: C_33  and  O_66
   19  A    between atoms: O_35  and  C_58
   20  A    between atoms: O_35  and  C_67
   21  A    between atoms: C_39  and  C_65
   22  A    between atoms: N_41  and  C_50
   23  A    between atoms: C_42  and  C_49
   24  A    between atoms: C_45  and  C_49
   25  A    between atoms: C_45  and  C_65
   26  A    between atoms: C_46  and  C_58
   27  A    between atoms: C_60  and  C_65
                            x       y       z     vdW  Elec       q    Type
                         _______ _______ _______ _____ _____    ______ ____

>  <TORSDO>
F 27

$$$$
=
 OpenBabel11042411513D

 68 76  0  0  1  0  0  0  0  0999 V2000
  191.6290  176.0370  134.5980 C   0  0  0  0  0  1  0  0  0  0  0  0
  191.9160  176.6830  138.2820 O   0  0  0  0  0  0  0  0  0  0  0  0
  189.9180  176.9250  136.3100 C   0  0  2  0  0  3  0  0  0  0  0  0
  191.2880  176.3610  136.0120 C   0  0  0  0  0  0  0  0  0  0  0  0
  189.7850  177.4270  137.6780 N   0  0  0  0  0  0  0  0  0  0  0  0
  192.2140  176.2640  136.9770 C   0  0  0  0  0  0  0  0  0  0  0  0
  190.6980  177.3040  138.5870 C   0  0  0  0  0  0  0  0  0  0  0  0
  190.4460  177.8230  139.8560 O   0  0  0  0  0  0  0  0  0  0  0  0
  190.2410  177.0090  141.0010 C   0  0  0  0  0  2  0  0  0  0  0  0
  188.8250  177.2160  141.5300 C   0  0  0  0  0  2  0  0  0  0  0  0
  188.3610  178.6620  141.4070 C   0  0  0  0  0  2  0  0  0  0  0  0
  185.9190  178.5710  140.7320 C   0  0  1  0  0  0  0  0  0  0  0  0
  186.6730  177.5540  140.1270 O   0  0  0  0  0  0  0  0  0  0  0  0
  187.3250  178.7920  140.2940 C   0  0  2  0  0  3  0  0  0  0  0  0
  184.8360  179.0670  139.7620 C   0  0  1  0  0  0  0  0  0  0  0  0
  184.1970  178.0120  139.0950 O   0  0  0  0  0  0  0  0  0  0  0  0
  183.5060  178.5890  140.1740 C   0  0  2  0  0  3  0  0  0  0  0  0
  183.9200  179.9060  140.4070 O   0  0  0  0  0  0  0  0  0  0  0  0
  185.5810  178.1840  142.1740 C   0  0  0  0  0  2  0  0  0  0  0  0
  185.4500  179.3300  142.9630 O   0  0  0  0  0  0  0  0  0  0  0  0
  187.5850  177.0440  144.1270 C   0  0  0  0  0  2  0  0  0  0  0  0
  187.1570  176.8400  146.4140 C   0  0  0  0  0  2  0  0  0  0  0  0
  186.0750  179.0120  144.1710 C   0  0  1  0  0  3  0  0  0  0  0  0
  185.2380  179.5210  145.3280 C   0  0  0  0  0  2  0  0  0  0  0  0
  185.8340  177.1770  145.7510 C   0  0  1  0  0  3  0  0  0  0  0  0
  188.2380  176.9250  145.4300 N   0  0  2  0  0  0  0  0  0  0  0  0
  185.2360  178.4200  146.3820 C   0  0  0  0  0  2  0  0  0  0  0  0
  186.1600  177.5050  144.3220 C   0  0  2  0  0  3  0  0  0  0  0  0
  189.5910  178.1280  148.0800 C   0  0  0  0  0  3  0  0  0  0  0  0
  190.5570  177.9290  145.4250 C   0  0  2  0  0  3  0  0  0  0  0  0
  190.9090  177.1660  144.2380 N   0  0  0  0  0  0  0  0  0  0  0  0
  188.8730  178.5870  147.0860 N   0  0  0  0  0  0  0  0  0  0  0  0
  191.7100  176.0310  146.0430 N   0  0  0  0  0  0  0  0  0  0  0  0
  191.0960  177.0710  146.4920 C   0  0  0  0  0  0  0  0  0  0  0  0
  191.5920  176.1360  144.6290 C   0  0  0  0  0  3  0  0  0  0  0  0
  189.0440  178.1400  145.6850 C   0  0  2  0  0  3  0  0  0  0  0  0
  190.6750  177.2210  147.8410 N   0  0  0  0  0  2  0  0  0  0  0  0
  188.8270  175.8910  136.0310 C   0  0  0  0  0  2  0  0  0  0  0  0
  189.2940  174.4750  136.3630 C   0  0  0  0  0  2  0  0  0  0  0  0
  188.1360  173.5660  136.7580 C   0  0  2  0  0  3  0  0  0  0  0  0
  188.4330  172.1090  136.4390 C   0  0  0  0  0  1  0  0  0  0  0  0
  186.8130  174.0290  136.1460 C   0  0  0  0  0  2  0  0  0  0  0  0
  185.6610  173.9850  137.1020 C   0  0  0  0  0  0  0  0  0  0  0  0
  185.5020  173.0060  137.8170 O   0  0  0  0  0  0  0  0  0  0  0  0
  184.7700  175.8770  136.0090 O   0  0  0  0  0  1  0  0  0  0  0  0
  184.7360  175.1540  137.2010 C   0  0  1  0  0  3  0  0  0  0  0  0
  183.3030  174.7210  137.5130 C   0  0  1  0  0  3  0  0  0  0  0  0
  182.9550  175.0280  138.8350 O   0  0  0  0  0  1  0  0  0  0  0  0
  182.3120  175.3420  136.5210 C   0  0  2  0  0  3  0  0  0  0  0  0
  181.1490  176.5600  138.2440 O   0  0  0  0  0  1  0  0  0  0  0  0
  181.7260  176.6880  136.9790 C   0  0  2  0  0  3  0  0  0  0  0  0
  180.6770  177.2050  136.0030 C   0  0  0  0  0  2  0  0  0  0  0  0
  181.3310  179.1380  134.5960 C   0  0  0  0  0  1  0  0  0  0  0  0
  181.4830  179.2480  136.9670 O   0  0  0  0  0  1  0  0  0  0  0  0
  180.7180  178.7230  135.9190 C   0  0  2  0  0  3  0  0  0  0  0  0
  181.2030  174.3380  136.2520 C   0  0  0  0  0  2  0  0  0  0  0  0
  181.7570  173.1220  135.5960 C   0  0  0  0  0  0  0  0  0  0  0  0
  180.9770  171.9760  135.4800 O   0  0  0  0  0  1  0  0  0  0  0  0
  182.9200  173.1390  135.1080 O   0  0  0  0  0  0  0  0  0  0  0  0
  193.4780  175.7520  136.6740 O   0  0  0  0  0  0  0  0  0  0  0  0
  193.6660  174.5110  136.0020 C   0  0  0  0  0  2  0  0  0  0  0  0
  194.7670  173.7230  138.0680 C   0  0  0  0  0  2  0  0  0  0  0  0
  193.7740  173.3530  136.9870 C   0  0  2  0  0  3  0  0  0  0  0  0
  195.7460  172.0110  137.0050 C   0  0  1  0  0  3  0  0  0  0  0  0
  196.0190  173.1810  137.7300 O   0  0  0  0  0  0  0  0  0  0  0  0
  194.4060  172.1620  136.3230 C   0  0  0  0  0  2  0  0  0  0  0  0
  196.8140  171.7910  135.9520 C   0  0  0  0  0  2  0  0  0  0  0  0
  196.8480  170.4500  135.5720 O   0  0  0  0  0  1  0  0  0  0  0  0
  1  4  1  0  0  0  0
  2  7  1  0  0  0  0
  3 38  1  1  0  0  0
  3  5  1  0  0  0  0
  4  3  1  0  0  0  0
  4  6  2  0  0  0  0
  5  7  2  0  0  0  0
  6  2  1  0  0  0  0
  7  8  1  0  0  0  0
  8  9  1  0  0  0  0
  9 10  1  0  0  0  0
 11 10  1  0  0  0  0
 12 19  1  1  0  0  0
 13 14  1  0  0  0  0
 13 12  1  0  0  0  0
 14 12  1  0  0  0  0
 14 11  1  1  0  0  0
 15 16  1  6  0  0  0
 15 17  1  0  0  0  0
 15 18  1  0  0  0  0
 15 12  1  0  0  0  0
 17 16  1  6  0  0  0
 17 18  1  0  0  0  0
 19 20  1  0  0  0  0
 23 20  1  6  0  0  0
 23 28  1  0  0  0  0
 23 24  1  0  0  0  0
 24 27  1  0  0  0  0
 25 27  1  1  0  0  0
 25 22  1  0  0  0  0
 26 21  1  6  0  0  0
 26 36  1  0  0  0  0
 26 22  1  0  0  0  0
 28 21  1  1  0  0  0
 28 25  1  0  0  0  0
 30 31  1  6  0  0  0
 30 36  1  0  0  0  0
 30 34  1  0  0  0  0
 31 35  2  0  0  0  0
 32 29  2  0  0  0  0
 33 34  2  0  0  0  0
 34 37  1  0  0  0  0
 35 33  1  0  0  0  0
 36 32  1  1  0  0  0
 37 29  1  0  0  0  0
 38 39  1  0  0  0  0
 39 40  1  0  0  0  0
 40 41  1  6  0  0  0
 42 40  1  0  0  0  0
 42 43  1  0  0  0  0
 43 46  1  0  0  0  0
 43 44  2  0  0  0  0
 46 45  1  6  0  0  0
 46 47  1  0  0  0  0
 47 48  1  1  0  0  0
 49 56  1  1  0  0  0
 49 51  1  0  0  0  0
 49 47  1  0  0  0  0
 51 50  1  1  0  0  0
 52 51  1  0  0  0  0
 55 53  1  6  0  0  0
 55 52  1  0  0  0  0
 55 54  1  0  0  0  0
 57 56  1  0  0  0  0
 58 57  1  0  0  0  0
 59 57  2  0  0  0  0
 60  6  1  0  0  0  0
 61 60  1  0  0  0  0
 63 61  1  6  0  0  0
 63 62  1  0  0  0  0
 64 67  1  6  0  0  0
 64 65  1  0  0  0  0
 65 62  1  0  0  0  0
 66 63  1  0  0  0  0
 66 64  1  0  0  0  0
 68 67  1  0  0  0  0
M  END
>  <MODEL>
6

>  <REMARK>
 VINA RESULT:      -4.6      2.862     10.644
  Name = 
  27 active torsions:
  status: ('A' for Active; 'I' for Inactive)
    1  A    between atoms: C_2  and  C_39
    2  A    between atoms: C_5  and  C_22
    3  A    between atoms: C_5  and  C_42
    4  A    between atoms: C_6  and  C_31
    5  A    between atoms: C_8  and  C_22
    6  A    between atoms: C_8  and  C_59
    7  A    between atoms: C_11  and  C_46
    8  A    between atoms: C_11  and  C_57
    9  A    between atoms: C_15  and  C_63
   10  A    between atoms: C_16  and  C_32
   11  A    between atoms: C_18  and  C_59
   12  A    between atoms: C_21  and  O_66
   13  A    between atoms: C_24  and  C_25
   14  A    between atoms: C_24  and  C_60
   15  A    between atoms: O_26  and  C_53
   16  A    between atoms: O_26  and  C_63
   17  A    between atoms: C_31  and  C_33
   18  A    between atoms: C_33  and  O_66
   19  A    between atoms: O_35  and  C_58
   20  A    between atoms: O_35  and  C_67
   21  A    between atoms: C_39  and  C_65
   22  A    between atoms: N_41  and  C_50
   23  A    between atoms: C_42  and  C_49
   24  A    between atoms: C_45  and  C_49
   25  A    between atoms: C_45  and  C_65
   26  A    between atoms: C_46  and  C_58
   27  A    between atoms: C_60  and  C_65
                            x       y       z     vdW  Elec       q    Type
                         _______ _______ _______ _____ _____    ______ ____

>  <TORSDO>
F 27

$$$$
=
 OpenBabel11042411513D

 68 76  0  0  1  0  0  0  0  0999 V2000
  179.5860  175.9480  136.6130 C   0  0  0  0  0  1  0  0  0  0  0  0
  182.4850  178.0530  137.7230 O   0  0  0  0  0  0  0  0  0  0  0  0
  181.6790  175.3680  138.0020 C   0  0  2  0  0  3  0  0  0  0  0  0
  180.8950  176.3700  137.1860 C   0  0  0  0  0  0  0  0  0  0  0  0
  182.8140  175.9610  138.7100 N   0  0  0  0  0  0  0  0  0  0  0  0
  181.3090  177.6400  137.0790 C   0  0  0  0  0  0  0  0  0  0  0  0
  183.1920  177.1910  138.5710 C   0  0  0  0  0  0  0  0  0  0  0  0
  184.2950  177.6330  139.3000 O   0  0  0  0  0  0  0  0  0  0  0  0
  185.3860  178.3280  138.7130 C   0  0  0  0  0  2  0  0  0  0  0  0
  186.3700  178.7480  139.8010 C   0  0  0  0  0  2  0  0  0  0  0  0
  185.7630  178.6790  141.1960 C   0  0  0  0  0  2  0  0  0  0  0  0
  183.5650  178.8480  142.4470 C   0  0  1  0  0  0  0  0  0  0  0  0
  183.5610  177.8030  141.5110 O   0  0  0  0  0  0  0  0  0  0  0  0
  184.2650  178.9660  141.1380 C   0  0  2  0  0  3  0  0  0  0  0  0
  182.1730  179.4940  142.5150 C   0  0  1  0  0  0  0  0  0  0  0  0
  181.2360  178.8210  141.7190 O   0  0  0  0  0  0  0  0  0  0  0  0
  181.1920  178.5640  143.1000 C   0  0  2  0  0  3  0  0  0  0  0  0
  181.7350  179.6230  143.8380 O   0  0  0  0  0  0  0  0  0  0  0  0
  184.3050  178.4120  143.7150 C   0  0  0  0  0  2  0  0  0  0  0  0
  184.7670  179.5320  144.4120 O   0  0  0  0  0  0  0  0  0  0  0  0
  187.0610  177.1240  144.1370 C   0  0  0  0  0  2  0  0  0  0  0  0
  187.8250  176.6840  146.3000 C   0  0  0  0  0  2  0  0  0  0  0  0
  185.8940  179.0850  145.1070 C   0  0  1  0  0  3  0  0  0  0  0  0
  185.7790  179.4760  146.5680 C   0  0  0  0  0  2  0  0  0  0  0  0
  186.3700  177.0970  146.4270 C   0  0  1  0  0  3  0  0  0  0  0  0
  188.2710  176.8650  144.9170 N   0  0  2  0  0  0  0  0  0  0  0  0
  186.2420  178.2710  147.3790 C   0  0  0  0  0  2  0  0  0  0  0  0
  185.9550  177.5700  145.0640 C   0  0  2  0  0  3  0  0  0  0  0  0
  191.2880  177.3820  145.8810 C   0  0  0  0  0  3  0  0  0  0  0  0
  189.9450  178.1190  143.5000 C   0  0  2  0  0  3  0  0  0  0  0  0
  189.1960  177.8010  142.2940 N   0  0  0  0  0  0  0  0  0  0  0  0
  190.1460  178.0200  145.9440 N   0  0  0  0  0  0  0  0  0  0  0  0
  190.8930  176.2910  142.4630 N   0  0  0  0  0  0  0  0  0  0  0  0
  190.9650  177.0580  143.4950 C   0  0  0  0  0  0  0  0  0  0  0  0
  189.7890  176.7990  141.7230 C   0  0  0  0  0  3  0  0  0  0  0  0
  189.1650  178.0410  144.8360 C   0  0  2  0  0  3  0  0  0  0  0  0
  191.7010  176.7390  144.6680 N   0  0  0  0  0  2  0  0  0  0  0  0
  182.1620  174.2090  137.1290 C   0  0  0  0  0  2  0  0  0  0  0  0
  183.4570  174.5550  136.3980 C   0  0  0  0  0  2  0  0  0  0  0  0
  183.6290  173.7450  135.1190 C   0  0  2  0  0  3  0  0  0  0  0  0
  182.3100  173.1460  134.6540 C   0  0  0  0  0  1  0  0  0  0  0  0
  184.7230  172.6850  135.2570 C   0  0  0  0  0  2  0  0  0  0  0  0
  185.8160  173.0710  136.2060 C   0  0  0  0  0  0  0  0  0  0  0  0
  185.6160  173.0360  137.4110 O   0  0  0  0  0  0  0  0  0  0  0  0
  187.1490  174.8180  135.3440 O   0  0  0  0  0  1  0  0  0  0  0  0
  187.1550  173.4620  135.6710 C   0  0  1  0  0  3  0  0  0  0  0  0
  188.2760  173.1670  136.6700 C   0  0  1  0  0  3  0  0  0  0  0  0
  188.8770  171.9290  136.4090 O   0  0  0  0  0  1  0  0  0  0  0  0
  189.3130  174.2960  136.6820 C   0  0  2  0  0  3  0  0  0  0  0  0
  190.8570  174.7980  138.4630 O   0  0  0  0  0  1  0  0  0  0  0  0
  190.6280  173.9320  137.3920 C   0  0  2  0  0  3  0  0  0  0  0  0
  191.8160  173.9910  136.4400 C   0  0  0  0  0  2  0  0  0  0  0  0
  193.9610  175.1960  136.1390 C   0  0  0  0  0  1  0  0  0  0  0  0
  193.7440  173.4770  137.7690 O   0  0  0  0  0  1  0  0  0  0  0  0
  193.0510  174.5230  137.1490 C   0  0  2  0  0  3  0  0  0  0  0  0
  188.6840  175.5250  137.3170 C   0  0  0  0  0  2  0  0  0  0  0  0
  189.2990  176.7630  136.7650 C   0  0  0  0  0  0  0  0  0  0  0  0
  189.8950  176.7430  135.5080 O   0  0  0  0  0  0  0  0  0  0  0  0
  189.2460  177.8420  137.4150 O   0  0  0  0  0  1  0  0  0  0  0  0
  180.5600  178.5520  136.3310 O   0  0  0  0  0  0  0  0  0  0  0  0
  181.0340  179.8540  136.0060 C   0  0  0  0  0  2  0  0  0  0  0  0
  180.3550  182.0530  135.1080 C   0  0  0  0  0  2  0  0  0  0  0  0
  179.8900  180.8570  135.9110 C   0  0  2  0  0  3  0  0  0  0  0  0
  180.0060  182.8870  137.1580 C   0  0  1  0  0  3  0  0  0  0  0  0
  180.7810  183.0520  136.0000 O   0  0  0  0  0  0  0  0  0  0  0  0
  179.5930  181.4380  137.2660 C   0  0  0  0  0  2  0  0  0  0  0  0
  180.8170  183.2620  138.3830 C   0  0  0  0  0  2  0  0  0  0  0  0
  182.1480  182.8880  138.2140 O   0  0  0  0  0  1  0  0  0  0  0  0
  1  4  1  0  0  0  0
  2  7  1  0  0  0  0
  3 38  1  6  0  0  0
  3  5  1  0  0  0  0
  4  3  1  0  0  0  0
  6  4  2  0  0  0  0
  6  2  1  0  0  0  0
  7  5  2  0  0  0  0
  7  8  1  0  0  0  0
  9  8  1  0  0  0  0
  9 10  1  0  0  0  0
 10 11  1  0  0  0  0
 12 15  1  0  0  0  0
 12 19  1  1  0  0  0
 13 12  1  0  0  0  0
 14 11  1  1  0  0  0
 14 13  1  0  0  0  0
 14 12  1  0  0  0  0
 15 16  1  6  0  0  0
 15 17  1  0  0  0  0
 15 18  1  0  0  0  0
 17 16  1  6  0  0  0
 17 18  1  0  0  0  0
 19 20  1  0  0  0  0
 23 20  1  6  0  0  0
 23 24  1  0  0  0  0
 24 27  1  0  0  0  0
 25 22  1  6  0  0  0
 25 27  1  0  0  0  0
 26 21  1  6  0  0  0
 26 22  1  0  0  0  0
 28 21  1  6  0  0  0
 28 23  1  0  0  0  0
 28 25  1  0  0  0  0
 29 32  2  0  0  0  0
 30 31  1  6  0  0  0
 30 36  1  0  0  0  0
 33 34  2  0  0  0  0
 34 30  1  0  0  0  0
 34 37  1  0  0  0  0
 35 31  2  0  0  0  0
 35 33  1  0  0  0  0
 36 26  1  0  0  0  0
 36 32  1  1  0  0  0
 37 29  1  0  0  0  0
 39 38  1  0  0  0  0
 40 41  1  1  0  0  0
 40 42  1  0  0  0  0
 40 39  1  0  0  0  0
 42 43  1  0  0  0  0
 43 44  2  0  0  0  0
 46 45  1  1  0  0  0
 46 43  1  0  0  0  0
 46 47  1  0  0  0  0
 47 48  1  6  0  0  0
 47 49  1  0  0  0  0
 49 56  1  1  0  0  0
 49 51  1  0  0  0  0
 51 50  1  1  0  0  0
 52 55  1  0  0  0  0
 52 51  1  0  0  0  0
 55 53  1  6  0  0  0
 55 54  1  0  0  0  0
 57 56  1  0  0  0  0
 57 59  1  0  0  0  0
 58 57  2  0  0  0  0
 60  6  1  0  0  0  0
 61 60  1  0  0  0  0
 62 63  1  0  0  0  0
 62 65  1  0  0  0  0
 63 61  1  1  0  0  0
 63 66  1  0  0  0  0
 64 66  1  0  0  0  0
 64 67  1  1  0  0  0
 65 64  1  0  0  0  0
 68 67  1  0  0  0  0
M  END
>  <MODEL>
7

>  <REMARK>
 VINA RESULT:      -4.2      3.043      8.976
  Name = 
  27 active torsions:
  status: ('A' for Active; 'I' for Inactive)
    1  A    between atoms: C_2  and  C_39
    2  A    between atoms: C_5  and  C_22
    3  A    between atoms: C_5  and  C_42
    4  A    between atoms: C_6  and  C_31
    5  A    between atoms: C_8  and  C_22
    6  A    between atoms: C_8  and  C_59
    7  A    between atoms: C_11  and  C_46
    8  A    between atoms: C_11  and  C_57
    9  A    between atoms: C_15  and  C_63
   10  A    between atoms: C_16  and  C_32
   11  A    between atoms: C_18  and  C_59
   12  A    between atoms: C_21  and  O_66
   13  A    between atoms: C_24  and  C_25
   14  A    between atoms: C_24  and  C_60
   15  A    between atoms: O_26  and  C_53
   16  A    between atoms: O_26  and  C_63
   17  A    between atoms: C_31  and  C_33
   18  A    between atoms: C_33  and  O_66
   19  A    between atoms: O_35  and  C_58
   20  A    between atoms: O_35  and  C_67
   21  A    between atoms: C_39  and  C_65
   22  A    between atoms: N_41  and  C_50
   23  A    between atoms: C_42  and  C_49
   24  A    between atoms: C_45  and  C_49
   25  A    between atoms: C_45  and  C_65
   26  A    between atoms: C_46  and  C_58
   27  A    between atoms: C_60  and  C_65
                            x       y       z     vdW  Elec       q    Type
                         _______ _______ _______ _____ _____    ______ ____

>  <TORSDO>
F 27

$$$$
=
 OpenBabel11042411513D

 68 76  0  0  1  0  0  0  0  0999 V2000
  193.6050  176.9920  136.3360 C   0  0  0  0  0  1  0  0  0  0  0  0
  192.9490  176.4510  139.9890 O   0  0  0  0  0  0  0  0  0  0  0  0
  191.6070  177.6560  137.8240 C   0  0  2  0  0  3  0  0  0  0  0  0
  192.9310  176.9450  137.6640 C   0  0  0  0  0  0  0  0  0  0  0  0
  191.1650  177.7480  139.2160 N   0  0  0  0  0  0  0  0  0  0  0  0
  193.5400  176.3860  138.7190 C   0  0  0  0  0  0  0  0  0  0  0  0
  191.7750  177.1830  140.2090 C   0  0  0  0  0  0  0  0  0  0  0  0
  191.2480  177.3430  141.4890 O   0  0  0  0  0  0  0  0  0  0  0  0
  190.4410  176.3630  142.1250 C   0  0  0  0  0  2  0  0  0  0  0  0
  188.9780  176.5810  141.7500 C   0  0  0  0  0  2  0  0  0  0  0  0
  188.6370  178.0530  141.5600 C   0  0  0  0  0  2  0  0  0  0  0  0
  186.5010  178.5140  140.2740 C   0  0  1  0  0  0  0  0  0  0  0  0
  187.0270  177.2460  139.9870 O   0  0  0  0  0  0  0  0  0  0  0  0
  187.9690  178.2720  140.2050 C   0  0  2  0  0  3  0  0  0  0  0  0
  185.8670  179.1160  139.0110 C   0  0  1  0  0  0  0  0  0  0  0  0
  186.0690  178.3110  137.8810 O   0  0  0  0  0  0  0  0  0  0  0  0
  184.8040  178.2400  138.4910 C   0  0  2  0  0  3  0  0  0  0  0  0
  184.5130  179.4060  139.2090 O   0  0  0  0  0  0  0  0  0  0  0  0
  185.7450  178.4780  141.6060 C   0  0  0  0  0  2  0  0  0  0  0  0
  185.7430  179.7460  142.1940 O   0  0  0  0  0  0  0  0  0  0  0  0
  186.8190  177.4720  144.3860 C   0  0  0  0  0  2  0  0  0  0  0  0
  185.3050  177.4960  146.1650 C   0  0  0  0  0  2  0  0  0  0  0  0
  185.6630  179.5070  143.5680 C   0  0  1  0  0  3  0  0  0  0  0  0
  184.4130  180.1600  144.1260 C   0  0  0  0  0  2  0  0  0  0  0  0
  184.5150  177.8370  144.9150 C   0  0  1  0  0  3  0  0  0  0  0  0
  186.7340  177.4380  145.8460 N   0  0  2  0  0  0  0  0  0  0  0  0
  183.7960  179.1600  145.0970 C   0  0  0  0  0  2  0  0  0  0  0  0
  185.5290  178.0180  143.8220 C   0  0  2  0  0  3  0  0  0  0  0  0
  187.4690  178.3310  148.8400 C   0  0  0  0  0  3  0  0  0  0  0  0
  188.9550  178.4890  146.4350 C   0  0  2  0  0  3  0  0  0  0  0  0
  189.5740  177.8900  145.2630 N   0  0  0  0  0  0  0  0  0  0  0  0
  186.9430  178.8930  147.7810 N   0  0  0  0  0  0  0  0  0  0  0  0
  190.0520  176.5560  147.0470 N   0  0  0  0  0  0  0  0  0  0  0  0
  189.3110  177.5160  147.4800 C   0  0  0  0  0  0  0  0  0  0  0  0
  190.2140  176.8340  145.6610 C   0  0  0  0  0  3  0  0  0  0  0  0
  187.4120  178.6300  146.4020 C   0  0  2  0  0  3  0  0  0  0  0  0
  188.6220  177.4860  148.7220 N   0  0  0  0  0  2  0  0  0  0  0  0
  190.5210  176.9890  136.9800 C   0  0  0  0  0  2  0  0  0  0  0  0
  191.0590  175.7750  136.2260 C   0  0  0  0  0  2  0  0  0  0  0  0
  190.8300  174.4760  136.9910 C   0  0  2  0  0  3  0  0  0  0  0  0
  191.7630  173.3740  136.5160 C   0  0  0  0  0  1  0  0  0  0  0  0
  189.3630  174.0430  136.9530 C   0  0  0  0  0  2  0  0  0  0  0  0
  188.7100  174.2530  135.6210 C   0  0  0  0  0  0  0  0  0  0  0  0
  189.3490  174.0730  134.5960 O   0  0  0  0  0  0  0  0  0  0  0  0
  187.1330  175.7910  134.7740 O   0  0  0  0  0  1  0  0  0  0  0  0
  187.2700  174.6450  135.5580 C   0  0  1  0  0  3  0  0  0  0  0  0
  186.3970  173.5190  135.0000 C   0  0  1  0  0  3  0  0  0  0  0  0
  187.0530  172.2830  135.0700 O   0  0  0  0  0  1  0  0  0  0  0  0
  185.0420  173.4680  135.7160 C   0  0  2  0  0  3  0  0  0  0  0  0
  184.5720  174.2540  137.9440 O   0  0  0  0  0  1  0  0  0  0  0  0
  184.7690  174.6760  136.6280 C   0  0  2  0  0  3  0  0  0  0  0  0
  183.5480  175.4630  136.1680 C   0  0  0  0  0  2  0  0  0  0  0  0
  181.3280  174.4500  135.7340 C   0  0  0  0  0  1  0  0  0  0  0  0
  181.6600  175.9200  137.5740 O   0  0  0  0  0  1  0  0  0  0  0  0
  182.2820  174.9230  136.8140 C   0  0  2  0  0  3  0  0  0  0  0  0
  184.9590  172.1710  136.5040 C   0  0  0  0  0  2  0  0  0  0  0  0
  183.6110  171.5580  136.3460 C   0  0  0  0  0  0  0  0  0  0  0  0
  182.8020  171.3610  137.4600 O   0  0  0  0  0  1  0  0  0  0  0  0
  183.1840  171.2530  135.2000 O   0  0  0  0  0  0  0  0  0  0  0  0
  194.7710  175.7450  138.5490 O   0  0  0  0  0  0  0  0  0  0  0  0
  195.0710  174.4860  139.1400 C   0  0  0  0  0  2  0  0  0  0  0  0
  196.6540  172.7660  138.3430 C   0  0  0  0  0  2  0  0  0  0  0  0
  195.3130  173.4160  138.0820 C   0  0  2  0  0  3  0  0  0  0  0  0
  196.9350  173.8010  136.3760 C   0  0  1  0  0  3  0  0  0  0  0  0
  197.6180  173.3860  137.5290 O   0  0  0  0  0  0  0  0  0  0  0  0
  195.4870  174.0500  136.7300 C   0  0  0  0  0  2  0  0  0  0  0  0
  197.5430  175.0840  135.8460 C   0  0  0  0  0  2  0  0  0  0  0  0
  197.2840  176.1370  136.7210 O   0  0  0  0  0  1  0  0  0  0  0  0
  1  4  1  0  0  0  0
  2  7  1  0  0  0  0
  3 38  1  6  0  0  0
  3  5  1  0  0  0  0
  4  3  1  0  0  0  0
  4  6  2  0  0  0  0
  5  7  2  0  0  0  0
  6  2  1  0  0  0  0
  7  8  1  0  0  0  0
  8  9  1  0  0  0  0
 10  9  1  0  0  0  0
 11 10  1  0  0  0  0
 12 19  1  1  0  0  0
 13 14  1  0  0  0  0
 13 12  1  0  0  0  0
 14 12  1  0  0  0  0
 14 11  1  1  0  0  0
 15 16  1  6  0  0  0
 15 18  1  0  0  0  0
 15 12  1  0  0  0  0
 17 16  1  6  0  0  0
 17 15  1  0  0  0  0
 17 18  1  0  0  0  0
 19 20  1  0  0  0  0
 23 20  1  6  0  0  0
 23 28  1  0  0  0  0
 23 24  1  0  0  0  0
 24 27  1  0  0  0  0
 25 27  1  1  0  0  0
 25 22  1  0  0  0  0
 26 21  1  6  0  0  0
 26 22  1  0  0  0  0
 26 36  1  0  0  0  0
 28 21  1  1  0  0  0
 28 25  1  0  0  0  0
 30 31  1  6  0  0  0
 30 34  1  0  0  0  0
 31 35  2  0  0  0  0
 32 29  2  0  0  0  0
 33 34  2  0  0  0  0
 34 37  1  0  0  0  0
 35 33  1  0  0  0  0
 36 30  1  0  0  0  0
 36 32  1  1  0  0  0
 37 29  1  0  0  0  0
 39 38  1  0  0  0  0
 39 40  1  0  0  0  0
 40 41  1  6  0  0  0
 42 40  1  0  0  0  0
 43 42  1  0  0  0  0
 44 43  2  0  0  0  0
 46 45  1  6  0  0  0
 46 43  1  0  0  0  0
 47 48  1  1  0  0  0
 47 46  1  0  0  0  0
 47 49  1  0  0  0  0
 49 56  1  1  0  0  0
 49 51  1  0  0  0  0
 51 50  1  1  0  0  0
 52 51  1  0  0  0  0
 52 55  1  0  0  0  0
 55 53  1  6  0  0  0
 55 54  1  0  0  0  0
 57 56  1  0  0  0  0
 57 58  1  0  0  0  0
 59 57  2  0  0  0  0
 60  6  1  0  0  0  0
 60 61  1  0  0  0  0
 63 62  1  0  0  0  0
 63 61  1  1  0  0  0
 64 67  1  1  0  0  0
 64 66  1  0  0  0  0
 64 65  1  0  0  0  0
 65 62  1  0  0  0  0
 66 63  1  0  0  0  0
 67 68  1  0  0  0  0
M  END
>  <MODEL>
8

>  <REMARK>
 VINA RESULT:      -3.6      3.275      9.844
  Name = 
  27 active torsions:
  status: ('A' for Active; 'I' for Inactive)
    1  A    between atoms: C_2  and  C_39
    2  A    between atoms: C_5  and  C_22
    3  A    between atoms: C_5  and  C_42
    4  A    between atoms: C_6  and  C_31
    5  A    between atoms: C_8  and  C_22
    6  A    between atoms: C_8  and  C_59
    7  A    between atoms: C_11  and  C_46
    8  A    between atoms: C_11  and  C_57
    9  A    between atoms: C_15  and  C_63
   10  A    between atoms: C_16  and  C_32
   11  A    between atoms: C_18  and  C_59
   12  A    between atoms: C_21  and  O_66
   13  A    between atoms: C_24  and  C_25
   14  A    between atoms: C_24  and  C_60
   15  A    between atoms: O_26  and  C_53
   16  A    between atoms: O_26  and  C_63
   17  A    between atoms: C_31  and  C_33
   18  A    between atoms: C_33  and  O_66
   19  A    between atoms: O_35  and  C_58
   20  A    between atoms: O_35  and  C_67
   21  A    between atoms: C_39  and  C_65
   22  A    between atoms: N_41  and  C_50
   23  A    between atoms: C_42  and  C_49
   24  A    between atoms: C_45  and  C_49
   25  A    between atoms: C_45  and  C_65
   26  A    between atoms: C_46  and  C_58
   27  A    between atoms: C_60  and  C_65
                            x       y       z     vdW  Elec       q    Type
                         _______ _______ _______ _____ _____    ______ ____

>  <TORSDO>
F 27

$$$$
=
 OpenBabel11042411513D

 68 76  0  0  1  0  0  0  0  0999 V2000
  184.3490  179.3500  142.0850 C   0  0  0  0  0  1  0  0  0  0  0  0
  184.4490  177.3400  138.9200 O   0  0  0  0  0  0  0  0  0  0  0  0
  186.1920  179.0670  140.3050 C   0  0  2  0  0  3  0  0  0  0  0  0
  184.8310  178.6870  140.8410 C   0  0  0  0  0  0  0  0  0  0  0  0
  186.4520  178.5420  138.9640 N   0  0  0  0  0  0  0  0  0  0  0  0
  184.0280  177.8650  140.1510 C   0  0  0  0  0  0  0  0  0  0  0  0
  185.6570  177.7380  138.3340 C   0  0  0  0  0  0  0  0  0  0  0  0
  186.0230  177.3050  137.0600 O   0  0  0  0  0  0  0  0  0  0  0  0
  186.9920  177.9710  136.2630 C   0  0  0  0  0  2  0  0  0  0  0  0
  188.3290  177.2430  136.3680 C   0  0  0  0  0  2  0  0  0  0  0  0
  189.4440  178.1400  136.8880 C   0  0  0  0  0  2  0  0  0  0  0  0
  191.4050  176.8220  137.8070 C   0  0  1  0  0  0  0  0  0  0  0  0
  190.2000  176.1110  137.9010 O   0  0  0  0  0  0  0  0  0  0  0  0
  190.1150  177.5030  138.1030 C   0  0  2  0  0  3  0  0  0  0  0  0
  192.2900  176.5170  139.0250 C   0  0  1  0  0  0  0  0  0  0  0  0
  193.6380  176.8260  138.7920 O   0  0  0  0  0  0  0  0  0  0  0  0
  192.9000  177.7500  139.5510 C   0  0  2  0  0  3  0  0  0  0  0  0
  191.8040  177.1450  140.1780 O   0  0  0  0  0  0  0  0  0  0  0  0
  191.9550  176.7320  136.3800 C   0  0  0  0  0  2  0  0  0  0  0  0
  191.4050  175.6300  135.7200 O   0  0  0  0  0  0  0  0  0  0  0  0
  194.4180  174.6320  134.6870 C   0  0  0  0  0  2  0  0  0  0  0  0
  194.4830  172.3140  134.9710 C   0  0  0  0  0  2  0  0  0  0  0  0
  192.2940  174.5800  135.9670 C   0  0  1  0  0  3  0  0  0  0  0  0
  191.5260  173.3670  136.4550 C   0  0  0  0  0  2  0  0  0  0  0  0
  193.0430  172.6740  134.6530 C   0  0  1  0  0  3  0  0  0  0  0  0
  195.2700  173.5360  135.1480 N   0  0  2  0  0  0  0  0  0  0  0  0
  192.1230  172.1580  135.7430 C   0  0  0  0  0  2  0  0  0  0  0  0
  192.9780  174.1740  134.6750 C   0  0  2  0  0  3  0  0  0  0  0  0
  196.6500  171.6550  137.3520 C   0  0  0  0  0  3  0  0  0  0  0  0
  196.9340  174.4230  136.8300 C   0  0  2  0  0  3  0  0  0  0  0  0
  197.2530  175.5420  135.9580 N   0  0  0  0  0  0  0  0  0  0  0  0
  195.5900  172.4200  137.2830 N   0  0  0  0  0  0  0  0  0  0  0  0
  198.8500  173.9490  135.6400 N   0  0  0  0  0  0  0  0  0  0  0  0
  198.0090  173.4770  136.4940 C   0  0  0  0  0  0  0  0  0  0  0  0
  198.3580  175.2500  135.3440 C   0  0  0  0  0  3  0  0  0  0  0  0
  195.5730  173.7250  136.5840 C   0  0  2  0  0  3  0  0  0  0  0  0
  197.9080  172.0990  136.8270 N   0  0  0  0  0  2  0  0  0  0  0  0
  187.3000  178.6190  141.2590 C   0  0  0  0  0  2  0  0  0  0  0  0
  187.0790  177.1900  141.7490 C   0  0  0  0  0  2  0  0  0  0  0  0
  186.8790  177.1260  143.2590 C   0  0  2  0  0  3  0  0  0  0  0  0
  186.7320  178.5130  143.8640 C   0  0  0  0  0  1  0  0  0  0  0  0
  187.9780  176.3130  143.9460 C   0  0  0  0  0  2  0  0  0  0  0  0
  189.3510  176.5910  143.4150 C   0  0  0  0  0  0  0  0  0  0  0  0
  189.8610  175.8180  142.6170 O   0  0  0  0  0  0  0  0  0  0  0  0
  189.1440  178.8290  144.1340 O   0  0  0  0  0  1  0  0  0  0  0  0
  190.0700  177.8290  143.8370 C   0  0  1  0  0  3  0  0  0  0  0  0
  190.9780  177.5780  145.0430 C   0  0  1  0  0  3  0  0  0  0  0  0
  191.6880  178.7320  145.3950 O   0  0  0  0  0  1  0  0  0  0  0  0
  190.1750  177.0360  146.2320 C   0  0  2  0  0  3  0  0  0  0  0  0
  189.3930  177.8950  148.3430 O   0  0  0  0  0  1  0  0  0  0  0  0
  189.3410  178.1020  146.9630 C   0  0  2  0  0  3  0  0  0  0  0  0
  187.8870  178.0860  146.5100 C   0  0  0  0  0  2  0  0  0  0  0  0
  185.5170  178.2740  147.2110 C   0  0  0  0  0  1  0  0  0  0  0  0
  187.2500  179.2890  148.4850 O   0  0  0  0  0  1  0  0  0  0  0  0
  186.9480  178.1680  147.7030 C   0  0  2  0  0  3  0  0  0  0  0  0
  191.1340  176.3540  147.1930 C   0  0  0  0  0  2  0  0  0  0  0  0
  192.1840  175.6170  146.4370 C   0  0  0  0  0  0  0  0  0  0  0  0
  193.3610  175.2360  147.0710 O   0  0  0  0  0  1  0  0  0  0  0  0
  191.9920  175.3020  145.2310 O   0  0  0  0  0  0  0  0  0  0  0  0
  182.7680  177.5390  140.6600 O   0  0  0  0  0  0  0  0  0  0  0  0
  181.6720  178.4470  140.6400 C   0  0  0  0  0  2  0  0  0  0  0  0
  180.0210  176.6100  140.6170 C   0  0  0  0  0  2  0  0  0  0  0  0
  180.4750  177.8620  139.8990 C   0  0  2  0  0  3  0  0  0  0  0  0
  180.7450  175.8570  138.6350 C   0  0  1  0  0  3  0  0  0  0  0  0
  180.5980  175.4960  139.9830 O   0  0  0  0  0  0  0  0  0  0  0  0
  180.8950  177.3580  138.5460 C   0  0  0  0  0  2  0  0  0  0  0  0
  181.9820  175.2010  138.0540 C   0  0  0  0  0  2  0  0  0  0  0  0
  181.8430  175.0440  136.6760 O   0  0  0  0  0  1  0  0  0  0  0  0
  2  6  1  0  0  0  0
  3  4  1  0  0  0  0
  3 38  1  1  0  0  0
  4  1  1  0  0  0  0
  5  3  1  0  0  0  0
  6 60  1  0  0  0  0
  6  4  2  0  0  0  0
  7  2  1  0  0  0  0
  7  5  2  0  0  0  0
  8  7  1  0  0  0  0
  9 10  1  0  0  0  0
  9  8  1  0  0  0  0
 10 11  1  0  0  0  0
 12 19  1  6  0  0  0
 12 13  1  0  0  0  0
 12 14  1  0  0  0  0
 12 15  1  0  0  0  0
 13 14  1  0  0  0  0
 14 11  1  6  0  0  0
 15 16  1  1  0  0  0
 15 17  1  0  0  0  0
 15 18  1  0  0  0  0
 17 16  1  1  0  0  0
 17 18  1  0  0  0  0
 20 19  1  0  0  0  0
 22 26  1  0  0  0  0
 23 20  1  6  0  0  0
 23 24  1  0  0  0  0
 25 28  1  0  0  0  0
 25 22  1  1  0  0  0
 25 27  1  0  0  0  0
 26 21  1  1  0  0  0
 26 36  1  0  0  0  0
 27 24  1  0  0  0  0
 28 21  1  1  0  0  0
 28 23  1  0  0  0  0
 30 31  1  6  0  0  0
 32 29  2  0  0  0  0
 33 34  2  0  0  0  0
 34 37  1  0  0  0  0
 34 30  1  0  0  0  0
 35 33  1  0  0  0  0
 35 31  2  0  0  0  0
 36 30  1  0  0  0  0
 36 32  1  1  0  0  0
 37 29  1  0  0  0  0
 38 39  1  0  0  0  0
 39 40  1  0  0  0  0
 40 41  1  1  0  0  0
 40 42  1  0  0  0  0
 43 46  1  0  0  0  0
 43 42  1  0  0  0  0
 44 43  2  0  0  0  0
 46 45  1  1  0  0  0
 46 47  1  0  0  0  0
 47 48  1  1  0  0  0
 47 49  1  0  0  0  0
 49 51  1  0  0  0  0
 49 56  1  1  0  0  0
 51 50  1  1  0  0  0
 52 51  1  0  0  0  0
 52 55  1  0  0  0  0
 55 53  1  6  0  0  0
 55 54  1  0  0  0  0
 57 58  1  0  0  0  0
 57 56  1  0  0  0  0
 59 57  2  0  0  0  0
 61 60  1  0  0  0  0
 63 62  1  0  0  0  0
 63 61  1  1  0  0  0
 64 67  1  1  0  0  0
 64 65  1  0  0  0  0
 65 62  1  0  0  0  0
 66 64  1  0  0  0  0
 66 63  1  0  0  0  0
 68 67  1  0  0  0  0
M  END
>  <MODEL>
9

>  <REMARK>
 VINA RESULT:      -3.1      3.337     10.658
  Name = 
  27 active torsions:
  status: ('A' for Active; 'I' for Inactive)
    1  A    between atoms: C_2  and  C_39
    2  A    between atoms: C_5  and  C_22
    3  A    between atoms: C_5  and  C_42
    4  A    between atoms: C_6  and  C_31
    5  A    between atoms: C_8  and  C_22
    6  A    between atoms: C_8  and  C_59
    7  A    between atoms: C_11  and  C_46
    8  A    between atoms: C_11  and  C_57
    9  A    between atoms: C_15  and  C_63
   10  A    between atoms: C_16  and  C_32
   11  A    between atoms: C_18  and  C_59
   12  A    between atoms: C_21  and  O_66
   13  A    between atoms: C_24  and  C_25
   14  A    between atoms: C_24  and  C_60
   15  A    between atoms: O_26  and  C_53
   16  A    between atoms: O_26  and  C_63
   17  A    between atoms: C_31  and  C_33
   18  A    between atoms: C_33  and  O_66
   19  A    between atoms: O_35  and  C_58
   20  A    between atoms: O_35  and  C_67
   21  A    between atoms: C_39  and  C_65
   22  A    between atoms: N_41  and  C_50
   23  A    between atoms: C_42  and  C_49
   24  A    between atoms: C_45  and  C_49
   25  A    between atoms: C_45  and  C_65
   26  A    between atoms: C_46  and  C_58
   27  A    between atoms: C_60  and  C_65
                            x       y       z     vdW  Elec       q    Type
                         _______ _______ _______ _____ _____    ______ ____

>  <TORSDO>
F 27

$$$$
