=
 OpenBabel11032420133D

 36 40  0  0  1  0  0  0  0  0999 V2000
  189.5980  177.5300  140.9690 C   0  0  0  0  0  0  0  0  0  0  0  0
  188.3820  178.0870  140.7040 N   0  0  0  0  0  0  0  0  0  0  0  0
  188.2590  178.0450  139.3660 C   0  0  0  0  0  0  0  0  0  0  0  0
  190.2480  177.1430  139.7850 C   0  0  0  0  0  3  0  0  0  0  0  0
  189.4110  177.3500  137.4080 C   0  0  0  0  0  0  0  0  0  0  0  0
  187.2410  178.3230  137.2790 C   0  0  0  0  0  3  0  0  0  0  0  0
  188.3430  177.7750  136.6750 N   0  0  0  0  0  2  0  0  0  0  0  0
  189.3580  177.4940  138.7880 C   0  0  0  0  0  0  0  0  0  0  0  0
  190.4120  176.8370  136.8410 O   0  0  0  0  0  0  0  0  0  0  0  0
  187.1920  178.4590  138.6370 N   0  0  0  0  0  0  0  0  0  0  0  0
  190.1750  177.3220  142.3190 C   0  0  0  0  0  0  0  0  0  0  0  0
  191.1570  178.1930  144.3680 C   0  0  0  0  0  3  0  0  0  0  0  0
  190.2970  176.0230  142.8350 C   0  0  0  0  0  3  0  0  0  0  0  0
  190.6160  178.4040  143.0980 C   0  0  0  0  0  3  0  0  0  0  0  0
  190.8360  175.8090  144.1080 C   0  0  0  0  0  3  0  0  0  0  0  0
  191.2600  176.8960  144.8780 C   0  0  0  0  0  0  0  0  0  0  0  0
  191.8410  176.6760  146.2290 C   0  0  0  0  0  2  0  0  0  0  0  0
  190.7730  176.4540  147.2020 N   0  0  0  0  0  2  0  0  0  0  0  0
  189.7980  177.5490  147.1690 C   0  0  0  0  0  3  0  0  0  0  0  0
  188.0160  178.4370  148.5240 C   0  0  0  0  0  2  0  0  0  0  0  0
  188.4770  177.1320  146.5310 C   0  0  0  0  0  2  0  0  0  0  0  0
  187.3930  177.4660  147.5420 C   0  0  0  0  0  2  0  0  0  0  0  0
  189.4900  178.0950  148.5550 C   0  0  0  0  0  2  0  0  0  0  0  0
  186.0320  178.7920  140.9760 C   0  0  0  0  0  2  0  0  0  0  0  0
  184.9970  179.2500  142.0010 C   0  0  0  0  0  2  0  0  0  0  0  0
  187.2100  177.4780  142.7790 C   0  0  0  0  0  2  0  0  0  0  0  0
  187.3690  178.5160  141.6680 C   0  0  1  0  0  3  0  0  0  0  0  0
  186.1670  177.9470  143.7880 C   0  0  0  0  0  2  0  0  0  0  0  0
  184.8290  178.1930  143.0890 C   0  0  1  0  0  3  0  0  0  0  0  0
  183.7930  178.6650  144.0960 C   0  0  0  0  0  2  0  0  0  0  0  0
  182.7610  179.4420  143.4280 N   0  0  0  0  0  2  0  0  0  0  0  0
  181.4840  178.8290  143.7630 C   0  0  0  0  0  2  0  0  0  0  0  0
  179.6580  177.8510  142.5910 F   0  0  0  0  0  0  0  0  0  0  0  0
  179.6950  180.2160  142.7080 C   0  0  0  0  0  1  0  0  0  0  0  0
  181.2900  178.9650  141.3040 C   0  0  0  0  0  1  0  0  0  0  0  0
  180.5090  178.9400  142.5990 C   0  0  0  0  0  0  0  0  0  0  0  0
  1 11  1  0  0  0  0
  2  1  1  0  0  0  0
  3  2  1  0  0  0  0
  4  1  2  0  0  0  0
  5  8  1  0  0  0  0
  6 10  2  0  0  0  0
  7  6  1  0  0  0  0
  7  5  1  0  0  0  0
  8  3  2  0  0  0  0
  8  4  1  0  0  0  0
  9  5  2  0  0  0  0
 10  3  1  0  0  0  0
 11 13  2  0  0  0  0
 11 14  1  0  0  0  0
 12 16  1  0  0  0  0
 13 15  1  0  0  0  0
 14 12  2  0  0  0  0
 15 16  2  0  0  0  0
 16 17  1  0  0  0  0
 17 18  1  0  0  0  0
 19 18  1  0  0  0  0
 19 23  1  0  0  0  0
 20 23  1  0  0  0  0
 21 19  1  0  0  0  0
 21 22  1  0  0  0  0
 22 20  1  0  0  0  0
 24 27  1  0  0  0  0
 24 25  1  0  0  0  0
 25 29  1  0  0  0  0
 26 28  1  0  0  0  0
 27  2  1  6  0  0  0
 27 26  1  0  0  0  0
 29 28  1  0  0  0  0
 29 30  1  1  0  0  0
 31 32  1  0  0  0  0
 31 30  1  0  0  0  0
 33 36  1  0  0  0  0
 35 36  1  0  0  0  0
 36 34  1  0  0  0  0
 36 32  1  0  0  0  0
M  END
>  <MODEL>
1

>  <REMARK>
 VINA RESULT:      -9.5      0.000      0.000
  Name = 
  9 active torsions:
  status: ('A' for Active; 'I' for Inactive)
    1  A    between atoms: C_1  and  C_3
    2  A    between atoms: N_2  and  C_20
    3  A    between atoms: N_4  and  C_10
    4  A    between atoms: N_4  and  C_15
    5  A    between atoms: C_8  and  N_27
    6  A    between atoms: C_8  and  C_33
    7  A    between atoms: C_10  and  C_34
    8  A    between atoms: C_24  and  N_27
    9  A    between atoms: C_24  and  C_36
                            x       y       z     vdW  Elec       q    Type
                         _______ _______ _______ _____ _____    ______ ____

>  <TORSDO>
F 9

$$$$
=
 OpenBabel11032420133D

 36 40  0  0  1  0  0  0  0  0999 V2000
  186.5380  178.0100  144.8470 C   0  0  0  0  0  0  0  0  0  0  0  0
  187.7330  177.7140  144.2610 N   0  0  0  0  0  0  0  0  0  0  0  0
  188.5870  177.5200  145.2800 C   0  0  0  0  0  0  0  0  0  0  0  0
  186.6450  178.0100  146.2470 C   0  0  0  0  0  3  0  0  0  0  0  0
  188.6880  177.5220  147.6550 C   0  0  0  0  0  0  0  0  0  0  0  0
  190.6060  177.0010  146.3400 C   0  0  0  0  0  3  0  0  0  0  0  0
  190.0050  177.1790  147.5600 N   0  0  0  0  0  0  0  0  0  0  0  0
  187.9700  177.6960  146.4790 C   0  0  0  0  0  0  0  0  0  0  0  0
  188.1460  177.6710  148.7800 O   0  0  0  0  0  0  0  0  0  0  0  0
  189.8940  177.1690  145.1870 N   0  0  0  0  0  2  0  0  0  0  0  0
  185.2680  178.2750  144.1270 C   0  0  0  0  0  0  0  0  0  0  0  0
  183.9560  178.3220  142.0780 C   0  0  0  0  0  3  0  0  0  0  0  0
  184.1510  178.7510  144.8310 C   0  0  0  0  0  3  0  0  0  0  0  0
  185.1580  178.0700  142.7430 C   0  0  0  0  0  3  0  0  0  0  0  0
  182.9460  179.0030  144.1690 C   0  0  0  0  0  3  0  0  0  0  0  0
  182.8460  178.7820  142.7920 C   0  0  0  0  0  0  0  0  0  0  0  0
  181.5690  179.0560  142.0800 C   0  0  0  0  0  2  0  0  0  0  0  0
  181.2070  177.9100  141.2470 N   0  0  0  0  0  2  0  0  0  0  0  0
  181.1430  178.2900  139.8320 C   0  0  0  0  0  3  0  0  0  0  0  0
  182.6290  178.5850  137.9600 C   0  0  0  0  0  2  0  0  0  0  0  0
  181.3340  179.7880  139.6220 C   0  0  0  0  0  2  0  0  0  0  0  0
  182.4730  179.9350  138.6280 C   0  0  0  0  0  2  0  0  0  0  0  0
  182.1830  177.5690  138.9890 C   0  0  0  0  0  2  0  0  0  0  0  0
  188.2500  178.8540  142.1320 C   0  0  0  0  0  2  0  0  0  0  0  0
  188.5170  178.6220  140.6480 C   0  0  0  0  0  2  0  0  0  0  0  0
  189.1850  176.5660  142.6410 C   0  0  0  0  0  2  0  0  0  0  0  0
  188.0040  177.5180  142.8370 C   0  0  1  0  0  3  0  0  0  0  0  0
  189.4440  176.3530  141.1540 C   0  0  0  0  0  2  0  0  0  0  0  0
  189.7140  177.6920  140.4670 C   0  0  1  0  0  3  0  0  0  0  0  0
  189.9680  177.4770  138.9840 C   0  0  0  0  0  2  0  0  0  0  0  0
  189.2340  178.4590  138.2020 N   0  0  0  0  0  2  0  0  0  0  0  0
  188.7270  177.7710  137.0240 C   0  0  0  0  0  2  0  0  0  0  0  0
  187.3610  179.6420  136.4750 F   0  0  0  0  0  0  0  0  0  0  0  0
  186.8430  177.5990  135.3940 C   0  0  0  0  0  1  0  0  0  0  0  0
  186.3850  177.9460  137.7920 C   0  0  0  0  0  1  0  0  0  0  0  0
  187.3360  178.2730  136.6610 C   0  0  0  0  0  0  0  0  0  0  0  0
  1  4  2  0  0  0  0
  2  1  1  0  0  0  0
  2  3  1  0  0  0  0
  3  8  2  0  0  0  0
  4  8  1  0  0  0  0
  5  9  2  0  0  0  0
  6  7  2  0  0  0  0
  7  5  1  0  0  0  0
  8  5  1  0  0  0  0
 10  3  1  0  0  0  0
 10  6  1  0  0  0  0
 11 13  1  0  0  0  0
 11  1  1  0  0  0  0
 12 14  1  0  0  0  0
 12 16  2  0  0  0  0
 14 11  2  0  0  0  0
 15 13  2  0  0  0  0
 16 15  1  0  0  0  0
 17 16  1  0  0  0  0
 18 17  1  0  0  0  0
 19 18  1  0  0  0  0
 20 22  1  0  0  0  0
 20 23  1  0  0  0  0
 21 19  1  0  0  0  0
 22 21  1  0  0  0  0
 23 19  1  0  0  0  0
 25 24  1  0  0  0  0
 26 27  1  0  0  0  0
 27 24  1  1  0  0  0
 27  2  1  0  0  0  0
 28 26  1  0  0  0  0
 29 30  1  6  0  0  0
 29 25  1  0  0  0  0
 29 28  1  0  0  0  0
 31 30  1  0  0  0  0
 32 31  1  0  0  0  0
 33 36  1  0  0  0  0
 34 36  1  0  0  0  0
 36 32  1  0  0  0  0
 36 35  1  0  0  0  0
M  END
>  <MODEL>
2

>  <REMARK>
 VINA RESULT:      -9.2      3.115      8.439
  Name = 
  9 active torsions:
  status: ('A' for Active; 'I' for Inactive)
    1  A    between atoms: C_1  and  C_3
    2  A    between atoms: N_2  and  C_20
    3  A    between atoms: N_4  and  C_10
    4  A    between atoms: N_4  and  C_15
    5  A    between atoms: C_8  and  N_27
    6  A    between atoms: C_8  and  C_33
    7  A    between atoms: C_10  and  C_34
    8  A    between atoms: C_24  and  N_27
    9  A    between atoms: C_24  and  C_36
                            x       y       z     vdW  Elec       q    Type
                         _______ _______ _______ _____ _____    ______ ____

>  <TORSDO>
F 9

$$$$
=
 OpenBabel11032420133D

 36 40  0  0  1  0  0  0  0  0999 V2000
  183.0250  178.7410  143.0420 C   0  0  0  0  0  0  0  0  0  0  0  0
  182.7810  178.5540  141.7140 N   0  0  0  0  0  0  0  0  0  0  0  0
  181.5020  178.9240  141.5350 C   0  0  0  0  0  0  0  0  0  0  0  0
  181.8860  179.2250  143.7050 C   0  0  0  0  0  3  0  0  0  0  0  0
  179.6190  179.7600  142.7200 C   0  0  0  0  0  0  0  0  0  0  0  0
  179.5210  179.3670  140.3710 C   0  0  0  0  0  3  0  0  0  0  0  0
  178.9310  179.7690  141.5420 N   0  0  0  0  0  0  0  0  0  0  0  0
  180.9380  179.3240  142.7050 C   0  0  0  0  0  0  0  0  0  0  0  0
  179.0680  180.1430  143.7850 O   0  0  0  0  0  0  0  0  0  0  0  0
  180.8200  178.9430  140.3620 N   0  0  0  0  0  2  0  0  0  0  0  0
  184.3220  178.5000  143.7220 C   0  0  0  0  0  0  0  0  0  0  0  0
  186.6290  177.7260  143.6860 C   0  0  0  0  0  3  0  0  0  0  0  0
  184.4670  178.8130  145.0820 C   0  0  0  0  0  3  0  0  0  0  0  0
  185.4140  177.9470  143.0330 C   0  0  0  0  0  3  0  0  0  0  0  0
  185.6830  178.5950  145.7370 C   0  0  0  0  0  3  0  0  0  0  0  0
  186.7670  178.0570  145.0370 C   0  0  0  0  0  0  0  0  0  0  0  0
  188.0610  177.8140  145.7300 C   0  0  0  0  0  2  0  0  0  0  0  0
  188.7990  176.7530  145.0480 N   0  0  0  0  0  2  0  0  0  0  0  0
  190.2030  177.1310  144.8570 C   0  0  0  0  0  3  0  0  0  0  0  0
  191.5010  178.7450  143.6270 C   0  0  0  0  0  2  0  0  0  0  0  0
  190.8440  176.4090  143.6760 C   0  0  0  0  0  2  0  0  0  0  0  0
  191.4200  177.4920  142.7790 C   0  0  0  0  0  2  0  0  0  0  0  0
  190.3790  178.6250  144.6360 C   0  0  0  0  0  2  0  0  0  0  0  0
  183.1510  177.0810  139.7670 C   0  0  0  0  0  2  0  0  0  0  0  0
  184.1710  176.6820  138.7040 C   0  0  0  0  0  2  0  0  0  0  0  0
  184.1810  179.3820  139.8690 C   0  0  0  0  0  2  0  0  0  0  0  0
  183.7370  178.1630  140.6770 C   0  0  1  0  0  3  0  0  0  0  0  0
  185.1920  178.9650  138.8060 C   0  0  0  0  0  2  0  0  0  0  0  0
  184.5860  177.9030  137.8870 C   0  0  1  0  0  3  0  0  0  0  0  0
  185.5970  177.4860  136.8320 C   0  0  0  0  0  2  0  0  0  0  0  0
  186.8510  178.1930  137.0310 N   0  0  0  0  0  2  0  0  0  0  0  0
  187.8140  177.2190  137.5250 C   0  0  0  0  0  2  0  0  0  0  0  0
  189.0550  179.2130  137.9170 F   0  0  0  0  0  0  0  0  0  0  0  0
  188.5770  177.8740  139.8110 C   0  0  0  0  0  1  0  0  0  0  0  0
  190.2140  177.1670  138.1080 C   0  0  0  0  0  1  0  0  0  0  0  0
  188.9100  177.9020  138.3310 C   0  0  0  0  0  0  0  0  0  0  0  0
  1  4  2  0  0  0  0
  1 11  1  0  0  0  0
  2  1  1  0  0  0  0
  3  2  1  0  0  0  0
  3  8  2  0  0  0  0
  5  9  2  0  0  0  0
  6  7  2  0  0  0  0
  7  5  1  0  0  0  0
  8  5  1  0  0  0  0
  8  4  1  0  0  0  0
 10  6  1  0  0  0  0
 10  3  1  0  0  0  0
 11 13  1  0  0  0  0
 12 16  2  0  0  0  0
 13 15  2  0  0  0  0
 14 12  1  0  0  0  0
 14 11  2  0  0  0  0
 16 17  1  0  0  0  0
 16 15  1  0  0  0  0
 18 17  1  0  0  0  0
 19 18  1  0  0  0  0
 20 23  1  0  0  0  0
 21 19  1  0  0  0  0
 22 20  1  0  0  0  0
 22 21  1  0  0  0  0
 23 19  1  0  0  0  0
 25 24  1  0  0  0  0
 26 27  1  0  0  0  0
 27 24  1  6  0  0  0
 27  2  1  0  0  0  0
 28 26  1  0  0  0  0
 29 30  1  6  0  0  0
 29 25  1  0  0  0  0
 29 28  1  0  0  0  0
 30 31  1  0  0  0  0
 31 32  1  0  0  0  0
 32 36  1  0  0  0  0
 33 36  1  0  0  0  0
 35 36  1  0  0  0  0
 36 34  1  0  0  0  0
M  END
>  <MODEL>
3

>  <REMARK>
 VINA RESULT:      -9.1      3.420      7.253
  Name = 
  9 active torsions:
  status: ('A' for Active; 'I' for Inactive)
    1  A    between atoms: C_1  and  C_3
    2  A    between atoms: N_2  and  C_20
    3  A    between atoms: N_4  and  C_10
    4  A    between atoms: N_4  and  C_15
    5  A    between atoms: C_8  and  N_27
    6  A    between atoms: C_8  and  C_33
    7  A    between atoms: C_10  and  C_34
    8  A    between atoms: C_24  and  N_27
    9  A    between atoms: C_24  and  C_36
                            x       y       z     vdW  Elec       q    Type
                         _______ _______ _______ _____ _____    ______ ____

>  <TORSDO>
F 9

$$$$
=
 OpenBabel11032420133D

 36 40  0  0  1  0  0  0  0  0999 V2000
  189.4890  177.3450  139.5080 C   0  0  0  0  0  0  0  0  0  0  0  0
  189.2820  177.7100  140.8040 N   0  0  0  0  0  0  0  0  0  0  0  0
  188.0330  178.2050  140.8370 C   0  0  0  0  0  0  0  0  0  0  0  0
  188.3620  177.6230  138.7160 C   0  0  0  0  0  3  0  0  0  0  0  0
  186.1590  178.6300  139.4400 C   0  0  0  0  0  0  0  0  0  0  0  0
  186.0930  179.1200  141.7710 C   0  0  0  0  0  3  0  0  0  0  0  0
  185.4980  179.1020  140.5360 N   0  0  0  0  0  2  0  0  0  0  0  0
  187.4600  178.1730  139.6060 C   0  0  0  0  0  0  0  0  0  0  0  0
  185.5960  178.6080  138.3150 O   0  0  0  0  0  0  0  0  0  0  0  0
  187.3720  178.6650  141.9290 N   0  0  0  0  0  0  0  0  0  0  0  0
  190.7210  176.7120  138.9760 C   0  0  0  0  0  0  0  0  0  0  0  0
  191.8290  174.9860  137.6670 C   0  0  0  0  0  3  0  0  0  0  0  0
  191.9780  177.2480  139.2990 C   0  0  0  0  0  3  0  0  0  0  0  0
  190.6610  175.5710  138.1610 C   0  0  0  0  0  3  0  0  0  0  0  0
  193.1490  176.6660  138.8040 C   0  0  0  0  0  3  0  0  0  0  0  0
  193.0740  175.5370  137.9820 C   0  0  0  0  0  0  0  0  0  0  0  0
  194.3160  174.9070  137.4590 C   0  0  0  0  0  2  0  0  0  0  0  0
  195.3940  175.0440  138.4360 N   0  0  0  0  0  2  0  0  0  0  0  0
  196.1060  173.7750  138.6150 C   0  0  0  0  0  3  0  0  0  0  0  0
  197.4160  172.2270  137.3160 C   0  0  0  0  0  2  0  0  0  0  0  0
  195.2270  172.5670  138.3060 C   0  0  0  0  0  2  0  0  0  0  0  0
  195.9800  171.7500  137.2690 C   0  0  0  0  0  2  0  0  0  0  0  0
  197.3480  173.6770  137.7430 C   0  0  0  0  0  2  0  0  0  0  0  0
  189.9520  178.5500  143.0280 C   0  0  0  0  0  2  0  0  0  0  0  0
  190.8990  178.3050  144.1990 C   0  0  0  0  0  2  0  0  0  0  0  0
  189.9840  176.0810  142.5090 C   0  0  0  0  0  2  0  0  0  0  0  0
  190.1710  177.4900  141.9460 C   0  0  1  0  0  3  0  0  0  0  0  0
  190.9310  175.8570  143.6840 C   0  0  0  0  0  2  0  0  0  0  0  0
  190.6830  176.9060  144.7690 C   0  0  1  0  0  3  0  0  0  0  0  0
  191.6310  176.6830  145.9360 C   0  0  0  0  0  2  0  0  0  0  0  0
  190.9560  176.9680  147.1920 N   0  0  0  0  0  2  0  0  0  0  0  0
  189.6320  176.3700  147.1080 C   0  0  0  0  0  2  0  0  0  0  0  0
  187.8220  176.5630  148.6430 F   0  0  0  0  0  0  0  0  0  0  0  0
  189.2520  178.4420  148.4500 C   0  0  0  0  0  1  0  0  0  0  0  0
  187.6840  177.8190  146.6510 C   0  0  0  0  0  1  0  0  0  0  0  0
  188.5860  177.2780  147.7400 C   0  0  0  0  0  0  0  0  0  0  0  0
  1  2  1  0  0  0  0
  2  3  1  0  0  0  0
  3 10  1  0  0  0  0
  4  1  2  0  0  0  0
  4  8  1  0  0  0  0
  5  8  1  0  0  0  0
  5  7  1  0  0  0  0
  6 10  2  0  0  0  0
  7  6  1  0  0  0  0
  8  3  2  0  0  0  0
  9  5  2  0  0  0  0
 11 13  1  0  0  0  0
 11  1  1  0  0  0  0
 12 16  2  0  0  0  0
 12 14  1  0  0  0  0
 14 11  2  0  0  0  0
 15 13  2  0  0  0  0
 16 15  1  0  0  0  0
 17 16  1  0  0  0  0
 17 18  1  0  0  0  0
 18 19  1  0  0  0  0
 20 23  1  0  0  0  0
 21 19  1  0  0  0  0
 22 20  1  0  0  0  0
 22 21  1  0  0  0  0
 23 19  1  0  0  0  0
 24 25  1  0  0  0  0
 25 29  1  0  0  0  0
 26 28  1  0  0  0  0
 27  2  1  6  0  0  0
 27 26  1  0  0  0  0
 27 24  1  0  0  0  0
 28 29  1  0  0  0  0
 29 30  1  1  0  0  0
 30 31  1  0  0  0  0
 32 31  1  0  0  0  0
 32 36  1  0  0  0  0
 35 36  1  0  0  0  0
 36 34  1  0  0  0  0
 36 33  1  0  0  0  0
M  END
>  <MODEL>
4

>  <REMARK>
 VINA RESULT:      -9.1      4.081      7.842
  Name = 
  9 active torsions:
  status: ('A' for Active; 'I' for Inactive)
    1  A    between atoms: C_1  and  C_3
    2  A    between atoms: N_2  and  C_20
    3  A    between atoms: N_4  and  C_10
    4  A    between atoms: N_4  and  C_15
    5  A    between atoms: C_8  and  N_27
    6  A    between atoms: C_8  and  C_33
    7  A    between atoms: C_10  and  C_34
    8  A    between atoms: C_24  and  N_27
    9  A    between atoms: C_24  and  C_36
                            x       y       z     vdW  Elec       q    Type
                         _______ _______ _______ _____ _____    ______ ____

>  <TORSDO>
F 9

$$$$
=
 OpenBabel11032420133D

 36 40  0  0  1  0  0  0  0  0999 V2000
  187.6790  177.9350  140.5690 C   0  0  0  0  0  0  0  0  0  0  0  0
  188.8760  177.5120  141.0650 N   0  0  0  0  0  0  0  0  0  0  0  0
  189.6550  177.3150  139.9880 C   0  0  0  0  0  0  0  0  0  0  0  0
  187.7040  177.9970  139.1660 C   0  0  0  0  0  3  0  0  0  0  0  0
  189.6280  177.4600  137.6160 C   0  0  0  0  0  0  0  0  0  0  0  0
  191.5920  176.7890  138.7870 C   0  0  0  0  0  3  0  0  0  0  0  0
  190.9310  177.0550  137.6150 N   0  0  0  0  0  2  0  0  0  0  0  0
  188.9830  177.5900  138.8390 C   0  0  0  0  0  0  0  0  0  0  0  0
  189.0370  177.7120  136.5340 O   0  0  0  0  0  0  0  0  0  0  0  0
  190.9530  176.9210  139.9870 N   0  0  0  0  0  0  0  0  0  0  0  0
  186.4960  178.3150  141.3790 C   0  0  0  0  0  0  0  0  0  0  0  0
  185.3970  178.5990  143.5320 C   0  0  0  0  0  3  0  0  0  0  0  0
  185.3220  178.7480  140.7440 C   0  0  0  0  0  3  0  0  0  0  0  0
  186.5180  178.2380  142.7810 C   0  0  0  0  0  3  0  0  0  0  0  0
  184.1990  179.1130  141.4930 C   0  0  0  0  0  3  0  0  0  0  0  0
  184.2390  179.0450  142.8890 C   0  0  0  0  0  0  0  0  0  0  0  0
  183.0450  179.4220  143.6920 C   0  0  0  0  0  2  0  0  0  0  0  0
  182.2020  178.2490  143.9150 N   0  0  0  0  0  2  0  0  0  0  0  0
  180.8870  178.4210  143.2910 C   0  0  0  0  0  3  0  0  0  0  0  0
  179.3760  180.1990  142.6940 C   0  0  0  0  0  2  0  0  0  0  0  0
  179.7550  178.4310  144.3130 C   0  0  0  0  0  2  0  0  0  0  0  0
  178.9800  179.7170  144.0750 C   0  0  0  0  0  2  0  0  0  0  0  0
  180.7900  179.7050  142.4810 C   0  0  0  0  0  2  0  0  0  0  0  0
  189.9780  176.0880  142.7540 C   0  0  0  0  0  2  0  0  0  0  0  0
  190.3740  176.0090  144.2260 C   0  0  0  0  0  2  0  0  0  0  0  0
  190.1620  178.6020  142.8560 C   0  0  0  0  0  2  0  0  0  0  0  0
  189.2760  177.4170  142.4690 C   0  0  1  0  0  3  0  0  0  0  0  0
  190.5560  178.5030  144.3260 C   0  0  0  0  0  2  0  0  0  0  0  0
  191.2790  177.1820  144.5910 C   0  0  1  0  0  3  0  0  0  0  0  0
  191.6670  177.0840  146.0580 C   0  0  0  0  0  2  0  0  0  0  0  0
  190.6100  176.4320  146.8140 N   0  0  0  0  0  2  0  0  0  0  0  0
  190.0530  177.4300  147.7150 C   0  0  0  0  0  2  0  0  0  0  0  0
  188.1750  176.0150  148.0850 F   0  0  0  0  0  0  0  0  0  0  0  0
  187.9790  178.2530  148.8360 C   0  0  0  0  0  1  0  0  0  0  0  0
  187.9550  177.6870  146.4360 C   0  0  0  0  0  1  0  0  0  0  0  0
  188.5370  177.3140  147.7830 C   0  0  0  0  0  0  0  0  0  0  0  0
  1  2  1  0  0  0  0
  1 11  1  0  0  0  0
  3  2  1  0  0  0  0
  4  1  2  0  0  0  0
  5  8  1  0  0  0  0
  6 10  2  0  0  0  0
  7  5  1  0  0  0  0
  7  6  1  0  0  0  0
  8  4  1  0  0  0  0
  8  3  2  0  0  0  0
  9  5  2  0  0  0  0
 10  3  1  0  0  0  0
 11 14  1  0  0  0  0
 13 11  2  0  0  0  0
 13 15  1  0  0  0  0
 14 12  2  0  0  0  0
 15 16  2  0  0  0  0
 16 12  1  0  0  0  0
 16 17  1  0  0  0  0
 17 18  1  0  0  0  0
 19 18  1  0  0  0  0
 19 21  1  0  0  0  0
 20 22  1  0  0  0  0
 22 21  1  0  0  0  0
 23 20  1  0  0  0  0
 23 19  1  0  0  0  0
 24 25  1  0  0  0  0
 25 29  1  0  0  0  0
 26 28  1  0  0  0  0
 27  2  1  6  0  0  0
 27 24  1  0  0  0  0
 27 26  1  0  0  0  0
 28 29  1  0  0  0  0
 29 30  1  1  0  0  0
 30 31  1  0  0  0  0
 31 32  1  0  0  0  0
 32 36  1  0  0  0  0
 35 36  1  0  0  0  0
 36 33  1  0  0  0  0
 36 34  1  0  0  0  0
M  END
>  <MODEL>
5

>  <REMARK>
 VINA RESULT:      -8.8      2.059      6.946
  Name = 
  9 active torsions:
  status: ('A' for Active; 'I' for Inactive)
    1  A    between atoms: C_1  and  C_3
    2  A    between atoms: N_2  and  C_20
    3  A    between atoms: N_4  and  C_10
    4  A    between atoms: N_4  and  C_15
    5  A    between atoms: C_8  and  N_27
    6  A    between atoms: C_8  and  C_33
    7  A    between atoms: C_10  and  C_34
    8  A    between atoms: C_24  and  N_27
    9  A    between atoms: C_24  and  C_36
                            x       y       z     vdW  Elec       q    Type
                         _______ _______ _______ _____ _____    ______ ____

>  <TORSDO>
F 9

$$$$
=
 OpenBabel11032420133D

 36 40  0  0  1  0  0  0  0  0999 V2000
  186.4680  178.0510  144.9550 C   0  0  0  0  0  0  0  0  0  0  0  0
  187.6760  177.7400  144.4070 N   0  0  0  0  0  0  0  0  0  0  0  0
  188.5070  177.5800  145.4510 C   0  0  0  0  0  0  0  0  0  0  0  0
  186.5420  178.0950  146.3570 C   0  0  0  0  0  3  0  0  0  0  0  0
  188.5530  177.6570  147.8250 C   0  0  0  0  0  0  0  0  0  0  0  0
  190.5020  177.1000  146.5730 C   0  0  0  0  0  3  0  0  0  0  0  0
  189.8730  177.3150  147.7720 N   0  0  0  0  0  0  0  0  0  0  0  0
  187.8630  177.7920  146.6280 C   0  0  0  0  0  0  0  0  0  0  0  0
  187.9850  177.8400  148.9330 O   0  0  0  0  0  0  0  0  0  0  0  0
  189.8170  177.2300  145.3980 N   0  0  0  0  0  2  0  0  0  0  0  0
  185.2140  178.2890  144.1990 C   0  0  0  0  0  0  0  0  0  0  0  0
  183.9430  178.2490  142.1240 C   0  0  0  0  0  3  0  0  0  0  0  0
  184.0880  178.8060  144.8570 C   0  0  0  0  0  3  0  0  0  0  0  0
  185.1300  178.0200  142.8230 C   0  0  0  0  0  3  0  0  0  0  0  0
  182.8970  179.0340  144.1600 C   0  0  0  0  0  3  0  0  0  0  0  0
  182.8230  178.7490  142.7930 C   0  0  0  0  0  0  0  0  0  0  0  0
  181.5620  178.9970  142.0430 C   0  0  0  0  0  2  0  0  0  0  0  0
  181.8240  178.9680  140.6050 N   0  0  0  0  0  2  0  0  0  0  0  0
  180.9070  178.0480  139.9240 C   0  0  0  0  0  3  0  0  0  0  0  0
  179.7490  175.9820  140.3580 C   0  0  0  0  0  2  0  0  0  0  0  0
  181.6430  176.9380  139.1810 C   0  0  0  0  0  2  0  0  0  0  0  0
  181.0620  175.6290  139.6900 C   0  0  0  0  0  2  0  0  0  0  0  0
  179.9240  177.3910  140.8800 C   0  0  0  0  0  2  0  0  0  0  0  0
  188.2330  178.8140  142.2540 C   0  0  0  0  0  2  0  0  0  0  0  0
  188.5350  178.5360  140.7840 C   0  0  0  0  0  2  0  0  0  0  0  0
  189.1720  176.5510  142.8580 C   0  0  0  0  0  2  0  0  0  0  0  0
  187.9800  177.4990  142.9960 C   0  0  1  0  0  3  0  0  0  0  0  0
  189.4660  176.2910  141.3840 C   0  0  0  0  0  2  0  0  0  0  0  0
  189.7420  177.6100  140.6600 C   0  0  1  0  0  3  0  0  0  0  0  0
  190.0310  177.3490  139.1910 C   0  0  0  0  0  2  0  0  0  0  0  0
  190.5640  176.0090  139.0140 N   0  0  0  0  0  2  0  0  0  0  0  0
  190.1680  175.5650  137.6860 C   0  0  0  0  0  2  0  0  0  0  0  0
  192.2040  174.3650  137.9730 F   0  0  0  0  0  0  0  0  0  0  0  0
  190.7260  173.5590  136.3060 C   0  0  0  0  0  1  0  0  0  0  0  0
  191.9840  175.6600  136.0140 C   0  0  0  0  0  1  0  0  0  0  0  0
  191.2870  174.7730  137.0230 C   0  0  0  0  0  0  0  0  0  0  0  0
  1  4  2  0  0  0  0
  2  1  1  0  0  0  0
  2  3  1  0  0  0  0
  3  8  2  0  0  0  0
  4  8  1  0  0  0  0
  5  9  2  0  0  0  0
  6  7  2  0  0  0  0
  7  5  1  0  0  0  0
  8  5  1  0  0  0  0
 10  3  1  0  0  0  0
 10  6  1  0  0  0  0
 11 13  1  0  0  0  0
 11  1  1  0  0  0  0
 12 16  2  0  0  0  0
 12 14  1  0  0  0  0
 14 11  2  0  0  0  0
 15 13  2  0  0  0  0
 16 15  1  0  0  0  0
 17 16  1  0  0  0  0
 18 17  1  0  0  0  0
 19 18  1  0  0  0  0
 19 23  1  0  0  0  0
 20 23  1  0  0  0  0
 21 22  1  0  0  0  0
 21 19  1  0  0  0  0
 22 20  1  0  0  0  0
 25 24  1  0  0  0  0
 26 27  1  0  0  0  0
 27 24  1  1  0  0  0
 27  2  1  0  0  0  0
 28 26  1  0  0  0  0
 29 30  1  6  0  0  0
 29 25  1  0  0  0  0
 29 28  1  0  0  0  0
 31 30  1  0  0  0  0
 32 31  1  0  0  0  0
 34 36  1  0  0  0  0
 35 36  1  0  0  0  0
 36 32  1  0  0  0  0
 36 33  1  0  0  0  0
M  END
>  <MODEL>
6

>  <REMARK>
 VINA RESULT:      -8.7      3.709      9.162
  Name = 
  9 active torsions:
  status: ('A' for Active; 'I' for Inactive)
    1  A    between atoms: C_1  and  C_3
    2  A    between atoms: N_2  and  C_20
    3  A    between atoms: N_4  and  C_10
    4  A    between atoms: N_4  and  C_15
    5  A    between atoms: C_8  and  N_27
    6  A    between atoms: C_8  and  C_33
    7  A    between atoms: C_10  and  C_34
    8  A    between atoms: C_24  and  N_27
    9  A    between atoms: C_24  and  C_36
                            x       y       z     vdW  Elec       q    Type
                         _______ _______ _______ _____ _____    ______ ____

>  <TORSDO>
F 9

$$$$
=
 OpenBabel11032420133D

 36 40  0  0  1  0  0  0  0  0999 V2000
  188.7380  177.6150  143.9480 C   0  0  0  0  0  0  0  0  0  0  0  0
  187.6060  177.9820  144.6130 N   0  0  0  0  0  0  0  0  0  0  0  0
  187.8950  177.8250  145.9160 C   0  0  0  0  0  0  0  0  0  0  0  0
  189.7450  177.2150  144.8430 C   0  0  0  0  0  3  0  0  0  0  0  0
  189.6510  177.1510  147.3680 C   0  0  0  0  0  0  0  0  0  0  0  0
  187.5560  177.8900  148.2290 C   0  0  0  0  0  3  0  0  0  0  0  0
  188.8280  177.4180  148.4240 N   0  0  0  0  0  0  0  0  0  0  0  0
  189.1610  177.3620  146.0860 C   0  0  0  0  0  0  0  0  0  0  0  0
  190.8210  176.7300  147.5610 O   0  0  0  0  0  0  0  0  0  0  0  0
  187.0800  178.1000  146.9660 N   0  0  0  0  0  2  0  0  0  0  0  0
  188.9220  177.6480  142.4770 C   0  0  0  0  0  0  0  0  0  0  0  0
  189.9230  176.7690  140.4400 C   0  0  0  0  0  3  0  0  0  0  0  0
  188.2640  178.6220  141.7110 C   0  0  0  0  0  3  0  0  0  0  0  0
  189.7590  176.7270  141.8260 C   0  0  0  0  0  3  0  0  0  0  0  0
  188.4240  178.6660  140.3230 C   0  0  0  0  0  3  0  0  0  0  0  0
  189.2490  177.7340  139.6850 C   0  0  0  0  0  0  0  0  0  0  0  0
  189.4310  177.7790  138.2100 C   0  0  0  0  0  2  0  0  0  0  0  0
  188.5790  178.8180  137.6340 N   0  0  0  0  0  2  0  0  0  0  0  0
  187.4910  178.2290  136.8480 C   0  0  0  0  0  3  0  0  0  0  0  0
  185.4730  176.9610  137.1990 C   0  0  0  0  0  2  0  0  0  0  0  0
  187.7750  176.7840  136.4530 C   0  0  0  0  0  2  0  0  0  0  0  0
  186.5880  175.9690  136.9390 C   0  0  0  0  0  2  0  0  0  0  0  0
  186.1610  178.2530  137.5850 C   0  0  0  0  0  2  0  0  0  0  0  0
  185.6740  177.5420  143.1400 C   0  0  0  0  0  2  0  0  0  0  0  0
  184.4100  178.1640  142.5520 C   0  0  0  0  0  2  0  0  0  0  0  0
  185.4550  179.0430  145.1560 C   0  0  0  0  0  2  0  0  0  0  0  0
  186.3840  178.5510  144.0460 C   0  0  1  0  0  3  0  0  0  0  0  0
  184.1940  179.6530  144.5520 C   0  0  0  0  0  2  0  0  0  0  0  0
  183.4810  178.6260  143.6710 C   0  0  1  0  0  3  0  0  0  0  0  0
  182.2270  179.2380  143.0660 C   0  0  0  0  0  2  0  0  0  0  0  0
  181.7770  178.4450  141.9340 N   0  0  0  0  0  2  0  0  0  0  0  0
  181.4410  179.3770  140.8690 C   0  0  0  0  0  2  0  0  0  0  0  0
  183.5330  179.7460  139.7940 F   0  0  0  0  0  0  0  0  0  0  0  0
  182.5090  177.6420  139.4240 C   0  0  0  0  0  1  0  0  0  0  0  0
  181.6110  179.7110  138.4270 C   0  0  0  0  0  1  0  0  0  0  0  0
  182.3050  179.1300  139.6400 C   0  0  0  0  0  0  0  0  0  0  0  0
  1  2  1  0  0  0  0
  1  4  2  0  0  0  0
  2  3  1  0  0  0  0
  3  8  2  0  0  0  0
  3 10  1  0  0  0  0
  4  8  1  0  0  0  0
  5  9  2  0  0  0  0
  5  7  1  0  0  0  0
  6  7  2  0  0  0  0
  8  5  1  0  0  0  0
 10  6  1  0  0  0  0
 11  1  1  0  0  0  0
 12 14  2  0  0  0  0
 13 11  2  0  0  0  0
 14 11  1  0  0  0  0
 15 13  1  0  0  0  0
 16 15  2  0  0  0  0
 16 12  1  0  0  0  0
 17 16  1  0  0  0  0
 18 17  1  0  0  0  0
 19 23  1  0  0  0  0
 19 18  1  0  0  0  0
 20 23  1  0  0  0  0
 21 19  1  0  0  0  0
 21 22  1  0  0  0  0
 22 20  1  0  0  0  0
 25 24  1  0  0  0  0
 25 29  1  0  0  0  0
 27 24  1  1  0  0  0
 27  2  1  0  0  0  0
 27 26  1  0  0  0  0
 28 26  1  0  0  0  0
 29 30  1  6  0  0  0
 29 28  1  0  0  0  0
 31 30  1  0  0  0  0
 32 31  1  0  0  0  0
 34 36  1  0  0  0  0
 35 36  1  0  0  0  0
 36 33  1  0  0  0  0
 36 32  1  0  0  0  0
M  END
>  <MODEL>
7

>  <REMARK>
 VINA RESULT:      -8.7      2.613      6.841
  Name = 
  9 active torsions:
  status: ('A' for Active; 'I' for Inactive)
    1  A    between atoms: C_1  and  C_3
    2  A    between atoms: N_2  and  C_20
    3  A    between atoms: N_4  and  C_10
    4  A    between atoms: N_4  and  C_15
    5  A    between atoms: C_8  and  N_27
    6  A    between atoms: C_8  and  C_33
    7  A    between atoms: C_10  and  C_34
    8  A    between atoms: C_24  and  N_27
    9  A    between atoms: C_24  and  C_36
                            x       y       z     vdW  Elec       q    Type
                         _______ _______ _______ _____ _____    ______ ____

>  <TORSDO>
F 9

$$$$
=
 OpenBabel11032420133D

 36 40  0  0  1  0  0  0  0  0999 V2000
  184.2520  178.5540  144.3490 C   0  0  0  0  0  0  0  0  0  0  0  0
  184.4930  178.2930  143.0330 N   0  0  0  0  0  0  0  0  0  0  0  0
  183.3440  178.5830  142.3990 C   0  0  0  0  0  0  0  0  0  0  0  0
  182.9360  179.0030  144.5450 C   0  0  0  0  0  3  0  0  0  0  0  0
  181.1370  179.3650  142.8050 C   0  0  0  0  0  0  0  0  0  0  0  0
  181.8780  178.8600  140.5980 C   0  0  0  0  0  3  0  0  0  0  0  0
  180.9020  179.2820  141.4640 N   0  0  0  0  0  0  0  0  0  0  0  0
  182.3930  179.0030  143.2750 C   0  0  0  0  0  0  0  0  0  0  0  0
  180.2360  179.7650  143.5870 O   0  0  0  0  0  0  0  0  0  0  0  0
  183.1140  178.5090  141.0640 N   0  0  0  0  0  2  0  0  0  0  0  0
  185.2380  178.4170  145.4490 C   0  0  0  0  0  0  0  0  0  0  0  0
  186.6480  177.0440  146.8810 C   0  0  0  0  0  3  0  0  0  0  0  0
  185.6950  179.5590  146.1250 C   0  0  0  0  0  3  0  0  0  0  0  0
  185.7190  177.1580  145.8440 C   0  0  0  0  0  3  0  0  0  0  0  0
  186.6260  179.4480  147.1620 C   0  0  0  0  0  3  0  0  0  0  0  0
  187.1080  178.1900  147.5360 C   0  0  0  0  0  0  0  0  0  0  0  0
  188.0920  178.0630  148.6440 C   0  0  0  0  0  2  0  0  0  0  0  0
  189.4480  178.2520  148.1310 N   0  0  0  0  0  2  0  0  0  0  0  0
  189.7560  177.2680  147.0880 C   0  0  0  0  0  3  0  0  0  0  0  0
  191.6810  176.3370  145.9790 C   0  0  0  0  0  2  0  0  0  0  0  0
  189.8420  177.8970  145.7020 C   0  0  0  0  0  2  0  0  0  0  0  0
  191.1990  177.5050  145.1420 C   0  0  0  0  0  2  0  0  0  0  0  0
  191.0650  176.5380  147.3470 C   0  0  0  0  0  2  0  0  0  0  0  0
  186.4490  179.1130  141.7680 C   0  0  0  0  0  2  0  0  0  0  0  0
  187.7640  178.6830  141.1240 C   0  0  0  0  0  2  0  0  0  0  0  0
  186.6790  177.2430  143.4470 C   0  0  0  0  0  2  0  0  0  0  0  0
  185.7640  177.9090  142.4180 C   0  0  1  0  0  3  0  0  0  0  0  0
  187.9910  176.8290  142.7890 C   0  0  0  0  0  2  0  0  0  0  0  0
  188.6780  178.0450  142.1670 C   0  0  1  0  0  3  0  0  0  0  0  0
  189.9830  177.6290  141.5090 C   0  0  0  0  0  2  0  0  0  0  0  0
  189.7190  176.7360  140.3930 N   0  0  0  0  0  2  0  0  0  0  0  0
  190.3640  177.3140  139.2230 C   0  0  0  0  0  2  0  0  0  0  0  0
  188.2470  176.6720  138.3460 F   0  0  0  0  0  0  0  0  0  0  0  0
  189.0550  178.8050  137.7070 C   0  0  0  0  0  1  0  0  0  0  0  0
  190.0640  176.7270  136.8420 C   0  0  0  0  0  1  0  0  0  0  0  0
  189.4030  177.3670  138.0440 C   0  0  0  0  0  0  0  0  0  0  0  0
  1  4  2  0  0  0  0
  1 11  1  0  0  0  0
  2  1  1  0  0  0  0
  3  2  1  0  0  0  0
  3  8  2  0  0  0  0
  5  8  1  0  0  0  0
  5  9  2  0  0  0  0
  6 10  1  0  0  0  0
  6  7  2  0  0  0  0
  7  5  1  0  0  0  0
  8  4  1  0  0  0  0
 10  3  1  0  0  0  0
 11 14  2  0  0  0  0
 11 13  1  0  0  0  0
 12 16  2  0  0  0  0
 13 15  2  0  0  0  0
 14 12  1  0  0  0  0
 15 16  1  0  0  0  0
 16 17  1  0  0  0  0
 18 17  1  0  0  0  0
 19 23  1  0  0  0  0
 19 18  1  0  0  0  0
 20 23  1  0  0  0  0
 21 19  1  0  0  0  0
 22 21  1  0  0  0  0
 22 20  1  0  0  0  0
 25 24  1  0  0  0  0
 25 29  1  0  0  0  0
 27 24  1  1  0  0  0
 27  2  1  0  0  0  0
 27 26  1  0  0  0  0
 28 26  1  0  0  0  0
 29 30  1  6  0  0  0
 29 28  1  0  0  0  0
 31 30  1  0  0  0  0
 32 31  1  0  0  0  0
 34 36  1  0  0  0  0
 35 36  1  0  0  0  0
 36 33  1  0  0  0  0
 36 32  1  0  0  0  0
M  END
>  <MODEL>
8

>  <REMARK>
 VINA RESULT:      -8.6      3.049      6.661
  Name = 
  9 active torsions:
  status: ('A' for Active; 'I' for Inactive)
    1  A    between atoms: C_1  and  C_3
    2  A    between atoms: N_2  and  C_20
    3  A    between atoms: N_4  and  C_10
    4  A    between atoms: N_4  and  C_15
    5  A    between atoms: C_8  and  N_27
    6  A    between atoms: C_8  and  C_33
    7  A    between atoms: C_10  and  C_34
    8  A    between atoms: C_24  and  N_27
    9  A    between atoms: C_24  and  C_36
                            x       y       z     vdW  Elec       q    Type
                         _______ _______ _______ _____ _____    ______ ____

>  <TORSDO>
F 9

$$$$
=
 OpenBabel11032420133D

 36 40  0  0  1  0  0  0  0  0999 V2000
  186.6230  177.9760  144.8840 C   0  0  0  0  0  0  0  0  0  0  0  0
  187.8240  177.6820  144.3110 N   0  0  0  0  0  0  0  0  0  0  0  0
  188.6690  177.4970  145.3390 C   0  0  0  0  0  0  0  0  0  0  0  0
  186.7170  177.9840  146.2850 C   0  0  0  0  0  3  0  0  0  0  0  0
  188.7480  177.5110  147.7140 C   0  0  0  0  0  0  0  0  0  0  0  0
  190.6810  176.9900  146.4200 C   0  0  0  0  0  3  0  0  0  0  0  0
  190.0680  177.1720  147.6330 N   0  0  0  0  0  0  0  0  0  0  0  0
  188.0410  177.6760  146.5300 C   0  0  0  0  0  0  0  0  0  0  0  0
  188.1950  177.6630  148.8340 O   0  0  0  0  0  0  0  0  0  0  0  0
  189.9790  177.1500  145.2590 N   0  0  0  0  0  2  0  0  0  0  0  0
  185.3590  178.2330  144.1510 C   0  0  0  0  0  0  0  0  0  0  0  0
  184.0540  178.2290  142.0970 C   0  0  0  0  0  3  0  0  0  0  0  0
  184.2460  178.7460  144.8350 C   0  0  0  0  0  3  0  0  0  0  0  0
  185.2510  177.9830  142.7740 C   0  0  0  0  0  3  0  0  0  0  0  0
  183.0460  178.9910  144.1600 C   0  0  0  0  0  3  0  0  0  0  0  0
  182.9470  178.7250  142.7910 C   0  0  0  0  0  0  0  0  0  0  0  0
  181.6770  178.9910  142.0650 C   0  0  0  0  0  2  0  0  0  0  0  0
  181.8680  178.7810  140.6310 N   0  0  0  0  0  2  0  0  0  0  0  0
  181.1470  179.7920  139.8520 C   0  0  0  0  0  3  0  0  0  0  0  0
  179.7550  179.9230  137.8910 C   0  0  0  0  0  2  0  0  0  0  0  0
  181.9920  180.3650  138.7190 C   0  0  0  0  0  2  0  0  0  0  0  0
  181.1810  180.1790  137.4480 C   0  0  0  0  0  2  0  0  0  0  0  0
  179.8640  179.2490  139.2410 C   0  0  0  0  0  2  0  0  0  0  0  0
  188.2770  178.8160  142.1650 C   0  0  0  0  0  2  0  0  0  0  0  0
  188.5610  178.5770  140.6840 C   0  0  0  0  0  2  0  0  0  0  0  0
  189.3450  176.5970  142.7110 C   0  0  0  0  0  2  0  0  0  0  0  0
  188.1090  177.4800  142.8900 C   0  0  1  0  0  3  0  0  0  0  0  0
  189.6190  176.3760  141.2270 C   0  0  0  0  0  2  0  0  0  0  0  0
  189.8110  177.7180  140.5200 C   0  0  1  0  0  3  0  0  0  0  0  0
  190.0800  177.4950  139.0400 C   0  0  0  0  0  2  0  0  0  0  0  0
  190.7830  176.2380  138.8420 N   0  0  0  0  0  2  0  0  0  0  0  0
  191.0250  176.1070  137.4130 C   0  0  0  0  0  2  0  0  0  0  0  0
  193.2580  176.8440  137.7840 F   0  0  0  0  0  0  0  0  0  0  0  0
  192.9320  174.5050  137.5930 C   0  0  0  0  0  1  0  0  0  0  0  0
  192.7430  176.0010  135.6410 C   0  0  0  0  0  1  0  0  0  0  0  0
  192.5040  175.8860  137.1310 C   0  0  0  0  0  0  0  0  0  0  0  0
  1  4  2  0  0  0  0
  2  1  1  0  0  0  0
  2  3  1  0  0  0  0
  3  8  2  0  0  0  0
  4  8  1  0  0  0  0
  5  9  2  0  0  0  0
  6  7  2  0  0  0  0
  7  5  1  0  0  0  0
  8  5  1  0  0  0  0
 10  3  1  0  0  0  0
 10  6  1  0  0  0  0
 11 13  1  0  0  0  0
 11  1  1  0  0  0  0
 12 14  1  0  0  0  0
 12 16  2  0  0  0  0
 14 11  2  0  0  0  0
 15 13  2  0  0  0  0
 16 15  1  0  0  0  0
 17 16  1  0  0  0  0
 18 17  1  0  0  0  0
 19 18  1  0  0  0  0
 20 23  1  0  0  0  0
 21 19  1  0  0  0  0
 22 20  1  0  0  0  0
 22 21  1  0  0  0  0
 23 19  1  0  0  0  0
 25 24  1  0  0  0  0
 26 27  1  0  0  0  0
 27 24  1  1  0  0  0
 27  2  1  0  0  0  0
 28 26  1  0  0  0  0
 29 30  1  6  0  0  0
 29 25  1  0  0  0  0
 29 28  1  0  0  0  0
 31 30  1  0  0  0  0
 32 31  1  0  0  0  0
 35 36  1  0  0  0  0
 36 32  1  0  0  0  0
 36 34  1  0  0  0  0
 36 33  1  0  0  0  0
M  END
>  <MODEL>
9

>  <REMARK>
 VINA RESULT:      -8.4      3.815      9.462
  Name = 
  9 active torsions:
  status: ('A' for Active; 'I' for Inactive)
    1  A    between atoms: C_1  and  C_3
    2  A    between atoms: N_2  and  C_20
    3  A    between atoms: N_4  and  C_10
    4  A    between atoms: N_4  and  C_15
    5  A    between atoms: C_8  and  N_27
    6  A    between atoms: C_8  and  C_33
    7  A    between atoms: C_10  and  C_34
    8  A    between atoms: C_24  and  N_27
    9  A    between atoms: C_24  and  C_36
                            x       y       z     vdW  Elec       q    Type
                         _______ _______ _______ _____ _____    ______ ____

>  <TORSDO>
F 9

$$$$
