=
 OpenBabel11032420173D

 28 31  0  0  1  0  0  0  0  0999 V2000
  189.2550  176.7730  143.2170 C   0  0  2  0  0  3  0  0  0  0  0  0
  185.7720  178.0600  144.2780 C   0  0  0  0  0  0  0  0  0  0  0  0
  186.0740  178.1710  145.6710 C   0  0  0  0  0  0  0  0  0  0  0  0
  186.7820  177.6120  143.3970 C   0  0  0  0  0  3  0  0  0  0  0  0
  189.6180  176.9610  145.4770 N   0  0  0  0  0  0  0  0  0  0  0  0
  185.1200  178.6630  146.6070 N   0  0  0  0  0  1  0  0  0  0  0  0
  188.0360  177.2910  143.9100 C   0  0  0  0  0  0  0  0  0  0  0  0
  188.2990  177.3820  145.2310 C   0  0  0  0  0  0  0  0  0  0  0  0
  190.2610  176.5670  144.2830 N   0  0  0  0  0  2  0  0  0  0  0  0
  187.3500  177.8230  146.1490 C   0  0  0  0  0  3  0  0  0  0  0  0
  182.0950  179.0140  143.9810 C   0  0  0  0  0  3  0  0  0  0  0  0
  180.7030  179.2600  142.0640 F   0  0  0  0  0  0  0  0  0  0  0  0
  181.9160  178.9770  142.5970 C   0  0  0  0  0  0  0  0  0  0  0  0
  184.4370  178.3960  143.7070 C   0  0  0  0  0  0  0  0  0  0  0  0
  182.9860  178.6460  141.7630 C   0  0  0  0  0  3  0  0  0  0  0  0
  183.3470  178.7220  144.5310 C   0  0  0  0  0  3  0  0  0  0  0  0
  184.2370  178.3550  142.3160 C   0  0  0  0  0  3  0  0  0  0  0  0
  190.2420  176.9350  146.7980 C   0  0  0  0  0  2  0  0  0  0  0  0
  192.0810  175.2870  146.8530 C   0  0  0  0  0  2  0  0  0  0  0  0
  191.7480  176.7560  146.7050 C   0  0  0  0  0  3  0  0  0  0  0  0
  192.2680  176.2250  148.0260 C   0  0  0  0  0  2  0  0  0  0  0  0
  189.7900  177.7890  142.2130 C   0  0  0  0  0  2  0  0  0  0  0  0
  190.7460  177.1400  141.2240 C   0  0  0  0  0  2  0  0  0  0  0  0
  190.0500  176.8260  139.9880 N   0  0  0  0  0  2  0  0  0  0  0  0
  189.4290  178.0580  139.5350 C   0  0  0  0  0  2  0  0  0  0  0  0
  188.0660  177.7610  138.9380 C   0  0  0  0  0  2  0  0  0  0  0  0
  189.0510  179.0200  137.2440 C   0  0  0  0  0  1  0  0  0  0  0  0
  187.7800  178.6970  137.8650 N   0  0  0  0  0  2  0  0  0  0  0  0
  1 22  1  6  0  0  0
  1  7  1  0  0  0  0
  1  9  1  0  0  0  0
  2  3  1  0  0  0  0
  3 10  2  0  0  0  0
  3  6  1  0  0  0  0
  4  7  1  0  0  0  0
  4  2  2  0  0  0  0
  5 18  1  0  0  0  0
  7  8  2  0  0  0  0
  8  5  1  0  0  0  0
  8 10  1  0  0  0  0
  9  5  1  0  0  0  0
 11 16  1  0  0  0  0
 12 13  1  0  0  0  0
 13 11  2  0  0  0  0
 14  2  1  0  0  0  0
 14 16  2  0  0  0  0
 15 17  2  0  0  0  0
 15 13  1  0  0  0  0
 17 14  1  0  0  0  0
 19 21  1  0  0  0  0
 20 18  1  0  0  0  0
 20 19  1  0  0  0  0
 20 21  1  0  0  0  0
 23 22  1  0  0  0  0
 24 23  1  0  0  0  0
 25 24  1  0  0  0  0
 26 25  1  0  0  0  0
 27 28  1  0  0  0  0
 28 26  1  0  0  0  0
M  END
>  <MODEL>
1

>  <REMARK>
 VINA RESULT:      -8.7      0.000      0.000
  Name = 
  9 active torsions:
  status: ('A' for Active; 'I' for Inactive)
    1  A    between atoms: C_1  and  C_16
    2  A    between atoms: C_2  and  C_15
    3  A    between atoms: C_6  and  C_10
    4  A    between atoms: C_6  and  N_12
    5  A    between atoms: C_11  and  C_16
    6  A    between atoms: C_11  and  N_27
    7  A    between atoms: C_17  and  C_18
    8  A    between atoms: C_17  and  N_27
    9  A    between atoms: C_18  and  N_22
                            x       y       z     vdW  Elec       q    Type
                         _______ _______ _______ _____ _____    ______ ____

>  <TORSDO>
F 9

$$$$
=
 OpenBabel11032420173D

 28 31  0  0  1  0  0  0  0  0999 V2000
  189.1500  176.7960  143.1340 C   0  0  2  0  0  3  0  0  0  0  0  0
  185.6600  178.0520  144.2130 C   0  0  0  0  0  0  0  0  0  0  0  0
  185.9680  178.1610  145.6050 C   0  0  0  0  0  0  0  0  0  0  0  0
  186.6700  177.6140  143.3270 C   0  0  0  0  0  3  0  0  0  0  0  0
  189.5210  176.9820  145.3930 N   0  0  0  0  0  0  0  0  0  0  0  0
  185.0130  178.6430  146.5460 N   0  0  0  0  0  1  0  0  0  0  0  0
  187.9290  177.3020  143.8340 C   0  0  0  0  0  0  0  0  0  0  0  0
  188.1970  177.3920  145.1550 C   0  0  0  0  0  0  0  0  0  0  0  0
  190.1610  176.5970  144.1960 N   0  0  0  0  0  2  0  0  0  0  0  0
  187.2480  177.8230  146.0770 C   0  0  0  0  0  3  0  0  0  0  0  0
  182.8320  178.7170  141.7490 C   0  0  0  0  0  3  0  0  0  0  0  0
  180.5700  179.3660  142.1180 F   0  0  0  0  0  0  0  0  0  0  0  0
  181.7890  179.0470  142.6150 C   0  0  0  0  0  0  0  0  0  0  0  0
  184.3200  178.3780  143.6490 C   0  0  0  0  0  0  0  0  0  0  0  0
  182.0030  179.0530  143.9960 C   0  0  0  0  0  3  0  0  0  0  0  0
  184.0890  178.3870  142.2630 C   0  0  0  0  0  3  0  0  0  0  0  0
  183.2610  178.7230  144.5070 C   0  0  0  0  0  3  0  0  0  0  0  0
  190.1500  176.9580  146.7120 C   0  0  0  0  0  2  0  0  0  0  0  0
  192.0190  175.3430  146.7010 C   0  0  0  0  0  2  0  0  0  0  0  0
  191.6590  176.8110  146.6120 C   0  0  0  0  0  3  0  0  0  0  0  0
  192.1900  176.2380  147.9100 C   0  0  0  0  0  2  0  0  0  0  0  0
  189.6720  177.8190  142.1310 C   0  0  0  0  0  2  0  0  0  0  0  0
  189.3400  177.4130  140.7030 C   0  0  0  0  0  2  0  0  0  0  0  0
  188.5650  178.4570  140.0550 N   0  0  0  0  0  2  0  0  0  0  0  0
  188.5360  178.1360  138.6380 C   0  0  0  0  0  2  0  0  0  0  0  0
  187.1010  177.9580  138.1780 C   0  0  0  0  0  2  0  0  0  0  0  0
  184.8640  178.4830  138.5570 C   0  0  0  0  0  1  0  0  0  0  0  0
  186.1950  178.5820  139.1270 N   0  0  0  0  0  2  0  0  0  0  0  0
  1 22  1  6  0  0  0
  1  7  1  0  0  0  0
  1  9  1  0  0  0  0
  2  3  1  0  0  0  0
  3 10  2  0  0  0  0
  3  6  1  0  0  0  0
  4  7  1  0  0  0  0
  4  2  2  0  0  0  0
  5 18  1  0  0  0  0
  7  8  2  0  0  0  0
  8  5  1  0  0  0  0
  8 10  1  0  0  0  0
  9  5  1  0  0  0  0
 11 16  2  0  0  0  0
 11 13  1  0  0  0  0
 12 13  1  0  0  0  0
 13 15  2  0  0  0  0
 14  2  1  0  0  0  0
 14 17  2  0  0  0  0
 15 17  1  0  0  0  0
 16 14  1  0  0  0  0
 19 21  1  0  0  0  0
 20 19  1  0  0  0  0
 20 18  1  0  0  0  0
 20 21  1  0  0  0  0
 23 22  1  0  0  0  0
 24 23  1  0  0  0  0
 25 24  1  0  0  0  0
 26 25  1  0  0  0  0
 26 28  1  0  0  0  0
 27 28  1  0  0  0  0
M  END
>  <MODEL>
2

>  <REMARK>
 VINA RESULT:      -8.6      0.928      1.437
  Name = 
  9 active torsions:
  status: ('A' for Active; 'I' for Inactive)
    1  A    between atoms: C_1  and  C_16
    2  A    between atoms: C_2  and  C_15
    3  A    between atoms: C_6  and  C_10
    4  A    between atoms: C_6  and  N_12
    5  A    between atoms: C_11  and  C_16
    6  A    between atoms: C_11  and  N_27
    7  A    between atoms: C_17  and  C_18
    8  A    between atoms: C_17  and  N_27
    9  A    between atoms: C_18  and  N_22
                            x       y       z     vdW  Elec       q    Type
                         _______ _______ _______ _____ _____    ______ ____

>  <TORSDO>
F 9

$$$$
=
 OpenBabel11032420173D

 28 31  0  0  1  0  0  0  0  0999 V2000
  189.2060  176.6740  143.1600 C   0  0  2  0  0  3  0  0  0  0  0  0
  185.7440  178.0800  144.1390 C   0  0  0  0  0  0  0  0  0  0  0  0
  186.0420  178.2500  145.5270 C   0  0  0  0  0  0  0  0  0  0  0  0
  186.7490  177.5710  143.2860 C   0  0  0  0  0  3  0  0  0  0  0  0
  189.5610  176.9620  145.4110 N   0  0  0  0  0  0  0  0  0  0  0  0
  185.0930  178.8040  146.4330 N   0  0  0  0  0  1  0  0  0  0  0  0
  187.9940  177.2490  143.8210 C   0  0  0  0  0  0  0  0  0  0  0  0
  188.2520  177.3970  145.1380 C   0  0  0  0  0  0  0  0  0  0  0  0
  190.2020  176.5000  144.2410 N   0  0  0  0  0  2  0  0  0  0  0  0
  187.3070  177.8990  146.0290 C   0  0  0  0  0  3  0  0  0  0  0  0
  182.0780  179.0530  143.7780 C   0  0  0  0  0  3  0  0  0  0  0  0
  180.7140  179.2770  141.8380 F   0  0  0  0  0  0  0  0  0  0  0  0
  181.9170  178.9950  142.3920 C   0  0  0  0  0  0  0  0  0  0  0  0
  184.4190  178.4150  143.5450 C   0  0  0  0  0  0  0  0  0  0  0  0
  182.9960  178.6420  141.5780 C   0  0  0  0  0  3  0  0  0  0  0  0
  183.3210  178.7620  144.3490 C   0  0  0  0  0  3  0  0  0  0  0  0
  184.2370  178.3520  142.1520 C   0  0  0  0  0  3  0  0  0  0  0  0
  190.1770  176.9850  146.7350 C   0  0  0  0  0  2  0  0  0  0  0  0
  192.0130  175.3480  146.9640 C   0  0  0  0  0  2  0  0  0  0  0  0
  191.6830  176.7940  146.6590 C   0  0  0  0  0  3  0  0  0  0  0  0
  192.2060  176.4080  148.0280 C   0  0  0  0  0  2  0  0  0  0  0  0
  189.7660  177.6310  142.1130 C   0  0  0  0  0  2  0  0  0  0  0  0
  191.2210  177.3180  141.7980 C   0  0  0  0  0  2  0  0  0  0  0  0
  191.4460  177.3790  140.3650 N   0  0  0  0  0  2  0  0  0  0  0  0
  190.1590  177.1540  139.7300 C   0  0  0  0  0  2  0  0  0  0  0  0
  190.3590  176.5240  138.3640 C   0  0  0  0  0  2  0  0  0  0  0  0
  191.7030  174.9240  137.3360 C   0  0  0  0  0  1  0  0  0  0  0  0
  190.8890  175.1800  138.5100 N   0  0  0  0  0  2  0  0  0  0  0  0
  1 22  1  6  0  0  0
  1  7  1  0  0  0  0
  1  9  1  0  0  0  0
  2  3  1  0  0  0  0
  3 10  2  0  0  0  0
  3  6  1  0  0  0  0
  4  7  1  0  0  0  0
  4  2  2  0  0  0  0
  5 18  1  0  0  0  0
  7  8  2  0  0  0  0
  8  5  1  0  0  0  0
  8 10  1  0  0  0  0
  9  5  1  0  0  0  0
 11 16  1  0  0  0  0
 12 13  1  0  0  0  0
 13 11  2  0  0  0  0
 14  2  1  0  0  0  0
 14 16  2  0  0  0  0
 15 17  2  0  0  0  0
 15 13  1  0  0  0  0
 17 14  1  0  0  0  0
 19 21  1  0  0  0  0
 20 18  1  0  0  0  0
 20 19  1  0  0  0  0
 20 21  1  0  0  0  0
 23 22  1  0  0  0  0
 24 23  1  0  0  0  0
 25 24  1  0  0  0  0
 26 28  1  0  0  0  0
 26 25  1  0  0  0  0
 27 28  1  0  0  0  0
M  END
>  <MODEL>
3

>  <REMARK>
 VINA RESULT:      -8.5      1.209      1.443
  Name = 
  9 active torsions:
  status: ('A' for Active; 'I' for Inactive)
    1  A    between atoms: C_1  and  C_16
    2  A    between atoms: C_2  and  C_15
    3  A    between atoms: C_6  and  C_10
    4  A    between atoms: C_6  and  N_12
    5  A    between atoms: C_11  and  C_16
    6  A    between atoms: C_11  and  N_27
    7  A    between atoms: C_17  and  C_18
    8  A    between atoms: C_17  and  N_27
    9  A    between atoms: C_18  and  N_22
                            x       y       z     vdW  Elec       q    Type
                         _______ _______ _______ _____ _____    ______ ____

>  <TORSDO>
F 9

$$$$
=
 OpenBabel11032420173D

 28 31  0  0  1  0  0  0  0  0999 V2000
  185.7900  177.9390  146.0530 C   0  0  2  0  0  3  0  0  0  0  0  0
  187.1800  178.0600  142.4510 C   0  0  0  0  0  0  0  0  0  0  0  0
  186.0100  178.6350  141.8620 C   0  0  0  0  0  0  0  0  0  0  0  0
  187.1860  177.8090  143.8420 C   0  0  0  0  0  3  0  0  0  0  0  0
  183.9580  178.8320  144.9940 N   0  0  0  0  0  0  0  0  0  0  0  0
  185.9540  178.9610  140.4760 N   0  0  0  0  0  1  0  0  0  0  0  0
  186.0570  178.1250  144.5930 C   0  0  0  0  0  0  0  0  0  0  0  0
  184.9540  178.6490  144.0180 C   0  0  0  0  0  0  0  0  0  0  0  0
  184.4030  178.4100  146.2650 N   0  0  0  0  0  2  0  0  0  0  0  0
  184.8870  178.9270  142.6550 C   0  0  0  0  0  3  0  0  0  0  0  0
  189.7100  177.8010  139.6140 C   0  0  0  0  0  3  0  0  0  0  0  0
  191.7920  176.6500  139.4890 F   0  0  0  0  0  0  0  0  0  0  0  0
  190.6880  176.9930  140.1960 C   0  0  0  0  0  0  0  0  0  0  0  0
  188.3980  177.7120  141.6660 C   0  0  0  0  0  0  0  0  0  0  0  0
  190.5270  176.5350  141.5060 C   0  0  0  0  0  3  0  0  0  0  0  0
  188.5710  178.1550  140.3450 C   0  0  0  0  0  3  0  0  0  0  0  0
  189.3880  176.8910  142.2330 C   0  0  0  0  0  3  0  0  0  0  0  0
  182.6330  179.3860  144.7240 C   0  0  0  0  0  2  0  0  0  0  0  0
  180.9540  179.3090  142.9150 C   0  0  0  0  0  2  0  0  0  0  0  0
  181.8090  178.4670  143.8370 C   0  0  0  0  0  3  0  0  0  0  0  0
  180.3390  178.6690  144.1420 C   0  0  0  0  0  2  0  0  0  0  0  0
  186.7400  178.7810  146.8970 C   0  0  0  0  0  2  0  0  0  0  0  0
  187.5300  177.9190  147.8690 C   0  0  0  0  0  2  0  0  0  0  0  0
  188.9550  178.0870  147.6420 N   0  0  0  0  0  2  0  0  0  0  0  0
  189.4510  176.8150  147.1450 C   0  0  0  0  0  2  0  0  0  0  0  0
  190.3540  177.0450  145.9470 C   0  0  0  0  0  2  0  0  0  0  0  0
  191.8930  175.8730  147.2440 C   0  0  0  0  0  1  0  0  0  0  0  0
  191.7450  177.0170  146.3630 N   0  0  0  0  0  2  0  0  0  0  0  0
  1  9  1  0  0  0  0
  1 22  1  1  0  0  0
  2  4  1  0  0  0  0
  3  2  2  0  0  0  0
  3 10  1  0  0  0  0
  4  7  2  0  0  0  0
  5  9  1  0  0  0  0
  6  3  1  0  0  0  0
  7  1  1  0  0  0  0
  8  7  1  0  0  0  0
  8  5  1  0  0  0  0
 10  8  2  0  0  0  0
 11 13  2  0  0  0  0
 11 16  1  0  0  0  0
 12 13  1  0  0  0  0
 13 15  1  0  0  0  0
 14 17  1  0  0  0  0
 14  2  1  0  0  0  0
 15 17  2  0  0  0  0
 16 14  2  0  0  0  0
 18  5  1  0  0  0  0
 19 20  1  0  0  0  0
 19 21  1  0  0  0  0
 20 21  1  0  0  0  0
 20 18  1  0  0  0  0
 22 23  1  0  0  0  0
 24 23  1  0  0  0  0
 25 24  1  0  0  0  0
 26 28  1  0  0  0  0
 26 25  1  0  0  0  0
 28 27  1  0  0  0  0
M  END
>  <MODEL>
4

>  <REMARK>
 VINA RESULT:      -8.1      2.752      7.612
  Name = 
  9 active torsions:
  status: ('A' for Active; 'I' for Inactive)
    1  A    between atoms: C_1  and  C_16
    2  A    between atoms: C_2  and  C_15
    3  A    between atoms: C_6  and  C_10
    4  A    between atoms: C_6  and  N_12
    5  A    between atoms: C_11  and  C_16
    6  A    between atoms: C_11  and  N_27
    7  A    between atoms: C_17  and  C_18
    8  A    between atoms: C_17  and  N_27
    9  A    between atoms: C_18  and  N_22
                            x       y       z     vdW  Elec       q    Type
                         _______ _______ _______ _____ _____    ______ ____

>  <TORSDO>
F 9

$$$$
=
 OpenBabel11032420173D

 28 31  0  0  1  0  0  0  0  0999 V2000
  184.0070  178.3920  142.9910 C   0  0  2  0  0  3  0  0  0  0  0  0
  187.7890  177.7960  142.4820 C   0  0  0  0  0  0  0  0  0  0  0  0
  187.8130  178.1750  141.1030 C   0  0  0  0  0  0  0  0  0  0  0  0
  186.5620  177.8520  143.1810 C   0  0  0  0  0  3  0  0  0  0  0  0
  184.1600  178.9480  140.7670 N   0  0  0  0  0  0  0  0  0  0  0  0
  189.0240  178.1900  140.3530 N   0  0  0  0  0  1  0  0  0  0  0  0
  185.4170  178.2710  142.5070 C   0  0  0  0  0  0  0  0  0  0  0  0
  185.4530  178.6060  141.2000 C   0  0  0  0  0  0  0  0  0  0  0  0
  183.2220  178.8330  141.8160 N   0  0  0  0  0  2  0  0  0  0  0  0
  186.6310  178.5780  140.4580 C   0  0  0  0  0  3  0  0  0  0  0  0
  190.8040  175.7440  143.5840 C   0  0  0  0  0  3  0  0  0  0  0  0
  192.3460  176.0820  145.3670 F   0  0  0  0  0  0  0  0  0  0  0  0
  191.2580  176.4910  144.6720 C   0  0  0  0  0  0  0  0  0  0  0  0
  189.0010  177.3430  143.2220 C   0  0  0  0  0  0  0  0  0  0  0  0
  190.5880  177.6580  145.0450 C   0  0  0  0  0  3  0  0  0  0  0  0
  189.6810  176.1670  142.8660 C   0  0  0  0  0  3  0  0  0  0  0  0
  189.4660  178.0790  144.3260 C   0  0  0  0  0  3  0  0  0  0  0  0
  183.8310  179.3690  139.4070 C   0  0  0  0  0  2  0  0  0  0  0  0
  183.2190  177.0690  138.7470 C   0  0  0  0  0  2  0  0  0  0  0  0
  182.7390  178.5040  138.8000 C   0  0  0  0  0  3  0  0  0  0  0  0
  183.2380  177.9190  137.4940 C   0  0  0  0  0  2  0  0  0  0  0  0
  183.8920  179.4400  144.0920 C   0  0  0  0  0  2  0  0  0  0  0  0
  184.0530  178.8160  145.4700 C   0  0  0  0  0  2  0  0  0  0  0  0
  185.2280  179.3560  146.1290 N   0  0  0  0  0  2  0  0  0  0  0  0
  185.6000  178.4070  147.1630 C   0  0  0  0  0  2  0  0  0  0  0  0
  187.0720  178.0570  147.0400 C   0  0  0  0  0  2  0  0  0  0  0  0
  188.9890  178.2170  148.3530 C   0  0  0  0  0  1  0  0  0  0  0  0
  187.6180  177.7410  148.3480 N   0  0  0  0  0  2  0  0  0  0  0  0
  1 22  1  1  0  0  0
  2  4  1  0  0  0  0
  2 14  1  0  0  0  0
  3  2  2  0  0  0  0
  5  8  1  0  0  0  0
  5  9  1  0  0  0  0
  6  3  1  0  0  0  0
  7  1  1  0  0  0  0
  7  4  2  0  0  0  0
  8  7  1  0  0  0  0
  9  1  1  0  0  0  0
 10  3  1  0  0  0  0
 10  8  2  0  0  0  0
 11 13  1  0  0  0  0
 13 15  2  0  0  0  0
 13 12  1  0  0  0  0
 14 17  2  0  0  0  0
 16 14  1  0  0  0  0
 16 11  2  0  0  0  0
 17 15  1  0  0  0  0
 18  5  1  0  0  0  0
 19 20  1  0  0  0  0
 20 18  1  0  0  0  0
 21 19  1  0  0  0  0
 21 20  1  0  0  0  0
 22 23  1  0  0  0  0
 23 24  1  0  0  0  0
 24 25  1  0  0  0  0
 26 25  1  0  0  0  0
 26 28  1  0  0  0  0
 28 27  1  0  0  0  0
M  END
>  <MODEL>
5

>  <REMARK>
 VINA RESULT:      -8.0      3.319      8.357
  Name = 
  9 active torsions:
  status: ('A' for Active; 'I' for Inactive)
    1  A    between atoms: C_1  and  C_16
    2  A    between atoms: C_2  and  C_15
    3  A    between atoms: C_6  and  C_10
    4  A    between atoms: C_6  and  N_12
    5  A    between atoms: C_11  and  C_16
    6  A    between atoms: C_11  and  N_27
    7  A    between atoms: C_17  and  C_18
    8  A    between atoms: C_17  and  N_27
    9  A    between atoms: C_18  and  N_22
                            x       y       z     vdW  Elec       q    Type
                         _______ _______ _______ _____ _____    ______ ____

>  <TORSDO>
F 9

$$$$
=
 OpenBabel11032420173D

 28 31  0  0  1  0  0  0  0  0999 V2000
  187.8350  178.6670  140.8250 C   0  0  2  0  0  3  0  0  0  0  0  0
  188.3220  177.5430  144.4880 C   0  0  0  0  0  0  0  0  0  0  0  0
  186.9330  177.5470  144.8290 C   0  0  0  0  0  0  0  0  0  0  0  0
  188.7000  177.8950  143.1720 C   0  0  0  0  0  3  0  0  0  0  0  0
  185.6370  178.6660  141.4930 N   0  0  0  0  0  0  0  0  0  0  0  0
  186.4790  177.1550  146.1200 N   0  0  0  0  0  1  0  0  0  0  0  0
  187.7120  178.2350  142.2510 C   0  0  0  0  0  0  0  0  0  0  0  0
  186.4060  178.2520  142.5950 C   0  0  0  0  0  0  0  0  0  0  0  0
  186.4520  178.9430  140.3740 N   0  0  0  0  0  2  0  0  0  0  0  0
  185.9690  177.9090  143.8710 C   0  0  0  0  0  3  0  0  0  0  0  0
  190.2110  176.9420  147.7410 C   0  0  0  0  0  3  0  0  0  0  0  0
  192.4550  176.2420  148.1290 F   0  0  0  0  0  0  0  0  0  0  0  0
  191.4620  176.5510  147.2610 C   0  0  0  0  0  0  0  0  0  0  0  0
  189.3960  177.1860  145.4580 C   0  0  0  0  0  0  0  0  0  0  0  0
  191.6910  176.4820  145.8840 C   0  0  0  0  0  3  0  0  0  0  0  0
  189.1870  177.2600  146.8450 C   0  0  0  0  0  3  0  0  0  0  0  0
  190.6650  176.8000  144.9910 C   0  0  0  0  0  3  0  0  0  0  0  0
  184.1820  178.7930  141.5060 C   0  0  0  0  0  2  0  0  0  0  0  0
  182.5110  179.0290  139.7030 C   0  0  0  0  0  2  0  0  0  0  0  0
  183.5460  178.1060  140.3090 C   0  0  0  0  0  3  0  0  0  0  0  0
  182.0740  177.8810  140.5880 C   0  0  0  0  0  2  0  0  0  0  0  0
  188.4310  177.5590  139.9640 C   0  0  0  0  0  2  0  0  0  0  0  0
  189.5040  178.0990  139.0310 C   0  0  0  0  0  2  0  0  0  0  0  0
  188.9210  179.0380  138.0890 N   0  0  0  0  0  2  0  0  0  0  0  0
  188.9990  178.4180  136.7780 C   0  0  0  0  0  2  0  0  0  0  0  0
  187.6100  178.2920  136.1820 C   0  0  0  0  0  2  0  0  0  0  0  0
  185.6480  177.5160  137.1690 C   0  0  0  0  0  1  0  0  0  0  0  0
  186.9560  177.1010  136.6950 N   0  0  0  0  0  2  0  0  0  0  0  0
  1 22  1  6  0  0  0
  1  7  1  0  0  0  0
  2  3  1  0  0  0  0
  2 14  1  0  0  0  0
  3  6  1  0  0  0  0
  4  2  2  0  0  0  0
  5 18  1  0  0  0  0
  5  8  1  0  0  0  0
  7  8  2  0  0  0  0
  7  4  1  0  0  0  0
  8 10  1  0  0  0  0
  9  1  1  0  0  0  0
  9  5  1  0  0  0  0
 10  3  2  0  0  0  0
 13 11  1  0  0  0  0
 13 12  1  0  0  0  0
 14 16  1  0  0  0  0
 15 13  2  0  0  0  0
 16 11  2  0  0  0  0
 17 14  2  0  0  0  0
 17 15  1  0  0  0  0
 19 20  1  0  0  0  0
 19 21  1  0  0  0  0
 20 21  1  0  0  0  0
 20 18  1  0  0  0  0
 23 22  1  0  0  0  0
 24 23  1  0  0  0  0
 25 24  1  0  0  0  0
 26 28  1  0  0  0  0
 26 25  1  0  0  0  0
 28 27  1  0  0  0  0
M  END
>  <MODEL>
6

>  <REMARK>
 VINA RESULT:      -7.9      3.165      6.766
  Name = 
  9 active torsions:
  status: ('A' for Active; 'I' for Inactive)
    1  A    between atoms: C_1  and  C_16
    2  A    between atoms: C_2  and  C_15
    3  A    between atoms: C_6  and  C_10
    4  A    between atoms: C_6  and  N_12
    5  A    between atoms: C_11  and  C_16
    6  A    between atoms: C_11  and  N_27
    7  A    between atoms: C_17  and  C_18
    8  A    between atoms: C_17  and  N_27
    9  A    between atoms: C_18  and  N_22
                            x       y       z     vdW  Elec       q    Type
                         _______ _______ _______ _____ _____    ______ ____

>  <TORSDO>
F 9

$$$$
=
 OpenBabel11032420173D

 28 31  0  0  1  0  0  0  0  0999 V2000
  188.4960  178.3310  140.3700 C   0  0  2  0  0  3  0  0  0  0  0  0
  188.5490  177.5690  144.1560 C   0  0  0  0  0  0  0  0  0  0  0  0
  187.1420  177.7260  144.3570 C   0  0  0  0  0  0  0  0  0  0  0  0
  189.0730  177.7450  142.8550 C   0  0  0  0  0  3  0  0  0  0  0  0
  186.2570  178.5850  140.8160 N   0  0  0  0  0  0  0  0  0  0  0  0
  186.5400  177.5150  145.6310 N   0  0  0  0  0  1  0  0  0  0  0  0
  188.2070  178.0650  141.8130 C   0  0  0  0  0  0  0  0  0  0  0  0
  186.8840  178.2280  142.0240 C   0  0  0  0  0  0  0  0  0  0  0  0
  187.1910  178.6720  139.7610 N   0  0  0  0  0  2  0  0  0  0  0  0
  186.3050  178.0630  143.2790 C   0  0  0  0  0  3  0  0  0  0  0  0
  190.0610  177.1280  147.6250 C   0  0  0  0  0  3  0  0  0  0  0  0
  192.2020  176.3270  148.2970 F   0  0  0  0  0  0  0  0  0  0  0  0
  191.3230  176.6220  147.3090 C   0  0  0  0  0  0  0  0  0  0  0  0
  189.4940  177.2290  145.2570 C   0  0  0  0  0  0  0  0  0  0  0  0
  191.6810  176.4240  145.9730 C   0  0  0  0  0  3  0  0  0  0  0  0
  189.1550  177.4320  146.6050 C   0  0  0  0  0  3  0  0  0  0  0  0
  190.7730  176.7280  144.9560 C   0  0  0  0  0  3  0  0  0  0  0  0
  184.8250  178.8340  140.6740 C   0  0  0  0  0  2  0  0  0  0  0  0
  183.2090  179.8190  139.0870 C   0  0  0  0  0  2  0  0  0  0  0  0
  184.4080  178.9050  139.2150 C   0  0  0  0  0  3  0  0  0  0  0  0
  183.0200  178.3170  139.0650 C   0  0  0  0  0  2  0  0  0  0  0  0
  189.0600  177.0900  139.6850 C   0  0  0  0  0  2  0  0  0  0  0  0
  190.4400  177.3570  139.1050 C   0  0  0  0  0  2  0  0  0  0  0  0
  190.4310  177.1290  137.6700 N   0  0  0  0  0  2  0  0  0  0  0  0
  191.5220  176.2130  137.3860 C   0  0  0  0  0  2  0  0  0  0  0  0
  192.6730  176.4670  138.3410 C   0  0  0  0  0  2  0  0  0  0  0  0
  193.6690  176.0020  136.2870 C   0  0  0  0  0  1  0  0  0  0  0  0
  193.9290  176.0980  137.7120 N   0  0  0  0  0  2  0  0  0  0  0  0
  1 22  1  6  0  0  0
  1  7  1  0  0  0  0
  2  3  1  0  0  0  0
  2 14  1  0  0  0  0
  3  6  1  0  0  0  0
  4  2  2  0  0  0  0
  5  8  1  0  0  0  0
  7  8  2  0  0  0  0
  7  4  1  0  0  0  0
  8 10  1  0  0  0  0
  9  1  1  0  0  0  0
  9  5  1  0  0  0  0
 10  3  2  0  0  0  0
 13 11  1  0  0  0  0
 13 12  1  0  0  0  0
 14 16  1  0  0  0  0
 15 13  2  0  0  0  0
 16 11  2  0  0  0  0
 17 14  2  0  0  0  0
 17 15  1  0  0  0  0
 18  5  1  0  0  0  0
 19 20  1  0  0  0  0
 20 18  1  0  0  0  0
 21 19  1  0  0  0  0
 21 20  1  0  0  0  0
 23 22  1  0  0  0  0
 24 23  1  0  0  0  0
 25 24  1  0  0  0  0
 25 26  1  0  0  0  0
 27 28  1  0  0  0  0
 28 26  1  0  0  0  0
M  END
>  <MODEL>
7

>  <REMARK>
 VINA RESULT:      -7.8      3.434      6.993
  Name = 
  9 active torsions:
  status: ('A' for Active; 'I' for Inactive)
    1  A    between atoms: C_1  and  C_16
    2  A    between atoms: C_2  and  C_15
    3  A    between atoms: C_6  and  C_10
    4  A    between atoms: C_6  and  N_12
    5  A    between atoms: C_11  and  C_16
    6  A    between atoms: C_11  and  N_27
    7  A    between atoms: C_17  and  C_18
    8  A    between atoms: C_17  and  N_27
    9  A    between atoms: C_18  and  N_22
                            x       y       z     vdW  Elec       q    Type
                         _______ _______ _______ _____ _____    ______ ____

>  <TORSDO>
F 9

$$$$
=
 OpenBabel11032420173D

 28 31  0  0  1  0  0  0  0  0999 V2000
  187.9530  178.4470  140.0830 C   0  0  2  0  0  3  0  0  0  0  0  0
  186.3760  178.2500  143.6040 C   0  0  0  0  0  0  0  0  0  0  0  0
  185.0200  178.3610  143.1640 C   0  0  0  0  0  0  0  0  0  0  0  0
  187.4080  178.2600  142.6370 C   0  0  0  0  0  3  0  0  0  0  0  0
  185.7420  178.6490  139.4950 N   0  0  0  0  0  0  0  0  0  0  0  0
  183.9300  178.3070  144.0790 N   0  0  0  0  0  1  0  0  0  0  0  0
  187.0730  178.3810  141.2900 C   0  0  0  0  0  0  0  0  0  0  0  0
  185.7890  178.5050  140.8940 C   0  0  0  0  0  0  0  0  0  0  0  0
  187.0370  178.6290  138.9350 N   0  0  0  0  0  2  0  0  0  0  0  0
  184.7280  178.4950  141.7950 C   0  0  0  0  0  3  0  0  0  0  0  0
  186.3750  178.6050  147.3970 C   0  0  0  0  0  3  0  0  0  0  0  0
  187.9040  177.7960  149.0340 F   0  0  0  0  0  0  0  0  0  0  0  0
  187.5330  177.9030  147.7360 C   0  0  0  0  0  0  0  0  0  0  0  0
  186.7570  178.1220  145.0390 C   0  0  0  0  0  0  0  0  0  0  0  0
  188.3110  177.3160  146.7360 C   0  0  0  0  0  3  0  0  0  0  0  0
  185.9920  178.7150  146.0570 C   0  0  0  0  0  3  0  0  0  0  0  0
  187.9260  177.4270  145.3970 C   0  0  0  0  0  3  0  0  0  0  0  0
  184.5110  178.8020  138.7240 C   0  0  0  0  0  2  0  0  0  0  0  0
  182.8200  177.6700  137.3240 C   0  0  0  0  0  2  0  0  0  0  0  0
  184.2300  177.5800  137.8650 C   0  0  0  0  0  3  0  0  0  0  0  0
  183.1200  176.7680  138.5020 C   0  0  0  0  0  2  0  0  0  0  0  0
  188.7350  177.1510  139.9010 C   0  0  0  0  0  2  0  0  0  0  0  0
  190.1820  177.3100  140.3410 C   0  0  0  0  0  2  0  0  0  0  0  0
  190.4360  176.5060  141.5230 N   0  0  0  0  0  2  0  0  0  0  0  0
  191.1910  177.3410  142.4410 C   0  0  0  0  0  2  0  0  0  0  0  0
  191.6440  176.5190  143.6340 C   0  0  0  0  0  2  0  0  0  0  0  0
  191.6900  176.4110  145.9600 C   0  0  0  0  0  1  0  0  0  0  0  0
  191.5980  177.3280  144.8390 N   0  0  0  0  0  2  0  0  0  0  0  0
  1 22  1  6  0  0  0
  1  7  1  0  0  0  0
  2 14  1  0  0  0  0
  3  2  1  0  0  0  0
  3  6  1  0  0  0  0
  4  2  2  0  0  0  0
  5  8  1  0  0  0  0
  7  4  1  0  0  0  0
  8  7  2  0  0  0  0
  8 10  1  0  0  0  0
  9  5  1  0  0  0  0
  9  1  1  0  0  0  0
 10  3  2  0  0  0  0
 11 13  1  0  0  0  0
 13 12  1  0  0  0  0
 14 17  2  0  0  0  0
 14 16  1  0  0  0  0
 15 13  2  0  0  0  0
 16 11  2  0  0  0  0
 17 15  1  0  0  0  0
 18  5  1  0  0  0  0
 19 20  1  0  0  0  0
 19 21  1  0  0  0  0
 20 21  1  0  0  0  0
 20 18  1  0  0  0  0
 22 23  1  0  0  0  0
 23 24  1  0  0  0  0
 24 25  1  0  0  0  0
 25 26  1  0  0  0  0
 26 28  1  0  0  0  0
 28 27  1  0  0  0  0
M  END
>  <MODEL>
8

>  <REMARK>
 VINA RESULT:      -7.8      2.808      6.775
  Name = 
  9 active torsions:
  status: ('A' for Active; 'I' for Inactive)
    1  A    between atoms: C_1  and  C_16
    2  A    between atoms: C_2  and  C_15
    3  A    between atoms: C_6  and  C_10
    4  A    between atoms: C_6  and  N_12
    5  A    between atoms: C_11  and  C_16
    6  A    between atoms: C_11  and  N_27
    7  A    between atoms: C_17  and  C_18
    8  A    between atoms: C_17  and  N_27
    9  A    between atoms: C_18  and  N_22
                            x       y       z     vdW  Elec       q    Type
                         _______ _______ _______ _____ _____    ______ ____

>  <TORSDO>
F 9

$$$$
=
 OpenBabel11032420173D

 28 31  0  0  1  0  0  0  0  0999 V2000
  188.0160  178.2100  144.3100 C   0  0  2  0  0  3  0  0  0  0  0  0
  189.1260  177.6760  140.6490 C   0  0  0  0  0  0  0  0  0  0  0  0
  190.4040  177.1160  140.9640 C   0  0  0  0  0  0  0  0  0  0  0  0
  188.2710  178.0550  141.7090 C   0  0  0  0  0  3  0  0  0  0  0  0
  190.1010  177.3270  144.6950 N   0  0  0  0  0  0  0  0  0  0  0  0
  191.2940  176.6660  139.9470 N   0  0  0  0  0  1  0  0  0  0  0  0
  188.6980  177.8740  143.0230 C   0  0  0  0  0  0  0  0  0  0  0  0
  189.9150  177.3610  143.3020 C   0  0  0  0  0  0  0  0  0  0  0  0
  188.9750  177.8390  145.3750 N   0  0  0  0  0  2  0  0  0  0  0  0
  190.8000  176.9630  142.3040 C   0  0  0  0  0  3  0  0  0  0  0  0
  188.7690  179.0320  137.1070 C   0  0  0  0  0  3  0  0  0  0  0  0
  187.2360  178.4650  135.3740 F   0  0  0  0  0  0  0  0  0  0  0  0
  187.6940  178.2770  136.6340 C   0  0  0  0  0  0  0  0  0  0  0  0
  188.6510  177.8810  139.2520 C   0  0  0  0  0  0  0  0  0  0  0  0
  187.0880  177.3290  137.4630 C   0  0  0  0  0  3  0  0  0  0  0  0
  189.2410  178.8370  138.4080 C   0  0  0  0  0  3  0  0  0  0  0  0
  187.5630  177.1360  138.7640 C   0  0  0  0  0  3  0  0  0  0  0  0
  191.3050  176.8250  145.3530 C   0  0  0  0  0  2  0  0  0  0  0  0
  191.9870  176.7520  147.7260 C   0  0  0  0  0  2  0  0  0  0  0  0
  190.9940  176.2240  146.7130 C   0  0  0  0  0  3  0  0  0  0  0  0
  192.1590  175.3610  147.1540 C   0  0  0  0  0  2  0  0  0  0  0  0
  186.7370  177.3980  144.4830 C   0  0  0  0  0  2  0  0  0  0  0  0
  185.5740  178.2800  144.9100 C   0  0  0  0  0  2  0  0  0  0  0  0
  184.5250  178.2450  143.9060 N   0  0  0  0  0  2  0  0  0  0  0  0
  184.9260  179.1610  142.8520 C   0  0  0  0  0  2  0  0  0  0  0  0
  184.5630  178.5810  141.4970 C   0  0  0  0  0  2  0  0  0  0  0  0
  184.2260  179.3450  139.3230 C   0  0  0  0  0  1  0  0  0  0  0  0
  185.1510  179.3840  140.4400 N   0  0  0  0  0  2  0  0  0  0  0  0
  1 22  1  1  0  0  0
  1  9  1  0  0  0  0
  2  3  2  0  0  0  0
  2  4  1  0  0  0  0
  3 10  1  0  0  0  0
  4  7  2  0  0  0  0
  5 18  1  0  0  0  0
  5  9  1  0  0  0  0
  6  3  1  0  0  0  0
  7  8  1  0  0  0  0
  7  1  1  0  0  0  0
  8  5  1  0  0  0  0
 10  8  2  0  0  0  0
 11 16  1  0  0  0  0
 12 13  1  0  0  0  0
 13 11  2  0  0  0  0
 13 15  1  0  0  0  0
 14  2  1  0  0  0  0
 15 17  2  0  0  0  0
 16 14  2  0  0  0  0
 17 14  1  0  0  0  0
 18 20  1  0  0  0  0
 20 21  1  0  0  0  0
 20 19  1  0  0  0  0
 21 19  1  0  0  0  0
 22 23  1  0  0  0  0
 24 23  1  0  0  0  0
 25 24  1  0  0  0  0
 26 25  1  0  0  0  0
 27 28  1  0  0  0  0
 28 26  1  0  0  0  0
M  END
>  <MODEL>
9

>  <REMARK>
 VINA RESULT:      -7.6      2.359      5.451
  Name = 
  9 active torsions:
  status: ('A' for Active; 'I' for Inactive)
    1  A    between atoms: C_1  and  C_16
    2  A    between atoms: C_2  and  C_15
    3  A    between atoms: C_6  and  C_10
    4  A    between atoms: C_6  and  N_12
    5  A    between atoms: C_11  and  C_16
    6  A    between atoms: C_11  and  N_27
    7  A    between atoms: C_17  and  C_18
    8  A    between atoms: C_17  and  N_27
    9  A    between atoms: C_18  and  N_22
                            x       y       z     vdW  Elec       q    Type
                         _______ _______ _______ _____ _____    ______ ____

>  <TORSDO>
F 9

$$$$
