=
 OpenBabel11042409593D

 38 40  0  0  1  0  0  0  0  0999 V2000
  184.4420  178.4810  142.6660 C   0  0  0  0  0  3  0  0  0  0  0  0
  184.9200  178.9160  141.4970 C   0  0  0  0  0  0  0  0  0  0  0  0
  185.9740  178.1270  144.7980 C   0  0  0  0  0  0  0  0  0  0  0  0
  185.2690  178.2830  143.8300 C   0  0  0  0  0  0  0  0  0  0  0  0
  186.8260  177.9480  145.9390 C   0  0  0  0  0  0  0  0  0  0  0  0
  187.7020  176.7220  146.0030 C   0  0  0  0  0  2  0  0  0  0  0  0
  187.5280  178.6920  148.2110 C   0  0  0  0  0  2  0  0  0  0  0  0
  186.6970  178.7930  146.9670 C   0  0  0  0  0  3  0  0  0  0  0  0
  187.9680  177.2540  148.4640 C   0  0  0  0  0  2  0  0  0  0  0  0
  188.6390  176.6760  147.2180 C   0  0  2  0  0  3  0  0  0  0  0  0
  190.9050  177.2060  147.7450 O   0  0  0  0  0  1  0  0  0  0  0  0
  189.9550  177.3310  146.9310 C   0  0  0  0  0  0  0  0  0  0  0  0
  190.1280  178.1060  145.7890 O   0  0  0  0  0  0  0  0  0  0  0  0
  184.0060  179.0700  140.4070 N   0  0  0  0  0  2  0  0  0  0  0  0
  182.8420  178.2190  140.2090 C   0  0  0  0  0  2  0  0  0  0  0  0
  181.6730  179.0040  139.0590 S   0  0  0  0  0  0  0  0  0  0  0  0
  180.6790  179.7010  140.4090 C   0  0  0  0  0  2  0  0  0  0  0  0
  180.7840  178.8260  141.6430 C   0  0  0  0  0  2  0  0  0  0  0  0
  179.0150  178.2540  143.0810 O   0  0  0  0  0  0  0  0  0  0  0  0
  179.4630  178.2070  141.9470 C   0  0  0  0  0  3  0  0  0  0  0  0
  186.3720  179.2520  141.3240 C   0  0  0  0  0  2  0  0  0  0  0  0
  186.9460  178.4160  140.2830 N   0  0  0  0  0  2  0  0  0  0  0  0
  188.7970  176.9070  142.2800 N   0  0  0  0  0  1  0  0  0  0  0  0
  188.8450  179.3310  138.0720 O   0  0  0  0  0  0  0  0  0  0  0  0
  189.0030  177.3290  140.9370 C   0  0  0  0  0  0  0  0  0  0  0  0
  189.7530  176.6650  140.1160 N   0  0  0  0  0  0  0  0  0  0  0  0
  189.7600  177.3050  138.8770 N   0  0  0  0  0  0  0  0  0  0  0  0
  188.9730  178.4760  138.9880 C   0  0  0  0  0  0  0  0  0  0  0  0
  188.3880  178.5720  140.3510 C   0  0  1  0  0  3  0  0  0  0  0  0
  190.6770  176.9780  137.7970 C   0  0  0  0  0  2  0  0  0  0  0  0
  191.8360  174.7810  135.8950 C   0  0  0  0  0  2  0  0  0  0  0  0
  193.3110  175.1980  135.8930 C   0  0  2  0  0  3  0  0  0  0  0  0
  191.3470  174.5770  137.3280 C   0  0  0  0  0  2  0  0  0  0  0  0
  191.5850  175.8200  138.1940 C   0  0  1  0  0  3  0  0  0  0  0  0
  193.0570  176.2370  138.1660 C   0  0  0  0  0  2  0  0  0  0  0  0
  193.5590  176.4540  136.7400 C   0  0  0  0  0  2  0  0  0  0  0  0
  193.8590  175.2880  134.5940 O   0  0  0  0  0  0  0  0  0  0  0  0
  194.8920  176.2410  134.5940 C   0  0  0  0  0  1  0  0  0  0  0  0
  1  4  1  0  0  0  0
  2  1  2  0  0  0  0
  3  5  1  0  0  0  0
  4  3  3  0  0  0  0
  5  6  1  0  0  0  0
  5  8  2  0  0  0  0
  6 10  1  0  0  0  0
  7  9  1  0  0  0  0
  8  7  1  0  0  0  0
 10 12  1  6  0  0  0
 10  9  1  0  0  0  0
 12 11  1  0  0  0  0
 13 12  2  0  0  0  0
 14  2  1  0  0  0  0
 15 14  1  0  0  0  0
 16 15  1  0  0  0  0
 16 17  1  0  0  0  0
 17 18  1  0  0  0  0
 18 20  1  0  0  0  0
 20 19  2  0  0  0  0
 21  2  1  0  0  0  0
 22 21  1  0  0  0  0
 24 28  2  0  0  0  0
 25 23  1  0  0  0  0
 26 25  2  0  0  0  0
 27 28  1  0  0  0  0
 27 26  1  0  0  0  0
 28 29  1  0  0  0  0
 29 22  1  6  0  0  0
 29 25  1  0  0  0  0
 30 27  1  0  0  0  0
 31 33  1  0  0  0  0
 32 37  1  6  0  0  0
 32 31  1  0  0  0  0
 32 36  1  0  0  0  0
 33 34  1  0  0  0  0
 34 30  1  6  0  0  0
 35 34  1  0  0  0  0
 36 35  1  0  0  0  0
 38 37  1  0  0  0  0
M  END
>  <MODEL>
1

>  <REMARK>
 VINA RESULT:      -6.9      0.000      0.000
  Name = 
  15 active torsions:
  status: ('A' for Active; 'I' for Inactive)
    1  A    between atoms: N_1  and  C_22
    2  A    between atoms: N_1  and  C_28
    3  A    between atoms: C_3  and  C_4
    4  A    between atoms: C_3  and  C_19
    5  A    between atoms: S_7  and  C_19
    6  A    between atoms: S_7  and  C_22
    7  A    between atoms: C_9  and  C_30
    8  A    between atoms: C_11  and  O_18
    9  A    between atoms: C_14  and  C_31
   10  A    between atoms: N_20  and  C_29
   11  A    between atoms: C_23  and  C_29
   12  A    between atoms: C_28  and  C_36
   13  A    between atoms: C_32  and  C_37
   14  A    between atoms: C_33  and  N_35
   15  A    between atoms: N_35  and  C_36
                            x       y       z     vdW  Elec       q    Type
                         _______ _______ _______ _____ _____    ______ ____

>  <TORSDO>
F 15

$$$$
=
 OpenBabel11042409593D

 38 40  0  0  1  0  0  0  0  0999 V2000
  186.5200  177.1250  136.8130 C   0  0  0  0  0  2  0  0  0  0  0  0
  187.7640  177.4350  137.1890 C   0  0  0  0  0  0  0  0  0  0  0  0
  184.3790  177.9080  138.1620 C   0  0  0  0  0  0  0  0  0  0  0  0
  185.3490  177.5480  137.5410 C   0  0  0  0  0  0  0  0  0  0  0  0
  183.2360  178.3410  138.9140 C   0  0  0  0  0  0  0  0  0  0  0  0
  182.6510  177.4060  139.9440 C   0  0  0  0  0  2  0  0  0  0  0  0
  181.4390  180.0280  139.2790 C   0  0  0  0  0  2  0  0  0  0  0  0
  182.6440  179.4880  138.5670 C   0  0  0  0  0  3  0  0  0  0  0  0
  180.6100  178.9040  139.8900 C   0  0  0  0  0  2  0  0  0  0  0  0
  181.4920  178.0020  140.7550 C   0  0  2  0  0  3  0  0  0  0  0  0
  183.1660  178.5480  142.3650 O   0  0  0  0  0  0  0  0  0  0  0  0
  181.9770  178.7030  141.9870 C   0  0  0  0  0  0  0  0  0  0  0  0
  181.1170  179.4960  142.7370 O   0  0  0  0  0  1  0  0  0  0  0  0
  188.8510  176.9560  136.3930 N   0  0  0  0  0  0  0  0  0  0  0  0
  190.2450  177.0320  136.8070 C   0  0  0  0  0  2  0  0  0  0  0  0
  190.6500  175.6520  137.9200 S   0  0  0  0  0  0  0  0  0  0  0  0
  192.0390  175.1120  136.8850 C   0  0  0  0  0  2  0  0  0  0  0  0
  193.2810  175.9190  137.2090 C   0  0  0  0  0  2  0  0  0  0  0  0
  195.4700  176.0770  136.3680 O   0  0  0  0  0  0  0  0  0  0  0  0
  194.3300  175.6850  136.1780 C   0  0  0  0  0  3  0  0  0  0  0  0
  188.0250  178.2750  138.4050 C   0  0  0  0  0  2  0  0  0  0  0  0
  187.8630  177.4660  139.6010 N   0  0  0  0  0  2  0  0  0  0  0  0
  186.0220  179.4490  141.1400 N   0  0  0  0  0  1  0  0  0  0  0  0
  190.1550  176.9330  141.5490 O   0  0  0  0  0  0  0  0  0  0  0  0
  187.0890  178.6180  141.5800 C   0  0  0  0  0  0  0  0  0  0  0  0
  187.1090  178.0950  142.7650 N   0  0  0  0  0  0  0  0  0  0  0  0
  188.2630  177.3260  142.9100 N   0  0  0  0  0  0  0  0  0  0  0  0
  189.0130  177.4360  141.7150 C   0  0  0  0  0  0  0  0  0  0  0  0
  188.2840  178.2770  140.7300 C   0  0  1  0  0  3  0  0  0  0  0  0
  188.7320  176.7930  144.1790 C   0  0  0  0  0  2  0  0  0  0  0  0
  189.6060  176.6110  147.1780 C   0  0  0  0  0  2  0  0  0  0  0  0
  191.1260  176.5320  146.9960 C   0  0  2  0  0  3  0  0  0  0  0  0
  189.0530  177.8450  146.4660 C   0  0  0  0  0  2  0  0  0  0  0  0
  189.4470  177.8730  144.9840 C   0  0  1  0  0  3  0  0  0  0  0  0
  190.9650  177.7720  144.8170 C   0  0  0  0  0  2  0  0  0  0  0  0
  191.5330  176.5390  145.5160 C   0  0  0  0  0  2  0  0  0  0  0  0
  191.7180  175.4800  147.7300 O   0  0  0  0  0  0  0  0  0  0  0  0
  192.9020  175.9440  148.3280 C   0  0  0  0  0  1  0  0  0  0  0  0
  1  2  1  0  0  0  0
  1  4  1  0  0  0  0
  2 21  1  0  0  0  0
  3  5  1  0  0  0  0
  4  3  3  0  0  0  0
  5  6  1  0  0  0  0
  6 10  1  0  0  0  0
  7  9  1  0  0  0  0
  8  5  2  0  0  0  0
  8  7  1  0  0  0  0
  9 10  1  0  0  0  0
 10 12  1  1  0  0  0
 12 11  2  0  0  0  0
 12 13  1  0  0  0  0
 14 15  1  0  0  0  0
 14  2  2  0  0  0  0
 15 16  1  0  0  0  0
 17 18  1  0  0  0  0
 17 16  1  0  0  0  0
 20 19  2  0  0  0  0
 20 18  1  0  0  0  0
 21 22  1  0  0  0  0
 23 25  1  0  0  0  0
 24 28  2  0  0  0  0
 25 26  2  0  0  0  0
 26 27  1  0  0  0  0
 27 30  1  0  0  0  0
 28 27  1  0  0  0  0
 29 22  1  6  0  0  0
 29 25  1  0  0  0  0
 29 28  1  0  0  0  0
 32 31  1  0  0  0  0
 32 37  1  6  0  0  0
 33 31  1  0  0  0  0
 34 30  1  6  0  0  0
 34 33  1  0  0  0  0
 35 34  1  0  0  0  0
 35 36  1  0  0  0  0
 36 32  1  0  0  0  0
 37 38  1  0  0  0  0
M  END
>  <MODEL>
2

>  <REMARK>
 VINA RESULT:      -6.9      2.612      9.152
  Name = 
  15 active torsions:
  status: ('A' for Active; 'I' for Inactive)
    1  A    between atoms: N_1  and  C_22
    2  A    between atoms: N_1  and  C_28
    3  A    between atoms: C_3  and  C_4
    4  A    between atoms: C_3  and  C_19
    5  A    between atoms: S_7  and  C_19
    6  A    between atoms: S_7  and  C_22
    7  A    between atoms: C_9  and  C_30
    8  A    between atoms: C_11  and  O_18
    9  A    between atoms: C_14  and  C_31
   10  A    between atoms: N_20  and  C_29
   11  A    between atoms: C_23  and  C_29
   12  A    between atoms: C_28  and  C_36
   13  A    between atoms: C_32  and  C_37
   14  A    between atoms: C_33  and  N_35
   15  A    between atoms: N_35  and  C_36
                            x       y       z     vdW  Elec       q    Type
                         _______ _______ _______ _____ _____    ______ ____

>  <TORSDO>
F 15

$$$$
=
 OpenBabel11042409593D

 38 40  0  0  1  0  0  0  0  0999 V2000
  184.5980  178.6990  144.2330 C   0  0  0  0  0  3  0  0  0  0  0  0
  183.7740  178.6990  143.1820 C   0  0  0  0  0  0  0  0  0  0  0  0
  187.0980  177.8350  144.0950 C   0  0  0  0  0  0  0  0  0  0  0  0
  185.9610  178.2340  144.1660 C   0  0  0  0  0  0  0  0  0  0  0  0
  188.4450  177.3480  144.0010 C   0  0  0  0  0  0  0  0  0  0  0  0
  189.5540  178.1650  144.6150 C   0  0  0  0  0  2  0  0  0  0  0  0
  190.0500  175.6870  143.0680 C   0  0  0  0  0  2  0  0  0  0  0  0
  188.6800  176.2720  143.2430 C   0  0  0  0  0  3  0  0  0  0  0  0
  191.1290  176.7520  143.2250 C   0  0  0  0  0  2  0  0  0  0  0  0
  190.9400  177.5100  144.5400 C   0  0  2  0  0  3  0  0  0  0  0  0
  190.6550  176.9040  146.8300 O   0  0  0  0  0  1  0  0  0  0  0  0
  191.2140  176.6470  145.7330 C   0  0  0  0  0  0  0  0  0  0  0  0
  192.1050  175.5830  145.6510 O   0  0  0  0  0  0  0  0  0  0  0  0
  182.4390  179.1790  143.3670 N   0  0  0  0  0  2  0  0  0  0  0  0
  181.5380  178.6700  144.3910 C   0  0  0  0  0  2  0  0  0  0  0  0
  179.8460  178.5400  143.7370 S   0  0  0  0  0  0  0  0  0  0  0  0
  179.9600  180.1400  142.8880 C   0  0  0  0  0  2  0  0  0  0  0  0
  179.4610  180.0150  141.4610 C   0  0  0  0  0  2  0  0  0  0  0  0
  179.3860  178.3040  139.8520 O   0  0  0  0  0  0  0  0  0  0  0  0
  179.4780  178.5870  141.0350 C   0  0  0  0  0  3  0  0  0  0  0  0
  184.2300  178.2240  141.8330 C   0  0  0  0  0  2  0  0  0  0  0  0
  183.0740  177.9280  141.0040 N   0  0  0  0  0  2  0  0  0  0  0  0
  182.6280  175.4220  139.2110 N   0  0  0  0  0  1  0  0  0  0  0  0
  183.7050  180.1530  139.0080 O   0  0  0  0  0  0  0  0  0  0  0  0
  182.6840  176.8080  138.8970 C   0  0  0  0  0  0  0  0  0  0  0  0
  181.9900  177.3230  137.9320 N   0  0  0  0  0  0  0  0  0  0  0  0
  182.2370  178.6930  137.8660 N   0  0  0  0  0  0  0  0  0  0  0  0
  183.1950  179.0120  138.8580 C   0  0  0  0  0  0  0  0  0  0  0  0
  183.5480  177.7950  139.6380 C   0  0  1  0  0  3  0  0  0  0  0  0
  181.8200  179.5440  136.7630 C   0  0  0  0  0  2  0  0  0  0  0  0
  181.1140  182.4970  137.5140 C   0  0  0  0  0  2  0  0  0  0  0  0
  180.4410  182.9390  136.2090 C   0  0  2  0  0  3  0  0  0  0  0  0
  180.4410  181.2370  138.0550 C   0  0  0  0  0  2  0  0  0  0  0  0
  180.4270  180.1080  137.0170 C   0  0  1  0  0  3  0  0  0  0  0  0
  179.7710  180.5690  135.7130 C   0  0  0  0  0  2  0  0  0  0  0  0
  180.4390  181.8240  135.1540 C   0  0  0  0  0  2  0  0  0  0  0  0
  180.9370  184.1670  135.7180 O   0  0  0  0  0  0  0  0  0  0  0  0
  181.0360  185.0820  136.7820 C   0  0  0  0  0  1  0  0  0  0  0  0
  2 14  1  0  0  0  0
  2  1  2  0  0  0  0
  3  4  3  0  0  0  0
  4  1  1  0  0  0  0
  5  3  1  0  0  0  0
  5  6  1  0  0  0  0
  7  9  1  0  0  0  0
  7  8  1  0  0  0  0
  8  5  2  0  0  0  0
  9 10  1  0  0  0  0
 10  6  1  0  0  0  0
 10 12  1  1  0  0  0
 12 11  1  0  0  0  0
 13 12  2  0  0  0  0
 14 15  1  0  0  0  0
 16 15  1  0  0  0  0
 17 16  1  0  0  0  0
 18 17  1  0  0  0  0
 19 20  2  0  0  0  0
 20 18  1  0  0  0  0
 21  2  1  0  0  0  0
 22 21  1  0  0  0  0
 25 23  1  0  0  0  0
 25 29  1  0  0  0  0
 26 25  2  0  0  0  0
 27 26  1  0  0  0  0
 27 28  1  0  0  0  0
 28 24  2  0  0  0  0
 28 29  1  0  0  0  0
 29 22  1  1  0  0  0
 30 27  1  0  0  0  0
 31 33  1  0  0  0  0
 32 37  1  6  0  0  0
 32 31  1  0  0  0  0
 34 30  1  6  0  0  0
 34 33  1  0  0  0  0
 35 34  1  0  0  0  0
 36 35  1  0  0  0  0
 36 32  1  0  0  0  0
 37 38  1  0  0  0  0
M  END
>  <MODEL>
3

>  <REMARK>
 VINA RESULT:      -6.9      4.707      7.752
  Name = 
  15 active torsions:
  status: ('A' for Active; 'I' for Inactive)
    1  A    between atoms: N_1  and  C_22
    2  A    between atoms: N_1  and  C_28
    3  A    between atoms: C_3  and  C_4
    4  A    between atoms: C_3  and  C_19
    5  A    between atoms: S_7  and  C_19
    6  A    between atoms: S_7  and  C_22
    7  A    between atoms: C_9  and  C_30
    8  A    between atoms: C_11  and  O_18
    9  A    between atoms: C_14  and  C_31
   10  A    between atoms: N_20  and  C_29
   11  A    between atoms: C_23  and  C_29
   12  A    between atoms: C_28  and  C_36
   13  A    between atoms: C_32  and  C_37
   14  A    between atoms: C_33  and  N_35
   15  A    between atoms: N_35  and  C_36
                            x       y       z     vdW  Elec       q    Type
                         _______ _______ _______ _____ _____    ______ ____

>  <TORSDO>
F 15

$$$$
=
 OpenBabel11042409593D

 38 40  0  0  1  0  0  0  0  0999 V2000
  183.3860  178.7420  144.6550 C   0  0  0  0  0  3  0  0  0  0  0  0
  183.0460  179.0060  143.3900 C   0  0  0  0  0  0  0  0  0  0  0  0
  185.8590  178.1670  145.4090 C   0  0  0  0  0  0  0  0  0  0  0  0
  184.7330  178.4220  145.0580 C   0  0  0  0  0  0  0  0  0  0  0  0
  187.1970  177.8760  145.8360 C   0  0  0  0  0  0  0  0  0  0  0  0
  188.0850  177.0590  144.9300 C   0  0  0  0  0  2  0  0  0  0  0  0
  188.9230  177.9430  147.6320 C   0  0  0  0  0  2  0  0  0  0  0  0
  187.5540  178.2090  147.0810 C   0  0  0  0  0  3  0  0  0  0  0  0
  189.5630  176.7330  146.9600 C   0  0  0  0  0  2  0  0  0  0  0  0
  189.5230  176.8860  145.4390 C   0  0  2  0  0  3  0  0  0  0  0  0
  189.9640  178.8720  144.1910 O   0  0  0  0  0  0  0  0  0  0  0  0
  190.4190  177.9870  144.9600 C   0  0  0  0  0  0  0  0  0  0  0  0
  191.7590  178.0230  145.3280 O   0  0  0  0  0  1  0  0  0  0  0  0
  181.6770  179.3050  143.1050 N   0  0  0  0  0  2  0  0  0  0  0  0
  180.5590  178.7310  143.8410 C   0  0  0  0  0  2  0  0  0  0  0  0
  179.0000  179.5260  143.3460 S   0  0  0  0  0  0  0  0  0  0  0  0
  179.5830  179.8080  141.6500 C   0  0  0  0  0  2  0  0  0  0  0  0
  179.1580  181.1830  141.1710 C   0  0  0  0  0  2  0  0  0  0  0  0
  180.7360  180.8580  139.4590 O   0  0  0  0  0  0  0  0  0  0  0  0
  179.7430  181.4630  139.8300 C   0  0  0  0  0  3  0  0  0  0  0  0
  184.0680  179.0060  142.2920 C   0  0  0  0  0  2  0  0  0  0  0  0
  183.9790  177.7640  141.5420 N   0  0  0  0  0  2  0  0  0  0  0  0
  184.8740  179.7080  139.2820 N   0  0  0  0  0  1  0  0  0  0  0  0
  181.8840  175.9930  140.1980 O   0  0  0  0  0  0  0  0  0  0  0  0
  184.1400  178.4900  139.2420 C   0  0  0  0  0  0  0  0  0  0  0  0
  184.2170  177.6740  138.2390 N   0  0  0  0  0  0  0  0  0  0  0  0
  183.4040  176.5680  138.4810 N   0  0  0  0  0  0  0  0  0  0  0  0
  182.7570  176.7660  139.7250 C   0  0  0  0  0  0  0  0  0  0  0  0
  183.2130  178.0410  140.3400 C   0  0  1  0  0  3  0  0  0  0  0  0
  183.0590  175.5750  137.4770 C   0  0  0  0  0  2  0  0  0  0  0  0
  184.7070  172.9200  137.6230 C   0  0  0  0  0  2  0  0  0  0  0  0
  184.3010  172.2930  136.2840 C   0  0  2  0  0  3  0  0  0  0  0  0
  185.2650  174.3250  137.4000 C   0  0  0  0  0  2  0  0  0  0  0  0
  184.2790  175.2160  136.6360 C   0  0  1  0  0  3  0  0  0  0  0  0
  183.8660  174.5680  135.3120 C   0  0  0  0  0  2  0  0  0  0  0  0
  183.2970  173.1660  135.5180 C   0  0  0  0  0  2  0  0  0  0  0  0
  183.8880  170.9480  136.4060 O   0  0  0  0  0  0  0  0  0  0  0  0
  182.5650  170.8280  135.9440 C   0  0  0  0  0  1  0  0  0  0  0  0
  1  4  1  0  0  0  0
  2  1  2  0  0  0  0
  3  5  1  0  0  0  0
  4  3  3  0  0  0  0
  5  8  2  0  0  0  0
  6 10  1  0  0  0  0
  6  5  1  0  0  0  0
  8  7  1  0  0  0  0
  9  7  1  0  0  0  0
 10 12  1  1  0  0  0
 10  9  1  0  0  0  0
 11 12  2  0  0  0  0
 12 13  1  0  0  0  0
 14  2  1  0  0  0  0
 14 15  1  0  0  0  0
 16 15  1  0  0  0  0
 17 16  1  0  0  0  0
 18 17  1  0  0  0  0
 19 20  2  0  0  0  0
 20 18  1  0  0  0  0
 21  2  1  0  0  0  0
 22 21  1  0  0  0  0
 25 23  1  0  0  0  0
 25 29  1  0  0  0  0
 26 27  1  0  0  0  0
 26 25  2  0  0  0  0
 27 28  1  0  0  0  0
 28 24  2  0  0  0  0
 28 29  1  0  0  0  0
 29 22  1  1  0  0  0
 30 27  1  0  0  0  0
 32 37  1  1  0  0  0
 32 31  1  0  0  0  0
 33 31  1  0  0  0  0
 34 33  1  0  0  0  0
 34 30  1  1  0  0  0
 35 36  1  0  0  0  0
 35 34  1  0  0  0  0
 36 32  1  0  0  0  0
 38 37  1  0  0  0  0
M  END
>  <MODEL>
4

>  <REMARK>
 VINA RESULT:      -6.8      4.767      5.767
  Name = 
  15 active torsions:
  status: ('A' for Active; 'I' for Inactive)
    1  A    between atoms: N_1  and  C_22
    2  A    between atoms: N_1  and  C_28
    3  A    between atoms: C_3  and  C_4
    4  A    between atoms: C_3  and  C_19
    5  A    between atoms: S_7  and  C_19
    6  A    between atoms: S_7  and  C_22
    7  A    between atoms: C_9  and  C_30
    8  A    between atoms: C_11  and  O_18
    9  A    between atoms: C_14  and  C_31
   10  A    between atoms: N_20  and  C_29
   11  A    between atoms: C_23  and  C_29
   12  A    between atoms: C_28  and  C_36
   13  A    between atoms: C_32  and  C_37
   14  A    between atoms: C_33  and  N_35
   15  A    between atoms: N_35  and  C_36
                            x       y       z     vdW  Elec       q    Type
                         _______ _______ _______ _____ _____    ______ ____

>  <TORSDO>
F 15

$$$$
=
 OpenBabel11042409593D

 38 40  0  0  1  0  0  0  0  0999 V2000
  183.4640  178.9490  145.0230 C   0  0  0  0  0  3  0  0  0  0  0  0
  183.1280  179.0480  143.7340 C   0  0  0  0  0  0  0  0  0  0  0  0
  185.9040  178.2970  145.8210 C   0  0  0  0  0  0  0  0  0  0  0  0
  184.7890  178.5940  145.4670 C   0  0  0  0  0  0  0  0  0  0  0  0
  187.2340  177.9440  146.2270 C   0  0  0  0  0  0  0  0  0  0  0  0
  188.0500  177.0470  145.3280 C   0  0  0  0  0  2  0  0  0  0  0  0
  189.0070  177.9700  147.9770 C   0  0  0  0  0  2  0  0  0  0  0  0
  187.6410  178.2960  147.4500 C   0  0  0  0  0  3  0  0  0  0  0  0
  189.5580  176.7030  147.3330 C   0  0  0  0  0  2  0  0  0  0  0  0
  189.4880  176.8080  145.8090 C   0  0  2  0  0  3  0  0  0  0  0  0
  191.6530  177.7810  145.5710 O   0  0  0  0  0  1  0  0  0  0  0  0
  190.4330  177.8370  145.2710 C   0  0  0  0  0  0  0  0  0  0  0  0
  189.9720  178.8750  144.4690 O   0  0  0  0  0  0  0  0  0  0  0  0
  181.7800  179.4030  143.4110 N   0  0  0  0  0  2  0  0  0  0  0  0
  180.6200  178.6570  143.8770 C   0  0  0  0  0  2  0  0  0  0  0  0
  179.1260  179.1910  142.9880 S   0  0  0  0  0  0  0  0  0  0  0  0
  180.0770  180.2090  141.8260 C   0  0  0  0  0  2  0  0  0  0  0  0
  179.8050  179.7720  140.4000 C   0  0  0  0  0  2  0  0  0  0  0  0
  181.5550  180.5320  139.0270 O   0  0  0  0  0  0  0  0  0  0  0  0
  180.4240  180.7290  139.4410 C   0  0  0  0  0  3  0  0  0  0  0  0
  184.1330  178.8110  142.6460 C   0  0  0  0  0  2  0  0  0  0  0  0
  183.4670  178.8350  141.3540 N   0  0  0  0  0  2  0  0  0  0  0  0
  181.8290  176.7810  139.6840 N   0  0  0  0  0  1  0  0  0  0  0  0
  186.2580  178.7240  140.1170 O   0  0  0  0  0  0  0  0  0  0  0  0
  183.0930  177.3910  139.4510 C   0  0  0  0  0  0  0  0  0  0  0  0
  183.5180  177.6590  138.2570 N   0  0  0  0  0  0  0  0  0  0  0  0
  184.7730  178.2600  138.3380 N   0  0  0  0  0  0  0  0  0  0  0  0
  185.1410  178.3180  139.7030 C   0  0  0  0  0  0  0  0  0  0  0  0
  184.0480  177.7730  140.5510 C   0  0  1  0  0  3  0  0  0  0  0  0
  185.6480  178.4740  137.1970 C   0  0  0  0  0  2  0  0  0  0  0  0
  188.0190  177.7260  135.2980 C   0  0  0  0  0  2  0  0  0  0  0  0
  188.6610  176.6020  136.1220 C   0  0  2  0  0  3  0  0  0  0  0  0
  186.5390  177.4290  135.0640 C   0  0  0  0  0  2  0  0  0  0  0  0
  185.7890  177.1940  136.3800 C   0  0  1  0  0  3  0  0  0  0  0  0
  186.4520  176.0850  137.2010 C   0  0  0  0  0  2  0  0  0  0  0  0
  187.9310  176.3710  137.4520 C   0  0  0  0  0  2  0  0  0  0  0  0
  190.0570  176.7550  136.2730 O   0  0  0  0  0  0  0  0  0  0  0  0
  190.7140  175.7800  135.5010 C   0  0  0  0  0  1  0  0  0  0  0  0
  1  4  1  0  0  0  0
  2  1  2  0  0  0  0
  3  5  1  0  0  0  0
  4  3  3  0  0  0  0
  5  8  2  0  0  0  0
  6 10  1  0  0  0  0
  6  5  1  0  0  0  0
  8  7  1  0  0  0  0
  9  7  1  0  0  0  0
 10 12  1  1  0  0  0
 10  9  1  0  0  0  0
 12 11  1  0  0  0  0
 13 12  2  0  0  0  0
 14  2  1  0  0  0  0
 14 15  1  0  0  0  0
 16 15  1  0  0  0  0
 17 16  1  0  0  0  0
 18 17  1  0  0  0  0
 19 20  2  0  0  0  0
 20 18  1  0  0  0  0
 21  2  1  0  0  0  0
 22 21  1  0  0  0  0
 25 23  1  0  0  0  0
 25 29  1  0  0  0  0
 26 27  1  0  0  0  0
 26 25  2  0  0  0  0
 27 28  1  0  0  0  0
 28 24  2  0  0  0  0
 28 29  1  0  0  0  0
 29 22  1  1  0  0  0
 30 27  1  0  0  0  0
 31 32  1  0  0  0  0
 32 37  1  1  0  0  0
 32 36  1  0  0  0  0
 33 31  1  0  0  0  0
 33 34  1  0  0  0  0
 34 30  1  1  0  0  0
 34 35  1  0  0  0  0
 35 36  1  0  0  0  0
 38 37  1  0  0  0  0
M  END
>  <MODEL>
5

>  <REMARK>
 VINA RESULT:      -6.8      2.896      4.096
  Name = 
  15 active torsions:
  status: ('A' for Active; 'I' for Inactive)
    1  A    between atoms: N_1  and  C_22
    2  A    between atoms: N_1  and  C_28
    3  A    between atoms: C_3  and  C_4
    4  A    between atoms: C_3  and  C_19
    5  A    between atoms: S_7  and  C_19
    6  A    between atoms: S_7  and  C_22
    7  A    between atoms: C_9  and  C_30
    8  A    between atoms: C_11  and  O_18
    9  A    between atoms: C_14  and  C_31
   10  A    between atoms: N_20  and  C_29
   11  A    between atoms: C_23  and  C_29
   12  A    between atoms: C_28  and  C_36
   13  A    between atoms: C_32  and  C_37
   14  A    between atoms: C_33  and  N_35
   15  A    between atoms: N_35  and  C_36
                            x       y       z     vdW  Elec       q    Type
                         _______ _______ _______ _____ _____    ______ ____

>  <TORSDO>
F 15

$$$$
=
 OpenBabel11042409593D

 38 40  0  0  1  0  0  0  0  0999 V2000
  186.9020  178.1050  143.2040 C   0  0  0  0  0  2  0  0  0  0  0  0
  187.7730  178.1160  142.1910 C   0  0  0  0  0  0  0  0  0  0  0  0
  184.3000  178.4630  142.8630 C   0  0  0  0  0  0  0  0  0  0  0  0
  185.4850  178.3050  143.0260 C   0  0  0  0  0  0  0  0  0  0  0  0
  182.8920  178.6440  142.6540 C   0  0  0  0  0  0  0  0  0  0  0  0
  182.3880  178.8310  141.2440 C   0  0  0  0  0  2  0  0  0  0  0  0
  180.6210  178.9960  143.6170 C   0  0  0  0  0  2  0  0  0  0  0  0
  182.1030  178.7920  143.7230 C   0  0  0  0  0  3  0  0  0  0  0  0
  180.2510  179.6770  142.3050 C   0  0  0  0  0  2  0  0  0  0  0  0
  180.8610  178.9220  141.1230 C   0  0  2  0  0  3  0  0  0  0  0  0
  180.8870  176.6590  140.3670 O   0  0  0  0  0  0  0  0  0  0  0  0
  180.2360  177.5740  140.9330 C   0  0  0  0  0  0  0  0  0  0  0  0
  178.9310  177.3310  141.3450 O   0  0  0  0  0  1  0  0  0  0  0  0
  189.1580  177.9110  142.4860 N   0  0  0  0  0  0  0  0  0  0  0  0
  189.6550  177.5820  143.8150 C   0  0  0  0  0  2  0  0  0  0  0  0
  191.1150  176.5050  143.6940 S   0  0  0  0  0  0  0  0  0  0  0  0
  191.6570  176.9060  145.3800 C   0  0  0  0  0  2  0  0  0  0  0  0
  191.9150  175.6350  146.1650 C   0  0  0  0  0  2  0  0  0  0  0  0
  191.8340  177.0140  148.0660 O   0  0  0  0  0  0  0  0  0  0  0  0
  192.2210  175.9620  147.5860 C   0  0  0  0  0  3  0  0  0  0  0  0
  187.3210  178.3220  140.7750 C   0  0  0  0  0  2  0  0  0  0  0  0
  188.4710  178.5990  139.9310 N   0  0  0  0  0  2  0  0  0  0  0  0
  187.6640  178.9530  136.9450 N   0  0  0  0  0  1  0  0  0  0  0  0
  190.2420  176.1100  139.9210 O   0  0  0  0  0  0  0  0  0  0  0  0
  188.6740  178.1640  137.5620 C   0  0  0  0  0  0  0  0  0  0  0  0
  189.8020  177.9110  136.9760 N   0  0  0  0  0  0  0  0  0  0  0  0
  190.5930  177.1300  137.8170 N   0  0  0  0  0  0  0  0  0  0  0  0
  189.8500  176.8650  138.9920 C   0  0  0  0  0  0  0  0  0  0  0  0
  188.5320  177.5500  138.9290 C   0  0  1  0  0  3  0  0  0  0  0  0
  191.8140  176.4620  137.3970 C   0  0  0  0  0  2  0  0  0  0  0  0
  193.7690  175.4510  135.1740 C   0  0  0  0  0  2  0  0  0  0  0  0
  194.0330  174.0320  135.6920 C   0  0  2  0  0  3  0  0  0  0  0  0
  192.2670  175.6870  135.0240 C   0  0  0  0  0  2  0  0  0  0  0  0
  191.5140  175.4140  136.3320 C   0  0  1  0  0  3  0  0  0  0  0  0
  191.8030  174.0020  136.8480 C   0  0  0  0  0  2  0  0  0  0  0  0
  193.3010  173.7530  137.0110 C   0  0  0  0  0  2  0  0  0  0  0  0
  195.4070  173.7070  135.7390 O   0  0  0  0  0  0  0  0  0  0  0  0
  196.1430  174.8620  136.0580 C   0  0  0  0  0  1  0  0  0  0  0  0
  2 14  2  0  0  0  0
  2  1  1  0  0  0  0
  3  4  3  0  0  0  0
  4  1  1  0  0  0  0
  5  3  1  0  0  0  0
  5  8  2  0  0  0  0
  6  5  1  0  0  0  0
  7  8  1  0  0  0  0
  9  7  1  0  0  0  0
 10 12  1  1  0  0  0
 10  6  1  0  0  0  0
 10  9  1  0  0  0  0
 11 12  2  0  0  0  0
 12 13  1  0  0  0  0
 14 15  1  0  0  0  0
 16 15  1  0  0  0  0
 16 17  1  0  0  0  0
 17 18  1  0  0  0  0
 18 20  1  0  0  0  0
 20 19  2  0  0  0  0
 21  2  1  0  0  0  0
 22 21  1  0  0  0  0
 23 25  1  0  0  0  0
 25 29  1  0  0  0  0
 26 25  2  0  0  0  0
 26 27  1  0  0  0  0
 27 28  1  0  0  0  0
 28 24  2  0  0  0  0
 29 28  1  0  0  0  0
 29 22  1  1  0  0  0
 30 27  1  0  0  0  0
 31 32  1  0  0  0  0
 32 37  1  1  0  0  0
 32 36  1  0  0  0  0
 33 31  1  0  0  0  0
 33 34  1  0  0  0  0
 34 35  1  0  0  0  0
 34 30  1  1  0  0  0
 35 36  1  0  0  0  0
 37 38  1  0  0  0  0
M  END
>  <MODEL>
6

>  <REMARK>
 VINA RESULT:      -6.7      2.867      7.039
  Name = 
  15 active torsions:
  status: ('A' for Active; 'I' for Inactive)
    1  A    between atoms: N_1  and  C_22
    2  A    between atoms: N_1  and  C_28
    3  A    between atoms: C_3  and  C_4
    4  A    between atoms: C_3  and  C_19
    5  A    between atoms: S_7  and  C_19
    6  A    between atoms: S_7  and  C_22
    7  A    between atoms: C_9  and  C_30
    8  A    between atoms: C_11  and  O_18
    9  A    between atoms: C_14  and  C_31
   10  A    between atoms: N_20  and  C_29
   11  A    between atoms: C_23  and  C_29
   12  A    between atoms: C_28  and  C_36
   13  A    between atoms: C_32  and  C_37
   14  A    between atoms: C_33  and  N_35
   15  A    between atoms: N_35  and  C_36
                            x       y       z     vdW  Elec       q    Type
                         _______ _______ _______ _____ _____    ______ ____

>  <TORSDO>
F 15

$$$$
=
 OpenBabel11042409593D

 38 40  0  0  1  0  0  0  0  0999 V2000
  184.4100  178.3940  142.6190 C   0  0  0  0  0  3  0  0  0  0  0  0
  184.8710  178.8550  141.4540 C   0  0  0  0  0  0  0  0  0  0  0  0
  185.9460  178.1120  144.7590 C   0  0  0  0  0  0  0  0  0  0  0  0
  185.2390  178.2420  143.7900 C   0  0  0  0  0  0  0  0  0  0  0  0
  186.8000  177.9500  145.9010 C   0  0  0  0  0  0  0  0  0  0  0  0
  187.7250  176.7590  145.9500 C   0  0  0  0  0  2  0  0  0  0  0  0
  187.4630  178.6850  148.1870 C   0  0  0  0  0  2  0  0  0  0  0  0
  186.6330  178.7730  146.9410 C   0  0  0  0  0  3  0  0  0  0  0  0
  187.9600  177.2630  148.4200 C   0  0  0  0  0  2  0  0  0  0  0  0
  188.6590  176.7320  147.1680 C   0  0  2  0  0  3  0  0  0  0  0  0
  190.8850  177.3790  147.7330 O   0  0  0  0  0  1  0  0  0  0  0  0
  189.9480  177.4450  146.8970 C   0  0  0  0  0  0  0  0  0  0  0  0
  190.1090  178.2070  145.7450 O   0  0  0  0  0  0  0  0  0  0  0  0
  183.9570  178.9580  140.3580 N   0  0  0  0  0  2  0  0  0  0  0  0
  182.5180  179.1010  140.5230 C   0  0  0  0  0  2  0  0  0  0  0  0
  181.6730  178.8760  138.9280 S   0  0  0  0  0  0  0  0  0  0  0  0
  180.7920  180.4560  139.0730 C   0  0  0  0  0  2  0  0  0  0  0  0
  181.6160  181.5740  138.4630 C   0  0  0  0  0  2  0  0  0  0  0  0
  180.9280  183.6400  137.5770 O   0  0  0  0  0  0  0  0  0  0  0  0
  180.7570  182.4320  137.5990 C   0  0  0  0  0  3  0  0  0  0  0  0
  186.3030  179.2720  141.2910 C   0  0  0  0  0  2  0  0  0  0  0  0
  186.9250  178.4790  140.2430 N   0  0  0  0  0  2  0  0  0  0  0  0
  188.6590  177.0020  142.3650 N   0  0  0  0  0  1  0  0  0  0  0  0
  188.9450  179.3420  138.1200 O   0  0  0  0  0  0  0  0  0  0  0  0
  188.9390  177.3970  141.0280 C   0  0  0  0  0  0  0  0  0  0  0  0
  189.7290  176.7130  140.2610 N   0  0  0  0  0  0  0  0  0  0  0  0
  189.8050  177.3290  139.0120 N   0  0  0  0  0  0  0  0  0  0  0  0
  189.0200  178.5050  139.0580 C   0  0  0  0  0  0  0  0  0  0  0  0
  188.3630  178.6310  140.3860 C   0  0  1  0  0  3  0  0  0  0  0  0
  190.7760  176.9770  137.9890 C   0  0  0  0  0  2  0  0  0  0  0  0
  192.0880  175.2840  135.7090 C   0  0  0  0  0  2  0  0  0  0  0  0
  191.4400  173.9240  135.9950 C   0  0  2  0  0  3  0  0  0  0  0  0
  191.0130  176.3560  135.5410 C   0  0  0  0  0  2  0  0  0  0  0  0
  190.0770  176.4210  136.7530 C   0  0  1  0  0  3  0  0  0  0  0  0
  189.4540  175.0520  137.0400 C   0  0  0  0  0  2  0  0  0  0  0  0
  190.5160  173.9700  137.2200 C   0  0  0  0  0  2  0  0  0  0  0  0
  192.3740  172.8650  136.0430 O   0  0  0  0  0  0  0  0  0  0  0  0
  193.5750  173.3350  136.6020 C   0  0  0  0  0  1  0  0  0  0  0  0
  1  4  1  0  0  0  0
  2  1  2  0  0  0  0
  3  5  1  0  0  0  0
  4  3  3  0  0  0  0
  5  6  1  0  0  0  0
  5  8  2  0  0  0  0
  6 10  1  0  0  0  0
  7  9  1  0  0  0  0
  8  7  1  0  0  0  0
 10 12  1  6  0  0  0
 10  9  1  0  0  0  0
 12 11  1  0  0  0  0
 13 12  2  0  0  0  0
 14 15  1  0  0  0  0
 14  2  1  0  0  0  0
 16 17  1  0  0  0  0
 16 15  1  0  0  0  0
 18 17  1  0  0  0  0
 19 20  2  0  0  0  0
 20 18  1  0  0  0  0
 21  2  1  0  0  0  0
 22 21  1  0  0  0  0
 24 28  2  0  0  0  0
 25 23  1  0  0  0  0
 26 25  2  0  0  0  0
 27 28  1  0  0  0  0
 27 26  1  0  0  0  0
 28 29  1  0  0  0  0
 29 22  1  6  0  0  0
 29 25  1  0  0  0  0
 30 27  1  0  0  0  0
 31 32  1  0  0  0  0
 32 37  1  1  0  0  0
 32 36  1  0  0  0  0
 33 31  1  0  0  0  0
 33 34  1  0  0  0  0
 34 35  1  0  0  0  0
 34 30  1  1  0  0  0
 35 36  1  0  0  0  0
 37 38  1  0  0  0  0
M  END
>  <MODEL>
7

>  <REMARK>
 VINA RESULT:      -6.7      1.768      2.270
  Name = 
  15 active torsions:
  status: ('A' for Active; 'I' for Inactive)
    1  A    between atoms: N_1  and  C_22
    2  A    between atoms: N_1  and  C_28
    3  A    between atoms: C_3  and  C_4
    4  A    between atoms: C_3  and  C_19
    5  A    between atoms: S_7  and  C_19
    6  A    between atoms: S_7  and  C_22
    7  A    between atoms: C_9  and  C_30
    8  A    between atoms: C_11  and  O_18
    9  A    between atoms: C_14  and  C_31
   10  A    between atoms: N_20  and  C_29
   11  A    between atoms: C_23  and  C_29
   12  A    between atoms: C_28  and  C_36
   13  A    between atoms: C_32  and  C_37
   14  A    between atoms: C_33  and  N_35
   15  A    between atoms: N_35  and  C_36
                            x       y       z     vdW  Elec       q    Type
                         _______ _______ _______ _____ _____    ______ ____

>  <TORSDO>
F 15

$$$$
=
 OpenBabel11042409593D

 38 40  0  0  1  0  0  0  0  0999 V2000
  183.3460  178.6180  141.4850 C   0  0  0  0  0  3  0  0  0  0  0  0
  183.8040  178.8740  140.2570 C   0  0  0  0  0  0  0  0  0  0  0  0
  184.9320  178.3820  143.5940 C   0  0  0  0  0  0  0  0  0  0  0  0
  184.2050  178.4970  142.6370 C   0  0  0  0  0  0  0  0  0  0  0  0
  185.8040  178.2320  144.7240 C   0  0  0  0  0  0  0  0  0  0  0  0
  186.8030  177.1010  144.7220 C   0  0  0  0  0  2  0  0  0  0  0  0
  186.4380  178.9210  147.0320 C   0  0  0  0  0  2  0  0  0  0  0  0
  185.5940  179.0030  145.7960 C   0  0  0  0  0  3  0  0  0  0  0  0
  187.0260  177.5260  147.2080 C   0  0  0  0  0  2  0  0  0  0  0  0
  187.7470  177.0880  145.9320 C   0  0  2  0  0  3  0  0  0  0  0  0
  189.8030  178.0850  146.6160 O   0  0  0  0  0  1  0  0  0  0  0  0
  188.9850  177.8900  145.6810 C   0  0  0  0  0  0  0  0  0  0  0  0
  189.2260  178.4530  144.4320 O   0  0  0  0  0  0  0  0  0  0  0  0
  182.8580  178.9670  139.1880 N   0  0  0  0  0  2  0  0  0  0  0  0
  182.2240  180.2130  138.7830 C   0  0  0  0  0  2  0  0  0  0  0  0
  180.5780  180.3610  139.5430 S   0  0  0  0  0  0  0  0  0  0  0  0
  180.2210  181.9140  138.6730 C   0  0  0  0  0  2  0  0  0  0  0  0
  180.7340  181.8460  137.2470 C   0  0  0  0  0  2  0  0  0  0  0  0
  181.4770  184.0750  137.1840 O   0  0  0  0  0  0  0  0  0  0  0  0
  180.7930  183.2130  136.6570 C   0  0  0  0  0  3  0  0  0  0  0  0
  185.2680  179.0760  139.9970 C   0  0  0  0  0  2  0  0  0  0  0  0
  185.5250  178.9970  138.5690 N   0  0  0  0  0  2  0  0  0  0  0  0
  184.8210  177.1270  136.1810 N   0  0  0  0  0  1  0  0  0  0  0  0
  188.2850  178.0380  139.4600 O   0  0  0  0  0  0  0  0  0  0  0  0
  186.0510  177.3810  136.8500 C   0  0  0  0  0  0  0  0  0  0  0  0
  187.1890  177.3380  136.2330 N   0  0  0  0  0  0  0  0  0  0  0  0
  188.2110  177.6380  137.1310 N   0  0  0  0  0  0  0  0  0  0  0  0
  187.6280  177.8380  138.4050 C   0  0  0  0  0  0  0  0  0  0  0  0
  186.1490  177.7100  138.3160 C   0  0  1  0  0  3  0  0  0  0  0  0
  189.6250  177.4500  136.8490 C   0  0  0  0  0  2  0  0  0  0  0  0
  192.1490  175.9980  135.7050 C   0  0  0  0  0  2  0  0  0  0  0  0
  192.9750  175.8710  136.9900 C   0  0  2  0  0  3  0  0  0  0  0  0
  190.7630  175.3880  135.9060 C   0  0  0  0  0  2  0  0  0  0  0  0
  190.0370  176.0050  137.1070 C   0  0  1  0  0  3  0  0  0  0  0  0
  190.8820  175.8890  138.3780 C   0  0  0  0  0  2  0  0  0  0  0  0
  192.2680  176.5030  138.1960 C   0  0  0  0  0  2  0  0  0  0  0  0
  194.3100  176.3080  136.8360 O   0  0  0  0  0  0  0  0  0  0  0  0
  195.0900  175.2440  136.3510 C   0  0  0  0  0  1  0  0  0  0  0  0
  1  4  1  0  0  0  0
  2  1  2  0  0  0  0
  3  5  1  0  0  0  0
  4  3  3  0  0  0  0
  5  8  2  0  0  0  0
  6  5  1  0  0  0  0
  6 10  1  0  0  0  0
  7  9  1  0  0  0  0
  8  7  1  0  0  0  0
 10 12  1  6  0  0  0
 10  9  1  0  0  0  0
 12 11  1  0  0  0  0
 13 12  2  0  0  0  0
 14  2  1  0  0  0  0
 15 14  1  0  0  0  0
 15 16  1  0  0  0  0
 17 16  1  0  0  0  0
 18 17  1  0  0  0  0
 20 19  2  0  0  0  0
 20 18  1  0  0  0  0
 21  2  1  0  0  0  0
 22 21  1  0  0  0  0
 23 25  1  0  0  0  0
 25 29  1  0  0  0  0
 26 25  2  0  0  0  0
 26 27  1  0  0  0  0
 27 28  1  0  0  0  0
 28 24  2  0  0  0  0
 29 28  1  0  0  0  0
 29 22  1  6  0  0  0
 30 27  1  0  0  0  0
 31 33  1  0  0  0  0
 31 32  1  0  0  0  0
 32 37  1  6  0  0  0
 32 36  1  0  0  0  0
 33 34  1  0  0  0  0
 34 30  1  6  0  0  0
 34 35  1  0  0  0  0
 36 35  1  0  0  0  0
 38 37  1  0  0  0  0
M  END
>  <MODEL>
8

>  <REMARK>
 VINA RESULT:      -6.6      2.558      3.145
  Name = 
  15 active torsions:
  status: ('A' for Active; 'I' for Inactive)
    1  A    between atoms: N_1  and  C_22
    2  A    between atoms: N_1  and  C_28
    3  A    between atoms: C_3  and  C_4
    4  A    between atoms: C_3  and  C_19
    5  A    between atoms: S_7  and  C_19
    6  A    between atoms: S_7  and  C_22
    7  A    between atoms: C_9  and  C_30
    8  A    between atoms: C_11  and  O_18
    9  A    between atoms: C_14  and  C_31
   10  A    between atoms: N_20  and  C_29
   11  A    between atoms: C_23  and  C_29
   12  A    between atoms: C_28  and  C_36
   13  A    between atoms: C_32  and  C_37
   14  A    between atoms: C_33  and  N_35
   15  A    between atoms: N_35  and  C_36
                            x       y       z     vdW  Elec       q    Type
                         _______ _______ _______ _____ _____    ______ ____

>  <TORSDO>
F 15

$$$$
=
 OpenBabel11042409593D

 38 40  0  0  1  0  0  0  0  0999 V2000
  183.7010  178.0820  138.4180 C   0  0  0  0  0  3  0  0  0  0  0  0
  183.5060  178.8110  139.5210 C   0  0  0  0  0  0  0  0  0  0  0  0
  186.1040  177.2930  137.6310 C   0  0  0  0  0  0  0  0  0  0  0  0
  185.0050  177.6490  137.9820 C   0  0  0  0  0  0  0  0  0  0  0  0
  187.4170  176.8800  137.2260 C   0  0  0  0  0  0  0  0  0  0  0  0
  188.6100  177.6340  137.7600 C   0  0  0  0  0  2  0  0  0  0  0  0
  188.8480  175.4470  135.7750 C   0  0  0  0  0  2  0  0  0  0  0  0
  187.5250  175.9440  136.2770 C   0  0  0  0  0  3  0  0  0  0  0  0
  189.9260  176.5150  135.9090 C   0  0  0  0  0  2  0  0  0  0  0  0
  189.9670  177.0530  137.3400 C   0  0  2  0  0  3  0  0  0  0  0  0
  191.0920  175.0240  137.8970 O   0  0  0  0  0  0  0  0  0  0  0  0
  190.4580  176.0270  138.3140 C   0  0  0  0  0  0  0  0  0  0  0  0
  190.1910  176.1520  139.6730 O   0  0  0  0  0  1  0  0  0  0  0  0
  182.1660  179.1880  139.8540 N   0  0  0  0  0  2  0  0  0  0  0  0
  181.2160  179.7150  138.8840 C   0  0  0  0  0  2  0  0  0  0  0  0
  179.7580  180.3940  139.7330 S   0  0  0  0  0  0  0  0  0  0  0  0
  180.4060  179.9650  141.3730 C   0  0  0  0  0  2  0  0  0  0  0  0
  179.3730  179.1790  142.1570 C   0  0  0  0  0  2  0  0  0  0  0  0
  181.2160  178.6090  143.5000 O   0  0  0  0  0  0  0  0  0  0  0  0
  180.0120  178.5120  143.3260 C   0  0  0  0  0  3  0  0  0  0  0  0
  184.6500  179.2160  140.4020 C   0  0  0  0  0  2  0  0  0  0  0  0
  184.6790  178.3700  141.5840 N   0  0  0  0  0  2  0  0  0  0  0  0
  184.5880  178.6380  144.6840 N   0  0  0  0  0  1  0  0  0  0  0  0
  187.6640  178.2460  140.9470 O   0  0  0  0  0  0  0  0  0  0  0  0
  185.6390  178.2680  143.8000 C   0  0  0  0  0  0  0  0  0  0  0  0
  186.5590  177.4220  144.1420 N   0  0  0  0  0  0  0  0  0  0  0  0
  187.4420  177.2460  143.0780 N   0  0  0  0  0  0  0  0  0  0  0  0
  187.0290  178.0950  142.0240 C   0  0  0  0  0  0  0  0  0  0  0  0
  185.7880  178.8200  142.4070 C   0  0  1  0  0  3  0  0  0  0  0  0
  188.7190  176.5600  143.1840 C   0  0  0  0  0  2  0  0  0  0  0  0
  190.3360  177.4310  145.7170 C   0  0  0  0  0  2  0  0  0  0  0  0
  191.6800  176.7620  145.4050 C   0  0  2  0  0  3  0  0  0  0  0  0
  189.9110  178.3290  144.5570 C   0  0  0  0  0  2  0  0  0  0  0  0
  189.8660  177.5640  143.2290 C   0  0  1  0  0  3  0  0  0  0  0  0
  191.2070  176.8840  142.9410 C   0  0  0  0  0  2  0  0  0  0  0  0
  191.6410  175.9740  144.0890 C   0  0  0  0  0  2  0  0  0  0  0  0
  192.1880  176.0100  146.4880 O   0  0  0  0  0  0  0  0  0  0  0  0
  191.2370  175.9930  147.5240 C   0  0  0  0  0  1  0  0  0  0  0  0
  1  2  2  0  0  0  0
  2 14  1  0  0  0  0
  2 21  1  0  0  0  0
  3  4  3  0  0  0  0
  4  1  1  0  0  0  0
  5  3  1  0  0  0  0
  5  6  1  0  0  0  0
  7  9  1  0  0  0  0
  7  8  1  0  0  0  0
  8  5  2  0  0  0  0
  9 10  1  0  0  0  0
 10  6  1  0  0  0  0
 10 12  1  1  0  0  0
 11 12  2  0  0  0  0
 12 13  1  0  0  0  0
 15 16  1  0  0  0  0
 15 14  1  0  0  0  0
 16 17  1  0  0  0  0
 17 18  1  0  0  0  0
 18 20  1  0  0  0  0
 20 19  2  0  0  0  0
 21 22  1  0  0  0  0
 24 28  2  0  0  0  0
 25 26  2  0  0  0  0
 25 23  1  0  0  0  0
 27 30  1  0  0  0  0
 27 26  1  0  0  0  0
 28 29  1  0  0  0  0
 28 27  1  0  0  0  0
 29 22  1  6  0  0  0
 29 25  1  0  0  0  0
 32 31  1  0  0  0  0
 32 37  1  1  0  0  0
 33 31  1  0  0  0  0
 34 30  1  1  0  0  0
 34 33  1  0  0  0  0
 35 34  1  0  0  0  0
 35 36  1  0  0  0  0
 36 32  1  0  0  0  0
 37 38  1  0  0  0  0
M  END
>  <MODEL>
9

>  <REMARK>
 VINA RESULT:      -6.6      2.617      7.151
  Name = 
  15 active torsions:
  status: ('A' for Active; 'I' for Inactive)
    1  A    between atoms: N_1  and  C_22
    2  A    between atoms: N_1  and  C_28
    3  A    between atoms: C_3  and  C_4
    4  A    between atoms: C_3  and  C_19
    5  A    between atoms: S_7  and  C_19
    6  A    between atoms: S_7  and  C_22
    7  A    between atoms: C_9  and  C_30
    8  A    between atoms: C_11  and  O_18
    9  A    between atoms: C_14  and  C_31
   10  A    between atoms: N_20  and  C_29
   11  A    between atoms: C_23  and  C_29
   12  A    between atoms: C_28  and  C_36
   13  A    between atoms: C_32  and  C_37
   14  A    between atoms: C_33  and  N_35
   15  A    between atoms: N_35  and  C_36
                            x       y       z     vdW  Elec       q    Type
                         _______ _______ _______ _____ _____    ______ ____

>  <TORSDO>
F 15

$$$$
