=
 OpenBabel11032419593D

 64 72  0  0  1  0  0  0  0  0999 V2000
  186.9390  178.7830  139.9270 C   0  0  0  0  0  0  0  0  0  0  0  0
  184.4920  178.8380  140.3010 S   0  0  0  0  0  0  0  0  0  0  0  0
  185.7680  178.7290  139.2100 C   0  0  0  0  0  0  0  0  0  0  0  0
  187.7720  178.0410  139.1000 N   0  0  0  0  0  0  0  0  0  0  0  0
  188.3350  178.0480  137.7440 N   0  0  0  0  0  0  0  0  0  0  0  0
  185.4860  178.9550  141.6780 C   0  0  0  0  0  0  0  0  0  0  0  0
  186.8350  178.8100  141.3170 C   0  0  0  0  0  3  0  0  0  0  0  0
  187.3190  177.2440  138.0050 C   0  0  2  0  0  3  0  0  0  0  0  0
  185.9270  177.9330  137.8840 C   0  0  1  0  0  3  0  0  0  0  0  0
  184.9720  179.2100  143.0680 C   0  0  2  0  0  3  0  0  0  0  0  0
  187.4630  176.8440  144.7360 C   0  0  0  0  0  3  0  0  0  0  0  0
  186.5880  177.4150  143.8110 C   0  0  0  0  0  3  0  0  0  0  0  0
  185.9030  179.0520  145.4600 C   0  0  0  0  0  3  0  0  0  0  0  0
  187.5860  177.3910  146.0220 C   0  0  0  0  0  0  0  0  0  0  0  0
  186.7800  178.4800  146.3870 C   0  0  0  0  0  3  0  0  0  0  0  0
  185.8290  178.5470  144.1440 C   0  0  0  0  0  0  0  0  0  0  0  0
  190.9530  177.2090  147.8580 C   0  0  0  0  0  1  0  0  0  0  0  0
  190.0090  177.1490  146.6930 C   0  0  0  0  0  0  0  0  0  0  0  0
  188.6090  176.9490  146.9220 N   0  0  0  0  0  2  0  0  0  0  0  0
  190.4800  177.1770  145.4900 N   0  0  0  0  0  2  0  0  0  0  0  0
  183.5110  178.8150  143.1650 C   0  0  0  0  0  0  0  0  0  0  0  0
  183.0860  177.7920  142.5570 O   0  0  0  0  0  0  0  0  0  0  0  0
  182.5860  179.5750  143.9460 N   0  0  0  0  0  1  0  0  0  0  0  0
  184.8540  176.8750  137.6740 C   0  0  0  0  0  2  0  0  0  0  0  0
  183.9110  177.3060  136.5710 C   0  0  0  0  0  2  0  0  0  0  0  0
  183.4170  176.1740  135.9020 O   0  0  0  0  0  0  0  0  0  0  0  0
  182.1230  176.0020  136.3730 C   0  0  2  0  0  3  0  0  0  0  0  0
  181.8560  174.4990  136.5370 C   0  0  0  0  0  1  0  0  0  0  0  0
  180.2480  175.8490  134.6010 C   0  0  0  0  0  1  0  0  0  0  0  0
  181.1150  176.7500  135.4800 C   0  0  1  0  0  3  0  0  0  0  0  0
  180.0180  176.9660  139.8310 C   0  0  2  0  0  3  0  0  0  0  0  0
  179.5460  180.2620  138.0140 C   0  0  2  0  0  3  0  0  0  0  0  0
  181.1310  179.0010  136.4670 N   0  0  0  0  0  2  0  0  0  0  0  0
  182.0010  180.8070  138.3360 O   0  0  0  0  0  1  0  0  0  0  0  0
  180.4180  177.9300  140.9400 C   0  0  0  0  0  2  0  0  0  0  0  0
  180.2840  177.8430  136.1560 C   0  0  2  0  0  3  0  0  0  0  0  0
  181.1920  176.0360  139.5570 C   0  0  0  0  0  1  0  0  0  0  0  0
  179.6560  180.8110  135.4320 C   0  0  0  0  0  1  0  0  0  0  0  0
  180.2530  179.3420  140.3910 C   0  0  1  0  0  3  0  0  0  0  0  0
  180.7800  181.1340  137.7230 C   0  0  0  0  0  0  0  0  0  0  0  0
  179.5890  177.3440  137.3420 N   0  0  0  0  0  2  0  0  0  0  0  0
  179.8690  179.1410  138.9600 C   0  0  0  0  0  0  0  0  0  0  0  0
  179.7810  177.8540  138.6660 C   0  0  0  0  0  0  0  0  0  0  0  0
  180.2790  180.1730  136.6610 C   0  0  1  0  0  0  0  0  0  0  0  0
  180.5110  182.4870  137.5230 O   0  0  0  0  0  1  0  0  0  0  0  0
  179.1640  180.0610  141.1730 C   0  0  0  0  0  2  0  0  0  0  0  0
  179.7350  180.8640  142.2320 N   0  0  0  0  0  1  0  0  0  0  0  0
  189.5470  177.2380  137.7350 C   0  0  0  0  0  2  0  0  0  0  0  0
  189.4680  176.2370  136.5870 C   0  0  0  0  0  2  0  0  0  0  0  0
  189.9870  175.0020  136.9950 O   0  0  0  0  0  0  0  0  0  0  0  0
  192.2920  171.9910  135.3100 C   0  0  0  0  0  2  0  0  0  0  0  0
  190.4050  174.3860  135.8160 C   0  0  1  0  0  3  0  0  0  0  0  0
  192.6810  173.0740  136.2290 N   0  0  0  0  0  0  0  0  0  0  0  0
  190.8480  172.1260  134.8070 C   0  0  0  0  0  2  0  0  0  0  0  0
  192.2030  174.6440  135.5430 S   0  0  0  0  0  0  0  0  0  0  0  0
  190.0090  172.9000  135.8290 C   0  0  2  0  0  3  0  0  0  0  0  0
  188.5130  172.7060  135.6100 C   0  0  0  0  0  3  0  0  0  0  0  0
  188.1760  171.5640  134.6270 C   0  0  0  0  0  2  0  0  0  0  0  0
  186.8180  170.9280  134.9160 C   0  0  0  0  0  2  0  0  0  0  0  0
  186.2540  172.5710  136.7240 C   0  0  0  0  0  2  0  0  0  0  0  0
  185.8270  171.9810  135.3730 C   0  0  0  0  0  2  0  0  0  0  0  0
  187.7730  172.5620  136.9450 C   0  0  0  0  0  2  0  0  0  0  0  0
  194.1380  173.0560  136.2450 C   0  0  0  0  0  2  0  0  0  0  0  0
  194.6280  173.5830  135.0430 O   0  0  0  0  0  1  0  0  0  0  0  0
  1  7  1  0  0  0  0
  2  6  1  0  0  0  0
  3  1  2  0  0  0  0
  3  2  1  0  0  0  0
  4  1  1  0  0  0  0
  5  4  1  0  0  0  0
  6 10  1  0  0  0  0
  7  6  2  0  0  0  0
  8  5  1  6  0  0  0
  8  4  1  0  0  0  0
  9 24  1  1  0  0  0
  9  8  1  0  0  0  0
  9  3  1  0  0  0  0
 10 21  1  6  0  0  0
 10 16  1  0  0  0  0
 11 14  1  0  0  0  0
 12 16  1  0  0  0  0
 12 11  2  0  0  0  0
 13 15  1  0  0  0  0
 14 15  2  0  0  0  0
 14 19  1  0  0  0  0
 16 13  2  0  0  0  0
 18 19  1  0  0  0  0
 18 17  1  0  0  0  0
 20 18  2  0  0  0  0
 21 23  1  0  0  0  0
 22 21  2  0  0  0  0
 25 24  1  0  0  0  0
 26 27  1  0  0  0  0
 26 25  1  0  0  0  0
 27 28  1  6  0  0  0
 30 29  1  1  0  0  0
 30 27  1  0  0  0  0
 31 37  1  6  0  0  0
 31 35  1  0  0  0  0
 32 42  1  1  0  0  0
 33 44  1  0  0  0  0
 36 30  1  1  0  0  0
 36 33  1  0  0  0  0
 36 41  1  0  0  0  0
 39 35  1  0  0  0  0
 39 46  1  1  0  0  0
 40 32  1  0  0  0  0
 40 34  1  0  0  0  0
 41 43  1  0  0  0  0
 42 39  1  0  0  0  0
 43 42  2  0  0  0  0
 43 31  1  0  0  0  0
 44 38  1  6  0  0  0
 44 40  1  0  0  0  0
 44 32  1  0  0  0  0
 45 40  1  0  0  0  0
 46 47  1  0  0  0  0
 48  5  1  0  0  0  0
 49 50  1  0  0  0  0
 49 48  1  0  0  0  0
 51 53  1  0  0  0  0
 52 56  1  0  0  0  0
 52 50  1  1  0  0  0
 53 63  1  0  0  0  0
 54 51  1  0  0  0  0
 54 56  1  0  0  0  0
 55 52  1  0  0  0  0
 55 53  1  0  0  0  0
 56 57  1  6  0  0  0
 57 62  1  0  0  0  0
 58 59  1  0  0  0  0
 58 57  1  0  0  0  0
 59 61  1  0  0  0  0
 60 62  1  0  0  0  0
 61 60  1  0  0  0  0
 64 63  1  0  0  0  0
M  END
>  <MODEL>
1

>  <REMARK>
 VINA RESULT:      -6.9      0.000      0.000
  Name = 
  17 active torsions:
  status: ('A' for Active; 'I' for Inactive)
    1  A    between atoms: C_3  and  O_38
    2  A    between atoms: C_3  and  C_58
    3  A    between atoms: C_9  and  C_54
    4  A    between atoms: C_12  and  O_38
    5  A    between atoms: C_14  and  C_35
    6  A    between atoms: C_14  and  O_48
    7  A    between atoms: C_15  and  C_51
    8  A    between atoms: C_15  and  C_52
    9  A    between atoms: N_20  and  C_58
   10  A    between atoms: C_21  and  C_23
   11  A    between atoms: C_21  and  C_28
   12  A    between atoms: C_21  and  C_60
   13  A    between atoms: N_22  and  C_44
   14  A    between atoms: C_29  and  C_35
   15  A    between atoms: C_32  and  C_36
   16  A    between atoms: C_37  and  N_50
   17  A    between atoms: O_48  and  C_51
                            x       y       z     vdW  Elec       q    Type
                         _______ _______ _______ _____ _____    ______ ____

>  <TORSDO>
F 17

$$$$
=
 OpenBabel11032419593D

 64 72  0  0  1  0  0  0  0  0999 V2000
  190.6450  177.1180  139.7830 C   0  0  0  0  0  0  0  0  0  0  0  0
  188.5070  178.3580  139.6230 S   0  0  0  0  0  0  0  0  0  0  0  0
  189.8240  177.6730  138.8300 C   0  0  0  0  0  0  0  0  0  0  0  0
  191.2210  176.0920  139.0460 N   0  0  0  0  0  0  0  0  0  0  0  0
  192.0620  175.8680  137.8620 N   0  0  0  0  0  0  0  0  0  0  0  0
  189.0320  177.9210  141.1830 C   0  0  0  0  0  0  0  0  0  0  0  0
  190.1980  177.1430  141.1030 C   0  0  0  0  0  3  0  0  0  0  0  0
  190.7610  175.6610  137.7650 C   0  0  2  0  0  3  0  0  0  0  0  0
  189.9400  176.9490  137.4590 C   0  0  1  0  0  3  0  0  0  0  0  0
  188.3470  178.3470  142.4510 C   0  0  2  0  0  3  0  0  0  0  0  0
  189.2220  177.8200  146.1310 C   0  0  0  0  0  3  0  0  0  0  0  0
  188.5900  178.2540  144.9650 C   0  0  0  0  0  3  0  0  0  0  0  0
  190.3630  177.2750  143.6350 C   0  0  0  0  0  3  0  0  0  0  0  0
  190.4140  177.0850  146.0570 C   0  0  0  0  0  0  0  0  0  0  0  0
  190.9950  176.8400  144.8040 C   0  0  0  0  0  3  0  0  0  0  0  0
  189.1270  177.9540  143.7040 C   0  0  0  0  0  0  0  0  0  0  0  0
  193.0110  175.5810  148.4520 C   0  0  0  0  0  1  0  0  0  0  0  0
  192.1860  175.6970  147.2040 C   0  0  0  0  0  0  0  0  0  0  0  0
  190.9770  176.4640  147.2200 N   0  0  0  0  0  2  0  0  0  0  0  0
  192.5220  175.0220  146.1540 N   0  0  0  0  0  2  0  0  0  0  0  0
  186.9200  177.8310  142.4720 C   0  0  0  0  0  0  0  0  0  0  0  0
  186.6130  176.8350  143.1870 O   0  0  0  0  0  0  0  0  0  0  0  0
  185.8930  178.4560  141.6990 N   0  0  0  0  0  1  0  0  0  0  0  0
  188.5980  176.5650  136.8550 C   0  0  0  0  0  2  0  0  0  0  0  0
  188.4470  175.0600  136.8440 C   0  0  0  0  0  2  0  0  0  0  0  0
  187.2510  174.7090  136.1980 O   0  0  0  0  0  0  0  0  0  0  0  0
  186.6580  173.7540  137.0110 C   0  0  2  0  0  3  0  0  0  0  0  0
  187.4860  172.4630  136.9370 C   0  0  0  0  0  1  0  0  0  0  0  0
  184.4470  172.4830  137.4310 C   0  0  0  0  0  1  0  0  0  0  0  0
  185.1660  173.5930  136.6640 C   0  0  1  0  0  3  0  0  0  0  0  0
  180.6820  173.8690  136.5640 C   0  0  2  0  0  3  0  0  0  0  0  0
  182.3520  177.1400  137.5160 C   0  0  2  0  0  3  0  0  0  0  0  0
  184.1870  175.4300  137.9710 N   0  0  0  0  0  2  0  0  0  0  0  0
  182.5130  176.3720  139.9270 O   0  0  0  0  0  1  0  0  0  0  0  0
  179.6670  174.3920  137.5720 C   0  0  0  0  0  2  0  0  0  0  0  0
  184.3330  174.8760  136.6200 C   0  0  2  0  0  3  0  0  0  0  0  0
  181.1860  172.5170  137.0490 C   0  0  0  0  0  1  0  0  0  0  0  0
  184.9030  177.8270  137.4550 C   0  0  0  0  0  1  0  0  0  0  0  0
  180.1660  175.7510  138.0500 C   0  0  1  0  0  3  0  0  0  0  0  0
  182.8740  177.3180  138.9530 C   0  0  0  0  0  0  0  0  0  0  0  0
  183.0370  174.6640  135.9770 N   0  0  0  0  0  2  0  0  0  0  0  0
  181.4940  175.9140  137.3850 C   0  0  0  0  0  0  0  0  0  0  0  0
  181.7740  174.8740  136.6150 C   0  0  0  0  0  0  0  0  0  0  0  0
  183.8230  176.8420  137.8690 C   0  0  1  0  0  0  0  0  0  0  0  0
  183.0090  178.6410  139.3700 O   0  0  0  0  0  1  0  0  0  0  0  0
  179.1810  176.8270  137.6160 C   0  0  0  0  0  2  0  0  0  0  0  0
  178.9340  177.7630  138.6910 N   0  0  0  0  0  1  0  0  0  0  0  0
  192.7090  174.5670  137.9850 C   0  0  0  0  0  2  0  0  0  0  0  0
  193.4480  174.2560  136.6880 C   0  0  0  0  0  2  0  0  0  0  0  0
  194.6000  173.5100  136.9630 O   0  0  0  0  0  0  0  0  0  0  0  0
  197.2180  176.1330  135.0950 C   0  0  0  0  0  2  0  0  0  0  0  0
  195.4350  173.7290  135.8680 C   0  0  1  0  0  3  0  0  0  0  0  0
  195.8240  176.3380  135.5230 N   0  0  0  0  0  0  0  0  0  0  0  0
  197.6780  174.6750  135.2410 C   0  0  0  0  0  2  0  0  0  0  0  0
  194.7850  175.0820  134.8090 S   0  0  0  0  0  0  0  0  0  0  0  0
  196.8750  173.9820  136.3460 C   0  0  2  0  0  3  0  0  0  0  0  0
  197.5480  172.7040  136.8300 C   0  0  0  0  0  3  0  0  0  0  0  0
  196.5790  171.7190  137.5210 C   0  0  0  0  0  2  0  0  0  0  0  0
  197.0260  170.2660  137.3790 C   0  0  0  0  0  2  0  0  0  0  0  0
  199.1800  170.8700  136.2480 C   0  0  0  0  0  2  0  0  0  0  0  0
  198.5370  170.1680  137.4510 C   0  0  0  0  0  2  0  0  0  0  0  0
  198.3470  172.0390  135.7030 C   0  0  0  0  0  2  0  0  0  0  0  0
  195.4200  177.6000  134.9190 C   0  0  0  0  0  2  0  0  0  0  0  0
  196.2440  178.6320  135.3860 O   0  0  0  0  0  1  0  0  0  0  0  0
  1  7  1  0  0  0  0
  2  6  1  0  0  0  0
  3  2  1  0  0  0  0
  3  1  2  0  0  0  0
  4  1  1  0  0  0  0
  5 48  1  0  0  0  0
  5  4  1  0  0  0  0
  6 10  1  0  0  0  0
  7  6  2  0  0  0  0
  8  5  1  6  0  0  0
  8  4  1  0  0  0  0
  9 24  1  1  0  0  0
  9  8  1  0  0  0  0
  9  3  1  0  0  0  0
 10 21  1  1  0  0  0
 10 16  1  0  0  0  0
 12 11  2  0  0  0  0
 13 16  2  0  0  0  0
 13 15  1  0  0  0  0
 14 11  1  0  0  0  0
 14 19  1  0  0  0  0
 15 14  2  0  0  0  0
 16 12  1  0  0  0  0
 18 19  1  0  0  0  0
 18 17  1  0  0  0  0
 20 18  2  0  0  0  0
 21 22  2  0  0  0  0
 23 21  1  0  0  0  0
 25 24  1  0  0  0  0
 26 25  1  0  0  0  0
 26 27  1  0  0  0  0
 27 28  1  6  0  0  0
 30 27  1  0  0  0  0
 30 29  1  1  0  0  0
 31 43  1  0  0  0  0
 31 37  1  1  0  0  0
 31 35  1  0  0  0  0
 32 42  1  1  0  0  0
 32 44  1  0  0  0  0
 32 40  1  0  0  0  0
 35 39  1  0  0  0  0
 36 30  1  1  0  0  0
 36 33  1  0  0  0  0
 39 46  1  6  0  0  0
 40 45  1  0  0  0  0
 40 34  1  0  0  0  0
 41 43  1  0  0  0  0
 41 36  1  0  0  0  0
 42 39  1  0  0  0  0
 43 42  2  0  0  0  0
 44 38  1  6  0  0  0
 44 33  1  0  0  0  0
 44 40  1  0  0  0  0
 46 47  1  0  0  0  0
 49 50  1  0  0  0  0
 49 48  1  0  0  0  0
 51 54  1  0  0  0  0
 51 53  1  0  0  0  0
 52 56  1  0  0  0  0
 52 50  1  1  0  0  0
 54 56  1  0  0  0  0
 55 53  1  0  0  0  0
 55 52  1  0  0  0  0
 56 57  1  6  0  0  0
 57 58  1  0  0  0  0
 59 61  1  0  0  0  0
 59 58  1  0  0  0  0
 60 61  1  0  0  0  0
 62 60  1  0  0  0  0
 62 57  1  0  0  0  0
 63 64  1  0  0  0  0
 63 53  1  0  0  0  0
M  END
>  <MODEL>
2

>  <REMARK>
 VINA RESULT:      -6.7      2.853      5.470
  Name = 
  17 active torsions:
  status: ('A' for Active; 'I' for Inactive)
    1  A    between atoms: C_3  and  O_38
    2  A    between atoms: C_3  and  C_58
    3  A    between atoms: C_9  and  C_54
    4  A    between atoms: C_12  and  O_38
    5  A    between atoms: C_14  and  C_35
    6  A    between atoms: C_14  and  O_48
    7  A    between atoms: C_15  and  C_51
    8  A    between atoms: C_15  and  C_52
    9  A    between atoms: N_20  and  C_58
   10  A    between atoms: C_21  and  C_23
   11  A    between atoms: C_21  and  C_28
   12  A    between atoms: C_21  and  C_60
   13  A    between atoms: N_22  and  C_44
   14  A    between atoms: C_29  and  C_35
   15  A    between atoms: C_32  and  C_36
   16  A    between atoms: C_37  and  N_50
   17  A    between atoms: O_48  and  C_51
                            x       y       z     vdW  Elec       q    Type
                         _______ _______ _______ _____ _____    ______ ____

>  <TORSDO>
F 17

$$$$
=
 OpenBabel11032419593D

 64 72  0  0  1  0  0  0  0  0999 V2000
  183.0900  179.0620  143.6140 C   0  0  0  0  0  0  0  0  0  0  0  0
  182.3830  179.1560  141.2430 S   0  0  0  0  0  0  0  0  0  0  0  0
  183.6280  179.2810  142.3680 C   0  0  0  0  0  0  0  0  0  0  0  0
  184.1930  178.5330  144.2710 N   0  0  0  0  0  0  0  0  0  0  0  0
  185.5620  178.8860  144.6720 N   0  0  0  0  0  0  0  0  0  0  0  0
  181.1760  178.8240  142.3970 C   0  0  0  0  0  0  0  0  0  0  0  0
  181.7440  178.7050  143.6750 C   0  0  0  0  0  3  0  0  0  0  0  0
  185.3900  178.1040  143.6220 C   0  0  2  0  0  3  0  0  0  0  0  0
  185.1280  178.8800  142.2960 C   0  0  1  0  0  3  0  0  0  0  0  0
  179.7120  178.7090  142.0740 C   0  0  2  0  0  3  0  0  0  0  0  0
  179.0220  176.6390  138.9410 C   0  0  0  0  0  3  0  0  0  0  0  0
  179.2080  177.7180  139.8050 C   0  0  0  0  0  3  0  0  0  0  0  0
  179.3140  176.1970  141.6880 C   0  0  0  0  0  3  0  0  0  0  0  0
  179.0100  175.3280  139.4400 C   0  0  0  0  0  0  0  0  0  0  0  0
  179.1280  175.1160  140.8210 C   0  0  0  0  0  3  0  0  0  0  0  0
  179.3970  177.5120  141.1800 C   0  0  0  0  0  0  0  0  0  0  0  0
  180.2730  172.2730  137.4870 C   0  0  0  0  0  1  0  0  0  0  0  0
  180.1880  173.7150  137.8930 C   0  0  0  0  0  0  0  0  0  0  0  0
  179.0150  174.1980  138.5590 N   0  0  0  0  0  2  0  0  0  0  0  0
  181.1300  174.5300  137.5500 N   0  0  0  0  0  2  0  0  0  0  0  0
  179.2000  180.0150  141.4960 C   0  0  0  0  0  0  0  0  0  0  0  0
  179.0090  181.0130  142.2480 O   0  0  0  0  0  0  0  0  0  0  0  0
  178.9320  180.1550  140.1000 N   0  0  0  0  0  1  0  0  0  0  0  0
  185.4660  177.9890  141.1110 C   0  0  0  0  0  2  0  0  0  0  0  0
  185.3130  178.7640  139.8200 C   0  0  0  0  0  2  0  0  0  0  0  0
  186.1730  178.2340  138.8450 O   0  0  0  0  0  0  0  0  0  0  0  0
  185.4930  178.3640  137.6420 C   0  0  2  0  0  3  0  0  0  0  0  0
  184.2030  177.5350  137.7150 C   0  0  0  0  0  1  0  0  0  0  0  0
  187.8990  178.3090  136.7000 C   0  0  0  0  0  1  0  0  0  0  0  0
  186.4170  178.0300  136.4550 C   0  0  1  0  0  3  0  0  0  0  0  0
  189.6190  175.2410  134.9870 C   0  0  2  0  0  3  0  0  0  0  0  0
  186.2370  173.5610  135.3480 C   0  0  2  0  0  3  0  0  0  0  0  0
  185.9820  175.6360  136.8070 N   0  0  0  0  0  2  0  0  0  0  0  0
  186.6730  173.1830  137.8170 O   0  0  0  0  0  1  0  0  0  0  0  0
  190.0660  173.8620  135.4520 C   0  0  0  0  0  2  0  0  0  0  0  0
  186.2040  176.6690  135.7880 C   0  0  2  0  0  3  0  0  0  0  0  0
  190.1360  176.2730  135.9800 C   0  0  0  0  0  1  0  0  0  0  0  0
  183.8590  174.6110  135.8220 C   0  0  0  0  0  1  0  0  0  0  0  0
  188.8100  173.0140  135.6200 C   0  0  1  0  0  3  0  0  0  0  0  0
  185.7590  173.1460  136.7510 C   0  0  0  0  0  0  0  0  0  0  0  0
  187.3070  176.3210  134.8940 N   0  0  0  0  0  2  0  0  0  0  0  0
  187.6850  173.9600  135.3500 C   0  0  0  0  0  0  0  0  0  0  0  0
  188.1380  175.1660  135.0460 C   0  0  0  0  0  0  0  0  0  0  0  0
  185.3290  174.4860  136.1830 C   0  0  1  0  0  0  0  0  0  0  0  0
  184.8000  172.1350  136.7700 O   0  0  0  0  0  1  0  0  0  0  0  0
  188.8390  171.8700  134.6180 C   0  0  0  0  0  2  0  0  0  0  0  0
  188.5040  170.6170  135.2570 N   0  0  0  0  0  1  0  0  0  0  0  0
  185.9560  178.0410  145.7930 C   0  0  0  0  0  2  0  0  0  0  0  0
  187.4770  178.0220  145.8900 C   0  0  0  0  0  2  0  0  0  0  0  0
  188.0050  177.1420  144.9370 O   0  0  0  0  0  0  0  0  0  0  0  0
  191.9820  176.0460  145.3830 C   0  0  0  0  0  2  0  0  0  0  0  0
  189.3360  177.5310  144.7940 C   0  0  1  0  0  3  0  0  0  0  0  0
  190.8920  176.0610  146.3730 N   0  0  0  0  0  0  0  0  0  0  0  0
  191.5820  176.6830  144.0450 C   0  0  0  0  0  2  0  0  0  0  0  0
  190.1560  177.6800  146.4310 S   0  0  0  0  0  0  0  0  0  0  0  0
  190.0670  176.5660  143.8440 C   0  0  2  0  0  3  0  0  0  0  0  0
  189.6620  176.7810  142.3910 C   0  0  0  0  0  3  0  0  0  0  0  0
  188.7760  178.0280  142.1750 C   0  0  0  0  0  2  0  0  0  0  0  0
  188.9400  178.6240  140.7790 C   0  0  0  0  0  2  0  0  0  0  0  0
  190.4530  176.7840  139.9960 C   0  0  0  0  0  2  0  0  0  0  0  0
  189.1310  177.5240  139.7530 C   0  0  0  0  0  2  0  0  0  0  0  0
  190.8860  176.7710  141.4680 C   0  0  0  0  0  2  0  0  0  0  0  0
  191.5420  175.8560  147.6610 C   0  0  0  0  0  2  0  0  0  0  0  0
  192.0650  177.0700  148.1230 O   0  0  0  0  0  1  0  0  0  0  0  0
  1  7  1  0  0  0  0
  1  4  1  0  0  0  0
  2  3  1  0  0  0  0
  2  6  1  0  0  0  0
  3  1  2  0  0  0  0
  4  5  1  0  0  0  0
  5 48  1  0  0  0  0
  6  7  2  0  0  0  0
  8  4  1  1  0  0  0
  8  5  1  0  0  0  0
  9 24  1  6  0  0  0
  9  3  1  0  0  0  0
  9  8  1  0  0  0  0
 10 21  1  6  0  0  0
 10  6  1  0  0  0  0
 11 14  2  0  0  0  0
 11 12  1  0  0  0  0
 12 16  2  0  0  0  0
 14 15  1  0  0  0  0
 15 13  2  0  0  0  0
 16 13  1  0  0  0  0
 16 10  1  0  0  0  0
 17 18  1  0  0  0  0
 18 19  1  0  0  0  0
 19 14  1  0  0  0  0
 20 18  2  0  0  0  0
 21 22  2  0  0  0  0
 23 21  1  0  0  0  0
 25 24  1  0  0  0  0
 26 25  1  0  0  0  0
 27 28  1  1  0  0  0
 27 26  1  0  0  0  0
 30 29  1  1  0  0  0
 30 27  1  0  0  0  0
 31 43  1  0  0  0  0
 31 35  1  0  0  0  0
 31 37  1  1  0  0  0
 32 42  1  1  0  0  0
 32 44  1  0  0  0  0
 32 40  1  0  0  0  0
 35 39  1  0  0  0  0
 36 30  1  1  0  0  0
 36 33  1  0  0  0  0
 39 46  1  6  0  0  0
 40 45  1  0  0  0  0
 40 34  1  0  0  0  0
 41 43  1  0  0  0  0
 41 36  1  0  0  0  0
 42 39  1  0  0  0  0
 43 42  2  0  0  0  0
 44 38  1  6  0  0  0
 44 40  1  0  0  0  0
 44 33  1  0  0  0  0
 46 47  1  0  0  0  0
 48 49  1  0  0  0  0
 50 49  1  0  0  0  0
 51 53  1  0  0  0  0
 52 50  1  1  0  0  0
 52 55  1  0  0  0  0
 53 55  1  0  0  0  0
 53 63  1  0  0  0  0
 54 51  1  0  0  0  0
 56 57  1  6  0  0  0
 56 54  1  0  0  0  0
 56 52  1  0  0  0  0
 58 57  1  0  0  0  0
 59 58  1  0  0  0  0
 60 62  1  0  0  0  0
 61 60  1  0  0  0  0
 61 59  1  0  0  0  0
 62 57  1  0  0  0  0
 63 64  1  0  0  0  0
M  END
>  <MODEL>
3

>  <REMARK>
 VINA RESULT:      -6.6      3.137      9.022
  Name = 
  17 active torsions:
  status: ('A' for Active; 'I' for Inactive)
    1  A    between atoms: C_3  and  O_38
    2  A    between atoms: C_3  and  C_58
    3  A    between atoms: C_9  and  C_54
    4  A    between atoms: C_12  and  O_38
    5  A    between atoms: C_14  and  C_35
    6  A    between atoms: C_14  and  O_48
    7  A    between atoms: C_15  and  C_51
    8  A    between atoms: C_15  and  C_52
    9  A    between atoms: N_20  and  C_58
   10  A    between atoms: C_21  and  C_23
   11  A    between atoms: C_21  and  C_28
   12  A    between atoms: C_21  and  C_60
   13  A    between atoms: N_22  and  C_44
   14  A    between atoms: C_29  and  C_35
   15  A    between atoms: C_32  and  C_36
   16  A    between atoms: C_37  and  N_50
   17  A    between atoms: O_48  and  C_51
                            x       y       z     vdW  Elec       q    Type
                         _______ _______ _______ _____ _____    ______ ____

>  <TORSDO>
F 17

$$$$
=
 OpenBabel11032419593D

 64 72  0  0  1  0  0  0  0  0999 V2000
  188.0110  177.6740  139.5090 C   0  0  0  0  0  0  0  0  0  0  0  0
  185.7430  177.5900  138.5220 S   0  0  0  0  0  0  0  0  0  0  0  0
  186.6980  177.5940  139.9060 C   0  0  0  0  0  0  0  0  0  0  0  0
  188.5620  178.3270  140.6040 N   0  0  0  0  0  0  0  0  0  0  0  0
  188.7710  178.1580  142.0490 N   0  0  0  0  0  0  0  0  0  0  0  0
  187.0530  177.6890  137.4390 C   0  0  0  0  0  0  0  0  0  0  0  0
  188.2570  177.8290  138.1460 C   0  0  0  0  0  3  0  0  0  0  0  0
  187.8010  178.9560  141.6360 C   0  0  2  0  0  3  0  0  0  0  0  0
  186.4700  178.2120  141.3140 C   0  0  1  0  0  3  0  0  0  0  0  0
  186.9180  177.6040  135.9440 C   0  0  2  0  0  3  0  0  0  0  0  0
  185.5730  174.0820  135.3400 C   0  0  0  0  0  3  0  0  0  0  0  0
  186.4270  175.1440  135.6380 C   0  0  0  0  0  3  0  0  0  0  0  0
  184.7090  176.7170  134.9710 C   0  0  0  0  0  3  0  0  0  0  0  0
  184.2710  174.3290  134.8820 C   0  0  0  0  0  0  0  0  0  0  0  0
  183.8540  175.6510  134.6720 C   0  0  0  0  0  3  0  0  0  0  0  0
  185.9960  176.4730  135.4980 C   0  0  0  0  0  0  0  0  0  0  0  0
  181.5530  171.7800  135.8110 C   0  0  0  0  0  1  0  0  0  0  0  0
  182.9030  172.4350  135.8430 C   0  0  0  0  0  0  0  0  0  0  0  0
  183.3150  173.2690  134.7540 N   0  0  0  0  0  2  0  0  0  0  0  0
  183.7210  172.1600  136.8060 N   0  0  0  0  0  2  0  0  0  0  0  0
  188.2900  177.5230  135.3000 C   0  0  0  0  0  0  0  0  0  0  0  0
  189.0920  178.4960  135.3850 O   0  0  0  0  0  0  0  0  0  0  0  0
  188.7100  176.3540  134.5940 N   0  0  0  0  0  1  0  0  0  0  0  0
  185.3120  179.1970  141.3700 C   0  0  0  0  0  2  0  0  0  0  0  0
  184.0290  178.4700  141.7080 C   0  0  0  0  0  2  0  0  0  0  0  0
  182.9400  179.3470  141.5820 O   0  0  0  0  0  0  0  0  0  0  0  0
  182.2920  178.9660  140.4160 C   0  0  2  0  0  3  0  0  0  0  0  0
  182.8600  179.7860  139.2480 C   0  0  0  0  0  1  0  0  0  0  0  0
  180.1690  180.4380  140.3510 C   0  0  0  0  0  1  0  0  0  0  0  0
  180.7640  179.0510  140.5890 C   0  0  1  0  0  3  0  0  0  0  0  0
  179.8090  178.7780  136.2080 C   0  0  2  0  0  3  0  0  0  0  0  0
  179.2220  175.5210  138.0610 C   0  0  2  0  0  3  0  0  0  0  0  0
  180.7750  176.7830  139.6400 N   0  0  0  0  0  2  0  0  0  0  0  0
  181.6780  174.9320  137.8310 O   0  0  0  0  0  1  0  0  0  0  0  0
  180.2300  177.7900  135.1280 C   0  0  0  0  0  2  0  0  0  0  0  0
  179.9380  177.9590  139.9030 C   0  0  2  0  0  3  0  0  0  0  0  0
  180.9880  179.6940  136.5050 C   0  0  0  0  0  1  0  0  0  0  0  0
  179.2370  175.0140  140.6540 C   0  0  0  0  0  1  0  0  0  0  0  0
  180.0240  176.3890  135.6950 C   0  0  1  0  0  3  0  0  0  0  0  0
  180.4320  174.6350  138.4080 C   0  0  0  0  0  0  0  0  0  0  0  0
  179.2910  178.4490  138.6870 N   0  0  0  0  0  2  0  0  0  0  0  0
  179.5950  176.6210  137.1080 C   0  0  0  0  0  0  0  0  0  0  0  0
  179.5190  177.9140  137.3790 C   0  0  0  0  0  0  0  0  0  0  0  0
  179.9120  175.6210  139.4370 C   0  0  1  0  0  0  0  0  0  0  0  0
  180.1340  173.2900  138.6200 O   0  0  0  0  0  1  0  0  0  0  0  0
  178.9500  175.6750  134.8890 C   0  0  0  0  0  2  0  0  0  0  0  0
  179.1540  174.2430  134.9140 N   0  0  0  0  0  1  0  0  0  0  0  0
  189.8870  178.9990  142.4630 C   0  0  0  0  0  2  0  0  0  0  0  0
  190.8810  178.1530  143.2520 C   0  0  0  0  0  2  0  0  0  0  0  0
  190.7750  178.4430  144.6180 O   0  0  0  0  0  0  0  0  0  0  0  0
  190.5350  176.1250  148.0510 C   0  0  0  0  0  2  0  0  0  0  0  0
  190.2830  177.2720  145.1920 C   0  0  1  0  0  3  0  0  0  0  0  0
  191.7190  176.6330  147.3380 N   0  0  0  0  0  0  0  0  0  0  0  0
  189.2260  176.3850  147.2940 C   0  0  0  0  0  2  0  0  0  0  0  0
  191.6540  176.1310  145.6320 S   0  0  0  0  0  0  0  0  0  0  0  0
  189.3800  177.6120  146.3900 C   0  0  2  0  0  3  0  0  0  0  0  0
  188.0340  178.1730  145.9470 C   0  0  0  0  0  3  0  0  0  0  0  0
  187.3370  177.3220  144.8620 C   0  0  0  0  0  2  0  0  0  0  0  0
  185.8160  177.4410  144.9160 C   0  0  0  0  0  2  0  0  0  0  0  0
  185.8550  179.1860  146.7150 C   0  0  0  0  0  2  0  0  0  0  0  0
  185.4080  178.8540  145.2860 C   0  0  0  0  0  2  0  0  0  0  0  0
  187.1220  178.4370  147.1510 C   0  0  0  0  0  2  0  0  0  0  0  0
  192.8520  175.9340  147.9310 C   0  0  0  0  0  2  0  0  0  0  0  0
  193.3090  176.6420  149.0490 O   0  0  0  0  0  1  0  0  0  0  0  0
  1  3  2  0  0  0  0
  1  4  1  0  0  0  0
  2  3  1  0  0  0  0
  3  9  1  0  0  0  0
  4  5  1  0  0  0  0
  5 48  1  0  0  0  0
  6  7  2  0  0  0  0
  6  2  1  0  0  0  0
  7  1  1  0  0  0  0
  8  4  1  6  0  0  0
  8  5  1  0  0  0  0
  9 24  1  6  0  0  0
  9  8  1  0  0  0  0
 10 21  1  6  0  0  0
 10  6  1  0  0  0  0
 11 12  1  0  0  0  0
 13 16  1  0  0  0  0
 14 11  2  0  0  0  0
 15 14  1  0  0  0  0
 15 13  2  0  0  0  0
 16 12  2  0  0  0  0
 16 10  1  0  0  0  0
 17 18  1  0  0  0  0
 18 20  2  0  0  0  0
 19 14  1  0  0  0  0
 19 18  1  0  0  0  0
 21 22  2  0  0  0  0
 23 21  1  0  0  0  0
 24 25  1  0  0  0  0
 26 25  1  0  0  0  0
 27 28  1  6  0  0  0
 27 30  1  0  0  0  0
 27 26  1  0  0  0  0
 30 29  1  6  0  0  0
 31 37  1  1  0  0  0
 31 43  1  0  0  0  0
 32 42  1  6  0  0  0
 32 40  1  0  0  0  0
 32 44  1  0  0  0  0
 33 36  1  0  0  0  0
 34 40  1  0  0  0  0
 35 39  1  0  0  0  0
 35 31  1  0  0  0  0
 36 30  1  6  0  0  0
 39 46  1  6  0  0  0
 39 42  1  0  0  0  0
 40 45  1  0  0  0  0
 40 44  1  0  0  0  0
 41 36  1  0  0  0  0
 42 43  2  0  0  0  0
 43 41  1  0  0  0  0
 44 33  1  0  0  0  0
 44 38  1  1  0  0  0
 46 47  1  0  0  0  0
 48 49  1  0  0  0  0
 49 50  1  0  0  0  0
 52 50  1  1  0  0  0
 52 55  1  0  0  0  0
 52 56  1  0  0  0  0
 53 63  1  0  0  0  0
 53 51  1  0  0  0  0
 54 51  1  0  0  0  0
 55 53  1  0  0  0  0
 56 57  1  6  0  0  0
 56 54  1  0  0  0  0
 57 62  1  0  0  0  0
 58 59  1  0  0  0  0
 58 57  1  0  0  0  0
 59 61  1  0  0  0  0
 60 62  1  0  0  0  0
 61 60  1  0  0  0  0
 63 64  1  0  0  0  0
M  END
>  <MODEL>
4

>  <REMARK>
 VINA RESULT:      -6.5      3.186      8.762
  Name = 
  17 active torsions:
  status: ('A' for Active; 'I' for Inactive)
    1  A    between atoms: C_3  and  O_38
    2  A    between atoms: C_3  and  C_58
    3  A    between atoms: C_9  and  C_54
    4  A    between atoms: C_12  and  O_38
    5  A    between atoms: C_14  and  C_35
    6  A    between atoms: C_14  and  O_48
    7  A    between atoms: C_15  and  C_51
    8  A    between atoms: C_15  and  C_52
    9  A    between atoms: N_20  and  C_58
   10  A    between atoms: C_21  and  C_23
   11  A    between atoms: C_21  and  C_28
   12  A    between atoms: C_21  and  C_60
   13  A    between atoms: N_22  and  C_44
   14  A    between atoms: C_29  and  C_35
   15  A    between atoms: C_32  and  C_36
   16  A    between atoms: C_37  and  N_50
   17  A    between atoms: O_48  and  C_51
                            x       y       z     vdW  Elec       q    Type
                         _______ _______ _______ _____ _____    ______ ____

>  <TORSDO>
F 17

$$$$
=
 OpenBabel11032419593D

 64 72  0  0  1  0  0  0  0  0999 V2000
  189.0950  178.1340  139.2650 C   0  0  0  0  0  0  0  0  0  0  0  0
  188.9230  177.3650  136.9180 S   0  0  0  0  0  0  0  0  0  0  0  0
  189.9030  177.6870  138.2460 C   0  0  0  0  0  0  0  0  0  0  0  0
  189.8280  177.7110  140.3660 N   0  0  0  0  0  0  0  0  0  0  0  0
  191.1340  177.9020  141.0110 N   0  0  0  0  0  0  0  0  0  0  0  0
  187.4750  177.8140  137.6910 C   0  0  0  0  0  0  0  0  0  0  0  0
  187.7200  178.1290  139.0370 C   0  0  0  0  0  3  0  0  0  0  0  0
  190.9290  176.8050  140.3030 C   0  0  2  0  0  3  0  0  0  0  0  0
  191.1850  176.9850  138.7770 C   0  0  1  0  0  3  0  0  0  0  0  0
  186.1400  177.8870  137.0030 C   0  0  2  0  0  3  0  0  0  0  0  0
  182.9060  177.6830  139.0240 C   0  0  0  0  0  3  0  0  0  0  0  0
  183.9090  177.4140  138.0920 C   0  0  0  0  0  3  0  0  0  0  0  0
  185.0420  179.4650  138.7120 C   0  0  0  0  0  3  0  0  0  0  0  0
  182.9790  178.8300  139.8290 C   0  0  0  0  0  0  0  0  0  0  0  0
  184.0360  179.7330  139.6470 C   0  0  0  0  0  3  0  0  0  0  0  0
  185.0080  178.2760  137.9510 C   0  0  0  0  0  0  0  0  0  0  0  0
  179.7180  178.8850  141.8560 C   0  0  0  0  0  1  0  0  0  0  0  0
  180.6680  179.2580  140.7550 C   0  0  0  0  0  0  0  0  0  0  0  0
  182.0720  179.0290  140.9210 N   0  0  0  0  0  2  0  0  0  0  0  0
  180.2210  179.8730  139.7110 N   0  0  0  0  0  2  0  0  0  0  0  0
  185.8600  176.5900  136.2670 C   0  0  0  0  0  0  0  0  0  0  0  0
  186.0970  175.4790  136.8220 O   0  0  0  0  0  0  0  0  0  0  0  0
  185.3200  176.5880  134.9450 N   0  0  0  0  0  1  0  0  0  0  0  0
  191.4460  175.6280  138.1420 C   0  0  0  0  0  2  0  0  0  0  0  0
  190.1700  175.0860  137.5350 C   0  0  0  0  0  2  0  0  0  0  0  0
  190.3670  173.7560  137.1300 O   0  0  0  0  0  0  0  0  0  0  0  0
  191.3580  173.8090  136.1600 C   0  0  2  0  0  3  0  0  0  0  0  0
  190.8780  174.7110  135.0150 C   0  0  0  0  0  1  0  0  0  0  0  0
  190.9200  171.7630  134.6430 C   0  0  0  0  0  1  0  0  0  0  0  0
  191.7830  172.3890  135.7380 C   0  0  1  0  0  3  0  0  0  0  0  0
  194.8030  175.5620  134.7410 C   0  0  2  0  0  3  0  0  0  0  0  0
  196.3870  172.2980  135.8480 C   0  0  2  0  0  3  0  0  0  0  0  0
  194.0080  172.0870  136.7370 N   0  0  0  0  0  2  0  0  0  0  0  0
  196.0990  172.9660  138.2770 O   0  0  0  0  0  1  0  0  0  0  0  0
  196.0040  176.1060  135.5020 C   0  0  0  0  0  2  0  0  0  0  0  0
  193.2740  172.1750  135.4690 C   0  0  2  0  0  3  0  0  0  0  0  0
  193.5380  176.1220  135.3790 C   0  0  0  0  0  1  0  0  0  0  0  0
  195.2910  169.9300  136.2600 C   0  0  0  0  0  1  0  0  0  0  0  0
  196.8000  174.9060  136.0040 C   0  0  1  0  0  3  0  0  0  0  0  0
  196.4290  171.9650  137.3500 C   0  0  0  0  0  0  0  0  0  0  0  0
  193.8250  173.2080  134.5940 N   0  0  0  0  0  2  0  0  0  0  0  0
  195.9770  173.7230  135.6080 C   0  0  0  0  0  0  0  0  0  0  0  0
  194.8850  174.0970  134.9590 C   0  0  0  0  0  0  0  0  0  0  0  0
  195.2920  171.4300  136.4990 C   0  0  1  0  0  0  0  0  0  0  0  0
  197.4160  171.0540  137.7220 O   0  0  0  0  0  1  0  0  0  0  0  0
  198.1660  174.8940  135.3340 C   0  0  0  0  0  2  0  0  0  0  0  0
  199.1040  174.0950  136.0910 N   0  0  0  0  0  1  0  0  0  0  0  0
  191.0180  177.5460  142.4200 C   0  0  0  0  0  2  0  0  0  0  0  0
  189.6380  176.9490  142.6700 C   0  0  0  0  0  2  0  0  0  0  0  0
  188.8430  177.8640  143.3700 O   0  0  0  0  0  0  0  0  0  0  0  0
  189.1310  177.4140  147.4850 C   0  0  0  0  0  2  0  0  0  0  0  0
  188.4010  177.1650  144.4920 C   0  0  1  0  0  3  0  0  0  0  0  0
  190.1830  177.3670  146.4560 N   0  0  0  0  0  0  0  0  0  0  0  0
  187.7180  177.4880  146.8900 C   0  0  0  0  0  2  0  0  0  0  0  0
  189.7580  176.1620  145.2170 S   0  0  0  0  0  0  0  0  0  0  0  0
  187.7680  178.1370  145.5030 C   0  0  2  0  0  3  0  0  0  0  0  0
  186.3990  178.6240  145.0460 C   0  0  0  0  0  3  0  0  0  0  0  0
  186.1340  178.3990  143.5410 C   0  0  0  0  0  2  0  0  0  0  0  0
  184.6500  178.2240  143.2300 C   0  0  0  0  0  2  0  0  0  0  0  0
  183.9360  178.6960  145.5870 C   0  0  0  0  0  2  0  0  0  0  0  0
  183.8130  179.1240  144.1190 C   0  0  0  0  0  2  0  0  0  0  0  0
  185.2840  178.0440  145.9250 C   0  0  0  0  0  2  0  0  0  0  0  0
  191.3640  176.8570  147.1400 C   0  0  0  0  0  2  0  0  0  0  0  0
  192.1340  176.0990  146.2490 O   0  0  0  0  0  1  0  0  0  0  0  0
  1  4  1  0  0  0  0
  2  6  1  0  0  0  0
  2  3  1  0  0  0  0
  3  9  1  0  0  0  0
  3  1  2  0  0  0  0
  4  5  1  0  0  0  0
  5 48  1  0  0  0  0
  6  7  2  0  0  0  0
  7  1  1  0  0  0  0
  8  4  1  6  0  0  0
  8  5  1  0  0  0  0
  9 24  1  6  0  0  0
  9  8  1  0  0  0  0
 10 21  1  1  0  0  0
 10  6  1  0  0  0  0
 10 16  1  0  0  0  0
 11 14  1  0  0  0  0
 12 11  2  0  0  0  0
 13 15  1  0  0  0  0
 14 19  1  0  0  0  0
 15 14  2  0  0  0  0
 16 12  1  0  0  0  0
 16 13  2  0  0  0  0
 18 19  1  0  0  0  0
 18 17  1  0  0  0  0
 20 18  2  0  0  0  0
 21 22  2  0  0  0  0
 23 21  1  0  0  0  0
 25 24  1  0  0  0  0
 26 25  1  0  0  0  0
 27 28  1  6  0  0  0
 27 26  1  0  0  0  0
 30 29  1  6  0  0  0
 30 27  1  0  0  0  0
 31 43  1  0  0  0  0
 31 37  1  1  0  0  0
 31 35  1  0  0  0  0
 32 42  1  1  0  0  0
 32 44  1  0  0  0  0
 32 40  1  0  0  0  0
 35 39  1  0  0  0  0
 36 30  1  1  0  0  0
 36 33  1  0  0  0  0
 39 46  1  6  0  0  0
 40 45  1  0  0  0  0
 40 34  1  0  0  0  0
 41 43  1  0  0  0  0
 41 36  1  0  0  0  0
 42 39  1  0  0  0  0
 43 42  2  0  0  0  0
 44 38  1  6  0  0  0
 44 33  1  0  0  0  0
 44 40  1  0  0  0  0
 46 47  1  0  0  0  0
 48 49  1  0  0  0  0
 49 50  1  0  0  0  0
 52 50  1  6  0  0  0
 52 55  1  0  0  0  0
 52 56  1  0  0  0  0
 53 63  1  0  0  0  0
 53 51  1  0  0  0  0
 54 51  1  0  0  0  0
 55 53  1  0  0  0  0
 56 57  1  6  0  0  0
 56 54  1  0  0  0  0
 57 62  1  0  0  0  0
 58 57  1  0  0  0  0
 59 58  1  0  0  0  0
 59 61  1  0  0  0  0
 60 62  1  0  0  0  0
 61 60  1  0  0  0  0
 64 63  1  0  0  0  0
M  END
>  <MODEL>
5

>  <REMARK>
 VINA RESULT:      -6.2      3.076     11.773
  Name = 
  17 active torsions:
  status: ('A' for Active; 'I' for Inactive)
    1  A    between atoms: C_3  and  O_38
    2  A    between atoms: C_3  and  C_58
    3  A    between atoms: C_9  and  C_54
    4  A    between atoms: C_12  and  O_38
    5  A    between atoms: C_14  and  C_35
    6  A    between atoms: C_14  and  O_48
    7  A    between atoms: C_15  and  C_51
    8  A    between atoms: C_15  and  C_52
    9  A    between atoms: N_20  and  C_58
   10  A    between atoms: C_21  and  C_23
   11  A    between atoms: C_21  and  C_28
   12  A    between atoms: C_21  and  C_60
   13  A    between atoms: N_22  and  C_44
   14  A    between atoms: C_29  and  C_35
   15  A    between atoms: C_32  and  C_36
   16  A    between atoms: C_37  and  N_50
   17  A    between atoms: O_48  and  C_51
                            x       y       z     vdW  Elec       q    Type
                         _______ _______ _______ _____ _____    ______ ____

>  <TORSDO>
F 17

$$$$
=
 OpenBabel11032419593D

 64 72  0  0  1  0  0  0  0  0999 V2000
  187.2820  178.9860  140.6080 C   0  0  0  0  0  0  0  0  0  0  0  0
  184.8560  178.9100  141.1000 S   0  0  0  0  0  0  0  0  0  0  0  0
  186.0780  178.9450  139.9450 C   0  0  0  0  0  0  0  0  0  0  0  0
  188.0980  178.3500  139.6820 N   0  0  0  0  0  0  0  0  0  0  0  0
  188.5910  178.4930  138.3050 N   0  0  0  0  0  0  0  0  0  0  0  0
  185.9140  178.9530  142.4330 C   0  0  0  0  0  0  0  0  0  0  0  0
  187.2470  178.8930  141.9980 C   0  0  0  0  0  3  0  0  0  0  0  0
  187.6200  177.6300  138.5450 C   0  0  2  0  0  3  0  0  0  0  0  0
  186.1990  178.2680  138.5500 C   0  0  1  0  0  3  0  0  0  0  0  0
  185.4630  179.0700  143.8630 C   0  0  2  0  0  3  0  0  0  0  0  0
  188.2000  176.7610  145.1910 C   0  0  0  0  0  3  0  0  0  0  0  0
  187.2570  177.3590  144.3540 C   0  0  0  0  0  3  0  0  0  0  0  0
  186.4510  178.6940  146.2080 C   0  0  0  0  0  3  0  0  0  0  0  0
  188.2950  177.1460  146.5360 C   0  0  0  0  0  0  0  0  0  0  0  0
  187.3960  178.0950  147.0460 C   0  0  0  0  0  3  0  0  0  0  0  0
  186.4000  178.3600  144.8370 C   0  0  0  0  0  0  0  0  0  0  0  0
  191.8300  176.7870  147.9920 C   0  0  0  0  0  1  0  0  0  0  0  0
  190.7460  176.7050  146.9560 C   0  0  0  0  0  0  0  0  0  0  0  0
  189.3730  176.6930  147.3640 N   0  0  0  0  0  2  0  0  0  0  0  0
  191.0650  176.5470  145.7140 N   0  0  0  0  0  2  0  0  0  0  0  0
  184.0250  178.6030  143.9970 C   0  0  0  0  0  0  0  0  0  0  0  0
  183.4780  177.9520  143.0630 O   0  0  0  0  0  0  0  0  0  0  0  0
  183.2620  178.8780  145.1730 N   0  0  0  0  0  1  0  0  0  0  0  0
  185.1560  177.1890  138.3020 C   0  0  0  0  0  2  0  0  0  0  0  0
  184.3780  177.5000  137.0410 C   0  0  0  0  0  2  0  0  0  0  0  0
  184.0770  176.3070  136.3650 O   0  0  0  0  0  0  0  0  0  0  0  0
  182.7350  176.0650  136.6230 C   0  0  2  0  0  3  0  0  0  0  0  0
  182.4700  174.5600  136.4770 C   0  0  0  0  0  1  0  0  0  0  0  0
  181.1410  176.2590  134.5990 C   0  0  0  0  0  1  0  0  0  0  0  0
  181.8420  176.9720  135.7540 C   0  0  1  0  0  3  0  0  0  0  0  0
  180.5720  176.6200  140.0490 C   0  0  2  0  0  3  0  0  0  0  0  0
  179.8560  180.0360  138.5630 C   0  0  2  0  0  3  0  0  0  0  0  0
  181.6080  179.0960  136.9690 N   0  0  0  0  0  2  0  0  0  0  0  0
  182.2350  180.7630  139.0530 O   0  0  0  0  0  1  0  0  0  0  0  0
  180.8390  177.4910  141.2700 C   0  0  0  0  0  2  0  0  0  0  0  0
  180.8870  177.9060  136.5010 C   0  0  2  0  0  3  0  0  0  0  0  0
  181.8390  175.8350  139.7360 C   0  0  0  0  0  1  0  0  0  0  0  0
  180.0070  180.8660  136.0590 C   0  0  0  0  0  1  0  0  0  0  0  0
  180.5610  178.9340  140.8620 C   0  0  1  0  0  3  0  0  0  0  0  0
  181.0120  181.0420  138.4210 C   0  0  0  0  0  0  0  0  0  0  0  0
  180.2010  177.2220  137.5960 N   0  0  0  0  0  2  0  0  0  0  0  0
  180.2490  178.8530  139.4020 C   0  0  0  0  0  0  0  0  0  0  0  0
  180.2950  177.6030  138.9720 C   0  0  0  0  0  0  0  0  0  0  0  0
  180.6430  180.1590  137.2430 C   0  0  1  0  0  0  0  0  0  0  0  0
  180.6220  182.3780  138.3500 O   0  0  0  0  0  1  0  0  0  0  0  0
  179.3810  179.4630  141.6630 C   0  0  0  0  0  2  0  0  0  0  0  0
  179.8180  180.4320  142.6440 N   0  0  0  0  0  1  0  0  0  0  0  0
  189.8300  177.7360  138.1700 C   0  0  0  0  0  2  0  0  0  0  0  0
  189.5220  176.3910  137.5230 C   0  0  0  0  0  2  0  0  0  0  0  0
  189.9580  175.3510  138.3540 O   0  0  0  0  0  0  0  0  0  0  0  0
  189.0670  173.7960  134.6120 C   0  0  0  0  0  2  0  0  0  0  0  0
  189.9850  174.2260  137.5310 C   0  0  1  0  0  3  0  0  0  0  0  0
  188.1930  174.4760  135.5830 N   0  0  0  0  0  0  0  0  0  0  0  0
  190.4660  173.5040  135.1710 C   0  0  0  0  0  2  0  0  0  0  0  0
  188.2830  173.6480  137.1550 S   0  0  0  0  0  0  0  0  0  0  0  0
  190.8120  174.5180  136.2670 C   0  0  2  0  0  3  0  0  0  0  0  0
  192.3070  174.5600  136.5600 C   0  0  0  0  0  3  0  0  0  0  0  0
  193.0820  173.3510  135.9910 C   0  0  0  0  0  2  0  0  0  0  0  0
  194.5340  173.6910  135.6660 C   0  0  0  0  0  2  0  0  0  0  0  0
  194.3710  176.0080  136.6080 C   0  0  0  0  0  2  0  0  0  0  0  0
  195.0940  174.6580  136.6920 C   0  0  0  0  0  2  0  0  0  0  0  0
  192.9180  175.8980  136.1280 C   0  0  0  0  0  2  0  0  0  0  0  0
  186.8380  174.2720  135.0860 C   0  0  0  0  0  2  0  0  0  0  0  0
  186.1390  173.4280  135.9570 O   0  0  0  0  0  1  0  0  0  0  0  0
  1  7  1  0  0  0  0
  2  6  1  0  0  0  0
  3  1  2  0  0  0  0
  3  2  1  0  0  0  0
  4  1  1  0  0  0  0
  5  4  1  0  0  0  0
  6 10  1  0  0  0  0
  7  6  2  0  0  0  0
  8  5  1  6  0  0  0
  8  9  1  0  0  0  0
  8  4  1  0  0  0  0
  9 24  1  1  0  0  0
  9  3  1  0  0  0  0
 10 21  1  6  0  0  0
 10 16  1  0  0  0  0
 11 14  1  0  0  0  0
 12 16  1  0  0  0  0
 12 11  2  0  0  0  0
 13 15  1  0  0  0  0
 14 15  2  0  0  0  0
 14 19  1  0  0  0  0
 16 13  2  0  0  0  0
 18 19  1  0  0  0  0
 18 17  1  0  0  0  0
 20 18  2  0  0  0  0
 21 23  1  0  0  0  0
 22 21  2  0  0  0  0
 25 24  1  0  0  0  0
 26 27  1  0  0  0  0
 26 25  1  0  0  0  0
 27 28  1  6  0  0  0
 30 29  1  6  0  0  0
 30 27  1  0  0  0  0
 31 37  1  6  0  0  0
 31 35  1  0  0  0  0
 32 42  1  1  0  0  0
 33 44  1  0  0  0  0
 36 30  1  1  0  0  0
 36 33  1  0  0  0  0
 36 41  1  0  0  0  0
 39 35  1  0  0  0  0
 39 46  1  1  0  0  0
 40 32  1  0  0  0  0
 40 34  1  0  0  0  0
 41 43  1  0  0  0  0
 42 39  1  0  0  0  0
 43 42  2  0  0  0  0
 43 31  1  0  0  0  0
 44 38  1  6  0  0  0
 44 40  1  0  0  0  0
 44 32  1  0  0  0  0
 45 40  1  0  0  0  0
 46 47  1  0  0  0  0
 48  5  1  0  0  0  0
 49 48  1  0  0  0  0
 49 50  1  0  0  0  0
 51 54  1  0  0  0  0
 51 53  1  0  0  0  0
 52 50  1  1  0  0  0
 53 55  1  0  0  0  0
 54 56  1  0  0  0  0
 55 52  1  0  0  0  0
 56 57  1  1  0  0  0
 56 52  1  0  0  0  0
 58 57  1  0  0  0  0
 59 58  1  0  0  0  0
 59 61  1  0  0  0  0
 60 61  1  0  0  0  0
 62 57  1  0  0  0  0
 62 60  1  0  0  0  0
 63 53  1  0  0  0  0
 63 64  1  0  0  0  0
M  END
>  <MODEL>
6

>  <REMARK>
 VINA RESULT:      -6.0      1.569      2.944
  Name = 
  17 active torsions:
  status: ('A' for Active; 'I' for Inactive)
    1  A    between atoms: C_3  and  O_38
    2  A    between atoms: C_3  and  C_58
    3  A    between atoms: C_9  and  C_54
    4  A    between atoms: C_12  and  O_38
    5  A    between atoms: C_14  and  C_35
    6  A    between atoms: C_14  and  O_48
    7  A    between atoms: C_15  and  C_51
    8  A    between atoms: C_15  and  C_52
    9  A    between atoms: N_20  and  C_58
   10  A    between atoms: C_21  and  C_23
   11  A    between atoms: C_21  and  C_28
   12  A    between atoms: C_21  and  C_60
   13  A    between atoms: N_22  and  C_44
   14  A    between atoms: C_29  and  C_35
   15  A    between atoms: C_32  and  C_36
   16  A    between atoms: C_37  and  N_50
   17  A    between atoms: O_48  and  C_51
                            x       y       z     vdW  Elec       q    Type
                         _______ _______ _______ _____ _____    ______ ____

>  <TORSDO>
F 17

$$$$
=
 OpenBabel11032419593D

 64 72  0  0  1  0  0  0  0  0999 V2000
  183.3090  177.2710  138.7670 C   0  0  0  0  0  0  0  0  0  0  0  0
  181.4260  177.4790  140.3620 S   0  0  0  0  0  0  0  0  0  0  0  0
  183.0890  177.4010  140.1180 C   0  0  0  0  0  0  0  0  0  0  0  0
  184.5520  177.8800  138.6590 N   0  0  0  0  0  0  0  0  0  0  0  0
  185.9370  177.7420  139.1300 N   0  0  0  0  0  0  0  0  0  0  0  0
  181.0300  177.3420  138.7120 C   0  0  0  0  0  0  0  0  0  0  0  0
  182.1960  177.3330  137.9310 C   0  0  0  0  0  3  0  0  0  0  0  0
  185.1640  178.6550  139.6910 C   0  0  2  0  0  3  0  0  0  0  0  0
  184.2720  178.1020  140.8420 C   0  0  1  0  0  3  0  0  0  0  0  0
  179.6240  177.2170  138.1910 C   0  0  2  0  0  3  0  0  0  0  0  0
  179.1250  174.4800  135.5750 C   0  0  0  0  0  3  0  0  0  0  0  0
  179.2760  175.7290  136.1780 C   0  0  0  0  0  3  0  0  0  0  0  0
  179.1720  174.6910  138.3650 C   0  0  0  0  0  3  0  0  0  0  0  0
  179.0260  173.3230  136.3620 C   0  0  0  0  0  0  0  0  0  0  0  0
  179.0210  173.4390  137.7600 C   0  0  0  0  0  3  0  0  0  0  0  0
  179.3430  175.8490  137.5750 C   0  0  0  0  0  0  0  0  0  0  0  0
  179.9790  169.6510  135.7680 C   0  0  0  0  0  1  0  0  0  0  0  0
  180.1870  171.1340  135.8710 C   0  0  0  0  0  0  0  0  0  0  0  0
  179.0650  172.0180  135.7710 N   0  0  0  0  0  2  0  0  0  0  0  0
  181.3880  171.6040  135.9500 N   0  0  0  0  0  2  0  0  0  0  0  0
  179.3180  178.3560  137.2380 C   0  0  0  0  0  0  0  0  0  0  0  0
  179.2150  178.1380  135.9970 O   0  0  0  0  0  0  0  0  0  0  0  0
  179.1300  179.6910  137.7120 N   0  0  0  0  0  1  0  0  0  0  0  0
  183.8430  179.2470  141.7470 C   0  0  0  0  0  2  0  0  0  0  0  0
  184.9740  179.6220  142.6800 C   0  0  0  0  0  2  0  0  0  0  0  0
  184.4600  179.9030  143.9570 O   0  0  0  0  0  0  0  0  0  0  0  0
  184.7530  178.7860  144.7260 C   0  0  2  0  0  3  0  0  0  0  0  0
  183.4800  178.3510  145.4660 C   0  0  0  0  0  1  0  0  0  0  0  0
  185.6460  179.7020  146.9720 C   0  0  0  0  0  1  0  0  0  0  0  0
  185.9730  179.0510  145.6290 C   0  0  1  0  0  3  0  0  0  0  0  0
  188.3540  177.0940  142.3600 C   0  0  2  0  0  3  0  0  0  0  0  0
  189.6820  176.3260  145.8290 C   0  0  2  0  0  3  0  0  0  0  0  0
  188.2700  178.4100  146.2270 N   0  0  0  0  0  2  0  0  0  0  0  0
  190.9800  178.5040  145.8300 O   0  0  0  0  0  1  0  0  0  0  0  0
  189.8470  177.0610  142.0610 C   0  0  0  0  0  2  0  0  0  0  0  0
  186.9650  177.8970  145.7900 C   0  0  2  0  0  3  0  0  0  0  0  0
  187.8180  178.4640  141.9690 C   0  0  0  0  0  1  0  0  0  0  0  0
  188.6330  176.8300  148.2010 C   0  0  0  0  0  1  0  0  0  0  0  0
  190.5600  176.7220  143.3660 C   0  0  1  0  0  3  0  0  0  0  0  0
  190.5280  177.3880  146.5530 C   0  0  0  0  0  0  0  0  0  0  0  0
  187.0770  177.0990  144.5710 N   0  0  0  0  0  2  0  0  0  0  0  0
  189.4670  176.6780  144.3850 C   0  0  0  0  0  0  0  0  0  0  0  0
  188.2890  176.9160  143.8320 C   0  0  0  0  0  0  0  0  0  0  0  0
  189.0360  177.3150  146.8200 C   0  0  1  0  0  0  0  0  0  0  0  0
  191.3690  176.8920  147.5480 O   0  0  0  0  0  1  0  0  0  0  0  0
  191.2540  175.3760  143.2230 C   0  0  0  0  0  2  0  0  0  0  0  0
  192.0150  175.0600  144.4130 N   0  0  0  0  0  1  0  0  0  0  0  0
  186.8220  178.4270  138.1950 C   0  0  0  0  0  2  0  0  0  0  0  0
  186.8600  177.6460  136.8850 C   0  0  0  0  0  2  0  0  0  0  0  0
  188.1370  177.1060  136.6910 O   0  0  0  0  0  0  0  0  0  0  0  0
  188.0920  173.0390  135.8660 C   0  0  0  0  0  2  0  0  0  0  0  0
  188.0610  175.8180  137.2190 C   0  0  1  0  0  3  0  0  0  0  0  0
  187.2240  174.1140  135.3560 N   0  0  0  0  0  0  0  0  0  0  0  0
  189.0380  173.5130  136.9780 C   0  0  0  0  0  2  0  0  0  0  0  0
  186.4960  174.9950  136.7200 S   0  0  0  0  0  0  0  0  0  0  0  0
  189.3120  175.0130  136.8260 C   0  0  2  0  0  3  0  0  0  0  0  0
  190.5430  175.4540  137.6090 C   0  0  0  0  0  3  0  0  0  0  0  0
  191.8700  175.2290  136.8520 C   0  0  0  0  0  2  0  0  0  0  0  0
  192.9510  176.2280  137.2600 C   0  0  0  0  0  2  0  0  0  0  0  0
  191.5420  177.2620  139.0580 C   0  0  0  0  0  2  0  0  0  0  0  0
  192.8550  176.5340  138.7420 C   0  0  0  0  0  2  0  0  0  0  0  0
  190.3950  176.8970  138.1050 C   0  0  0  0  0  2  0  0  0  0  0  0
  186.1310  173.4320  134.6760 C   0  0  0  0  0  2  0  0  0  0  0  0
  186.0630  172.1020  135.1100 O   0  0  0  0  0  1  0  0  0  0  0  0
  1  3  2  0  0  0  0
  3  2  1  0  0  0  0
  3  9  1  0  0  0  0
  4  1  1  0  0  0  0
  4  5  1  0  0  0  0
  5  8  1  0  0  0  0
  6  2  1  0  0  0  0
  7  6  2  0  0  0  0
  7  1  1  0  0  0  0
  8  4  1  6  0  0  0
  8  9  1  0  0  0  0
  9 24  1  1  0  0  0
 10 21  1  6  0  0  0
 10  6  1  0  0  0  0
 11 12  2  0  0  0  0
 11 14  1  0  0  0  0
 12 16  1  0  0  0  0
 14 15  2  0  0  0  0
 15 13  1  0  0  0  0
 16 10  1  0  0  0  0
 16 13  2  0  0  0  0
 17 18  1  0  0  0  0
 18 20  2  0  0  0  0
 19 18  1  0  0  0  0
 19 14  1  0  0  0  0
 21 23  1  0  0  0  0
 22 21  2  0  0  0  0
 24 25  1  0  0  0  0
 25 26  1  0  0  0  0
 26 27  1  0  0  0  0
 27 28  1  1  0  0  0
 27 30  1  0  0  0  0
 30 29  1  1  0  0  0
 31 37  1  1  0  0  0
 31 43  1  0  0  0  0
 32 42  1  6  0  0  0
 32 40  1  0  0  0  0
 32 44  1  0  0  0  0
 33 44  1  0  0  0  0
 34 40  1  0  0  0  0
 35 31  1  0  0  0  0
 35 39  1  0  0  0  0
 36 30  1  6  0  0  0
 36 33  1  0  0  0  0
 39 46  1  6  0  0  0
 39 42  1  0  0  0  0
 40 44  1  0  0  0  0
 40 45  1  0  0  0  0
 41 36  1  0  0  0  0
 43 42  2  0  0  0  0
 43 41  1  0  0  0  0
 44 38  1  1  0  0  0
 46 47  1  0  0  0  0
 48  5  1  0  0  0  0
 49 48  1  0  0  0  0
 50 49  1  0  0  0  0
 51 54  1  0  0  0  0
 52 50  1  6  0  0  0
 53 51  1  0  0  0  0
 53 55  1  0  0  0  0
 55 52  1  0  0  0  0
 56 54  1  0  0  0  0
 56 52  1  0  0  0  0
 56 57  1  1  0  0  0
 57 62  1  0  0  0  0
 58 59  1  0  0  0  0
 58 57  1  0  0  0  0
 59 61  1  0  0  0  0
 61 60  1  0  0  0  0
 62 60  1  0  0  0  0
 63 64  1  0  0  0  0
 63 53  1  0  0  0  0
M  END
>  <MODEL>
7

>  <REMARK>
 VINA RESULT:      -5.6      3.138      9.645
  Name = 
  17 active torsions:
  status: ('A' for Active; 'I' for Inactive)
    1  A    between atoms: C_3  and  O_38
    2  A    between atoms: C_3  and  C_58
    3  A    between atoms: C_9  and  C_54
    4  A    between atoms: C_12  and  O_38
    5  A    between atoms: C_14  and  C_35
    6  A    between atoms: C_14  and  O_48
    7  A    between atoms: C_15  and  C_51
    8  A    between atoms: C_15  and  C_52
    9  A    between atoms: N_20  and  C_58
   10  A    between atoms: C_21  and  C_23
   11  A    between atoms: C_21  and  C_28
   12  A    between atoms: C_21  and  C_60
   13  A    between atoms: N_22  and  C_44
   14  A    between atoms: C_29  and  C_35
   15  A    between atoms: C_32  and  C_36
   16  A    between atoms: C_37  and  N_50
   17  A    between atoms: O_48  and  C_51
                            x       y       z     vdW  Elec       q    Type
                         _______ _______ _______ _____ _____    ______ ____

>  <TORSDO>
F 17

$$$$
=
 OpenBabel11032419593D

 64 72  0  0  1  0  0  0  0  0999 V2000
  183.4370  178.8160  141.9730 C   0  0  0  0  0  0  0  0  0  0  0  0
  185.6650  177.8360  142.4250 S   0  0  0  0  0  0  0  0  0  0  0  0
  184.3560  177.9830  141.3800 C   0  0  0  0  0  0  0  0  0  0  0  0
  182.8350  179.3640  140.8470 N   0  0  0  0  0  0  0  0  0  0  0  0
  182.0580  178.9730  139.6640 N   0  0  0  0  0  0  0  0  0  0  0  0
  185.0110  178.8530  143.6240 C   0  0  0  0  0  0  0  0  0  0  0  0
  183.7990  179.4070  143.1830 C   0  0  0  0  0  3  0  0  0  0  0  0
  183.3440  179.2390  139.5190 C   0  0  2  0  0  3  0  0  0  0  0  0
  184.2750  178.0290  139.8280 C   0  0  1  0  0  3  0  0  0  0  0  0
  185.6430  179.0850  144.9690 C   0  0  2  0  0  3  0  0  0  0  0  0
  188.9230  177.1990  144.4490 C   0  0  0  0  0  3  0  0  0  0  0  0
  187.7730  177.9540  144.2130 C   0  0  0  0  0  3  0  0  0  0  0  0
  187.0190  177.5190  146.4750 C   0  0  0  0  0  3  0  0  0  0  0  0
  189.1440  176.6230  145.7080 C   0  0  0  0  0  0  0  0  0  0  0  0
  188.1720  176.7630  146.7100 C   0  0  0  0  0  3  0  0  0  0  0  0
  186.8280  178.1590  145.2310 C   0  0  0  0  0  0  0  0  0  0  0  0
  192.5090  175.9770  147.4420 C   0  0  0  0  0  1  0  0  0  0  0  0
  191.5000  176.7180  146.6120 C   0  0  0  0  0  0  0  0  0  0  0  0
  190.3980  176.0100  146.0340 N   0  0  0  0  0  2  0  0  0  0  0  0
  191.6920  177.9680  146.3450 N   0  0  0  0  0  2  0  0  0  0  0  0
  184.5920  179.0060  146.0600 C   0  0  0  0  0  0  0  0  0  0  0  0
  183.3640  179.0110  145.7630 O   0  0  0  0  0  0  0  0  0  0  0  0
  184.9580  178.9160  147.4380 N   0  0  0  0  0  1  0  0  0  0  0  0
  185.6210  178.2370  139.1520 C   0  0  0  0  0  2  0  0  0  0  0  0
  185.4290  178.4300  137.6630 C   0  0  0  0  0  2  0  0  0  0  0  0
  186.6540  178.7690  137.0670 O   0  0  0  0  0  0  0  0  0  0  0  0
  186.7280  178.0030  135.9120 C   0  0  2  0  0  3  0  0  0  0  0  0
  185.3040  177.7710  135.3850 C   0  0  0  0  0  1  0  0  0  0  0  0
  187.1790  175.5430  135.2620 C   0  0  0  0  0  1  0  0  0  0  0  0
  187.5490  176.7230  136.1600 C   0  0  1  0  0  3  0  0  0  0  0  0
  189.8480  177.9810  139.8090 C   0  0  2  0  0  3  0  0  0  0  0  0
  192.0370  176.3980  137.1450 C   0  0  2  0  0  3  0  0  0  0  0  0
  189.7070  175.5950  136.4950 N   0  0  0  0  0  2  0  0  0  0  0  0
  191.4320  174.0890  138.0010 O   0  0  0  0  0  1  0  0  0  0  0  0
  190.8400  177.2430  140.6980 C   0  0  0  0  0  2  0  0  0  0  0  0
  189.0660  176.8960  136.2660 C   0  0  2  0  0  3  0  0  0  0  0  0
  188.4480  177.4770  140.1300 C   0  0  0  0  0  1  0  0  0  0  0  0
  191.4700  175.7360  134.6510 C   0  0  0  0  0  1  0  0  0  0  0  0
  191.8450  176.5570  139.7790 C   0  0  1  0  0  3  0  0  0  0  0  0
  192.0440  174.8650  137.0040 C   0  0  0  0  0  0  0  0  0  0  0  0
  189.4340  177.8700  137.2910 N   0  0  0  0  0  2  0  0  0  0  0  0
  191.3370  176.8360  138.4010 C   0  0  0  0  0  0  0  0  0  0  0  0
  190.2400  177.5740  138.4360 C   0  0  0  0  0  0  0  0  0  0  0  0
  191.1190  175.6910  136.1280 C   0  0  1  0  0  0  0  0  0  0  0  0
  193.1800  174.3370  136.3930 O   0  0  0  0  0  1  0  0  0  0  0  0
  193.2240  177.1590  140.0050 C   0  0  0  0  0  2  0  0  0  0  0  0
  194.2280  176.4470  139.2450 N   0  0  0  0  0  1  0  0  0  0  0  0
  181.3120  180.1320  139.1890 C   0  0  0  0  0  2  0  0  0  0  0  0
  179.9540  179.6700  138.6690 C   0  0  0  0  0  2  0  0  0  0  0  0
  179.9470  178.2770  138.5280 O   0  0  0  0  0  0  0  0  0  0  0  0
  181.1600  179.2130  134.6720 C   0  0  0  0  0  2  0  0  0  0  0  0
  179.7460  178.0600  137.1660 C   0  0  1  0  0  3  0  0  0  0  0  0
  180.7160  180.0990  135.7610 N   0  0  0  0  0  0  0  0  0  0  0  0
  180.9870  177.7250  135.0050 C   0  0  0  0  0  2  0  0  0  0  0  0
  179.1180  179.5780  136.3450 S   0  0  0  0  0  0  0  0  0  0  0  0
  181.0350  177.5200  136.5230 C   0  0  2  0  0  3  0  0  0  0  0  0
  181.2950  176.0670  136.8990 C   0  0  0  0  0  3  0  0  0  0  0  0
  180.3460  175.0690  136.1990 C   0  0  0  0  0  2  0  0  0  0  0  0
  180.9850  173.6950  136.0070 C   0  0  0  0  0  2  0  0  0  0  0  0
  183.0610  174.3050  137.2720 C   0  0  0  0  0  2  0  0  0  0  0  0
  181.8640  173.3490  137.1930 C   0  0  0  0  0  2  0  0  0  0  0  0
  182.7710  175.7010  136.7030 C   0  0  0  0  0  2  0  0  0  0  0  0
  180.5230  181.4030  135.1400 C   0  0  0  0  0  2  0  0  0  0  0  0
  179.3860  182.0180  135.6780 O   0  0  0  0  0  1  0  0  0  0  0  0
  1  7  1  0  0  0  0
  2  6  1  0  0  0  0
  3  1  2  0  0  0  0
  3  2  1  0  0  0  0
  4  1  1  0  0  0  0
  5  4  1  0  0  0  0
  6 10  1  0  0  0  0
  7  6  2  0  0  0  0
  8  5  1  6  0  0  0
  8  9  1  0  0  0  0
  8  4  1  0  0  0  0
  9 24  1  6  0  0  0
  9  3  1  0  0  0  0
 10 16  1  0  0  0  0
 10 21  1  1  0  0  0
 11 14  1  0  0  0  0
 12 11  2  0  0  0  0
 12 16  1  0  0  0  0
 13 15  1  0  0  0  0
 14 19  1  0  0  0  0
 14 15  2  0  0  0  0
 16 13  2  0  0  0  0
 18 17  1  0  0  0  0
 19 18  1  0  0  0  0
 20 18  2  0  0  0  0
 21 23  1  0  0  0  0
 22 21  2  0  0  0  0
 25 24  1  0  0  0  0
 26 25  1  0  0  0  0
 27 28  1  1  0  0  0
 27 30  1  0  0  0  0
 27 26  1  0  0  0  0
 30 29  1  6  0  0  0
 31 37  1  1  0  0  0
 31 35  1  0  0  0  0
 32 42  1  1  0  0  0
 36 30  1  1  0  0  0
 36 33  1  0  0  0  0
 36 41  1  0  0  0  0
 39 46  1  6  0  0  0
 39 35  1  0  0  0  0
 40 32  1  0  0  0  0
 40 34  1  0  0  0  0
 41 43  1  0  0  0  0
 42 43  2  0  0  0  0
 42 39  1  0  0  0  0
 43 31  1  0  0  0  0
 44 38  1  6  0  0  0
 44 33  1  0  0  0  0
 44 40  1  0  0  0  0
 44 32  1  0  0  0  0
 45 40  1  0  0  0  0
 47 46  1  0  0  0  0
 48  5  1  0  0  0  0
 49 48  1  0  0  0  0
 50 49  1  0  0  0  0
 51 54  1  0  0  0  0
 51 53  1  0  0  0  0
 52 50  1  1  0  0  0
 53 55  1  0  0  0  0
 54 56  1  0  0  0  0
 55 52  1  0  0  0  0
 56 57  1  6  0  0  0
 56 52  1  0  0  0  0
 58 57  1  0  0  0  0
 59 58  1  0  0  0  0
 59 61  1  0  0  0  0
 61 60  1  0  0  0  0
 62 57  1  0  0  0  0
 62 60  1  0  0  0  0
 63 64  1  0  0  0  0
 63 53  1  0  0  0  0
M  END
>  <MODEL>
8

>  <REMARK>
 VINA RESULT:      -5.4      2.644      8.655
  Name = 
  17 active torsions:
  status: ('A' for Active; 'I' for Inactive)
    1  A    between atoms: C_3  and  O_38
    2  A    between atoms: C_3  and  C_58
    3  A    between atoms: C_9  and  C_54
    4  A    between atoms: C_12  and  O_38
    5  A    between atoms: C_14  and  C_35
    6  A    between atoms: C_14  and  O_48
    7  A    between atoms: C_15  and  C_51
    8  A    between atoms: C_15  and  C_52
    9  A    between atoms: N_20  and  C_58
   10  A    between atoms: C_21  and  C_23
   11  A    between atoms: C_21  and  C_28
   12  A    between atoms: C_21  and  C_60
   13  A    between atoms: N_22  and  C_44
   14  A    between atoms: C_29  and  C_35
   15  A    between atoms: C_32  and  C_36
   16  A    between atoms: C_37  and  N_50
   17  A    between atoms: O_48  and  C_51
                            x       y       z     vdW  Elec       q    Type
                         _______ _______ _______ _____ _____    ______ ____

>  <TORSDO>
F 17

$$$$
=
 OpenBabel11032419593D

 64 72  0  0  1  0  0  0  0  0999 V2000
  182.9000  178.8980  143.2350 C   0  0  0  0  0  0  0  0  0  0  0  0
  185.0660  177.7050  143.1050 S   0  0  0  0  0  0  0  0  0  0  0  0
  183.5020  177.8950  142.5130 C   0  0  0  0  0  0  0  0  0  0  0  0
  182.0090  179.3860  142.2880 N   0  0  0  0  0  0  0  0  0  0  0  0
  180.8580  178.9640  141.4790 N   0  0  0  0  0  0  0  0  0  0  0  0
  184.9250  178.9240  144.2850 C   0  0  0  0  0  0  0  0  0  0  0  0
  183.6850  179.5710  144.1700 C   0  0  0  0  0  3  0  0  0  0  0  0
  182.0430  179.0490  140.9010 C   0  0  2  0  0  3  0  0  0  0  0  0
  182.9210  177.7750  141.0770 C   0  0  1  0  0  3  0  0  0  0  0  0
  185.9800  179.2260  145.3140 C   0  0  2  0  0  3  0  0  0  0  0  0
  189.3280  177.4920  145.9230 C   0  0  0  0  0  3  0  0  0  0  0  0
  188.1690  178.2460  146.1110 C   0  0  0  0  0  3  0  0  0  0  0  0
  187.6480  178.0420  143.7530 C   0  0  0  0  0  3  0  0  0  0  0  0
  189.6410  176.9830  144.6540 C   0  0  0  0  0  0  0  0  0  0  0  0
  188.8100  177.2870  143.5660 C   0  0  0  0  0  3  0  0  0  0  0  0
  187.2940  178.4970  145.0430 C   0  0  0  0  0  0  0  0  0  0  0  0
  192.4010  174.4440  145.4760 C   0  0  0  0  0  1  0  0  0  0  0  0
  191.7010  175.7710  145.4720 C   0  0  0  0  0  0  0  0  0  0  0  0
  190.7140  176.0510  144.4720 N   0  0  0  0  0  2  0  0  0  0  0  0
  192.0660  176.6860  146.3080 N   0  0  0  0  0  2  0  0  0  0  0  0
  185.4430  178.9550  146.7070 C   0  0  0  0  0  0  0  0  0  0  0  0
  184.5970  178.0350  146.8960 O   0  0  0  0  0  0  0  0  0  0  0  0
  185.8800  179.7190  147.8320 N   0  0  0  0  0  1  0  0  0  0  0  0
  183.9840  177.7360  139.9890 C   0  0  0  0  0  2  0  0  0  0  0  0
  183.8590  178.9540  139.0990 C   0  0  0  0  0  2  0  0  0  0  0  0
  184.2300  178.6210  137.7860 O   0  0  0  0  0  0  0  0  0  0  0  0
  185.5920  178.3580  137.8440 C   0  0  2  0  0  3  0  0  0  0  0  0
  186.3300  179.3990  136.9900 C   0  0  0  0  0  1  0  0  0  0  0  0
  184.7220  176.1660  136.7880 C   0  0  0  0  0  1  0  0  0  0  0  0
  185.8790  176.8900  137.4750 C   0  0  1  0  0  3  0  0  0  0  0  0
  189.9730  177.8950  139.0270 C   0  0  2  0  0  3  0  0  0  0  0  0
  190.0350  175.3690  136.1980 C   0  0  2  0  0  3  0  0  0  0  0  0
  187.6260  175.2230  137.0170 N   0  0  0  0  0  2  0  0  0  0  0  0
  189.5850  173.4940  137.8450 O   0  0  0  0  0  1  0  0  0  0  0  0
  191.1350  177.0250  139.4870 C   0  0  0  0  0  2  0  0  0  0  0  0
  187.2110  176.6100  136.7770 C   0  0  2  0  0  3  0  0  0  0  0  0
  188.9080  177.8860  140.1150 C   0  0  0  0  0  1  0  0  0  0  0  0
  188.0970  174.5650  134.5940 C   0  0  0  0  0  1  0  0  0  0  0  0
  191.3360  175.9460  138.4280 C   0  0  1  0  0  3  0  0  0  0  0  0
  189.6860  173.9010  136.5050 C   0  0  0  0  0  0  0  0  0  0  0  0
  188.2470  177.5630  137.1750 N   0  0  0  0  0  2  0  0  0  0  0  0
  190.2220  176.1690  137.4560 C   0  0  0  0  0  0  0  0  0  0  0  0
  189.4760  177.2010  137.8130 C   0  0  0  0  0  0  0  0  0  0  0  0
  188.6020  174.8360  136.0000 C   0  0  1  0  0  0  0  0  0  0  0  0
  190.1900  172.9750  135.5940 O   0  0  0  0  0  1  0  0  0  0  0  0
  192.6990  176.1300  137.7770 C   0  0  0  0  0  2  0  0  0  0  0  0
  193.1060  174.9270  137.0860 N   0  0  0  0  0  1  0  0  0  0  0  0
  180.0940  180.1460  141.0970 C   0  0  0  0  0  2  0  0  0  0  0  0
  179.6570  180.0070  139.6430 C   0  0  0  0  0  2  0  0  0  0  0  0
  180.4990  180.7630  138.8180 O   0  0  0  0  0  0  0  0  0  0  0  0
  180.2480  182.9210  135.2830 C   0  0  0  0  0  2  0  0  0  0  0  0
  179.7180  181.0800  137.7080 C   0  0  1  0  0  3  0  0  0  0  0  0
  180.5210  183.3850  136.6530 N   0  0  0  0  0  0  0  0  0  0  0  0
  179.8520  181.4390  135.2240 C   0  0  0  0  0  2  0  0  0  0  0  0
  179.2190  182.8480  137.7400 S   0  0  0  0  0  0  0  0  0  0  0  0
  180.4550  180.6890  136.4160 C   0  0  2  0  0  3  0  0  0  0  0  0
  180.4660  179.1800  136.2010 C   0  0  0  0  0  3  0  0  0  0  0  0
  179.0560  178.5530  136.1470 C   0  0  0  0  0  2  0  0  0  0  0  0
  179.0120  177.2900  135.2920 C   0  0  0  0  0  2  0  0  0  0  0  0
  181.4870  177.2800  134.8940 C   0  0  0  0  0  2  0  0  0  0  0  0
  180.2930  176.4950  135.4540 C   0  0  0  0  0  2  0  0  0  0  0  0
  181.3170  178.8030  134.9830 C   0  0  0  0  0  2  0  0  0  0  0  0
  180.4320  184.8380  136.5890 C   0  0  0  0  0  2  0  0  0  0  0  0
  180.4470  185.3690  137.8850 O   0  0  0  0  0  1  0  0  0  0  0  0
  1  7  1  0  0  0  0
  2  6  1  0  0  0  0
  3  2  1  0  0  0  0
  3  1  2  0  0  0  0
  4  1  1  0  0  0  0
  5  4  1  0  0  0  0
  6 10  1  0  0  0  0
  7  6  2  0  0  0  0
  8  9  1  0  0  0  0
  8  5  1  1  0  0  0
  8  4  1  0  0  0  0
  9 24  1  6  0  0  0
  9  3  1  0  0  0  0
 10 21  1  1  0  0  0
 11 12  1  0  0  0  0
 13 16  1  0  0  0  0
 14 11  2  0  0  0  0
 15 13  2  0  0  0  0
 15 14  1  0  0  0  0
 16 10  1  0  0  0  0
 16 12  2  0  0  0  0
 18 17  1  0  0  0  0
 18 20  2  0  0  0  0
 19 14  1  0  0  0  0
 19 18  1  0  0  0  0
 21 22  2  0  0  0  0
 21 23  1  0  0  0  0
 25 24  1  0  0  0  0
 26 27  1  0  0  0  0
 26 25  1  0  0  0  0
 27 28  1  6  0  0  0
 30 29  1  6  0  0  0
 30 27  1  0  0  0  0
 31 35  1  0  0  0  0
 31 37  1  1  0  0  0
 32 40  1  0  0  0  0
 32 42  1  1  0  0  0
 36 33  1  0  0  0  0
 36 41  1  0  0  0  0
 36 30  1  1  0  0  0
 39 46  1  6  0  0  0
 39 35  1  0  0  0  0
 40 34  1  0  0  0  0
 41 43  1  0  0  0  0
 42 43  2  0  0  0  0
 42 39  1  0  0  0  0
 43 31  1  0  0  0  0
 44 38  1  6  0  0  0
 44 32  1  0  0  0  0
 44 40  1  0  0  0  0
 44 33  1  0  0  0  0
 45 40  1  0  0  0  0
 47 46  1  0  0  0  0
 48  5  1  0  0  0  0
 49 48  1  0  0  0  0
 50 49  1  0  0  0  0
 51 53  1  0  0  0  0
 52 55  1  0  0  0  0
 52 50  1  1  0  0  0
 53 55  1  0  0  0  0
 54 51  1  0  0  0  0
 54 56  1  0  0  0  0
 56 57  1  6  0  0  0
 56 52  1  0  0  0  0
 58 57  1  0  0  0  0
 59 61  1  0  0  0  0
 59 58  1  0  0  0  0
 60 62  1  0  0  0  0
 60 61  1  0  0  0  0
 62 57  1  0  0  0  0
 63 53  1  0  0  0  0
 63 64  1  0  0  0  0
M  END
>  <MODEL>
9

>  <REMARK>
 VINA RESULT:      -5.4      2.640      9.210
  Name = 
  17 active torsions:
  status: ('A' for Active; 'I' for Inactive)
    1  A    between atoms: C_3  and  O_38
    2  A    between atoms: C_3  and  C_58
    3  A    between atoms: C_9  and  C_54
    4  A    between atoms: C_12  and  O_38
    5  A    between atoms: C_14  and  C_35
    6  A    between atoms: C_14  and  O_48
    7  A    between atoms: C_15  and  C_51
    8  A    between atoms: C_15  and  C_52
    9  A    between atoms: N_20  and  C_58
   10  A    between atoms: C_21  and  C_23
   11  A    between atoms: C_21  and  C_28
   12  A    between atoms: C_21  and  C_60
   13  A    between atoms: N_22  and  C_44
   14  A    between atoms: C_29  and  C_35
   15  A    between atoms: C_32  and  C_36
   16  A    between atoms: C_37  and  N_50
   17  A    between atoms: O_48  and  C_51
                            x       y       z     vdW  Elec       q    Type
                         _______ _______ _______ _____ _____    ______ ____

>  <TORSDO>
F 17

$$$$
