=
 OpenBabel11032420453D

 47 49  0  0  1  0  0  0  0  0999 V2000
  184.9510  178.8070  141.1980 C   0  0  1  0  0  3  0  0  0  0  0  0
  186.4110  178.3480  139.2610 C   0  0  0  0  0  3  0  0  0  0  0  0
  187.6510  178.0750  138.4360 C   0  0  2  0  0  3  0  0  0  0  0  0
  188.5670  177.8100  141.3720 C   0  0  0  0  0  0  0  0  0  0  0  0
  187.4910  178.8540  141.4880 C   0  0  0  0  0  2  0  0  0  0  0  0
  188.9640  178.5440  139.0510 C   0  0  0  0  0  2  0  0  0  0  0  0
  189.2790  177.6980  140.2450 C   0  0  0  0  0  3  0  0  0  0  0  0
  186.3120  178.6130  140.5840 C   0  0  0  0  0  0  0  0  0  0  0  0
  188.8810  176.9050  142.5230 C   0  0  2  0  0  3  0  0  0  0  0  0
  188.0010  177.2470  143.7390 C   0  0  0  0  0  2  0  0  0  0  0  0
  189.9710  177.8350  145.2040 C   0  0  1  0  0  3  0  0  0  0  0  0
  191.5660  178.7910  143.6430 N   0  0  0  0  0  2  0  0  0  0  0  0
  190.3930  176.8650  142.8150 C   0  0  0  0  0  2  0  0  0  0  0  0
  190.7680  177.8220  143.9110 C   0  0  0  0  0  0  0  0  0  0  0  0
  188.7140  176.9550  145.0560 C   0  0  0  0  0  2  0  0  0  0  0  0
  189.9160  176.8160  147.3620 C   0  0  0  0  0  1  0  0  0  0  0  0
  191.6540  176.2980  145.9240 C   0  0  0  0  0  1  0  0  0  0  0  0
  190.7900  177.3970  146.3470 N   0  0  0  0  0  0  0  0  0  0  0  0
  187.4920  178.6660  137.1090 N   0  0  0  0  0  2  0  0  0  0  0  0
  187.6480  177.6600  136.0560 C   0  0  0  0  0  3  0  0  0  0  0  0
  189.0710  177.6050  135.5170 C   0  0  0  0  0  1  0  0  0  0  0  0
  186.6390  177.8500  134.9350 C   0  0  0  0  0  1  0  0  0  0  0  0
  183.8380  178.1820  140.3520 C   0  0  1  0  0  3  0  0  0  0  0  0
  183.1860  177.1600  141.0510 O   0  0  0  0  0  1  0  0  0  0  0  0
  182.8770  179.2000  139.9610 N   0  0  0  0  0  2  0  0  0  0  0  0
  182.9200  179.3040  138.5110 C   0  0  0  0  0  2  0  0  0  0  0  0
  182.1480  175.1450  137.8030 C   0  0  0  0  0  2  0  0  0  0  0  0
  182.5560  177.9930  137.8960 C   0  0  0  0  0  0  0  0  0  0  0  0
  183.5950  177.1950  137.1600 C   0  0  0  0  0  2  0  0  0  0  0  0
  181.3240  177.4870  138.0340 C   0  0  0  0  0  3  0  0  0  0  0  0
  181.0270  176.1350  137.4500 C   0  0  2  0  0  3  0  0  0  0  0  0
  183.5710  175.7330  137.6260 C   0  0  2  0  0  3  0  0  0  0  0  0
  180.1320  174.8270  138.9960 C   0  0  0  0  0  1  0  0  0  0  0  0
  179.8000  175.6660  137.9290 O   0  0  0  0  0  0  0  0  0  0  0  0
  184.4390  174.8640  136.7170 C   0  0  1  0  0  3  0  0  0  0  0  0
  184.3260  175.3010  135.3950 O   0  0  0  0  0  0  0  0  0  0  0  0
  183.6700  174.2630  134.7290 C   0  0  0  0  0  1  0  0  0  0  0  0
  185.7850  174.9230  137.1140 O   0  0  0  0  0  0  0  0  0  0  0  0
  184.9920  172.8240  137.5080 O   0  0  0  0  0  1  0  0  0  0  0  0
  186.1460  173.6020  137.4000 C   0  0  1  0  0  3  0  0  0  0  0  0
  187.3230  173.7850  135.3290 O   0  0  0  0  0  0  0  0  0  0  0  0
  187.0160  173.0550  136.3120 C   0  0  0  0  0  0  0  0  0  0  0  0
  187.5190  171.7590  136.3960 O   0  0  0  0  0  1  0  0  0  0  0  0
  184.9030  178.3460  142.6530 C   0  0  0  0  0  2  0  0  0  0  0  0
  184.6170  179.4730  143.5280 N   0  0  0  0  0  2  0  0  0  0  0  0
  183.6590  179.1670  145.4980 O   0  0  0  0  0  1  0  0  0  0  0  0
  184.8360  179.0350  144.8400 N   0  0  0  0  0  2  0  0  0  0  0  0
  1 44  1  1  0  0  0
  2  8  2  0  0  0  0
  3 19  1  6  0  0  0
  3  6  1  0  0  0  0
  3  2  1  0  0  0  0
  4  5  1  0  0  0  0
  6  7  1  0  0  0  0
  7  4  2  0  0  0  0
  8  1  1  0  0  0  0
  8  5  1  0  0  0  0
  9  4  1  6  0  0  0
  9 13  1  0  0  0  0
  9 10  1  0  0  0  0
 10 15  1  0  0  0  0
 11 18  1  1  0  0  0
 12 14  2  0  0  0  0
 13 14  1  0  0  0  0
 14 11  1  0  0  0  0
 15 11  1  0  0  0  0
 17 18  1  0  0  0  0
 18 16  1  0  0  0  0
 20 19  1  0  0  0  0
 21 20  1  0  0  0  0
 22 20  1  0  0  0  0
 23 24  1  1  0  0  0
 23  1  1  0  0  0  0
 25 23  1  0  0  0  0
 26 25  1  0  0  0  0
 28 30  2  0  0  0  0
 28 26  1  0  0  0  0
 29 32  1  0  0  0  0
 29 28  1  0  0  0  0
 31 27  1  0  0  0  0
 31 34  1  1  0  0  0
 31 30  1  0  0  0  0
 32 35  1  6  0  0  0
 32 27  1  0  0  0  0
 34 33  1  0  0  0  0
 35 36  1  6  0  0  0
 35 38  1  0  0  0  0
 37 36  1  0  0  0  0
 38 40  1  0  0  0  0
 40 39  1  6  0  0  0
 41 42  2  0  0  0  0
 42 43  1  0  0  0  0
 42 40  1  0  0  0  0
 44 45  1  0  0  0  0
 45 47  1  0  0  0  0
 47 46  1  0  0  0  0
M  END
>  <MODEL>
1

>  <REMARK>
 VINA RESULT:      -6.6      0.000      0.000
  Name = 
  18 active torsions:
  status: ('A' for Active; 'I' for Inactive)
    1  A    between atoms: C_3  and  N_18
    2  A    between atoms: O_5  and  C_9
    3  A    between atoms: O_5  and  C_32
    4  A    between atoms: C_6  and  C_9
    5  A    between atoms: C_10  and  C_29
    6  A    between atoms: O_11  and  C_32
    7  A    between atoms: C_14  and  C_34
    8  A    between atoms: N_15  and  C_25
    9  A    between atoms: N_15  and  C_34
   10  A    between atoms: N_18  and  C_28
   11  A    between atoms: C_19  and  C_20
   12  A    between atoms: C_19  and  C_25
   13  A    between atoms: C_19  and  C_45
   14  A    between atoms: C_20  and  N_23
   15  A    between atoms: C_21  and  N_46
   16  A    between atoms: N_23  and  N_40
   17  A    between atoms: C_32  and  C_42
   18  A    between atoms: C_39  and  O_44
                            x       y       z     vdW  Elec       q    Type
                         _______ _______ _______ _____ _____    ______ ____

>  <TORSDO>
F 18

$$$$
=
 OpenBabel11032420453D

 47 49  0  0  1  0  0  0  0  0999 V2000
  182.5830  178.6150  142.3790 C   0  0  1  0  0  3  0  0  0  0  0  0
  181.8050  179.6690  140.2860 C   0  0  0  0  0  3  0  0  0  0  0  0
  181.5780  179.9260  138.8110 C   0  0  2  0  0  3  0  0  0  0  0  0
  182.7830  177.0880  138.9540 C   0  0  0  0  0  0  0  0  0  0  0  0
  183.4440  177.7510  140.1310 C   0  0  0  0  0  2  0  0  0  0  0  0
  182.5980  179.2950  137.8710 C   0  0  0  0  0  2  0  0  0  0  0  0
  182.4280  177.8090  137.8850 C   0  0  0  0  0  3  0  0  0  0  0  0
  182.5420  178.6990  140.8760 C   0  0  0  0  0  0  0  0  0  0  0  0
  182.5450  175.6080  138.9460 C   0  0  2  0  0  3  0  0  0  0  0  0
  182.9820  174.9950  137.6040 C   0  0  0  0  0  2  0  0  0  0  0  0
  180.6640  174.1730  137.0370 C   0  0  1  0  0  3  0  0  0  0  0  0
  179.2160  175.8630  138.0080 N   0  0  0  0  0  2  0  0  0  0  0  0
  181.1040  175.2660  139.3700 C   0  0  0  0  0  2  0  0  0  0  0  0
  180.2120  175.0690  138.1780 C   0  0  0  0  0  0  0  0  0  0  0  0
  182.1410  173.7770  137.2350 C   0  0  0  0  0  2  0  0  0  0  0  0
  179.7830  172.5520  135.5230 C   0  0  0  0  0  1  0  0  0  0  0  0
  180.4320  171.8710  137.6360 C   0  0  0  0  0  1  0  0  0  0  0  0
  179.8100  172.9790  136.9180 N   0  0  0  0  0  0  0  0  0  0  0  0
  181.5150  181.3660  138.5720 N   0  0  0  0  0  2  0  0  0  0  0  0
  180.3120  181.7280  137.8190 C   0  0  0  0  0  3  0  0  0  0  0  0
  179.1760  180.7370  138.0360 C   0  0  0  0  0  1  0  0  0  0  0  0
  180.6040  181.9190  136.3390 C   0  0  0  0  0  1  0  0  0  0  0  0
  183.8710  179.2040  142.9590 C   0  0  1  0  0  3  0  0  0  0  0  0
  183.6200  179.8940  144.1500 O   0  0  0  0  0  1  0  0  0  0  0  0
  184.8410  178.1480  143.1980 N   0  0  0  0  0  2  0  0  0  0  0  0
  185.2110  178.2090  144.6040 C   0  0  0  0  0  2  0  0  0  0  0  0
  189.4570  178.0010  145.1660 C   0  0  0  0  0  2  0  0  0  0  0  0
  186.6160  177.7390  144.7810 C   0  0  0  0  0  0  0  0  0  0  0  0
  187.4790  177.4800  143.5770 C   0  0  0  0  0  2  0  0  0  0  0  0
  187.1440  177.5920  146.0020 C   0  0  0  0  0  3  0  0  0  0  0  0
  188.5830  177.1780  146.1250 C   0  0  2  0  0  3  0  0  0  0  0  0
  188.8480  178.1530  143.7500 C   0  0  2  0  0  3  0  0  0  0  0  0
  190.3640  176.9700  147.4240 C   0  0  0  0  0  1  0  0  0  0  0  0
  189.0200  177.3480  147.4420 O   0  0  0  0  0  0  0  0  0  0  0  0
  189.8140  177.6940  142.6590 C   0  0  1  0  0  3  0  0  0  0  0  0
  190.7730  176.8370  143.2060 O   0  0  0  0  0  0  0  0  0  0  0  0
  190.3180  175.5510  142.9060 C   0  0  0  0  0  1  0  0  0  0  0  0
  189.1240  177.0270  141.6340 O   0  0  0  0  0  0  0  0  0  0  0  0
  190.3030  177.1710  139.6910 O   0  0  0  0  0  1  0  0  0  0  0  0
  189.3370  177.7940  140.4830 C   0  0  1  0  0  3  0  0  0  0  0  0
  187.9460  177.3420  138.5940 O   0  0  0  0  0  0  0  0  0  0  0  0
  188.0660  177.9290  139.7060 C   0  0  0  0  0  0  0  0  0  0  0  0
  187.0010  178.6650  140.2170 O   0  0  0  0  0  1  0  0  0  0  0  0
  181.3320  179.2050  143.0240 C   0  0  0  0  0  2  0  0  0  0  0  0
  180.2000  178.3110  142.8370 N   0  0  0  0  0  2  0  0  0  0  0  0
  179.7790  177.0220  144.5850 O   0  0  0  0  0  1  0  0  0  0  0  0
  179.5250  178.2460  144.0630 N   0  0  0  0  0  2  0  0  0  0  0  0
  1 23  1  0  0  0  0
  1 44  1  1  0  0  0
  2  8  2  0  0  0  0
  3 19  1  1  0  0  0
  3  2  1  0  0  0  0
  4  5  1  0  0  0  0
  5  8  1  0  0  0  0
  6  7  1  0  0  0  0
  6  3  1  0  0  0  0
  7  4  2  0  0  0  0
  8  1  1  0  0  0  0
  9  4  1  6  0  0  0
  9 13  1  0  0  0  0
 10  9  1  0  0  0  0
 11 18  1  1  0  0  0
 11 15  1  0  0  0  0
 11 14  1  0  0  0  0
 12 14  2  0  0  0  0
 14 13  1  0  0  0  0
 15 10  1  0  0  0  0
 16 18  1  0  0  0  0
 18 17  1  0  0  0  0
 20 21  1  0  0  0  0
 20 19  1  0  0  0  0
 22 20  1  0  0  0  0
 23 25  1  0  0  0  0
 23 24  1  1  0  0  0
 25 26  1  0  0  0  0
 26 28  1  0  0  0  0
 27 31  1  0  0  0  0
 28 30  2  0  0  0  0
 29 32  1  0  0  0  0
 29 28  1  0  0  0  0
 30 31  1  0  0  0  0
 31 34  1  1  0  0  0
 32 35  1  6  0  0  0
 32 27  1  0  0  0  0
 33 34  1  0  0  0  0
 35 38  1  6  0  0  0
 35 36  1  0  0  0  0
 37 36  1  0  0  0  0
 40 39  1  6  0  0  0
 40 38  1  0  0  0  0
 41 42  2  0  0  0  0
 42 43  1  0  0  0  0
 42 40  1  0  0  0  0
 45 44  1  0  0  0  0
 45 47  1  0  0  0  0
 47 46  1  0  0  0  0
M  END
>  <MODEL>
2

>  <REMARK>
 VINA RESULT:      -6.5      3.241      8.854
  Name = 
  18 active torsions:
  status: ('A' for Active; 'I' for Inactive)
    1  A    between atoms: C_3  and  N_18
    2  A    between atoms: O_5  and  C_9
    3  A    between atoms: O_5  and  C_32
    4  A    between atoms: C_6  and  C_9
    5  A    between atoms: C_10  and  C_29
    6  A    between atoms: O_11  and  C_32
    7  A    between atoms: C_14  and  C_34
    8  A    between atoms: N_15  and  C_25
    9  A    between atoms: N_15  and  C_34
   10  A    between atoms: N_18  and  C_28
   11  A    between atoms: C_19  and  C_20
   12  A    between atoms: C_19  and  C_25
   13  A    between atoms: C_19  and  C_45
   14  A    between atoms: C_20  and  N_23
   15  A    between atoms: C_21  and  N_46
   16  A    between atoms: N_23  and  N_40
   17  A    between atoms: C_32  and  C_42
   18  A    between atoms: C_39  and  O_44
                            x       y       z     vdW  Elec       q    Type
                         _______ _______ _______ _____ _____    ______ ____

>  <TORSDO>
F 18

$$$$
=
 OpenBabel11032420453D

 47 49  0  0  1  0  0  0  0  0999 V2000
  181.5580  178.6310  141.3600 C   0  0  1  0  0  3  0  0  0  0  0  0
  180.4610  180.1260  139.7300 C   0  0  0  0  0  3  0  0  0  0  0  0
  180.1130  180.8130  138.4260 C   0  0  2  0  0  3  0  0  0  0  0  0
  181.9510  178.4630  137.6300 C   0  0  0  0  0  0  0  0  0  0  0  0
  182.4920  178.8180  138.9880 C   0  0  0  0  0  2  0  0  0  0  0  0
  181.2080  180.8000  137.3660 C   0  0  0  0  0  2  0  0  0  0  0  0
  181.3890  179.4030  136.8610 C   0  0  0  0  0  3  0  0  0  0  0  0
  181.4300  179.2140  139.9780 C   0  0  0  0  0  0  0  0  0  0  0  0
  182.0620  177.0650  137.1040 C   0  0  2  0  0  3  0  0  0  0  0  0
  182.2030  176.0600  138.2620 C   0  0  0  0  0  2  0  0  0  0  0  0
  184.4730  175.2570  137.5040 C   0  0  1  0  0  3  0  0  0  0  0  0
  185.4790  177.2460  136.5390 N   0  0  0  0  0  2  0  0  0  0  0  0
  183.1500  176.9540  136.0200 C   0  0  0  0  0  2  0  0  0  0  0  0
  184.4530  176.4740  136.5950 C   0  0  0  0  0  0  0  0  0  0  0  0
  183.0310  174.8430  137.8590 C   0  0  0  0  0  2  0  0  0  0  0  0
  185.0330  172.9460  137.7150 C   0  0  0  0  0  1  0  0  0  0  0  0
  184.5860  173.8010  135.6120 C   0  0  0  0  0  1  0  0  0  0  0  0
  185.2070  174.1370  136.8900 N   0  0  0  0  0  0  0  0  0  0  0  0
  179.7070  182.1900  138.6950 N   0  0  0  0  0  2  0  0  0  0  0  0
  179.8870  183.0380  137.5140 C   0  0  0  0  0  3  0  0  0  0  0  0
  179.7900  184.5210  137.8490 C   0  0  0  0  0  1  0  0  0  0  0  0
  178.9310  182.6610  136.3930 C   0  0  0  0  0  1  0  0  0  0  0  0
  182.8380  179.0860  142.0660 C   0  0  1  0  0  3  0  0  0  0  0  0
  182.6300  179.2390  143.4420 O   0  0  0  0  0  1  0  0  0  0  0  0
  183.9050  178.1260  141.8360 N   0  0  0  0  0  2  0  0  0  0  0  0
  184.6860  178.0420  143.0600 C   0  0  0  0  0  2  0  0  0  0  0  0
  188.7280  177.3700  141.7930 C   0  0  0  0  0  2  0  0  0  0  0  0
  186.1380  178.1890  142.7470 C   0  0  0  0  0  0  0  0  0  0  0  0
  187.1670  177.8780  143.7970 C   0  0  0  0  0  2  0  0  0  0  0  0
  186.5450  178.5460  141.5230 C   0  0  0  0  0  3  0  0  0  0  0  0
  188.0200  178.6180  141.2420 C   0  0  2  0  0  3  0  0  0  0  0  0
  188.2620  176.9720  143.2170 C   0  0  2  0  0  3  0  0  0  0  0  0
  188.8910  177.5440  139.5120 C   0  0  0  0  0  1  0  0  0  0  0  0
  188.2410  178.7290  139.8660 O   0  0  0  0  0  0  0  0  0  0  0  0
  189.4340  176.8540  144.1890 C   0  0  1  0  0  3  0  0  0  0  0  0
  190.6400  177.0020  143.4980 O   0  0  0  0  0  0  0  0  0  0  0  0
  191.2980  175.7790  143.6590 C   0  0  0  0  0  1  0  0  0  0  0  0
  189.3480  177.8350  145.1900 O   0  0  0  0  0  0  0  0  0  0  0  0
  190.7190  177.0890  146.8490 O   0  0  0  0  0  1  0  0  0  0  0  0
  189.3980  177.1350  146.4010 C   0  0  1  0  0  3  0  0  0  0  0  0
  189.0910  178.4350  148.3820 O   0  0  0  0  0  1  0  0  0  0  0  0
  188.5470  177.8110  147.4280 C   0  0  0  0  0  0  0  0  0  0  0  0
  187.1590  177.7910  147.3180 O   0  0  0  0  0  0  0  0  0  0  0  0
  180.3100  178.8730  142.2070 C   0  0  0  0  0  2  0  0  0  0  0  0
  179.7410  177.6050  142.6370 N   0  0  0  0  0  2  0  0  0  0  0  0
  179.4570  178.9230  144.3890 O   0  0  0  0  0  1  0  0  0  0  0  0
  179.6870  177.6360  144.0360 N   0  0  0  0  0  2  0  0  0  0  0  0
  1 23  1  0  0  0  0
  1 44  1  1  0  0  0
  2  8  2  0  0  0  0
  3 19  1  1  0  0  0
  3  2  1  0  0  0  0
  4  5  1  0  0  0  0
  5  8  1  0  0  0  0
  6  3  1  0  0  0  0
  7  6  1  0  0  0  0
  7  4  2  0  0  0  0
  8  1  1  0  0  0  0
  9  4  1  1  0  0  0
  9 10  1  0  0  0  0
 11 18  1  6  0  0  0
 11 15  1  0  0  0  0
 12 14  2  0  0  0  0
 13 14  1  0  0  0  0
 13  9  1  0  0  0  0
 14 11  1  0  0  0  0
 15 10  1  0  0  0  0
 17 18  1  0  0  0  0
 18 16  1  0  0  0  0
 20 21  1  0  0  0  0
 20 19  1  0  0  0  0
 22 20  1  0  0  0  0
 23 24  1  1  0  0  0
 25 23  1  0  0  0  0
 25 26  1  0  0  0  0
 27 32  1  0  0  0  0
 28 26  1  0  0  0  0
 28 29  1  0  0  0  0
 30 28  2  0  0  0  0
 31 34  1  6  0  0  0
 31 30  1  0  0  0  0
 31 27  1  0  0  0  0
 32 29  1  0  0  0  0
 32 35  1  1  0  0  0
 33 34  1  0  0  0  0
 35 36  1  6  0  0  0
 35 38  1  0  0  0  0
 36 37  1  0  0  0  0
 38 40  1  0  0  0  0
 40 39  1  1  0  0  0
 40 42  1  0  0  0  0
 42 41  1  0  0  0  0
 43 42  2  0  0  0  0
 44 45  1  0  0  0  0
 45 47  1  0  0  0  0
 47 46  1  0  0  0  0
M  END
>  <MODEL>
3

>  <REMARK>
 VINA RESULT:      -6.5      3.442      8.747
  Name = 
  18 active torsions:
  status: ('A' for Active; 'I' for Inactive)
    1  A    between atoms: C_3  and  N_18
    2  A    between atoms: O_5  and  C_9
    3  A    between atoms: O_5  and  C_32
    4  A    between atoms: C_6  and  C_9
    5  A    between atoms: C_10  and  C_29
    6  A    between atoms: O_11  and  C_32
    7  A    between atoms: C_14  and  C_34
    8  A    between atoms: N_15  and  C_25
    9  A    between atoms: N_15  and  C_34
   10  A    between atoms: N_18  and  C_28
   11  A    between atoms: C_19  and  C_20
   12  A    between atoms: C_19  and  C_25
   13  A    between atoms: C_19  and  C_45
   14  A    between atoms: C_20  and  N_23
   15  A    between atoms: C_21  and  N_46
   16  A    between atoms: N_23  and  N_40
   17  A    between atoms: C_32  and  C_42
   18  A    between atoms: C_39  and  O_44
                            x       y       z     vdW  Elec       q    Type
                         _______ _______ _______ _____ _____    ______ ____

>  <TORSDO>
F 18

$$$$
=
 OpenBabel11032420453D

 47 49  0  0  1  0  0  0  0  0999 V2000
  188.9700  177.1730  138.7850 C   0  0  1  0  0  3  0  0  0  0  0  0
  188.4640  175.3210  137.2320 C   0  0  0  0  0  3  0  0  0  0  0  0
  188.5920  174.3360  136.0880 C   0  0  2  0  0  3  0  0  0  0  0  0
  191.3490  175.7110  136.2740 C   0  0  0  0  0  0  0  0  0  0  0  0
  190.4340  176.8190  136.7180 C   0  0  0  0  0  2  0  0  0  0  0  0
  189.4970  174.7740  134.9430 C   0  0  0  0  0  2  0  0  0  0  0  0
  190.9170  174.7830  135.4130 C   0  0  0  0  0  3  0  0  0  0  0  0
  189.2800  176.3490  137.5630 C   0  0  0  0  0  0  0  0  0  0  0  0
  192.7650  175.6490  136.7600 C   0  0  2  0  0  3  0  0  0  0  0  0
  193.7430  176.0360  135.6360 C   0  0  0  0  0  2  0  0  0  0  0  0
  194.8950  173.7900  135.6430 C   0  0  1  0  0  3  0  0  0  0  0  0
  193.1080  172.2440  136.2020 N   0  0  0  0  0  2  0  0  0  0  0  0
  193.0700  174.3020  137.4420 C   0  0  0  0  0  2  0  0  0  0  0  0
  193.7180  173.3370  136.4900 C   0  0  0  0  0  0  0  0  0  0  0  0
  195.0810  175.3150  135.7740 C   0  0  0  0  0  2  0  0  0  0  0  0
  197.1470  173.3330  134.9950 C   0  0  0  0  0  1  0  0  0  0  0  0
  196.6710  173.6540  137.2370 C   0  0  0  0  0  1  0  0  0  0  0  0
  196.1300  173.0760  136.0100 N   0  0  0  0  0  0  0  0  0  0  0  0
  187.2640  174.0180  135.5710 N   0  0  0  0  0  2  0  0  0  0  0  0
  186.7760  172.7430  136.1030 C   0  0  0  0  0  3  0  0  0  0  0  0
  185.9180  172.9280  137.3480 C   0  0  0  0  0  1  0  0  0  0  0  0
  187.9100  171.7620  136.3550 C   0  0  0  0  0  1  0  0  0  0  0  0
  189.8990  176.8450  139.9570 C   0  0  1  0  0  3  0  0  0  0  0  0
  191.2040  177.2820  139.7050 O   0  0  0  0  0  1  0  0  0  0  0  0
  189.4020  177.4620  141.1760 N   0  0  0  0  0  2  0  0  0  0  0  0
  190.0800  176.8250  142.2930 C   0  0  0  0  0  2  0  0  0  0  0  0
  188.1410  177.1650  146.1030 C   0  0  0  0  0  2  0  0  0  0  0  0
  189.5220  177.3290  143.5820 C   0  0  0  0  0  0  0  0  0  0  0  0
  188.1370  177.9130  143.6230 C   0  0  0  0  0  2  0  0  0  0  0  0
  190.2160  177.2210  144.7210 C   0  0  0  0  0  3  0  0  0  0  0  0
  189.5830  177.6870  146.0030 C   0  0  2  0  0  3  0  0  0  0  0  0
  187.3390  177.3070  144.7850 C   0  0  2  0  0  3  0  0  0  0  0  0
  191.3740  176.5000  146.5360 C   0  0  0  0  0  1  0  0  0  0  0  0
  190.3330  177.2430  147.0960 O   0  0  0  0  0  0  0  0  0  0  0  0
  186.0290  178.0660  144.9920 C   0  0  1  0  0  3  0  0  0  0  0  0
  186.1260  178.8770  146.1260 O   0  0  0  0  0  0  0  0  0  0  0  0
  185.0900  178.4500  146.9610 C   0  0  0  0  0  1  0  0  0  0  0  0
  185.7370  178.8630  143.8730 O   0  0  0  0  0  0  0  0  0  0  0  0
  183.4740  178.6050  143.9210 O   0  0  0  0  0  1  0  0  0  0  0  0
  184.6450  178.2450  143.2530 C   0  0  1  0  0  3  0  0  0  0  0  0
  185.6050  178.9500  141.1820 O   0  0  0  0  0  1  0  0  0  0  0  0
  184.5520  178.6700  141.8220 C   0  0  0  0  0  0  0  0  0  0  0  0
  183.3180  178.7240  141.1800 O   0  0  0  0  0  0  0  0  0  0  0  0
  188.9280  178.6680  138.4770 C   0  0  0  0  0  2  0  0  0  0  0  0
  187.9260  178.9430  137.4580 N   0  0  0  0  0  2  0  0  0  0  0  0
  185.9470  177.9910  137.2020 O   0  0  0  0  0  1  0  0  0  0  0  0
  186.6740  178.7510  138.0560 N   0  0  0  0  0  2  0  0  0  0  0  0
  1 44  1  6  0  0  0
  1 23  1  0  0  0  0
  2  8  2  0  0  0  0
  3 19  1  6  0  0  0
  3  2  1  0  0  0  0
  4  5  1  0  0  0  0
  5  8  1  0  0  0  0
  6  7  1  0  0  0  0
  6  3  1  0  0  0  0
  7  4  2  0  0  0  0
  8  1  1  0  0  0  0
  9  4  1  6  0  0  0
  9 13  1  0  0  0  0
 10 15  1  0  0  0  0
 10  9  1  0  0  0  0
 11 15  1  0  0  0  0
 11 18  1  1  0  0  0
 11 14  1  0  0  0  0
 12 14  2  0  0  0  0
 14 13  1  0  0  0  0
 16 18  1  0  0  0  0
 18 17  1  0  0  0  0
 19 20  1  0  0  0  0
 20 22  1  0  0  0  0
 20 21  1  0  0  0  0
 23 24  1  6  0  0  0
 23 25  1  0  0  0  0
 25 26  1  0  0  0  0
 26 28  1  0  0  0  0
 28 29  1  0  0  0  0
 28 30  2  0  0  0  0
 29 32  1  0  0  0  0
 30 31  1  0  0  0  0
 31 27  1  0  0  0  0
 31 34  1  1  0  0  0
 32 35  1  1  0  0  0
 32 27  1  0  0  0  0
 33 34  1  0  0  0  0
 35 38  1  6  0  0  0
 35 36  1  0  0  0  0
 36 37  1  0  0  0  0
 40 38  1  0  0  0  0
 40 39  1  1  0  0  0
 41 42  1  0  0  0  0
 42 40  1  0  0  0  0
 43 42  2  0  0  0  0
 45 47  1  0  0  0  0
 45 44  1  0  0  0  0
 46 47  1  0  0  0  0
M  END
>  <MODEL>
4

>  <REMARK>
 VINA RESULT:      -6.4      4.137      8.841
  Name = 
  18 active torsions:
  status: ('A' for Active; 'I' for Inactive)
    1  A    between atoms: C_3  and  N_18
    2  A    between atoms: O_5  and  C_9
    3  A    between atoms: O_5  and  C_32
    4  A    between atoms: C_6  and  C_9
    5  A    between atoms: C_10  and  C_29
    6  A    between atoms: O_11  and  C_32
    7  A    between atoms: C_14  and  C_34
    8  A    between atoms: N_15  and  C_25
    9  A    between atoms: N_15  and  C_34
   10  A    between atoms: N_18  and  C_28
   11  A    between atoms: C_19  and  C_20
   12  A    between atoms: C_19  and  C_25
   13  A    between atoms: C_19  and  C_45
   14  A    between atoms: C_20  and  N_23
   15  A    between atoms: C_21  and  N_46
   16  A    between atoms: N_23  and  N_40
   17  A    between atoms: C_32  and  C_42
   18  A    between atoms: C_39  and  O_44
                            x       y       z     vdW  Elec       q    Type
                         _______ _______ _______ _____ _____    ______ ____

>  <TORSDO>
F 18

$$$$
=
 OpenBabel11032420453D

 47 49  0  0  1  0  0  0  0  0999 V2000
  187.8230  177.0710  138.5240 C   0  0  1  0  0  3  0  0  0  0  0  0
  190.2270  176.5810  138.2470 C   0  0  0  0  0  3  0  0  0  0  0  0
  191.7030  176.4340  138.5530 C   0  0  2  0  0  3  0  0  0  0  0  0
  190.3640  176.9450  141.2870 C   0  0  0  0  0  0  0  0  0  0  0  0
  189.4700  177.7300  140.3660 C   0  0  0  0  0  2  0  0  0  0  0  0
  192.2220  177.2880  139.7030 C   0  0  0  0  0  2  0  0  0  0  0  0
  191.6570  176.7780  140.9910 C   0  0  0  0  0  3  0  0  0  0  0  0
  189.2400  177.0660  139.0350 C   0  0  0  0  0  0  0  0  0  0  0  0
  189.8290  176.3690  142.5620 C   0  0  2  0  0  3  0  0  0  0  0  0
  188.4630  176.9880  142.9070 C   0  0  0  0  0  2  0  0  0  0  0  0
  189.2760  177.9740  145.0840 C   0  0  1  0  0  3  0  0  0  0  0  0
  191.5900  178.5390  144.6140 N   0  0  0  0  0  2  0  0  0  0  0  0
  190.8710  176.4390  143.6940 C   0  0  0  0  0  2  0  0  0  0  0  0
  190.6650  177.6510  144.5580 C   0  0  0  0  0  0  0  0  0  0  0  0
  188.2340  177.0560  144.4140 C   0  0  0  0  0  2  0  0  0  0  0  0
  187.8370  177.5880  146.9480 C   0  0  0  0  0  1  0  0  0  0  0  0
  189.9640  176.6780  146.9710 C   0  0  0  0  0  1  0  0  0  0  0  0
  189.2140  177.8590  146.5510 N   0  0  0  0  0  0  0  0  0  0  0  0
  192.4790  176.7100  137.3470 N   0  0  0  0  0  2  0  0  0  0  0  0
  193.3590  175.5870  137.0110 C   0  0  0  0  0  3  0  0  0  0  0  0
  193.6980  175.5440  135.5270 C   0  0  0  0  0  1  0  0  0  0  0  0
  192.7910  174.2590  137.4870 C   0  0  0  0  0  1  0  0  0  0  0  0
  187.2140  178.4760  138.5160 C   0  0  1  0  0  3  0  0  0  0  0  0
  187.0510  178.9480  137.2090 O   0  0  0  0  0  1  0  0  0  0  0  0
  185.9310  178.4690  139.1990 N   0  0  0  0  0  2  0  0  0  0  0  0
  186.1960  178.6180  140.6210 C   0  0  0  0  0  2  0  0  0  0  0  0
  182.5240  178.5250  142.8350 C   0  0  0  0  0  2  0  0  0  0  0  0
  184.9380  178.9850  141.3370 C   0  0  0  0  0  0  0  0  0  0  0  0
  183.6480  179.1040  140.5750 C   0  0  0  0  0  2  0  0  0  0  0  0
  184.9280  179.1620  142.6640 C   0  0  0  0  0  3  0  0  0  0  0  0
  183.6240  179.4690  143.3440 C   0  0  2  0  0  3  0  0  0  0  0  0
  182.5320  178.3370  141.2970 C   0  0  2  0  0  3  0  0  0  0  0  0
  185.1230  179.0840  144.9270 C   0  0  0  0  0  1  0  0  0  0  0  0
  183.7650  179.3420  144.7290 O   0  0  0  0  0  0  0  0  0  0  0  0
  181.1720  178.6540  140.6750 C   0  0  1  0  0  3  0  0  0  0  0  0
  181.1100  180.0090  140.3390 O   0  0  0  0  0  0  0  0  0  0  0  0
  179.7820  180.3760  140.5730 C   0  0  0  0  0  1  0  0  0  0  0  0
  180.9610  177.8780  139.5250 O   0  0  0  0  0  0  0  0  0  0  0  0
  179.4220  176.8140  140.8240 O   0  0  0  0  0  1  0  0  0  0  0  0
  180.5270  176.6320  139.9930 C   0  0  1  0  0  3  0  0  0  0  0  0
  180.5470  174.5520  138.8170 O   0  0  0  0  0  1  0  0  0  0  0  0
  180.1480  175.7500  138.8460 C   0  0  0  0  0  0  0  0  0  0  0  0
  179.3280  176.2300  137.8270 O   0  0  0  0  0  0  0  0  0  0  0  0
  187.6940  176.3740  137.1720 C   0  0  0  0  0  2  0  0  0  0  0  0
  186.5600  175.4640  137.1820 N   0  0  0  0  0  2  0  0  0  0  0  0
  188.0980  174.6820  135.7990 O   0  0  0  0  0  1  0  0  0  0  0  0
  186.8760  174.4090  136.3160 N   0  0  0  0  0  2  0  0  0  0  0  0
  1 44  1  6  0  0  0
  1  8  1  0  0  0  0
  2  3  1  0  0  0  0
  2  8  2  0  0  0  0
  3 19  1  6  0  0  0
  3  6  1  0  0  0  0
  5  4  1  0  0  0  0
  6  7  1  0  0  0  0
  7  4  2  0  0  0  0
  8  5  1  0  0  0  0
  9  4  1  6  0  0  0
  9 10  1  0  0  0  0
  9 13  1  0  0  0  0
 10 15  1  0  0  0  0
 11 18  1  1  0  0  0
 13 14  1  0  0  0  0
 14 12  2  0  0  0  0
 14 11  1  0  0  0  0
 15 11  1  0  0  0  0
 18 16  1  0  0  0  0
 18 17  1  0  0  0  0
 20 19  1  0  0  0  0
 20 22  1  0  0  0  0
 21 20  1  0  0  0  0
 23 24  1  6  0  0  0
 23  1  1  0  0  0  0
 23 25  1  0  0  0  0
 25 26  1  0  0  0  0
 26 28  1  0  0  0  0
 27 31  1  0  0  0  0
 28 30  2  0  0  0  0
 29 32  1  0  0  0  0
 29 28  1  0  0  0  0
 30 31  1  0  0  0  0
 31 34  1  1  0  0  0
 32 35  1  6  0  0  0
 32 27  1  0  0  0  0
 34 33  1  0  0  0  0
 35 38  1  6  0  0  0
 36 37  1  0  0  0  0
 36 35  1  0  0  0  0
 38 40  1  0  0  0  0
 40 39  1  1  0  0  0
 41 42  1  0  0  0  0
 42 40  1  0  0  0  0
 43 42  2  0  0  0  0
 44 45  1  0  0  0  0
 46 47  1  0  0  0  0
 47 45  1  0  0  0  0
M  END
>  <MODEL>
5

>  <REMARK>
 VINA RESULT:      -6.4      2.515      5.737
  Name = 
  18 active torsions:
  status: ('A' for Active; 'I' for Inactive)
    1  A    between atoms: C_3  and  N_18
    2  A    between atoms: O_5  and  C_9
    3  A    between atoms: O_5  and  C_32
    4  A    between atoms: C_6  and  C_9
    5  A    between atoms: C_10  and  C_29
    6  A    between atoms: O_11  and  C_32
    7  A    between atoms: C_14  and  C_34
    8  A    between atoms: N_15  and  C_25
    9  A    between atoms: N_15  and  C_34
   10  A    between atoms: N_18  and  C_28
   11  A    between atoms: C_19  and  C_20
   12  A    between atoms: C_19  and  C_25
   13  A    between atoms: C_19  and  C_45
   14  A    between atoms: C_20  and  N_23
   15  A    between atoms: C_21  and  N_46
   16  A    between atoms: N_23  and  N_40
   17  A    between atoms: C_32  and  C_42
   18  A    between atoms: C_39  and  O_44
                            x       y       z     vdW  Elec       q    Type
                         _______ _______ _______ _____ _____    ______ ____

>  <TORSDO>
F 18

$$$$
=
 OpenBabel11032420453D

 47 49  0  0  1  0  0  0  0  0999 V2000
  186.6710  178.6430  143.1490 C   0  0  1  0  0  3  0  0  0  0  0  0
  189.0510  178.5780  143.8010 C   0  0  0  0  0  3  0  0  0  0  0  0
  190.5360  178.2820  143.7710 C   0  0  2  0  0  3  0  0  0  0  0  0
  189.5050  177.4930  140.9710 C   0  0  0  0  0  0  0  0  0  0  0  0
  188.3060  177.1890  141.8260 C   0  0  0  0  0  2  0  0  0  0  0  0
  190.9480  177.0820  142.9270 C   0  0  0  0  0  2  0  0  0  0  0  0
  190.7370  177.4010  141.4810 C   0  0  0  0  0  3  0  0  0  0  0  0
  188.0880  178.1800  142.9380 C   0  0  0  0  0  0  0  0  0  0  0  0
  189.3390  177.8680  139.5300 C   0  0  2  0  0  3  0  0  0  0  0  0
  187.9600  177.4270  139.0090 C   0  0  0  0  0  2  0  0  0  0  0  0
  188.9310  175.8830  137.2640 C   0  0  1  0  0  3  0  0  0  0  0  0
  190.9560  175.0510  138.3150 N   0  0  0  0  0  2  0  0  0  0  0  0
  190.5310  177.3890  138.6800 C   0  0  0  0  0  2  0  0  0  0  0  0
  190.2390  176.0740  138.0150 C   0  0  0  0  0  0  0  0  0  0  0  0
  187.9970  177.0830  137.5220 C   0  0  0  0  0  2  0  0  0  0  0  0
  187.9990  175.0310  135.2380 C   0  0  0  0  0  1  0  0  0  0  0  0
  189.2090  177.0020  135.1700 C   0  0  0  0  0  1  0  0  0  0  0  0
  189.1610  175.6960  135.8210 N   0  0  0  0  0  0  0  0  0  0  0  0
  191.0250  178.1130  145.1370 N   0  0  0  0  0  2  0  0  0  0  0  0
  190.5500  176.8560  145.7210 C   0  0  0  0  0  3  0  0  0  0  0  0
  189.3960  177.0720  146.6910 C   0  0  0  0  0  1  0  0  0  0  0  0
  191.6770  176.0680  146.3680 C   0  0  0  0  0  1  0  0  0  0  0  0
  185.7480  178.2300  141.9990 C   0  0  1  0  0  3  0  0  0  0  0  0
  184.5880  177.6120  142.4790 O   0  0  0  0  0  1  0  0  0  0  0  0
  185.3900  179.3930  141.2030 N   0  0  0  0  0  2  0  0  0  0  0  0
  185.3280  178.9660  139.8140 C   0  0  0  0  0  2  0  0  0  0  0  0
  181.6420  178.6930  137.6400 C   0  0  0  0  0  2  0  0  0  0  0  0
  183.9080  178.7390  139.4140 C   0  0  0  0  0  0  0  0  0  0  0  0
  182.8920  179.8310  139.6020 C   0  0  0  0  0  2  0  0  0  0  0  0
  183.5300  177.5920  138.8390 C   0  0  0  0  0  3  0  0  0  0  0  0
  182.1020  177.4380  138.3980 C   0  0  2  0  0  3  0  0  0  0  0  0
  182.0700  180.0180  138.3200 C   0  0  2  0  0  3  0  0  0  0  0  0
  182.7340  175.3240  138.2160 C   0  0  0  0  0  1  0  0  0  0  0  0
  181.9710  176.3090  137.5840 O   0  0  0  0  0  0  0  0  0  0  0  0
  180.8790  180.9410  138.5750 C   0  0  1  0  0  3  0  0  0  0  0  0
  180.4830  180.8450  139.9120 O   0  0  0  0  0  0  0  0  0  0  0  0
  179.1610  180.3960  139.8630 C   0  0  0  0  0  1  0  0  0  0  0  0
  181.2120  182.2720  138.2810 O   0  0  0  0  0  0  0  0  0  0  0  0
  179.5210  182.2570  136.7560 O   0  0  0  0  0  1  0  0  0  0  0  0
  180.8920  182.4470  136.9300 C   0  0  1  0  0  3  0  0  0  0  0  0
  180.7960  184.2800  135.4020 O   0  0  0  0  0  0  0  0  0  0  0  0
  181.2660  183.8230  136.4810 C   0  0  0  0  0  0  0  0  0  0  0  0
  182.0990  184.6190  137.2640 O   0  0  0  0  0  1  0  0  0  0  0  0
  186.1240  178.2250  144.5120 C   0  0  0  0  0  2  0  0  0  0  0  0
  185.3520  179.3090  145.0980 N   0  0  0  0  0  2  0  0  0  0  0  0
  184.8200  178.8100  147.1860 O   0  0  0  0  0  1  0  0  0  0  0  0
  184.3740  178.7200  145.9100 N   0  0  0  0  0  2  0  0  0  0  0  0
  1 44  1  1  0  0  0
  3  2  1  0  0  0  0
  3 19  1  1  0  0  0
  4  7  2  0  0  0  0
  4  5  1  0  0  0  0
  5  8  1  0  0  0  0
  6  3  1  0  0  0  0
  7  6  1  0  0  0  0
  8  1  1  0  0  0  0
  8  2  2  0  0  0  0
  9  4  1  1  0  0  0
 10  9  1  0  0  0  0
 11 18  1  6  0  0  0
 11 15  1  0  0  0  0
 11 14  1  0  0  0  0
 13  9  1  0  0  0  0
 14 12  2  0  0  0  0
 14 13  1  0  0  0  0
 15 10  1  0  0  0  0
 16 18  1  0  0  0  0
 17 18  1  0  0  0  0
 19 20  1  0  0  0  0
 20 22  1  0  0  0  0
 20 21  1  0  0  0  0
 23 24  1  1  0  0  0
 23  1  1  0  0  0  0
 25 23  1  0  0  0  0
 26 25  1  0  0  0  0
 27 32  1  0  0  0  0
 27 31  1  0  0  0  0
 28 29  1  0  0  0  0
 28 26  1  0  0  0  0
 30 28  2  0  0  0  0
 31 34  1  6  0  0  0
 31 30  1  0  0  0  0
 32 35  1  1  0  0  0
 32 29  1  0  0  0  0
 34 33  1  0  0  0  0
 35 38  1  1  0  0  0
 35 36  1  0  0  0  0
 37 36  1  0  0  0  0
 40 39  1  1  0  0  0
 40 38  1  0  0  0  0
 41 42  2  0  0  0  0
 42 40  1  0  0  0  0
 42 43  1  0  0  0  0
 44 45  1  0  0  0  0
 45 47  1  0  0  0  0
 47 46  1  0  0  0  0
M  END
>  <MODEL>
6

>  <REMARK>
 VINA RESULT:      -6.3      3.086      7.054
  Name = 
  18 active torsions:
  status: ('A' for Active; 'I' for Inactive)
    1  A    between atoms: C_3  and  N_18
    2  A    between atoms: O_5  and  C_9
    3  A    between atoms: O_5  and  C_32
    4  A    between atoms: C_6  and  C_9
    5  A    between atoms: C_10  and  C_29
    6  A    between atoms: O_11  and  C_32
    7  A    between atoms: C_14  and  C_34
    8  A    between atoms: N_15  and  C_25
    9  A    between atoms: N_15  and  C_34
   10  A    between atoms: N_18  and  C_28
   11  A    between atoms: C_19  and  C_20
   12  A    between atoms: C_19  and  C_25
   13  A    between atoms: C_19  and  C_45
   14  A    between atoms: C_20  and  N_23
   15  A    between atoms: C_21  and  N_46
   16  A    between atoms: N_23  and  N_40
   17  A    between atoms: C_32  and  C_42
   18  A    between atoms: C_39  and  O_44
                            x       y       z     vdW  Elec       q    Type
                         _______ _______ _______ _____ _____    ______ ____

>  <TORSDO>
F 18

$$$$
=
 OpenBabel11032420453D

 47 49  0  0  1  0  0  0  0  0999 V2000
  183.6210  178.0920  139.6740 C   0  0  1  0  0  3  0  0  0  0  0  0
  183.1280  176.0120  138.4370 C   0  0  0  0  0  3  0  0  0  0  0  0
  183.1590  174.9420  137.3660 C   0  0  2  0  0  3  0  0  0  0  0  0
  185.5260  176.8090  136.7030 C   0  0  0  0  0  0  0  0  0  0  0  0
  184.5460  177.7750  137.3110 C   0  0  0  0  0  2  0  0  0  0  0  0
  183.6290  175.4030  135.9920 C   0  0  0  0  0  2  0  0  0  0  0  0
  185.0890  175.7250  136.0530 C   0  0  0  0  0  3  0  0  0  0  0  0
  183.7710  177.2030  138.4680 C   0  0  0  0  0  0  0  0  0  0  0  0
  187.0000  177.0630  136.7850 C   0  0  2  0  0  3  0  0  0  0  0  0
  187.5900  177.2940  135.3820 C   0  0  0  0  0  2  0  0  0  0  0  0
  189.1300  175.2990  135.5220 C   0  0  1  0  0  3  0  0  0  0  0  0
  187.8640  173.7050  136.8470 N   0  0  0  0  0  2  0  0  0  0  0  0
  187.7150  175.9790  137.6120 C   0  0  0  0  0  2  0  0  0  0  0  0
  188.2970  174.9090  136.7320 C   0  0  0  0  0  0  0  0  0  0  0  0
  189.0380  176.8200  135.2900 C   0  0  0  0  0  2  0  0  0  0  0  0
  190.8290  173.8560  134.6680 C   0  0  0  0  0  1  0  0  0  0  0  0
  191.4100  175.9910  135.3430 C   0  0  0  0  0  1  0  0  0  0  0  0
  190.5320  174.8720  135.6720 N   0  0  0  0  0  0  0  0  0  0  0  0
  181.8380  174.3290  137.2530 N   0  0  0  0  0  2  0  0  0  0  0  0
  180.8960  174.9140  138.2110 C   0  0  0  0  0  3  0  0  0  0  0  0
  180.1650  173.8530  139.0220 C   0  0  0  0  0  1  0  0  0  0  0  0
  179.9200  175.8670  137.5390 C   0  0  0  0  0  1  0  0  0  0  0  0
  184.7880  179.0720  139.8200 C   0  0  1  0  0  3  0  0  0  0  0  0
  184.5390  180.2620  139.1270 O   0  0  0  0  0  1  0  0  0  0  0  0
  185.0230  179.3630  141.2250 N   0  0  0  0  0  2  0  0  0  0  0  0
  186.1130  178.5090  141.6690 C   0  0  0  0  0  2  0  0  0  0  0  0
  186.0820  178.8310  145.9460 C   0  0  0  0  0  2  0  0  0  0  0  0
  185.9820  178.2360  143.1310 C   0  0  0  0  0  0  0  0  0  0  0  0
  187.1420  177.6590  143.8940 C   0  0  0  0  0  2  0  0  0  0  0  0
  184.8600  178.5460  143.7910 C   0  0  0  0  0  3  0  0  0  0  0  0
  184.8020  178.3090  145.2740 C   0  0  2  0  0  3  0  0  0  0  0  0
  187.3780  178.4550  145.1840 C   0  0  2  0  0  3  0  0  0  0  0  0
  182.7610  179.0000  144.7670 C   0  0  0  0  0  1  0  0  0  0  0  0
  183.6800  178.9420  145.8160 O   0  0  0  0  0  0  0  0  0  0  0  0
  188.3810  177.7350  146.0840 C   0  0  1  0  0  3  0  0  0  0  0  0
  187.7120  177.1340  147.1540 O   0  0  0  0  0  0  0  0  0  0  0  0
  188.3930  177.5680  148.2930 C   0  0  0  0  0  1  0  0  0  0  0  0
  189.0810  176.7560  145.3620 O   0  0  0  0  0  0  0  0  0  0  0  0
  191.1780  176.7380  146.2520 O   0  0  0  0  0  1  0  0  0  0  0  0
  190.3830  177.2520  145.2270 C   0  0  1  0  0  3  0  0  0  0  0  0
  190.8220  177.6180  142.9070 O   0  0  0  0  0  0  0  0  0  0  0  0
  190.9560  176.8540  143.9040 C   0  0  0  0  0  0  0  0  0  0  0  0
  191.6690  175.6650  143.7730 O   0  0  0  0  0  1  0  0  0  0  0  0
  182.2650  178.7930  139.7090 C   0  0  0  0  0  2  0  0  0  0  0  0
  181.6050  178.5460  140.9810 N   0  0  0  0  0  2  0  0  0  0  0  0
  180.6510  180.1300  142.1940 O   0  0  0  0  0  1  0  0  0  0  0  0
  180.5120  179.4190  141.0490 N   0  0  0  0  0  2  0  0  0  0  0  0
  1 44  1  6  0  0  0
  1 23  1  0  0  0  0
  2  8  2  0  0  0  0
  3 19  1  6  0  0  0
  3  2  1  0  0  0  0
  4  5  1  0  0  0  0
  5  8  1  0  0  0  0
  6  7  1  0  0  0  0
  6  3  1  0  0  0  0
  7  4  2  0  0  0  0
  8  1  1  0  0  0  0
  9  4  1  6  0  0  0
  9 13  1  0  0  0  0
 10  9  1  0  0  0  0
 11 18  1  1  0  0  0
 11 14  1  0  0  0  0
 14 12  2  0  0  0  0
 14 13  1  0  0  0  0
 15 10  1  0  0  0  0
 15 11  1  0  0  0  0
 16 18  1  0  0  0  0
 17 18  1  0  0  0  0
 19 20  1  0  0  0  0
 20 21  1  0  0  0  0
 22 20  1  0  0  0  0
 23 24  1  6  0  0  0
 23 25  1  0  0  0  0
 25 26  1  0  0  0  0
 26 28  1  0  0  0  0
 28 30  2  0  0  0  0
 28 29  1  0  0  0  0
 29 32  1  0  0  0  0
 30 31  1  0  0  0  0
 31 34  1  1  0  0  0
 31 27  1  0  0  0  0
 32 27  1  0  0  0  0
 32 35  1  1  0  0  0
 33 34  1  0  0  0  0
 35 38  1  6  0  0  0
 35 36  1  0  0  0  0
 36 37  1  0  0  0  0
 40 38  1  0  0  0  0
 40 39  1  1  0  0  0
 41 42  2  0  0  0  0
 42 40  1  0  0  0  0
 43 42  1  0  0  0  0
 44 45  1  0  0  0  0
 45 47  1  0  0  0  0
 47 46  1  0  0  0  0
M  END
>  <MODEL>
7

>  <REMARK>
 VINA RESULT:      -6.3      3.541      8.115
  Name = 
  18 active torsions:
  status: ('A' for Active; 'I' for Inactive)
    1  A    between atoms: C_3  and  N_18
    2  A    between atoms: O_5  and  C_9
    3  A    between atoms: O_5  and  C_32
    4  A    between atoms: C_6  and  C_9
    5  A    between atoms: C_10  and  C_29
    6  A    between atoms: O_11  and  C_32
    7  A    between atoms: C_14  and  C_34
    8  A    between atoms: N_15  and  C_25
    9  A    between atoms: N_15  and  C_34
   10  A    between atoms: N_18  and  C_28
   11  A    between atoms: C_19  and  C_20
   12  A    between atoms: C_19  and  C_25
   13  A    between atoms: C_19  and  C_45
   14  A    between atoms: C_20  and  N_23
   15  A    between atoms: C_21  and  N_46
   16  A    between atoms: N_23  and  N_40
   17  A    between atoms: C_32  and  C_42
   18  A    between atoms: C_39  and  O_44
                            x       y       z     vdW  Elec       q    Type
                         _______ _______ _______ _____ _____    ______ ____

>  <TORSDO>
F 18

$$$$
=
 OpenBabel11032420453D

 47 49  0  0  1  0  0  0  0  0999 V2000
  187.9030  177.0260  137.8890 C   0  0  1  0  0  3  0  0  0  0  0  0
  190.2920  176.6100  138.3540 C   0  0  0  0  0  3  0  0  0  0  0  0
  191.6190  176.5440  139.0810 C   0  0  2  0  0  3  0  0  0  0  0  0
  189.5400  177.2080  141.2640 C   0  0  0  0  0  0  0  0  0  0  0  0
  188.9380  177.8860  140.0640 C   0  0  0  0  0  2  0  0  0  0  0  0
  191.7710  177.5020  140.2560 C   0  0  0  0  0  2  0  0  0  0  0  0
  190.8660  177.0690  141.3660 C   0  0  0  0  0  3  0  0  0  0  0  0
  189.1120  177.1150  138.7820 C   0  0  0  0  0  0  0  0  0  0  0  0
  188.6680  176.7100  142.3760 C   0  0  2  0  0  3  0  0  0  0  0  0
  187.8070  177.8520  142.9440 C   0  0  0  0  0  2  0  0  0  0  0  0
  188.8140  177.6840  145.2520 C   0  0  1  0  0  3  0  0  0  0  0  0
  191.1120  177.0310  144.8160 N   0  0  0  0  0  2  0  0  0  0  0  0
  189.4830  175.9350  143.4290 C   0  0  0  0  0  2  0  0  0  0  0  0
  189.8670  176.8150  144.5850 C   0  0  0  0  0  0  0  0  0  0  0  0
  187.5110  177.6560  144.4280 C   0  0  0  0  0  2  0  0  0  0  0  0
  189.4770  177.9840  147.5260 C   0  0  0  0  0  1  0  0  0  0  0  0
  187.2320  177.6940  147.0440 C   0  0  0  0  0  1  0  0  0  0  0  0
  188.5670  177.2620  146.6420 N   0  0  0  0  0  0  0  0  0  0  0  0
  192.7060  176.7580  138.1290 N   0  0  0  0  0  2  0  0  0  0  0  0
  192.9910  175.5410  137.3650 C   0  0  0  0  0  3  0  0  0  0  0  0
  194.1290  174.7310  137.9730 C   0  0  0  0  0  1  0  0  0  0  0  0
  193.2480  175.8390  135.8960 C   0  0  0  0  0  1  0  0  0  0  0  0
  187.1160  178.3380  137.8460 C   0  0  1  0  0  3  0  0  0  0  0  0
  187.7590  179.2880  137.0450 O   0  0  0  0  0  1  0  0  0  0  0  0
  185.7740  178.1000  137.3420 N   0  0  0  0  0  2  0  0  0  0  0  0
  185.1080  177.2110  138.2810 C   0  0  0  0  0  2  0  0  0  0  0  0
  181.4340  179.3900  138.6550 C   0  0  0  0  0  2  0  0  0  0  0  0
  183.6730  177.5960  138.4170 C   0  0  0  0  0  0  0  0  0  0  0  0
  183.0520  177.7100  139.7810 C   0  0  0  0  0  2  0  0  0  0  0  0
  182.9360  177.8960  137.3400 C   0  0  0  0  0  3  0  0  0  0  0  0
  181.5140  178.3400  137.5360 C   0  0  2  0  0  3  0  0  0  0  0  0
  182.2760  179.0290  139.9040 C   0  0  2  0  0  3  0  0  0  0  0  0
  181.4530  177.9910  135.3500 C   0  0  0  0  0  1  0  0  0  0  0  0
  181.0080  178.8670  136.3440 O   0  0  0  0  0  0  0  0  0  0  0  0
  181.4390  179.0430  141.1820 C   0  0  1  0  0  3  0  0  0  0  0  0
  180.1610  178.5450  140.9170 O   0  0  0  0  0  0  0  0  0  0  0  0
  179.2870  179.5250  141.3950 C   0  0  0  0  0  1  0  0  0  0  0  0
  182.0460  178.2640  142.1800 O   0  0  0  0  0  0  0  0  0  0  0  0
  181.1480  178.6140  144.2440 O   0  0  0  0  0  1  0  0  0  0  0  0
  182.0820  179.0790  143.3170 C   0  0  1  0  0  3  0  0  0  0  0  0
  184.4670  179.0300  143.1870 O   0  0  0  0  0  0  0  0  0  0  0  0
  183.4460  179.0560  143.9300 C   0  0  0  0  0  0  0  0  0  0  0  0
  183.5990  179.1000  145.3140 O   0  0  0  0  0  1  0  0  0  0  0  0
  188.2520  176.5120  136.4940 C   0  0  0  0  0  2  0  0  0  0  0  0
  187.7810  175.1460  136.3300 N   0  0  0  0  0  2  0  0  0  0  0  0
  189.7150  174.8230  135.3060 O   0  0  0  0  0  1  0  0  0  0  0  0
  188.3790  174.6470  135.1650 N   0  0  0  0  0  2  0  0  0  0  0  0
  1 44  1  6  0  0  0
  1  8  1  0  0  0  0
  2  8  2  0  0  0  0
  2  3  1  0  0  0  0
  3 19  1  6  0  0  0
  3  6  1  0  0  0  0
  4  7  2  0  0  0  0
  5  4  1  0  0  0  0
  6  7  1  0  0  0  0
  8  5  1  0  0  0  0
  9  4  1  6  0  0  0
  9 10  1  0  0  0  0
  9 13  1  0  0  0  0
 10 15  1  0  0  0  0
 11 18  1  1  0  0  0
 13 14  1  0  0  0  0
 14 12  2  0  0  0  0
 14 11  1  0  0  0  0
 15 11  1  0  0  0  0
 18 17  1  0  0  0  0
 18 16  1  0  0  0  0
 20 21  1  0  0  0  0
 20 19  1  0  0  0  0
 22 20  1  0  0  0  0
 23 24  1  6  0  0  0
 23  1  1  0  0  0  0
 25 23  1  0  0  0  0
 25 26  1  0  0  0  0
 26 28  1  0  0  0  0
 27 32  1  0  0  0  0
 28 29  1  0  0  0  0
 29 32  1  0  0  0  0
 30 31  1  0  0  0  0
 30 28  2  0  0  0  0
 31 34  1  6  0  0  0
 31 27  1  0  0  0  0
 32 35  1  1  0  0  0
 33 34  1  0  0  0  0
 35 36  1  6  0  0  0
 35 38  1  0  0  0  0
 36 37  1  0  0  0  0
 38 40  1  0  0  0  0
 40 42  1  0  0  0  0
 40 39  1  1  0  0  0
 41 42  2  0  0  0  0
 42 43  1  0  0  0  0
 45 44  1  0  0  0  0
 47 46  1  0  0  0  0
 47 45  1  0  0  0  0
M  END
>  <MODEL>
8

>  <REMARK>
 VINA RESULT:      -6.2      2.693      5.950
  Name = 
  18 active torsions:
  status: ('A' for Active; 'I' for Inactive)
    1  A    between atoms: C_3  and  N_18
    2  A    between atoms: O_5  and  C_9
    3  A    between atoms: O_5  and  C_32
    4  A    between atoms: C_6  and  C_9
    5  A    between atoms: C_10  and  C_29
    6  A    between atoms: O_11  and  C_32
    7  A    between atoms: C_14  and  C_34
    8  A    between atoms: N_15  and  C_25
    9  A    between atoms: N_15  and  C_34
   10  A    between atoms: N_18  and  C_28
   11  A    between atoms: C_19  and  C_20
   12  A    between atoms: C_19  and  C_25
   13  A    between atoms: C_19  and  C_45
   14  A    between atoms: C_20  and  N_23
   15  A    between atoms: C_21  and  N_46
   16  A    between atoms: N_23  and  N_40
   17  A    between atoms: C_32  and  C_42
   18  A    between atoms: C_39  and  O_44
                            x       y       z     vdW  Elec       q    Type
                         _______ _______ _______ _____ _____    ______ ____

>  <TORSDO>
F 18

$$$$
=
 OpenBabel11032420453D

 47 49  0  0  1  0  0  0  0  0999 V2000
  183.2570  178.2930  141.3420 C   0  0  1  0  0  3  0  0  0  0  0  0
  183.8600  177.3880  139.1260 C   0  0  0  0  0  3  0  0  0  0  0  0
  183.7390  176.8950  137.6990 C   0  0  2  0  0  3  0  0  0  0  0  0
  181.0170  178.2100  138.3290 C   0  0  0  0  0  0  0  0  0  0  0  0
  181.4130  177.6800  139.6800 C   0  0  0  0  0  2  0  0  0  0  0  0
  182.3520  176.4170  137.2870 C   0  0  0  0  0  2  0  0  0  0  0  0
  181.4260  177.5900  137.2170 C   0  0  0  0  0  3  0  0  0  0  0  0
  182.8850  177.7980  139.9690 C   0  0  0  0  0  0  0  0  0  0  0  0
  180.1350  179.4140  138.2090 C   0  0  2  0  0  3  0  0  0  0  0  0
  179.9450  179.8030  136.7320 C   0  0  0  0  0  2  0  0  0  0  0  0
  181.0000  182.0780  137.0260 C   0  0  1  0  0  3  0  0  0  0  0  0
  182.6960  181.6950  138.7200 N   0  0  0  0  0  2  0  0  0  0  0  0
  180.6160  180.5600  139.1190 C   0  0  0  0  0  2  0  0  0  0  0  0
  181.4720  181.5390  138.3660 C   0  0  0  0  0  0  0  0  0  0  0  0
  179.7480  181.3070  136.5610 C   0  0  0  0  0  2  0  0  0  0  0  0
  181.9320  184.2070  137.5670 C   0  0  0  0  0  1  0  0  0  0  0  0
  180.5260  184.0350  135.7380 C   0  0  0  0  0  1  0  0  0  0  0  0
  180.7330  183.5250  137.0900 N   0  0  0  0  0  0  0  0  0  0  0  0
  184.7140  175.8330  137.4660 N   0  0  0  0  0  2  0  0  0  0  0  0
  185.9390  176.3590  136.8580 C   0  0  0  0  0  3  0  0  0  0  0  0
  185.9280  177.8790  136.7630 C   0  0  0  0  0  1  0  0  0  0  0  0
  186.2220  175.7220  135.5070 C   0  0  0  0  0  1  0  0  0  0  0  0
  184.7060  178.7830  141.4090 C   0  0  1  0  0  3  0  0  0  0  0  0
  184.9570  179.7530  140.4320 O   0  0  0  0  0  1  0  0  0  0  0  0
  184.9880  179.3300  142.7260 N   0  0  0  0  0  2  0  0  0  0  0  0
  184.8200  178.2520  143.6890 C   0  0  0  0  0  2  0  0  0  0  0  0
  188.9050  178.0710  144.9830 C   0  0  0  0  0  2  0  0  0  0  0  0
  186.1540  177.7960  144.1790 C   0  0  0  0  0  0  0  0  0  0  0  0
  187.1860  177.3060  143.2030 C   0  0  0  0  0  2  0  0  0  0  0  0
  186.4700  177.8660  145.4780 C   0  0  0  0  0  3  0  0  0  0  0  0
  187.8480  177.4540  145.9120 C   0  0  2  0  0  3  0  0  0  0  0  0
  188.5400  177.9730  143.4800 C   0  0  2  0  0  3  0  0  0  0  0  0
  189.3900  177.4700  147.5010 C   0  0  0  0  0  1  0  0  0  0  0  0
  188.0740  177.8540  147.2320 O   0  0  0  0  0  0  0  0  0  0  0  0
  189.6460  177.3040  142.6660 C   0  0  1  0  0  3  0  0  0  0  0  0
  190.2500  176.2970  143.4240 O   0  0  0  0  0  0  0  0  0  0  0  0
  191.6080  176.6270  143.4420 C   0  0  0  0  0  1  0  0  0  0  0  0
  189.1260  176.7500  141.4850 O   0  0  0  0  0  0  0  0  0  0  0  0
  190.5560  176.2180  139.7930 O   0  0  0  0  0  1  0  0  0  0  0  0
  189.9150  177.2690  140.4520 C   0  0  1  0  0  3  0  0  0  0  0  0
  188.0340  178.6280  139.8850 O   0  0  0  0  0  1  0  0  0  0  0  0
  189.0660  178.0240  139.4790 C   0  0  0  0  0  0  0  0  0  0  0  0
  189.4260  178.0950  138.1360 O   0  0  0  0  0  0  0  0  0  0  0  0
  182.2680  179.3300  141.8690 C   0  0  0  0  0  2  0  0  0  0  0  0
  181.5920  178.8230  143.0530 N   0  0  0  0  0  2  0  0  0  0  0  0
  179.6260  177.8590  142.7380 O   0  0  0  0  0  1  0  0  0  0  0  0
  180.2240  179.0670  142.8770 N   0  0  0  0  0  2  0  0  0  0  0  0
  1 23  1  0  0  0  0
  1 44  1  6  0  0  0
  2  8  2  0  0  0  0
  3 19  1  1  0  0  0
  3  2  1  0  0  0  0
  4  5  1  0  0  0  0
  5  8  1  0  0  0  0
  6  3  1  0  0  0  0
  7  6  1  0  0  0  0
  7  4  2  0  0  0  0
  8  1  1  0  0  0  0
  9  4  1  6  0  0  0
  9 13  1  0  0  0  0
 10  9  1  0  0  0  0
 11 18  1  1  0  0  0
 11 14  1  0  0  0  0
 14 12  2  0  0  0  0
 14 13  1  0  0  0  0
 15 10  1  0  0  0  0
 15 11  1  0  0  0  0
 17 18  1  0  0  0  0
 18 16  1  0  0  0  0
 20 19  1  0  0  0  0
 21 20  1  0  0  0  0
 22 20  1  0  0  0  0
 23 24  1  6  0  0  0
 23 25  1  0  0  0  0
 25 26  1  0  0  0  0
 26 28  1  0  0  0  0
 27 31  1  0  0  0  0
 28 30  2  0  0  0  0
 29 32  1  0  0  0  0
 29 28  1  0  0  0  0
 30 31  1  0  0  0  0
 31 34  1  1  0  0  0
 32 35  1  6  0  0  0
 32 27  1  0  0  0  0
 34 33  1  0  0  0  0
 35 38  1  6  0  0  0
 35 36  1  0  0  0  0
 36 37  1  0  0  0  0
 40 39  1  6  0  0  0
 40 38  1  0  0  0  0
 42 41  1  0  0  0  0
 42 40  1  0  0  0  0
 43 42  2  0  0  0  0
 44 45  1  0  0  0  0
 46 47  1  0  0  0  0
 47 45  1  0  0  0  0
M  END
>  <MODEL>
9

>  <REMARK>
 VINA RESULT:      -6.2      3.204      8.561
  Name = 
  18 active torsions:
  status: ('A' for Active; 'I' for Inactive)
    1  A    between atoms: C_3  and  N_18
    2  A    between atoms: O_5  and  C_9
    3  A    between atoms: O_5  and  C_32
    4  A    between atoms: C_6  and  C_9
    5  A    between atoms: C_10  and  C_29
    6  A    between atoms: O_11  and  C_32
    7  A    between atoms: C_14  and  C_34
    8  A    between atoms: N_15  and  C_25
    9  A    between atoms: N_15  and  C_34
   10  A    between atoms: N_18  and  C_28
   11  A    between atoms: C_19  and  C_20
   12  A    between atoms: C_19  and  C_25
   13  A    between atoms: C_19  and  C_45
   14  A    between atoms: C_20  and  N_23
   15  A    between atoms: C_21  and  N_46
   16  A    between atoms: N_23  and  N_40
   17  A    between atoms: C_32  and  C_42
   18  A    between atoms: C_39  and  O_44
                            x       y       z     vdW  Elec       q    Type
                         _______ _______ _______ _____ _____    ______ ____

>  <TORSDO>
F 18

$$$$
