=
 OpenBabel11032420423D

 45 50  0  0  1  0  0  0  0  0999 V2000
  182.0160  177.2080  140.4030 C   0  0  0  0  0  2  0  0  0  0  0  0
  182.3780  179.0430  138.1080 N   0  0  2  0  0  0  0  0  0  0  0  0
  180.8230  177.0880  137.6170 O   0  0  0  0  0  0  0  0  0  0  0  0
  181.7900  178.0370  137.1990 C   0  0  2  0  0  3  0  0  0  0  0  0
  180.9780  175.7940  137.0810 C   0  0  0  0  0  0  0  0  0  0  0  0
  182.9490  176.7820  139.2680 C   0  0  0  0  0  2  0  0  0  0  0  0
  182.9830  177.6850  137.9920 C   0  0  2  0  0  0  0  0  0  0  0  0
  180.2310  174.8620  137.4790 O   0  0  0  0  0  0  0  0  0  0  0  0
  181.4190  179.2520  139.2000 C   0  0  0  0  0  2  0  0  0  0  0  0
  183.5140  175.7380  136.5220 C   0  0  0  0  0  2  0  0  0  0  0  0
  181.9250  178.7150  140.5230 C   0  0  2  0  0  3  0  0  0  0  0  0
  182.0550  175.5030  136.0390 C   0  0  0  0  0  2  0  0  0  0  0  0
  183.8860  177.2100  136.8680 C   0  0  2  0  0  3  0  0  0  0  0  0
  185.2730  177.2690  137.3010 N   0  0  0  0  0  2  0  0  0  0  0  0
  186.1110  177.6310  135.1550 O   0  0  0  0  0  0  0  0  0  0  0  0
  186.3510  177.4710  136.3840 C   0  0  0  0  0  0  0  0  0  0  0  0
  189.3500  177.1240  138.7570 C   0  0  0  0  0  0  0  0  0  0  0  0
  188.0030  177.1660  138.1460 C   0  0  0  0  0  3  0  0  0  0  0  0
  190.5460  176.3710  136.7300 C   0  0  0  0  0  3  0  0  0  0  0  0
  187.7370  177.5080  136.8830 C   0  0  0  0  0  0  0  0  0  0  0  0
  189.8200  176.8980  135.7460 C   0  0  0  0  0  3  0  0  0  0  0  0
  188.8300  177.9850  135.9800 C   0  0  0  0  0  2  0  0  0  0  0  0
  190.4230  176.7470  138.1130 N   0  0  0  0  0  0  0  0  0  0  0  0
  189.4350  177.4530  140.1130 O   0  0  0  0  0  0  0  0  0  0  0  0
  190.1510  176.6590  141.0540 C   0  0  0  0  0  2  0  0  0  0  0  0
  191.2330  177.5050  141.6980 C   0  0  2  0  0  3  0  0  0  0  0  0
  192.3230  177.6180  140.8270 O   0  0  0  0  0  1  0  0  0  0  0  0
  191.6820  176.8490  143.0010 C   0  0  0  0  0  2  0  0  0  0  0  0
  190.9650  178.9490  143.7380 C   0  0  0  0  0  1  0  0  0  0  0  0
  191.4650  177.2800  145.2830 C   0  0  0  0  0  1  0  0  0  0  0  0
  191.8860  177.8630  144.0220 N   0  0  0  0  0  0  0  0  0  0  0  0
  183.2600  179.3380  140.9240 C   0  0  0  0  0  2  0  0  0  0  0  0
  183.7760  178.7240  142.2190 C   0  0  0  0  0  2  0  0  0  0  0  0
  185.2210  178.3540  142.0760 C   0  0  0  0  0  0  0  0  0  0  0  0
  187.3990  177.5550  143.0360 C   0  0  0  0  0  2  0  0  0  0  0  0
  185.9540  178.4790  146.9380 C   0  0  2  0  0  3  0  0  0  0  0  0
  185.4260  178.0240  144.5600 C   0  0  0  0  0  2  0  0  0  0  0  0
  187.9480  177.2400  146.7130 O   0  0  0  0  0  0  0  0  0  0  0  0
  185.6210  179.7220  147.4730 O   0  0  0  0  0  1  0  0  0  0  0  0
  187.1660  177.9270  147.6480 C   0  0  0  0  0  2  0  0  0  0  0  0
  187.7870  177.9370  145.5050 C   0  0  1  0  0  3  0  0  0  0  0  0
  186.0090  177.9840  143.2190 N   0  0  0  0  0  0  0  0  0  0  0  0
  187.9720  176.9730  144.3290 C   0  0  0  0  0  2  0  0  0  0  0  0
  186.4270  178.6460  145.5280 C   0  0  2  0  0  3  0  0  0  0  0  0
  185.7510  178.3940  140.9290 O   0  0  0  0  0  0  0  0  0  0  0  0
  1 11  1  0  0  0  0
  2  9  1  1  0  0  0
  4  3  1  1  0  0  0
  4  7  1  0  0  0  0
  4  2  1  0  0  0  0
  5  8  2  0  0  0  0
  5  3  1  0  0  0  0
  6  1  1  0  0  0  0
  7  2  1  0  0  0  0
  7  6  1  1  0  0  0
  9 11  1  0  0  0  0
 10 13  1  0  0  0  0
 11 32  1  6  0  0  0
 12 10  1  0  0  0  0
 12  5  1  0  0  0  0
 13 14  1  1  0  0  0
 13  7  1  0  0  0  0
 15 16  2  0  0  0  0
 16 20  1  0  0  0  0
 16 14  1  0  0  0  0
 17 24  1  0  0  0  0
 18 17  1  0  0  0  0
 19 23  1  0  0  0  0
 20 18  2  0  0  0  0
 21 22  1  0  0  0  0
 21 19  2  0  0  0  0
 22 20  1  0  0  0  0
 23 17  2  0  0  0  0
 24 25  1  0  0  0  0
 25 26  1  0  0  0  0
 26 27  1  6  0  0  0
 26 28  1  0  0  0  0
 28 31  1  0  0  0  0
 29 31  1  0  0  0  0
 31 30  1  0  0  0  0
 32 33  1  0  0  0  0
 34 33  1  0  0  0  0
 34 42  1  0  0  0  0
 35 42  1  0  0  0  0
 35 43  1  0  0  0  0
 36 39  1  1  0  0  0
 36 40  1  0  0  0  0
 38 40  1  0  0  0  0
 41 43  1  6  0  0  0
 41 44  1  0  0  0  0
 41 38  1  0  0  0  0
 42 37  1  0  0  0  0
 44 37  1  6  0  0  0
 44 36  1  0  0  0  0
 45 34  2  0  0  0  0
M  END
>  <MODEL>
1

>  <REMARK>
 VINA RESULT:      -8.2      0.000      0.000
  Name = 
  10 active torsions:
  status: ('A' for Active; 'I' for Inactive)
    1  A    between atoms: C_1  and  O_42
    2  A    between atoms: N_2  and  C_44
    3  A    between atoms: C_3  and  C_38
    4  A    between atoms: C_8  and  C_38
    5  A    between atoms: C_8  and  C_40
    6  A    between atoms: C_14  and  N_28
    7  A    between atoms: C_14  and  C_29
    8  A    between atoms: C_23  and  C_29
    9  A    between atoms: C_23  and  O_42
   10  A    between atoms: C_24  and  C_31
                            x       y       z     vdW  Elec       q    Type
                         _______ _______ _______ _____ _____    ______ ____

>  <TORSDO>
F 10

$$$$
=
 OpenBabel11032420423D

 45 50  0  0  1  0  0  0  0  0999 V2000
  190.6070  175.8660  143.2050 C   0  0  0  0  0  2  0  0  0  0  0  0
  190.4800  178.7150  143.9970 N   0  0  2  0  0  0  0  0  0  0  0  0
  191.0160  177.1430  145.9250 O   0  0  0  0  0  0  0  0  0  0  0  0
  190.4210  178.3270  145.4210 C   0  0  2  0  0  3  0  0  0  0  0  0
  190.2620  176.4560  146.8990 C   0  0  0  0  0  0  0  0  0  0  0  0
  189.3560  176.3670  143.9290 C   0  0  0  0  0  2  0  0  0  0  0  0
  189.3900  177.8250  144.4910 C   0  0  2  0  0  0  0  0  0  0  0  0
  190.6620  175.3410  147.3230 O   0  0  0  0  0  0  0  0  0  0  0  0
  191.6600  178.0630  143.4190 C   0  0  0  0  0  2  0  0  0  0  0  0
  187.8430  177.2350  146.3600 C   0  0  0  0  0  2  0  0  0  0  0  0
  191.2930  176.9730  142.4330 C   0  0  2  0  0  3  0  0  0  0  0  0
  188.9550  177.0390  147.4290 C   0  0  0  0  0  2  0  0  0  0  0  0
  188.1500  178.2750  145.2430 C   0  0  2  0  0  3  0  0  0  0  0  0
  187.0250  178.3460  144.3260 N   0  0  0  0  0  2  0  0  0  0  0  0
  185.6190  179.4050  145.8540 O   0  0  0  0  0  0  0  0  0  0  0  0
  185.7690  178.9170  144.7000 C   0  0  0  0  0  0  0  0  0  0  0  0
  183.7070  178.1850  141.5440 C   0  0  0  0  0  0  0  0  0  0  0  0
  184.7570  178.2680  142.5830 C   0  0  0  0  0  3  0  0  0  0  0  0
  181.7850  178.2150  143.0980 C   0  0  0  0  0  3  0  0  0  0  0  0
  184.6610  178.9470  143.7280 C   0  0  0  0  0  0  0  0  0  0  0  0
  182.2430  178.9370  144.1200 C   0  0  0  0  0  3  0  0  0  0  0  0
  183.4580  179.7890  144.0120 C   0  0  0  0  0  2  0  0  0  0  0  0
  182.4280  178.1370  141.8140 N   0  0  0  0  0  0  0  0  0  0  0  0
  184.1390  178.0940  140.2180 O   0  0  0  0  0  0  0  0  0  0  0  0
  185.3760  178.6390  139.7720 C   0  0  0  0  0  2  0  0  0  0  0  0
  185.5360  178.3620  138.2890 C   0  0  2  0  0  3  0  0  0  0  0  0
  184.7470  177.2630  137.9270 O   0  0  0  0  0  1  0  0  0  0  0  0
  187.0020  178.0660  137.9830 C   0  0  0  0  0  2  0  0  0  0  0  0
  188.9230  179.0560  137.0910 C   0  0  0  0  0  1  0  0  0  0  0  0
  187.2400  178.2940  135.6740 C   0  0  0  0  0  1  0  0  0  0  0  0
  187.4820  178.9580  136.9420 N   0  0  0  0  0  0  0  0  0  0  0  0
  190.4240  177.4990  141.2930 C   0  0  0  0  0  2  0  0  0  0  0  0
  191.1640  177.4150  139.9640 C   0  0  0  0  0  2  0  0  0  0  0  0
  190.5250  176.3880  139.0800 C   0  0  0  0  0  0  0  0  0  0  0  0
  190.6610  174.5850  137.3380 C   0  0  0  0  0  2  0  0  0  0  0  0
  194.5670  175.9480  136.3120 C   0  0  2  0  0  3  0  0  0  0  0  0
  192.7310  175.9040  137.9770 C   0  0  0  0  0  2  0  0  0  0  0  0
  193.7960  173.8980  135.4360 O   0  0  0  0  0  0  0  0  0  0  0  0
  194.9470  177.1720  135.7660 O   0  0  0  0  0  1  0  0  0  0  0  0
  194.8200  174.8440  135.3150 C   0  0  0  0  0  2  0  0  0  0  0  0
  192.6470  174.6300  135.7750 C   0  0  1  0  0  3  0  0  0  0  0  0
  191.3020  175.6350  138.1370 N   0  0  0  0  0  0  0  0  0  0  0  0
  191.6990  173.7460  136.5910 C   0  0  0  0  0  2  0  0  0  0  0  0
  193.0810  175.9150  136.4930 C   0  0  2  0  0  3  0  0  0  0  0  0
  189.2760  176.2070  139.1580 O   0  0  0  0  0  0  0  0  0  0  0  0
  1  6  1  0  0  0  0
  2  9  1  6  0  0  0
  2  7  1  0  0  0  0
  2  4  1  0  0  0  0
  3  5  1  0  0  0  0
  4  3  1  6  0  0  0
  5  8  2  0  0  0  0
  5 12  1  0  0  0  0
  7  6  1  6  0  0  0
  7 13  1  0  0  0  0
  7  4  1  0  0  0  0
 10 12  1  0  0  0  0
 11 32  1  6  0  0  0
 11  1  1  0  0  0  0
 11  9  1  0  0  0  0
 13 14  1  6  0  0  0
 13 10  1  0  0  0  0
 14 16  1  0  0  0  0
 16 15  2  0  0  0  0
 17 23  2  0  0  0  0
 17 18  1  0  0  0  0
 18 20  2  0  0  0  0
 19 21  2  0  0  0  0
 20 22  1  0  0  0  0
 20 16  1  0  0  0  0
 22 21  1  0  0  0  0
 23 19  1  0  0  0  0
 24 17  1  0  0  0  0
 25 24  1  0  0  0  0
 26 27  1  1  0  0  0
 26 25  1  0  0  0  0
 28 26  1  0  0  0  0
 30 31  1  0  0  0  0
 31 29  1  0  0  0  0
 31 28  1  0  0  0  0
 33 32  1  0  0  0  0
 34 45  2  0  0  0  0
 34 33  1  0  0  0  0
 35 42  1  0  0  0  0
 36 39  1  6  0  0  0
 36 44  1  0  0  0  0
 37 42  1  0  0  0  0
 38 41  1  0  0  0  0
 40 38  1  0  0  0  0
 40 36  1  0  0  0  0
 41 44  1  0  0  0  0
 41 43  1  1  0  0  0
 42 34  1  0  0  0  0
 43 35  1  0  0  0  0
 44 37  1  1  0  0  0
M  END
>  <MODEL>
2

>  <REMARK>
 VINA RESULT:      -7.8      2.531      9.935
  Name = 
  10 active torsions:
  status: ('A' for Active; 'I' for Inactive)
    1  A    between atoms: C_1  and  O_42
    2  A    between atoms: N_2  and  C_44
    3  A    between atoms: C_3  and  C_38
    4  A    between atoms: C_8  and  C_38
    5  A    between atoms: C_8  and  C_40
    6  A    between atoms: C_14  and  N_28
    7  A    between atoms: C_14  and  C_29
    8  A    between atoms: C_23  and  C_29
    9  A    between atoms: C_23  and  O_42
   10  A    between atoms: C_24  and  C_31
                            x       y       z     vdW  Elec       q    Type
                         _______ _______ _______ _____ _____    ______ ____

>  <TORSDO>
F 10

$$$$
=
 OpenBabel11032420423D

 45 50  0  0  1  0  0  0  0  0999 V2000
  181.9490  175.9550  139.4970 C   0  0  0  0  0  2  0  0  0  0  0  0
  182.7880  178.2920  137.8840 N   0  0  2  0  0  0  0  0  0  0  0  0
  180.8570  176.9850  136.8620 O   0  0  0  0  0  0  0  0  0  0  0  0
  182.0240  177.7790  136.7280 C   0  0  2  0  0  3  0  0  0  0  0  0
  180.7410  175.9240  135.9410 C   0  0  0  0  0  0  0  0  0  0  0  0
  182.8040  175.7140  138.2520 C   0  0  0  0  0  2  0  0  0  0  0  0
  183.0810  176.9410  137.3250 C   0  0  2  0  0  0  0  0  0  0  0  0
  179.7930  175.1040  136.0530 O   0  0  0  0  0  0  0  0  0  0  0  0
  181.8620  178.3530  139.0220 C   0  0  0  0  0  2  0  0  0  0  0  0
  183.2190  175.4890  135.2990 C   0  0  0  0  0  2  0  0  0  0  0  0
  182.1890  177.3290  140.0890 C   0  0  2  0  0  3  0  0  0  0  0  0
  181.7630  175.7460  134.8210 C   0  0  0  0  0  2  0  0  0  0  0  0
  183.8960  176.6570  136.0760 C   0  0  2  0  0  3  0  0  0  0  0  0
  185.2450  176.2690  136.4520 N   0  0  0  0  0  2  0  0  0  0  0  0
  186.2720  177.7080  134.9310 O   0  0  0  0  0  0  0  0  0  0  0  0
  186.4030  176.8280  135.8270 C   0  0  0  0  0  0  0  0  0  0  0  0
  189.5540  176.3650  137.9730 C   0  0  0  0  0  0  0  0  0  0  0  0
  188.2420  176.7700  137.4220 C   0  0  0  0  0  3  0  0  0  0  0  0
  189.5450  174.0760  137.0430 C   0  0  0  0  0  3  0  0  0  0  0  0
  187.7450  176.3830  136.2450 C   0  0  0  0  0  0  0  0  0  0  0  0
  188.8380  174.2150  135.9230 C   0  0  0  0  0  3  0  0  0  0  0  0
  188.5630  175.5440  135.3150 C   0  0  0  0  0  2  0  0  0  0  0  0
  190.0700  175.1750  137.8070 N   0  0  0  0  0  0  0  0  0  0  0  0
  190.2230  177.3070  138.7600 O   0  0  0  0  0  0  0  0  0  0  0  0
  191.2220  176.9470  139.7080 C   0  0  0  0  0  2  0  0  0  0  0  0
  190.6250  176.9940  141.1020 C   0  0  2  0  0  3  0  0  0  0  0  0
  189.5440  177.8840  141.1230 O   0  0  0  0  0  1  0  0  0  0  0  0
  191.6880  177.4530  142.0960 C   0  0  0  0  0  2  0  0  0  0  0  0
  191.6380  176.2520  144.1020 C   0  0  0  0  0  1  0  0  0  0  0  0
  191.7330  178.5790  144.1380 C   0  0  0  0  0  1  0  0  0  0  0  0
  191.1440  177.4490  143.4430 N   0  0  0  0  0  0  0  0  0  0  0  0
  183.6140  177.4830  140.6150 C   0  0  0  0  0  2  0  0  0  0  0  0
  183.8300  178.8770  141.1910 C   0  0  0  0  0  2  0  0  0  0  0  0
  183.4190  178.9100  142.6330 C   0  0  0  0  0  0  0  0  0  0  0  0
  183.9640  178.8660  145.0830 C   0  0  0  0  0  2  0  0  0  0  0  0
  187.8130  177.2970  144.1420 C   0  0  2  0  0  3  0  0  0  0  0  0
  185.7890  178.4940  143.3610 C   0  0  0  0  0  2  0  0  0  0  0  0
  187.3760  178.0280  146.3410 O   0  0  0  0  0  0  0  0  0  0  0  0
  188.1370  176.0740  143.5560 O   0  0  0  0  0  1  0  0  0  0  0  0
  188.3060  177.3250  145.5680 C   0  0  0  0  0  2  0  0  0  0  0  0
  186.1240  177.7460  145.7700 C   0  0  1  0  0  3  0  0  0  0  0  0
  184.3860  178.7540  143.6830 N   0  0  0  0  0  0  0  0  0  0  0  0
  185.1700  178.9190  146.0210 C   0  0  0  0  0  2  0  0  0  0  0  0
  186.3280  177.4090  144.2880 C   0  0  2  0  0  3  0  0  0  0  0  0
  182.1960  179.0560  142.9150 O   0  0  0  0  0  0  0  0  0  0  0  0
  1 11  1  0  0  0  0
  2  9  1  1  0  0  0
  4  3  1  1  0  0  0
  4  7  1  0  0  0  0
  4  2  1  0  0  0  0
  5  8  2  0  0  0  0
  5  3  1  0  0  0  0
  6  1  1  0  0  0  0
  7  2  1  0  0  0  0
  7  6  1  1  0  0  0
  9 11  1  0  0  0  0
 10 13  1  0  0  0  0
 11 32  1  6  0  0  0
 12 10  1  0  0  0  0
 12  5  1  0  0  0  0
 13 14  1  1  0  0  0
 13  7  1  0  0  0  0
 15 16  2  0  0  0  0
 16 20  1  0  0  0  0
 16 14  1  0  0  0  0
 17 24  1  0  0  0  0
 18 17  1  0  0  0  0
 19 23  1  0  0  0  0
 20 18  2  0  0  0  0
 21 19  2  0  0  0  0
 22 21  1  0  0  0  0
 22 20  1  0  0  0  0
 23 17  2  0  0  0  0
 24 25  1  0  0  0  0
 25 26  1  0  0  0  0
 26 27  1  6  0  0  0
 26 28  1  0  0  0  0
 28 31  1  0  0  0  0
 31 29  1  0  0  0  0
 31 30  1  0  0  0  0
 32 33  1  0  0  0  0
 33 34  1  0  0  0  0
 34 45  2  0  0  0  0
 34 42  1  0  0  0  0
 35 43  1  0  0  0  0
 36 39  1  1  0  0  0
 36 44  1  0  0  0  0
 36 40  1  0  0  0  0
 37 42  1  0  0  0  0
 40 38  1  0  0  0  0
 41 43  1  6  0  0  0
 41 38  1  0  0  0  0
 42 35  1  0  0  0  0
 44 37  1  6  0  0  0
 44 41  1  0  0  0  0
M  END
>  <MODEL>
3

>  <REMARK>
 VINA RESULT:      -7.8      1.489      2.106
  Name = 
  10 active torsions:
  status: ('A' for Active; 'I' for Inactive)
    1  A    between atoms: C_1  and  O_42
    2  A    between atoms: N_2  and  C_44
    3  A    between atoms: C_3  and  C_38
    4  A    between atoms: C_8  and  C_38
    5  A    between atoms: C_8  and  C_40
    6  A    between atoms: C_14  and  N_28
    7  A    between atoms: C_14  and  C_29
    8  A    between atoms: C_23  and  C_29
    9  A    between atoms: C_23  and  O_42
   10  A    between atoms: C_24  and  C_31
                            x       y       z     vdW  Elec       q    Type
                         _______ _______ _______ _____ _____    ______ ____

>  <TORSDO>
F 10

$$$$
=
 OpenBabel11032420423D

 45 50  0  0  1  0  0  0  0  0999 V2000
  190.1850  175.6230  143.1880 C   0  0  0  0  0  2  0  0  0  0  0  0
  189.8870  178.5680  143.2230 N   0  0  2  0  0  0  0  0  0  0  0  0
  190.0780  177.5330  145.5410 O   0  0  0  0  0  0  0  0  0  0  0  0
  189.5730  178.5280  144.6660 C   0  0  2  0  0  3  0  0  0  0  0  0
  189.1660  177.0590  146.5050 C   0  0  0  0  0  0  0  0  0  0  0  0
  188.8190  176.2140  143.5370 C   0  0  0  0  0  2  0  0  0  0  0  0
  188.7350  177.7630  143.7220 C   0  0  2  0  0  0  0  0  0  0  0  0
  189.4930  176.1010  147.2530 O   0  0  0  0  0  0  0  0  0  0  0  0
  191.1600  177.8610  143.0370 C   0  0  0  0  0  2  0  0  0  0  0  0
  186.8790  177.5530  145.3790 C   0  0  0  0  0  2  0  0  0  0  0  0
  190.9900  176.5490  142.2990 C   0  0  2  0  0  3  0  0  0  0  0  0
  187.7780  177.6800  146.6400 C   0  0  0  0  0  2  0  0  0  0  0  0
  187.3740  178.3120  144.1120 C   0  0  2  0  0  3  0  0  0  0  0  0
  186.4350  178.1000  143.0240 N   0  0  0  0  0  2  0  0  0  0  0  0
  185.0340  179.8540  143.6560 O   0  0  0  0  0  0  0  0  0  0  0  0
  185.2650  178.9050  142.8560 C   0  0  0  0  0  0  0  0  0  0  0  0
  181.9960  178.3530  140.9180 C   0  0  0  0  0  0  0  0  0  0  0  0
  183.0270  178.5810  141.9550 C   0  0  0  0  0  3  0  0  0  0  0  0
  183.1600  179.5660  139.1060 C   0  0  0  0  0  3  0  0  0  0  0  0
  184.3430  178.6310  141.7390 C   0  0  0  0  0  0  0  0  0  0  0  0
  184.4450  179.3920  139.4130 C   0  0  0  0  0  3  0  0  0  0  0  0
  184.9000  178.3560  140.3790 C   0  0  0  0  0  2  0  0  0  0  0  0
  182.0820  178.8220  139.7000 N   0  0  0  0  0  0  0  0  0  0  0  0
  180.8550  177.6480  141.3090 O   0  0  0  0  0  0  0  0  0  0  0  0
  179.6020  177.7810  140.6450 C   0  0  0  0  0  2  0  0  0  0  0  0
  178.9310  176.4230  140.5730 C   0  0  2  0  0  3  0  0  0  0  0  0
  179.4490  175.5870  141.5700 O   0  0  0  0  0  1  0  0  0  0  0  0
  179.1820  175.8040  139.2010 C   0  0  0  0  0  2  0  0  0  0  0  0
  179.6900  173.5770  138.7000 C   0  0  0  0  0  1  0  0  0  0  0  0
  181.3120  175.2280  138.4440 C   0  0  0  0  0  1  0  0  0  0  0  0
  180.2200  174.7910  139.2950 N   0  0  0  0  0  0  0  0  0  0  0  0
  190.3380  176.7390  140.9330 C   0  0  0  0  0  2  0  0  0  0  0  0
  191.2390  177.5520  140.0120 C   0  0  0  0  0  2  0  0  0  0  0  0
  191.5990  176.7490  138.7990 C   0  0  0  0  0  0  0  0  0  0  0  0
  191.1960  176.0350  136.4260 C   0  0  0  0  0  2  0  0  0  0  0  0
  187.2240  177.5550  136.7020 C   0  0  2  0  0  3  0  0  0  0  0  0
  189.5300  177.5380  137.6090 C   0  0  0  0  0  2  0  0  0  0  0  0
  188.0680  176.9180  134.5940 O   0  0  0  0  0  0  0  0  0  0  0  0
  186.1800  177.1220  137.5170 O   0  0  0  0  0  1  0  0  0  0  0  0
  186.8900  177.2790  135.2560 C   0  0  0  0  0  2  0  0  0  0  0  0
  188.8350  176.2240  135.5430 C   0  0  1  0  0  3  0  0  0  0  0  0
  190.7770  176.7730  137.6220 N   0  0  0  0  0  0  0  0  0  0  0  0
  190.3240  176.3910  135.2220 C   0  0  0  0  0  2  0  0  0  0  0  0
  188.4360  176.7100  136.9430 C   0  0  2  0  0  3  0  0  0  0  0  0
  192.6350  176.0240  138.8320 O   0  0  0  0  0  0  0  0  0  0  0  0
  1  6  1  0  0  0  0
  2  9  1  1  0  0  0
  2  7  1  0  0  0  0
  2  4  1  0  0  0  0
  3  5  1  0  0  0  0
  4  3  1  1  0  0  0
  5 12  1  0  0  0  0
  5  8  2  0  0  0  0
  7  6  1  1  0  0  0
  7 13  1  0  0  0  0
  7  4  1  0  0  0  0
 10 12  1  0  0  0  0
 11 32  1  6  0  0  0
 11  9  1  0  0  0  0
 11  1  1  0  0  0  0
 13 14  1  6  0  0  0
 13 10  1  0  0  0  0
 16 14  1  0  0  0  0
 16 15  2  0  0  0  0
 17 24  1  0  0  0  0
 17 18  1  0  0  0  0
 19 21  2  0  0  0  0
 19 23  1  0  0  0  0
 20 18  2  0  0  0  0
 20 16  1  0  0  0  0
 21 22  1  0  0  0  0
 22 20  1  0  0  0  0
 23 17  2  0  0  0  0
 25 24  1  0  0  0  0
 26 25  1  0  0  0  0
 26 27  1  1  0  0  0
 28 31  1  0  0  0  0
 28 26  1  0  0  0  0
 29 31  1  0  0  0  0
 30 31  1  0  0  0  0
 33 32  1  0  0  0  0
 34 45  2  0  0  0  0
 34 33  1  0  0  0  0
 35 42  1  0  0  0  0
 36 44  1  0  0  0  0
 36 39  1  1  0  0  0
 37 42  1  0  0  0  0
 38 40  1  0  0  0  0
 38 41  1  0  0  0  0
 40 36  1  0  0  0  0
 41 43  1  6  0  0  0
 41 44  1  0  0  0  0
 42 34  1  0  0  0  0
 43 35  1  0  0  0  0
 44 37  1  6  0  0  0
M  END
>  <MODEL>
4

>  <REMARK>
 VINA RESULT:      -7.7      2.111      9.784
  Name = 
  10 active torsions:
  status: ('A' for Active; 'I' for Inactive)
    1  A    between atoms: C_1  and  O_42
    2  A    between atoms: N_2  and  C_44
    3  A    between atoms: C_3  and  C_38
    4  A    between atoms: C_8  and  C_38
    5  A    between atoms: C_8  and  C_40
    6  A    between atoms: C_14  and  N_28
    7  A    between atoms: C_14  and  C_29
    8  A    between atoms: C_23  and  C_29
    9  A    between atoms: C_23  and  O_42
   10  A    between atoms: C_24  and  C_31
                            x       y       z     vdW  Elec       q    Type
                         _______ _______ _______ _____ _____    ______ ____

>  <TORSDO>
F 10

$$$$
=
 OpenBabel11032420423D

 45 50  0  0  1  0  0  0  0  0999 V2000
  190.7220  176.0750  143.2770 C   0  0  0  0  0  2  0  0  0  0  0  0
  190.4890  178.8500  144.2850 N   0  0  2  0  0  0  0  0  0  0  0  0
  191.0930  177.1560  146.0870 O   0  0  0  0  0  0  0  0  0  0  0  0
  190.4510  178.3510  145.6750 C   0  0  2  0  0  3  0  0  0  0  0  0
  190.3700  176.3690  147.0050 C   0  0  0  0  0  0  0  0  0  0  0  0
  189.4560  176.4720  144.0390 C   0  0  0  0  0  2  0  0  0  0  0  0
  189.4360  177.8820  144.7110 C   0  0  2  0  0  0  0  0  0  0  0  0
  190.8140  175.2410  147.3430 O   0  0  0  0  0  0  0  0  0  0  0  0
  191.6920  178.2890  143.6570 C   0  0  0  0  0  2  0  0  0  0  0  0
  187.9210  177.0920  146.5300 C   0  0  0  0  0  2  0  0  0  0  0  0
  191.3620  177.2650  142.5910 C   0  0  2  0  0  3  0  0  0  0  0  0
  189.0430  176.8590  147.5800 C   0  0  0  0  0  2  0  0  0  0  0  0
  188.1830  178.2260  145.4950 C   0  0  2  0  0  3  0  0  0  0  0  0
  187.0530  178.3220  144.5870 N   0  0  0  0  0  2  0  0  0  0  0  0
  185.6720  179.3850  146.1380 O   0  0  0  0  0  0  0  0  0  0  0  0
  185.8070  178.9070  144.9770 C   0  0  0  0  0  0  0  0  0  0  0  0
  183.7230  178.2600  141.8180 C   0  0  0  0  0  0  0  0  0  0  0  0
  184.7810  178.3150  142.8510 C   0  0  0  0  0  3  0  0  0  0  0  0
  181.8120  178.2520  143.3850 C   0  0  0  0  0  3  0  0  0  0  0  0
  184.6930  178.9640  144.0140 C   0  0  0  0  0  0  0  0  0  0  0  0
  182.2780  178.9470  144.4220 C   0  0  0  0  0  3  0  0  0  0  0  0
  183.4930  179.8000  144.3280 C   0  0  0  0  0  2  0  0  0  0  0  0
  182.4460  178.2070  142.0940 N   0  0  0  0  0  0  0  0  0  0  0  0
  184.1460  178.2020  140.4870 O   0  0  0  0  0  0  0  0  0  0  0  0
  183.2400  178.0700  139.3960 C   0  0  0  0  0  2  0  0  0  0  0  0
  183.1680  179.3870  138.6470 C   0  0  2  0  0  3  0  0  0  0  0  0
  184.1860  180.2390  139.0930 O   0  0  0  0  0  1  0  0  0  0  0  0
  181.8090  180.0370  138.8910 C   0  0  0  0  0  2  0  0  0  0  0  0
  180.3660  180.2050  137.0590 C   0  0  0  0  0  1  0  0  0  0  0  0
  180.8960  182.1010  138.3030 C   0  0  0  0  0  1  0  0  0  0  0  0
  181.4480  180.8740  137.7590 N   0  0  0  0  0  0  0  0  0  0  0  0
  190.4690  177.8420  141.4960 C   0  0  0  0  0  2  0  0  0  0  0  0
  189.8630  176.7290  140.6490 C   0  0  0  0  0  2  0  0  0  0  0  0
  189.6180  177.2170  139.2540 C   0  0  0  0  0  0  0  0  0  0  0  0
  190.0250  177.1150  136.7780 C   0  0  0  0  0  2  0  0  0  0  0  0
  193.5660  174.8590  137.5090 C   0  0  2  0  0  3  0  0  0  0  0  0
  191.3810  175.6660  138.3570 C   0  0  0  0  0  2  0  0  0  0  0  0
  192.7580  175.0500  135.3010 O   0  0  0  0  0  0  0  0  0  0  0  0
  194.7280  175.2510  138.1700 O   0  0  0  0  0  1  0  0  0  0  0  0
  193.8640  174.6280  136.0470 C   0  0  0  0  0  2  0  0  0  0  0  0
  192.2260  176.1430  136.0040 C   0  0  1  0  0  3  0  0  0  0  0  0
  190.3400  176.6700  138.1390 N   0  0  0  0  0  0  0  0  0  0  0  0
  190.7200  176.2400  135.7350 C   0  0  0  0  0  2  0  0  0  0  0  0
  192.5900  175.9940  137.4870 C   0  0  2  0  0  3  0  0  0  0  0  0
  188.7750  178.1400  139.0690 O   0  0  0  0  0  0  0  0  0  0  0  0
  1  6  1  0  0  0  0
  2  9  1  6  0  0  0
  2  7  1  0  0  0  0
  2  4  1  0  0  0  0
  3  5  1  0  0  0  0
  4  3  1  6  0  0  0
  5  8  2  0  0  0  0
  5 12  1  0  0  0  0
  7  6  1  6  0  0  0
  7 13  1  0  0  0  0
  7  4  1  0  0  0  0
 10 12  1  0  0  0  0
 11 32  1  6  0  0  0
 11  1  1  0  0  0  0
 11  9  1  0  0  0  0
 13 14  1  6  0  0  0
 13 10  1  0  0  0  0
 14 16  1  0  0  0  0
 16 15  2  0  0  0  0
 17 23  2  0  0  0  0
 17 18  1  0  0  0  0
 18 20  2  0  0  0  0
 19 21  2  0  0  0  0
 20 22  1  0  0  0  0
 20 16  1  0  0  0  0
 22 21  1  0  0  0  0
 23 19  1  0  0  0  0
 24 17  1  0  0  0  0
 25 24  1  0  0  0  0
 26 28  1  0  0  0  0
 26 27  1  1  0  0  0
 26 25  1  0  0  0  0
 29 31  1  0  0  0  0
 31 30  1  0  0  0  0
 31 28  1  0  0  0  0
 33 32  1  0  0  0  0
 34 33  1  0  0  0  0
 35 42  1  0  0  0  0
 36 39  1  1  0  0  0
 38 41  1  0  0  0  0
 38 40  1  0  0  0  0
 40 36  1  0  0  0  0
 41 43  1  1  0  0  0
 41 44  1  0  0  0  0
 42 37  1  0  0  0  0
 42 34  1  0  0  0  0
 43 35  1  0  0  0  0
 44 36  1  0  0  0  0
 44 37  1  1  0  0  0
 45 34  2  0  0  0  0
M  END
>  <MODEL>
5

>  <REMARK>
 VINA RESULT:      -7.5      2.477     10.215
  Name = 
  10 active torsions:
  status: ('A' for Active; 'I' for Inactive)
    1  A    between atoms: C_1  and  O_42
    2  A    between atoms: N_2  and  C_44
    3  A    between atoms: C_3  and  C_38
    4  A    between atoms: C_8  and  C_38
    5  A    between atoms: C_8  and  C_40
    6  A    between atoms: C_14  and  N_28
    7  A    between atoms: C_14  and  C_29
    8  A    between atoms: C_23  and  C_29
    9  A    between atoms: C_23  and  O_42
   10  A    between atoms: C_24  and  C_31
                            x       y       z     vdW  Elec       q    Type
                         _______ _______ _______ _____ _____    ______ ____

>  <TORSDO>
F 10

$$$$
=
 OpenBabel11032420423D

 45 50  0  0  1  0  0  0  0  0999 V2000
  190.0590  175.7320  143.2110 C   0  0  0  0  0  2  0  0  0  0  0  0
  190.0960  178.6190  143.8640 N   0  0  2  0  0  0  0  0  0  0  0  0
  190.6580  177.1180  145.8410 O   0  0  0  0  0  0  0  0  0  0  0  0
  190.0910  178.3020  145.3070 C   0  0  2  0  0  3  0  0  0  0  0  0
  189.9240  176.5140  146.8820 C   0  0  0  0  0  0  0  0  0  0  0  0
  188.8690  176.3250  143.9670 C   0  0  0  0  0  2  0  0  0  0  0  0
  188.9950  177.8050  144.4530 C   0  0  2  0  0  0  0  0  0  0  0  0
  190.2950  175.4030  147.3430 O   0  0  0  0  0  0  0  0  0  0  0  0
  191.2170  177.8860  143.2640 C   0  0  0  0  0  2  0  0  0  0  0  0
  187.5180  177.3760  146.4200 C   0  0  0  0  0  2  0  0  0  0  0  0
  190.7540  176.7690  142.3520 C   0  0  2  0  0  3  0  0  0  0  0  0
  188.6710  177.1810  147.4440 C   0  0  0  0  0  2  0  0  0  0  0  0
  187.8140  178.3470  145.2390 C   0  0  2  0  0  3  0  0  0  0  0  0
  186.6490  178.4250  144.3740 N   0  0  0  0  0  2  0  0  0  0  0  0
  185.3460  179.5640  145.9360 O   0  0  0  0  0  0  0  0  0  0  0  0
  185.4280  179.0420  144.7900 C   0  0  0  0  0  0  0  0  0  0  0  0
  183.2880  178.4740  141.6520 C   0  0  0  0  0  0  0  0  0  0  0  0
  184.3760  178.5380  142.6530 C   0  0  0  0  0  3  0  0  0  0  0  0
  181.4470  178.1620  143.2720 C   0  0  0  0  0  3  0  0  0  0  0  0
  184.2770  179.0770  143.8700 C   0  0  0  0  0  0  0  0  0  0  0  0
  181.8900  178.8070  144.3500 C   0  0  0  0  0  3  0  0  0  0  0  0
  183.0210  179.7720  144.2920 C   0  0  0  0  0  2  0  0  0  0  0  0
  182.0320  178.2830  141.9630 N   0  0  0  0  0  0  0  0  0  0  0  0
  183.6630  178.5660  140.3090 O   0  0  0  0  0  0  0  0  0  0  0  0
  184.9810  178.9140  139.9000 C   0  0  0  0  0  2  0  0  0  0  0  0
  185.3160  178.1730  138.6190 C   0  0  2  0  0  3  0  0  0  0  0  0
  186.0660  179.0030  137.7770 O   0  0  0  0  0  1  0  0  0  0  0  0
  184.0250  177.7600  137.9180 C   0  0  0  0  0  2  0  0  0  0  0  0
  183.0800  175.6690  138.3690 C   0  0  0  0  0  1  0  0  0  0  0  0
  183.6470  176.2460  136.1850 C   0  0  0  0  0  1  0  0  0  0  0  0
  184.0800  176.3510  137.5660 N   0  0  0  0  0  0  0  0  0  0  0  0
  189.8540  177.2790  141.2300 C   0  0  0  0  0  2  0  0  0  0  0  0
  190.6650  177.5670  139.9730 C   0  0  0  0  0  2  0  0  0  0  0  0
  189.7500  177.7760  138.8040 C   0  0  0  0  0  0  0  0  0  0  0  0
  188.6080  176.9570  136.7230 C   0  0  0  0  0  2  0  0  0  0  0  0
  191.3970  173.7400  136.5250 C   0  0  2  0  0  3  0  0  0  0  0  0
  190.3220  175.5020  137.8970 C   0  0  0  0  0  2  0  0  0  0  0  0
  189.5080  173.7150  135.1120 O   0  0  0  0  0  0  0  0  0  0  0  0
  192.7750  173.7920  136.3260 O   0  0  0  0  0  1  0  0  0  0  0  0
  190.7360  173.0820  135.3380 C   0  0  0  0  0  2  0  0  0  0  0  0
  189.7080  175.0580  135.4680 C   0  0  1  0  0  3  0  0  0  0  0  0
  189.5660  176.7510  137.8150 N   0  0  0  0  0  0  0  0  0  0  0  0
  188.3810  175.6670  135.9350 C   0  0  0  0  0  2  0  0  0  0  0  0
  190.8310  175.1260  136.5100 C   0  0  2  0  0  3  0  0  0  0  0  0
  189.1550  178.8840  138.6860 O   0  0  0  0  0  0  0  0  0  0  0  0
  1  6  1  0  0  0  0
  2  9  1  6  0  0  0
  2  7  1  0  0  0  0
  2  4  1  0  0  0  0
  3  5  1  0  0  0  0
  4  3  1  6  0  0  0
  5  8  2  0  0  0  0
  5 12  1  0  0  0  0
  7  6  1  6  0  0  0
  7 13  1  0  0  0  0
  7  4  1  0  0  0  0
 10 12  1  0  0  0  0
 11 32  1  6  0  0  0
 11  1  1  0  0  0  0
 11  9  1  0  0  0  0
 13 14  1  6  0  0  0
 13 10  1  0  0  0  0
 14 16  1  0  0  0  0
 16 15  2  0  0  0  0
 17 23  2  0  0  0  0
 17 18  1  0  0  0  0
 18 20  2  0  0  0  0
 19 21  2  0  0  0  0
 20 22  1  0  0  0  0
 20 16  1  0  0  0  0
 22 21  1  0  0  0  0
 23 19  1  0  0  0  0
 24 17  1  0  0  0  0
 25 24  1  0  0  0  0
 26 27  1  6  0  0  0
 26 25  1  0  0  0  0
 28 26  1  0  0  0  0
 30 31  1  0  0  0  0
 31 28  1  0  0  0  0
 31 29  1  0  0  0  0
 33 32  1  0  0  0  0
 34 33  1  0  0  0  0
 35 42  1  0  0  0  0
 36 39  1  6  0  0  0
 38 40  1  0  0  0  0
 38 41  1  0  0  0  0
 40 36  1  0  0  0  0
 41 43  1  1  0  0  0
 41 44  1  0  0  0  0
 42 37  1  0  0  0  0
 42 34  1  0  0  0  0
 43 35  1  0  0  0  0
 44 36  1  0  0  0  0
 44 37  1  1  0  0  0
 45 34  2  0  0  0  0
M  END
>  <MODEL>
6

>  <REMARK>
 VINA RESULT:      -7.5      2.222      9.809
  Name = 
  10 active torsions:
  status: ('A' for Active; 'I' for Inactive)
    1  A    between atoms: C_1  and  O_42
    2  A    between atoms: N_2  and  C_44
    3  A    between atoms: C_3  and  C_38
    4  A    between atoms: C_8  and  C_38
    5  A    between atoms: C_8  and  C_40
    6  A    between atoms: C_14  and  N_28
    7  A    between atoms: C_14  and  C_29
    8  A    between atoms: C_23  and  C_29
    9  A    between atoms: C_23  and  O_42
   10  A    between atoms: C_24  and  C_31
                            x       y       z     vdW  Elec       q    Type
                         _______ _______ _______ _____ _____    ______ ____

>  <TORSDO>
F 10

$$$$
=
 OpenBabel11032420423D

 45 50  0  0  1  0  0  0  0  0999 V2000
  190.6740  175.9970  143.2560 C   0  0  0  0  0  2  0  0  0  0  0  0
  190.4880  178.7950  144.2040 N   0  0  2  0  0  0  0  0  0  0  0  0
  191.0640  177.1310  146.0410 O   0  0  0  0  0  0  0  0  0  0  0  0
  190.4420  178.3270  145.6040 C   0  0  2  0  0  3  0  0  0  0  0  0
  190.3280  176.3750  146.9770 C   0  0  0  0  0  0  0  0  0  0  0  0
  189.4150  176.4310  144.0090 C   0  0  0  0  0  2  0  0  0  0  0  0
  189.4190  177.8550  144.6500 C   0  0  2  0  0  0  0  0  0  0  0  0
  190.7530  175.2470  147.3380 O   0  0  0  0  0  0  0  0  0  0  0  0
  191.6810  178.2010  143.5880 C   0  0  0  0  0  2  0  0  0  0  0  0
  187.8920  177.1300  146.4860 C   0  0  0  0  0  2  0  0  0  0  0  0
  191.3330  177.1600  142.5440 C   0  0  2  0  0  3  0  0  0  0  0  0
  189.0100  176.9000  147.5410 C   0  0  0  0  0  2  0  0  0  0  0  0
  188.1730  178.2360  145.4280 C   0  0  2  0  0  3  0  0  0  0  0  0
  187.0430  178.3330  144.5180 N   0  0  0  0  0  2  0  0  0  0  0  0
  185.6580  179.3890  146.0690 O   0  0  0  0  0  0  0  0  0  0  0  0
  185.7960  178.9150  144.9070 C   0  0  0  0  0  0  0  0  0  0  0  0
  183.7020  178.2410  141.7590 C   0  0  0  0  0  0  0  0  0  0  0  0
  184.7600  178.2980  142.7920 C   0  0  0  0  0  3  0  0  0  0  0  0
  181.7910  178.2950  143.3250 C   0  0  0  0  0  3  0  0  0  0  0  0
  184.6840  178.9710  143.9420 C   0  0  0  0  0  0  0  0  0  0  0  0
  182.2680  179.0020  144.3490 C   0  0  0  0  0  3  0  0  0  0  0  0
  183.4970  179.8330  144.2390 C   0  0  0  0  0  2  0  0  0  0  0  0
  182.4240  178.2150  142.0360 N   0  0  0  0  0  0  0  0  0  0  0  0
  184.1250  178.1500  140.4300 O   0  0  0  0  0  0  0  0  0  0  0  0
  184.3240  179.2940  139.6060 C   0  0  0  0  0  2  0  0  0  0  0  0
  183.1720  179.4070  138.6250 C   0  0  2  0  0  3  0  0  0  0  0  0
  182.2150  180.3000  139.1230 O   0  0  0  0  0  1  0  0  0  0  0  0
  182.5390  178.0330  138.4250 C   0  0  0  0  0  2  0  0  0  0  0  0
  182.9290  175.9770  137.3810 C   0  0  0  0  0  1  0  0  0  0  0  0
  182.1850  177.7950  136.1320 C   0  0  0  0  0  1  0  0  0  0  0  0
  183.0650  177.4140  137.2200 N   0  0  0  0  0  0  0  0  0  0  0  0
  190.4490  177.7290  141.4370 C   0  0  0  0  0  2  0  0  0  0  0  0
  189.9400  176.6180  140.5270 C   0  0  0  0  0  2  0  0  0  0  0  0
  190.6270  176.6840  139.1960 C   0  0  0  0  0  0  0  0  0  0  0  0
  190.5730  176.7860  136.6880 C   0  0  0  0  0  2  0  0  0  0  0  0
  186.5230  175.4620  136.7780 C   0  0  2  0  0  3  0  0  0  0  0  0
  188.4250  176.4740  138.0010 C   0  0  0  0  0  2  0  0  0  0  0  0
  187.4290  176.2540  134.7500 O   0  0  0  0  0  0  0  0  0  0  0  0
  186.0140  174.2420  137.2190 O   0  0  0  0  0  1  0  0  0  0  0  0
  186.3230  175.5870  135.2870 C   0  0  0  0  0  2  0  0  0  0  0  0
  188.5240  175.8570  135.5340 C   0  0  1  0  0  3  0  0  0  0  0  0
  189.8780  176.6450  137.9720 N   0  0  0  0  0  0  0  0  0  0  0  0
  189.5800  176.9670  135.5390 C   0  0  0  0  0  2  0  0  0  0  0  0
  188.0120  175.4720  136.9280 C   0  0  2  0  0  3  0  0  0  0  0  0
  191.8890  176.7530  139.1630 O   0  0  0  0  0  0  0  0  0  0  0  0
  1  6  1  0  0  0  0
  2  9  1  6  0  0  0
  2  7  1  0  0  0  0
  2  4  1  0  0  0  0
  3  5  1  0  0  0  0
  4  3  1  6  0  0  0
  5  8  2  0  0  0  0
  5 12  1  0  0  0  0
  7  6  1  6  0  0  0
  7 13  1  0  0  0  0
  7  4  1  0  0  0  0
 10 12  1  0  0  0  0
 11 32  1  6  0  0  0
 11  1  1  0  0  0  0
 11  9  1  0  0  0  0
 13 14  1  6  0  0  0
 13 10  1  0  0  0  0
 14 16  1  0  0  0  0
 16 15  2  0  0  0  0
 17 23  2  0  0  0  0
 17 18  1  0  0  0  0
 18 20  2  0  0  0  0
 19 21  2  0  0  0  0
 20 22  1  0  0  0  0
 20 16  1  0  0  0  0
 22 21  1  0  0  0  0
 23 19  1  0  0  0  0
 24 17  1  0  0  0  0
 25 24  1  0  0  0  0
 26 27  1  1  0  0  0
 26 25  1  0  0  0  0
 28 26  1  0  0  0  0
 30 31  1  0  0  0  0
 31 29  1  0  0  0  0
 31 28  1  0  0  0  0
 33 32  1  0  0  0  0
 34 33  1  0  0  0  0
 35 42  1  0  0  0  0
 36 44  1  0  0  0  0
 36 39  1  6  0  0  0
 38 40  1  0  0  0  0
 38 41  1  0  0  0  0
 40 36  1  0  0  0  0
 41 43  1  1  0  0  0
 41 44  1  0  0  0  0
 42 37  1  0  0  0  0
 42 34  1  0  0  0  0
 43 35  1  0  0  0  0
 44 37  1  1  0  0  0
 45 34  2  0  0  0  0
M  END
>  <MODEL>
7

>  <REMARK>
 VINA RESULT:      -7.3      1.901      9.925
  Name = 
  10 active torsions:
  status: ('A' for Active; 'I' for Inactive)
    1  A    between atoms: C_1  and  O_42
    2  A    between atoms: N_2  and  C_44
    3  A    between atoms: C_3  and  C_38
    4  A    between atoms: C_8  and  C_38
    5  A    between atoms: C_8  and  C_40
    6  A    between atoms: C_14  and  N_28
    7  A    between atoms: C_14  and  C_29
    8  A    between atoms: C_23  and  C_29
    9  A    between atoms: C_23  and  O_42
   10  A    between atoms: C_24  and  C_31
                            x       y       z     vdW  Elec       q    Type
                         _______ _______ _______ _____ _____    ______ ____

>  <TORSDO>
F 10

$$$$
=
 OpenBabel11032420423D

 45 50  0  0  1  0  0  0  0  0999 V2000
  182.1670  177.0610  136.9670 C   0  0  0  0  0  2  0  0  0  0  0  0
  181.6930  175.7140  139.5600 N   0  0  2  0  0  0  0  0  0  0  0  0
  179.9000  177.4150  138.9500 O   0  0  0  0  0  0  0  0  0  0  0  0
  180.6830  176.7320  139.9150 C   0  0  2  0  0  3  0  0  0  0  0  0
  179.6900  178.7850  139.2030 C   0  0  0  0  0  0  0  0  0  0  0  0
  182.4870  177.8230  138.2540 C   0  0  0  0  0  2  0  0  0  0  0  0
  182.0620  177.1590  139.6030 C   0  0  2  0  0  0  0  0  0  0  0  0
  179.0990  179.4930  138.3470 O   0  0  0  0  0  0  0  0  0  0  0  0
  181.3130  175.1640  138.2530 C   0  0  0  0  0  2  0  0  0  0  0  0
  181.7320  179.3790  140.6950 C   0  0  0  0  0  2  0  0  0  0  0  0
  182.2780  175.5630  137.1560 C   0  0  2  0  0  3  0  0  0  0  0  0
  180.1910  179.4270  140.4950 C   0  0  0  0  0  2  0  0  0  0  0  0
  182.3530  177.9610  140.8580 C   0  0  2  0  0  3  0  0  0  0  0  0
  183.7910  178.0800  141.0360 N   0  0  0  0  0  2  0  0  0  0  0  0
  183.6700  178.2140  143.3610 O   0  0  0  0  0  0  0  0  0  0  0  0
  184.3930  178.2180  142.3260 C   0  0  0  0  0  0  0  0  0  0  0  0
  187.9580  177.8650  143.7070 C   0  0  0  0  0  0  0  0  0  0  0  0
  186.4950  177.8360  143.4930 C   0  0  0  0  0  3  0  0  0  0  0  0
  188.5860  177.6250  141.3290 C   0  0  0  0  0  3  0  0  0  0  0  0
  185.8560  178.3490  142.4390 C   0  0  0  0  0  0  0  0  0  0  0  0
  187.5720  178.2130  140.6950 C   0  0  0  0  0  3  0  0  0  0  0  0
  186.6090  179.1080  141.3920 C   0  0  0  0  0  2  0  0  0  0  0  0
  188.8310  177.7430  142.7410 N   0  0  0  0  0  0  0  0  0  0  0  0
  188.3990  177.9680  145.0290 O   0  0  0  0  0  0  0  0  0  0  0  0
  187.6670  177.4360  146.1280 C   0  0  0  0  0  2  0  0  0  0  0  0
  188.5910  177.3030  147.3240 C   0  0  2  0  0  3  0  0  0  0  0  0
  188.1240  178.1080  148.3710 O   0  0  0  0  0  1  0  0  0  0  0  0
  189.9990  177.7390  146.9290 C   0  0  0  0  0  2  0  0  0  0  0  0
  191.5680  176.9390  145.3910 C   0  0  0  0  0  1  0  0  0  0  0  0
  191.7470  176.3700  147.6410 C   0  0  0  0  0  1  0  0  0  0  0  0
  190.7950  176.5790  146.5670 N   0  0  0  0  0  0  0  0  0  0  0  0
  183.7090  175.1300  137.4650 C   0  0  0  0  0  2  0  0  0  0  0  0
  184.6730  175.6510  136.4070 C   0  0  0  0  0  2  0  0  0  0  0  0
  185.5800  174.5500  135.9450 C   0  0  0  0  0  0  0  0  0  0  0  0
  187.7590  173.3060  136.0300 C   0  0  0  0  0  2  0  0  0  0  0  0
  189.5200  176.6390  138.0190 C   0  0  2  0  0  3  0  0  0  0  0  0
  187.4520  175.4390  137.3690 C   0  0  0  0  0  2  0  0  0  0  0  0
  190.7140  174.6080  137.8990 O   0  0  0  0  0  0  0  0  0  0  0  0
  189.7250  177.9310  137.5400 O   0  0  0  0  0  1  0  0  0  0  0  0
  190.8510  175.9590  138.2350 C   0  0  0  0  0  2  0  0  0  0  0  0
  189.7880  174.5760  136.8440 C   0  0  1  0  0  3  0  0  0  0  0  0
  186.9220  174.4370  136.4440 N   0  0  0  0  0  0  0  0  0  0  0  0
  189.0430  173.2370  136.8570 C   0  0  0  0  0  2  0  0  0  0  0  0
  188.8750  175.8030  136.9580 C   0  0  2  0  0  3  0  0  0  0  0  0
  185.1520  173.7270  135.0860 O   0  0  0  0  0  0  0  0  0  0  0  0
  1 11  1  0  0  0  0
  1  6  1  0  0  0  0
  2  9  1  6  0  0  0
  2  7  1  0  0  0  0
  2  4  1  0  0  0  0
  3  5  1  0  0  0  0
  4  3  1  6  0  0  0
  5 12  1  0  0  0  0
  7  6  1  6  0  0  0
  7  4  1  0  0  0  0
  7 13  1  0  0  0  0
  8  5  2  0  0  0  0
 10 13  1  0  0  0  0
 11 32  1  1  0  0  0
 11  9  1  0  0  0  0
 12 10  1  0  0  0  0
 13 14  1  6  0  0  0
 14 16  1  0  0  0  0
 16 20  1  0  0  0  0
 16 15  2  0  0  0  0
 17 24  1  0  0  0  0
 18 17  1  0  0  0  0
 19 23  1  0  0  0  0
 20 18  2  0  0  0  0
 21 19  2  0  0  0  0
 21 22  1  0  0  0  0
 22 20  1  0  0  0  0
 23 17  2  0  0  0  0
 24 25  1  0  0  0  0
 25 26  1  0  0  0  0
 26 27  1  1  0  0  0
 28 26  1  0  0  0  0
 29 31  1  0  0  0  0
 31 28  1  0  0  0  0
 31 30  1  0  0  0  0
 33 32  1  0  0  0  0
 34 33  1  0  0  0  0
 34 42  1  0  0  0  0
 35 42  1  0  0  0  0
 35 43  1  0  0  0  0
 36 39  1  6  0  0  0
 36 40  1  0  0  0  0
 38 40  1  0  0  0  0
 41 43  1  1  0  0  0
 41 44  1  0  0  0  0
 41 38  1  0  0  0  0
 42 37  1  0  0  0  0
 44 37  1  1  0  0  0
 44 36  1  0  0  0  0
 45 34  2  0  0  0  0
M  END
>  <MODEL>
8

>  <REMARK>
 VINA RESULT:      -7.2      2.203      6.328
  Name = 
  10 active torsions:
  status: ('A' for Active; 'I' for Inactive)
    1  A    between atoms: C_1  and  O_42
    2  A    between atoms: N_2  and  C_44
    3  A    between atoms: C_3  and  C_38
    4  A    between atoms: C_8  and  C_38
    5  A    between atoms: C_8  and  C_40
    6  A    between atoms: C_14  and  N_28
    7  A    between atoms: C_14  and  C_29
    8  A    between atoms: C_23  and  C_29
    9  A    between atoms: C_23  and  O_42
   10  A    between atoms: C_24  and  C_31
                            x       y       z     vdW  Elec       q    Type
                         _______ _______ _______ _____ _____    ______ ____

>  <TORSDO>
F 10

$$$$
=
 OpenBabel11032420423D

 45 50  0  0  1  0  0  0  0  0999 V2000
  183.4060  177.7060  140.9640 C   0  0  0  0  0  2  0  0  0  0  0  0
  183.8390  179.0460  138.3590 N   0  0  2  0  0  0  0  0  0  0  0  0
  181.4270  178.3370  138.7540 O   0  0  0  0  0  0  0  0  0  0  0  0
  182.5230  178.5720  137.8860 C   0  0  2  0  0  3  0  0  0  0  0  0
  180.6560  177.1950  138.4570 C   0  0  0  0  0  0  0  0  0  0  0  0
  183.4800  176.8440  139.7020 C   0  0  0  0  0  2  0  0  0  0  0  0
  183.5300  177.5870  138.3280 C   0  0  2  0  0  0  0  0  0  0  0  0
  179.7300  176.8490  139.2360 O   0  0  0  0  0  0  0  0  0  0  0  0
  183.6160  179.7460  139.6300 C   0  0  0  0  0  2  0  0  0  0  0  0
  182.3570  175.7120  137.1710 C   0  0  0  0  0  2  0  0  0  0  0  0
  184.1910  178.9940  140.8120 C   0  0  2  0  0  3  0  0  0  0  0  0
  180.9440  176.3590  137.2130 C   0  0  0  0  0  2  0  0  0  0  0  0
  183.5560  176.7010  137.0960 C   0  0  2  0  0  3  0  0  0  0  0  0
  184.8010  175.9510  137.0640 N   0  0  0  0  0  2  0  0  0  0  0  0
  185.9600  177.5850  135.8710 O   0  0  0  0  0  0  0  0  0  0  0  0
  185.9760  176.4470  136.4170 C   0  0  0  0  0  0  0  0  0  0  0  0
  189.5410  175.2710  137.2240 C   0  0  0  0  0  0  0  0  0  0  0  0
  188.2670  176.0160  137.1180 C   0  0  0  0  0  3  0  0  0  0  0  0
  188.5440  173.0110  137.1410 C   0  0  0  0  0  3  0  0  0  0  0  0
  187.2040  175.6320  136.4080 C   0  0  0  0  0  0  0  0  0  0  0  0
  187.4570  173.1960  136.3940 C   0  0  0  0  0  3  0  0  0  0  0  0
  187.2650  174.4070  135.5520 C   0  0  0  0  0  2  0  0  0  0  0  0
  189.6140  173.9660  137.2580 N   0  0  0  0  0  0  0  0  0  0  0  0
  190.7060  176.0330  137.3540 O   0  0  0  0  0  0  0  0  0  0  0  0
  191.4030  176.1680  138.5880 C   0  0  0  0  0  2  0  0  0  0  0  0
  192.8960  176.1350  138.3220 C   0  0  2  0  0  3  0  0  0  0  0  0
  193.5320  177.1280  139.0760 O   0  0  0  0  0  1  0  0  0  0  0  0
  193.1530  176.3740  136.8370 C   0  0  0  0  0  2  0  0  0  0  0  0
  194.7590  174.7180  136.4480 C   0  0  0  0  0  1  0  0  0  0  0  0
  194.7890  176.6870  135.2040 C   0  0  0  0  0  1  0  0  0  0  0  0
  194.5570  176.1540  136.5340 N   0  0  0  0  0  0  0  0  0  0  0  0
  185.6870  178.7370  140.6580 C   0  0  0  0  0  2  0  0  0  0  0  0
  186.2920  178.2550  141.9700 C   0  0  0  0  0  2  0  0  0  0  0  0
  187.7880  178.2550  141.8810 C   0  0  0  0  0  0  0  0  0  0  0  0
  190.0540  177.7230  142.8240 C   0  0  0  0  0  2  0  0  0  0  0  0
  188.2850  177.2740  146.6750 C   0  0  2  0  0  3  0  0  0  0  0  0
  187.9690  177.3460  144.2180 C   0  0  0  0  0  2  0  0  0  0  0  0
  190.5200  176.5950  146.3500 O   0  0  0  0  0  0  0  0  0  0  0  0
  187.6520  178.2350  147.4610 O   0  0  0  0  0  1  0  0  0  0  0  0
  189.5640  176.8320  147.3440 C   0  0  0  0  0  2  0  0  0  0  0  0
  190.2480  177.5290  145.3370 C   0  0  1  0  0  3  0  0  0  0  0  0
  188.5960  177.7810  142.9700 N   0  0  0  0  0  0  0  0  0  0  0  0
  190.6970  176.9650  143.9850 C   0  0  0  0  0  2  0  0  0  0  0  0
  188.7600  177.8980  145.4000 C   0  0  2  0  0  3  0  0  0  0  0  0
  188.3380  178.7020  140.8340 O   0  0  0  0  0  0  0  0  0  0  0  0
  2  9  1  1  0  0  0
  4  7  1  0  0  0  0
  4  2  1  0  0  0  0
  4  3  1  1  0  0  0
  5  3  1  0  0  0  0
  5  8  2  0  0  0  0
  6  1  1  0  0  0  0
  7  2  1  0  0  0  0
  7  6  1  1  0  0  0
  9 11  1  0  0  0  0
 10 12  1  0  0  0  0
 11 32  1  6  0  0  0
 11  1  1  0  0  0  0
 12  5  1  0  0  0  0
 13 14  1  1  0  0  0
 13 10  1  0  0  0  0
 13  7  1  0  0  0  0
 15 16  2  0  0  0  0
 16 14  1  0  0  0  0
 17 23  2  0  0  0  0
 17 24  1  0  0  0  0
 18 17  1  0  0  0  0
 19 23  1  0  0  0  0
 20 16  1  0  0  0  0
 20 18  2  0  0  0  0
 21 19  2  0  0  0  0
 22 21  1  0  0  0  0
 22 20  1  0  0  0  0
 24 25  1  0  0  0  0
 26 25  1  0  0  0  0
 26 27  1  1  0  0  0
 28 26  1  0  0  0  0
 29 31  1  0  0  0  0
 30 31  1  0  0  0  0
 31 28  1  0  0  0  0
 32 33  1  0  0  0  0
 34 33  1  0  0  0  0
 34 42  1  0  0  0  0
 35 42  1  0  0  0  0
 35 43  1  0  0  0  0
 36 40  1  0  0  0  0
 36 39  1  1  0  0  0
 38 40  1  0  0  0  0
 41 43  1  6  0  0  0
 41 44  1  0  0  0  0
 41 38  1  0  0  0  0
 42 37  1  0  0  0  0
 44 37  1  6  0  0  0
 44 36  1  0  0  0  0
 45 34  2  0  0  0  0
M  END
>  <MODEL>
9

>  <REMARK>
 VINA RESULT:      -7.2      2.243      3.505
  Name = 
  10 active torsions:
  status: ('A' for Active; 'I' for Inactive)
    1  A    between atoms: C_1  and  O_42
    2  A    between atoms: N_2  and  C_44
    3  A    between atoms: C_3  and  C_38
    4  A    between atoms: C_8  and  C_38
    5  A    between atoms: C_8  and  C_40
    6  A    between atoms: C_14  and  N_28
    7  A    between atoms: C_14  and  C_29
    8  A    between atoms: C_23  and  C_29
    9  A    between atoms: C_23  and  O_42
   10  A    between atoms: C_24  and  C_31
                            x       y       z     vdW  Elec       q    Type
                         _______ _______ _______ _____ _____    ______ ____

>  <TORSDO>
F 10

$$$$
