=
 OpenBabel11042410053D

 29 33  0  0  1  0  0  0  0  0999 V2000
  188.9540  177.2000  147.6120 C   0  0  0  0  0  3  0  0  0  0  0  0
  184.5830  178.5790  142.8730 C   0  0  2  0  0  3  0  0  0  0  0  0
  181.6140  179.3200  140.6720 C   0  0  0  0  0  1  0  0  0  0  0  0
  182.6990  178.7560  144.3100 C   0  0  0  0  0  3  0  0  0  0  0  0
  184.7370  178.7550  140.6960 C   0  0  0  0  0  0  0  0  0  0  0  0
  189.9760  177.2440  145.3910 C   0  0  0  0  0  3  0  0  0  0  0  0
  185.9840  178.4670  141.1670 N   0  0  0  0  0  0  0  0  0  0  0  0
  185.0170  178.2270  145.3160 C   0  0  0  0  0  3  0  0  0  0  0  0
  187.6960  177.5060  147.0640 C   0  0  0  0  0  3  0  0  0  0  0  0
  188.2940  177.7800  143.5030 C   0  0  0  0  0  0  0  0  0  0  0  0
  189.0280  177.7550  142.4810 O   0  0  0  0  0  0  0  0  0  0  0  0
  186.4530  177.9930  144.8480 C   0  0  0  0  0  0  0  0  0  0  0  0
  183.8390  178.8220  141.7610 C   0  0  0  0  0  0  0  0  0  0  0  0
  188.7200  177.5460  144.8720 C   0  0  0  0  0  0  0  0  0  0  0  0
  187.6100  177.6740  145.6830 C   0  0  0  0  0  0  0  0  0  0  0  0
  190.0870  177.0690  146.7820 C   0  0  0  0  0  0  0  0  0  0  0  0
  185.8720  178.3660  142.5120 C   0  0  0  0  0  0  0  0  0  0  0  0
  180.5300  179.2400  143.3470 O   0  0  0  0  0  1  0  0  0  0  0  0
  186.8550  178.0550  143.5630 C   0  0  0  0  0  0  0  0  0  0  0  0
  181.8910  179.0180  143.1730 C   0  0  0  0  0  0  0  0  0  0  0  0
  184.0770  178.5300  144.1600 C   0  0  0  0  0  0  0  0  0  0  0  0
  182.4610  179.0510  141.8710 C   0  0  0  0  0  0  0  0  0  0  0  0
  191.4080  176.7460  147.3810 C   0  0  0  0  0  1  0  0  0  0  0  0
  187.1800  178.2830  140.3620 C   0  0  0  0  0  1  0  0  0  0  0  0
  184.3950  178.8880  139.2460 C   0  0  0  0  0  2  0  0  0  0  0  0
  183.5240  176.5470  138.3030 C   0  0  0  0  0  0  0  0  0  0  0  0
  183.9190  177.6050  138.7270 C   0  0  0  0  0  0  0  0  0  0  0  0
  183.9160  174.3150  137.5430 C   0  0  0  0  0  2  0  0  0  0  0  0
  183.0560  175.2870  137.8020 C   0  0  0  0  0  3  0  0  0  0  0  0
  2 13  1  6  0  0  0
  2 21  1  0  0  0  0
  3 22  1  0  0  0  0
  5  7  1  0  0  0  0
  5 13  2  0  0  0  0
  6 16  1  0  0  0  0
  7 17  1  0  0  0  0
  9  1  1  0  0  0  0
 10 19  1  0  0  0  0
 10 14  1  0  0  0  0
 11 10  2  0  0  0  0
 12  8  2  0  0  0  0
 12 15  1  0  0  0  0
 13 22  1  0  0  0  0
 14  6  2  0  0  0  0
 14 15  1  0  0  0  0
 15  9  2  0  0  0  0
 16 23  1  0  0  0  0
 16  1  2  0  0  0  0
 17  2  1  0  0  0  0
 17 19  2  0  0  0  0
 19 12  1  0  0  0  0
 20 18  1  0  0  0  0
 20  4  1  0  0  0  0
 21  4  2  0  0  0  0
 21  8  1  0  0  0  0
 22 20  2  0  0  0  0
 24  7  1  0  0  0  0
 25  5  1  0  0  0  0
 26 27  3  0  0  0  0
 27 25  1  0  0  0  0
 28 29  2  0  0  0  0
 29 26  1  0  0  0  0
M  END
>  <MODEL>
1

>  <REMARK>
 VINA RESULT:     -10.2      0.000      0.000
  Name = 
  3 active torsions:
  status: ('A' for Active; 'I' for Inactive)
    1  A    between atoms: C_5  and  C_8
    2  A    between atoms: C_8  and  C_20
    3  A    between atoms: C_12  and  C_28
                            x       y       z     vdW  Elec       q    Type
                         _______ _______ _______ _____ _____    ______ ____

>  <TORSDO>
F 3

$$$$
=
 OpenBabel11042410053D

 29 33  0  0  1  0  0  0  0  0999 V2000
  190.1210  176.6270  147.6350 C   0  0  0  0  0  3  0  0  0  0  0  0
  187.1680  178.0870  141.9240 C   0  0  2  0  0  3  0  0  0  0  0  0
  184.8960  178.9230  139.0350 C   0  0  0  0  0  1  0  0  0  0  0  0
  185.0030  178.4350  142.8400 C   0  0  0  0  0  3  0  0  0  0  0  0
  187.8690  178.1680  139.8510 C   0  0  0  0  0  0  0  0  0  0  0  0
  191.6630  176.5220  145.7390 C   0  0  0  0  0  3  0  0  0  0  0  0
  188.9370  177.8230  140.6250 N   0  0  0  0  0  0  0  0  0  0  0  0
  186.9570  177.8050  144.4050 C   0  0  0  0  0  3  0  0  0  0  0  0
  189.0630  176.9880  146.7830 C   0  0  0  0  0  3  0  0  0  0  0  0
  190.5430  177.0870  143.4790 C   0  0  0  0  0  0  0  0  0  0  0  0
  191.5030  176.9760  142.6740 O   0  0  0  0  0  0  0  0  0  0  0  0
  188.4450  177.4640  144.3160 C   0  0  0  0  0  0  0  0  0  0  0  0
  186.7420  178.3320  140.6560 C   0  0  0  0  0  0  0  0  0  0  0  0
  190.5980  176.8800  144.9160 C   0  0  0  0  0  0  0  0  0  0  0  0
  189.3340  177.1080  145.4200 C   0  0  0  0  0  0  0  0  0  0  0  0
  191.4130  176.3950  147.1170 C   0  0  0  0  0  0  0  0  0  0  0  0
  188.4890  177.7820  141.9020 C   0  0  0  0  0  0  0  0  0  0  0  0
  183.1800  179.0140  141.3550 O   0  0  0  0  0  1  0  0  0  0  0  0
  189.1560  177.4520  143.1720 C   0  0  0  0  0  0  0  0  0  0  0  0
  184.5230  178.7020  141.5310 C   0  0  0  0  0  0  0  0  0  0  0  0
  186.3560  178.1190  143.0450 C   0  0  0  0  0  0  0  0  0  0  0  0
  185.3980  178.6490  140.4130 C   0  0  0  0  0  0  0  0  0  0  0  0
  192.5190  176.0140  148.0350 C   0  0  0  0  0  1  0  0  0  0  0  0
  190.2800  177.5340  140.1490 C   0  0  0  0  0  1  0  0  0  0  0  0
  187.9070  178.2660  138.3590 C   0  0  0  0  0  2  0  0  0  0  0  0
  187.4310  175.8710  137.2780 C   0  0  0  0  0  0  0  0  0  0  0  0
  187.6480  176.9520  137.7680 C   0  0  0  0  0  0  0  0  0  0  0  0
  186.2360  173.8030  137.2090 C   0  0  0  0  0  2  0  0  0  0  0  0
  187.1700  174.5860  136.6950 C   0  0  0  0  0  3  0  0  0  0  0  0
  2 13  1  6  0  0  0
  2 21  1  0  0  0  0
  3 22  1  0  0  0  0
  4 21  2  0  0  0  0
  5  7  1  0  0  0  0
  5 13  2  0  0  0  0
  6 16  2  0  0  0  0
  7 17  1  0  0  0  0
  9  1  2  0  0  0  0
 10 14  1  0  0  0  0
 11 10  2  0  0  0  0
 12  8  2  0  0  0  0
 12 15  1  0  0  0  0
 14 15  2  0  0  0  0
 14  6  1  0  0  0  0
 15  9  1  0  0  0  0
 16  1  1  0  0  0  0
 16 23  1  0  0  0  0
 17  2  1  0  0  0  0
 17 19  2  0  0  0  0
 18 20  1  0  0  0  0
 19 10  1  0  0  0  0
 19 12  1  0  0  0  0
 20  4  1  0  0  0  0
 21  8  1  0  0  0  0
 22 13  1  0  0  0  0
 22 20  2  0  0  0  0
 24  7  1  0  0  0  0
 25  5  1  0  0  0  0
 26 27  3  0  0  0  0
 27 25  1  0  0  0  0
 29 28  2  0  0  0  0
 29 26  1  0  0  0  0
M  END
>  <MODEL>
2

>  <REMARK>
 VINA RESULT:     -10.1      1.916      2.827
  Name = 
  3 active torsions:
  status: ('A' for Active; 'I' for Inactive)
    1  A    between atoms: C_5  and  C_8
    2  A    between atoms: C_8  and  C_20
    3  A    between atoms: C_12  and  C_28
                            x       y       z     vdW  Elec       q    Type
                         _______ _______ _______ _____ _____    ______ ____

>  <TORSDO>
F 3

$$$$
=
 OpenBabel11042410053D

 29 33  0  0  1  0  0  0  0  0999 V2000
  181.5090  178.8840  143.9240 C   0  0  0  0  0  3  0  0  0  0  0  0
  188.0030  177.7600  144.1180 C   0  0  2  0  0  3  0  0  0  0  0  0
  191.6280  177.1120  144.9170 C   0  0  0  0  0  1  0  0  0  0  0  0
  188.1290  177.4170  146.4660 C   0  0  0  0  0  3  0  0  0  0  0  0
  189.5710  177.7620  142.5900 C   0  0  0  0  0  0  0  0  0  0  0  0
  182.5450  179.0450  141.7150 C   0  0  0  0  0  3  0  0  0  0  0  0
  188.3950  178.0470  141.9610 N   0  0  0  0  0  0  0  0  0  0  0  0
  185.8440  177.9300  145.3810 C   0  0  0  0  0  3  0  0  0  0  0  0
  182.7510  178.5860  144.5100 C   0  0  0  0  0  3  0  0  0  0  0  0
  185.0930  178.6120  141.7480 C   0  0  0  0  0  0  0  0  0  0  0  0
  185.3980  178.7400  140.5330 O   0  0  0  0  0  0  0  0  0  0  0  0
  185.2640  178.2410  144.0010 C   0  0  0  0  0  0  0  0  0  0  0  0
  189.3410  177.5850  143.9540 C   0  0  0  0  0  0  0  0  0  0  0  0
  183.7640  178.7490  142.3190 C   0  0  0  0  0  0  0  0  0  0  0  0
  183.8680  178.5260  143.6770 C   0  0  0  0  0  0  0  0  0  0  0  0
  181.4050  179.1120  142.5350 C   0  0  0  0  0  0  0  0  0  0  0  0
  187.4360  178.0380  142.9180 C   0  0  0  0  0  0  0  0  0  0  0  0
  190.2840  176.9480  147.4680 O   0  0  0  0  0  1  0  0  0  0  0  0
  185.9870  178.2920  142.8650 C   0  0  0  0  0  0  0  0  0  0  0  0
  189.5300  177.2220  146.3330 C   0  0  0  0  0  0  0  0  0  0  0  0
  187.3450  177.6930  145.3340 C   0  0  0  0  0  0  0  0  0  0  0  0
  190.1560  177.3090  145.0610 C   0  0  0  0  0  0  0  0  0  0  0  0
  180.0820  179.4250  141.9360 C   0  0  0  0  0  1  0  0  0  0  0  0
  188.2290  178.3290  140.5450 C   0  0  0  0  0  1  0  0  0  0  0  0
  190.9030  177.7340  141.9100 C   0  0  0  0  0  2  0  0  0  0  0  0
  190.7150  176.4240  139.5910 C   0  0  0  0  0  0  0  0  0  0  0  0
  190.7980  177.0150  140.6400 C   0  0  0  0  0  0  0  0  0  0  0  0
  191.7080  175.2480  137.7630 C   0  0  0  0  0  2  0  0  0  0  0  0
  190.6180  175.7240  138.3430 C   0  0  0  0  0  3  0  0  0  0  0  0
  1  9  1  0  0  0  0
  2 17  1  1  0  0  0
  2 21  1  0  0  0  0
  3 22  1  0  0  0  0
  5 13  2  0  0  0  0
  6 14  2  0  0  0  0
  6 16  1  0  0  0  0
  7  5  1  0  0  0  0
  7 17  1  0  0  0  0
 10 14  1  0  0  0  0
 10 19  1  0  0  0  0
 11 10  2  0  0  0  0
 12  8  2  0  0  0  0
 13  2  1  0  0  0  0
 13 22  1  0  0  0  0
 14 15  1  0  0  0  0
 15 12  1  0  0  0  0
 15  9  2  0  0  0  0
 16  1  2  0  0  0  0
 19 17  2  0  0  0  0
 19 12  1  0  0  0  0
 20  4  1  0  0  0  0
 20 18  1  0  0  0  0
 21  8  1  0  0  0  0
 21  4  2  0  0  0  0
 22 20  2  0  0  0  0
 23 16  1  0  0  0  0
 24  7  1  0  0  0  0
 25  5  1  0  0  0  0
 26 27  3  0  0  0  0
 27 25  1  0  0  0  0
 28 29  2  0  0  0  0
 29 26  1  0  0  0  0
M  END
>  <MODEL>
3

>  <REMARK>
 VINA RESULT:      -9.9      2.488      6.755
  Name = 
  3 active torsions:
  status: ('A' for Active; 'I' for Inactive)
    1  A    between atoms: C_5  and  C_8
    2  A    between atoms: C_8  and  C_20
    3  A    between atoms: C_12  and  C_28
                            x       y       z     vdW  Elec       q    Type
                         _______ _______ _______ _____ _____    ______ ____

>  <TORSDO>
F 3

$$$$
=
 OpenBabel11042410053D

 29 33  0  0  1  0  0  0  0  0999 V2000
  188.0310  177.5990  146.4530 C   0  0  0  0  0  3  0  0  0  0  0  0
  182.9350  178.7360  142.4270 C   0  0  2  0  0  3  0  0  0  0  0  0
  179.6360  179.3230  140.7000 C   0  0  0  0  0  1  0  0  0  0  0  0
  181.2840  178.8430  144.1330 C   0  0  0  0  0  3  0  0  0  0  0  0
  182.7490  178.8980  140.2510 C   0  0  0  0  0  0  0  0  0  0  0  0
  188.7020  177.6670  144.1020 C   0  0  0  0  0  3  0  0  0  0  0  0
  184.0650  178.6700  140.5280 N   0  0  0  0  0  0  0  0  0  0  0  0
  183.7480  178.4280  144.7770 C   0  0  0  0  0  3  0  0  0  0  0  0
  186.6920  177.8430  146.1010 C   0  0  0  0  0  3  0  0  0  0  0  0
  186.7310  178.1100  142.4900 C   0  0  0  0  0  0  0  0  0  0  0  0
  187.3020  178.1070  141.3680 O   0  0  0  0  0  0  0  0  0  0  0  0
  185.1070  178.2530  144.0970 C   0  0  0  0  0  0  0  0  0  0  0  0
  182.0210  178.9350  141.4400 C   0  0  0  0  0  0  0  0  0  0  0  0
  187.3690  177.9080  143.7790 C   0  0  0  0  0  0  0  0  0  0  0  0
  186.3900  177.9940  144.7480 C   0  0  0  0  0  0  0  0  0  0  0  0
  189.0300  177.5110  145.4600 C   0  0  0  0  0  0  0  0  0  0  0  0
  184.1630  178.5770  141.8760 C   0  0  0  0  0  0  0  0  0  0  0  0
  178.9740  179.2210  143.5080 O   0  0  0  0  0  1  0  0  0  0  0  0
  185.3070  178.3210  142.7670 C   0  0  0  0  0  0  0  0  0  0  0  0
  180.3020  179.0580  143.1300 C   0  0  0  0  0  0  0  0  0  0  0  0
  182.6320  178.6770  143.7770 C   0  0  0  0  0  0  0  0  0  0  0  0
  180.6660  179.1030  141.7570 C   0  0  0  0  0  0  0  0  0  0  0  0
  190.4400  177.2520  145.8540 C   0  0  0  0  0  1  0  0  0  0  0  0
  185.1330  178.5310  139.5520 C   0  0  0  0  0  1  0  0  0  0  0  0
  182.1860  179.0010  138.8690 C   0  0  0  0  0  2  0  0  0  0  0  0
  181.7060  181.5590  138.2700 C   0  0  0  0  0  0  0  0  0  0  0  0
  181.9240  180.4040  138.5430 C   0  0  0  0  0  0  0  0  0  0  0  0
  180.4370  183.2430  137.1460 C   0  0  0  0  0  2  0  0  0  0  0  0
  181.4470  182.9310  137.9440 C   0  0  0  0  0  3  0  0  0  0  0  0
  2 13  1  6  0  0  0
  2 21  1  0  0  0  0
  3 22  1  0  0  0  0
  5  7  1  0  0  0  0
  5 13  2  0  0  0  0
  6 16  1  0  0  0  0
  7 17  1  0  0  0  0
  9  1  1  0  0  0  0
 10 19  1  0  0  0  0
 10 14  1  0  0  0  0
 11 10  2  0  0  0  0
 12 15  1  0  0  0  0
 12  8  2  0  0  0  0
 13 22  1  0  0  0  0
 14  6  2  0  0  0  0
 14 15  1  0  0  0  0
 15  9  2  0  0  0  0
 16 23  1  0  0  0  0
 16  1  2  0  0  0  0
 17  2  1  0  0  0  0
 17 19  2  0  0  0  0
 19 12  1  0  0  0  0
 20 18  1  0  0  0  0
 20  4  1  0  0  0  0
 21  4  2  0  0  0  0
 21  8  1  0  0  0  0
 22 20  2  0  0  0  0
 24  7  1  0  0  0  0
 25  5  1  0  0  0  0
 26 27  3  0  0  0  0
 27 25  1  0  0  0  0
 28 29  2  0  0  0  0
 29 26  1  0  0  0  0
M  END
>  <MODEL>
4

>  <REMARK>
 VINA RESULT:      -9.7      1.865      3.069
  Name = 
  3 active torsions:
  status: ('A' for Active; 'I' for Inactive)
    1  A    between atoms: C_5  and  C_8
    2  A    between atoms: C_8  and  C_20
    3  A    between atoms: C_12  and  C_28
                            x       y       z     vdW  Elec       q    Type
                         _______ _______ _______ _____ _____    ______ ____

>  <TORSDO>
F 3

$$$$
=
 OpenBabel11042410053D

 29 33  0  0  1  0  0  0  0  0999 V2000
  187.9860  177.5050  146.9760 C   0  0  0  0  0  3  0  0  0  0  0  0
  183.4130  178.7850  142.4020 C   0  0  2  0  0  3  0  0  0  0  0  0
  180.3520  179.4830  140.3170 C   0  0  0  0  0  1  0  0  0  0  0  0
  181.5950  179.0010  143.9160 C   0  0  0  0  0  3  0  0  0  0  0  0
  183.4720  178.9090  140.2160 C   0  0  0  0  0  0  0  0  0  0  0  0
  188.9100  177.4930  144.7110 C   0  0  0  0  0  3  0  0  0  0  0  0
  184.7380  178.6290  140.6390 N   0  0  0  0  0  0  0  0  0  0  0  0
  183.9540  178.4900  144.8310 C   0  0  0  0  0  3  0  0  0  0  0  0
  186.7060  177.8020  146.4770 C   0  0  0  0  0  3  0  0  0  0  0  0
  187.1470  177.9900  142.8870 C   0  0  0  0  0  0  0  0  0  0  0  0
  187.8350  177.9380  141.8340 O   0  0  0  0  0  0  0  0  0  0  0  0
  185.3680  178.2400  144.3060 C   0  0  0  0  0  0  0  0  0  0  0  0
  182.6220  179.0040  141.3180 C   0  0  0  0  0  0  0  0  0  0  0  0
  187.6320  177.7870  144.2410 C   0  0  0  0  0  0  0  0  0  0  0  0
  186.5600  177.9370  145.0960 C   0  0  0  0  0  0  0  0  0  0  0  0
  189.0820  177.3510  146.0990 C   0  0  0  0  0  0  0  0  0  0  0  0
  184.6850  178.5600  141.9900 C   0  0  0  0  0  0  0  0  0  0  0  0
  179.3870  179.4700  143.0380 O   0  0  0  0  0  1  0  0  0  0  0  0
  185.7130  178.2710  143.0040 C   0  0  0  0  0  0  0  0  0  0  0  0
  180.7380  179.2400  142.8090 C   0  0  0  0  0  0  0  0  0  0  0  0
  182.9640  178.7680  143.7110 C   0  0  0  0  0  0  0  0  0  0  0  0
  181.2500  179.2400  141.4840 C   0  0  0  0  0  0  0  0  0  0  0  0
  190.4270  177.0380  146.6480 C   0  0  0  0  0  1  0  0  0  0  0  0
  185.8970  178.4220  139.7870 C   0  0  0  0  0  1  0  0  0  0  0  0
  183.0670  179.0090  138.7800 C   0  0  0  0  0  2  0  0  0  0  0  0
  182.2310  176.6290  137.9070 C   0  0  0  0  0  0  0  0  0  0  0  0
  182.6100  177.7040  138.3000 C   0  0  0  0  0  0  0  0  0  0  0  0
  180.8940  174.6620  138.1470 C   0  0  0  0  0  2  0  0  0  0  0  0
  181.7790  175.3490  137.4420 C   0  0  0  0  0  3  0  0  0  0  0  0
  2 13  1  6  0  0  0
  2 21  1  0  0  0  0
  3 22  1  0  0  0  0
  5  7  1  0  0  0  0
  5 13  2  0  0  0  0
  6 16  1  0  0  0  0
  7 17  1  0  0  0  0
  9  1  1  0  0  0  0
 10 19  1  0  0  0  0
 10 14  1  0  0  0  0
 11 10  2  0  0  0  0
 12  8  2  0  0  0  0
 12 15  1  0  0  0  0
 13 22  1  0  0  0  0
 14  6  2  0  0  0  0
 14 15  1  0  0  0  0
 15  9  2  0  0  0  0
 16 23  1  0  0  0  0
 16  1  2  0  0  0  0
 17  2  1  0  0  0  0
 17 19  2  0  0  0  0
 19 12  1  0  0  0  0
 20 18  1  0  0  0  0
 20  4  1  0  0  0  0
 21  4  2  0  0  0  0
 21  8  1  0  0  0  0
 22 20  2  0  0  0  0
 24  7  1  0  0  0  0
 25  5  1  0  0  0  0
 26 27  3  0  0  0  0
 27 25  1  0  0  0  0
 29 26  1  0  0  0  0
 29 28  2  0  0  0  0
M  END
>  <MODEL>
5

>  <REMARK>
 VINA RESULT:      -9.5      1.099      1.393
  Name = 
  3 active torsions:
  status: ('A' for Active; 'I' for Inactive)
    1  A    between atoms: C_5  and  C_8
    2  A    between atoms: C_8  and  C_20
    3  A    between atoms: C_12  and  C_28
                            x       y       z     vdW  Elec       q    Type
                         _______ _______ _______ _____ _____    ______ ____

>  <TORSDO>
F 3

$$$$
=
 OpenBabel11042410053D

 29 33  0  0  1  0  0  0  0  0999 V2000
  189.6380  177.1280  147.0800 C   0  0  0  0  0  3  0  0  0  0  0  0
  189.0010  177.5380  140.5300 C   0  0  2  0  0  3  0  0  0  0  0  0
  189.3170  177.6360  136.7750 C   0  0  0  0  0  1  0  0  0  0  0  0
  191.2200  176.8600  140.0170 C   0  0  0  0  0  3  0  0  0  0  0  0
  187.3590  178.1530  139.2180 C   0  0  0  0  0  0  0  0  0  0  0  0
  187.4100  177.8820  146.4090 C   0  0  0  0  0  3  0  0  0  0  0  0
  186.9090  178.2530  140.5020 N   0  0  0  0  0  0  0  0  0  0  0  0
  190.4720  176.9920  142.4840 C   0  0  0  0  0  3  0  0  0  0  0  0
  190.0370  177.0390  145.7350 C   0  0  0  0  0  3  0  0  0  0  0  0
  187.1190  178.0570  143.8470 C   0  0  0  0  0  0  0  0  0  0  0  0
  185.9270  178.4470  143.7420 O   0  0  0  0  0  0  0  0  0  0  0  0
  189.2360  177.3780  143.2980 C   0  0  0  0  0  0  0  0  0  0  0  0
  188.6810  177.7100  139.2200 C   0  0  0  0  0  0  0  0  0  0  0  0
  187.8300  177.7850  145.0850 C   0  0  0  0  0  0  0  0  0  0  0  0
  189.1050  177.3770  144.7540 C   0  0  0  0  0  0  0  0  0  0  0  0
  188.3330  177.5470  147.4150 C   0  0  0  0  0  0  0  0  0  0  0  0
  187.9330  177.8660  141.2990 C   0  0  0  0  0  0  0  0  0  0  0  0
  191.9070  176.7530  137.6970 O   0  0  0  0  0  1  0  0  0  0  0  0
  188.0670  177.7790  142.7620 C   0  0  0  0  0  0  0  0  0  0  0  0
  190.9210  177.0220  138.6390 C   0  0  0  0  0  0  0  0  0  0  0  0
  190.2400  177.1240  140.9880 C   0  0  0  0  0  0  0  0  0  0  0  0
  189.6340  177.4570  138.2230 C   0  0  0  0  0  0  0  0  0  0  0  0
  187.9310  177.6340  148.8440 C   0  0  0  0  0  1  0  0  0  0  0  0
  185.5930  178.7130  140.9140 C   0  0  0  0  0  1  0  0  0  0  0  0
  186.5630  178.5480  138.0150 C   0  0  0  0  0  2  0  0  0  0  0  0
  185.0770  176.4860  137.1970 C   0  0  0  0  0  0  0  0  0  0  0  0
  185.7490  177.4180  137.5650 C   0  0  0  0  0  0  0  0  0  0  0  0
  184.1730  174.2980  137.5220 C   0  0  0  0  0  2  0  0  0  0  0  0
  184.2790  175.3760  136.7620 C   0  0  0  0  0  3  0  0  0  0  0  0
  1 16  1  0  0  0  0
  2 13  1  1  0  0  0
  2 21  1  0  0  0  0
  2 17  1  0  0  0  0
  3 22  1  0  0  0  0
  4 21  2  0  0  0  0
  5 13  2  0  0  0  0
  5  7  1  0  0  0  0
  6 16  2  0  0  0  0
  7 24  1  0  0  0  0
  7 17  1  0  0  0  0
  8 12  2  0  0  0  0
  9  1  2  0  0  0  0
 10 14  1  0  0  0  0
 11 10  2  0  0  0  0
 12 15  1  0  0  0  0
 14  6  1  0  0  0  0
 15 14  2  0  0  0  0
 15  9  1  0  0  0  0
 16 23  1  0  0  0  0
 17 19  2  0  0  0  0
 18 20  1  0  0  0  0
 19 12  1  0  0  0  0
 19 10  1  0  0  0  0
 20  4  1  0  0  0  0
 21  8  1  0  0  0  0
 22 20  2  0  0  0  0
 22 13  1  0  0  0  0
 25  5  1  0  0  0  0
 26 27  3  0  0  0  0
 27 25  1  0  0  0  0
 29 26  1  0  0  0  0
 29 28  2  0  0  0  0
M  END
>  <MODEL>
6

>  <REMARK>
 VINA RESULT:      -9.2      2.370      5.125
  Name = 
  3 active torsions:
  status: ('A' for Active; 'I' for Inactive)
    1  A    between atoms: C_5  and  C_8
    2  A    between atoms: C_8  and  C_20
    3  A    between atoms: C_12  and  C_28
                            x       y       z     vdW  Elec       q    Type
                         _______ _______ _______ _____ _____    ______ ____

>  <TORSDO>
F 3

$$$$
=
 OpenBabel11042410053D

 29 33  0  0  1  0  0  0  0  0999 V2000
  186.5480  178.2010  147.0620 C   0  0  0  0  0  3  0  0  0  0  0  0
  187.2140  178.0940  140.5040 C   0  0  2  0  0  3  0  0  0  0  0  0
  186.9040  178.0950  136.7470 C   0  0  0  0  0  1  0  0  0  0  0  0
  184.9330  178.5420  140.0110 C   0  0  0  0  0  3  0  0  0  0  0  0
  188.9120  177.7110  139.1740 C   0  0  0  0  0  0  0  0  0  0  0  0
  188.8440  177.7210  146.3700 C   0  0  0  0  0  3  0  0  0  0  0  0
  189.3720  177.6160  140.4550 N   0  0  0  0  0  0  0  0  0  0  0  0
  185.6960  178.4060  142.4730 C   0  0  0  0  0  3  0  0  0  0  0  0
  186.1390  178.2930  145.7210 C   0  0  0  0  0  3  0  0  0  0  0  0
  189.1480  177.6690  143.8040 C   0  0  0  0  0  0  0  0  0  0  0  0
  190.3750  177.4170  143.6880 O   0  0  0  0  0  0  0  0  0  0  0  0
  186.9680  178.1300  143.2750 C   0  0  0  0  0  0  0  0  0  0  0  0
  187.5480  178.0060  139.1890 C   0  0  0  0  0  0  0  0  0  0  0  0
  188.4140  177.8170  145.0490 C   0  0  0  0  0  0  0  0  0  0  0  0
  187.1010  178.0950  144.7300 C   0  0  0  0  0  0  0  0  0  0  0  0
  187.8920  177.9170  147.3860 C   0  0  0  0  0  0  0  0  0  0  0  0
  188.3130  177.8600  141.2630 C   0  0  0  0  0  0  0  0  0  0  0  0
  184.2340  178.6550  137.6940 O   0  0  0  0  0  1  0  0  0  0  0  0
  188.1730  177.8790  142.7280 C   0  0  0  0  0  0  0  0  0  0  0  0
  185.2450  178.4630  138.6280 C   0  0  0  0  0  0  0  0  0  0  0  0
  185.9380  178.3540  140.9730 C   0  0  0  0  0  0  0  0  0  0  0  0
  186.5720  178.1870  138.2000 C   0  0  0  0  0  0  0  0  0  0  0  0
  188.3040  177.8240  148.8110 C   0  0  0  0  0  1  0  0  0  0  0  0
  190.7310  177.2900  140.8530 C   0  0  0  0  0  1  0  0  0  0  0  0
  189.7440  177.4490  137.9600 C   0  0  0  0  0  2  0  0  0  0  0  0
  189.4250  174.9180  137.1720 C   0  0  0  0  0  0  0  0  0  0  0  0
  189.5710  176.0610  137.5290 C   0  0  0  0  0  0  0  0  0  0  0  0
  188.1550  172.8950  137.0870 C   0  0  0  0  0  2  0  0  0  0  0  0
  189.2490  173.5580  136.7470 C   0  0  0  0  0  3  0  0  0  0  0  0
  1 16  1  0  0  0  0
  2 13  1  6  0  0  0
  2 21  1  0  0  0  0
  2 17  1  0  0  0  0
  3 22  1  0  0  0  0
  4 21  2  0  0  0  0
  5 13  2  0  0  0  0
  5  7  1  0  0  0  0
  6 16  2  0  0  0  0
  7 24  1  0  0  0  0
  7 17  1  0  0  0  0
  8 12  2  0  0  0  0
  9  1  2  0  0  0  0
 10 14  1  0  0  0  0
 11 10  2  0  0  0  0
 12 15  1  0  0  0  0
 14  6  1  0  0  0  0
 15 14  2  0  0  0  0
 15  9  1  0  0  0  0
 16 23  1  0  0  0  0
 17 19  2  0  0  0  0
 18 20  1  0  0  0  0
 19 12  1  0  0  0  0
 19 10  1  0  0  0  0
 20  4  1  0  0  0  0
 21  8  1  0  0  0  0
 22 20  2  0  0  0  0
 22 13  1  0  0  0  0
 25  5  1  0  0  0  0
 26 27  3  0  0  0  0
 27 25  1  0  0  0  0
 29 28  2  0  0  0  0
 29 26  1  0  0  0  0
M  END
>  <MODEL>
7

>  <REMARK>
 VINA RESULT:      -9.0      2.773      4.163
  Name = 
  3 active torsions:
  status: ('A' for Active; 'I' for Inactive)
    1  A    between atoms: C_5  and  C_8
    2  A    between atoms: C_8  and  C_20
    3  A    between atoms: C_12  and  C_28
                            x       y       z     vdW  Elec       q    Type
                         _______ _______ _______ _____ _____    ______ ____

>  <TORSDO>
F 3

$$$$
=
 OpenBabel11042410053D

 29 33  0  0  1  0  0  0  0  0999 V2000
  186.2610  178.0590  147.6230 C   0  0  0  0  0  3  0  0  0  0  0  0
  184.1790  178.7000  141.4000 C   0  0  2  0  0  3  0  0  0  0  0  0
  182.3540  179.0600  138.1230 C   0  0  0  0  0  1  0  0  0  0  0  0
  181.8770  178.9650  141.9300 C   0  0  0  0  0  3  0  0  0  0  0  0
  185.1980  178.6290  139.4630 C   0  0  0  0  0  0  0  0  0  0  0  0
  188.0910  177.8870  146.0100 C   0  0  0  0  0  3  0  0  0  0  0  0
  186.1470  178.4490  140.4260 N   0  0  0  0  0  0  0  0  0  0  0  0
  183.5900  178.6520  143.8360 C   0  0  0  0  0  3  0  0  0  0  0  0
  185.3330  178.2470  146.5850 C   0  0  0  0  0  3  0  0  0  0  0  0
  187.3160  178.1320  143.5570 C   0  0  0  0  0  0  0  0  0  0  0  0
  188.3980  178.0180  142.9250 O   0  0  0  0  0  0  0  0  0  0  0  0
  185.0910  178.4230  144.0150 C   0  0  0  0  0  0  0  0  0  0  0  0
  183.9480  178.7830  140.0630 C   0  0  0  0  0  0  0  0  0  0  0  0
  187.1520  178.0760  144.9990 C   0  0  0  0  0  0  0  0  0  0  0  0
  185.8110  178.2510  145.2750 C   0  0  0  0  0  0  0  0  0  0  0  0
  187.6320  177.8790  147.3390 C   0  0  0  0  0  0  0  0  0  0  0  0
  185.5030  178.5000  141.6160 C   0  0  0  0  0  0  0  0  0  0  0  0
  180.2840  179.2460  140.1280 O   0  0  0  0  0  1  0  0  0  0  0  0
  185.9770  178.3530  143.0020 C   0  0  0  0  0  0  0  0  0  0  0  0
  181.5980  179.0610  140.5410 C   0  0  0  0  0  0  0  0  0  0  0  0
  183.1970  178.7800  142.3730 C   0  0  0  0  0  0  0  0  0  0  0  0
  182.6440  178.9660  139.5840 C   0  0  0  0  0  0  0  0  0  0  0  0
  188.5960  177.6810  148.4520 C   0  0  0  0  0  1  0  0  0  0  0  0
  187.5640  178.2220  140.1970 C   0  0  0  0  0  1  0  0  0  0  0  0
  185.4700  178.5800  137.9940 C   0  0  0  0  0  2  0  0  0  0  0  0
  185.5150  176.0430  137.1610 C   0  0  0  0  0  0  0  0  0  0  0  0
  185.4950  177.1890  137.5390 C   0  0  0  0  0  0  0  0  0  0  0  0
  184.7230  173.7900  137.2520 C   0  0  0  0  0  2  0  0  0  0  0  0
  185.5370  174.6820  136.7090 C   0  0  0  0  0  3  0  0  0  0  0  0
  2 13  1  6  0  0  0
  2 17  1  0  0  0  0
  2 21  1  0  0  0  0
  3 22  1  0  0  0  0
  4 21  2  0  0  0  0
  5 13  2  0  0  0  0
  5  7  1  0  0  0  0
  6 16  2  0  0  0  0
  7 17  1  0  0  0  0
  8 12  2  0  0  0  0
  9  1  2  0  0  0  0
 10 14  1  0  0  0  0
 11 10  2  0  0  0  0
 12 15  1  0  0  0  0
 14 15  2  0  0  0  0
 14  6  1  0  0  0  0
 15  9  1  0  0  0  0
 16  1  1  0  0  0  0
 16 23  1  0  0  0  0
 17 19  2  0  0  0  0
 18 20  1  0  0  0  0
 19 10  1  0  0  0  0
 19 12  1  0  0  0  0
 20  4  1  0  0  0  0
 21  8  1  0  0  0  0
 22 13  1  0  0  0  0
 22 20  2  0  0  0  0
 24  7  1  0  0  0  0
 25  5  1  0  0  0  0
 26 27  3  0  0  0  0
 27 25  1  0  0  0  0
 29 26  1  0  0  0  0
 29 28  2  0  0  0  0
M  END
>  <MODEL>
8

>  <REMARK>
 VINA RESULT:      -8.9      1.423      2.053
  Name = 
  3 active torsions:
  status: ('A' for Active; 'I' for Inactive)
    1  A    between atoms: C_5  and  C_8
    2  A    between atoms: C_8  and  C_20
    3  A    between atoms: C_12  and  C_28
                            x       y       z     vdW  Elec       q    Type
                         _______ _______ _______ _____ _____    ______ ____

>  <TORSDO>
F 3

$$$$
=
 OpenBabel11042410053D

 29 33  0  0  0  0  0  0  0  0999 V2000
  188.3310  177.6580  137.3580 C   0  0  0  0  0  3  0  0  0  0  0  0
  187.0750  178.1120  143.8140 C   0  0  0  0  0  0  0  0  0  0  0  0
  185.7370  178.6060  147.3030 C   0  0  0  0  0  1  0  0  0  0  0  0
  184.7880  178.7130  143.5850 C   0  0  0  0  0  3  0  0  0  0  0  0
  188.3150  177.8740  145.6040 C   0  0  0  0  0  0  0  0  0  0  0  0
  190.3060  177.1940  138.7220 C   0  0  0  0  0  3  0  0  0  0  0  0
  189.1160  177.6430  144.5240 N   0  0  0  0  0  0  0  0  0  0  0  0
  186.2020  178.2760  141.4710 C   0  0  0  0  0  2  0  0  0  0  0  0
  187.5580  177.8770  138.5110 C   0  0  0  0  0  3  0  0  0  0  0  0
  189.8560  177.3630  141.2620 C   0  0  0  0  0  0  0  0  0  0  0  0
  190.9840  177.0860  141.7490 O   0  0  0  0  0  0  0  0  0  0  0  0
  187.6400  177.9140  141.0970 C   0  0  0  0  0  0  0  0  0  0  0  0
  187.0250  178.1790  145.1710 C   0  0  0  0  0  0  0  0  0  0  0  0
  189.5200  177.4160  139.8500 C   0  0  0  0  0  0  0  0  0  0  0  0
  188.1840  177.7480  139.7500 C   0  0  0  0  0  0  0  0  0  0  0  0
  189.6970  177.3190  137.4620 C   0  0  0  0  0  0  0  0  0  0  0  0
  188.3340  177.7880  143.4280 C   0  0  0  0  0  0  0  0  0  0  0  0
  183.4790  179.1300  145.5810 O   0  0  0  0  0  1  0  0  0  0  0  0
  188.6250  177.6870  141.9880 C   0  0  0  0  0  0  0  0  0  0  0  0
  184.6950  178.7880  145.0000 C   0  0  0  0  0  0  0  0  0  0  0  0
  186.0050  178.3680  142.9750 C   0  0  0  0  0  0  0  0  0  0  0  0
  185.8280  178.5220  145.8160 C   0  0  0  0  0  0  0  0  0  0  0  0
  190.4960  177.0910  136.2300 C   0  0  0  0  0  1  0  0  0  0  0  0
  190.5340  177.3280  144.5630 C   0  0  0  0  0  1  0  0  0  0  0  0
  188.7950  177.8800  147.0200 C   0  0  0  0  0  2  0  0  0  0  0  0
  190.9490  176.3210  147.2580 C   0  0  0  0  0  0  0  0  0  0  0  0
  189.9750  177.0240  147.1500 C   0  0  0  0  0  0  0  0  0  0  0  0
  192.9630  175.6890  148.3800 C   0  0  0  0  0  2  0  0  0  0  0  0
  192.1100  175.4880  147.3880 C   0  0  0  0  0  3  0  0  0  0  0  0
  1 16  2  0  0  0  0
  1  9  1  0  0  0  0
  2 13  1  0  0  0  0
  4 20  1  0  0  0  0
  5 25  1  0  0  0  0
  6 14  2  0  0  0  0
  7 24  1  0  0  0  0
  7  5  1  0  0  0  0
  8 21  1  0  0  0  0
  9 15  2  0  0  0  0
 10 11  2  0  0  0  0
 10 19  1  0  0  0  0
 12  8  1  0  0  0  0
 12 19  2  0  0  0  0
 13  5  2  0  0  0  0
 13 22  1  0  0  0  0
 14 10  1  0  0  0  0
 15 14  1  0  0  0  0
 15 12  1  0  0  0  0
 16  6  1  0  0  0  0
 17  2  2  0  0  0  0
 17  7  1  0  0  0  0
 19 17  1  0  0  0  0
 20 18  1  0  0  0  0
 20 22  2  0  0  0  0
 21  4  2  0  0  0  0
 21  2  1  0  0  0  0
 22  3  1  0  0  0  0
 23 16  1  0  0  0  0
 25 27  1  0  0  0  0
 26 29  1  0  0  0  0
 27 26  3  0  0  0  0
 29 28  2  0  0  0  0
M  END
>  <MODEL>
9

>  <REMARK>
 VINA RESULT:      -8.8      2.566      7.183
  Name = 
  3 active torsions:
  status: ('A' for Active; 'I' for Inactive)
    1  A    between atoms: C_5  and  C_8
    2  A    between atoms: C_8  and  C_20
    3  A    between atoms: C_12  and  C_28
                            x       y       z     vdW  Elec       q    Type
                         _______ _______ _______ _____ _____    ______ ____

>  <TORSDO>
F 3

$$$$
