=
 OpenBabel11032420583D

 39 43  0  0  1  0  0  0  0  0999 V2000
  180.9860  179.0330  143.9580 C   0  0  0  0  0  3  0  0  0  0  0  0
  181.7490  178.8040  141.6190 C   0  0  0  0  0  3  0  0  0  0  0  0
  182.3810  178.8140  144.5120 C   0  0  0  0  0  2  0  0  0  0  0  0
  184.2020  178.3320  141.2500 C   0  0  0  0  0  0  0  0  0  0  0  0
  185.2120  178.1710  142.1070 C   0  0  0  0  0  3  0  0  0  0  0  0
  182.9990  178.5910  142.0220 C   0  0  0  0  0  0  0  0  0  0  0  0
  180.7040  179.0300  142.6410 C   0  0  0  0  0  3  0  0  0  0  0  0
  183.3780  178.5730  143.4120 C   0  0  0  0  0  0  0  0  0  0  0  0
  184.6870  178.3270  143.4820 C   0  0  0  0  0  0  0  0  0  0  0  0
  186.5840  177.3180  144.7490 C   0  0  0  0  0  3  0  0  0  0  0  0
  187.3810  177.2090  145.8920 C   0  0  0  0  0  3  0  0  0  0  0  0
  185.5160  178.2270  144.7060 C   0  0  0  0  0  0  0  0  0  0  0  0
  187.1220  178.0160  147.0040 C   0  0  0  0  0  0  0  0  0  0  0  0
  186.0570  178.9210  146.9740 C   0  0  0  0  0  3  0  0  0  0  0  0
  185.2600  179.0250  145.8310 C   0  0  0  0  0  3  0  0  0  0  0  0
  187.9610  177.8960  148.2270 C   0  0  0  0  0  2  0  0  0  0  0  0
  189.3280  178.2890  147.9280 N   0  0  0  0  0  2  0  0  0  0  0  0
  190.0220  177.0870  147.4950 C   0  0  0  0  0  2  0  0  0  0  0  0
  191.1170  177.4230  146.4870 C   0  0  1  0  0  3  0  0  0  0  0  0
  192.1030  176.4330  146.5190 O   0  0  0  0  0  1  0  0  0  0  0  0
  190.4900  176.2190  144.3670 C   0  0  0  0  0  3  0  0  0  0  0  0
  190.5560  177.5830  145.0710 C   0  0  2  0  0  3  0  0  0  0  0  0
  191.8520  179.4940  144.3310 O   0  0  0  0  0  0  0  0  0  0  0  0
  191.5100  178.2890  144.2060 C   0  0  0  0  0  0  0  0  0  0  0  0
  191.4420  176.2070  143.2420 N   0  0  0  0  0  0  0  0  0  0  0  0
  191.9760  177.4760  143.2080 O   0  0  0  0  0  0  0  0  0  0  0  0
  184.1320  177.6950  137.5890 C   0  0  0  0  0  0  0  0  0  0  0  0
  184.3100  178.2560  139.7840 C   0  0  0  0  0  0  0  0  0  0  0  0
  183.6970  177.2790  138.9040 C   0  0  0  0  0  0  0  0  0  0  0  0
  184.8890  178.7380  137.7080 N   0  0  0  0  0  0  0  0  0  0  0  0
  184.9950  179.0890  139.0670 N   0  0  0  0  0  0  0  0  0  0  0  0
  182.9610  176.3020  139.2070 O   0  0  0  0  0  0  0  0  0  0  0  0
  183.8390  177.0290  136.2860 C   0  0  0  0  0  2  0  0  0  0  0  0
  183.8480  174.6030  136.2030 C   0  0  0  0  0  3  0  0  0  0  0  0
  184.5750  175.7300  136.1620 C   0  0  0  0  0  0  0  0  0  0  0  0
  183.7540  172.1700  136.8120 C   0  0  0  0  0  1  0  0  0  0  0  0
  184.3210  173.2810  136.1310 O   0  0  0  0  0  0  0  0  0  0  0  0
  186.0390  175.7280  135.9920 C   0  0  0  0  0  3  0  0  0  0  0  0
  186.8740  175.3400  136.9500 C   0  0  0  0  0  2  0  0  0  0  0  0
  1  3  1  0  0  0  0
  2  6  2  0  0  0  0
  2  7  1  0  0  0  0
  4  6  1  0  0  0  0
  4  5  2  0  0  0  0
  5  9  1  0  0  0  0
  6  8  1  0  0  0  0
  7  1  2  0  0  0  0
  8  9  2  0  0  0  0
  8  3  1  0  0  0  0
  9 12  1  0  0  0  0
 10 11  1  0  0  0  0
 11 13  2  0  0  0  0
 12 10  2  0  0  0  0
 12 15  1  0  0  0  0
 13 16  1  0  0  0  0
 14 13  1  0  0  0  0
 15 14  2  0  0  0  0
 17 16  1  0  0  0  0
 18 17  1  0  0  0  0
 19 20  1  6  0  0  0
 19 18  1  0  0  0  0
 21 22  1  0  0  0  0
 22 19  1  1  0  0  0
 24 23  2  0  0  0  0
 24 22  1  0  0  0  0
 25 21  2  0  0  0  0
 26 25  1  0  0  0  0
 26 24  1  0  0  0  0
 27 30  2  0  0  0  0
 27 29  1  0  0  0  0
 28  4  1  0  0  0  0
 29 32  2  0  0  0  0
 29 28  1  0  0  0  0
 30 31  1  0  0  0  0
 31 28  2  0  0  0  0
 33 27  1  0  0  0  0
 35 34  2  0  0  0  0
 35 33  1  0  0  0  0
 37 34  1  0  0  0  0
 37 36  1  0  0  0  0
 38 35  1  0  0  0  0
 38 39  2  0  0  0  0
M  END
>  <MODEL>
1

>  <REMARK>
 VINA RESULT:      -8.6      0.000      0.000
  Name = 
  11 active torsions:
  status: ('A' for Active; 'I' for Inactive)
    1  A    between atoms: C_2  and  C_4
    2  A    between atoms: C_2  and  C_35
    3  A    between atoms: C_5  and  C_22
    4  A    between atoms: C_10  and  C_35
    5  A    between atoms: C_11  and  O_30
    6  A    between atoms: C_12  and  C_22
    7  A    between atoms: C_12  and  N_39
    8  A    between atoms: C_13  and  C_38
    9  A    between atoms: C_15  and  C_23
   10  A    between atoms: C_16  and  C_25
   11  A    between atoms: C_23  and  N_39
                            x       y       z     vdW  Elec       q    Type
                         _______ _______ _______ _____ _____    ______ ____

>  <TORSDO>
F 11

$$$$
=
 OpenBabel11032420583D

 39 43  0  0  1  0  0  0  0  0999 V2000
  189.5910  177.5290  137.7200 C   0  0  0  0  0  3  0  0  0  0  0  0
  187.2250  178.2400  137.7440 C   0  0  0  0  0  3  0  0  0  0  0  0
  189.6720  177.4890  139.2350 C   0  0  0  0  0  2  0  0  0  0  0  0
  186.1470  178.5730  140.0040 C   0  0  0  0  0  0  0  0  0  0  0  0
  186.6240  178.4370  141.2410 C   0  0  0  0  0  3  0  0  0  0  0  0
  187.2150  178.2430  139.0740 C   0  0  0  0  0  0  0  0  0  0  0  0
  188.4760  177.8690  137.0470 C   0  0  0  0  0  3  0  0  0  0  0  0
  188.3680  177.8970  139.8640 C   0  0  0  0  0  0  0  0  0  0  0  0
  188.0380  178.0050  141.1530 C   0  0  0  0  0  0  0  0  0  0  0  0
  189.4930  178.8130  143.0090 C   0  0  0  0  0  3  0  0  0  0  0  0
  190.3100  178.5850  144.1210 C   0  0  0  0  0  3  0  0  0  0  0  0
  188.9030  177.7390  142.3250 C   0  0  0  0  0  0  0  0  0  0  0  0
  190.5390  177.2790  144.5650 C   0  0  0  0  0  0  0  0  0  0  0  0
  189.9600  176.2030  143.8880 C   0  0  0  0  0  3  0  0  0  0  0  0
  189.1460  176.4330  142.7750 C   0  0  0  0  0  3  0  0  0  0  0  0
  191.4170  177.0320  145.7400 C   0  0  0  0  0  2  0  0  0  0  0  0
  190.6530  176.3990  146.8020 N   0  0  0  0  0  2  0  0  0  0  0  0
  189.9040  177.4560  147.4630 C   0  0  0  0  0  2  0  0  0  0  0  0
  188.4060  177.1660  147.4280 C   0  0  1  0  0  3  0  0  0  0  0  0
  187.9090  177.1090  148.7340 O   0  0  0  0  0  1  0  0  0  0  0  0
  186.8180  179.1170  147.5280 C   0  0  0  0  0  3  0  0  0  0  0  0
  187.6440  178.2080  146.6040 C   0  0  2  0  0  3  0  0  0  0  0  0
  186.7530  176.7790  144.8600 O   0  0  0  0  0  0  0  0  0  0  0  0
  186.5770  177.5770  145.8190 C   0  0  0  0  0  0  0  0  0  0  0  0
  185.3840  178.8860  147.2780 N   0  0  0  0  0  0  0  0  0  0  0  0
  185.3400  177.9850  146.2380 O   0  0  0  0  0  0  0  0  0  0  0  0
  182.5260  179.1250  139.3740 C   0  0  0  0  0  0  0  0  0  0  0  0
  184.7760  178.9840  139.6610 C   0  0  0  0  0  0  0  0  0  0  0  0
  183.5490  178.2460  139.8970 C   0  0  0  0  0  0  0  0  0  0  0  0
  183.0890  180.1890  138.9010 N   0  0  0  0  0  0  0  0  0  0  0  0
  184.4810  180.1050  139.0840 N   0  0  0  0  0  0  0  0  0  0  0  0
  183.4040  177.1130  140.4280 O   0  0  0  0  0  0  0  0  0  0  0  0
  181.0580  178.8650  139.3080 C   0  0  0  0  0  2  0  0  0  0  0  0
  180.1780  178.4870  141.5400 C   0  0  0  0  0  3  0  0  0  0  0  0
  180.3630  179.3620  140.5400 C   0  0  0  0  0  0  0  0  0  0  0  0
  180.0340  178.3280  144.0400 C   0  0  0  0  0  1  0  0  0  0  0  0
  179.5360  178.7190  142.7680 O   0  0  0  0  0  0  0  0  0  0  0  0
  179.9240  180.7670  140.6200 C   0  0  0  0  0  3  0  0  0  0  0  0
  179.4070  181.4190  139.5840 C   0  0  0  0  0  2  0  0  0  0  0  0
  1  3  1  0  0  0  0
  2  6  2  0  0  0  0
  3  8  1  0  0  0  0
  4  5  2  0  0  0  0
  6  8  1  0  0  0  0
  6  4  1  0  0  0  0
  7  1  2  0  0  0  0
  7  2  1  0  0  0  0
  8  9  2  0  0  0  0
  9  5  1  0  0  0  0
  9 12  1  0  0  0  0
 10 11  1  0  0  0  0
 11 13  2  0  0  0  0
 12 15  1  0  0  0  0
 12 10  2  0  0  0  0
 13 16  1  0  0  0  0
 14 13  1  0  0  0  0
 15 14  2  0  0  0  0
 16 17  1  0  0  0  0
 17 18  1  0  0  0  0
 19 18  1  0  0  0  0
 19 20  1  1  0  0  0
 22 19  1  1  0  0  0
 22 21  1  0  0  0  0
 23 24  2  0  0  0  0
 24 26  1  0  0  0  0
 24 22  1  0  0  0  0
 25 21  2  0  0  0  0
 26 25  1  0  0  0  0
 27 29  1  0  0  0  0
 28 29  1  0  0  0  0
 28  4  1  0  0  0  0
 29 32  2  0  0  0  0
 30 31  1  0  0  0  0
 30 27  2  0  0  0  0
 31 28  2  0  0  0  0
 33 27  1  0  0  0  0
 33 35  1  0  0  0  0
 34 37  1  0  0  0  0
 35 38  1  0  0  0  0
 35 34  2  0  0  0  0
 37 36  1  0  0  0  0
 39 38  2  0  0  0  0
M  END
>  <MODEL>
2

>  <REMARK>
 VINA RESULT:      -8.6      2.942      5.904
  Name = 
  11 active torsions:
  status: ('A' for Active; 'I' for Inactive)
    1  A    between atoms: C_2  and  C_4
    2  A    between atoms: C_2  and  C_35
    3  A    between atoms: C_5  and  C_22
    4  A    between atoms: C_10  and  C_35
    5  A    between atoms: C_11  and  O_30
    6  A    between atoms: C_12  and  C_22
    7  A    between atoms: C_12  and  N_39
    8  A    between atoms: C_13  and  C_38
    9  A    between atoms: C_15  and  C_23
   10  A    between atoms: C_16  and  C_25
   11  A    between atoms: C_23  and  N_39
                            x       y       z     vdW  Elec       q    Type
                         _______ _______ _______ _____ _____    ______ ____

>  <TORSDO>
F 11

$$$$
=
 OpenBabel11032420583D

 39 43  0  0  1  0  0  0  0  0999 V2000
  190.2160  176.9630  146.4120 C   0  0  0  0  0  3  0  0  0  0  0  0
  191.2790  176.8710  144.1840 C   0  0  0  0  0  3  0  0  0  0  0  0
  188.8600  177.3190  145.8330 C   0  0  0  0  0  2  0  0  0  0  0  0
  189.8170  177.3820  142.1900 C   0  0  0  0  0  0  0  0  0  0  0  0
  188.5270  177.7100  142.0980 C   0  0  0  0  0  3  0  0  0  0  0  0
  190.1300  177.1920  143.5960 C   0  0  0  0  0  0  0  0  0  0  0  0
  191.3130  176.7580  145.6580 C   0  0  0  0  0  3  0  0  0  0  0  0
  188.9170  177.4320  144.3340 C   0  0  0  0  0  0  0  0  0  0  0  0
  187.9540  177.7400  143.4620 C   0  0  0  0  0  0  0  0  0  0  0  0
  185.6190  178.1930  142.7140 C   0  0  0  0  0  3  0  0  0  0  0  0
  184.2780  178.4870  142.9770 C   0  0  0  0  0  3  0  0  0  0  0  0
  186.5390  178.0540  143.7650 C   0  0  0  0  0  0  0  0  0  0  0  0
  183.8400  178.6370  144.2960 C   0  0  0  0  0  0  0  0  0  0  0  0
  184.7490  178.5060  145.3490 C   0  0  0  0  0  3  0  0  0  0  0  0
  186.0900  178.2160  145.0840 C   0  0  0  0  0  3  0  0  0  0  0  0
  182.4160  178.9610  144.5790 C   0  0  0  0  0  2  0  0  0  0  0  0
  181.7370  179.3220  143.3440 N   0  0  0  0  0  2  0  0  0  0  0  0
  180.5170  178.5320  143.2940 C   0  0  0  0  0  2  0  0  0  0  0  0
  180.2990  177.9530  141.8990 C   0  0  1  0  0  3  0  0  0  0  0  0
  178.9400  178.0060  141.5770 O   0  0  0  0  0  1  0  0  0  0  0  0
  180.2190  179.4530  139.8780 C   0  0  0  0  0  3  0  0  0  0  0  0
  181.1340  178.6840  140.8440 C   0  0  2  0  0  3  0  0  0  0  0  0
  182.6640  176.9070  140.2300 O   0  0  0  0  0  0  0  0  0  0  0  0
  181.7640  177.7310  139.9220 C   0  0  0  0  0  0  0  0  0  0  0  0
  180.3160  178.8500  138.5370 N   0  0  0  0  0  0  0  0  0  0  0  0
  181.2690  177.8630  138.6530 O   0  0  0  0  0  0  0  0  0  0  0  0
  191.6980  176.8740  139.0250 C   0  0  0  0  0  0  0  0  0  0  0  0
  190.7420  177.2430  141.0540 C   0  0  0  0  0  0  0  0  0  0  0  0
  190.4240  176.8100  139.7050 C   0  0  0  0  0  0  0  0  0  0  0  0
  192.6020  177.2660  139.8630 N   0  0  0  0  0  0  0  0  0  0  0  0
  192.0090  177.5010  141.1180 N   0  0  0  0  0  0  0  0  0  0  0  0
  189.3080  176.4610  139.2360 O   0  0  0  0  0  0  0  0  0  0  0  0
  191.9880  176.4980  137.6100 C   0  0  0  0  0  2  0  0  0  0  0  0
  193.8730  174.9710  137.7260 C   0  0  0  0  0  3  0  0  0  0  0  0
  192.5550  175.1130  137.5210 C   0  0  0  0  0  0  0  0  0  0  0  0
  195.4510  173.2850  138.7100 C   0  0  0  0  0  1  0  0  0  0  0  0
  194.6210  173.7830  137.6690 O   0  0  0  0  0  0  0  0  0  0  0  0
  191.6660  173.9730  137.2300 C   0  0  0  0  0  3  0  0  0  0  0  0
  190.4010  174.1250  136.8520 C   0  0  0  0  0  2  0  0  0  0  0  0
  2  7  1  0  0  0  0
  3  1  1  0  0  0  0
  4  6  1  0  0  0  0
  5  4  2  0  0  0  0
  5  9  1  0  0  0  0
  6  2  2  0  0  0  0
  6  8  1  0  0  0  0
  7  1  2  0  0  0  0
  8  3  1  0  0  0  0
  9 12  1  0  0  0  0
  9  8  2  0  0  0  0
 10 11  2  0  0  0  0
 10 12  1  0  0  0  0
 11 13  1  0  0  0  0
 12 15  2  0  0  0  0
 13 16  1  0  0  0  0
 13 14  2  0  0  0  0
 15 14  1  0  0  0  0
 17 16  1  0  0  0  0
 18 17  1  0  0  0  0
 19 20  1  6  0  0  0
 19 18  1  0  0  0  0
 21 22  1  0  0  0  0
 22 19  1  1  0  0  0
 24 23  2  0  0  0  0
 24 22  1  0  0  0  0
 25 26  1  0  0  0  0
 25 21  2  0  0  0  0
 26 24  1  0  0  0  0
 27 29  1  0  0  0  0
 27 30  2  0  0  0  0
 28 31  2  0  0  0  0
 28  4  1  0  0  0  0
 29 28  1  0  0  0  0
 30 31  1  0  0  0  0
 32 29  2  0  0  0  0
 33 27  1  0  0  0  0
 35 33  1  0  0  0  0
 35 34  2  0  0  0  0
 37 34  1  0  0  0  0
 37 36  1  0  0  0  0
 38 35  1  0  0  0  0
 39 38  2  0  0  0  0
M  END
>  <MODEL>
3

>  <REMARK>
 VINA RESULT:      -8.6      3.597      8.387
  Name = 
  11 active torsions:
  status: ('A' for Active; 'I' for Inactive)
    1  A    between atoms: C_2  and  C_4
    2  A    between atoms: C_2  and  C_35
    3  A    between atoms: C_5  and  C_22
    4  A    between atoms: C_10  and  C_35
    5  A    between atoms: C_11  and  O_30
    6  A    between atoms: C_12  and  C_22
    7  A    between atoms: C_12  and  N_39
    8  A    between atoms: C_13  and  C_38
    9  A    between atoms: C_15  and  C_23
   10  A    between atoms: C_16  and  C_25
   11  A    between atoms: C_23  and  N_39
                            x       y       z     vdW  Elec       q    Type
                         _______ _______ _______ _____ _____    ______ ____

>  <TORSDO>
F 11

$$$$
=
 OpenBabel11032420583D

 39 43  0  0  1  0  0  0  0  0999 V2000
  186.2490  178.1470  146.6370 C   0  0  0  0  0  3  0  0  0  0  0  0
  184.0780  178.6860  145.5870 C   0  0  0  0  0  3  0  0  0  0  0  0
  186.9390  177.9760  145.2970 C   0  0  0  0  0  3  0  0  0  0  0  0
  183.9880  178.6780  143.0640 C   0  0  0  0  0  0  0  0  0  0  0  0
  184.9210  178.4260  142.1450 C   0  0  0  0  0  3  0  0  0  0  0  0
  184.6030  178.5430  144.3730 C   0  0  2  0  0  3  0  0  0  0  0  0
  184.9480  178.4720  146.7640 C   0  0  0  0  0  3  0  0  0  0  0  0
  185.9830  178.1920  144.1560 C   0  0  0  0  0  0  0  0  0  0  0  0
  186.1910  178.1190  142.8400 C   0  0  0  0  0  0  0  0  0  0  0  0
  187.8220  178.5060  140.9940 C   0  0  0  0  0  3  0  0  0  0  0  0
  189.0190  178.2210  140.3290 C   0  0  0  0  0  3  0  0  0  0  0  0
  187.4620  177.7970  142.1500 C   0  0  0  0  0  0  0  0  0  0  0  0
  189.8720  177.2290  140.8200 C   0  0  0  0  0  0  0  0  0  0  0  0
  189.5200  176.5130  141.9680 C   0  0  0  0  0  3  0  0  0  0  0  0
  188.3220  176.7970  142.6290 C   0  0  0  0  0  3  0  0  0  0  0  0
  191.1410  176.9150  140.1090 C   0  0  0  0  0  2  0  0  0  0  0  0
  190.8800  175.9830  139.0230 N   0  0  0  0  0  2  0  0  0  0  0  0
  190.9490  176.7500  137.7900 C   0  0  0  0  0  2  0  0  0  0  0  0
  189.7560  176.4420  136.8900 C   0  0  1  0  0  3  0  0  0  0  0  0
  188.6970  175.9590  137.6630 O   0  0  0  0  0  1  0  0  0  0  0  0
  189.0410  178.8530  137.0230 C   0  0  0  0  0  3  0  0  0  0  0  0
  189.3220  177.6700  136.0830 C   0  0  2  0  0  3  0  0  0  0  0  0
  187.7130  176.6330  134.5950 O   0  0  0  0  0  0  0  0  0  0  0  0
  187.9920  177.4670  135.4960 C   0  0  0  0  0  0  0  0  0  0  0  0
  187.6040  179.1760  136.9790 N   0  0  0  0  0  0  0  0  0  0  0  0
  187.0730  178.3270  136.0330 O   0  0  0  0  0  0  0  0  0  0  0  0
  180.5010  179.2240  141.8990 C   0  0  0  0  0  0  0  0  0  0  0  0
  182.5870  179.0290  142.7790 C   0  0  0  0  0  0  0  0  0  0  0  0
  181.7740  178.5800  141.6640 C   0  0  0  0  0  0  0  0  0  0  0  0
  180.5850  179.9400  142.9730 N   0  0  0  0  0  0  0  0  0  0  0  0
  181.8750  179.8150  143.5210 N   0  0  0  0  0  0  0  0  0  0  0  0
  182.0960  177.8140  140.7170 O   0  0  0  0  0  0  0  0  0  0  0  0
  179.2820  179.1570  141.0410 C   0  0  0  0  0  2  0  0  0  0  0  0
  179.8310  181.1340  139.7410 C   0  0  0  0  0  3  0  0  0  0  0  0
  179.5080  179.8320  139.7220 C   0  0  0  0  0  0  0  0  0  0  0  0
  181.3430  182.3240  138.1300 C   0  0  0  0  0  1  0  0  0  0  0  0
  180.0630  181.9720  138.6370 O   0  0  0  0  0  0  0  0  0  0  0  0
  179.3850  179.0610  138.4710 C   0  0  0  0  0  3  0  0  0  0  0  0
  180.4350  178.7060  137.7380 C   0  0  0  0  0  2  0  0  0  0  0  0
  1  7  1  0  0  0  0
  2  7  2  0  0  0  0
  3  1  2  0  0  0  0
  4  6  1  0  0  0  0
  5  9  1  0  0  0  0
  5  4  2  0  0  0  0
  6  2  1  1  0  0  0
  8  6  1  0  0  0  0
  8  3  1  0  0  0  0
  9  8  2  0  0  0  0
 10 12  1  0  0  0  0
 11 13  1  0  0  0  0
 11 10  2  0  0  0  0
 12 15  2  0  0  0  0
 12  9  1  0  0  0  0
 13 14  2  0  0  0  0
 14 15  1  0  0  0  0
 16 13  1  0  0  0  0
 17 16  1  0  0  0  0
 18 17  1  0  0  0  0
 19 20  1  1  0  0  0
 19 18  1  0  0  0  0
 22 19  1  1  0  0  0
 22 21  1  0  0  0  0
 23 24  2  0  0  0  0
 24 26  1  0  0  0  0
 24 22  1  0  0  0  0
 25 21  2  0  0  0  0
 26 25  1  0  0  0  0
 27 30  2  0  0  0  0
 28  4  1  0  0  0  0
 28 31  2  0  0  0  0
 29 27  1  0  0  0  0
 29 28  1  0  0  0  0
 30 31  1  0  0  0  0
 32 29  2  0  0  0  0
 33 27  1  0  0  0  0
 35 34  2  0  0  0  0
 35 33  1  0  0  0  0
 36 37  1  0  0  0  0
 37 34  1  0  0  0  0
 38 35  1  0  0  0  0
 39 38  2  0  0  0  0
M  END
>  <MODEL>
4

>  <REMARK>
 VINA RESULT:      -8.6      3.880      6.966
  Name = 
  11 active torsions:
  status: ('A' for Active; 'I' for Inactive)
    1  A    between atoms: C_2  and  C_4
    2  A    between atoms: C_2  and  C_35
    3  A    between atoms: C_5  and  C_22
    4  A    between atoms: C_10  and  C_35
    5  A    between atoms: C_11  and  O_30
    6  A    between atoms: C_12  and  C_22
    7  A    between atoms: C_12  and  N_39
    8  A    between atoms: C_13  and  C_38
    9  A    between atoms: C_15  and  C_23
   10  A    between atoms: C_16  and  C_25
   11  A    between atoms: C_23  and  N_39
                            x       y       z     vdW  Elec       q    Type
                         _______ _______ _______ _____ _____    ______ ____

>  <TORSDO>
F 11

$$$$
=
 OpenBabel11032420583D

 39 43  0  0  1  0  0  0  0  0999 V2000
  189.6280  177.5170  137.7930 C   0  0  0  0  0  3  0  0  0  0  0  0
  187.2710  178.2540  137.8360 C   0  0  0  0  0  3  0  0  0  0  0  0
  189.7270  177.4940  139.3060 C   0  0  0  0  0  2  0  0  0  0  0  0
  186.2230  178.6250  140.1040 C   0  0  0  0  0  0  0  0  0  0  0  0
  186.7140  178.4990  141.3370 C   0  0  0  0  0  3  0  0  0  0  0  0
  187.2760  178.2720  139.1660 C   0  0  0  0  0  0  0  0  0  0  0  0
  188.5090  177.8610  137.1280 C   0  0  0  0  0  3  0  0  0  0  0  0
  188.4350  177.9230  139.9460 C   0  0  0  0  0  0  0  0  0  0  0  0
  188.1210  178.0500  141.2370 C   0  0  0  0  0  0  0  0  0  0  0  0
  189.1750  176.4730  142.8550 C   0  0  0  0  0  3  0  0  0  0  0  0
  190.0000  176.2030  143.9510 C   0  0  0  0  0  3  0  0  0  0  0  0
  188.9970  177.7890  142.4030 C   0  0  0  0  0  0  0  0  0  0  0  0
  190.6620  177.2480  144.6020 C   0  0  0  0  0  0  0  0  0  0  0  0
  190.4870  178.5630  144.1630 C   0  0  0  0  0  3  0  0  0  0  0  0
  189.6600  178.8310  143.0690 C   0  0  0  0  0  3  0  0  0  0  0  0
  191.5320  176.9660  145.7760 C   0  0  0  0  0  2  0  0  0  0  0  0
  190.7450  176.3590  146.8380 N   0  0  0  0  0  2  0  0  0  0  0  0
  189.9520  177.4250  147.4290 C   0  0  0  0  0  2  0  0  0  0  0  0
  188.4620  177.1080  147.3420 C   0  0  1  0  0  3  0  0  0  0  0  0
  187.9410  176.9460  148.6290 O   0  0  0  0  0  1  0  0  0  0  0  0
  186.9170  179.0840  147.5590 C   0  0  0  0  0  3  0  0  0  0  0  0
  187.6940  178.1910  146.5790 C   0  0  2  0  0  3  0  0  0  0  0  0
  186.7180  176.8390  144.8190 O   0  0  0  0  0  0  0  0  0  0  0  0
  186.5890  177.6070  145.8090 C   0  0  0  0  0  0  0  0  0  0  0  0
  185.4710  178.8880  147.3510 N   0  0  0  0  0  0  0  0  0  0  0  0
  185.3750  178.0230  146.2830 O   0  0  0  0  0  0  0  0  0  0  0  0
  182.5990  179.2300  139.5450 C   0  0  0  0  0  0  0  0  0  0  0  0
  184.8530  179.0480  139.7720 C   0  0  0  0  0  0  0  0  0  0  0  0
  183.6150  178.3670  140.1040 C   0  0  0  0  0  0  0  0  0  0  0  0
  183.1740  180.2380  138.9710 N   0  0  0  0  0  0  0  0  0  0  0  0
  184.5690  180.1280  139.1170 N   0  0  0  0  0  0  0  0  0  0  0  0
  183.4590  177.2840  140.7280 O   0  0  0  0  0  0  0  0  0  0  0  0
  181.1230  179.0100  139.5460 C   0  0  0  0  0  2  0  0  0  0  0  0
  181.1230  177.7980  137.4410 C   0  0  0  0  0  3  0  0  0  0  0  0
  180.7530  177.8080  138.7310 C   0  0  0  0  0  0  0  0  0  0  0  0
  181.6810  175.6570  136.2580 C   0  0  0  0  0  1  0  0  0  0  0  0
  180.8670  176.7990  136.4880 O   0  0  0  0  0  0  0  0  0  0  0  0
  180.0200  176.6920  139.3570 C   0  0  0  0  0  3  0  0  0  0  0  0
  180.6220  175.5900  139.7910 C   0  0  0  0  0  2  0  0  0  0  0  0
  1  3  1  0  0  0  0
  2  6  2  0  0  0  0
  3  8  1  0  0  0  0
  4  5  2  0  0  0  0
  6  8  1  0  0  0  0
  6  4  1  0  0  0  0
  7  1  2  0  0  0  0
  7  2  1  0  0  0  0
  8  9  2  0  0  0  0
  9  5  1  0  0  0  0
  9 12  1  0  0  0  0
 10 11  1  0  0  0  0
 11 13  2  0  0  0  0
 12 10  2  0  0  0  0
 12 15  1  0  0  0  0
 13 16  1  0  0  0  0
 14 13  1  0  0  0  0
 15 14  2  0  0  0  0
 16 17  1  0  0  0  0
 17 18  1  0  0  0  0
 19 18  1  0  0  0  0
 19 20  1  1  0  0  0
 22 19  1  1  0  0  0
 22 21  1  0  0  0  0
 23 24  2  0  0  0  0
 24 26  1  0  0  0  0
 24 22  1  0  0  0  0
 25 21  2  0  0  0  0
 26 25  1  0  0  0  0
 27 33  1  0  0  0  0
 27 29  1  0  0  0  0
 28  4  1  0  0  0  0
 28 29  1  0  0  0  0
 29 32  2  0  0  0  0
 30 31  1  0  0  0  0
 30 27  2  0  0  0  0
 31 28  2  0  0  0  0
 34 35  2  0  0  0  0
 35 38  1  0  0  0  0
 35 33  1  0  0  0  0
 36 37  1  0  0  0  0
 37 34  1  0  0  0  0
 38 39  2  0  0  0  0
M  END
>  <MODEL>
5

>  <REMARK>
 VINA RESULT:      -8.3      2.860      5.161
  Name = 
  11 active torsions:
  status: ('A' for Active; 'I' for Inactive)
    1  A    between atoms: C_2  and  C_4
    2  A    between atoms: C_2  and  C_35
    3  A    between atoms: C_5  and  C_22
    4  A    between atoms: C_10  and  C_35
    5  A    between atoms: C_11  and  O_30
    6  A    between atoms: C_12  and  C_22
    7  A    between atoms: C_12  and  N_39
    8  A    between atoms: C_13  and  C_38
    9  A    between atoms: C_15  and  C_23
   10  A    between atoms: C_16  and  C_25
   11  A    between atoms: C_23  and  N_39
                            x       y       z     vdW  Elec       q    Type
                         _______ _______ _______ _____ _____    ______ ____

>  <TORSDO>
F 11

$$$$
=
 OpenBabel11032420583D

 39 43  0  0  1  0  0  0  0  0999 V2000
  187.0660  177.9350  146.5010 C   0  0  0  0  0  3  0  0  0  0  0  0
  184.8310  178.4060  145.5590 C   0  0  0  0  0  3  0  0  0  0  0  0
  187.7010  177.8130  145.1290 C   0  0  0  0  0  3  0  0  0  0  0  0
  184.6270  178.4350  143.0430 C   0  0  0  0  0  0  0  0  0  0  0  0
  185.5260  178.2340  142.0780 C   0  0  0  0  0  3  0  0  0  0  0  0
  185.3050  178.3030  144.3210 C   0  0  2  0  0  3  0  0  0  0  0  0
  185.7610  178.2070  146.6920 C   0  0  0  0  0  3  0  0  0  0  0  0
  186.6860  178.0090  144.0360 C   0  0  0  0  0  0  0  0  0  0  0  0
  186.8370  177.9650  142.7110 C   0  0  0  0  0  0  0  0  0  0  0  0
  188.2270  178.1990  140.6540 C   0  0  0  0  0  3  0  0  0  0  0  0
  189.3990  177.9670  139.9280 C   0  0  0  0  0  3  0  0  0  0  0  0
  188.0870  177.7040  141.9590 C   0  0  0  0  0  0  0  0  0  0  0  0
  190.4480  177.2450  140.5040 C   0  0  0  0  0  0  0  0  0  0  0  0
  190.3160  176.7430  141.8020 C   0  0  0  0  0  3  0  0  0  0  0  0
  189.1420  176.9730  142.5240 C   0  0  0  0  0  3  0  0  0  0  0  0
  191.6920  176.9860  139.7300 C   0  0  0  0  0  2  0  0  0  0  0  0
  191.3560  176.6220  138.3630 N   0  0  0  0  0  2  0  0  0  0  0  0
  192.6020  176.2450  137.7150 C   0  0  0  0  0  2  0  0  0  0  0  0
  192.9430  174.7850  137.9980 C   0  0  1  0  0  3  0  0  0  0  0  0
  192.0710  173.9540  137.2890 O   0  0  0  0  0  1  0  0  0  0  0  0
  194.5350  172.9940  137.2240 C   0  0  0  0  0  3  0  0  0  0  0  0
  194.4000  174.4650  137.6500 C   0  0  2  0  0  3  0  0  0  0  0  0
  195.5090  175.4960  139.5430 O   0  0  0  0  0  0  0  0  0  0  0  0
  195.2410  174.4770  138.8530 C   0  0  0  0  0  0  0  0  0  0  0  0
  195.3400  172.2720  138.2240 N   0  0  0  0  0  0  0  0  0  0  0  0
  195.7340  173.2310  139.1300 O   0  0  0  0  0  0  0  0  0  0  0  0
  181.0770  178.8770  142.0360 C   0  0  0  0  0  0  0  0  0  0  0  0
  183.2020  178.7360  142.8280 C   0  0  0  0  0  0  0  0  0  0  0  0
  182.3650  178.3000  141.7240 C   0  0  0  0  0  0  0  0  0  0  0  0
  181.1730  179.5490  143.1370 N   0  0  0  0  0  0  0  0  0  0  0  0
  182.4870  179.4570  143.6310 N   0  0  0  0  0  0  0  0  0  0  0  0
  182.6810  177.5910  140.7320 O   0  0  0  0  0  0  0  0  0  0  0  0
  179.8280  178.7940  141.2230 C   0  0  0  0  0  2  0  0  0  0  0  0
  180.2240  180.8260  139.9530 C   0  0  0  0  0  3  0  0  0  0  0  0
  179.9850  179.5060  139.9130 C   0  0  0  0  0  0  0  0  0  0  0  0
  181.6250  182.1230  138.3240 C   0  0  0  0  0  1  0  0  0  0  0  0
  180.3800  181.6970  138.8610 O   0  0  0  0  0  0  0  0  0  0  0  0
  179.8850  178.7520  138.6500 C   0  0  0  0  0  3  0  0  0  0  0  0
  179.8510  177.4250  138.6060 C   0  0  0  0  0  2  0  0  0  0  0  0
  1  7  1  0  0  0  0
  2  7  2  0  0  0  0
  3  1  2  0  0  0  0
  4  6  1  0  0  0  0
  5  9  1  0  0  0  0
  5  4  2  0  0  0  0
  6  2  1  1  0  0  0
  8  6  1  0  0  0  0
  8  3  1  0  0  0  0
  9  8  2  0  0  0  0
 10 12  1  0  0  0  0
 11 13  1  0  0  0  0
 11 10  2  0  0  0  0
 12 15  2  0  0  0  0
 12  9  1  0  0  0  0
 13 14  2  0  0  0  0
 14 15  1  0  0  0  0
 16 13  1  0  0  0  0
 17 16  1  0  0  0  0
 18 19  1  0  0  0  0
 18 17  1  0  0  0  0
 19 20  1  6  0  0  0
 21 22  1  0  0  0  0
 21 25  2  0  0  0  0
 22 19  1  1  0  0  0
 22 24  1  0  0  0  0
 24 26  1  0  0  0  0
 24 23  2  0  0  0  0
 25 26  1  0  0  0  0
 27 30  2  0  0  0  0
 28  4  1  0  0  0  0
 28 31  2  0  0  0  0
 29 27  1  0  0  0  0
 29 28  1  0  0  0  0
 30 31  1  0  0  0  0
 32 29  2  0  0  0  0
 33 27  1  0  0  0  0
 35 34  2  0  0  0  0
 35 33  1  0  0  0  0
 36 37  1  0  0  0  0
 37 34  1  0  0  0  0
 38 35  1  0  0  0  0
 39 38  2  0  0  0  0
M  END
>  <MODEL>
6

>  <REMARK>
 VINA RESULT:      -8.3      4.306      6.816
  Name = 
  11 active torsions:
  status: ('A' for Active; 'I' for Inactive)
    1  A    between atoms: C_2  and  C_4
    2  A    between atoms: C_2  and  C_35
    3  A    between atoms: C_5  and  C_22
    4  A    between atoms: C_10  and  C_35
    5  A    between atoms: C_11  and  O_30
    6  A    between atoms: C_12  and  C_22
    7  A    between atoms: C_12  and  N_39
    8  A    between atoms: C_13  and  C_38
    9  A    between atoms: C_15  and  C_23
   10  A    between atoms: C_16  and  C_25
   11  A    between atoms: C_23  and  N_39
                            x       y       z     vdW  Elec       q    Type
                         _______ _______ _______ _____ _____    ______ ____

>  <TORSDO>
F 11

$$$$
=
 OpenBabel11032420583D

 39 43  0  0  1  0  0  0  0  0999 V2000
  188.4760  177.7520  137.4420 C   0  0  0  0  0  3  0  0  0  0  0  0
  189.7390  177.6870  139.5650 C   0  0  0  0  0  3  0  0  0  0  0  0
  187.1780  178.1120  138.1390 C   0  0  0  0  0  2  0  0  0  0  0  0
  188.4500  178.1580  141.6840 C   0  0  0  0  0  0  0  0  0  0  0  0
  187.1640  178.4450  141.8940 C   0  0  0  0  0  3  0  0  0  0  0  0
  188.6420  177.9880  140.2540 C   0  0  0  0  0  0  0  0  0  0  0  0
  189.6390  177.5620  138.0940 C   0  0  0  0  0  3  0  0  0  0  0  0
  187.3620  178.2010  139.6290 C   0  0  0  0  0  0  0  0  0  0  0  0
  186.4720  178.4740  140.5860 C   0  0  0  0  0  0  0  0  0  0  0  0
  184.5980  179.4590  139.2700 C   0  0  0  0  0  3  0  0  0  0  0  0
  183.2420  179.7460  139.0840 C   0  0  0  0  0  3  0  0  0  0  0  0
  185.0310  178.7700  140.4120 C   0  0  0  0  0  0  0  0  0  0  0  0
  182.3040  179.3390  140.0370 C   0  0  0  0  0  0  0  0  0  0  0  0
  182.7260  178.6570  141.1810 C   0  0  0  0  0  3  0  0  0  0  0  0
  184.0820  178.3740  141.3660 C   0  0  0  0  0  3  0  0  0  0  0  0
  180.8620  179.6530  139.8480 C   0  0  0  0  0  2  0  0  0  0  0  0
  180.7070  181.0440  139.4520 N   0  0  0  0  0  2  0  0  0  0  0  0
  179.9990  181.0380  138.1830 C   0  0  0  0  0  2  0  0  0  0  0  0
  180.7140  181.9110  137.1560 C   0  0  1  0  0  3  0  0  0  0  0  0
  180.5380  181.3710  135.8780 O   0  0  0  0  0  1  0  0  0  0  0  0
  179.2920  183.6480  136.0140 C   0  0  0  0  0  3  0  0  0  0  0  0
  180.2240  183.3610  137.2030 C   0  0  2  0  0  3  0  0  0  0  0  0
  182.3210  184.4880  137.6580 O   0  0  0  0  0  0  0  0  0  0  0  0
  181.3200  184.2950  136.9190 C   0  0  0  0  0  0  0  0  0  0  0  0
  179.9360  184.6230  135.1180 N   0  0  0  0  0  0  0  0  0  0  0  0
  181.1130  184.9670  135.7450 O   0  0  0  0  0  0  0  0  0  0  0  0
  190.9530  177.3040  144.2950 C   0  0  0  0  0  0  0  0  0  0  0  0
  189.4770  178.0400  142.7320 C   0  0  0  0  0  0  0  0  0  0  0  0
  189.9530  176.8250  143.3670 C   0  0  0  0  0  0  0  0  0  0  0  0
  191.0210  178.5930  144.2100 N   0  0  0  0  0  0  0  0  0  0  0  0
  190.1120  179.0480  143.2380 N   0  0  0  0  0  0  0  0  0  0  0  0
  189.5860  175.6370  143.1630 O   0  0  0  0  0  0  0  0  0  0  0  0
  191.7550  176.4940  145.2590 C   0  0  0  0  0  2  0  0  0  0  0  0
  190.1100  177.3460  146.8270 C   0  0  0  0  0  3  0  0  0  0  0  0
  191.1460  176.5190  146.6280 C   0  0  0  0  0  0  0  0  0  0  0  0
  188.0070  177.8020  148.1190 C   0  0  0  0  0  1  0  0  0  0  0  0
  189.4030  177.5540  148.0240 O   0  0  0  0  0  0  0  0  0  0  0  0
  191.6850  175.6460  147.6880 C   0  0  0  0  0  3  0  0  0  0  0  0
  192.8590  175.8620  148.2700 C   0  0  0  0  0  2  0  0  0  0  0  0
  1  7  2  0  0  0  0
  1  3  1  0  0  0  0
  2  6  2  0  0  0  0
  3  8  1  0  0  0  0
  4  5  2  0  0  0  0
  4 28  1  0  0  0  0
  6  4  1  0  0  0  0
  7  2  1  0  0  0  0
  8  6  1  0  0  0  0
  8  9  2  0  0  0  0
  9  5  1  0  0  0  0
 10 12  1  0  0  0  0
 11 10  2  0  0  0  0
 11 13  1  0  0  0  0
 12  9  1  0  0  0  0
 12 15  2  0  0  0  0
 13 14  2  0  0  0  0
 14 15  1  0  0  0  0
 16 13  1  0  0  0  0
 17 16  1  0  0  0  0
 18 17  1  0  0  0  0
 19 20  1  6  0  0  0
 19 18  1  0  0  0  0
 21 22  1  0  0  0  0
 22 19  1  6  0  0  0
 24 22  1  0  0  0  0
 24 23  2  0  0  0  0
 25 26  1  0  0  0  0
 25 21  2  0  0  0  0
 26 24  1  0  0  0  0
 27 33  1  0  0  0  0
 28 31  2  0  0  0  0
 28 29  1  0  0  0  0
 29 27  1  0  0  0  0
 30 27  2  0  0  0  0
 31 30  1  0  0  0  0
 32 29  2  0  0  0  0
 33 35  1  0  0  0  0
 34 37  1  0  0  0  0
 35 34  2  0  0  0  0
 35 38  1  0  0  0  0
 37 36  1  0  0  0  0
 38 39  2  0  0  0  0
M  END
>  <MODEL>
7

>  <REMARK>
 VINA RESULT:      -8.2      4.144     10.738
  Name = 
  11 active torsions:
  status: ('A' for Active; 'I' for Inactive)
    1  A    between atoms: C_2  and  C_4
    2  A    between atoms: C_2  and  C_35
    3  A    between atoms: C_5  and  C_22
    4  A    between atoms: C_10  and  C_35
    5  A    between atoms: C_11  and  O_30
    6  A    between atoms: C_12  and  C_22
    7  A    between atoms: C_12  and  N_39
    8  A    between atoms: C_13  and  C_38
    9  A    between atoms: C_15  and  C_23
   10  A    between atoms: C_16  and  C_25
   11  A    between atoms: C_23  and  N_39
                            x       y       z     vdW  Elec       q    Type
                         _______ _______ _______ _____ _____    ______ ____

>  <TORSDO>
F 11

$$$$
=
 OpenBabel11032420583D

 39 43  0  0  1  0  0  0  0  0999 V2000
  188.0910  177.5480  146.4290 C   0  0  0  0  0  3  0  0  0  0  0  0
  185.7940  178.0770  145.6850 C   0  0  0  0  0  3  0  0  0  0  0  0
  188.6240  177.5200  145.0090 C   0  0  0  0  0  3  0  0  0  0  0  0
  185.4080  178.2740  143.1970 C   0  0  0  0  0  0  0  0  0  0  0  0
  186.2340  178.1400  142.1590 C   0  0  0  0  0  3  0  0  0  0  0  0
  186.1770  178.0580  144.4110 C   0  0  2  0  0  3  0  0  0  0  0  0
  186.8040  177.8040  146.7310 C   0  0  0  0  0  3  0  0  0  0  0  0
  187.5330  177.7870  144.0080 C   0  0  0  0  0  0  0  0  0  0  0  0
  187.5880  177.8320  142.6750 C   0  0  0  0  0  0  0  0  0  0  0  0
  188.6440  177.6580  140.4230 C   0  0  0  0  0  3  0  0  0  0  0  0
  189.7550  177.4680  139.5960 C   0  0  0  0  0  3  0  0  0  0  0  0
  188.7780  177.6250  141.8190 C   0  0  0  0  0  0  0  0  0  0  0  0
  191.0160  177.2510  140.1590 C   0  0  0  0  0  0  0  0  0  0  0  0
  191.1610  177.2110  141.5480 C   0  0  0  0  0  3  0  0  0  0  0  0
  190.0480  177.3980  142.3720 C   0  0  0  0  0  3  0  0  0  0  0  0
  192.1990  177.0370  139.2820 C   0  0  0  0  0  2  0  0  0  0  0  0
  191.7620  176.7440  137.9270 N   0  0  0  0  0  2  0  0  0  0  0  0
  192.9120  176.1910  137.2290 C   0  0  0  0  0  2  0  0  0  0  0  0
  193.0570  174.6990  137.5150 C   0  0  1  0  0  3  0  0  0  0  0  0
  192.2310  173.9740  136.6520 O   0  0  0  0  0  1  0  0  0  0  0  0
  194.5650  172.7380  137.0480 C   0  0  0  0  0  3  0  0  0  0  0  0
  194.5110  174.2350  137.3900 C   0  0  2  0  0  3  0  0  0  0  0  0
  195.4420  175.2680  139.3750 O   0  0  0  0  0  0  0  0  0  0  0  0
  195.1770  174.2400  138.6980 C   0  0  0  0  0  0  0  0  0  0  0  0
  195.1550  172.0040  138.1820 N   0  0  0  0  0  0  0  0  0  0  0  0
  195.5100  172.9730  139.0930 O   0  0  0  0  0  0  0  0  0  0  0  0
  181.8610  179.0550  142.4100 C   0  0  0  0  0  0  0  0  0  0  0  0
  183.9730  178.5860  143.1070 C   0  0  0  0  0  0  0  0  0  0  0  0
  183.1910  178.8000  141.9020 C   0  0  0  0  0  0  0  0  0  0  0  0
  181.8890  179.0090  143.7020 N   0  0  0  0  0  0  0  0  0  0  0  0
  183.1950  178.7130  144.1340 N   0  0  0  0  0  0  0  0  0  0  0  0
  183.5740  178.7720  140.7030 O   0  0  0  0  0  0  0  0  0  0  0  0
  180.6390  179.3860  141.6190 C   0  0  0  0  0  2  0  0  0  0  0  0
  179.5830  177.2060  141.4550 C   0  0  0  0  0  3  0  0  0  0  0  0
  180.1850  178.2130  140.8050 C   0  0  0  0  0  0  0  0  0  0  0  0
  179.4270  174.7030  141.3720 C   0  0  0  0  0  1  0  0  0  0  0  0
  179.1000  176.0060  140.9080 O   0  0  0  0  0  0  0  0  0  0  0  0
  180.3980  178.2040  139.3460 C   0  0  0  0  0  3  0  0  0  0  0  0
  179.4830  178.6330  138.4830 C   0  0  0  0  0  2  0  0  0  0  0  0
  1  7  1  0  0  0  0
  2  7  2  0  0  0  0
  3  1  2  0  0  0  0
  4  6  1  0  0  0  0
  5  9  1  0  0  0  0
  5  4  2  0  0  0  0
  6  2  1  6  0  0  0
  8  6  1  0  0  0  0
  8  3  1  0  0  0  0
  9  8  2  0  0  0  0
 10 12  1  0  0  0  0
 11 13  1  0  0  0  0
 11 10  2  0  0  0  0
 12 15  2  0  0  0  0
 12  9  1  0  0  0  0
 13 14  2  0  0  0  0
 14 15  1  0  0  0  0
 16 13  1  0  0  0  0
 17 16  1  0  0  0  0
 18 19  1  0  0  0  0
 18 17  1  0  0  0  0
 19 20  1  6  0  0  0
 21 22  1  0  0  0  0
 21 25  2  0  0  0  0
 22 19  1  1  0  0  0
 22 24  1  0  0  0  0
 24 26  1  0  0  0  0
 24 23  2  0  0  0  0
 25 26  1  0  0  0  0
 27 30  2  0  0  0  0
 28  4  1  0  0  0  0
 28 31  2  0  0  0  0
 29 27  1  0  0  0  0
 29 28  1  0  0  0  0
 30 31  1  0  0  0  0
 32 29  2  0  0  0  0
 33 27  1  0  0  0  0
 35 34  2  0  0  0  0
 35 33  1  0  0  0  0
 37 36  1  0  0  0  0
 37 34  1  0  0  0  0
 38 35  1  0  0  0  0
 39 38  2  0  0  0  0
M  END
>  <MODEL>
8

>  <REMARK>
 VINA RESULT:      -8.2      4.365      6.965
  Name = 
  11 active torsions:
  status: ('A' for Active; 'I' for Inactive)
    1  A    between atoms: C_2  and  C_4
    2  A    between atoms: C_2  and  C_35
    3  A    between atoms: C_5  and  C_22
    4  A    between atoms: C_10  and  C_35
    5  A    between atoms: C_11  and  O_30
    6  A    between atoms: C_12  and  C_22
    7  A    between atoms: C_12  and  N_39
    8  A    between atoms: C_13  and  C_38
    9  A    between atoms: C_15  and  C_23
   10  A    between atoms: C_16  and  C_25
   11  A    between atoms: C_23  and  N_39
                            x       y       z     vdW  Elec       q    Type
                         _______ _______ _______ _____ _____    ______ ____

>  <TORSDO>
F 11

$$$$
=
 OpenBabel11032420583D

 39 43  0  0  1  0  0  0  0  0999 V2000
  187.6310  177.9620  146.7280 C   0  0  0  0  0  3  0  0  0  0  0  0
  185.3170  178.3900  145.9750 C   0  0  0  0  0  3  0  0  0  0  0  0
  188.1420  177.8020  145.3080 C   0  0  0  0  0  3  0  0  0  0  0  0
  184.8880  178.3410  143.4870 C   0  0  0  0  0  0  0  0  0  0  0  0
  185.7000  178.1160  142.4530 C   0  0  0  0  0  3  0  0  0  0  0  0
  185.6790  178.2530  144.7030 C   0  0  2  0  0  3  0  0  0  0  0  0
  186.3460  178.2320  147.0260 C   0  0  0  0  0  3  0  0  0  0  0  0
  187.0320  177.9580  144.3050 C   0  0  0  0  0  0  0  0  0  0  0  0
  187.0650  177.8750  142.9730 C   0  0  0  0  0  0  0  0  0  0  0  0
  189.2540  176.7440  142.5900 C   0  0  0  0  0  3  0  0  0  0  0  0
  190.3740  176.4670  141.8010 C   0  0  0  0  0  3  0  0  0  0  0  0
  188.2440  177.5990  142.1210 C   0  0  0  0  0  0  0  0  0  0  0  0
  190.4920  177.0360  140.5300 C   0  0  0  0  0  0  0  0  0  0  0  0
  189.4950  177.8930  140.0550 C   0  0  0  0  0  3  0  0  0  0  0  0
  188.3780  178.1710  140.8470 C   0  0  0  0  0  3  0  0  0  0  0  0
  191.6890  176.7530  139.6910 C   0  0  0  0  0  2  0  0  0  0  0  0
  191.3040  176.6810  138.2910 N   0  0  0  0  0  2  0  0  0  0  0  0
  191.3870  175.2800  137.9090 C   0  0  0  0  0  2  0  0  0  0  0  0
  190.2650  174.9120  136.9420 C   0  0  1  0  0  3  0  0  0  0  0  0
  189.8000  173.6260  137.2330 O   0  0  0  0  0  1  0  0  0  0  0  0
  187.7790  175.2060  137.2080 C   0  0  0  0  0  3  0  0  0  0  0  0
  189.1190  175.9260  136.9890 C   0  0  2  0  0  3  0  0  0  0  0  0
  189.6960  177.2850  135.0670 O   0  0  0  0  0  0  0  0  0  0  0  0
  188.8930  176.5240  135.6670 C   0  0  0  0  0  0  0  0  0  0  0  0
  186.9440  175.3600  136.0040 N   0  0  0  0  0  0  0  0  0  0  0  0
  187.6700  176.1720  135.1630 O   0  0  0  0  0  0  0  0  0  0  0  0
  181.3400  179.1030  142.6900 C   0  0  0  0  0  0  0  0  0  0  0  0
  183.4480  178.6260  143.3920 C   0  0  0  0  0  0  0  0  0  0  0  0
  182.6850  178.9210  142.1920 C   0  0  0  0  0  0  0  0  0  0  0  0
  181.3430  178.9510  143.9740 N   0  0  0  0  0  0  0  0  0  0  0  0
  182.6470  178.6500  144.4080 N   0  0  0  0  0  0  0  0  0  0  0  0
  183.0920  179.0000  141.0030 O   0  0  0  0  0  0  0  0  0  0  0  0
  180.1260  179.4700  141.9020 C   0  0  0  0  0  2  0  0  0  0  0  0
  179.7010  177.1490  141.3310 C   0  0  0  0  0  3  0  0  0  0  0  0
  179.7930  178.4130  140.8930 C   0  0  0  0  0  0  0  0  0  0  0  0
  180.4020  175.1970  139.9160 C   0  0  0  0  0  1  0  0  0  0  0  0
  179.4270  176.0010  140.5680 O   0  0  0  0  0  0  0  0  0  0  0  0
  179.5700  178.7870  139.4840 C   0  0  0  0  0  3  0  0  0  0  0  0
  180.5650  178.9890  138.6270 C   0  0  0  0  0  2  0  0  0  0  0  0
  1  7  1  0  0  0  0
  2  7  2  0  0  0  0
  3  1  2  0  0  0  0
  4  6  1  0  0  0  0
  5  9  1  0  0  0  0
  5  4  2  0  0  0  0
  6  2  1  1  0  0  0
  8  6  1  0  0  0  0
  8  3  1  0  0  0  0
  9  8  2  0  0  0  0
 11 10  2  0  0  0  0
 12 10  1  0  0  0  0
 12  9  1  0  0  0  0
 13 11  1  0  0  0  0
 14 13  2  0  0  0  0
 14 15  1  0  0  0  0
 15 12  2  0  0  0  0
 16 13  1  0  0  0  0
 17 16  1  0  0  0  0
 18 17  1  0  0  0  0
 19 20  1  1  0  0  0
 19 18  1  0  0  0  0
 22 19  1  6  0  0  0
 22 21  1  0  0  0  0
 23 24  2  0  0  0  0
 24 22  1  0  0  0  0
 25 21  2  0  0  0  0
 26 24  1  0  0  0  0
 26 25  1  0  0  0  0
 27 30  2  0  0  0  0
 28  4  1  0  0  0  0
 28 31  2  0  0  0  0
 29 27  1  0  0  0  0
 29 28  1  0  0  0  0
 30 31  1  0  0  0  0
 32 29  2  0  0  0  0
 33 27  1  0  0  0  0
 35 34  2  0  0  0  0
 35 33  1  0  0  0  0
 36 37  1  0  0  0  0
 37 34  1  0  0  0  0
 38 35  1  0  0  0  0
 39 38  2  0  0  0  0
M  END
>  <MODEL>
9

>  <REMARK>
 VINA RESULT:      -8.1      3.830      6.941
  Name = 
  11 active torsions:
  status: ('A' for Active; 'I' for Inactive)
    1  A    between atoms: C_2  and  C_4
    2  A    between atoms: C_2  and  C_35
    3  A    between atoms: C_5  and  C_22
    4  A    between atoms: C_10  and  C_35
    5  A    between atoms: C_11  and  O_30
    6  A    between atoms: C_12  and  C_22
    7  A    between atoms: C_12  and  N_39
    8  A    between atoms: C_13  and  C_38
    9  A    between atoms: C_15  and  C_23
   10  A    between atoms: C_16  and  C_25
   11  A    between atoms: C_23  and  N_39
                            x       y       z     vdW  Elec       q    Type
                         _______ _______ _______ _____ _____    ______ ____

>  <TORSDO>
F 11

$$$$
