=
 OpenBabel11032420593D

 39 41  0  0  1  0  0  0  0  0999 V2000
  186.3360  178.6320  141.1140 C   0  0  0  0  0  3  0  0  0  0  0  0
  187.4880  178.4420  141.6630 N   0  0  0  0  0  0  0  0  0  0  0  0
  188.5420  177.9450  139.4710 C   0  0  0  0  0  0  0  0  0  0  0  0
  190.6270  177.3030  138.0320 C   0  0  0  0  0  3  0  0  0  0  0  0
  187.1380  177.8220  138.9160 C   0  0  1  0  0  3  0  0  0  0  0  0
  186.2040  178.7990  139.6290 C   0  0  0  0  0  2  0  0  0  0  0  0
  188.7400  178.3790  140.9120 C   0  0  2  0  0  3  0  0  0  0  0  0
  189.5860  177.6260  138.7460 C   0  0  0  0  0  0  0  0  0  0  0  0
  187.0630  178.0160  137.4220 C   0  0  0  0  0  0  0  0  0  0  0  0
  187.1810  179.1700  136.9290 O   0  0  0  0  0  0  0  0  0  0  0  0
  186.9260  176.8950  136.5470 N   0  0  0  0  0  2  0  0  0  0  0  0
  186.8600  175.5260  137.0360 C   0  0  0  0  0  2  0  0  0  0  0  0
  185.8600  174.7340  136.2160 C   0  0  0  0  0  2  0  0  0  0  0  0
  184.5160  175.4410  136.2010 C   0  0  0  0  0  2  0  0  0  0  0  0
  183.8900  175.4200  137.5880 C   0  0  0  0  0  2  0  0  0  0  0  0
  183.4080  176.8040  138.0030 C   0  0  0  0  0  2  0  0  0  0  0  0
  181.5350  176.1830  139.4930 C   0  0  0  0  0  2  0  0  0  0  0  0
  182.7820  178.1150  139.9090 O   0  0  0  0  0  0  0  0  0  0  0  0
  180.7310  177.0640  140.3070 N   0  0  0  0  0  2  0  0  0  0  0  0
  182.9030  176.8040  139.4380 C   0  0  2  0  0  3  0  0  0  0  0  0
  181.6600  178.0920  140.7520 C   0  0  0  0  0  2  0  0  0  0  0  0
  189.7370  177.5390  141.5970 N   0  0  0  0  0  0  0  0  0  0  0  0
  189.1340  176.2930  142.0660 C   0  0  0  0  0  1  0  0  0  0  0  0
  190.2400  178.2640  142.7550 C   0  0  0  0  0  2  0  0  0  0  0  0
  190.2520  177.3500  143.9650 C   0  0  0  0  0  2  0  0  0  0  0  0
  189.7590  178.0690  145.1270 N   0  0  0  0  0  2  0  0  0  0  0  0
  188.7740  177.2600  145.7120 N   0  0  0  0  0  2  0  0  0  0  0  0
  184.7800  178.2270  146.4760 C   0  0  0  0  0  2  0  0  0  0  0  0
  185.8600  178.7100  147.4410 C   0  0  0  0  0  2  0  0  0  0  0  0
  185.2880  178.2140  145.0360 C   0  0  1  0  0  3  0  0  0  0  0  0
  188.1850  178.4580  148.2120 C   0  0  0  0  0  1  0  0  0  0  0  0
  185.4180  179.6240  144.4830 C   0  0  0  0  0  1  0  0  0  0  0  0
  187.6200  178.0510  145.8520 N   0  0  0  0  0  0  0  0  0  0  0  0
  186.6200  177.4680  144.9520 C   0  0  0  0  0  2  0  0  0  0  0  0
  187.1490  177.9150  147.2410 C   0  0  2  0  0  3  0  0  0  0  0  0
  192.9110  176.5740  138.5510 C   0  0  0  0  0  1  0  0  0  0  0  0
  191.4620  176.1380  138.4300 C   0  0  2  0  0  3  0  0  0  0  0  0
  190.3160  174.1590  137.7430 O   0  0  0  0  0  1  0  0  0  0  0  0
  191.3330  175.0450  137.3840 C   0  0  0  0  0  2  0  0  0  0  0  0
  1  2  2  0  0  0  0
  3  7  1  0  0  0  0
  4 37  1  0  0  0  0
  4  8  2  0  0  0  0
  5  9  1  6  0  0  0
  5  3  1  0  0  0  0
  5  6  1  0  0  0  0
  6  1  1  0  0  0  0
  7 22  1  1  0  0  0
  7  2  1  0  0  0  0
  8  3  2  0  0  0  0
 10  9  2  0  0  0  0
 11 12  1  0  0  0  0
 11  9  1  0  0  0  0
 13 12  1  0  0  0  0
 14 13  1  0  0  0  0
 14 15  1  0  0  0  0
 15 16  1  0  0  0  0
 17 19  1  0  0  0  0
 18 21  1  0  0  0  0
 19 21  1  0  0  0  0
 20 16  1  6  0  0  0
 20 17  1  0  0  0  0
 20 18  1  0  0  0  0
 22 23  1  0  0  0  0
 22 24  1  0  0  0  0
 24 25  1  0  0  0  0
 25 26  1  0  0  0  0
 26 27  1  0  0  0  0
 27 33  1  0  0  0  0
 28 29  1  0  0  0  0
 30 32  1  1  0  0  0
 30 28  1  0  0  0  0
 33 35  1  0  0  0  0
 34 30  1  0  0  0  0
 34 33  1  0  0  0  0
 35 29  1  0  0  0  0
 35 31  1  1  0  0  0
 37 36  1  6  0  0  0
 39 38  1  0  0  0  0
 39 37  1  0  0  0  0
M  END
>  <MODEL>
1

>  <REMARK>
 VINA RESULT:      -6.4      0.000      0.000
  Name = 
  15 active torsions:
  status: ('A' for Active; 'I' for Inactive)
    1  A    between atoms: C_2  and  C_22
    2  A    between atoms: C_2  and  C_27
    3  A    between atoms: C_7  and  C_25
    4  A    between atoms: C_12  and  N_16
    5  A    between atoms: C_12  and  C_28
    6  A    between atoms: C_13  and  C_21
    7  A    between atoms: N_16  and  C_38
    8  A    between atoms: N_19  and  N_30
    9  A    between atoms: N_19  and  N_35
   10  A    between atoms: N_20  and  C_31
   11  A    between atoms: C_21  and  C_22
   12  A    between atoms: C_24  and  C_26
   13  A    between atoms: C_26  and  C_36
   14  A    between atoms: C_27  and  C_31
   15  A    between atoms: C_28  and  N_35
                            x       y       z     vdW  Elec       q    Type
                         _______ _______ _______ _____ _____    ______ ____

>  <TORSDO>
F 15

$$$$
=
 OpenBabel11032420593D

 39 41  0  0  1  0  0  0  0  0999 V2000
  192.0430  175.8910  147.1090 C   0  0  0  0  0  3  0  0  0  0  0  0
  192.1010  175.8640  145.8210 N   0  0  0  0  0  0  0  0  0  0  0  0
  190.0650  177.2710  145.6190 C   0  0  0  0  0  0  0  0  0  0  0  0
  188.2800  178.5110  144.1680 C   0  0  0  0  0  3  0  0  0  0  0  0
  189.8230  176.9870  147.0880 C   0  0  1  0  0  3  0  0  0  0  0  0
  191.1560  176.8650  147.8250 C   0  0  0  0  0  2  0  0  0  0  0  0
  191.3340  176.7620  144.9600 C   0  0  2  0  0  3  0  0  0  0  0  0
  189.1700  177.8970  144.8950 C   0  0  0  0  0  0  0  0  0  0  0  0
  188.9410  178.0090  147.7600 C   0  0  0  0  0  0  0  0  0  0  0  0
  189.4550  178.9800  148.3760 O   0  0  0  0  0  0  0  0  0  0  0  0
  187.5180  177.9280  147.6510 N   0  0  0  0  0  2  0  0  0  0  0  0
  186.8520  176.8790  146.8940 C   0  0  0  0  0  2  0  0  0  0  0  0
  185.6090  177.4360  146.2260 C   0  0  0  0  0  2  0  0  0  0  0  0
  185.5770  178.9490  146.3540 C   0  0  0  0  0  2  0  0  0  0  0  0
  184.9290  179.5710  145.1250 C   0  0  0  0  0  2  0  0  0  0  0  0
  184.1260  178.5440  144.3370 C   0  0  0  0  0  2  0  0  0  0  0  0
  181.8890  179.0700  143.4250 C   0  0  0  0  0  2  0  0  0  0  0  0
  183.6550  178.5470  141.9880 O   0  0  0  0  0  0  0  0  0  0  0  0
  181.3250  178.6280  142.1710 N   0  0  0  0  0  2  0  0  0  0  0  0
  183.3680  179.1980  143.1910 C   0  0  2  0  0  3  0  0  0  0  0  0
  182.4570  178.5960  141.2580 C   0  0  0  0  0  2  0  0  0  0  0  0
  191.0540  176.1460  143.6520 N   0  0  0  0  0  0  0  0  0  0  0  0
  191.3000  174.7060  143.6930 C   0  0  0  0  0  1  0  0  0  0  0  0
  191.9450  176.7310  142.6610 C   0  0  0  0  0  2  0  0  0  0  0  0
  191.1310  177.4440  141.5990 C   0  0  0  0  0  2  0  0  0  0  0  0
  190.7030  176.4930  140.5880 N   0  0  0  0  0  2  0  0  0  0  0  0
  191.1420  176.9920  139.3530 N   0  0  0  0  0  2  0  0  0  0  0  0
  188.7990  177.7440  135.9750 C   0  0  0  0  0  2  0  0  0  0  0  0
  189.4630  176.3780  136.1310 C   0  0  0  0  0  2  0  0  0  0  0  0
  188.3710  178.3100  137.3270 C   0  0  1  0  0  3  0  0  0  0  0  0
  191.1900  175.0550  137.2850 C   0  0  0  0  0  1  0  0  0  0  0  0
  187.1620  177.5740  137.8780 C   0  0  0  0  0  1  0  0  0  0  0  0
  190.0600  176.8980  138.4610 N   0  0  0  0  0  0  0  0  0  0  0  0
  189.5380  178.2600  138.3140 C   0  0  0  0  0  2  0  0  0  0  0  0
  190.5880  176.4460  137.1630 C   0  0  2  0  0  3  0  0  0  0  0  0
  187.9730  176.3140  143.1230 C   0  0  0  0  0  1  0  0  0  0  0  0
  187.5980  177.7840  143.0650 C   0  0  2  0  0  3  0  0  0  0  0  0
  186.9150  178.9250  141.0830 O   0  0  0  0  0  1  0  0  0  0  0  0
  188.0210  178.3760  141.7330 C   0  0  0  0  0  2  0  0  0  0  0  0
  1  6  1  0  0  0  0
  2  1  2  0  0  0  0
  3  5  1  0  0  0  0
  4  8  2  0  0  0  0
  5  9  1  1  0  0  0
  5  6  1  0  0  0  0
  7 22  1  6  0  0  0
  7  3  1  0  0  0  0
  7  2  1  0  0  0  0
  8  3  2  0  0  0  0
  9 10  2  0  0  0  0
 11  9  1  0  0  0  0
 12 11  1  0  0  0  0
 13 14  1  0  0  0  0
 13 12  1  0  0  0  0
 15 14  1  0  0  0  0
 16 15  1  0  0  0  0
 18 20  1  0  0  0  0
 19 17  1  0  0  0  0
 20 17  1  0  0  0  0
 20 16  1  1  0  0  0
 21 18  1  0  0  0  0
 21 19  1  0  0  0  0
 22 23  1  0  0  0  0
 24 22  1  0  0  0  0
 25 24  1  0  0  0  0
 26 25  1  0  0  0  0
 27 26  1  0  0  0  0
 28 29  1  0  0  0  0
 28 30  1  0  0  0  0
 29 35  1  0  0  0  0
 30 32  1  1  0  0  0
 30 34  1  0  0  0  0
 33 27  1  0  0  0  0
 34 33  1  0  0  0  0
 35 31  1  1  0  0  0
 35 33  1  0  0  0  0
 37 36  1  6  0  0  0
 37  4  1  0  0  0  0
 38 39  1  0  0  0  0
 39 37  1  0  0  0  0
M  END
>  <MODEL>
2

>  <REMARK>
 VINA RESULT:      -6.1      2.752      7.753
  Name = 
  15 active torsions:
  status: ('A' for Active; 'I' for Inactive)
    1  A    between atoms: C_2  and  C_22
    2  A    between atoms: C_2  and  C_27
    3  A    between atoms: C_7  and  C_25
    4  A    between atoms: C_12  and  N_16
    5  A    between atoms: C_12  and  C_28
    6  A    between atoms: C_13  and  C_21
    7  A    between atoms: N_16  and  C_38
    8  A    between atoms: N_19  and  N_30
    9  A    between atoms: N_19  and  N_35
   10  A    between atoms: N_20  and  C_31
   11  A    between atoms: C_21  and  C_22
   12  A    between atoms: C_24  and  C_26
   13  A    between atoms: C_26  and  C_36
   14  A    between atoms: C_27  and  C_31
   15  A    between atoms: C_28  and  N_35
                            x       y       z     vdW  Elec       q    Type
                         _______ _______ _______ _____ _____    ______ ____

>  <TORSDO>
F 15

$$$$
=
 OpenBabel11032420593D

 39 41  0  0  1  0  0  0  0  0999 V2000
  186.3760  177.1120  136.0380 C   0  0  0  0  0  3  0  0  0  0  0  0
  185.1960  177.1740  136.5540 N   0  0  0  0  0  0  0  0  0  0  0  0
  186.0790  178.1360  138.6650 C   0  0  0  0  0  0  0  0  0  0  0  0
  185.7150  179.0610  141.0820 C   0  0  0  0  0  3  0  0  0  0  0  0
  187.4540  177.7230  138.1820 C   0  0  1  0  0  3  0  0  0  0  0  0
  187.5320  177.8370  136.6600 C   0  0  0  0  0  2  0  0  0  0  0  0
  184.8790  177.9420  137.7560 C   0  0  2  0  0  3  0  0  0  0  0  0
  185.9000  178.6030  139.8760 C   0  0  0  0  0  0  0  0  0  0  0  0
  188.5760  178.4970  138.8270 C   0  0  0  0  0  0  0  0  0  0  0  0
  188.9480  179.5970  138.3360 O   0  0  0  0  0  0  0  0  0  0  0  0
  189.1830  178.0320  140.0340 N   0  0  0  0  0  2  0  0  0  0  0  0
  188.7580  176.8120  140.7020 C   0  0  0  0  0  2  0  0  0  0  0  0
  188.6960  177.0380  142.2000 C   0  0  0  0  0  2  0  0  0  0  0  0
  190.0940  177.2340  142.7600 C   0  0  0  0  0  2  0  0  0  0  0  0
  190.1270  176.8800  144.2400 C   0  0  0  0  0  2  0  0  0  0  0  0
  189.4220  177.9350  145.0830 C   0  0  0  0  0  2  0  0  0  0  0  0
  187.3770  177.6800  146.4490 C   0  0  0  0  0  2  0  0  0  0  0  0
  189.4680  177.8570  147.4770 O   0  0  0  0  0  0  0  0  0  0  0  0
  187.1690  178.1220  147.8080 N   0  0  0  0  0  2  0  0  0  0  0  0
  188.8360  177.3280  146.3480 C   0  0  2  0  0  3  0  0  0  0  0  0
  188.4600  177.9350  148.4500 C   0  0  0  0  0  2  0  0  0  0  0  0
  183.7390  177.3580  138.4840 N   0  0  0  0  0  0  0  0  0  0  0  0
  183.6410  175.9220  138.2300 C   0  0  0  0  0  1  0  0  0  0  0  0
  182.5140  177.9870  138.0120 C   0  0  0  0  0  2  0  0  0  0  0  0
  182.3310  179.3280  138.6970 C   0  0  0  0  0  2  0  0  0  0  0  0
  181.8520  180.3060  137.7360 N   0  0  0  0  0  2  0  0  0  0  0  0
  180.5390  180.6290  138.1090 N   0  0  0  0  0  2  0  0  0  0  0  0
  180.9460  183.9430  135.5970 C   0  0  0  0  0  2  0  0  0  0  0  0
  179.8930  182.8880  135.2700 C   0  0  0  0  0  2  0  0  0  0  0  0
  181.1060  184.1200  137.1050 C   0  0  1  0  0  3  0  0  0  0  0  0
  179.0940  180.5930  135.6720 C   0  0  0  0  0  1  0  0  0  0  0  0
  179.9150  184.8480  137.7060 C   0  0  0  0  0  1  0  0  0  0  0  0
  180.2140  181.8390  137.4730 N   0  0  0  0  0  0  0  0  0  0  0  0
  181.3130  182.7620  137.7770 C   0  0  0  0  0  2  0  0  0  0  0  0
  180.1870  181.5900  136.0220 C   0  0  2  0  0  3  0  0  0  0  0  0
  183.4500  178.6620  141.9330 C   0  0  0  0  0  1  0  0  0  0  0  0
  184.9120  178.2740  142.0550 C   0  0  2  0  0  3  0  0  0  0  0  0
  184.3400  178.5270  144.3590 O   0  0  0  0  0  1  0  0  0  0  0  0
  185.4090  178.5530  143.4630 C   0  0  0  0  0  2  0  0  0  0  0  0
  1  2  2  0  0  0  0
  1  6  1  0  0  0  0
  2  7  1  0  0  0  0
  3  8  2  0  0  0  0
  4 37  1  0  0  0  0
  5  3  1  0  0  0  0
  5  9  1  1  0  0  0
  6  5  1  0  0  0  0
  7 22  1  1  0  0  0
  7  3  1  0  0  0  0
  8  4  2  0  0  0  0
  9 11  1  0  0  0  0
 10  9  2  0  0  0  0
 11 12  1  0  0  0  0
 12 13  1  0  0  0  0
 13 14  1  0  0  0  0
 14 15  1  0  0  0  0
 15 16  1  0  0  0  0
 17 19  1  0  0  0  0
 18 21  1  0  0  0  0
 19 21  1  0  0  0  0
 20 16  1  6  0  0  0
 20 17  1  0  0  0  0
 20 18  1  0  0  0  0
 23 22  1  0  0  0  0
 24 22  1  0  0  0  0
 24 25  1  0  0  0  0
 26 27  1  0  0  0  0
 26 25  1  0  0  0  0
 28 30  1  0  0  0  0
 29 28  1  0  0  0  0
 29 35  1  0  0  0  0
 30 32  1  1  0  0  0
 30 34  1  0  0  0  0
 33 34  1  0  0  0  0
 33 27  1  0  0  0  0
 35 31  1  1  0  0  0
 35 33  1  0  0  0  0
 37 36  1  1  0  0  0
 37 39  1  0  0  0  0
 39 38  1  0  0  0  0
M  END
>  <MODEL>
3

>  <REMARK>
 VINA RESULT:      -6.1      3.899      8.942
  Name = 
  15 active torsions:
  status: ('A' for Active; 'I' for Inactive)
    1  A    between atoms: C_2  and  C_22
    2  A    between atoms: C_2  and  C_27
    3  A    between atoms: C_7  and  C_25
    4  A    between atoms: C_12  and  N_16
    5  A    between atoms: C_12  and  C_28
    6  A    between atoms: C_13  and  C_21
    7  A    between atoms: N_16  and  C_38
    8  A    between atoms: N_19  and  N_30
    9  A    between atoms: N_19  and  N_35
   10  A    between atoms: N_20  and  C_31
   11  A    between atoms: C_21  and  C_22
   12  A    between atoms: C_24  and  C_26
   13  A    between atoms: C_26  and  C_36
   14  A    between atoms: C_27  and  C_31
   15  A    between atoms: C_28  and  N_35
                            x       y       z     vdW  Elec       q    Type
                         _______ _______ _______ _____ _____    ______ ____

>  <TORSDO>
F 15

$$$$
=
 OpenBabel11032420593D

 39 41  0  0  1  0  0  0  0  0999 V2000
  186.2090  178.5040  141.8880 C   0  0  0  0  0  3  0  0  0  0  0  0
  187.3240  177.8800  142.0610 N   0  0  0  0  0  0  0  0  0  0  0  0
  187.0510  177.9070  144.5280 C   0  0  0  0  0  0  0  0  0  0  0  0
  187.9060  177.3200  146.9270 C   0  0  0  0  0  3  0  0  0  0  0  0
  185.9560  178.9300  144.3140 C   0  0  1  0  0  3  0  0  0  0  0  0
  185.2190  178.6450  143.0060 C   0  0  0  0  0  2  0  0  0  0  0  0
  187.7160  177.2610  143.3250 C   0  0  2  0  0  3  0  0  0  0  0  0
  187.4750  177.6110  145.7330 C   0  0  0  0  0  0  0  0  0  0  0  0
  184.9800  179.0160  145.4600 C   0  0  0  0  0  0  0  0  0  0  0  0
  185.4020  179.1660  146.6390 O   0  0  0  0  0  0  0  0  0  0  0  0
  183.5710  178.9970  145.2220 N   0  0  0  0  0  2  0  0  0  0  0  0
  183.0070  178.9020  143.8840 C   0  0  0  0  0  2  0  0  0  0  0  0
  181.4990  178.7680  143.9690 C   0  0  0  0  0  2  0  0  0  0  0  0
  180.8780  178.9290  142.5920 C   0  0  0  0  0  2  0  0  0  0  0  0
  181.9020  178.6150  141.5100 C   0  0  0  0  0  2  0  0  0  0  0  0
  181.4170  179.0620  140.1360 C   0  0  0  0  0  2  0  0  0  0  0  0
  181.6070  176.6380  139.6890 C   0  0  0  0  0  2  0  0  0  0  0  0
  183.0180  178.1520  138.6030 O   0  0  0  0  0  0  0  0  0  0  0  0
  182.7770  175.9160  139.2450 N   0  0  0  0  0  2  0  0  0  0  0  0
  181.7110  178.0080  139.0790 C   0  0  2  0  0  3  0  0  0  0  0  0
  183.4540  176.8420  138.3510 C   0  0  0  0  0  2  0  0  0  0  0  0
  189.1810  177.2210  143.4750 N   0  0  0  0  0  0  0  0  0  0  0  0
  189.7560  178.5550  143.3140 C   0  0  0  0  0  1  0  0  0  0  0  0
  189.7310  176.3610  142.4370 C   0  0  0  0  0  2  0  0  0  0  0  0
  190.9560  177.0150  141.8270 C   0  0  0  0  0  2  0  0  0  0  0  0
  190.6600  177.4380  140.4690 N   0  0  0  0  0  2  0  0  0  0  0  0
  190.4760  176.2700  139.7150 N   0  0  0  0  0  2  0  0  0  0  0  0
  189.0260  178.1010  136.2490 C   0  0  0  0  0  2  0  0  0  0  0  0
  189.3430  176.6080  136.2240 C   0  0  0  0  0  2  0  0  0  0  0  0
  188.4820  178.5310  137.6090 C   0  0  1  0  0  3  0  0  0  0  0  0
  190.5000  174.7360  137.3320 C   0  0  0  0  0  1  0  0  0  0  0  0
  187.0620  178.0330  137.8200 C   0  0  0  0  0  1  0  0  0  0  0  0
  189.5870  176.5860  138.6740 N   0  0  0  0  0  0  0  0  0  0  0  0
  189.4050  178.0400  138.7260 C   0  0  0  0  0  2  0  0  0  0  0  0
  190.2410  176.2330  137.4030 C   0  0  2  0  0  3  0  0  0  0  0  0
  190.1720  176.4330  147.2270 C   0  0  0  0  0  1  0  0  0  0  0  0
  189.2980  177.6700  147.3160 C   0  0  2  0  0  3  0  0  0  0  0  0
  188.0140  178.1810  149.2630 O   0  0  0  0  0  1  0  0  0  0  0  0
  189.3050  178.2120  148.7340 C   0  0  0  0  0  2  0  0  0  0  0  0
  1  2  2  0  0  0  0
  1  6  1  0  0  0  0
  2  7  1  0  0  0  0
  3  8  2  0  0  0  0
  4 37  1  0  0  0  0
  5  3  1  0  0  0  0
  5  9  1  1  0  0  0
  6  5  1  0  0  0  0
  7 22  1  1  0  0  0
  7  3  1  0  0  0  0
  8  4  2  0  0  0  0
  9 10  2  0  0  0  0
 11  9  1  0  0  0  0
 12 13  1  0  0  0  0
 12 11  1  0  0  0  0
 14 13  1  0  0  0  0
 15 14  1  0  0  0  0
 16 15  1  0  0  0  0
 18 20  1  0  0  0  0
 19 17  1  0  0  0  0
 20 17  1  0  0  0  0
 20 16  1  1  0  0  0
 21 18  1  0  0  0  0
 21 19  1  0  0  0  0
 23 22  1  0  0  0  0
 24 22  1  0  0  0  0
 25 24  1  0  0  0  0
 26 25  1  0  0  0  0
 27 26  1  0  0  0  0
 28 30  1  0  0  0  0
 29 28  1  0  0  0  0
 29 35  1  0  0  0  0
 30 32  1  1  0  0  0
 30 34  1  0  0  0  0
 33 34  1  0  0  0  0
 33 27  1  0  0  0  0
 35 31  1  1  0  0  0
 35 33  1  0  0  0  0
 37 36  1  1  0  0  0
 37 39  1  0  0  0  0
 39 38  1  0  0  0  0
M  END
>  <MODEL>
4

>  <REMARK>
 VINA RESULT:      -6.1      2.722      7.267
  Name = 
  15 active torsions:
  status: ('A' for Active; 'I' for Inactive)
    1  A    between atoms: C_2  and  C_22
    2  A    between atoms: C_2  and  C_27
    3  A    between atoms: C_7  and  C_25
    4  A    between atoms: C_12  and  N_16
    5  A    between atoms: C_12  and  C_28
    6  A    between atoms: C_13  and  C_21
    7  A    between atoms: N_16  and  C_38
    8  A    between atoms: N_19  and  N_30
    9  A    between atoms: N_19  and  N_35
   10  A    between atoms: N_20  and  C_31
   11  A    between atoms: C_21  and  C_22
   12  A    between atoms: C_24  and  C_26
   13  A    between atoms: C_26  and  C_36
   14  A    between atoms: C_27  and  C_31
   15  A    between atoms: C_28  and  N_35
                            x       y       z     vdW  Elec       q    Type
                         _______ _______ _______ _____ _____    ______ ____

>  <TORSDO>
F 15

$$$$
=
 OpenBabel11032420593D

 39 41  0  0  1  0  0  0  0  0999 V2000
  187.8060  178.3170  140.0080 C   0  0  0  0  0  3  0  0  0  0  0  0
  187.6300  177.6860  138.8970 N   0  0  0  0  0  0  0  0  0  0  0  0
  189.9340  176.7640  138.9620 C   0  0  0  0  0  0  0  0  0  0  0  0
  191.8440  175.3130  137.9230 C   0  0  0  0  0  3  0  0  0  0  0  0
  190.2230  177.7800  140.0470 C   0  0  1  0  0  3  0  0  0  0  0  0
  188.9730  178.0090  140.8970 C   0  0  0  0  0  2  0  0  0  0  0  0
  188.5240  176.6350  138.4150 C   0  0  2  0  0  3  0  0  0  0  0  0
  190.8930  176.0350  138.4460 C   0  0  0  0  0  0  0  0  0  0  0  0
  191.3940  177.4100  140.9210 C   0  0  0  0  0  0  0  0  0  0  0  0
  192.5620  177.7460  140.5870 O   0  0  0  0  0  0  0  0  0  0  0  0
  191.1920  176.7380  142.1660 N   0  0  0  0  0  2  0  0  0  0  0  0
  189.8680  176.3850  142.6560 C   0  0  0  0  0  2  0  0  0  0  0  0
  189.8340  176.4900  144.1690 C   0  0  0  0  0  2  0  0  0  0  0  0
  189.2020  177.8060  144.5890 C   0  0  0  0  0  2  0  0  0  0  0  0
  187.9850  177.5530  145.4670 C   0  0  0  0  0  2  0  0  0  0  0  0
  186.7380  177.2910  144.6310 C   0  0  0  0  0  2  0  0  0  0  0  0
  185.2950  178.7750  145.9830 C   0  0  0  0  0  2  0  0  0  0  0  0
  184.7290  178.2730  143.7720 O   0  0  0  0  0  0  0  0  0  0  0  0
  183.8780  179.0050  145.8230 N   0  0  0  0  0  2  0  0  0  0  0  0
  185.8280  178.5100  144.6020 C   0  0  2  0  0  3  0  0  0  0  0  0
  183.6630  178.9490  144.3860 C   0  0  0  0  0  2  0  0  0  0  0  0
  188.5200  176.5560  136.9440 N   0  0  0  0  0  0  0  0  0  0  0  0
  188.6020  177.8900  136.3520 C   0  0  0  0  0  1  0  0  0  0  0  0
  187.2710  175.9460  136.5140 C   0  0  0  0  0  2  0  0  0  0  0  0
  186.4560  176.9500  135.7220 C   0  0  0  0  0  2  0  0  0  0  0  0
  185.0650  176.8850  136.1340 N   0  0  0  0  0  2  0  0  0  0  0  0
  184.9130  177.7990  137.1860 N   0  0  0  0  0  2  0  0  0  0  0  0
  182.2360  176.0280  139.8630 C   0  0  0  0  0  2  0  0  0  0  0  0
  182.5400  177.5190  139.9920 C   0  0  0  0  0  2  0  0  0  0  0  0
  182.2410  175.5850  138.4020 C   0  0  1  0  0  3  0  0  0  0  0  0
  184.0540  179.3640  139.3870 C   0  0  0  0  0  1  0  0  0  0  0  0
  181.0120  176.0930  137.6660 C   0  0  0  0  0  1  0  0  0  0  0  0
  183.6920  177.5050  137.8170 N   0  0  0  0  0  0  0  0  0  0  0  0
  183.5230  176.0520  137.7120 C   0  0  0  0  0  2  0  0  0  0  0  0
  183.8220  177.8690  139.2370 C   0  0  2  0  0  3  0  0  0  0  0  0
  192.0370  174.1930  135.7500 C   0  0  0  0  0  1  0  0  0  0  0  0
  192.2160  175.5030  136.4960 C   0  0  2  0  0  3  0  0  0  0  0  0
  193.9790  176.7520  137.5110 O   0  0  0  0  0  1  0  0  0  0  0  0
  193.6610  175.9600  136.4070 C   0  0  0  0  0  2  0  0  0  0  0  0
  1  6  1  0  0  0  0
  2  1  2  0  0  0  0
  3  5  1  0  0  0  0
  4  8  2  0  0  0  0
  5  6  1  0  0  0  0
  5  9  1  1  0  0  0
  7 22  1  6  0  0  0
  7  2  1  0  0  0  0
  7  3  1  0  0  0  0
  8  3  2  0  0  0  0
  9 11  1  0  0  0  0
 10  9  2  0  0  0  0
 11 12  1  0  0  0  0
 12 13  1  0  0  0  0
 13 14  1  0  0  0  0
 14 15  1  0  0  0  0
 16 15  1  0  0  0  0
 18 21  1  0  0  0  0
 18 20  1  0  0  0  0
 19 17  1  0  0  0  0
 20 16  1  1  0  0  0
 20 17  1  0  0  0  0
 21 19  1  0  0  0  0
 23 22  1  0  0  0  0
 24 22  1  0  0  0  0
 25 26  1  0  0  0  0
 25 24  1  0  0  0  0
 26 27  1  0  0  0  0
 27 33  1  0  0  0  0
 28 29  1  0  0  0  0
 30 32  1  6  0  0  0
 30 28  1  0  0  0  0
 33 35  1  0  0  0  0
 34 33  1  0  0  0  0
 34 30  1  0  0  0  0
 35 31  1  6  0  0  0
 35 29  1  0  0  0  0
 37 36  1  6  0  0  0
 37  4  1  0  0  0  0
 39 37  1  0  0  0  0
 39 38  1  0  0  0  0
M  END
>  <MODEL>
5

>  <REMARK>
 VINA RESULT:      -5.8      2.343      6.666
  Name = 
  15 active torsions:
  status: ('A' for Active; 'I' for Inactive)
    1  A    between atoms: C_2  and  C_22
    2  A    between atoms: C_2  and  C_27
    3  A    between atoms: C_7  and  C_25
    4  A    between atoms: C_12  and  N_16
    5  A    between atoms: C_12  and  C_28
    6  A    between atoms: C_13  and  C_21
    7  A    between atoms: N_16  and  C_38
    8  A    between atoms: N_19  and  N_30
    9  A    between atoms: N_19  and  N_35
   10  A    between atoms: N_20  and  C_31
   11  A    between atoms: C_21  and  C_22
   12  A    between atoms: C_24  and  C_26
   13  A    between atoms: C_26  and  C_36
   14  A    between atoms: C_27  and  C_31
   15  A    between atoms: C_28  and  N_35
                            x       y       z     vdW  Elec       q    Type
                         _______ _______ _______ _____ _____    ______ ____

>  <TORSDO>
F 15

$$$$
=
 OpenBabel11032420593D

 39 41  0  0  1  0  0  0  0  0999 V2000
  192.0290  175.7880  147.0380 C   0  0  0  0  0  3  0  0  0  0  0  0
  192.1040  175.8310  145.7510 N   0  0  0  0  0  0  0  0  0  0  0  0
  190.1010  177.2910  145.6030 C   0  0  0  0  0  0  0  0  0  0  0  0
  188.3630  178.6490  144.2010 C   0  0  0  0  0  3  0  0  0  0  0  0
  189.8340  176.9330  147.0500 C   0  0  1  0  0  3  0  0  0  0  0  0
  191.1540  176.7410  147.7960 C   0  0  0  0  0  2  0  0  0  0  0  0
  191.3680  176.7920  144.9320 C   0  0  2  0  0  3  0  0  0  0  0  0
  189.2300  177.9760  144.9040 C   0  0  0  0  0  0  0  0  0  0  0  0
  188.9640  177.9350  147.7670 C   0  0  0  0  0  0  0  0  0  0  0  0
  189.4910  178.8430  148.4650 O   0  0  0  0  0  0  0  0  0  0  0  0
  187.5440  177.9120  147.6110 N   0  0  0  0  0  2  0  0  0  0  0  0
  186.8680  176.9420  146.7620 C   0  0  0  0  0  2  0  0  0  0  0  0
  185.5020  177.4690  146.3660 C   0  0  0  0  0  2  0  0  0  0  0  0
  185.5690  178.9650  146.1110 C   0  0  0  0  0  2  0  0  0  0  0  0
  184.5410  179.3710  145.0650 C   0  0  0  0  0  2  0  0  0  0  0  0
  184.2880  178.2480  144.0660 C   0  0  0  0  0  2  0  0  0  0  0  0
  182.4470  179.0130  142.6030 C   0  0  0  0  0  2  0  0  0  0  0  0
  184.2830  177.8850  141.6980 O   0  0  0  0  0  0  0  0  0  0  0  0
  182.0430  178.4540  141.3350 N   0  0  0  0  0  2  0  0  0  0  0  0
  183.9330  178.8020  142.6940 C   0  0  2  0  0  3  0  0  0  0  0  0
  183.2880  178.0250  140.7170 C   0  0  0  0  0  2  0  0  0  0  0  0
  191.0920  176.2550  143.5880 N   0  0  0  0  0  0  0  0  0  0  0  0
  191.2800  174.8060  143.5590 C   0  0  0  0  0  1  0  0  0  0  0  0
  192.0270  176.8530  142.6470 C   0  0  0  0  0  2  0  0  0  0  0  0
  191.2730  177.3830  141.4430 C   0  0  0  0  0  2  0  0  0  0  0  0
  192.0660  177.1860  140.2420 N   0  0  0  0  0  2  0  0  0  0  0  0
  191.2210  177.4450  139.1540 N   0  0  0  0  0  2  0  0  0  0  0  0
  192.9380  174.2560  137.0690 C   0  0  0  0  0  2  0  0  0  0  0  0
  191.4590  174.5690  136.8620 C   0  0  0  0  0  2  0  0  0  0  0  0
  193.7500  175.5300  137.2940 C   0  0  1  0  0  3  0  0  0  0  0  0
  189.4690  175.7420  137.7180 C   0  0  0  0  0  1  0  0  0  0  0  0
  193.9030  176.3220  136.0070 C   0  0  0  0  0  1  0  0  0  0  0  0
  191.7090  176.7010  138.0650 N   0  0  0  0  0  0  0  0  0  0  0  0
  193.1030  176.3810  138.3870 C   0  0  0  0  0  2  0  0  0  0  0  0
  190.9350  175.4500  137.9950 C   0  0  2  0  0  3  0  0  0  0  0  0
  187.7920  176.4910  143.1860 C   0  0  0  0  0  1  0  0  0  0  0  0
  187.6810  177.9990  143.0510 C   0  0  2  0  0  3  0  0  0  0  0  0
  187.3480  178.8350  140.8390 O   0  0  0  0  0  1  0  0  0  0  0  0
  188.3290  178.4550  141.7560 C   0  0  0  0  0  2  0  0  0  0  0  0
  1  6  1  0  0  0  0
  2  1  2  0  0  0  0
  3  5  1  0  0  0  0
  4  8  2  0  0  0  0
  5  9  1  1  0  0  0
  5  6  1  0  0  0  0
  7 22  1  6  0  0  0
  7  3  1  0  0  0  0
  7  2  1  0  0  0  0
  8  3  2  0  0  0  0
  9 10  2  0  0  0  0
 11  9  1  0  0  0  0
 12 11  1  0  0  0  0
 13 12  1  0  0  0  0
 14 13  1  0  0  0  0
 15 14  1  0  0  0  0
 16 15  1  0  0  0  0
 17 20  1  0  0  0  0
 18 20  1  0  0  0  0
 19 17  1  0  0  0  0
 20 16  1  1  0  0  0
 21 19  1  0  0  0  0
 21 18  1  0  0  0  0
 23 22  1  0  0  0  0
 24 22  1  0  0  0  0
 25 24  1  0  0  0  0
 26 25  1  0  0  0  0
 27 26  1  0  0  0  0
 28 30  1  0  0  0  0
 29 28  1  0  0  0  0
 29 35  1  0  0  0  0
 30 32  1  6  0  0  0
 30 34  1  0  0  0  0
 33 34  1  0  0  0  0
 33 27  1  0  0  0  0
 35 31  1  6  0  0  0
 35 33  1  0  0  0  0
 37 36  1  1  0  0  0
 37  4  1  0  0  0  0
 38 39  1  0  0  0  0
 39 37  1  0  0  0  0
M  END
>  <MODEL>
6

>  <REMARK>
 VINA RESULT:      -5.8      2.822      8.134
  Name = 
  15 active torsions:
  status: ('A' for Active; 'I' for Inactive)
    1  A    between atoms: C_2  and  C_22
    2  A    between atoms: C_2  and  C_27
    3  A    between atoms: C_7  and  C_25
    4  A    between atoms: C_12  and  N_16
    5  A    between atoms: C_12  and  C_28
    6  A    between atoms: C_13  and  C_21
    7  A    between atoms: N_16  and  C_38
    8  A    between atoms: N_19  and  N_30
    9  A    between atoms: N_19  and  N_35
   10  A    between atoms: N_20  and  C_31
   11  A    between atoms: C_21  and  C_22
   12  A    between atoms: C_24  and  C_26
   13  A    between atoms: C_26  and  C_36
   14  A    between atoms: C_27  and  C_31
   15  A    between atoms: C_28  and  N_35
                            x       y       z     vdW  Elec       q    Type
                         _______ _______ _______ _____ _____    ______ ____

>  <TORSDO>
F 15

$$$$
=
 OpenBabel11032420593D

 39 41  0  0  1  0  0  0  0  0999 V2000
  185.9220  178.5200  140.7770 C   0  0  0  0  0  3  0  0  0  0  0  0
  184.7920  178.4780  140.1580 N   0  0  0  0  0  0  0  0  0  0  0  0
  183.5340  178.9090  142.2540 C   0  0  0  0  0  0  0  0  0  0  0  0
  181.2840  179.2520  143.5390 C   0  0  0  0  0  3  0  0  0  0  0  0
  184.8200  178.5990  142.9930 C   0  0  1  0  0  3  0  0  0  0  0  0
  186.0220  179.0630  142.1710 C   0  0  0  0  0  2  0  0  0  0  0  0
  183.5360  178.9500  140.7370 C   0  0  2  0  0  3  0  0  0  0  0  0
  182.4080  179.0850  142.9010 C   0  0  0  0  0  0  0  0  0  0  0  0
  184.8720  179.1850  144.3810 C   0  0  0  0  0  0  0  0  0  0  0  0
  184.0990  180.1290  144.6980 O   0  0  0  0  0  0  0  0  0  0  0  0
  185.7450  178.6370  145.3710 N   0  0  0  0  0  2  0  0  0  0  0  0
  186.6130  177.5000  145.1040 C   0  0  0  0  0  2  0  0  0  0  0  0
  187.4470  177.1890  146.3310 C   0  0  0  0  0  2  0  0  0  0  0  0
  188.8020  177.8700  146.2330 C   0  0  0  0  0  2  0  0  0  0  0  0
  189.4080  177.6460  144.8550 C   0  0  0  0  0  2  0  0  0  0  0  0
  190.6420  176.7560  144.9260 C   0  0  0  0  0  2  0  0  0  0  0  0
  191.6830  177.6240  142.8580 C   0  0  0  0  0  2  0  0  0  0  0  0
  190.0860  175.9210  142.7500 O   0  0  0  0  0  0  0  0  0  0  0  0
  191.1240  177.6220  141.5260 N   0  0  0  0  0  2  0  0  0  0  0  0
  191.1420  176.3950  143.5350 C   0  0  2  0  0  3  0  0  0  0  0  0
  190.3660  176.3830  141.4540 C   0  0  0  0  0  2  0  0  0  0  0  0
  182.3800  178.2310  140.1760 N   0  0  0  0  0  0  0  0  0  0  0  0
  182.6870  176.8140  139.9950 C   0  0  0  0  0  1  0  0  0  0  0  0
  182.0670  178.7970  138.8710 C   0  0  0  0  0  2  0  0  0  0  0  0
  180.6650  179.3730  138.8860 C   0  0  0  0  0  2  0  0  0  0  0  0
  180.7330  180.8240  138.9270 N   0  0  0  0  0  2  0  0  0  0  0  0
  181.4540  181.2260  137.7930 N   0  0  0  0  0  2  0  0  0  0  0  0
  180.8080  184.6460  135.4800 C   0  0  0  0  0  2  0  0  0  0  0  0
  180.0890  183.3520  135.1110 C   0  0  0  0  0  2  0  0  0  0  0  0
  180.9660  184.7810  136.9930 C   0  0  1  0  0  3  0  0  0  0  0  0
  179.9910  180.9060  135.3880 C   0  0  0  0  0  1  0  0  0  0  0  0
  179.6400  185.1050  137.6610 C   0  0  0  0  0  1  0  0  0  0  0  0
  180.7750  182.3240  137.2390 N   0  0  0  0  0  0  0  0  0  0  0  0
  181.5750  183.5060  137.5770 C   0  0  0  0  0  2  0  0  0  0  0  0
  180.7660  182.1550  135.7770 C   0  0  2  0  0  3  0  0  0  0  0  0
  179.6880  178.3270  141.9230 C   0  0  0  0  0  1  0  0  0  0  0  0
  180.1800  178.2730  143.3580 C   0  0  2  0  0  3  0  0  0  0  0  0
  178.9650  179.9900  144.4860 O   0  0  0  0  0  1  0  0  0  0  0  0
  179.0460  178.6080  144.3100 C   0  0  0  0  0  2  0  0  0  0  0  0
  1  6  1  0  0  0  0
  2  7  1  0  0  0  0
  2  1  2  0  0  0  0
  3  8  2  0  0  0  0
  3  5  1  0  0  0  0
  5  9  1  1  0  0  0
  6  5  1  0  0  0  0
  7 22  1  6  0  0  0
  7  3  1  0  0  0  0
  8  4  2  0  0  0  0
  9 10  2  0  0  0  0
  9 11  1  0  0  0  0
 12 11  1  0  0  0  0
 12 13  1  0  0  0  0
 14 13  1  0  0  0  0
 15 16  1  0  0  0  0
 15 14  1  0  0  0  0
 17 20  1  0  0  0  0
 18 20  1  0  0  0  0
 19 17  1  0  0  0  0
 20 16  1  1  0  0  0
 21 19  1  0  0  0  0
 21 18  1  0  0  0  0
 23 22  1  0  0  0  0
 24 25  1  0  0  0  0
 24 22  1  0  0  0  0
 25 26  1  0  0  0  0
 27 26  1  0  0  0  0
 28 30  1  0  0  0  0
 29 28  1  0  0  0  0
 29 35  1  0  0  0  0
 30 34  1  0  0  0  0
 30 32  1  1  0  0  0
 33 34  1  0  0  0  0
 33 27  1  0  0  0  0
 35 31  1  1  0  0  0
 35 33  1  0  0  0  0
 37 36  1  6  0  0  0
 37  4  1  0  0  0  0
 37 39  1  0  0  0  0
 39 38  1  0  0  0  0
M  END
>  <MODEL>
7

>  <REMARK>
 VINA RESULT:      -5.7      4.098     10.236
  Name = 
  15 active torsions:
  status: ('A' for Active; 'I' for Inactive)
    1  A    between atoms: C_2  and  C_22
    2  A    between atoms: C_2  and  C_27
    3  A    between atoms: C_7  and  C_25
    4  A    between atoms: C_12  and  N_16
    5  A    between atoms: C_12  and  C_28
    6  A    between atoms: C_13  and  C_21
    7  A    between atoms: N_16  and  C_38
    8  A    between atoms: N_19  and  N_30
    9  A    between atoms: N_19  and  N_35
   10  A    between atoms: N_20  and  C_31
   11  A    between atoms: C_21  and  C_22
   12  A    between atoms: C_24  and  C_26
   13  A    between atoms: C_26  and  C_36
   14  A    between atoms: C_27  and  C_31
   15  A    between atoms: C_28  and  N_35
                            x       y       z     vdW  Elec       q    Type
                         _______ _______ _______ _____ _____    ______ ____

>  <TORSDO>
F 15

$$$$
=
 OpenBabel11032420593D

 39 41  0  0  1  0  0  0  0  0999 V2000
  192.5130  177.0670  139.2870 C   0  0  0  0  0  3  0  0  0  0  0  0
  191.4580  177.1130  140.0270 N   0  0  0  0  0  0  0  0  0  0  0  0
  190.0060  176.4070  138.1400 C   0  0  0  0  0  0  0  0  0  0  0  0
  187.6540  175.8190  137.1630 C   0  0  0  0  0  3  0  0  0  0  0  0
  191.1810  176.7070  137.2320 C   0  0  1  0  0  3  0  0  0  0  0  0
  192.4930  176.3920  137.9490 C   0  0  0  0  0  2  0  0  0  0  0  0
  190.1780  176.5200  139.6440 C   0  0  2  0  0  3  0  0  0  0  0  0
  188.8290  176.1090  137.6480 C   0  0  0  0  0  0  0  0  0  0  0  0
  191.1160  175.9880  135.9080 C   0  0  0  0  0  0  0  0  0  0  0  0
  190.7670  176.6080  134.8680 O   0  0  0  0  0  0  0  0  0  0  0  0
  191.5130  174.6190  135.8030 N   0  0  0  0  0  2  0  0  0  0  0  0
  192.0000  173.8570  136.9430 C   0  0  0  0  0  2  0  0  0  0  0  0
  193.2940  173.1560  136.5800 C   0  0  0  0  0  2  0  0  0  0  0  0
  194.1410  174.0450  135.6850 C   0  0  0  0  0  2  0  0  0  0  0  0
  195.4260  174.4440  136.3970 C   0  0  0  0  0  2  0  0  0  0  0  0
  196.2230  173.2220  136.8350 C   0  0  0  0  0  2  0  0  0  0  0  0
  195.7940  174.1360  139.0910 C   0  0  0  0  0  2  0  0  0  0  0  0
  197.9480  174.1910  138.1860 O   0  0  0  0  0  0  0  0  0  0  0  0
  196.5380  175.1660  139.7770 N   0  0  0  0  0  2  0  0  0  0  0  0
  196.7910  173.4070  138.2340 C   0  0  2  0  0  3  0  0  0  0  0  0
  197.9170  174.9480  139.3680 C   0  0  0  0  0  2  0  0  0  0  0  0
  189.0470  177.2310  140.2650 N   0  0  0  0  0  0  0  0  0  0  0  0
  189.0460  178.6410  139.8800 C   0  0  0  0  0  1  0  0  0  0  0  0
  189.1880  177.1570  141.7120 C   0  0  0  0  0  2  0  0  0  0  0  0
  187.8180  177.1100  142.3580 C   0  0  0  0  0  2  0  0  0  0  0  0
  187.9470  177.2920  143.7940 N   0  0  0  0  0  2  0  0  0  0  0  0
  188.8740  178.3260  143.9870 N   0  0  0  0  0  2  0  0  0  0  0  0
  190.3780  176.3140  147.3270 C   0  0  0  0  0  2  0  0  0  0  0  0
  191.3370  177.1050  146.4420 C   0  0  0  0  0  2  0  0  0  0  0  0
  189.0120  176.9910  147.4100 C   0  0  1  0  0  3  0  0  0  0  0  0
  191.6910  178.1960  144.2620 C   0  0  0  0  0  1  0  0  0  0  0  0
  189.0670  178.2450  148.2660 C   0  0  0  0  0  1  0  0  0  0  0  0
  189.4420  178.1400  145.2590 N   0  0  0  0  0  0  0  0  0  0  0  0
  188.4930  177.3090  146.0070 C   0  0  0  0  0  2  0  0  0  0  0  0
  190.6980  177.3900  145.0830 C   0  0  2  0  0  3  0  0  0  0  0  0
  185.2090  176.0050  137.1930 C   0  0  0  0  0  1  0  0  0  0  0  0
  186.5170  176.7540  137.3780 C   0  0  2  0  0  3  0  0  0  0  0  0
  187.2480  178.9890  136.9680 O   0  0  0  0  0  1  0  0  0  0  0  0
  186.6080  177.8960  136.3820 C   0  0  0  0  0  2  0  0  0  0  0  0
  1  2  2  0  0  0  0
  3  7  1  0  0  0  0
  4 37  1  0  0  0  0
  4  8  2  0  0  0  0
  5  9  1  6  0  0  0
  5  6  1  0  0  0  0
  5  3  1  0  0  0  0
  6  1  1  0  0  0  0
  7  2  1  0  0  0  0
  7 22  1  6  0  0  0
  8  3  2  0  0  0  0
 10  9  2  0  0  0  0
 11  9  1  0  0  0  0
 11 12  1  0  0  0  0
 13 12  1  0  0  0  0
 14 15  1  0  0  0  0
 14 13  1  0  0  0  0
 15 16  1  0  0  0  0
 17 19  1  0  0  0  0
 18 20  1  0  0  0  0
 18 21  1  0  0  0  0
 20 16  1  6  0  0  0
 20 17  1  0  0  0  0
 21 19  1  0  0  0  0
 22 24  1  0  0  0  0
 23 22  1  0  0  0  0
 24 25  1  0  0  0  0
 25 26  1  0  0  0  0
 26 27  1  0  0  0  0
 27 33  1  0  0  0  0
 28 30  1  0  0  0  0
 29 28  1  0  0  0  0
 30 32  1  1  0  0  0
 33 34  1  0  0  0  0
 34 30  1  0  0  0  0
 35 31  1  6  0  0  0
 35 33  1  0  0  0  0
 35 29  1  0  0  0  0
 37 36  1  6  0  0  0
 39 38  1  0  0  0  0
 39 37  1  0  0  0  0
M  END
>  <MODEL>
8

>  <REMARK>
 VINA RESULT:      -5.6      3.010      7.651
  Name = 
  15 active torsions:
  status: ('A' for Active; 'I' for Inactive)
    1  A    between atoms: C_2  and  C_22
    2  A    between atoms: C_2  and  C_27
    3  A    between atoms: C_7  and  C_25
    4  A    between atoms: C_12  and  N_16
    5  A    between atoms: C_12  and  C_28
    6  A    between atoms: C_13  and  C_21
    7  A    between atoms: N_16  and  C_38
    8  A    between atoms: N_19  and  N_30
    9  A    between atoms: N_19  and  N_35
   10  A    between atoms: N_20  and  C_31
   11  A    between atoms: C_21  and  C_22
   12  A    between atoms: C_24  and  C_26
   13  A    between atoms: C_26  and  C_36
   14  A    between atoms: C_27  and  C_31
   15  A    between atoms: C_28  and  N_35
                            x       y       z     vdW  Elec       q    Type
                         _______ _______ _______ _____ _____    ______ ____

>  <TORSDO>
F 15

$$$$
=
 OpenBabel11032420593D

 39 41  0  0  1  0  0  0  0  0999 V2000
  185.9920  178.6930  141.3050 C   0  0  0  0  0  3  0  0  0  0  0  0
  187.1480  178.4760  141.8350 N   0  0  0  0  0  0  0  0  0  0  0  0
  188.1650  178.0070  139.6190 C   0  0  0  0  0  0  0  0  0  0  0  0
  190.2220  177.3650  138.1390 C   0  0  0  0  0  3  0  0  0  0  0  0
  186.7520  177.9150  139.0810 C   0  0  1  0  0  3  0  0  0  0  0  0
  185.8420  178.8910  139.8260 C   0  0  0  0  0  2  0  0  0  0  0  0
  188.3890  178.4100  141.0650 C   0  0  2  0  0  3  0  0  0  0  0  0
  189.1950  177.6890  138.8730 C   0  0  0  0  0  0  0  0  0  0  0  0
  186.6600  178.1400  137.5930 C   0  0  0  0  0  0  0  0  0  0  0  0
  187.3160  179.0710  137.0530 O   0  0  0  0  0  0  0  0  0  0  0  0
  185.8860  177.2650  136.7700 N   0  0  0  0  0  2  0  0  0  0  0  0
  185.1620  176.1230  137.3090 C   0  0  0  0  0  2  0  0  0  0  0  0
  184.2750  175.5220  136.2360 C   0  0  0  0  0  2  0  0  0  0  0  0
  184.4470  174.0130  136.1960 C   0  0  0  0  0  2  0  0  0  0  0  0
  185.7290  173.6460  135.4640 C   0  0  0  0  0  2  0  0  0  0  0  0
  185.8150  172.1470  135.2050 C   0  0  0  0  0  2  0  0  0  0  0  0
  188.1080  172.7240  135.9260 C   0  0  0  0  0  2  0  0  0  0  0  0
  187.7280  170.8400  134.5970 O   0  0  0  0  0  0  0  0  0  0  0  0
  189.3470  172.3910  135.2620 N   0  0  0  0  0  2  0  0  0  0  0  0
  187.1650  171.5900  135.6330 C   0  0  2  0  0  3  0  0  0  0  0  0
  189.1090  171.0730  134.6940 C   0  0  0  0  0  2  0  0  0  0  0  0
  189.3840  177.5430  141.7200 N   0  0  0  0  0  0  0  0  0  0  0  0
  188.7380  176.3890  142.3420 C   0  0  0  0  0  1  0  0  0  0  0  0
  190.0510  178.3070  142.7640 C   0  0  0  0  0  2  0  0  0  0  0  0
  190.2880  177.4220  143.9730 C   0  0  0  0  0  2  0  0  0  0  0  0
  189.7800  178.0770  145.1660 N   0  0  0  0  0  2  0  0  0  0  0  0
  188.7870  177.2380  145.6940 N   0  0  0  0  0  2  0  0  0  0  0  0
  184.8980  178.2440  146.8440 C   0  0  0  0  0  2  0  0  0  0  0  0
  186.0690  178.6870  147.7170 C   0  0  0  0  0  2  0  0  0  0  0  0
  185.2700  178.2590  145.3640 C   0  0  1  0  0  3  0  0  0  0  0  0
  188.4510  178.3820  148.2640 C   0  0  0  0  0  1  0  0  0  0  0  0
  185.3730  179.6800  144.8340 C   0  0  0  0  0  1  0  0  0  0  0  0
  187.6650  178.0420  145.9580 N   0  0  0  0  0  0  0  0  0  0  0  0
  186.5770  177.4960  145.1400 C   0  0  0  0  0  2  0  0  0  0  0  0
  187.3210  177.8790  147.3800 C   0  0  2  0  0  3  0  0  0  0  0  0
  192.5100  176.4900  138.2510 C   0  0  0  0  0  1  0  0  0  0  0  0
  191.0450  176.1810  138.5020 C   0  0  2  0  0  3  0  0  0  0  0  0
  191.6850  174.1130  137.4960 O   0  0  0  0  0  1  0  0  0  0  0  0
  190.6130  174.9900  137.6660 C   0  0  0  0  0  2  0  0  0  0  0  0
  1  2  2  0  0  0  0
  3  7  1  0  0  0  0
  4 37  1  0  0  0  0
  4  8  2  0  0  0  0
  5  9  1  6  0  0  0
  5  3  1  0  0  0  0
  5  6  1  0  0  0  0
  6  1  1  0  0  0  0
  7 22  1  1  0  0  0
  7  2  1  0  0  0  0
  8  3  2  0  0  0  0
 10  9  2  0  0  0  0
 11 12  1  0  0  0  0
 11  9  1  0  0  0  0
 13 12  1  0  0  0  0
 14 13  1  0  0  0  0
 15 14  1  0  0  0  0
 16 15  1  0  0  0  0
 18 21  1  0  0  0  0
 18 20  1  0  0  0  0
 19 17  1  0  0  0  0
 20 16  1  6  0  0  0
 20 17  1  0  0  0  0
 21 19  1  0  0  0  0
 22 23  1  0  0  0  0
 22 24  1  0  0  0  0
 24 25  1  0  0  0  0
 25 26  1  0  0  0  0
 26 27  1  0  0  0  0
 27 33  1  0  0  0  0
 28 29  1  0  0  0  0
 30 32  1  1  0  0  0
 30 28  1  0  0  0  0
 33 35  1  0  0  0  0
 34 30  1  0  0  0  0
 34 33  1  0  0  0  0
 35 29  1  0  0  0  0
 35 31  1  1  0  0  0
 37 36  1  6  0  0  0
 38 39  1  0  0  0  0
 39 37  1  0  0  0  0
M  END
>  <MODEL>
9

>  <REMARK>
 VINA RESULT:      -5.6      1.853      3.783
  Name = 
  15 active torsions:
  status: ('A' for Active; 'I' for Inactive)
    1  A    between atoms: C_2  and  C_22
    2  A    between atoms: C_2  and  C_27
    3  A    between atoms: C_7  and  C_25
    4  A    between atoms: C_12  and  N_16
    5  A    between atoms: C_12  and  C_28
    6  A    between atoms: C_13  and  C_21
    7  A    between atoms: N_16  and  C_38
    8  A    between atoms: N_19  and  N_30
    9  A    between atoms: N_19  and  N_35
   10  A    between atoms: N_20  and  C_31
   11  A    between atoms: C_21  and  C_22
   12  A    between atoms: C_24  and  C_26
   13  A    between atoms: C_26  and  C_36
   14  A    between atoms: C_27  and  C_31
   15  A    between atoms: C_28  and  N_35
                            x       y       z     vdW  Elec       q    Type
                         _______ _______ _______ _____ _____    ______ ____

>  <TORSDO>
F 15

$$$$
