=
 OpenBabel11042410533D

 26 30  0  0  1  0  0  0  0  0999 V2000
  188.3520  177.4010  141.4580 C   0  0  2  0  0  3  0  0  0  0  0  0
  188.2370  178.7080  141.0310 C   0  0  0  0  0  2  0  0  0  0  0  0
  187.2220  178.2050  142.0050 N   0  0  0  0  0  0  0  0  0  0  0  0
  192.2590  176.3830  142.8740 O   0  0  0  0  0  1  0  0  0  0  0  0
  188.9330  176.4520  143.7570 C   0  0  2  0  0  3  0  0  0  0  0  0
  190.4500  178.9270  144.0320 C   0  0  0  0  0  0  0  0  0  0  0  0
  191.1200  180.0620  144.1500 C   0  0  0  0  0  2  0  0  0  0  0  0
  191.0730  176.1250  144.9410 C   0  0  0  0  0  2  0  0  0  0  0  0
  191.2470  175.6610  143.5080 C   0  0  1  0  0  3  0  0  0  0  0  0
  189.8340  178.2950  145.2370 C   0  0  0  0  0  2  0  0  0  0  0  0
  189.7080  176.7840  145.0340 C   0  0  1  0  0  3  0  0  0  0  0  0
  189.9140  175.8080  142.7730 C   0  0  2  0  0  3  0  0  0  0  0  0
  190.3240  178.3190  142.7830 O   0  0  0  0  0  0  0  0  0  0  0  0
  189.4150  177.2340  142.5380 C   0  0  1  0  0  0  0  0  0  0  0  0
  184.4710  179.2010  145.4180 N   0  0  0  0  0  0  0  0  0  0  0  0
  186.3120  178.1390  144.2710 N   0  0  0  0  0  2  0  0  0  0  0  0
  183.6770  178.8200  143.1710 C   0  0  0  0  0  2  0  0  0  0  0  0
  185.5240  178.4410  145.4380 C   0  0  0  0  0  0  0  0  0  0  0  0
  183.9260  179.8530  144.2420 C   0  0  0  0  0  2  0  0  0  0  0  0
  184.9020  178.6820  142.3280 C   0  0  0  0  0  0  0  0  0  0  0  0
  186.0940  178.3580  142.8650 C   0  0  0  0  0  0  0  0  0  0  0  0
  185.9670  177.8840  146.7420 C   0  0  0  0  0  1  0  0  0  0  0  0
  184.1240  178.4300  138.5210 C   0  0  0  0  0  1  0  0  0  0  0  0
  184.8130  178.8630  140.9030 N   0  0  0  0  0  2  0  0  0  0  0  0
  183.1520  177.2450  140.3660 N   0  0  0  0  0  2  0  0  0  0  0  0
  184.0150  178.1220  139.9710 C   0  0  0  0  0  0  0  0  0  0  0  0
  1  2  1  6  0  0  0
  1  3  1  0  0  0  0
  1 14  1  0  0  0  0
  2  3  1  0  0  0  0
  3 21  1  0  0  0  0
  4  9  1  0  0  0  0
  5 11  1  0  0  0  0
  6  7  2  0  0  0  0
  6 10  1  0  0  0  0
  8 11  1  0  0  0  0
  9  8  1  0  0  0  0
 11 10  1  0  0  0  0
 12  9  1  0  0  0  0
 12  5  1  0  0  0  0
 13  6  1  0  0  0  0
 14 12  1  0  0  0  0
 14 13  1  0  0  0  0
 14  5  1  0  0  0  0
 15 18  2  0  0  0  0
 16 18  1  0  0  0  0
 17 19  1  0  0  0  0
 18 22  1  0  0  0  0
 19 15  1  0  0  0  0
 20 21  2  0  0  0  0
 20 17  1  0  0  0  0
 21 16  1  0  0  0  0
 23 26  1  0  0  0  0
 24 20  1  0  0  0  0
 26 25  2  0  0  0  0
 26 24  1  0  0  0  0
M  END
>  <MODEL>
1

>  <REMARK>
 VINA RESULT:      -7.8      0.000      0.000
  Name = 
  3 active torsions:
  status: ('A' for Active; 'I' for Inactive)
    1  A    between atoms: C_2  and  C_26
    2  A    between atoms: N_12  and  C_21
    3  A    between atoms: N_18  and  C_19
                            x       y       z     vdW  Elec       q    Type
                         _______ _______ _______ _____ _____    ______ ____

>  <TORSDO>
F 3

$$$$
=
 OpenBabel11042410533D

 26 30  0  0  1  0  0  0  0  0999 V2000
  191.7010  176.6590  140.9430 C   0  0  2  0  0  3  0  0  0  0  0  0
  192.0920  177.7010  140.1280 C   0  0  0  0  0  2  0  0  0  0  0  0
  190.9800  176.8250  139.6480 N   0  0  0  0  0  0  0  0  0  0  0  0
  190.5980  179.2570  144.1580 O   0  0  0  0  0  1  0  0  0  0  0  0
  190.4130  176.0040  143.0490 C   0  0  2  0  0  3  0  0  0  0  0  0
  188.4350  177.8870  142.0290 C   0  0  0  0  0  0  0  0  0  0  0  0
  187.5380  178.7320  141.5460 C   0  0  0  0  0  2  0  0  0  0  0  0
  189.3510  177.3270  144.8420 C   0  0  0  0  0  2  0  0  0  0  0  0
  190.7150  177.9240  144.5540 C   0  0  1  0  0  3  0  0  0  0  0  0
  187.9930  176.7000  142.8190 C   0  0  0  0  0  2  0  0  0  0  0  0
  189.0970  176.2670  143.7840 C   0  0  1  0  0  3  0  0  0  0  0  0
  191.4090  177.0840  143.4810 C   0  0  2  0  0  3  0  0  0  0  0  0
  189.7940  178.1100  141.8050 O   0  0  0  0  0  0  0  0  0  0  0  0
  190.7960  177.1190  142.0810 C   0  0  1  0  0  0  0  0  0  0  0  0
  187.6590  176.8210  136.6200 N   0  0  0  0  0  0  0  0  0  0  0  0
  188.7560  177.2460  138.7280 N   0  0  0  0  0  2  0  0  0  0  0  0
  189.1110  174.9250  136.9650 C   0  0  0  0  0  2  0  0  0  0  0  0
  187.6540  177.3460  137.8080 C   0  0  0  0  0  0  0  0  0  0  0  0
  188.7490  176.0600  136.0400 C   0  0  0  0  0  2  0  0  0  0  0  0
  190.1570  175.3880  137.9240 C   0  0  0  0  0  0  0  0  0  0  0  0
  189.9580  176.4510  138.7270 C   0  0  0  0  0  0  0  0  0  0  0  0
  186.4640  178.1300  138.2270 C   0  0  0  0  0  1  0  0  0  0  0  0
  193.7540  173.9590  137.4890 C   0  0  0  0  0  1  0  0  0  0  0  0
  191.4000  174.6690  138.0280 N   0  0  0  0  0  2  0  0  0  0  0  0
  192.7190  175.8520  136.4400 N   0  0  0  0  0  2  0  0  0  0  0  0
  192.5970  174.8650  137.2650 C   0  0  0  0  0  0  0  0  0  0  0  0
  1  2  1  6  0  0  0
  1 14  1  0  0  0  0
  3  2  1  0  0  0  0
  3  1  1  0  0  0  0
  4  9  1  0  0  0  0
  5 12  1  0  0  0  0
  5 11  1  0  0  0  0
  6 10  1  0  0  0  0
  7  6  2  0  0  0  0
  9  8  1  0  0  0  0
 10 11  1  0  0  0  0
 11  8  1  0  0  0  0
 12  9  1  0  0  0  0
 13  6  1  0  0  0  0
 13 14  1  0  0  0  0
 14  5  1  0  0  0  0
 14 12  1  0  0  0  0
 15 18  2  0  0  0  0
 17 20  1  0  0  0  0
 18 22  1  0  0  0  0
 18 16  1  0  0  0  0
 19 15  1  0  0  0  0
 19 17  1  0  0  0  0
 20 24  1  0  0  0  0
 20 21  2  0  0  0  0
 21 16  1  0  0  0  0
 21  3  1  0  0  0  0
 25 26  2  0  0  0  0
 26 23  1  0  0  0  0
 26 24  1  0  0  0  0
M  END
>  <MODEL>
2

>  <REMARK>
 VINA RESULT:      -7.2      3.941      6.390
  Name = 
  3 active torsions:
  status: ('A' for Active; 'I' for Inactive)
    1  A    between atoms: C_2  and  C_26
    2  A    between atoms: N_12  and  C_21
    3  A    between atoms: N_18  and  C_19
                            x       y       z     vdW  Elec       q    Type
                         _______ _______ _______ _____ _____    ______ ____

>  <TORSDO>
F 3

$$$$
=
 OpenBabel11042410533D

 26 30  0  0  1  0  0  0  0  0999 V2000
  189.4070  178.0430  138.7860 C   0  0  2  0  0  3  0  0  0  0  0  0
  189.5570  177.0150  139.6940 C   0  0  0  0  0  2  0  0  0  0  0  0
  188.4020  177.9430  139.8840 N   0  0  0  0  0  0  0  0  0  0  0  0
  189.4650  176.1710  134.9390 O   0  0  0  0  0  1  0  0  0  0  0  0
  187.9540  178.6580  136.7770 C   0  0  2  0  0  3  0  0  0  0  0  0
  186.9380  175.9440  137.0960 C   0  0  0  0  0  0  0  0  0  0  0  0
  186.4740  174.7160  137.2630 C   0  0  0  0  0  2  0  0  0  0  0  0
  187.5280  177.5460  134.6160 C   0  0  0  0  0  2  0  0  0  0  0  0
  189.0180  177.4920  134.8930 C   0  0  1  0  0  3  0  0  0  0  0  0
  186.0400  177.0170  136.5750 C   0  0  0  0  0  2  0  0  0  0  0  0
  186.8620  178.0940  135.8660 C   0  0  1  0  0  3  0  0  0  0  0  0
  189.3060  178.2230  136.2050 C   0  0  2  0  0  3  0  0  0  0  0  0
  188.2680  176.2330  137.4020 O   0  0  0  0  0  0  0  0  0  0  0  0
  188.7690  177.5770  137.4810 C   0  0  1  0  0  0  0  0  0  0  0  0
  184.1360  178.6330  141.1220 N   0  0  0  0  0  0  0  0  0  0  0  0
  186.0830  178.6890  139.6950 N   0  0  0  0  0  0  0  0  0  0  0  0
  186.0000  178.9790  142.6150 C   0  0  0  0  0  2  0  0  0  0  0  0
  184.6870  178.8990  139.9760 C   0  0  0  0  0  0  0  0  0  0  0  0
  184.8230  178.0970  142.2820 C   0  0  0  0  0  2  0  0  0  0  0  0
  187.2030  178.4910  141.8780 C   0  0  1  0  0  3  0  0  0  0  0  0
  187.2110  178.3800  140.5360 C   0  0  0  0  0  0  0  0  0  0  0  0
  183.8240  179.4090  138.8800 C   0  0  0  0  0  1  0  0  0  0  0  0
  189.9750  176.8480  144.0660 C   0  0  0  0  0  1  0  0  0  0  0  0
  188.4020  178.1620  142.6040 N   0  0  0  0  0  2  0  0  0  0  0  0
  187.9000  175.9370  143.2810 N   0  0  0  0  0  2  0  0  0  0  0  0
  188.6920  176.9560  143.3230 C   0  0  0  0  0  0  0  0  0  0  0  0
  1  2  1  1  0  0  0
  1  3  1  0  0  0  0
  2  3  1  0  0  0  0
  3 21  1  0  0  0  0
  5 14  1  0  0  0  0
  6  7  2  0  0  0  0
  6 13  1  0  0  0  0
  8  9  1  0  0  0  0
  8 11  1  0  0  0  0
  9  4  1  0  0  0  0
  9 12  1  0  0  0  0
 10  6  1  0  0  0  0
 11 10  1  0  0  0  0
 11  5  1  0  0  0  0
 12  5  1  0  0  0  0
 12 14  1  0  0  0  0
 13 14  1  0  0  0  0
 14  1  1  0  0  0  0
 15 19  1  0  0  0  0
 16 18  1  0  0  0  0
 16 21  2  0  0  0  0
 18 15  2  0  0  0  0
 19 17  1  0  0  0  0
 20 24  1  0  0  0  0
 20 17  1  0  0  0  0
 21 20  1  0  0  0  0
 22 18  1  0  0  0  0
 24 26  1  0  0  0  0
 25 26  2  0  0  0  0
 26 23  1  0  0  0  0
M  END
>  <MODEL>
3

>  <REMARK>
 VINA RESULT:      -7.2      3.540      6.596
  Name = 
  3 active torsions:
  status: ('A' for Active; 'I' for Inactive)
    1  A    between atoms: C_2  and  C_26
    2  A    between atoms: N_12  and  C_21
    3  A    between atoms: N_18  and  C_19
                            x       y       z     vdW  Elec       q    Type
                         _______ _______ _______ _____ _____    ______ ____

>  <TORSDO>
F 3

$$$$
=
 OpenBabel11042410533D

 26 30  0  0  1  0  0  0  0  0999 V2000
  187.3130  178.4220  143.7370 C   0  0  2  0  0  3  0  0  0  0  0  0
  186.3280  177.4570  143.6880 C   0  0  0  0  0  2  0  0  0  0  0  0
  186.5930  178.2410  142.4440 N   0  0  0  0  0  0  0  0  0  0  0  0
  190.6700  176.9240  141.5480 O   0  0  0  0  0  1  0  0  0  0  0  0
  188.9450  176.6150  144.5110 C   0  0  2  0  0  3  0  0  0  0  0  0
  190.9060  178.7640  144.3130 C   0  0  0  0  0  0  0  0  0  0  0  0
  191.7820  179.7530  144.2360 C   0  0  0  0  0  2  0  0  0  0  0  0
  191.1180  175.8370  143.6380 C   0  0  0  0  0  2  0  0  0  0  0  0
  190.1670  176.0030  142.4680 C   0  0  1  0  0  3  0  0  0  0  0  0
  191.0780  177.6920  145.3390 C   0  0  0  0  0  2  0  0  0  0  0  0
  190.4170  176.3970  144.8640 C   0  0  1  0  0  3  0  0  0  0  0  0
  188.7990  176.4340  142.9970 C   0  0  2  0  0  3  0  0  0  0  0  0
  189.8240  178.7210  143.4330 O   0  0  0  0  0  0  0  0  0  0  0  0
  188.7130  177.8300  143.6160 C   0  0  1  0  0  0  0  0  0  0  0  0
  186.6270  178.2490  137.9490 N   0  0  0  0  0  0  0  0  0  0  0  0
  187.5220  178.3730  140.1880 N   0  0  0  0  0  0  0  0  0  0  0  0
  184.9300  179.3780  139.2420 C   0  0  0  0  0  2  0  0  0  0  0  0
  187.6430  178.3290  138.7550 C   0  0  0  0  0  0  0  0  0  0  0  0
  185.2340  178.1980  138.3530 C   0  0  0  0  0  2  0  0  0  0  0  0
  185.1890  179.0000  140.6630 C   0  0  1  0  0  3  0  0  0  0  0  0
  186.3940  178.5530  141.0660 C   0  0  0  0  0  0  0  0  0  0  0  0
  189.0080  178.3320  138.1690 C   0  0  0  0  0  1  0  0  0  0  0  0
  181.8640  178.9570  142.6890 C   0  0  0  0  0  1  0  0  0  0  0  0
  184.1460  179.1470  141.6430 N   0  0  0  0  0  2  0  0  0  0  0  0
  182.4340  177.8240  140.6530 N   0  0  0  0  0  2  0  0  0  0  0  0
  182.8100  178.6280  141.5920 C   0  0  0  0  0  0  0  0  0  0  0  0
  1  2  1  1  0  0  0
  3  2  1  0  0  0  0
  3  1  1  0  0  0  0
  4  9  1  0  0  0  0
  5 11  1  0  0  0  0
  6 10  1  0  0  0  0
  7  6  2  0  0  0  0
  8 11  1  0  0  0  0
  9 12  1  0  0  0  0
  9  8  1  0  0  0  0
 11 10  1  0  0  0  0
 12 14  1  0  0  0  0
 12  5  1  0  0  0  0
 13 14  1  0  0  0  0
 13  6  1  0  0  0  0
 14  1  1  0  0  0  0
 14  5  1  0  0  0  0
 15 19  1  0  0  0  0
 15 18  2  0  0  0  0
 16 21  2  0  0  0  0
 17 20  1  0  0  0  0
 18 16  1  0  0  0  0
 19 17  1  0  0  0  0
 20 21  1  0  0  0  0
 20 24  1  0  0  0  0
 21  3  1  0  0  0  0
 22 18  1  0  0  0  0
 25 26  2  0  0  0  0
 26 24  1  0  0  0  0
 26 23  1  0  0  0  0
M  END
>  <MODEL>
4

>  <REMARK>
 VINA RESULT:      -7.1      1.666      3.621
  Name = 
  3 active torsions:
  status: ('A' for Active; 'I' for Inactive)
    1  A    between atoms: C_2  and  C_26
    2  A    between atoms: N_12  and  C_21
    3  A    between atoms: N_18  and  C_19
                            x       y       z     vdW  Elec       q    Type
                         _______ _______ _______ _____ _____    ______ ____

>  <TORSDO>
F 3

$$$$
=
 OpenBabel11042410533D

 26 30  0  0  1  0  0  0  0  0999 V2000
  187.6760  176.7440  143.0150 C   0  0  2  0  0  3  0  0  0  0  0  0
  186.8340  177.8240  143.1790 C   0  0  0  0  0  2  0  0  0  0  0  0
  187.5120  177.2850  144.3960 N   0  0  0  0  0  0  0  0  0  0  0  0
  190.2950  178.5920  140.1820 O   0  0  0  0  0  1  0  0  0  0  0  0
  190.0510  176.0020  142.4360 C   0  0  2  0  0  3  0  0  0  0  0  0
  190.7730  178.6280  143.4770 C   0  0  0  0  0  0  0  0  0  0  0  0
  191.0880  179.8160  143.9680 C   0  0  0  0  0  2  0  0  0  0  0  0
  191.8690  177.0640  141.1500 C   0  0  0  0  0  2  0  0  0  0  0  0
  190.5750  177.2390  140.3780 C   0  0  1  0  0  3  0  0  0  0  0  0
  191.7200  177.4830  143.6260 C   0  0  0  0  0  2  0  0  0  0  0  0
  191.5050  176.4720  142.5000 C   0  0  1  0  0  3  0  0  0  0  0  0
  189.4460  176.5400  141.1360 C   0  0  2  0  0  3  0  0  0  0  0  0
  189.5580  178.4480  142.8160 O   0  0  0  0  0  0  0  0  0  0  0  0
  189.0450  177.1490  142.4800 C   0  0  1  0  0  0  0  0  0  0  0  0
  189.5020  177.8790  148.3820 N   0  0  0  0  0  0  0  0  0  0  0  0
  189.2120  177.0460  146.1340 N   0  0  0  0  0  0  0  0  0  0  0  0
  187.1290  177.5030  148.1520 C   0  0  0  0  0  2  0  0  0  0  0  0
  189.9550  177.2260  147.3540 C   0  0  0  0  0  0  0  0  0  0  0  0
  188.2020  178.5150  148.4690 C   0  0  0  0  0  2  0  0  0  0  0  0
  186.8600  177.5180  146.6840 C   0  0  1  0  0  3  0  0  0  0  0  0
  187.8370  177.2940  145.7850 C   0  0  0  0  0  0  0  0  0  0  0  0
  191.3300  176.6690  147.4220 C   0  0  0  0  0  1  0  0  0  0  0  0
  183.4690  179.0000  145.4700 C   0  0  0  0  0  1  0  0  0  0  0  0
  185.5200  177.7400  146.2060 N   0  0  0  0  0  2  0  0  0  0  0  0
  185.5620  180.0970  145.8830 N   0  0  0  0  0  2  0  0  0  0  0  0
  184.8960  178.9900  145.8860 C   0  0  0  0  0  0  0  0  0  0  0  0
  1  2  1  6  0  0  0
  1  3  1  0  0  0  0
  2  3  1  0  0  0  0
  3 21  1  0  0  0  0
  4  9  1  0  0  0  0
  5 14  1  0  0  0  0
  5 11  1  0  0  0  0
  6 10  1  0  0  0  0
  6  7  2  0  0  0  0
  8 11  1  0  0  0  0
  9 12  1  0  0  0  0
  9  8  1  0  0  0  0
 11 10  1  0  0  0  0
 12  5  1  0  0  0  0
 12 14  1  0  0  0  0
 13  6  1  0  0  0  0
 14 13  1  0  0  0  0
 14  1  1  0  0  0  0
 15 19  1  0  0  0  0
 16 18  1  0  0  0  0
 17 19  1  0  0  0  0
 18 22  1  0  0  0  0
 18 15  2  0  0  0  0
 20 17  1  0  0  0  0
 21 16  2  0  0  0  0
 21 20  1  0  0  0  0
 23 26  1  0  0  0  0
 24 20  1  0  0  0  0
 25 26  2  0  0  0  0
 26 24  1  0  0  0  0
M  END
>  <MODEL>
5

>  <REMARK>
 VINA RESULT:      -7.1      2.541      4.224
  Name = 
  3 active torsions:
  status: ('A' for Active; 'I' for Inactive)
    1  A    between atoms: C_2  and  C_26
    2  A    between atoms: N_12  and  C_21
    3  A    between atoms: N_18  and  C_19
                            x       y       z     vdW  Elec       q    Type
                         _______ _______ _______ _____ _____    ______ ____

>  <TORSDO>
F 3

$$$$
=
 OpenBabel11042410533D

 26 30  0  0  1  0  0  0  0  0999 V2000
  187.6550  177.6070  144.6230 C   0  0  2  0  0  3  0  0  0  0  0  0
  187.1240  176.3930  144.2380 C   0  0  0  0  0  2  0  0  0  0  0  0
  187.0360  177.5270  143.2680 N   0  0  0  0  0  0  0  0  0  0  0  0
  191.4240  179.6050  144.2980 O   0  0  0  0  0  1  0  0  0  0  0  0
  189.7040  176.7820  143.3400 C   0  0  2  0  0  3  0  0  0  0  0  0
  190.9450  176.7700  145.9780 C   0  0  0  0  0  0  0  0  0  0  0  0
  191.4900  176.7540  147.1840 C   0  0  0  0  0  2  0  0  0  0  0  0
  192.0560  177.5260  143.2840 C   0  0  0  0  0  2  0  0  0  0  0  0
  191.1670  178.7530  143.2230 C   0  0  1  0  0  3  0  0  0  0  0  0
  191.3700  175.7720  144.9520 C   0  0  0  0  0  2  0  0  0  0  0  0
  191.1520  176.3340  143.5470 C   0  0  1  0  0  3  0  0  0  0  0  0
  189.7040  178.3070  143.2030 C   0  0  2  0  0  3  0  0  0  0  0  0
  189.9760  177.7250  145.6650 O   0  0  0  0  0  0  0  0  0  0  0  0
  189.1720  177.6500  144.4770 C   0  0  1  0  0  0  0  0  0  0  0  0
  186.6680  178.4610  138.8870 N   0  0  0  0  0  0  0  0  0  0  0  0
  187.7540  178.1710  141.0240 N   0  0  0  0  0  0  0  0  0  0  0  0
  185.0530  179.2040  140.5190 C   0  0  0  0  0  2  0  0  0  0  0  0
  187.7480  178.4290  139.6080 C   0  0  0  0  0  0  0  0  0  0  0  0
  185.3200  178.2510  139.3810 C   0  0  0  0  0  2  0  0  0  0  0  0
  185.4520  178.5570  141.8040 C   0  0  1  0  0  3  0  0  0  0  0  0
  186.7040  178.1030  142.0070 C   0  0  0  0  0  0  0  0  0  0  0  0
  189.0540  178.6280  138.9290 C   0  0  0  0  0  1  0  0  0  0  0  0
  183.2960  178.9830  145.0190 C   0  0  0  0  0  1  0  0  0  0  0  0
  184.4950  178.4410  142.8730 N   0  0  0  0  0  2  0  0  0  0  0  0
  184.9350  180.4520  144.0660 N   0  0  0  0  0  2  0  0  0  0  0  0
  184.3040  179.3280  143.9830 C   0  0  0  0  0  0  0  0  0  0  0  0
  1  2  1  1  0  0  0
  3  2  1  0  0  0  0
  3  1  1  0  0  0  0
  5 11  1  0  0  0  0
  5 14  1  0  0  0  0
  6  7  2  0  0  0  0
  8 11  1  0  0  0  0
  9  8  1  0  0  0  0
  9  4  1  0  0  0  0
 10  6  1  0  0  0  0
 11 10  1  0  0  0  0
 12  9  1  0  0  0  0
 12  5  1  0  0  0  0
 12 14  1  0  0  0  0
 13  6  1  0  0  0  0
 14  1  1  0  0  0  0
 14 13  1  0  0  0  0
 15 19  1  0  0  0  0
 15 18  2  0  0  0  0
 16 21  2  0  0  0  0
 17 20  1  0  0  0  0
 18 16  1  0  0  0  0
 19 17  1  0  0  0  0
 20 21  1  0  0  0  0
 20 24  1  0  0  0  0
 21  3  1  0  0  0  0
 22 18  1  0  0  0  0
 24 26  1  0  0  0  0
 26 25  2  0  0  0  0
 26 23  1  0  0  0  0
M  END
>  <MODEL>
6

>  <REMARK>
 VINA RESULT:      -7.0      1.693      4.030
  Name = 
  3 active torsions:
  status: ('A' for Active; 'I' for Inactive)
    1  A    between atoms: C_2  and  C_26
    2  A    between atoms: N_12  and  C_21
    3  A    between atoms: N_18  and  C_19
                            x       y       z     vdW  Elec       q    Type
                         _______ _______ _______ _____ _____    ______ ____

>  <TORSDO>
F 3

$$$$
=
 OpenBabel11042410533D

 26 30  0  0  1  0  0  0  0  0999 V2000
  188.6600  178.6300  140.5250 C   0  0  2  0  0  3  0  0  0  0  0  0
  188.6030  177.6610  141.5060 C   0  0  0  0  0  2  0  0  0  0  0  0
  187.3460  178.4070  141.1950 N   0  0  0  0  0  0  0  0  0  0  0  0
  189.2210  175.5080  137.6540 O   0  0  0  0  0  1  0  0  0  0  0  0
  189.2510  178.9250  138.0580 C   0  0  2  0  0  3  0  0  0  0  0  0
  186.6680  177.6450  137.6230 C   0  0  0  0  0  0  0  0  0  0  0  0
  185.4860  177.0790  137.4410 C   0  0  0  0  0  2  0  0  0  0  0  0
  189.2750  177.3680  136.1430 C   0  0  0  0  0  2  0  0  0  0  0  0
  189.9150  176.6740  137.3300 C   0  0  1  0  0  3  0  0  0  0  0  0
  187.1720  178.6540  136.6440 C   0  0  0  0  0  2  0  0  0  0  0  0
  188.7000  178.6790  136.6520 C   0  0  1  0  0  3  0  0  0  0  0  0
  189.9560  177.6440  138.5110 C   0  0  2  0  0  3  0  0  0  0  0  0
  187.4450  177.2950  138.7280 O   0  0  0  0  0  0  0  0  0  0  0  0
  188.6100  178.0380  139.1200 C   0  0  1  0  0  0  0  0  0  0  0  0
  182.9200  178.8450  140.5420 N   0  0  0  0  0  0  0  0  0  0  0  0
  185.2770  179.2500  140.2060 N   0  0  0  0  0  0  0  0  0  0  0  0
  183.9050  178.6850  142.7400 C   0  0  0  0  0  2  0  0  0  0  0  0
  183.8840  179.4140  139.8830 C   0  0  0  0  0  0  0  0  0  0  0  0
  183.0850  177.9750  141.6910 C   0  0  0  0  0  2  0  0  0  0  0  0
  185.3510  178.3930  142.5130 C   0  0  1  0  0  3  0  0  0  0  0  0
  185.9530  178.6750  141.3410 C   0  0  0  0  0  0  0  0  0  0  0  0
  183.5350  180.2460  138.7030 C   0  0  0  0  0  1  0  0  0  0  0  0
  187.1400  177.5640  145.8710 C   0  0  0  0  0  1  0  0  0  0  0  0
  186.1420  177.8300  143.5760 N   0  0  0  0  0  2  0  0  0  0  0  0
  185.3980  179.1480  145.4120 N   0  0  0  0  0  2  0  0  0  0  0  0
  186.1980  178.2460  144.9470 C   0  0  0  0  0  0  0  0  0  0  0  0
  1  3  1  0  0  0  0
  1  2  1  1  0  0  0
  3 21  1  0  0  0  0
  3  2  1  0  0  0  0
  5 12  1  0  0  0  0
  5 14  1  0  0  0  0
  6 13  1  0  0  0  0
  7  6  2  0  0  0  0
  8 11  1  0  0  0  0
  8  9  1  0  0  0  0
  9  4  1  0  0  0  0
  9 12  1  0  0  0  0
 10 11  1  0  0  0  0
 10  6  1  0  0  0  0
 11  5  1  0  0  0  0
 12 14  1  0  0  0  0
 13 14  1  0  0  0  0
 14  1  1  0  0  0  0
 15 19  1  0  0  0  0
 16 21  2  0  0  0  0
 18 16  1  0  0  0  0
 18 15  2  0  0  0  0
 19 17  1  0  0  0  0
 20 17  1  0  0  0  0
 20 24  1  0  0  0  0
 21 20  1  0  0  0  0
 22 18  1  0  0  0  0
 24 26  1  0  0  0  0
 26 25  2  0  0  0  0
 26 23  1  0  0  0  0
M  END
>  <MODEL>
7

>  <REMARK>
 VINA RESULT:      -7.0      2.760      5.783
  Name = 
  3 active torsions:
  status: ('A' for Active; 'I' for Inactive)
    1  A    between atoms: C_2  and  C_26
    2  A    between atoms: N_12  and  C_21
    3  A    between atoms: N_18  and  C_19
                            x       y       z     vdW  Elec       q    Type
                         _______ _______ _______ _____ _____    ______ ____

>  <TORSDO>
F 3

$$$$
=
 OpenBabel11042410533D

 26 30  0  0  1  0  0  0  0  0999 V2000
  187.8400  177.3700  141.9230 C   0  0  2  0  0  3  0  0  0  0  0  0
  187.3460  178.6460  141.7420 C   0  0  0  0  0  2  0  0  0  0  0  0
  187.1340  178.0040  143.0740 N   0  0  0  0  0  0  0  0  0  0  0  0
  191.9440  177.9250  140.8530 O   0  0  0  0  0  1  0  0  0  0  0  0
  189.8360  176.0680  142.8410 C   0  0  2  0  0  3  0  0  0  0  0  0
  190.6660  178.6810  143.8330 C   0  0  0  0  0  0  0  0  0  0  0  0
  191.0220  179.8700  144.2920 C   0  0  0  0  0  2  0  0  0  0  0  0
  192.2750  176.4110  142.6820 C   0  0  0  0  0  2  0  0  0  0  0  0
  191.6720  176.6350  141.3080 C   0  0  1  0  0  3  0  0  0  0  0  0
  191.0190  177.4490  144.5990 C   0  0  0  0  0  2  0  0  0  0  0  0
  191.1190  176.2510  143.6540 C   0  0  1  0  0  3  0  0  0  0  0  0
  190.1670  176.3750  141.3780 C   0  0  2  0  0  3  0  0  0  0  0  0
  189.9670  178.5800  142.6300 O   0  0  0  0  0  0  0  0  0  0  0  0
  189.3390  177.3610  142.2010 C   0  0  1  0  0  0  0  0  0  0  0  0
  186.7900  178.4520  147.5340 N   0  0  0  0  0  0  0  0  0  0  0  0
  187.6550  177.6350  145.4330 N   0  0  0  0  0  2  0  0  0  0  0  0
  184.8650  178.2750  146.0880 C   0  0  0  0  0  2  0  0  0  0  0  0
  187.6620  177.7580  146.8670 C   0  0  0  0  0  0  0  0  0  0  0  0
  185.6860  179.1960  146.9560 C   0  0  0  0  0  2  0  0  0  0  0  0
  185.4030  178.3040  144.6960 C   0  0  0  0  0  0  0  0  0  0  0  0
  186.6860  177.9940  144.4290 C   0  0  0  0  0  0  0  0  0  0  0  0
  188.7540  177.0880  147.6190 C   0  0  0  0  0  1  0  0  0  0  0  0
  182.3860  179.0300  142.3440 C   0  0  0  0  0  1  0  0  0  0  0  0
  184.5310  178.6350  143.6000 N   0  0  0  0  0  2  0  0  0  0  0  0
  182.4280  178.6620  144.7140 N   0  0  0  0  0  2  0  0  0  0  0  0
  183.1010  178.7410  143.6130 C   0  0  0  0  0  0  0  0  0  0  0  0
  1  2  1  6  0  0  0
  1 14  1  0  0  0  0
  1  3  1  0  0  0  0
  2  3  1  0  0  0  0
  3 21  1  0  0  0  0
  4  9  1  0  0  0  0
  5 11  1  0  0  0  0
  6  7  2  0  0  0  0
  6 10  1  0  0  0  0
  8 11  1  0  0  0  0
  9 12  1  0  0  0  0
  9  8  1  0  0  0  0
 11 10  1  0  0  0  0
 12 14  1  0  0  0  0
 12  5  1  0  0  0  0
 13  6  1  0  0  0  0
 14 13  1  0  0  0  0
 14  5  1  0  0  0  0
 16 18  1  0  0  0  0
 17 19  1  0  0  0  0
 18 15  2  0  0  0  0
 18 22  1  0  0  0  0
 19 15  1  0  0  0  0
 20 17  1  0  0  0  0
 21 20  2  0  0  0  0
 21 16  1  0  0  0  0
 23 26  1  0  0  0  0
 24 26  1  0  0  0  0
 24 20  1  0  0  0  0
 26 25  2  0  0  0  0
M  END
>  <MODEL>
8

>  <REMARK>
 VINA RESULT:      -6.8      1.824      2.442
  Name = 
  3 active torsions:
  status: ('A' for Active; 'I' for Inactive)
    1  A    between atoms: C_2  and  C_26
    2  A    between atoms: N_12  and  C_21
    3  A    between atoms: N_18  and  C_19
                            x       y       z     vdW  Elec       q    Type
                         _______ _______ _______ _____ _____    ______ ____

>  <TORSDO>
F 3

$$$$
=
 OpenBabel11042410533D

 26 30  0  0  1  0  0  0  0  0999 V2000
  187.6520  178.9410  141.9410 C   0  0  2  0  0  3  0  0  0  0  0  0
  186.4670  178.2390  141.8560 C   0  0  0  0  0  2  0  0  0  0  0  0
  187.3440  178.2680  140.6470 N   0  0  0  0  0  0  0  0  0  0  0  0
  191.0450  176.3400  142.1020 O   0  0  0  0  0  1  0  0  0  0  0  0
  188.2200  177.3020  143.8170 C   0  0  2  0  0  3  0  0  0  0  0  0
  190.5990  178.9640  144.1030 C   0  0  0  0  0  0  0  0  0  0  0  0
  191.6650  179.7370  144.2330 C   0  0  0  0  0  2  0  0  0  0  0  0
  190.2410  175.9830  144.3320 C   0  0  0  0  0  2  0  0  0  0  0  0
  189.9630  175.8670  142.8460 C   0  0  1  0  0  3  0  0  0  0  0  0
  190.0110  178.2940  145.3010 C   0  0  0  0  0  2  0  0  0  0  0  0
  189.2770  177.0190  144.8860 C   0  0  1  0  0  3  0  0  0  0  0  0
  188.6830  176.6370  142.5180 C   0  0  2  0  0  3  0  0  0  0  0  0
  190.0270  178.7720  142.8450 O   0  0  0  0  0  0  0  0  0  0  0  0
  188.7410  178.1570  142.6650 C   0  0  1  0  0  0  0  0  0  0  0  0
  188.7710  176.0930  136.9810 N   0  0  0  0  0  0  0  0  0  0  0  0
  188.9190  177.1630  139.1400 N   0  0  0  0  0  2  0  0  0  0  0  0
  187.2040  177.9260  136.8830 C   0  0  0  0  0  2  0  0  0  0  0  0
  189.4580  176.4140  138.0360 C   0  0  0  0  0  0  0  0  0  0  0  0
  187.3810  176.4340  136.7450 C   0  0  0  0  0  2  0  0  0  0  0  0
  186.8770  178.2520  138.3020 C   0  0  0  0  0  0  0  0  0  0  0  0
  187.6910  177.8970  139.3140 C   0  0  0  0  0  0  0  0  0  0  0  0
  190.8650  175.9470  138.1290 C   0  0  0  0  0  1  0  0  0  0  0  0
  183.2300  179.4840  138.8950 C   0  0  0  0  0  1  0  0  0  0  0  0
  185.6830  178.9960  138.6070 N   0  0  0  0  0  2  0  0  0  0  0  0
  184.0490  177.2730  138.4550 N   0  0  0  0  0  2  0  0  0  0  0  0
  184.3290  178.5240  138.6150 C   0  0  0  0  0  0  0  0  0  0  0  0
  1  2  1  1  0  0  0
  1 14  1  0  0  0  0
  3  2  1  0  0  0  0
  3  1  1  0  0  0  0
  4  9  1  0  0  0  0
  5 11  1  0  0  0  0
  6  7  2  0  0  0  0
  6 10  1  0  0  0  0
  8 11  1  0  0  0  0
  9  8  1  0  0  0  0
 11 10  1  0  0  0  0
 12 14  1  0  0  0  0
 12  9  1  0  0  0  0
 12  5  1  0  0  0  0
 13  6  1  0  0  0  0
 14 13  1  0  0  0  0
 14  5  1  0  0  0  0
 15 18  2  0  0  0  0
 16 21  1  0  0  0  0
 17 20  1  0  0  0  0
 18 22  1  0  0  0  0
 18 16  1  0  0  0  0
 19 17  1  0  0  0  0
 19 15  1  0  0  0  0
 20 24  1  0  0  0  0
 20 21  2  0  0  0  0
 21  3  1  0  0  0  0
 24 26  1  0  0  0  0
 25 26  2  0  0  0  0
 26 23  1  0  0  0  0
M  END
>  <MODEL>
9

>  <REMARK>
 VINA RESULT:      -6.8      2.353      4.441
  Name = 
  3 active torsions:
  status: ('A' for Active; 'I' for Inactive)
    1  A    between atoms: C_2  and  C_26
    2  A    between atoms: N_12  and  C_21
    3  A    between atoms: N_18  and  C_19
                            x       y       z     vdW  Elec       q    Type
                         _______ _______ _______ _____ _____    ______ ____

>  <TORSDO>
F 3

$$$$
