=
 OpenBabel11032421083D

 54 59  0  0  1  0  0  0  0  0999 V2000
  183.0890  176.7520  139.1690 C   0  0  0  0  0  1  0  0  0  0  0  0
  183.1350  176.9450  136.7530 N   0  0  0  0  0  0  0  0  0  0  0  0
  184.4510  176.6530  136.1810 C   0  0  1  0  0  3  0  0  0  0  0  0
  185.5310  177.2360  137.0790 C   0  0  1  0  0  3  0  0  0  0  0  0
  186.5520  177.9710  136.2320 C   0  0  0  0  0  1  0  0  0  0  0  0
  184.7910  178.2120  137.9570 C   0  0  1  0  0  3  0  0  0  0  0  0
  183.3610  177.6830  137.9930 C   0  0  2  0  0  3  0  0  0  0  0  0
  182.3820  171.2840  135.7000 C   0  0  0  0  0  0  0  0  0  0  0  0
  182.3710  172.2940  134.9120 N   0  0  0  0  0  0  0  0  0  0  0  0
  184.6220  175.1520  135.9340 C   0  0  2  0  0  3  0  0  0  0  0  0
  183.5270  171.2130  136.5090 N   0  0  0  0  0  2  0  0  0  0  0  0
  181.3120  170.3510  135.7760 N   0  0  0  0  0  1  0  0  0  0  0  0
  184.3960  173.1220  137.4540 C   0  0  0  0  0  2  0  0  0  0  0  0
  183.3630  174.4970  135.3540 C   0  0  0  0  0  2  0  0  0  0  0  0
  183.6230  173.0050  135.1210 C   0  0  1  0  0  3  0  0  0  0  0  0
  184.3470  172.3150  136.2300 N   0  0  2  0  0  0  0  0  0  0  0  0
  185.1210  174.4440  137.2020 C   0  0  0  0  0  2  0  0  0  0  0  0
  186.8430  178.5980  139.2050 O   0  0  0  0  0  1  0  0  0  0  0  0
  185.4590  178.4250  139.3300 C   0  0  1  0  0  3  0  0  0  0  0  0
  184.8810  179.4840  140.0750 O   0  0  0  0  0  0  0  0  0  0  0  0
  185.4060  179.4710  141.3750 C   0  0  0  0  0  2  0  0  0  0  0  0
  184.9830  178.2090  142.1000 C   0  0  0  0  0  2  0  0  0  0  0  0
  185.7930  178.0100  143.2940 N   0  0  0  0  0  0  0  0  0  0  0  0
  186.0480  178.3130  145.6000 O   0  0  0  0  0  1  0  0  0  0  0  0
  185.3780  178.5600  144.5620 C   0  0  0  0  0  0  0  0  0  0  0  0
  184.2410  179.3550  144.6600 O   0  0  0  0  0  0  0  0  0  0  0  0
  187.0160  177.2300  143.2120 C   0  0  0  0  0  2  0  0  0  0  0  0
  189.4550  177.7410  143.8830 C   0  0  2  0  0  3  0  0  0  0  0  0
  188.2570  178.1150  143.0190 C   0  0  1  0  0  3  0  0  0  0  0  0
  188.7590  177.9350  141.6060 C   0  0  0  0  0  2  0  0  0  0  0  0
  189.4690  176.6600  141.5210 N   0  0  0  0  0  0  0  0  0  0  0  0
  190.3690  176.4170  143.0390 S   0  0  0  0  0  0  0  0  0  0  0  0
  190.0430  177.0360  146.2040 C   0  0  0  0  0  0  0  0  0  0  0  0
  189.1290  177.3750  145.2970 C   0  0  0  0  0  3  0  0  0  0  0  0
  188.2700  176.9320  147.9290 C   0  0  0  0  0  1  0  0  0  0  0  0
  189.6040  176.6900  147.4810 O   0  0  0  0  0  0  0  0  0  0  0  0
  192.2520  176.7040  146.9910 O   0  0  0  0  0  1  0  0  0  0  0  0
  191.5020  177.0110  145.8560 C   0  0  0  0  0  2  0  0  0  0  0  0
  190.4490  176.7890  140.4530 C   0  0  0  0  0  2  0  0  0  0  0  0
  190.4180  175.6620  138.2370 C   0  0  0  0  0  1  0  0  0  0  0  0
  189.8620  178.0680  138.4120 C   0  0  0  0  0  1  0  0  0  0  0  0
  189.7590  176.7190  139.1030 C   0  0  0  0  0  3  0  0  0  0  0  0
  182.5240  177.7980  135.8960 O   0  0  0  0  0  0  0  0  0  0  0  0
  180.8270  179.2840  136.6310 C   0  0  1  0  0  3  0  0  0  0  0  0
  181.1940  177.8470  136.3170 C   0  0  1  0  0  3  0  0  0  0  0  0
  180.3910  178.6510  135.3130 C   0  0  1  0  0  3  0  0  0  0  0  0
  179.0540  178.2470  135.3490 O   0  0  0  0  0  1  0  0  0  0  0  0
  179.7620  179.3090  137.5760 O   0  0  0  0  0  0  0  0  0  0  0  0
  179.8820  178.9700  138.9340 C   0  0  0  0  0  0  0  0  0  0  0  0
  179.4840  177.7980  139.2950 N   0  0  0  0  0  2  0  0  0  0  0  0
  181.3890  179.2700  141.0090 C   0  0  0  0  0  2  0  0  0  0  0  0
  180.7440  181.1920  139.6730 F   0  0  0  0  0  0  0  0  0  0  0  0
  179.9820  179.6920  141.4270 C   0  0  0  0  0  2  0  0  0  0  0  0
  180.4460  179.8810  140.0020 C   0  0  0  0  0  0  0  0  0  0  0  0
  2  7  1  0  0  0  0
  3  2  1  1  0  0  0
  3  4  1  0  0  0  0
  4  5  1  6  0  0  0
  4  6  1  0  0  0  0
  6  7  1  0  0  0  0
  6 19  1  1  0  0  0
  7  1  1  1  0  0  0
  8 12  1  0  0  0  0
  8 11  1  0  0  0  0
  9 15  1  0  0  0  0
  9  8  2  0  0  0  0
 10 14  1  1  0  0  0
 10  3  1  0  0  0  0
 10 17  1  0  0  0  0
 15 14  1  1  0  0  0
 15 16  1  0  0  0  0
 16 11  1  0  0  0  0
 16 13  1  1  0  0  0
 17 13  1  0  0  0  0
 19 18  1  6  0  0  0
 19 20  1  0  0  0  0
 20 21  1  0  0  0  0
 21 22  1  0  0  0  0
 22 23  1  0  0  0  0
 23 25  1  0  0  0  0
 25 26  2  0  0  0  0
 25 24  1  0  0  0  0
 27 23  1  0  0  0  0
 28 34  1  1  0  0  0
 29 27  1  1  0  0  0
 29 28  1  0  0  0  0
 30 29  1  0  0  0  0
 31 30  1  0  0  0  0
 31 32  1  0  0  0  0
 32 28  1  0  0  0  0
 33 36  1  0  0  0  0
 34 33  2  0  0  0  0
 36 35  1  0  0  0  0
 38 33  1  0  0  0  0
 38 37  1  0  0  0  0
 39 31  1  0  0  0  0
 40 42  1  0  0  0  0
 41 42  1  0  0  0  0
 42 39  1  0  0  0  0
 43  2  1  0  0  0  0
 44 48  1  1  0  0  0
 45 43  1  6  0  0  0
 45 44  1  0  0  0  0
 46 47  1  1  0  0  0
 46 45  1  0  0  0  0
 46 44  1  0  0  0  0
 48 49  1  0  0  0  0
 49 50  2  0  0  0  0
 49 54  1  0  0  0  0
 51 53  1  0  0  0  0
 52 54  1  0  0  0  0
 54 51  1  0  0  0  0
 54 53  1  0  0  0  0
M  END
>  <MODEL>
1

>  <REMARK>
 VINA RESULT:      -7.0      0.000      0.000
  Name = 
  18 active torsions:
  status: ('A' for Active; 'I' for Inactive)
    1  A    between atoms: C_1  and  O_47
    2  A    between atoms: C_1  and  C_51
    3  A    between atoms: C_2  and  O_5
    4  A    between atoms: C_2  and  C_40
    5  A    between atoms: N_4  and  O_28
    6  A    between atoms: O_5  and  C_31
    7  A    between atoms: C_8  and  N_15
    8  A    between atoms: C_8  and  C_18
    9  A    between atoms: C_9  and  O_32
   10  A    between atoms: C_10  and  N_33
   11  A    between atoms: C_10  and  C_50
   12  A    between atoms: C_13  and  C_20
   13  A    between atoms: C_14  and  C_17
   14  A    between atoms: N_15  and  C_40
   15  A    between atoms: C_19  and  O_28
   16  A    between atoms: C_27  and  C_31
   17  A    between atoms: O_32  and  C_34
   18  A    between atoms: C_34  and  C_54
                            x       y       z     vdW  Elec       q    Type
                         _______ _______ _______ _____ _____    ______ ____

>  <TORSDO>
F 18

$$$$
=
 OpenBabel11032421083D

 54 59  0  0  1  0  0  0  0  0999 V2000
  183.5150  179.5820  139.0210 C   0  0  0  0  0  1  0  0  0  0  0  0
  181.6690  178.1770  138.3160 N   0  0  0  0  0  0  0  0  0  0  0  0
  180.4200  178.4780  139.0190 C   0  0  1  0  0  3  0  0  0  0  0  0
  180.7240  178.7770  140.4790 C   0  0  1  0  0  3  0  0  0  0  0  0
  179.7480  178.0260  141.3630 C   0  0  0  0  0  1  0  0  0  0  0  0
  182.1180  178.2440  140.6810 C   0  0  1  0  0  3  0  0  0  0  0  0
  182.7490  178.2930  139.2930 C   0  0  2  0  0  3  0  0  0  0  0  0
  180.1950  183.3090  135.8630 C   0  0  0  0  0  0  0  0  0  0  0  0
  180.3890  182.0790  135.5590 N   0  0  0  0  0  0  0  0  0  0  0  0
  179.6560  179.6070  138.3220 C   0  0  2  0  0  3  0  0  0  0  0  0
  179.3310  183.4890  136.9560 N   0  0  0  0  0  2  0  0  0  0  0  0
  180.8330  184.3820  135.1850 N   0  0  0  0  0  1  0  0  0  0  0  0
  179.4750  182.1040  138.7860 C   0  0  0  0  0  2  0  0  0  0  0  0
  180.4110  180.1790  137.1160 C   0  0  0  0  0  2  0  0  0  0  0  0
  179.5730  181.2870  136.4670 C   0  0  1  0  0  3  0  0  0  0  0  0
  178.9320  182.2330  137.4300 N   0  0  2  0  0  0  0  0  0  0  0  0
  179.2490  180.6930  139.3280 C   0  0  0  0  0  2  0  0  0  0  0  0
  182.4360  178.6100  143.0650 O   0  0  0  0  0  1  0  0  0  0  0  0
  182.8960  178.9760  141.7940 C   0  0  1  0  0  3  0  0  0  0  0  0
  184.3010  178.8100  141.6960 O   0  0  0  0  0  0  0  0  0  0  0  0
  184.7360  177.9650  142.7260 C   0  0  0  0  0  2  0  0  0  0  0  0
  185.7160  178.6930  143.6250 C   0  0  0  0  0  2  0  0  0  0  0  0
  186.8760  177.8570  143.9010 N   0  0  0  0  0  0  0  0  0  0  0  0
  188.2500  176.8160  145.4830 O   0  0  0  0  0  0  0  0  0  0  0  0
  187.2930  177.6040  145.2580 C   0  0  0  0  0  0  0  0  0  0  0  0
  186.6480  178.2130  146.3310 O   0  0  0  0  0  1  0  0  0  0  0  0
  187.6040  177.2520  142.7980 C   0  0  0  0  0  2  0  0  0  0  0  0
  190.0040  177.6780  141.9500 C   0  0  2  0  0  3  0  0  0  0  0  0
  188.5990  178.2290  142.1530 C   0  0  1  0  0  3  0  0  0  0  0  0
  188.1260  178.5400  140.7530 C   0  0  0  0  0  2  0  0  0  0  0  0
  188.4470  177.4060  139.8890 N   0  0  0  0  0  0  0  0  0  0  0  0
  190.0270  176.7510  140.3870 S   0  0  0  0  0  0  0  0  0  0  0  0
  191.3940  177.3240  143.9930 C   0  0  0  0  0  0  0  0  0  0  0  0
  190.5360  176.8600  143.0860 C   0  0  0  0  0  3  0  0  0  0  0  0
  191.4940  176.6160  146.3640 C   0  0  0  0  0  1  0  0  0  0  0  0
  191.8330  176.4500  144.9870 O   0  0  0  0  0  0  0  0  0  0  0  0
  190.8710  179.6090  144.3300 O   0  0  0  0  0  1  0  0  0  0  0  0
  191.8880  178.7380  143.9360 C   0  0  0  0  0  2  0  0  0  0  0  0
  188.6020  177.9300  138.5390 C   0  0  0  0  0  2  0  0  0  0  0  0
  188.1220  177.3820  136.1620 C   0  0  0  0  0  1  0  0  0  0  0  0
  186.2600  177.8220  137.7340 C   0  0  0  0  0  1  0  0  0  0  0  0
  187.6490  177.2220  137.5940 C   0  0  0  0  0  3  0  0  0  0  0  0
  181.6030  176.8710  137.9590 O   0  0  0  0  0  0  0  0  0  0  0  0
  182.3170  175.6560  136.0510 C   0  0  1  0  0  3  0  0  0  0  0  0
  182.6950  176.6700  137.1130 C   0  0  1  0  0  3  0  0  0  0  0  0
  182.3300  177.1460  135.7200 C   0  0  1  0  0  3  0  0  0  0  0  0
  183.4880  177.5130  135.0310 O   0  0  0  0  0  1  0  0  0  0  0  0
  183.4890  175.0050  135.5740 O   0  0  0  0  0  0  0  0  0  0  0  0
  183.7140  173.6180  135.6150 C   0  0  0  0  0  0  0  0  0  0  0  0
  182.8800  172.8590  134.9910 N   0  0  0  0  0  2  0  0  0  0  0  0
  185.0440  173.2710  137.8000 C   0  0  0  0  0  2  0  0  0  0  0  0
  185.2130  171.6600  135.9920 F   0  0  0  0  0  0  0  0  0  0  0  0
  186.0330  173.8110  136.7690 C   0  0  0  0  0  2  0  0  0  0  0  0
  184.8670  172.9540  136.3360 C   0  0  0  0  0  0  0  0  0  0  0  0
  2  7  1  0  0  0  0
  3  2  1  6  0  0  0
  3  4  1  0  0  0  0
  4  6  1  0  0  0  0
  4  5  1  1  0  0  0
  6 19  1  1  0  0  0
  7  1  1  6  0  0  0
  7  6  1  0  0  0  0
  8 11  1  0  0  0  0
  9  8  2  0  0  0  0
  9 15  1  0  0  0  0
 10 14  1  6  0  0  0
 10  3  1  0  0  0  0
 10 17  1  0  0  0  0
 11 16  1  0  0  0  0
 12  8  1  0  0  0  0
 13 17  1  0  0  0  0
 15 14  1  1  0  0  0
 15 16  1  0  0  0  0
 16 13  1  1  0  0  0
 19 18  1  1  0  0  0
 20 19  1  0  0  0  0
 20 21  1  0  0  0  0
 21 22  1  0  0  0  0
 22 23  1  0  0  0  0
 23 25  1  0  0  0  0
 25 24  2  0  0  0  0
 25 26  1  0  0  0  0
 27 23  1  0  0  0  0
 28 29  1  0  0  0  0
 28 34  1  1  0  0  0
 29 27  1  6  0  0  0
 30 29  1  0  0  0  0
 31 32  1  0  0  0  0
 31 30  1  0  0  0  0
 32 28  1  0  0  0  0
 33 36  1  0  0  0  0
 34 33  2  0  0  0  0
 36 35  1  0  0  0  0
 38 33  1  0  0  0  0
 38 37  1  0  0  0  0
 39 31  1  0  0  0  0
 40 42  1  0  0  0  0
 42 41  1  0  0  0  0
 42 39  1  0  0  0  0
 43  2  1  0  0  0  0
 44 48  1  6  0  0  0
 44 45  1  0  0  0  0
 45 43  1  1  0  0  0
 46 47  1  6  0  0  0
 46 44  1  0  0  0  0
 46 45  1  0  0  0  0
 48 49  1  0  0  0  0
 49 54  1  0  0  0  0
 50 49  2  0  0  0  0
 52 54  1  0  0  0  0
 53 51  1  0  0  0  0
 54 53  1  0  0  0  0
 54 51  1  0  0  0  0
M  END
>  <MODEL>
2

>  <REMARK>
 VINA RESULT:      -6.9      2.885      6.144
  Name = 
  18 active torsions:
  status: ('A' for Active; 'I' for Inactive)
    1  A    between atoms: C_1  and  O_47
    2  A    between atoms: C_1  and  C_51
    3  A    between atoms: C_2  and  O_5
    4  A    between atoms: C_2  and  C_40
    5  A    between atoms: N_4  and  O_28
    6  A    between atoms: O_5  and  C_31
    7  A    between atoms: C_8  and  N_15
    8  A    between atoms: C_8  and  C_18
    9  A    between atoms: C_9  and  O_32
   10  A    between atoms: C_10  and  N_33
   11  A    between atoms: C_10  and  C_50
   12  A    between atoms: C_13  and  C_20
   13  A    between atoms: C_14  and  C_17
   14  A    between atoms: N_15  and  C_40
   15  A    between atoms: C_19  and  O_28
   16  A    between atoms: C_27  and  C_31
   17  A    between atoms: O_32  and  C_34
   18  A    between atoms: C_34  and  C_54
                            x       y       z     vdW  Elec       q    Type
                         _______ _______ _______ _____ _____    ______ ____

>  <TORSDO>
F 18

$$$$
=
 OpenBabel11032421083D

 54 59  0  0  1  0  0  0  0  0999 V2000
  183.1540  176.5670  139.0740 C   0  0  0  0  0  1  0  0  0  0  0  0
  183.3470  177.1010  136.7170 N   0  0  0  0  0  0  0  0  0  0  0  0
  184.7270  177.0410  136.2290 C   0  0  1  0  0  3  0  0  0  0  0  0
  185.6600  177.6100  137.2870 C   0  0  1  0  0  3  0  0  0  0  0  0
  186.6400  178.5670  136.6350 C   0  0  0  0  0  1  0  0  0  0  0  0
  184.7450  178.3640  138.2160 C   0  0  1  0  0  3  0  0  0  0  0  0
  183.3920  177.6780  138.0590 C   0  0  2  0  0  3  0  0  0  0  0  0
  183.4680  171.4740  135.3600 C   0  0  0  0  0  0  0  0  0  0  0  0
  183.2140  172.5370  134.6920 N   0  0  0  0  0  0  0  0  0  0  0  0
  185.0990  175.6190  135.8030 C   0  0  2  0  0  3  0  0  0  0  0  0
  184.6940  171.5170  136.0440 N   0  0  0  0  0  2  0  0  0  0  0  0
  182.5700  170.3750  135.4340 N   0  0  0  0  0  1  0  0  0  0  0  0
  185.3580  173.4460  137.1060 C   0  0  0  0  0  2  0  0  0  0  0  0
  183.8980  174.8230  135.2780 C   0  0  0  0  0  2  0  0  0  0  0  0
  184.3580  173.4220  134.8580 C   0  0  1  0  0  3  0  0  0  0  0  0
  185.2980  172.7600  135.8110 N   0  0  2  0  0  0  0  0  0  0  0  0
  185.8380  174.8870  136.9330 C   0  0  0  0  0  2  0  0  0  0  0  0
  186.6790  178.3610  139.6930 O   0  0  0  0  0  1  0  0  0  0  0  0
  185.2830  178.4560  139.6590 C   0  0  1  0  0  3  0  0  0  0  0  0
  184.8360  179.6110  140.3500 O   0  0  0  0  0  0  0  0  0  0  0  0
  185.3190  179.5750  141.6650 C   0  0  0  0  0  2  0  0  0  0  0  0
  184.9510  178.2610  142.3250 C   0  0  0  0  0  2  0  0  0  0  0  0
  185.8130  178.0050  143.4710 N   0  0  0  0  0  0  0  0  0  0  0  0
  186.1550  178.1640  145.7800 O   0  0  0  0  0  1  0  0  0  0  0  0
  185.4380  178.4600  144.7880 C   0  0  0  0  0  0  0  0  0  0  0  0
  184.2880  179.2190  144.9820 O   0  0  0  0  0  0  0  0  0  0  0  0
  187.0490  177.2630  143.2890 C   0  0  0  0  0  2  0  0  0  0  0  0
  189.4350  177.8120  144.1080 C   0  0  2  0  0  3  0  0  0  0  0  0
  188.2730  178.1870  143.1960 C   0  0  1  0  0  3  0  0  0  0  0  0
  188.8520  178.0760  141.8060 C   0  0  0  0  0  2  0  0  0  0  0  0
  189.6010  176.8240  141.7110 N   0  0  0  0  0  0  0  0  0  0  0  0
  190.4280  176.5460  143.2640 S   0  0  0  0  0  0  0  0  0  0  0  0
  189.9110  176.9310  146.3940 C   0  0  0  0  0  0  0  0  0  0  0  0
  189.0450  177.3820  145.4880 C   0  0  0  0  0  3  0  0  0  0  0  0
  188.5150  177.3440  148.3970 C   0  0  0  0  0  1  0  0  0  0  0  0
  189.4140  176.5380  147.6360 O   0  0  0  0  0  0  0  0  0  0  0  0
  192.1100  176.8380  147.2660 O   0  0  0  0  0  1  0  0  0  0  0  0
  191.3740  176.8340  146.0820 C   0  0  0  0  0  2  0  0  0  0  0  0
  190.6330  177.0200  140.7020 C   0  0  0  0  0  2  0  0  0  0  0  0
  191.0780  175.8980  138.5290 C   0  0  0  0  0  1  0  0  0  0  0  0
  189.7930  178.0130  138.5920 C   0  0  0  0  0  1  0  0  0  0  0  0
  190.0760  176.7130  139.3240 C   0  0  0  0  0  3  0  0  0  0  0  0
  182.6990  177.9920  135.9300 O   0  0  0  0  0  0  0  0  0  0  0  0
  180.9580  176.4070  136.2200 C   0  0  1  0  0  3  0  0  0  0  0  0
  181.7520  177.2410  135.2330 C   0  0  1  0  0  3  0  0  0  0  0  0
  180.3650  177.6920  135.6480 C   0  0  1  0  0  3  0  0  0  0  0  0
  179.4570  177.4300  134.6190 O   0  0  0  0  0  1  0  0  0  0  0  0
  180.4400  175.2550  135.5640 O   0  0  0  0  0  0  0  0  0  0  0  0
  180.0220  174.0790  136.2090 C   0  0  0  0  0  0  0  0  0  0  0  0
  178.9550  173.5030  135.7710 N   0  0  0  0  0  2  0  0  0  0  0  0
  180.3280  172.0400  137.7620 C   0  0  0  0  0  2  0  0  0  0  0  0
  182.0820  173.7070  137.5670 F   0  0  0  0  0  0  0  0  0  0  0  0
  179.9670  173.2200  138.6590 C   0  0  0  0  0  2  0  0  0  0  0  0
  180.7370  173.4400  137.3790 C   0  0  0  0  0  0  0  0  0  0  0  0
  2  7  1  0  0  0  0
  3  2  1  1  0  0  0
  3  4  1  0  0  0  0
  4  5  1  6  0  0  0
  4  6  1  0  0  0  0
  6 19  1  1  0  0  0
  7  6  1  0  0  0  0
  7  1  1  1  0  0  0
  8 12  1  0  0  0  0
  8 11  1  0  0  0  0
  9 15  1  0  0  0  0
  9  8  2  0  0  0  0
 10 14  1  1  0  0  0
 10  3  1  0  0  0  0
 10 17  1  0  0  0  0
 15 14  1  1  0  0  0
 15 16  1  0  0  0  0
 16 11  1  0  0  0  0
 16 13  1  1  0  0  0
 17 13  1  0  0  0  0
 19 18  1  6  0  0  0
 19 20  1  0  0  0  0
 20 21  1  0  0  0  0
 21 22  1  0  0  0  0
 22 23  1  0  0  0  0
 23 25  1  0  0  0  0
 25 26  2  0  0  0  0
 25 24  1  0  0  0  0
 27 23  1  0  0  0  0
 28 34  1  1  0  0  0
 29 27  1  6  0  0  0
 29 28  1  0  0  0  0
 30 29  1  0  0  0  0
 31 30  1  0  0  0  0
 31 32  1  0  0  0  0
 32 28  1  0  0  0  0
 33 36  1  0  0  0  0
 34 33  2  0  0  0  0
 36 35  1  0  0  0  0
 38 33  1  0  0  0  0
 38 37  1  0  0  0  0
 39 31  1  0  0  0  0
 40 42  1  0  0  0  0
 41 42  1  0  0  0  0
 42 39  1  0  0  0  0
 43  2  1  0  0  0  0
 44 48  1  6  0  0  0
 45 46  1  0  0  0  0
 45 43  1  1  0  0  0
 45 44  1  0  0  0  0
 46 47  1  6  0  0  0
 46 44  1  0  0  0  0
 48 49  1  0  0  0  0
 49 54  1  0  0  0  0
 50 49  2  0  0  0  0
 51 53  1  0  0  0  0
 54 52  1  0  0  0  0
 54 51  1  0  0  0  0
 54 53  1  0  0  0  0
M  END
>  <MODEL>
3

>  <REMARK>
 VINA RESULT:      -6.5      1.864      2.491
  Name = 
  18 active torsions:
  status: ('A' for Active; 'I' for Inactive)
    1  A    between atoms: C_1  and  O_47
    2  A    between atoms: C_1  and  C_51
    3  A    between atoms: C_2  and  O_5
    4  A    between atoms: C_2  and  C_40
    5  A    between atoms: N_4  and  O_28
    6  A    between atoms: O_5  and  C_31
    7  A    between atoms: C_8  and  N_15
    8  A    between atoms: C_8  and  C_18
    9  A    between atoms: C_9  and  O_32
   10  A    between atoms: C_10  and  N_33
   11  A    between atoms: C_10  and  C_50
   12  A    between atoms: C_13  and  C_20
   13  A    between atoms: C_14  and  C_17
   14  A    between atoms: N_15  and  C_40
   15  A    between atoms: C_19  and  O_28
   16  A    between atoms: C_27  and  C_31
   17  A    between atoms: O_32  and  C_34
   18  A    between atoms: C_34  and  C_54
                            x       y       z     vdW  Elec       q    Type
                         _______ _______ _______ _____ _____    ______ ____

>  <TORSDO>
F 18

$$$$
=
 OpenBabel11032421083D

 54 59  0  0  1  0  0  0  0  0999 V2000
  183.9320  179.8340  139.3260 C   0  0  0  0  0  1  0  0  0  0  0  0
  182.3640  178.1320  138.6040 N   0  0  0  0  0  0  0  0  0  0  0  0
  181.0380  178.2840  139.2050 C   0  0  1  0  0  3  0  0  0  0  0  0
  181.1900  178.7080  140.6590 C   0  0  1  0  0  3  0  0  0  0  0  0
  180.2720  177.8710  141.5290 C   0  0  0  0  0  1  0  0  0  0  0  0
  182.6280  178.4010  140.9820 C   0  0  1  0  0  3  0  0  0  0  0  0
  183.3430  178.4630  139.6360 C   0  0  2  0  0  3  0  0  0  0  0  0
  180.3330  182.8840  135.7880 C   0  0  0  0  0  0  0  0  0  0  0  0
  180.7470  181.6920  135.5680 N   0  0  0  0  0  0  0  0  0  0  0  0
  180.1700  179.2440  138.3880 C   0  0  2  0  0  3  0  0  0  0  0  0
  179.3560  182.9640  136.7940 N   0  0  0  0  0  2  0  0  0  0  0  0
  180.8500  184.0200  135.1090 N   0  0  0  0  0  1  0  0  0  0  0  0
  179.5520  181.6940  138.7010 C   0  0  0  0  0  2  0  0  0  0  0  0
  180.9300  179.8840  137.2210 C   0  0  0  0  0  2  0  0  0  0  0  0
  179.9890  180.8140  136.4460 C   0  0  1  0  0  3  0  0  0  0  0  0
  179.1210  181.6790  137.2990 N   0  0  2  0  0  0  0  0  0  0  0  0
  179.5050  180.2880  139.2970 C   0  0  0  0  0  2  0  0  0  0  0  0
  182.6310  179.0250  143.3340 O   0  0  0  0  0  1  0  0  0  0  0  0
  183.2100  179.3030  142.0900 C   0  0  1  0  0  3  0  0  0  0  0  0
  184.6250  179.2520  142.1670 O   0  0  0  0  0  0  0  0  0  0  0  0
  185.0120  178.0060  142.6810 C   0  0  0  0  0  2  0  0  0  0  0  0
  184.7310  177.9420  144.1690 C   0  0  0  0  0  2  0  0  0  0  0  0
  185.9070  178.3450  144.9290 N   0  0  0  0  0  0  0  0  0  0  0  0
  186.8910  178.7360  147.0150 O   0  0  0  0  0  0  0  0  0  0  0  0
  185.8470  178.4630  146.3660 C   0  0  0  0  0  0  0  0  0  0  0  0
  184.6510  178.2730  147.0510 O   0  0  0  0  0  1  0  0  0  0  0  0
  187.1570  178.6060  144.2350 C   0  0  0  0  0  2  0  0  0  0  0  0
  188.8680  177.3880  142.7350 C   0  0  2  0  0  3  0  0  0  0  0  0
  187.9370  177.3160  143.9390 C   0  0  1  0  0  3  0  0  0  0  0  0
  188.8640  177.0400  145.0980 C   0  0  0  0  0  2  0  0  0  0  0  0
  190.0140  177.9370  145.0010 N   0  0  0  0  0  0  0  0  0  0  0  0
  190.4410  178.1170  143.2810 S   0  0  0  0  0  0  0  0  0  0  0  0
  188.7040  177.8710  140.2920 C   0  0  0  0  0  0  0  0  0  0  0  0
  188.3110  178.1020  141.5430 C   0  0  0  0  0  3  0  0  0  0  0  0
  188.4160  178.4100  137.8920 C   0  0  0  0  0  1  0  0  0  0  0  0
  188.1220  178.6250  139.2720 O   0  0  0  0  0  0  0  0  0  0  0  0
  191.0010  177.4570  139.8940 O   0  0  0  0  0  1  0  0  0  0  0  0
  189.7520  176.8430  139.9900 C   0  0  0  0  0  2  0  0  0  0  0  0
  191.1310  177.2710  145.6560 C   0  0  0  0  0  2  0  0  0  0  0  0
  190.4120  177.6820  148.0000 C   0  0  0  0  0  1  0  0  0  0  0  0
  191.7330  175.6630  147.4440 C   0  0  0  0  0  1  0  0  0  0  0  0
  190.6650  176.6210  146.9460 C   0  0  0  0  0  3  0  0  0  0  0  0
  182.5140  176.8130  138.3330 O   0  0  0  0  0  0  0  0  0  0  0  0
  183.0360  175.5170  136.4150 C   0  0  1  0  0  3  0  0  0  0  0  0
  183.3530  176.7630  137.2180 C   0  0  1  0  0  3  0  0  0  0  0  0
  182.5090  176.8760  135.9640 C   0  0  1  0  0  3  0  0  0  0  0  0
  183.2780  177.4120  134.9270 O   0  0  0  0  0  1  0  0  0  0  0  0
  184.1830  175.1270  135.6680 O   0  0  0  0  0  0  0  0  0  0  0  0
  185.1220  174.1640  136.0760 C   0  0  0  0  0  0  0  0  0  0  0  0
  186.3370  174.3050  135.6700 N   0  0  0  0  0  2  0  0  0  0  0  0
  184.7370  171.6210  136.3000 C   0  0  0  0  0  2  0  0  0  0  0  0
  185.3080  172.9520  138.2490 F   0  0  0  0  0  0  0  0  0  0  0  0
  183.4660  172.3000  136.8040 C   0  0  0  0  0  2  0  0  0  0  0  0
  184.8080  172.9760  136.9590 C   0  0  0  0  0  0  0  0  0  0  0  0
  2  7  1  0  0  0  0
  3  2  1  6  0  0  0
  3  4  1  0  0  0  0
  4  6  1  0  0  0  0
  4  5  1  1  0  0  0
  6 19  1  1  0  0  0
  7  1  1  6  0  0  0
  7  6  1  0  0  0  0
  8 11  1  0  0  0  0
  9  8  2  0  0  0  0
  9 15  1  0  0  0  0
 10 14  1  6  0  0  0
 10  3  1  0  0  0  0
 10 17  1  0  0  0  0
 11 16  1  0  0  0  0
 12  8  1  0  0  0  0
 13 17  1  0  0  0  0
 15 14  1  1  0  0  0
 15 16  1  0  0  0  0
 16 13  1  1  0  0  0
 19 20  1  0  0  0  0
 19 18  1  1  0  0  0
 20 21  1  0  0  0  0
 21 22  1  0  0  0  0
 22 23  1  0  0  0  0
 23 25  1  0  0  0  0
 25 24  2  0  0  0  0
 25 26  1  0  0  0  0
 27 23  1  0  0  0  0
 28 34  1  6  0  0  0
 28 32  1  0  0  0  0
 28 29  1  0  0  0  0
 29 27  1  1  0  0  0
 29 30  1  0  0  0  0
 31 30  1  0  0  0  0
 31 39  1  0  0  0  0
 32 31  1  0  0  0  0
 33 34  2  0  0  0  0
 35 36  1  0  0  0  0
 36 33  1  0  0  0  0
 37 38  1  0  0  0  0
 38 33  1  0  0  0  0
 39 42  1  0  0  0  0
 42 41  1  0  0  0  0
 42 40  1  0  0  0  0
 43  2  1  0  0  0  0
 44 48  1  6  0  0  0
 44 45  1  0  0  0  0
 45 43  1  1  0  0  0
 46 47  1  6  0  0  0
 46 44  1  0  0  0  0
 46 45  1  0  0  0  0
 48 49  1  0  0  0  0
 49 54  1  0  0  0  0
 50 49  2  0  0  0  0
 51 53  1  0  0  0  0
 51 54  1  0  0  0  0
 53 54  1  0  0  0  0
 54 52  1  0  0  0  0
M  END
>  <MODEL>
4

>  <REMARK>
 VINA RESULT:      -6.1      2.733      6.755
  Name = 
  18 active torsions:
  status: ('A' for Active; 'I' for Inactive)
    1  A    between atoms: C_1  and  O_47
    2  A    between atoms: C_1  and  C_51
    3  A    between atoms: C_2  and  O_5
    4  A    between atoms: C_2  and  C_40
    5  A    between atoms: N_4  and  O_28
    6  A    between atoms: O_5  and  C_31
    7  A    between atoms: C_8  and  N_15
    8  A    between atoms: C_8  and  C_18
    9  A    between atoms: C_9  and  O_32
   10  A    between atoms: C_10  and  N_33
   11  A    between atoms: C_10  and  C_50
   12  A    between atoms: C_13  and  C_20
   13  A    between atoms: C_14  and  C_17
   14  A    between atoms: N_15  and  C_40
   15  A    between atoms: C_19  and  O_28
   16  A    between atoms: C_27  and  C_31
   17  A    between atoms: O_32  and  C_34
   18  A    between atoms: C_34  and  C_54
                            x       y       z     vdW  Elec       q    Type
                         _______ _______ _______ _____ _____    ______ ____

>  <TORSDO>
F 18

$$$$
=
 OpenBabel11032421083D

 54 59  0  0  1  0  0  0  0  0999 V2000
  188.3760  179.7910  141.4550 C   0  0  0  0  0  1  0  0  0  0  0  0
  187.2300  178.2550  142.9390 N   0  0  0  0  0  0  0  0  0  0  0  0
  188.1170  177.2350  143.5030 C   0  0  1  0  0  3  0  0  0  0  0  0
  189.1000  176.7780  142.4350 C   0  0  1  0  0  3  0  0  0  0  0  0
  189.1790  175.2630  142.4340 C   0  0  0  0  0  1  0  0  0  0  0  0
  188.4930  177.2640  141.1450 C   0  0  1  0  0  3  0  0  0  0  0  0
  187.6400  178.4600  141.5520 C   0  0  2  0  0  3  0  0  0  0  0  0
  191.9010  176.6990  147.8310 C   0  0  0  0  0  0  0  0  0  0  0  0
  192.0320  177.0070  146.5940 N   0  0  0  0  0  0  0  0  0  0  0  0
  188.8040  177.7440  144.7720 C   0  0  2  0  0  3  0  0  0  0  0  0
  190.6890  177.1310  148.3940 N   0  0  0  0  0  2  0  0  0  0  0  0
  192.8740  175.9500  148.5470 N   0  0  0  0  0  1  0  0  0  0  0  0
  188.7330  176.9660  147.1960 C   0  0  0  0  0  2  0  0  0  0  0  0
  190.2250  177.1940  144.9400 C   0  0  0  0  0  2  0  0  0  0  0  0
  190.8460  177.7640  146.2210 C   0  0  1  0  0  3  0  0  0  0  0  0
  189.9370  177.7780  147.4050 N   0  0  2  0  0  0  0  0  0  0  0  0
  187.9270  177.4890  146.0070 C   0  0  0  0  0  2  0  0  0  0  0  0
  190.8430  177.3740  140.5240 O   0  0  0  0  0  1  0  0  0  0  0  0
  189.5380  177.5330  140.0430 C   0  0  1  0  0  3  0  0  0  0  0  0
  189.3310  176.7570  138.8740 O   0  0  0  0  0  0  0  0  0  0  0  0
  189.6980  177.5100  137.7510 C   0  0  0  0  0  2  0  0  0  0  0  0
  188.5490  177.5800  136.7650 C   0  0  0  0  0  2  0  0  0  0  0  0
  188.0470  176.2450  136.4700 N   0  0  0  0  0  0  0  0  0  0  0  0
  188.3540  174.2000  135.3740 O   0  0  0  0  0  1  0  0  0  0  0  0
  188.7570  175.3790  135.5590 C   0  0  0  0  0  0  0  0  0  0  0  0
  189.8890  175.8240  134.8830 O   0  0  0  0  0  0  0  0  0  0  0  0
  186.8350  175.7720  137.1180 C   0  0  0  0  0  2  0  0  0  0  0  0
  184.4900  174.9720  136.3960 C   0  0  2  0  0  3  0  0  0  0  0  0
  185.5840  176.0250  136.2640 C   0  0  1  0  0  3  0  0  0  0  0  0
  184.9240  177.2950  136.7450 C   0  0  0  0  0  2  0  0  0  0  0  0
  184.2050  177.0080  137.9850 N   0  0  0  0  0  0  0  0  0  0  0  0
  183.4820  175.3850  137.8500 S   0  0  0  0  0  0  0  0  0  0  0  0
  184.3440  172.5400  135.8540 C   0  0  0  0  0  0  0  0  0  0  0  0
  184.9740  173.5570  136.4410 C   0  0  0  0  0  3  0  0  0  0  0  0
  185.3440  170.4940  134.8830 C   0  0  0  0  0  1  0  0  0  0  0  0
  184.8870  171.2630  135.9940 O   0  0  0  0  0  0  0  0  0  0  0  0
  182.0060  172.1780  135.7550 O   0  0  0  0  0  1  0  0  0  0  0  0
  183.0790  172.7600  135.0800 C   0  0  0  0  0  2  0  0  0  0  0  0
  183.1100  177.9630  138.0740 C   0  0  0  0  0  2  0  0  0  0  0  0
  184.2260  179.1560  139.9470 C   0  0  0  0  0  1  0  0  0  0  0  0
  182.4820  180.3000  138.6120 C   0  0  0  0  0  1  0  0  0  0  0  0
  183.6280  179.3030  138.5610 C   0  0  0  0  0  3  0  0  0  0  0  0
  185.9910  177.7090  142.9040 O   0  0  0  0  0  0  0  0  0  0  0  0
  183.7360  178.1740  143.4770 C   0  0  1  0  0  3  0  0  0  0  0  0
  185.1270  178.7410  143.2750 C   0  0  1  0  0  3  0  0  0  0  0  0
  184.6230  178.4770  144.6810 C   0  0  1  0  0  3  0  0  0  0  0  0
  184.2750  179.6850  145.2900 O   0  0  0  0  0  1  0  0  0  0  0  0
  182.7690  179.1970  143.2690 O   0  0  0  0  0  0  0  0  0  0  0  0
  181.3880  178.9830  143.1240 C   0  0  0  0  0  0  0  0  0  0  0  0
  180.6930  178.8110  144.1960 N   0  0  0  0  0  2  0  0  0  0  0  0
  180.0090  180.2210  141.3260 C   0  0  0  0  0  2  0  0  0  0  0  0
  181.1660  178.1570  140.7800 F   0  0  0  0  0  0  0  0  0  0  0  0
  179.1520  179.0520  141.8040 C   0  0  0  0  0  2  0  0  0  0  0  0
  180.6580  178.9440  141.7990 C   0  0  0  0  0  0  0  0  0  0  0  0
  3  2  1  6  0  0  0
  3 10  1  0  0  0  0
  4  5  1  6  0  0  0
  4  3  1  0  0  0  0
  6 19  1  6  0  0  0
  6  7  1  0  0  0  0
  6  4  1  0  0  0  0
  7  1  1  1  0  0  0
  7  2  1  0  0  0  0
  8 11  1  0  0  0  0
  8 12  1  0  0  0  0
  9  8  2  0  0  0  0
 10 14  1  1  0  0  0
 10 17  1  0  0  0  0
 15 14  1  6  0  0  0
 15  9  1  0  0  0  0
 15 16  1  0  0  0  0
 16 13  1  6  0  0  0
 16 11  1  0  0  0  0
 17 13  1  0  0  0  0
 19 18  1  1  0  0  0
 20 19  1  0  0  0  0
 21 20  1  0  0  0  0
 22 21  1  0  0  0  0
 23 22  1  0  0  0  0
 23 27  1  0  0  0  0
 24 25  1  0  0  0  0
 25 23  1  0  0  0  0
 26 25  2  0  0  0  0
 28 34  1  1  0  0  0
 28 32  1  0  0  0  0
 29 28  1  0  0  0  0
 29 30  1  0  0  0  0
 29 27  1  1  0  0  0
 30 31  1  0  0  0  0
 31 39  1  0  0  0  0
 32 31  1  0  0  0  0
 33 36  1  0  0  0  0
 33 34  2  0  0  0  0
 35 36  1  0  0  0  0
 38 37  1  0  0  0  0
 38 33  1  0  0  0  0
 39 42  1  0  0  0  0
 42 41  1  0  0  0  0
 42 40  1  0  0  0  0
 43  2  1  0  0  0  0
 44 48  1  1  0  0  0
 44 46  1  0  0  0  0
 45 43  1  6  0  0  0
 45 44  1  0  0  0  0
 45 46  1  0  0  0  0
 46 47  1  1  0  0  0
 49 48  1  0  0  0  0
 49 50  2  0  0  0  0
 51 54  1  0  0  0  0
 51 53  1  0  0  0  0
 52 54  1  0  0  0  0
 54 53  1  0  0  0  0
 54 49  1  0  0  0  0
M  END
>  <MODEL>
5

>  <REMARK>
 VINA RESULT:      -5.6      3.332      9.648
  Name = 
  18 active torsions:
  status: ('A' for Active; 'I' for Inactive)
    1  A    between atoms: C_1  and  O_47
    2  A    between atoms: C_1  and  C_51
    3  A    between atoms: C_2  and  O_5
    4  A    between atoms: C_2  and  C_40
    5  A    between atoms: N_4  and  O_28
    6  A    between atoms: O_5  and  C_31
    7  A    between atoms: C_8  and  N_15
    8  A    between atoms: C_8  and  C_18
    9  A    between atoms: C_9  and  O_32
   10  A    between atoms: C_10  and  N_33
   11  A    between atoms: C_10  and  C_50
   12  A    between atoms: C_13  and  C_20
   13  A    between atoms: C_14  and  C_17
   14  A    between atoms: N_15  and  C_40
   15  A    between atoms: C_19  and  O_28
   16  A    between atoms: C_27  and  C_31
   17  A    between atoms: O_32  and  C_34
   18  A    between atoms: C_34  and  C_54
                            x       y       z     vdW  Elec       q    Type
                         _______ _______ _______ _____ _____    ______ ____

>  <TORSDO>
F 18

$$$$
=
 OpenBabel11032421083D

 54 59  0  0  1  0  0  0  0  0999 V2000
  185.0010  176.6570  138.8830 C   0  0  0  0  0  1  0  0  0  0  0  0
  183.8110  177.4270  136.9160 N   0  0  0  0  0  0  0  0  0  0  0  0
  184.4510  177.0190  135.6640 C   0  0  1  0  0  3  0  0  0  0  0  0
  185.9610  177.1240  135.8140 C   0  0  1  0  0  3  0  0  0  0  0  0
  186.5430  177.8170  134.5960 C   0  0  0  0  0  1  0  0  0  0  0  0
  186.1500  177.9840  137.0360 C   0  0  1  0  0  3  0  0  0  0  0  0
  184.8790  177.7720  137.8510 C   0  0  2  0  0  3  0  0  0  0  0  0
  180.9980  172.4160  136.1410 C   0  0  0  0  0  0  0  0  0  0  0  0
  180.8330  173.5770  135.6250 N   0  0  0  0  0  0  0  0  0  0  0  0
  183.9870  175.6240  135.2380 C   0  0  2  0  0  3  0  0  0  0  0  0
  182.3140  171.9350  136.0400 N   0  0  0  0  0  2  0  0  0  0  0  0
  179.9540  171.7060  136.7940 N   0  0  0  0  0  1  0  0  0  0  0  0
  184.0920  173.3520  136.3840 C   0  0  0  0  0  2  0  0  0  0  0  0
  182.5010  175.3780  135.5280 C   0  0  0  0  0  2  0  0  0  0  0  0
  182.1140  173.9710  135.0580 C   0  0  1  0  0  3  0  0  0  0  0  0
  183.1000  172.9030  135.4010 N   0  0  2  0  0  0  0  0  0  0  0  0
  184.8890  174.5390  135.8440 C   0  0  0  0  0  2  0  0  0  0  0  0
  188.4190  177.1130  136.9340 O   0  0  0  0  0  1  0  0  0  0  0  0
  187.4740  177.7080  137.7780 C   0  0  1  0  0  3  0  0  0  0  0  0
  188.0110  178.8580  138.4100 O   0  0  0  0  0  0  0  0  0  0  0  0
  188.1760  178.5950  139.7760 C   0  0  0  0  0  2  0  0  0  0  0  0
  188.5190  177.1340  139.9930 C   0  0  0  0  0  2  0  0  0  0  0  0
  189.5290  176.9950  141.0340 N   0  0  0  0  0  0  0  0  0  0  0  0
  191.7780  177.1520  141.6580 O   0  0  0  0  0  1  0  0  0  0  0  0
  190.9250  177.1980  140.7330 C   0  0  0  0  0  0  0  0  0  0  0  0
  191.3480  177.4540  139.4320 O   0  0  0  0  0  0  0  0  0  0  0  0
  189.1230  176.6730  142.3910 C   0  0  0  0  0  2  0  0  0  0  0  0
  187.4880  178.1200  143.7670 C   0  0  2  0  0  3  0  0  0  0  0  0
  188.9070  177.9300  143.2470 C   0  0  1  0  0  3  0  0  0  0  0  0
  189.7390  177.8050  144.5000 C   0  0  0  0  0  2  0  0  0  0  0  0
  189.0700  176.8840  145.4160 N   0  0  0  0  0  0  0  0  0  0  0  0
  187.3120  177.1500  145.2940 S   0  0  0  0  0  0  0  0  0  0  0  0
  185.1720  178.3080  142.8540 C   0  0  0  0  0  0  0  0  0  0  0  0
  186.4040  177.8060  142.7840 C   0  0  0  0  0  3  0  0  0  0  0  0
  183.4300  178.8450  141.1790 C   0  0  0  0  0  1  0  0  0  0  0  0
  184.2470  177.9150  141.8880 O   0  0  0  0  0  0  0  0  0  0  0  0
  183.6000  178.8330  144.5460 O   0  0  0  0  0  1  0  0  0  0  0  0
  184.7880  179.2570  143.9500 C   0  0  0  0  0  2  0  0  0  0  0  0
  189.4700  177.2560  146.7650 C   0  0  0  0  0  2  0  0  0  0  0  0
  188.4750  178.9680  148.2670 C   0  0  0  0  0  1  0  0  0  0  0  0
  187.9980  176.5670  148.6370 C   0  0  0  0  0  1  0  0  0  0  0  0
  188.2500  177.6330  147.5840 C   0  0  0  0  0  3  0  0  0  0  0  0
  183.1400  178.5730  136.6490 O   0  0  0  0  0  0  0  0  0  0  0  0
  181.3660  178.9870  138.1680 C   0  0  1  0  0  3  0  0  0  0  0  0
  181.7990  178.2780  136.9000 C   0  0  1  0  0  3  0  0  0  0  0  0
  180.9890  179.5560  136.8030 C   0  0  1  0  0  3  0  0  0  0  0  0
  179.6690  179.2510  136.4610 O   0  0  0  0  0  1  0  0  0  0  0  0
  180.2780  178.2850  138.7600 O   0  0  0  0  0  0  0  0  0  0  0  0
  180.4050  177.2350  139.6860 C   0  0  0  0  0  0  0  0  0  0  0  0
  180.2480  177.5170  140.9340 N   0  0  0  0  0  2  0  0  0  0  0  0
  179.5670  174.9590  138.8020 C   0  0  0  0  0  2  0  0  0  0  0  0
  181.9340  175.4970  138.7560 F   0  0  0  0  0  0  0  0  0  0  0  0
  180.1430  174.7020  140.1930 C   0  0  0  0  0  2  0  0  0  0  0  0
  180.7080  175.7980  139.3210 C   0  0  0  0  0  0  0  0  0  0  0  0
  2  7  1  0  0  0  0
  3  4  1  0  0  0  0
  3  2  1  1  0  0  0
  4  5  1  6  0  0  0
  4  6  1  0  0  0  0
  6 19  1  1  0  0  0
  6  7  1  0  0  0  0
  7  1  1  1  0  0  0
  8 12  1  0  0  0  0
  9  8  2  0  0  0  0
 10 14  1  1  0  0  0
 10  3  1  0  0  0  0
 10 17  1  0  0  0  0
 11  8  1  0  0  0  0
 15 16  1  0  0  0  0
 15 14  1  1  0  0  0
 15  9  1  0  0  0  0
 16 11  1  0  0  0  0
 16 13  1  1  0  0  0
 17 13  1  0  0  0  0
 19 18  1  6  0  0  0
 19 20  1  0  0  0  0
 20 21  1  0  0  0  0
 21 22  1  0  0  0  0
 22 23  1  0  0  0  0
 23 27  1  0  0  0  0
 25 23  1  0  0  0  0
 25 24  1  0  0  0  0
 26 25  2  0  0  0  0
 28 34  1  6  0  0  0
 28 32  1  0  0  0  0
 29 27  1  6  0  0  0
 29 28  1  0  0  0  0
 29 30  1  0  0  0  0
 30 31  1  0  0  0  0
 31 39  1  0  0  0  0
 32 31  1  0  0  0  0
 33 38  1  0  0  0  0
 34 33  2  0  0  0  0
 35 36  1  0  0  0  0
 36 33  1  0  0  0  0
 38 37  1  0  0  0  0
 39 42  1  0  0  0  0
 42 40  1  0  0  0  0
 42 41  1  0  0  0  0
 43  2  1  0  0  0  0
 44 48  1  1  0  0  0
 45 43  1  6  0  0  0
 45 44  1  0  0  0  0
 46 47  1  1  0  0  0
 46 45  1  0  0  0  0
 46 44  1  0  0  0  0
 48 49  1  0  0  0  0
 49 50  2  0  0  0  0
 51 54  1  0  0  0  0
 51 53  1  0  0  0  0
 52 54  1  0  0  0  0
 54 49  1  0  0  0  0
 54 53  1  0  0  0  0
M  END
>  <MODEL>
6

>  <REMARK>
 VINA RESULT:      -5.2      2.157      4.594
  Name = 
  18 active torsions:
  status: ('A' for Active; 'I' for Inactive)
    1  A    between atoms: C_1  and  O_47
    2  A    between atoms: C_1  and  C_51
    3  A    between atoms: C_2  and  O_5
    4  A    between atoms: C_2  and  C_40
    5  A    between atoms: N_4  and  O_28
    6  A    between atoms: O_5  and  C_31
    7  A    between atoms: C_8  and  N_15
    8  A    between atoms: C_8  and  C_18
    9  A    between atoms: C_9  and  O_32
   10  A    between atoms: C_10  and  N_33
   11  A    between atoms: C_10  and  C_50
   12  A    between atoms: C_13  and  C_20
   13  A    between atoms: C_14  and  C_17
   14  A    between atoms: N_15  and  C_40
   15  A    between atoms: C_19  and  O_28
   16  A    between atoms: C_27  and  C_31
   17  A    between atoms: O_32  and  C_34
   18  A    between atoms: C_34  and  C_54
                            x       y       z     vdW  Elec       q    Type
                         _______ _______ _______ _____ _____    ______ ____

>  <TORSDO>
F 18

$$$$
=
 OpenBabel11032421083D

 54 59  0  0  1  0  0  0  0  0999 V2000
  188.7690  175.5350  138.3820 C   0  0  0  0  0  1  0  0  0  0  0  0
  189.2980  174.9590  136.0870 N   0  0  0  0  0  0  0  0  0  0  0  0
  190.0880  175.9880  135.4070 C   0  0  1  0  0  3  0  0  0  0  0  0
  189.5870  177.3630  135.8230 C   0  0  1  0  0  3  0  0  0  0  0  0
  189.4320  178.2380  134.5940 C   0  0  0  0  0  1  0  0  0  0  0  0
  188.2380  177.0920  136.4360 C   0  0  1  0  0  3  0  0  0  0  0  0
  188.3250  175.6520  136.9290 C   0  0  2  0  0  3  0  0  0  0  0  0
  194.6040  172.8400  137.1480 C   0  0  0  0  0  0  0  0  0  0  0  0
  193.9030  172.8360  136.0760 N   0  0  0  0  0  0  0  0  0  0  0  0
  191.5840  175.7920  135.6640 C   0  0  2  0  0  3  0  0  0  0  0  0
  194.7400  174.1120  137.7280 N   0  0  0  0  0  2  0  0  0  0  0  0
  195.1520  171.6580  137.7170 N   0  0  0  0  0  1  0  0  0  0  0  0
  192.9440  175.5470  137.8020 C   0  0  0  0  0  2  0  0  0  0  0  0
  192.0160  174.3240  135.5640 C   0  0  0  0  0  2  0  0  0  0  0  0
  193.5250  174.2170  135.8150 C   0  0  1  0  0  3  0  0  0  0  0  0
  194.0290  175.0390  136.9560 N   0  0  2  0  0  0  0  0  0  0  0  0
  191.9980  176.4350  136.9950 C   0  0  0  0  0  2  0  0  0  0  0  0
  187.5440  179.3760  136.9090 O   0  0  0  0  0  1  0  0  0  0  0  0
  187.8290  178.1370  137.4950 C   0  0  1  0  0  3  0  0  0  0  0  0
  186.7590  177.7070  138.3200 O   0  0  0  0  0  0  0  0  0  0  0  0
  185.5440  177.9800  137.6750 C   0  0  0  0  0  2  0  0  0  0  0  0
  184.5690  178.6240  138.6400 C   0  0  0  0  0  2  0  0  0  0  0  0
  183.8810  177.6070  139.4260 N   0  0  0  0  0  0  0  0  0  0  0  0
  182.6360  175.6270  139.4660 O   0  0  0  0  0  1  0  0  0  0  0  0
  183.1590  176.5410  138.7760 C   0  0  0  0  0  0  0  0  0  0  0  0
  183.0350  176.5010  137.3900 O   0  0  0  0  0  0  0  0  0  0  0  0
  183.9450  177.6550  140.8770 C   0  0  0  0  0  2  0  0  0  0  0  0
  182.1360  179.0710  142.0510 C   0  0  2  0  0  3  0  0  0  0  0  0
  183.5270  179.0240  141.4320 C   0  0  1  0  0  3  0  0  0  0  0  0
  184.4450  179.3780  142.5780 C   0  0  0  0  0  2  0  0  0  0  0  0
  184.0420  178.6090  143.7540 N   0  0  0  0  0  0  0  0  0  0  0  0
  182.2640  178.5040  143.7730 S   0  0  0  0  0  0  0  0  0  0  0  0
  180.4650  178.7970  140.2170 C   0  0  0  0  0  0  0  0  0  0  0  0
  181.0800  178.3220  141.2980 C   0  0  0  0  0  3  0  0  0  0  0  0
  179.0590  178.1890  138.2710 C   0  0  0  0  0  1  0  0  0  0  0  0
  179.4800  178.0080  139.6230 O   0  0  0  0  0  0  0  0  0  0  0  0
  180.0660  181.1290  140.3190 O   0  0  0  0  0  1  0  0  0  0  0  0
  180.8100  180.1480  139.6640 C   0  0  0  0  0  2  0  0  0  0  0  0
  184.4420  179.3780  144.9240 C   0  0  0  0  0  2  0  0  0  0  0  0
  186.0630  177.4940  144.9250 C   0  0  0  0  0  1  0  0  0  0  0  0
  185.8000  178.9040  146.9430 C   0  0  0  0  0  1  0  0  0  0  0  0
  185.7930  178.9000  145.4240 C   0  0  0  0  0  3  0  0  0  0  0  0
  188.5940  174.3160  135.1240 O   0  0  0  0  0  0  0  0  0  0  0  0
  186.7800  172.8100  134.8650 C   0  0  1  0  0  3  0  0  0  0  0  0
  187.8330  173.3640  135.8040 C   0  0  1  0  0  3  0  0  0  0  0  0
  188.0470  172.0100  135.1550 C   0  0  1  0  0  3  0  0  0  0  0  0
  187.8180  170.9990  136.0920 O   0  0  0  0  0  1  0  0  0  0  0  0
  185.6730  172.3280  135.6190 O   0  0  0  0  0  0  0  0  0  0  0  0
  184.3480  172.7730  135.4810 C   0  0  0  0  0  0  0  0  0  0  0  0
  184.1630  173.9870  135.0860 N   0  0  0  0  0  2  0  0  0  0  0  0
  183.0900  171.1620  137.0580 C   0  0  0  0  0  2  0  0  0  0  0  0
  181.8860  172.3900  135.3440 F   0  0  0  0  0  0  0  0  0  0  0  0
  183.2650  170.4260  135.7320 C   0  0  0  0  0  2  0  0  0  0  0  0
  183.1230  171.9290  135.7600 C   0  0  0  0  0  0  0  0  0  0  0  0
  2  7  1  0  0  0  0
  3 10  1  0  0  0  0
  3  4  1  0  0  0  0
  3  2  1  1  0  0  0
  4  5  1  6  0  0  0
  4  6  1  0  0  0  0
  6  7  1  0  0  0  0
  6 19  1  1  0  0  0
  7  1  1  1  0  0  0
  8 12  1  0  0  0  0
  8 11  1  0  0  0  0
  9  8  2  0  0  0  0
 10 14  1  1  0  0  0
 10 17  1  0  0  0  0
 15 14  1  1  0  0  0
 15  9  1  0  0  0  0
 15 16  1  0  0  0  0
 16 11  1  0  0  0  0
 16 13  1  1  0  0  0
 17 13  1  0  0  0  0
 19 18  1  6  0  0  0
 19 20  1  0  0  0  0
 21 20  1  0  0  0  0
 21 22  1  0  0  0  0
 22 23  1  0  0  0  0
 23 27  1  0  0  0  0
 25 23  1  0  0  0  0
 25 24  1  0  0  0  0
 26 25  2  0  0  0  0
 28 34  1  6  0  0  0
 28 32  1  0  0  0  0
 29 27  1  1  0  0  0
 29 28  1  0  0  0  0
 29 30  1  0  0  0  0
 30 31  1  0  0  0  0
 31 32  1  0  0  0  0
 31 39  1  0  0  0  0
 33 34  2  0  0  0  0
 35 36  1  0  0  0  0
 36 33  1  0  0  0  0
 38 33  1  0  0  0  0
 38 37  1  0  0  0  0
 39 42  1  0  0  0  0
 40 42  1  0  0  0  0
 42 41  1  0  0  0  0
 43  2  1  0  0  0  0
 44 46  1  0  0  0  0
 44 48  1  1  0  0  0
 44 45  1  0  0  0  0
 45 43  1  6  0  0  0
 46 45  1  0  0  0  0
 46 47  1  1  0  0  0
 49 48  1  0  0  0  0
 49 54  1  0  0  0  0
 50 49  2  0  0  0  0
 52 54  1  0  0  0  0
 53 54  1  0  0  0  0
 53 51  1  0  0  0  0
 54 51  1  0  0  0  0
M  END
>  <MODEL>
7

>  <REMARK>
 VINA RESULT:      -4.8      3.909      8.581
  Name = 
  18 active torsions:
  status: ('A' for Active; 'I' for Inactive)
    1  A    between atoms: C_1  and  O_47
    2  A    between atoms: C_1  and  C_51
    3  A    between atoms: C_2  and  O_5
    4  A    between atoms: C_2  and  C_40
    5  A    between atoms: N_4  and  O_28
    6  A    between atoms: O_5  and  C_31
    7  A    between atoms: C_8  and  N_15
    8  A    between atoms: C_8  and  C_18
    9  A    between atoms: C_9  and  O_32
   10  A    between atoms: C_10  and  N_33
   11  A    between atoms: C_10  and  C_50
   12  A    between atoms: C_13  and  C_20
   13  A    between atoms: C_14  and  C_17
   14  A    between atoms: N_15  and  C_40
   15  A    between atoms: C_19  and  O_28
   16  A    between atoms: C_27  and  C_31
   17  A    between atoms: O_32  and  C_34
   18  A    between atoms: C_34  and  C_54
                            x       y       z     vdW  Elec       q    Type
                         _______ _______ _______ _____ _____    ______ ____

>  <TORSDO>
F 18

$$$$
=
 OpenBabel11032421083D

 54 59  0  0  1  0  0  0  0  0999 V2000
  188.9540  176.2730  138.9870 C   0  0  0  0  0  1  0  0  0  0  0  0
  189.5170  175.2190  136.8780 N   0  0  0  0  0  0  0  0  0  0  0  0
  190.0710  176.1570  135.9000 C   0  0  1  0  0  3  0  0  0  0  0  0
  189.3250  177.4800  135.9930 C   0  0  1  0  0  3  0  0  0  0  0  0
  188.9670  177.9580  134.5990 C   0  0  0  0  0  1  0  0  0  0  0  0
  188.0740  177.1430  136.7590 C   0  0  1  0  0  3  0  0  0  0  0  0
  188.4540  175.9230  137.5920 C   0  0  2  0  0  3  0  0  0  0  0  0
  195.3570  173.9940  136.7490 C   0  0  0  0  0  0  0  0  0  0  0  0
  194.5970  174.0560  135.7190 N   0  0  0  0  0  0  0  0  0  0  0  0
  191.5840  176.3080  136.0780 C   0  0  2  0  0  3  0  0  0  0  0  0
  195.2130  175.0860  137.6210 N   0  0  0  0  0  2  0  0  0  0  0  0
  196.2270  172.8990  137.0030 N   0  0  0  0  0  1  0  0  0  0  0  0
  193.1260  175.9400  138.0710 C   0  0  0  0  0  2  0  0  0  0  0  0
  192.3630  175.0710  135.6150 C   0  0  0  0  0  2  0  0  0  0  0  0
  193.8650  175.3100  135.8100 C   0  0  1  0  0  3  0  0  0  0  0  0
  194.2340  175.9470  137.1090 N   0  0  2  0  0  0  0  0  0  0  0  0
  191.9260  176.7100  137.5200 C   0  0  0  0  0  2  0  0  0  0  0  0
  187.3170  179.4550  136.7260 O   0  0  0  0  0  1  0  0  0  0  0  0
  187.5010  178.3380  137.5490 C   0  0  1  0  0  3  0  0  0  0  0  0
  186.3110  178.0240  138.2530 O   0  0  0  0  0  0  0  0  0  0  0  0
  185.3110  178.9370  137.8930 C   0  0  0  0  0  2  0  0  0  0  0  0
  184.6890  179.5520  139.1310 C   0  0  0  0  0  2  0  0  0  0  0  0
  184.1240  178.5170  139.9870 N   0  0  0  0  0  0  0  0  0  0  0  0
  182.3010  177.1520  140.5220 O   0  0  0  0  0  1  0  0  0  0  0  0
  182.7520  178.1020  139.8280 C   0  0  0  0  0  0  0  0  0  0  0  0
  181.9150  178.7300  138.9110 O   0  0  0  0  0  0  0  0  0  0  0  0
  184.9590  177.8820  140.9930 C   0  0  0  0  0  2  0  0  0  0  0  0
  185.7610  179.0690  143.1390 C   0  0  2  0  0  3  0  0  0  0  0  0
  185.9420  178.8680  141.6400 C   0  0  1  0  0  3  0  0  0  0  0  0
  187.3370  178.3040  141.5160 C   0  0  0  0  0  2  0  0  0  0  0  0
  187.5050  177.2480  142.5130 N   0  0  0  0  0  0  0  0  0  0  0  0
  186.6540  177.7410  143.9990 S   0  0  0  0  0  0  0  0  0  0  0  0
  183.9470  178.9190  144.8470 C   0  0  0  0  0  0  0  0  0  0  0  0
  184.3400  179.1690  143.5990 C   0  0  0  0  0  3  0  0  0  0  0  0
  181.5690  178.7700  144.1710 C   0  0  0  0  0  1  0  0  0  0  0  0
  182.5870  179.0240  145.1390 O   0  0  0  0  0  0  0  0  0  0  0  0
  185.3790  179.6550  146.5830 O   0  0  0  0  0  1  0  0  0  0  0  0
  184.9350  178.5220  145.9020 C   0  0  0  0  0  2  0  0  0  0  0  0
  188.9250  177.1820  142.8300 C   0  0  0  0  0  2  0  0  0  0  0  0
  190.3180  178.8690  144.0100 C   0  0  0  0  0  1  0  0  0  0  0  0
  189.5850  176.8210  145.1920 C   0  0  0  0  0  1  0  0  0  0  0  0
  189.1930  177.8640  144.1590 C   0  0  0  0  0  3  0  0  0  0  0  0
  188.9230  174.2300  136.1670 O   0  0  0  0  0  0  0  0  0  0  0  0
  186.7680  173.3560  135.7000 C   0  0  1  0  0  3  0  0  0  0  0  0
  187.6200  174.1570  136.6640 C   0  0  1  0  0  3  0  0  0  0  0  0
  187.2950  172.7100  136.9770 C   0  0  1  0  0  3  0  0  0  0  0  0
  186.3150  172.6540  137.9720 O   0  0  0  0  0  1  0  0  0  0  0  0
  185.4040  173.7430  135.8340 O   0  0  0  0  0  0  0  0  0  0  0  0
  184.9100  175.0420  135.6290 C   0  0  0  0  0  0  0  0  0  0  0  0
  185.3510  175.6950  134.6080 N   0  0  0  0  0  2  0  0  0  0  0  0
  182.4620  175.7410  136.0540 C   0  0  0  0  0  2  0  0  0  0  0  0
  184.0450  175.6380  137.8920 F   0  0  0  0  0  0  0  0  0  0  0  0
  183.2870  177.0250  136.0460 C   0  0  0  0  0  2  0  0  0  0  0  0
  183.8970  175.7270  136.5190 C   0  0  0  0  0  0  0  0  0  0  0  0
  2  7  1  0  0  0  0
  3  4  1  0  0  0  0
  3 10  1  0  0  0  0
  3  2  1  1  0  0  0
  4  5  1  6  0  0  0
  4  6  1  0  0  0  0
  6 19  1  1  0  0  0
  6  7  1  0  0  0  0
  7  1  1  1  0  0  0
  8 12  1  0  0  0  0
  8 11  1  0  0  0  0
  9 15  1  0  0  0  0
  9  8  2  0  0  0  0
 10 14  1  1  0  0  0
 10 17  1  0  0  0  0
 15 14  1  1  0  0  0
 15 16  1  0  0  0  0
 16 11  1  0  0  0  0
 16 13  1  1  0  0  0
 17 13  1  0  0  0  0
 19 18  1  6  0  0  0
 19 20  1  0  0  0  0
 21 20  1  0  0  0  0
 21 22  1  0  0  0  0
 22 23  1  0  0  0  0
 23 27  1  0  0  0  0
 25 23  1  0  0  0  0
 25 24  1  0  0  0  0
 26 25  2  0  0  0  0
 28 34  1  6  0  0  0
 28 32  1  0  0  0  0
 29 27  1  1  0  0  0
 29 28  1  0  0  0  0
 30 29  1  0  0  0  0
 30 31  1  0  0  0  0
 31 39  1  0  0  0  0
 31 32  1  0  0  0  0
 33 36  1  0  0  0  0
 33 38  1  0  0  0  0
 34 33  2  0  0  0  0
 35 36  1  0  0  0  0
 38 37  1  0  0  0  0
 39 42  1  0  0  0  0
 40 42  1  0  0  0  0
 42 41  1  0  0  0  0
 43  2  1  0  0  0  0
 44 48  1  1  0  0  0
 44 45  1  0  0  0  0
 44 46  1  0  0  0  0
 45 43  1  6  0  0  0
 45 46  1  0  0  0  0
 46 47  1  1  0  0  0
 49 48  1  0  0  0  0
 49 54  1  0  0  0  0
 50 49  2  0  0  0  0
 51 54  1  0  0  0  0
 53 51  1  0  0  0  0
 53 54  1  0  0  0  0
 54 52  1  0  0  0  0
M  END
>  <MODEL>
8

>  <REMARK>
 VINA RESULT:      -4.8      3.470      7.116
  Name = 
  18 active torsions:
  status: ('A' for Active; 'I' for Inactive)
    1  A    between atoms: C_1  and  O_47
    2  A    between atoms: C_1  and  C_51
    3  A    between atoms: C_2  and  O_5
    4  A    between atoms: C_2  and  C_40
    5  A    between atoms: N_4  and  O_28
    6  A    between atoms: O_5  and  C_31
    7  A    between atoms: C_8  and  N_15
    8  A    between atoms: C_8  and  C_18
    9  A    between atoms: C_9  and  O_32
   10  A    between atoms: C_10  and  N_33
   11  A    between atoms: C_10  and  C_50
   12  A    between atoms: C_13  and  C_20
   13  A    between atoms: C_14  and  C_17
   14  A    between atoms: N_15  and  C_40
   15  A    between atoms: C_19  and  O_28
   16  A    between atoms: C_27  and  C_31
   17  A    between atoms: O_32  and  C_34
   18  A    between atoms: C_34  and  C_54
                            x       y       z     vdW  Elec       q    Type
                         _______ _______ _______ _____ _____    ______ ____

>  <TORSDO>
F 18

$$$$
=
 OpenBabel11032421083D

 54 59  0  0  1  0  0  0  0  0999 V2000
  186.2490  176.6000  138.1770 C   0  0  0  0  0  1  0  0  0  0  0  0
  187.9200  178.1630  138.9790 N   0  0  0  0  0  0  0  0  0  0  0  0
  187.8370  178.3990  140.4220 C   0  0  1  0  0  3  0  0  0  0  0  0
  186.3750  178.4620  140.8380 C   0  0  1  0  0  3  0  0  0  0  0  0
  186.1590  179.6560  141.7490 C   0  0  0  0  0  1  0  0  0  0  0  0
  185.6330  178.6630  139.5420 C   0  0  1  0  0  3  0  0  0  0  0  0
  186.5500  178.0630  138.4810 C   0  0  2  0  0  3  0  0  0  0  0  0
  191.0300  176.7070  144.9250 C   0  0  0  0  0  0  0  0  0  0  0  0
  189.7720  176.8980  144.7740 N   0  0  0  0  0  0  0  0  0  0  0  0
  188.6360  177.3490  141.1980 C   0  0  2  0  0  3  0  0  0  0  0  0
  191.6730  176.2420  143.7660 N   0  0  0  0  0  2  0  0  0  0  0  0
  191.7120  176.9840  146.1410 N   0  0  0  0  0  1  0  0  0  0  0  0
  191.1190  177.1090  141.7090 C   0  0  0  0  0  2  0  0  0  0  0  0
  188.6450  177.6060  142.7090 C   0  0  0  0  0  2  0  0  0  0  0  0
  189.4470  176.5040  143.4110 C   0  0  1  0  0  3  0  0  0  0  0  0
  190.7280  176.1380  142.7370 N   0  0  2  0  0  0  0  0  0  0  0  0
  190.0510  177.2030  140.6200 C   0  0  0  0  0  2  0  0  0  0  0  0
  184.0620  177.0730  140.5040 O   0  0  0  0  0  1  0  0  0  0  0  0
  184.1940  178.1080  139.5710 C   0  0  1  0  0  3  0  0  0  0  0  0
  183.2130  179.1100  139.7830 O   0  0  0  0  0  0  0  0  0  0  0  0
  183.0910  179.8860  138.6220 C   0  0  0  0  0  2  0  0  0  0  0  0
  182.1190  179.2380  137.6560 C   0  0  0  0  0  2  0  0  0  0  0  0
  180.7600  179.3000  138.1800 N   0  0  0  0  0  0  0  0  0  0  0  0
  178.9310  180.6110  138.8170 O   0  0  0  0  0  1  0  0  0  0  0  0
  180.1310  180.5720  138.4390 C   0  0  0  0  0  0  0  0  0  0  0  0
  180.8300  181.7640  138.2710 O   0  0  0  0  0  0  0  0  0  0  0  0
  180.0250  178.0690  138.4190 C   0  0  0  0  0  2  0  0  0  0  0  0
  180.0450  176.7220  140.6200 C   0  0  2  0  0  3  0  0  0  0  0  0
  180.7850  177.1090  139.3470 C   0  0  1  0  0  3  0  0  0  0  0  0
  180.9760  175.7970  138.6250 C   0  0  0  0  0  2  0  0  0  0  0  0
  179.7130  175.0620  138.6500 N   0  0  0  0  0  0  0  0  0  0  0  0
  178.9360  175.3360  140.2300 S   0  0  0  0  0  0  0  0  0  0  0  0
  179.7760  178.4840  142.3670 C   0  0  0  0  0  0  0  0  0  0  0  0
  179.3150  177.8410  141.2960 C   0  0  0  0  0  3  0  0  0  0  0  0
  178.9570  179.7730  144.3160 C   0  0  0  0  0  1  0  0  0  0  0  0
  178.9860  179.4930  142.9170 O   0  0  0  0  0  0  0  0  0  0  0  0
  181.6430  179.2350  143.6160 O   0  0  0  0  0  1  0  0  0  0  0  0
  181.0990  178.1230  142.9750 C   0  0  0  0  0  2  0  0  0  0  0  0
  180.0420  173.6460  138.5710 C   0  0  0  0  0  2  0  0  0  0  0  0
  179.8230  171.6160  137.1530 C   0  0  0  0  0  1  0  0  0  0  0  0
  179.3560  173.8520  136.1980 C   0  0  0  0  0  1  0  0  0  0  0  0
  179.2590  172.9920  137.4470 C   0  0  0  0  0  3  0  0  0  0  0  0
  188.4520  179.2860  138.4370 O   0  0  0  0  0  0  0  0  0  0  0  0
  189.3080  177.3190  137.4250 C   0  0  1  0  0  3  0  0  0  0  0  0
  189.3730  178.8320  137.4910 C   0  0  1  0  0  3  0  0  0  0  0  0
  188.6210  178.1640  136.3560 C   0  0  1  0  0  3  0  0  0  0  0  0
  189.3800  178.2350  135.1850 O   0  0  0  0  0  1  0  0  0  0  0  0
  190.5550  176.8070  136.9660 O   0  0  0  0  0  0  0  0  0  0  0  0
  191.3980  175.9580  137.7010 C   0  0  0  0  0  0  0  0  0  0  0  0
  190.8810  174.8880  138.2000 N   0  0  0  0  0  2  0  0  0  0  0  0
  193.7850  176.1970  136.7470 C   0  0  0  0  0  2  0  0  0  0  0  0
  193.2400  177.1090  138.9300 F   0  0  0  0  0  0  0  0  0  0  0  0
  193.8350  175.0610  137.7650 C   0  0  0  0  0  2  0  0  0  0  0  0
  192.8710  176.2090  137.9460 C   0  0  0  0  0  0  0  0  0  0  0  0
  3  2  1  6  0  0  0
  3  4  1  0  0  0  0
  3 10  1  0  0  0  0
  4  5  1  1  0  0  0
  6 19  1  1  0  0  0
  6  4  1  0  0  0  0
  7  1  1  1  0  0  0
  7  2  1  0  0  0  0
  7  6  1  0  0  0  0
  8 12  1  0  0  0  0
  9  8  2  0  0  0  0
 10 17  1  6  0  0  0
 10 14  1  0  0  0  0
 11  8  1  0  0  0  0
 15 14  1  6  0  0  0
 15  9  1  0  0  0  0
 16 13  1  6  0  0  0
 16 15  1  0  0  0  0
 16 11  1  0  0  0  0
 17 13  1  0  0  0  0
 19 20  1  0  0  0  0
 19 18  1  1  0  0  0
 21 20  1  0  0  0  0
 22 23  1  0  0  0  0
 22 21  1  0  0  0  0
 23 27  1  0  0  0  0
 23 25  1  0  0  0  0
 25 24  1  0  0  0  0
 26 25  2  0  0  0  0
 28 34  1  6  0  0  0
 29 27  1  6  0  0  0
 29 28  1  0  0  0  0
 30 31  1  0  0  0  0
 30 29  1  0  0  0  0
 31 32  1  0  0  0  0
 32 28  1  0  0  0  0
 33 36  1  0  0  0  0
 33 38  1  0  0  0  0
 34 33  2  0  0  0  0
 36 35  1  0  0  0  0
 38 37  1  0  0  0  0
 39 31  1  0  0  0  0
 40 42  1  0  0  0  0
 41 42  1  0  0  0  0
 42 39  1  0  0  0  0
 43  2  1  0  0  0  0
 44 48  1  6  0  0  0
 44 45  1  0  0  0  0
 45 43  1  1  0  0  0
 46 47  1  6  0  0  0
 46 44  1  0  0  0  0
 46 45  1  0  0  0  0
 48 49  1  0  0  0  0
 49 54  1  0  0  0  0
 49 50  2  0  0  0  0
 51 53  1  0  0  0  0
 51 54  1  0  0  0  0
 53 54  1  0  0  0  0
 54 52  1  0  0  0  0
M  END
>  <MODEL>
9

>  <REMARK>
 VINA RESULT:      -4.7      4.120      9.671
  Name = 
  18 active torsions:
  status: ('A' for Active; 'I' for Inactive)
    1  A    between atoms: C_1  and  O_47
    2  A    between atoms: C_1  and  C_51
    3  A    between atoms: C_2  and  O_5
    4  A    between atoms: C_2  and  C_40
    5  A    between atoms: N_4  and  O_28
    6  A    between atoms: O_5  and  C_31
    7  A    between atoms: C_8  and  N_15
    8  A    between atoms: C_8  and  C_18
    9  A    between atoms: C_9  and  O_32
   10  A    between atoms: C_10  and  N_33
   11  A    between atoms: C_10  and  C_50
   12  A    between atoms: C_13  and  C_20
   13  A    between atoms: C_14  and  C_17
   14  A    between atoms: N_15  and  C_40
   15  A    between atoms: C_19  and  O_28
   16  A    between atoms: C_27  and  C_31
   17  A    between atoms: O_32  and  C_34
   18  A    between atoms: C_34  and  C_54
                            x       y       z     vdW  Elec       q    Type
                         _______ _______ _______ _____ _____    ______ ____

>  <TORSDO>
F 18

$$$$
