=
 OpenBabel11042411223D

 25 27  0  0  1  0  0  0  0  0999 V2000
  187.8450  178.1320  142.0430 S   0  0  0  0  0  0  0  0  0  0  0  0
  190.8100  177.9310  142.6640 C   0  0  0  0  0  0  0  0  0  0  0  0
  191.6510  177.4920  141.5770 C   0  0  0  0  0  3  0  0  0  0  0  0
  191.1560  177.1650  140.2980 N   0  0  0  0  0  0  0  0  0  0  0  0
  189.8210  177.2340  139.9210 C   0  0  0  0  0  0  0  0  0  0  0  0
  189.0250  177.6470  140.9340 C   0  0  0  0  0  0  0  0  0  0  0  0
  189.5130  177.9840  142.2700 C   0  0  0  0  0  0  0  0  0  0  0  0
  191.3980  178.3620  144.2980 S   0  0  0  0  0  0  0  0  0  0  0  0
  191.0380  176.7210  145.0340 C   0  0  0  0  0  0  0  0  0  0  0  0
  189.7410  176.3590  144.7160 F   0  0  0  0  0  0  0  0  0  0  0  0
  191.9000  175.7750  144.5070 F   0  0  0  0  0  0  0  0  0  0  0  0
  191.1820  176.7340  146.5640 C   0  0  2  0  0  3  0  0  0  0  0  0
  192.2180  175.7450  147.0810 C   0  0  0  0  0  1  0  0  0  0  0  0
  189.8550  176.6330  147.3210 C   0  0  0  0  0  2  0  0  0  0  0  0
  189.1990  177.9270  147.4200 N   0  0  0  0  0  2  0  0  0  0  0  0
  187.8300  177.6730  147.5750 N   0  0  0  0  0  2  0  0  0  0  0  0
  187.2030  177.9140  146.2840 C   0  0  0  0  0  2  0  0  0  0  0  0
  185.7280  178.2330  146.4630 C   0  0  0  0  0  2  0  0  0  0  0  0
  185.5810  179.4690  147.0920 O   0  0  0  0  0  1  0  0  0  0  0  0
  189.3300  176.8290  138.5740 C   0  0  0  0  0  2  0  0  0  0  0  0
  187.7340  177.9490  136.9160 C   0  0  2  0  0  3  0  0  0  0  0  0
  189.3470  179.3150  138.1900 F   0  0  0  0  0  0  0  0  0  0  0  0
  189.0980  177.8590  136.2380 C   0  0  0  0  0  2  0  0  0  0  0  0
  187.1930  179.2170  136.6990 O   0  0  0  0  0  1  0  0  0  0  0  0
  189.0070  178.0520  137.7330 C   0  0  1  0  0  0  0  0  0  0  0  0
  1  7  1  0  0  0  0
  2  8  1  0  0  0  0
  3  2  2  0  0  0  0
  4  3  1  0  0  0  0
  5  4  2  0  0  0  0
  5  6  1  0  0  0  0
  6  1  1  0  0  0  0
  6  7  2  0  0  0  0
  7  2  1  0  0  0  0
  8  9  1  0  0  0  0
  9 12  1  0  0  0  0
 10  9  1  0  0  0  0
 11  9  1  0  0  0  0
 12 13  1  1  0  0  0
 12 14  1  0  0  0  0
 14 15  1  0  0  0  0
 15 16  1  0  0  0  0
 17 18  1  0  0  0  0
 17 16  1  0  0  0  0
 18 19  1  0  0  0  0
 20  5  1  0  0  0  0
 21 24  1  6  0  0  0
 21 25  1  0  0  0  0
 23 21  1  0  0  0  0
 23 25  1  0  0  0  0
 25 22  1  1  0  0  0
 25 20  1  0  0  0  0
M  END
>  <MODEL>
1

>  <REMARK>
 VINA RESULT:      -6.9      0.000      0.000
  Name = 
  10 active torsions:
  status: ('A' for Active; 'I' for Inactive)
    1  A    between atoms: C_1  and  N_6
    2  A    between atoms: C_1  and  C_7
    3  A    between atoms: C_3  and  C_4
    4  A    between atoms: C_3  and  N_24
    5  A    between atoms: C_5  and  C_7
    6  A    between atoms: C_5  and  S_8
    7  A    between atoms: N_6  and  N_24
    8  A    between atoms: S_8  and  C_13
    9  A    between atoms: C_12  and  C_17
   10  A    between atoms: C_12  and  C_20
                            x       y       z     vdW  Elec       q    Type
                         _______ _______ _______ _____ _____    ______ ____

>  <TORSDO>
F 10

$$$$
=
 OpenBabel11042411223D

 25 27  0  0  1  0  0  0  0  0999 V2000
  187.3200  176.8200  144.2540 S   0  0  0  0  0  0  0  0  0  0  0  0
  188.8200  177.6900  141.7620 C   0  0  0  0  0  0  0  0  0  0  0  0
  188.0570  178.4490  140.8020 C   0  0  0  0  0  3  0  0  0  0  0  0
  186.6970  178.7780  140.9800 N   0  0  0  0  0  0  0  0  0  0  0  0
  185.9340  178.4300  142.0870 C   0  0  0  0  0  0  0  0  0  0  0  0
  186.6420  177.7190  142.9940 C   0  0  0  0  0  0  0  0  0  0  0  0
  188.0500  177.3600  142.8290 C   0  0  0  0  0  0  0  0  0  0  0  0
  190.5470  177.2600  141.5790 S   0  0  0  0  0  0  0  0  0  0  0  0
  191.0720  178.0320  143.1590 C   0  0  0  0  0  0  0  0  0  0  0  0
  192.1260  178.8940  142.9120 F   0  0  0  0  0  0  0  0  0  0  0  0
  190.0230  178.7620  143.6900 F   0  0  0  0  0  0  0  0  0  0  0  0
  191.5260  176.9840  144.1880 C   0  0  2  0  0  3  0  0  0  0  0  0
  191.5290  175.5630  143.6420 C   0  0  0  0  0  1  0  0  0  0  0  0
  190.8180  177.0860  145.5410 C   0  0  0  0  0  2  0  0  0  0  0  0
  191.7340  176.8390  146.6420 N   0  0  0  0  0  2  0  0  0  0  0  0
  191.0140  177.0640  147.8230 N   0  0  0  0  0  2  0  0  0  0  0  0
  189.6400  177.3440  147.4380 C   0  0  0  0  0  2  0  0  0  0  0  0
  188.9310  178.1260  148.5320 C   0  0  0  0  0  2  0  0  0  0  0  0
  187.5750  177.8030  148.5460 O   0  0  0  0  0  1  0  0  0  0  0  0
  184.4840  178.7500  142.2130 C   0  0  0  0  0  2  0  0  0  0  0  0
  183.7220  178.4930  144.6430 C   0  0  2  0  0  3  0  0  0  0  0  0
  184.9550  180.5130  143.9440 F   0  0  0  0  0  0  0  0  0  0  0  0
  182.7490  179.4530  143.9640 C   0  0  0  0  0  2  0  0  0  0  0  0
  184.0740  178.9990  145.8950 O   0  0  0  0  0  1  0  0  0  0  0  0
  184.1990  179.4230  143.5450 C   0  0  1  0  0  0  0  0  0  0  0  0
  2  7  1  0  0  0  0
  3  4  1  0  0  0  0
  3  2  2  0  0  0  0
  4  5  2  0  0  0  0
  5 20  1  0  0  0  0
  5  6  1  0  0  0  0
  6  1  1  0  0  0  0
  7  6  2  0  0  0  0
  7  1  1  0  0  0  0
  8  2  1  0  0  0  0
  8  9  1  0  0  0  0
  9 11  1  0  0  0  0
  9 12  1  0  0  0  0
 10  9  1  0  0  0  0
 12 13  1  6  0  0  0
 12 14  1  0  0  0  0
 14 15  1  0  0  0  0
 15 16  1  0  0  0  0
 17 16  1  0  0  0  0
 17 18  1  0  0  0  0
 18 19  1  0  0  0  0
 20 25  1  0  0  0  0
 21 24  1  1  0  0  0
 23 21  1  0  0  0  0
 25 22  1  1  0  0  0
 25 23  1  0  0  0  0
 25 21  1  0  0  0  0
M  END
>  <MODEL>
2

>  <REMARK>
 VINA RESULT:      -6.7      3.418      4.998
  Name = 
  10 active torsions:
  status: ('A' for Active; 'I' for Inactive)
    1  A    between atoms: C_1  and  N_6
    2  A    between atoms: C_1  and  C_7
    3  A    between atoms: C_3  and  C_4
    4  A    between atoms: C_3  and  N_24
    5  A    between atoms: C_5  and  C_7
    6  A    between atoms: C_5  and  S_8
    7  A    between atoms: N_6  and  N_24
    8  A    between atoms: S_8  and  C_13
    9  A    between atoms: C_12  and  C_17
   10  A    between atoms: C_12  and  C_20
                            x       y       z     vdW  Elec       q    Type
                         _______ _______ _______ _____ _____    ______ ____

>  <TORSDO>
F 10

$$$$
=
 OpenBabel11042411223D

 25 27  0  0  1  0  0  0  0  0999 V2000
  187.4900  178.4950  141.6550 S   0  0  0  0  0  0  0  0  0  0  0  0
  190.2360  178.0640  142.8750 C   0  0  0  0  0  0  0  0  0  0  0  0
  191.2100  177.4300  142.0210 C   0  0  0  0  0  3  0  0  0  0  0  0
  190.9320  177.0210  140.7000 N   0  0  0  0  0  0  0  0  0  0  0  0
  189.7120  177.1840  140.0580 C   0  0  0  0  0  0  0  0  0  0  0  0
  188.7920  177.7800  140.8510 C   0  0  0  0  0  0  0  0  0  0  0  0
  189.0530  178.2050  142.2260 C   0  0  0  0  0  0  0  0  0  0  0  0
  190.5480  178.6040  144.5520 S   0  0  0  0  0  0  0  0  0  0  0  0
  189.6320  177.2220  145.3370 C   0  0  0  0  0  0  0  0  0  0  0  0
  189.0900  176.4200  144.3480 F   0  0  0  0  0  0  0  0  0  0  0  0
  190.5020  176.4570  146.0950 F   0  0  0  0  0  0  0  0  0  0  0  0
  188.4930  177.7260  146.2380 C   0  0  2  0  0  3  0  0  0  0  0  0
  188.4300  177.0190  147.5850 C   0  0  0  0  0  1  0  0  0  0  0  0
  187.1280  177.7870  145.5490 C   0  0  0  0  0  2  0  0  0  0  0  0
  186.0520  177.9620  146.5110 N   0  0  0  0  0  2  0  0  0  0  0  0
  185.2980  179.0610  146.0770 N   0  0  0  0  0  2  0  0  0  0  0  0
  185.0180  178.8540  144.6650 C   0  0  0  0  0  2  0  0  0  0  0  0
  183.7230  179.5460  144.2750 C   0  0  0  0  0  2  0  0  0  0  0  0
  182.6590  178.6490  144.3600 O   0  0  0  0  0  1  0  0  0  0  0  0
  189.4430  176.6910  138.6780 C   0  0  0  0  0  2  0  0  0  0  0  0
  187.3740  177.6500  137.5160 C   0  0  2  0  0  3  0  0  0  0  0  0
  189.3350  179.0900  137.9330 F   0  0  0  0  0  0  0  0  0  0  0  0
  188.4170  177.3860  136.4340 C   0  0  0  0  0  2  0  0  0  0  0  0
  186.7960  178.9030  137.3040 O   0  0  0  0  0  1  0  0  0  0  0  0
  188.8520  177.7970  137.8200 C   0  0  1  0  0  0  0  0  0  0  0  0
  1  7  1  0  0  0  0
  2  8  1  0  0  0  0
  3  2  2  0  0  0  0
  4  3  1  0  0  0  0
  5  4  2  0  0  0  0
  5  6  1  0  0  0  0
  6  1  1  0  0  0  0
  6  7  2  0  0  0  0
  7  2  1  0  0  0  0
  8  9  1  0  0  0  0
  9 11  1  0  0  0  0
  9 12  1  0  0  0  0
 10  9  1  0  0  0  0
 12 13  1  1  0  0  0
 14 12  1  0  0  0  0
 14 15  1  0  0  0  0
 16 15  1  0  0  0  0
 17 16  1  0  0  0  0
 18 19  1  0  0  0  0
 18 17  1  0  0  0  0
 20  5  1  0  0  0  0
 21 24  1  6  0  0  0
 21 25  1  0  0  0  0
 23 21  1  0  0  0  0
 23 25  1  0  0  0  0
 25 22  1  1  0  0  0
 25 20  1  0  0  0  0
M  END
>  <MODEL>
3

>  <REMARK>
 VINA RESULT:      -6.6      1.629      2.058
  Name = 
  10 active torsions:
  status: ('A' for Active; 'I' for Inactive)
    1  A    between atoms: C_1  and  N_6
    2  A    between atoms: C_1  and  C_7
    3  A    between atoms: C_3  and  C_4
    4  A    between atoms: C_3  and  N_24
    5  A    between atoms: C_5  and  C_7
    6  A    between atoms: C_5  and  S_8
    7  A    between atoms: N_6  and  N_24
    8  A    between atoms: S_8  and  C_13
    9  A    between atoms: C_12  and  C_17
   10  A    between atoms: C_12  and  C_20
                            x       y       z     vdW  Elec       q    Type
                         _______ _______ _______ _____ _____    ______ ____

>  <TORSDO>
F 10

$$$$
=
 OpenBabel11042411223D

 25 27  0  0  1  0  0  0  0  0999 V2000
  191.3670  176.7630  139.6980 S   0  0  0  0  0  0  0  0  0  0  0  0
  189.0350  177.1930  141.5930 C   0  0  0  0  0  0  0  0  0  0  0  0
  187.9620  178.0160  141.0930 C   0  0  0  0  0  3  0  0  0  0  0  0
  187.9690  178.6020  139.8090 N   0  0  0  0  0  0  0  0  0  0  0  0
  188.9850  178.4550  138.8750 C   0  0  0  0  0  0  0  0  0  0  0  0
  189.9960  177.6820  139.3350 C   0  0  0  0  0  0  0  0  0  0  0  0
  190.0160  177.0710  140.6640 C   0  0  0  0  0  0  0  0  0  0  0  0
  189.0620  176.4260  143.2100 S   0  0  0  0  0  0  0  0  0  0  0  0
  190.3980  177.4960  143.8710 C   0  0  0  0  0  0  0  0  0  0  0  0
  191.6170  177.0380  143.4010 F   0  0  0  0  0  0  0  0  0  0  0  0
  190.2160  178.7940  143.4280 F   0  0  0  0  0  0  0  0  0  0  0  0
  190.4320  177.4900  145.4080 C   0  0  2  0  0  3  0  0  0  0  0  0
  191.5750  176.6640  145.9830 C   0  0  0  0  0  1  0  0  0  0  0  0
  189.0900  177.1600  146.0640 C   0  0  0  0  0  2  0  0  0  0  0  0
  189.0020  177.7130  147.4050 N   0  0  0  0  0  2  0  0  0  0  0  0
  187.6380  177.8390  147.7010 N   0  0  0  0  0  2  0  0  0  0  0  0
  186.9150  177.6960  146.4470 C   0  0  0  0  0  2  0  0  0  0  0  0
  185.5980  178.4530  146.5050 C   0  0  0  0  0  2  0  0  0  0  0  0
  185.7320  179.5780  147.3180 O   0  0  0  0  0  1  0  0  0  0  0  0
  188.9800  179.1330  137.5490 C   0  0  0  0  0  2  0  0  0  0  0  0
  187.1800  178.3280  135.9170 C   0  0  2  0  0  3  0  0  0  0  0  0
  189.5420  177.7150  135.5490 F   0  0  0  0  0  0  0  0  0  0  0  0
  187.5290  177.1490  136.8210 C   0  0  0  0  0  2  0  0  0  0  0  0
  187.1060  177.8900  134.5940 O   0  0  0  0  0  1  0  0  0  0  0  0
  188.5880  178.1590  136.4510 C   0  0  1  0  0  0  0  0  0  0  0  0
  1  7  1  0  0  0  0
  2  8  1  0  0  0  0
  3  2  1  0  0  0  0
  4  3  2  0  0  0  0
  5  6  2  0  0  0  0
  5  4  1  0  0  0  0
  6  1  1  0  0  0  0
  6  7  1  0  0  0  0
  7  2  2  0  0  0  0
  8  9  1  0  0  0  0
  9 12  1  0  0  0  0
 10  9  1  0  0  0  0
 11  9  1  0  0  0  0
 12 13  1  6  0  0  0
 12 14  1  0  0  0  0
 14 15  1  0  0  0  0
 15 16  1  0  0  0  0
 17 18  1  0  0  0  0
 17 16  1  0  0  0  0
 18 19  1  0  0  0  0
 20  5  1  0  0  0  0
 21 24  1  6  0  0  0
 21 25  1  0  0  0  0
 21 23  1  0  0  0  0
 25 22  1  6  0  0  0
 25 23  1  0  0  0  0
 25 20  1  0  0  0  0
M  END
>  <MODEL>
4

>  <REMARK>
 VINA RESULT:      -6.5      1.779      2.280
  Name = 
  10 active torsions:
  status: ('A' for Active; 'I' for Inactive)
    1  A    between atoms: C_1  and  N_6
    2  A    between atoms: C_1  and  C_7
    3  A    between atoms: C_3  and  C_4
    4  A    between atoms: C_3  and  N_24
    5  A    between atoms: C_5  and  C_7
    6  A    between atoms: C_5  and  S_8
    7  A    between atoms: N_6  and  N_24
    8  A    between atoms: S_8  and  C_13
    9  A    between atoms: C_12  and  C_17
   10  A    between atoms: C_12  and  C_20
                            x       y       z     vdW  Elec       q    Type
                         _______ _______ _______ _____ _____    ______ ____

>  <TORSDO>
F 10

$$$$
=
 OpenBabel11042411223D

 25 27  0  0  1  0  0  0  0  0999 V2000
  187.4680  176.8840  143.6230 S   0  0  0  0  0  0  0  0  0  0  0  0
  188.9890  177.4440  146.1900 C   0  0  0  0  0  0  0  0  0  0  0  0
  188.2110  177.9930  147.2740 C   0  0  0  0  0  3  0  0  0  0  0  0
  186.8310  178.2670  147.1760 N   0  0  0  0  0  0  0  0  0  0  0  0
  186.0540  178.0360  146.0490 C   0  0  0  0  0  0  0  0  0  0  0  0
  186.7750  177.5200  145.0270 C   0  0  0  0  0  0  0  0  0  0  0  0
  188.2070  177.2350  145.1010 C   0  0  0  0  0  0  0  0  0  0  0  0
  190.7380  177.0750  146.2750 S   0  0  0  0  0  0  0  0  0  0  0  0
  191.1390  177.8350  144.6540 C   0  0  0  0  0  0  0  0  0  0  0  0
  190.2020  178.8130  144.3690 F   0  0  0  0  0  0  0  0  0  0  0  0
  192.3880  178.4290  144.7150 F   0  0  0  0  0  0  0  0  0  0  0  0
  191.1310  176.8020  143.5170 C   0  0  2  0  0  3  0  0  0  0  0  0
  191.7780  175.4770  143.8990 C   0  0  0  0  0  1  0  0  0  0  0  0
  191.6470  177.3360  142.1790 C   0  0  0  0  0  2  0  0  0  0  0  0
  190.5550  177.6350  141.2670 N   0  0  0  0  0  2  0  0  0  0  0  0
  190.3690  176.4950  140.4750 N   0  0  0  0  0  2  0  0  0  0  0  0
  189.8840  176.9490  139.1810 C   0  0  0  0  0  2  0  0  0  0  0  0
  188.7230  177.9140  139.3590 C   0  0  0  0  0  2  0  0  0  0  0  0
  188.9930  179.1110  138.6960 O   0  0  0  0  0  1  0  0  0  0  0  0
  184.6090  178.3890  145.9670 C   0  0  0  0  0  2  0  0  0  0  0  0
  182.9150  178.9240  144.1240 C   0  0  2  0  0  3  0  0  0  0  0  0
  184.8890  180.3710  144.4450 F   0  0  0  0  0  0  0  0  0  0  0  0
  184.1180  178.2690  143.4540 C   0  0  0  0  0  2  0  0  0  0  0  0
  182.5170  180.0340  143.3780 O   0  0  0  0  0  1  0  0  0  0  0  0
  184.3110  179.1330  144.6760 C   0  0  1  0  0  0  0  0  0  0  0  0
  1  6  1  0  0  0  0
  1  7  1  0  0  0  0
  2  8  1  0  0  0  0
  2  3  1  0  0  0  0
  4  3  2  0  0  0  0
  5  4  1  0  0  0  0
  6  7  1  0  0  0  0
  6  5  2  0  0  0  0
  7  2  2  0  0  0  0
  9 11  1  0  0  0  0
  9  8  1  0  0  0  0
 10  9  1  0  0  0  0
 12 13  1  1  0  0  0
 12  9  1  0  0  0  0
 14 12  1  0  0  0  0
 15 14  1  0  0  0  0
 16 15  1  0  0  0  0
 17 18  1  0  0  0  0
 17 16  1  0  0  0  0
 19 18  1  0  0  0  0
 20  5  1  0  0  0  0
 21 24  1  6  0  0  0
 21 25  1  0  0  0  0
 23 21  1  0  0  0  0
 23 25  1  0  0  0  0
 25 22  1  6  0  0  0
 25 20  1  0  0  0  0
M  END
>  <MODEL>
5

>  <REMARK>
 VINA RESULT:      -6.4      2.477      6.378
  Name = 
  10 active torsions:
  status: ('A' for Active; 'I' for Inactive)
    1  A    between atoms: C_1  and  N_6
    2  A    between atoms: C_1  and  C_7
    3  A    between atoms: C_3  and  C_4
    4  A    between atoms: C_3  and  N_24
    5  A    between atoms: C_5  and  C_7
    6  A    between atoms: C_5  and  S_8
    7  A    between atoms: N_6  and  N_24
    8  A    between atoms: S_8  and  C_13
    9  A    between atoms: C_12  and  C_17
   10  A    between atoms: C_12  and  C_20
                            x       y       z     vdW  Elec       q    Type
                         _______ _______ _______ _____ _____    ______ ____

>  <TORSDO>
F 10

$$$$
=
 OpenBabel11042411223D

 25 27  0  0  1  0  0  0  0  0999 V2000
  193.0290  177.2210  140.1720 S   0  0  0  0  0  0  0  0  0  0  0  0
  191.0370  177.7900  142.3920 C   0  0  0  0  0  0  0  0  0  0  0  0
  189.6460  177.6700  142.0320 C   0  0  0  0  0  3  0  0  0  0  0  0
  189.2070  177.3180  140.7390 N   0  0  0  0  0  0  0  0  0  0  0  0
  190.0420  177.0340  139.6670 C   0  0  0  0  0  0  0  0  0  0  0  0
  191.3500  177.1410  139.9950 C   0  0  0  0  0  0  0  0  0  0  0  0
  191.8300  177.5120  141.3260 C   0  0  0  0  0  0  0  0  0  0  0  0
  191.6350  178.2260  144.0210 S   0  0  0  0  0  0  0  0  0  0  0  0
  191.0000  176.7100  144.8350 C   0  0  0  0  0  0  0  0  0  0  0  0
  189.7700  176.3860  144.2890 F   0  0  0  0  0  0  0  0  0  0  0  0
  191.8710  175.6590  144.6070 F   0  0  0  0  0  0  0  0  0  0  0  0
  190.8280  176.9000  146.3500 C   0  0  2  0  0  3  0  0  0  0  0  0
  191.8140  176.0830  147.1760 C   0  0  0  0  0  1  0  0  0  0  0  0
  189.3880  176.7440  146.8430 C   0  0  0  0  0  2  0  0  0  0  0  0
  188.9970  177.8480  147.7040 N   0  0  0  0  0  2  0  0  0  0  0  0
  187.6010  177.7950  147.8190 N   0  0  0  0  0  2  0  0  0  0  0  0
  187.0720  177.5760  146.4820 C   0  0  0  0  0  2  0  0  0  0  0  0
  186.0580  178.6530  146.1310 C   0  0  0  0  0  2  0  0  0  0  0  0
  185.3240  179.0030  147.2650 O   0  0  0  0  0  1  0  0  0  0  0  0
  189.5400  176.7160  138.3010 C   0  0  0  0  0  2  0  0  0  0  0  0
  187.3510  177.7490  137.4670 C   0  0  2  0  0  3  0  0  0  0  0  0
  189.2730  179.2000  138.0050 F   0  0  0  0  0  0  0  0  0  0  0  0
  188.3210  177.7360  136.2900 C   0  0  0  0  0  2  0  0  0  0  0  0
  186.7050  178.9850  137.5210 O   0  0  0  0  0  1  0  0  0  0  0  0
  188.8390  177.9210  137.6950 C   0  0  1  0  0  0  0  0  0  0  0  0
  1  7  1  0  0  0  0
  2  8  1  0  0  0  0
  3  2  1  0  0  0  0
  4  3  2  0  0  0  0
  5  6  2  0  0  0  0
  5  4  1  0  0  0  0
  6  1  1  0  0  0  0
  6  7  1  0  0  0  0
  7  2  2  0  0  0  0
  8  9  1  0  0  0  0
  9 12  1  0  0  0  0
 10  9  1  0  0  0  0
 11  9  1  0  0  0  0
 12 14  1  0  0  0  0
 12 13  1  1  0  0  0
 14 15  1  0  0  0  0
 15 16  1  0  0  0  0
 17 16  1  0  0  0  0
 18 17  1  0  0  0  0
 18 19  1  0  0  0  0
 20  5  1  0  0  0  0
 21 24  1  6  0  0  0
 21 25  1  0  0  0  0
 23 21  1  0  0  0  0
 23 25  1  0  0  0  0
 25 22  1  1  0  0  0
 25 20  1  0  0  0  0
M  END
>  <MODEL>
6

>  <REMARK>
 VINA RESULT:      -6.3      1.144      1.518
  Name = 
  10 active torsions:
  status: ('A' for Active; 'I' for Inactive)
    1  A    between atoms: C_1  and  N_6
    2  A    between atoms: C_1  and  C_7
    3  A    between atoms: C_3  and  C_4
    4  A    between atoms: C_3  and  N_24
    5  A    between atoms: C_5  and  C_7
    6  A    between atoms: C_5  and  S_8
    7  A    between atoms: N_6  and  N_24
    8  A    between atoms: S_8  and  C_13
    9  A    between atoms: C_12  and  C_17
   10  A    between atoms: C_12  and  C_20
                            x       y       z     vdW  Elec       q    Type
                         _______ _______ _______ _____ _____    ______ ____

>  <TORSDO>
F 10

$$$$
=
 OpenBabel11042411223D

 25 27  0  0  1  0  0  0  0  0999 V2000
  187.5770  177.3880  143.8290 S   0  0  0  0  0  0  0  0  0  0  0  0
  187.1280  177.5460  146.8270 C   0  0  0  0  0  0  0  0  0  0  0  0
  185.9980  178.3340  147.2520 C   0  0  0  0  0  3  0  0  0  0  0  0
  185.1400  179.0050  146.3560 N   0  0  0  0  0  0  0  0  0  0  0  0
  185.2630  178.9840  144.9730 C   0  0  0  0  0  0  0  0  0  0  0  0
  186.3200  178.2440  144.5650 C   0  0  0  0  0  0  0  0  0  0  0  0
  187.2280  177.5470  145.4740 C   0  0  0  0  0  0  0  0  0  0  0  0
  188.2350  176.6740  147.9310 S   0  0  0  0  0  0  0  0  0  0  0  0
  189.7470  177.5400  147.3560 C   0  0  0  0  0  0  0  0  0  0  0  0
  189.3790  178.6100  146.5580 F   0  0  0  0  0  0  0  0  0  0  0  0
  190.4480  178.0260  148.4460 F   0  0  0  0  0  0  0  0  0  0  0  0
  190.6650  176.6150  146.5410 C   0  0  2  0  0  3  0  0  0  0  0  0
  191.8500  176.0870  147.3380 C   0  0  0  0  0  1  0  0  0  0  0  0
  191.0840  177.1830  145.1840 C   0  0  0  0  0  2  0  0  0  0  0  0
  191.7410  176.1780  144.3650 N   0  0  0  0  0  2  0  0  0  0  0  0
  191.0460  176.1330  143.1480 N   0  0  0  0  0  2  0  0  0  0  0  0
  191.1020  177.4690  142.5760 C   0  0  0  0  0  2  0  0  0  0  0  0
  191.2340  177.3920  141.0640 C   0  0  0  0  0  2  0  0  0  0  0  0
  189.9710  177.3040  140.4790 O   0  0  0  0  0  1  0  0  0  0  0  0
  184.3680  179.7490  144.0610 C   0  0  0  0  0  2  0  0  0  0  0  0
  182.0190  179.3860  143.1110 C   0  0  2  0  0  3  0  0  0  0  0  0
  183.8760  177.9230  142.4030 F   0  0  0  0  0  0  0  0  0  0  0  0
  182.2420  178.3220  144.1810 C   0  0  0  0  0  2  0  0  0  0  0  0
  181.4390  178.7970  141.9870 O   0  0  0  0  0  1  0  0  0  0  0  0
  183.4020  178.8150  143.3510 C   0  0  1  0  0  0  0  0  0  0  0  0
  1  6  1  0  0  0  0
  1  7  1  0  0  0  0
  2  3  1  0  0  0  0
  2  8  1  0  0  0  0
  4  3  2  0  0  0  0
  5  4  1  0  0  0  0
  6  5  2  0  0  0  0
  6  7  1  0  0  0  0
  7  2  2  0  0  0  0
  9  8  1  0  0  0  0
  9 11  1  0  0  0  0
 10  9  1  0  0  0  0
 12 13  1  1  0  0  0
 12  9  1  0  0  0  0
 14 12  1  0  0  0  0
 15 14  1  0  0  0  0
 16 15  1  0  0  0  0
 17 16  1  0  0  0  0
 18 17  1  0  0  0  0
 19 18  1  0  0  0  0
 20  5  1  0  0  0  0
 21 24  1  6  0  0  0
 21 25  1  0  0  0  0
 21 23  1  0  0  0  0
 25 22  1  6  0  0  0
 25 20  1  0  0  0  0
 25 23  1  0  0  0  0
M  END
>  <MODEL>
7

>  <REMARK>
 VINA RESULT:      -6.2      3.484      6.207
  Name = 
  10 active torsions:
  status: ('A' for Active; 'I' for Inactive)
    1  A    between atoms: C_1  and  N_6
    2  A    between atoms: C_1  and  C_7
    3  A    between atoms: C_3  and  C_4
    4  A    between atoms: C_3  and  N_24
    5  A    between atoms: C_5  and  C_7
    6  A    between atoms: C_5  and  S_8
    7  A    between atoms: N_6  and  N_24
    8  A    between atoms: S_8  and  C_13
    9  A    between atoms: C_12  and  C_17
   10  A    between atoms: C_12  and  C_20
                            x       y       z     vdW  Elec       q    Type
                         _______ _______ _______ _____ _____    ______ ____

>  <TORSDO>
F 10

$$$$
=
 OpenBabel11042411223D

 25 27  0  0  1  0  0  0  0  0999 V2000
  186.1260  178.7980  141.8080 S   0  0  0  0  0  0  0  0  0  0  0  0
  184.9460  178.9730  144.6000 C   0  0  0  0  0  0  0  0  0  0  0  0
  183.5090  178.8860  144.6810 C   0  0  0  0  0  3  0  0  0  0  0  0
  182.6770  178.7340  143.5520 N   0  0  0  0  0  0  0  0  0  0  0  0
  183.1260  178.6380  142.2420 C   0  0  0  0  0  0  0  0  0  0  0  0
  184.4740  178.7160  142.1560 C   0  0  0  0  0  0  0  0  0  0  0  0
  185.3570  178.8820  143.3100 C   0  0  0  0  0  0  0  0  0  0  0  0
  186.0360  179.1580  146.0070 S   0  0  0  0  0  0  0  0  0  0  0  0
  187.1670  177.8010  145.5100 C   0  0  0  0  0  0  0  0  0  0  0  0
  186.4150  176.7110  145.1100 F   0  0  0  0  0  0  0  0  0  0  0  0
  187.9480  178.2120  144.4440 F   0  0  0  0  0  0  0  0  0  0  0  0
  188.0840  177.3660  146.6640 C   0  0  2  0  0  3  0  0  0  0  0  0
  187.5980  177.8310  148.0310 C   0  0  0  0  0  1  0  0  0  0  0  0
  189.5660  177.6750  146.4390 C   0  0  0  0  0  2  0  0  0  0  0  0
  190.4200  176.7320  147.1430 N   0  0  0  0  0  2  0  0  0  0  0  0
  191.3870  176.3020  146.2240 N   0  0  0  0  0  2  0  0  0  0  0  0
  191.0890  176.9510  144.9560 C   0  0  0  0  0  2  0  0  0  0  0  0
  191.6260  176.1240  143.7990 C   0  0  0  0  0  2  0  0  0  0  0  0
  190.5710  175.5120  143.1220 O   0  0  0  0  0  1  0  0  0  0  0  0
  182.2120  178.5310  141.0700 C   0  0  0  0  0  2  0  0  0  0  0  0
  179.9050  177.8100  141.9130 C   0  0  2  0  0  3  0  0  0  0  0  0
  180.5770  180.1820  142.0310 F   0  0  0  0  0  0  0  0  0  0  0  0
  179.7060  178.4470  140.5410 C   0  0  0  0  0  2  0  0  0  0  0  0
  178.9310  178.2870  142.7910 O   0  0  0  0  0  1  0  0  0  0  0  0
  180.8010  178.9430  141.4530 C   0  0  1  0  0  0  0  0  0  0  0  0
  1  6  1  0  0  0  0
  1  7  1  0  0  0  0
  2  3  1  0  0  0  0
  2  8  1  0  0  0  0
  4  3  2  0  0  0  0
  5  4  1  0  0  0  0
  6  5  2  0  0  0  0
  6  7  1  0  0  0  0
  7  2  2  0  0  0  0
  9  8  1  0  0  0  0
  9 12  1  0  0  0  0
 10  9  1  0  0  0  0
 11  9  1  0  0  0  0
 12 13  1  1  0  0  0
 14 12  1  0  0  0  0
 14 15  1  0  0  0  0
 16 15  1  0  0  0  0
 17 16  1  0  0  0  0
 18 17  1  0  0  0  0
 19 18  1  0  0  0  0
 20 25  1  0  0  0  0
 20  5  1  0  0  0  0
 21 24  1  1  0  0  0
 23 25  1  0  0  0  0
 23 21  1  0  0  0  0
 25 21  1  0  0  0  0
 25 22  1  1  0  0  0
M  END
>  <MODEL>
8

>  <REMARK>
 VINA RESULT:      -6.0      4.922      6.615
  Name = 
  10 active torsions:
  status: ('A' for Active; 'I' for Inactive)
    1  A    between atoms: C_1  and  N_6
    2  A    between atoms: C_1  and  C_7
    3  A    between atoms: C_3  and  C_4
    4  A    between atoms: C_3  and  N_24
    5  A    between atoms: C_5  and  C_7
    6  A    between atoms: C_5  and  S_8
    7  A    between atoms: N_6  and  N_24
    8  A    between atoms: S_8  and  C_13
    9  A    between atoms: C_12  and  C_17
   10  A    between atoms: C_12  and  C_20
                            x       y       z     vdW  Elec       q    Type
                         _______ _______ _______ _____ _____    ______ ____

>  <TORSDO>
F 10

$$$$
=
 OpenBabel11042411223D

 25 27  0  0  1  0  0  0  0  0999 V2000
  188.7850  178.1270  139.7310 S   0  0  0  0  0  0  0  0  0  0  0  0
  188.7340  177.0290  142.5600 C   0  0  0  0  0  0  0  0  0  0  0  0
  187.5380  177.3030  143.3180 C   0  0  0  0  0  3  0  0  0  0  0  0
  186.4470  178.0350  142.8060 N   0  0  0  0  0  0  0  0  0  0  0  0
  186.3780  178.5670  141.5260 C   0  0  0  0  0  0  0  0  0  0  0  0
  187.4960  178.3140  140.8060 C   0  0  0  0  0  0  0  0  0  0  0  0
  188.6430  177.5650  141.3170 C   0  0  0  0  0  0  0  0  0  0  0  0
  190.1360  176.0990  143.1690 S   0  0  0  0  0  0  0  0  0  0  0  0
  190.9700  177.5470  143.9270 C   0  0  0  0  0  0  0  0  0  0  0  0
  192.2360  177.6740  143.3840 F   0  0  0  0  0  0  0  0  0  0  0  0
  190.2540  178.6970  143.6440 F   0  0  0  0  0  0  0  0  0  0  0  0
  191.1030  177.4010  145.4510 C   0  0  2  0  0  3  0  0  0  0  0  0
  191.7470  176.0890  145.8780 C   0  0  0  0  0  1  0  0  0  0  0  0
  189.8160  177.6950  146.2250 C   0  0  0  0  0  2  0  0  0  0  0  0
  189.6330  176.7670  147.3280 N   0  0  0  0  0  2  0  0  0  0  0  0
  188.2620  176.7580  147.6230 N   0  0  0  0  0  2  0  0  0  0  0  0
  187.9230  178.0850  148.1110 C   0  0  0  0  0  2  0  0  0  0  0  0
  186.7000  178.6200  147.3830 C   0  0  0  0  0  2  0  0  0  0  0  0
  186.1510  177.6220  146.5780 O   0  0  0  0  0  1  0  0  0  0  0  0
  185.2290  179.3810  141.0390 C   0  0  0  0  0  2  0  0  0  0  0  0
  183.0760  179.0590  139.6940 C   0  0  2  0  0  3  0  0  0  0  0  0
  185.2440  178.3730  138.7350 F   0  0  0  0  0  0  0  0  0  0  0  0
  183.4570  177.6970  140.2660 C   0  0  0  0  0  2  0  0  0  0  0  0
  182.7060  178.9110  138.3560 O   0  0  0  0  0  1  0  0  0  0  0  0
  184.5320  178.6850  139.8820 C   0  0  1  0  0  0  0  0  0  0  0  0
  1  6  1  0  0  0  0
  1  7  1  0  0  0  0
  2  8  1  0  0  0  0
  2  3  1  0  0  0  0
  4  3  2  0  0  0  0
  5  4  1  0  0  0  0
  6  7  1  0  0  0  0
  6  5  2  0  0  0  0
  7  2  2  0  0  0  0
  8  9  1  0  0  0  0
  9 12  1  0  0  0  0
 10  9  1  0  0  0  0
 11  9  1  0  0  0  0
 12 13  1  6  0  0  0
 12 14  1  0  0  0  0
 14 15  1  0  0  0  0
 15 16  1  0  0  0  0
 16 17  1  0  0  0  0
 18 17  1  0  0  0  0
 19 18  1  0  0  0  0
 20  5  1  0  0  0  0
 21 24  1  6  0  0  0
 21 25  1  0  0  0  0
 21 23  1  0  0  0  0
 25 22  1  6  0  0  0
 25 23  1  0  0  0  0
 25 20  1  0  0  0  0
M  END
>  <MODEL>
9

>  <REMARK>
 VINA RESULT:      -6.0      3.005      3.495
  Name = 
  10 active torsions:
  status: ('A' for Active; 'I' for Inactive)
    1  A    between atoms: C_1  and  N_6
    2  A    between atoms: C_1  and  C_7
    3  A    between atoms: C_3  and  C_4
    4  A    between atoms: C_3  and  N_24
    5  A    between atoms: C_5  and  C_7
    6  A    between atoms: C_5  and  S_8
    7  A    between atoms: N_6  and  N_24
    8  A    between atoms: S_8  and  C_13
    9  A    between atoms: C_12  and  C_17
   10  A    between atoms: C_12  and  C_20
                            x       y       z     vdW  Elec       q    Type
                         _______ _______ _______ _____ _____    ______ ____

>  <TORSDO>
F 10

$$$$
