=
 OpenBabel11042410563D

 26 29  0  0  1  0  0  0  0  0999 V2000
  184.7030  179.6210  140.1010 O   0  0  0  0  0  0  0  0  0  0  0  0
  185.3010  178.5020  144.7560 N   0  0  0  0  0  2  0  0  0  0  0  0
  187.8870  177.6390  142.2590 C   0  0  0  0  0  3  0  0  0  0  0  0
  182.9950  178.5980  141.8620 C   0  0  0  0  0  3  0  0  0  0  0  0
  181.7630  178.7500  142.5040 C   0  0  0  0  0  3  0  0  0  0  0  0
  186.4050  177.7160  144.2180 C   0  0  1  0  0  3  0  0  0  0  0  0
  184.1990  178.5830  142.5930 C   0  0  0  0  0  0  0  0  0  0  0  0
  184.1200  178.6590  143.9910 C   0  0  0  0  0  0  0  0  0  0  0  0
  186.7200  178.8000  139.7510 N   0  0  0  0  0  2  0  0  0  0  0  0
  188.4570  177.7030  141.0100 C   0  0  0  0  0  3  0  0  0  0  0  0
  182.8930  178.8320  144.6370 C   0  0  0  0  0  3  0  0  0  0  0  0
  181.7130  178.8820  143.8920 C   0  0  0  0  0  3  0  0  0  0  0  0
  187.9350  178.2260  139.8540 C   0  0  0  0  0  0  0  0  0  0  0  0
  186.6330  178.0120  142.7290 C   0  0  2  0  0  3  0  0  0  0  0  0
  185.5520  178.4870  141.9250 C   0  0  2  0  0  3  0  0  0  0  0  0
  188.6590  178.1870  138.8260 O   0  0  0  0  0  0  0  0  0  0  0  0
  185.6660  178.9690  140.5850 C   0  0  0  0  0  0  0  0  0  0  0  0
  187.3620  177.6700  146.6010 C   0  0  0  0  0  2  0  0  0  0  0  0
  188.6290  177.8740  147.4250 C   0  0  0  0  0  2  0  0  0  0  0  0
  190.0020  177.0500  145.5040 C   0  0  0  0  0  2  0  0  0  0  0  0
  188.7280  176.8490  144.6870 C   0  0  0  0  0  2  0  0  0  0  0  0
  189.7040  176.8790  146.9900 C   0  0  1  0  0  3  0  0  0  0  0  0
  187.6620  177.8660  145.1080 C   0  0  1  0  0  3  0  0  0  0  0  0
  190.9770  177.1020  147.7860 C   0  0  0  0  0  2  0  0  0  0  0  0
  192.0930  176.4340  147.1370 N   0  0  0  0  0  2  0  0  0  0  0  0
  192.7740  175.6700  148.1660 C   0  0  0  0  0  1  0  0  0  0  0  0
  1 17  2  0  0  0  0
  4  5  2  0  0  0  0
  4  7  1  0  0  0  0
  5 12  1  0  0  0  0
  6  2  1  1  0  0  0
  6 23  1  0  0  0  0
  7  8  2  0  0  0  0
  8 11  1  0  0  0  0
  8  2  1  0  0  0  0
  9 13  1  0  0  0  0
  9 17  1  0  0  0  0
 10  3  2  0  0  0  0
 12 11  2  0  0  0  0
 13 10  1  0  0  0  0
 14  3  1  6  0  0  0
 14  6  1  0  0  0  0
 15 17  1  1  0  0  0
 15  7  1  0  0  0  0
 15 14  1  0  0  0  0
 16 13  2  0  0  0  0
 18 19  1  0  0  0  0
 20 22  1  0  0  0  0
 21 20  1  0  0  0  0
 22 19  1  0  0  0  0
 22 24  1  1  0  0  0
 23 21  1  6  0  0  0
 23 18  1  0  0  0  0
 25 24  1  0  0  0  0
 25 26  1  0  0  0  0
M  END
>  <MODEL>
1

>  <REMARK>
 VINA RESULT:     -10.8      0.000      0.000
  Name = 
  3 active torsions:
  status: ('A' for Active; 'I' for Inactive)
    1  A    between atoms: C_9  and  C_22
    2  A    between atoms: C_10  and  N_11
    3  A    between atoms: C_10  and  C_19
                            x       y       z     vdW  Elec       q    Type
                         _______ _______ _______ _____ _____    ______ ____

>  <TORSDO>
F 3

$$$$
=
 OpenBabel11042410563D

 26 29  0  0  1  0  0  0  0  0999 V2000
  188.0650  176.7030  147.9850 O   0  0  0  0  0  0  0  0  0  0  0  0
  187.3710  177.6430  143.3030 N   0  0  0  0  0  2  0  0  0  0  0  0
  190.7850  177.2420  144.6630 C   0  0  0  0  0  3  0  0  0  0  0  0
  186.4160  178.4160  146.7950 C   0  0  0  0  0  3  0  0  0  0  0  0
  185.0890  178.8210  146.6280 C   0  0  0  0  0  3  0  0  0  0  0  0
  188.8110  177.8710  143.3420 C   0  0  1  0  0  3  0  0  0  0  0  0
  187.1770  177.9510  145.7040 C   0  0  0  0  0  0  0  0  0  0  0  0
  186.5840  177.9690  144.4340 C   0  0  0  0  0  0  0  0  0  0  0  0
  190.2200  176.5860  147.5360 N   0  0  0  0  0  2  0  0  0  0  0  0
  191.6820  176.8970  145.6460 C   0  0  0  0  0  3  0  0  0  0  0  0
  185.2500  178.3530  144.2650 C   0  0  0  0  0  3  0  0  0  0  0  0
  184.5010  178.7750  145.3640 C   0  0  0  0  0  3  0  0  0  0  0  0
  191.4410  176.5990  146.9630 C   0  0  0  0  0  0  0  0  0  0  0  0
  189.4100  177.4500  144.6910 C   0  0  2  0  0  3  0  0  0  0  0  0
  188.5920  177.4430  145.8620 C   0  0  2  0  0  3  0  0  0  0  0  0
  192.4310  176.2900  147.6750 O   0  0  0  0  0  0  0  0  0  0  0  0
  188.9680  176.9070  147.1310 C   0  0  0  0  0  0  0  0  0  0  0  0
  188.6800  177.4280  140.8160 C   0  0  0  0  0  2  0  0  0  0  0  0
  189.3820  176.7470  139.6450 C   0  0  0  0  0  2  0  0  0  0  0  0
  191.5930  177.1740  140.7330 C   0  0  0  0  0  2  0  0  0  0  0  0
  190.8820  177.8540  141.9000 C   0  0  0  0  0  2  0  0  0  0  0  0
  190.7780  177.3390  139.4540 C   0  0  1  0  0  3  0  0  0  0  0  0
  189.4930  177.2400  142.1050 C   0  0  1  0  0  3  0  0  0  0  0  0
  191.4920  176.6400  138.3120 C   0  0  0  0  0  2  0  0  0  0  0  0
  191.1410  175.2300  138.2940 N   0  0  0  0  0  2  0  0  0  0  0  0
  192.1770  174.5520  137.5370 C   0  0  0  0  0  1  0  0  0  0  0  0
  2  8  1  0  0  0  0
  3 10  2  0  0  0  0
  5  4  1  0  0  0  0
  6  2  1  1  0  0  0
  6 14  1  0  0  0  0
  7  4  2  0  0  0  0
  8  7  1  0  0  0  0
 10 13  1  0  0  0  0
 11  8  2  0  0  0  0
 11 12  1  0  0  0  0
 12  5  2  0  0  0  0
 13  9  1  0  0  0  0
 13 16  2  0  0  0  0
 14  3  1  1  0  0  0
 14 15  1  0  0  0  0
 15  7  1  6  0  0  0
 15 17  1  0  0  0  0
 17  9  1  0  0  0  0
 17  1  2  0  0  0  0
 19 18  1  0  0  0  0
 20 21  1  0  0  0  0
 21 23  1  0  0  0  0
 22 24  1  6  0  0  0
 22 19  1  0  0  0  0
 22 20  1  0  0  0  0
 23 18  1  6  0  0  0
 23  6  1  0  0  0  0
 25 24  1  0  0  0  0
 26 25  1  0  0  0  0
M  END
>  <MODEL>
2

>  <REMARK>
 VINA RESULT:     -10.6      3.565      6.433
  Name = 
  3 active torsions:
  status: ('A' for Active; 'I' for Inactive)
    1  A    between atoms: C_9  and  C_22
    2  A    between atoms: C_10  and  N_11
    3  A    between atoms: C_10  and  C_19
                            x       y       z     vdW  Elec       q    Type
                         _______ _______ _______ _____ _____    ______ ____

>  <TORSDO>
F 3

$$$$
=
 OpenBabel11042410563D

 26 29  0  0  1  0  0  0  0  0999 V2000
  185.5470  179.6640  146.9640 O   0  0  0  0  0  0  0  0  0  0  0  0
  188.9630  177.4750  144.3510 N   0  0  0  0  0  2  0  0  0  0  0  0
  185.4910  177.7090  143.1040 C   0  0  0  0  0  3  0  0  0  0  0  0
  187.4540  177.9630  147.6960 C   0  0  0  0  0  3  0  0  0  0  0  0
  188.5590  177.7480  148.5240 C   0  0  0  0  0  3  0  0  0  0  0  0
  187.8080  177.0390  143.5760 C   0  0  1  0  0  3  0  0  0  0  0  0
  187.5830  177.9460  146.2940 C   0  0  0  0  0  0  0  0  0  0  0  0
  188.8390  177.6400  145.7520 C   0  0  0  0  0  0  0  0  0  0  0  0
  184.1680  179.2880  145.2850 N   0  0  0  0  0  2  0  0  0  0  0  0
  184.2020  178.1850  143.1430 C   0  0  0  0  0  3  0  0  0  0  0  0
  189.9520  177.4450  146.5750 C   0  0  0  0  0  3  0  0  0  0  0  0
  189.8120  177.5030  147.9630 C   0  0  0  0  0  3  0  0  0  0  0  0
  183.5810  178.9040  144.1330 C   0  0  0  0  0  0  0  0  0  0  0  0
  186.5240  177.7460  144.0340 C   0  0  2  0  0  3  0  0  0  0  0  0
  186.4230  178.2400  145.3700 C   0  0  2  0  0  3  0  0  0  0  0  0
  182.3880  179.2490  143.9340 O   0  0  0  0  0  0  0  0  0  0  0  0
  185.3700  179.0670  145.8690 C   0  0  0  0  0  0  0  0  0  0  0  0
  187.9120  178.5690  141.5160 C   0  0  0  0  0  2  0  0  0  0  0  0
  188.1700  178.5980  140.0130 C   0  0  0  0  0  2  0  0  0  0  0  0
  189.8010  176.7180  140.2660 C   0  0  0  0  0  2  0  0  0  0  0  0
  189.5350  176.6970  141.7690 C   0  0  0  0  0  2  0  0  0  0  0  0
  189.5930  178.1260  139.7160 C   0  0  1  0  0  3  0  0  0  0  0  0
  188.1000  177.1460  142.0600 C   0  0  1  0  0  3  0  0  0  0  0  0
  189.8420  178.1210  138.2190 C   0  0  0  0  0  2  0  0  0  0  0  0
  188.9510  179.0640  137.5630 N   0  0  0  0  0  2  0  0  0  0  0  0
  188.4120  178.3860  136.3980 C   0  0  0  0  0  1  0  0  0  0  0  0
  2  8  1  0  0  0  0
  3 10  2  0  0  0  0
  4  5  1  0  0  0  0
  6 14  1  0  0  0  0
  6  2  1  1  0  0  0
  7  4  2  0  0  0  0
  8  7  1  0  0  0  0
  8 11  2  0  0  0  0
  9 17  1  0  0  0  0
 10 13  1  0  0  0  0
 11 12  1  0  0  0  0
 12  5  2  0  0  0  0
 13  9  1  0  0  0  0
 14  3  1  1  0  0  0
 14 15  1  0  0  0  0
 15 17  1  6  0  0  0
 15  7  1  0  0  0  0
 16 13  2  0  0  0  0
 17  1  2  0  0  0  0
 19 18  1  0  0  0  0
 20 21  1  0  0  0  0
 21 23  1  0  0  0  0
 22 24  1  6  0  0  0
 22 19  1  0  0  0  0
 22 20  1  0  0  0  0
 23 18  1  1  0  0  0
 23  6  1  0  0  0  0
 25 24  1  0  0  0  0
 26 25  1  0  0  0  0
M  END
>  <MODEL>
3

>  <REMARK>
 VINA RESULT:     -10.5      2.508      6.677
  Name = 
  3 active torsions:
  status: ('A' for Active; 'I' for Inactive)
    1  A    between atoms: C_9  and  C_22
    2  A    between atoms: C_10  and  N_11
    3  A    between atoms: C_10  and  C_19
                            x       y       z     vdW  Elec       q    Type
                         _______ _______ _______ _____ _____    ______ ____

>  <TORSDO>
F 3

$$$$
=
 OpenBabel11042410563D

 26 29  0  0  1  0  0  0  0  0999 V2000
  191.2600  175.7770  142.9710 O   0  0  0  0  0  0  0  0  0  0  0  0
  187.6370  177.3710  145.7300 N   0  0  0  0  0  2  0  0  0  0  0  0
  187.6920  178.0650  142.1000 C   0  0  0  0  0  3  0  0  0  0  0  0
  191.2930  176.9140  145.3730 C   0  0  0  0  0  3  0  0  0  0  0  0
  191.6800  176.7870  146.7100 C   0  0  0  0  0  3  0  0  0  0  0  0
  187.3240  178.1350  144.5290 C   0  0  1  0  0  3  0  0  0  0  0  0
  189.9350  177.0400  145.0190 C   0  0  0  0  0  0  0  0  0  0  0  0
  188.9890  177.1020  146.0520 C   0  0  0  0  0  0  0  0  0  0  0  0
  190.1800  176.6240  141.2440 N   0  0  0  0  0  2  0  0  0  0  0  0
  188.1770  177.8960  140.8250 C   0  0  0  0  0  3  0  0  0  0  0  0
  189.3690  176.9530  147.3890 C   0  0  0  0  0  3  0  0  0  0  0  0
  190.7160  176.7920  147.7180 C   0  0  0  0  0  3  0  0  0  0  0  0
  189.3140  177.2450  140.4180 C   0  0  0  0  0  0  0  0  0  0  0  0
  188.1970  177.7000  143.3430 C   0  0  2  0  0  3  0  0  0  0  0  0
  189.4770  177.1130  143.5800 C   0  0  2  0  0  3  0  0  0  0  0  0
  189.5450  177.2050  139.1820 O   0  0  0  0  0  0  0  0  0  0  0  0
  190.3050  176.5050  142.5880 C   0  0  0  0  0  0  0  0  0  0  0  0
  184.9810  178.7180  145.4030 C   0  0  0  0  0  2  0  0  0  0  0  0
  183.4910  178.6280  145.0920 C   0  0  0  0  0  2  0  0  0  0  0  0
  183.9990  178.8020  142.6490 C   0  0  0  0  0  2  0  0  0  0  0  0
  185.4880  178.8920  142.9710 C   0  0  0  0  0  2  0  0  0  0  0  0
  183.1780  179.3800  143.7990 C   0  0  1  0  0  3  0  0  0  0  0  0
  185.8010  178.1150  144.2540 C   0  0  1  0  0  3  0  0  0  0  0  0
  181.7010  179.2620  143.4680 C   0  0  0  0  0  2  0  0  0  0  0  0
  181.5280  179.0010  142.0490 N   0  0  0  0  0  2  0  0  0  0  0  0
  180.3530  179.7430  141.6300 C   0  0  0  0  0  1  0  0  0  0  0  0
  2  8  1  0  0  0  0
  4  5  1  0  0  0  0
  5 12  2  0  0  0  0
  6  2  1  1  0  0  0
  7  4  2  0  0  0  0
  7  8  1  0  0  0  0
  8 11  2  0  0  0  0
  9 17  1  0  0  0  0
 10  3  2  0  0  0  0
 11 12  1  0  0  0  0
 13 10  1  0  0  0  0
 13  9  1  0  0  0  0
 14  3  1  6  0  0  0
 14 15  1  0  0  0  0
 14  6  1  0  0  0  0
 15 17  1  1  0  0  0
 15  7  1  0  0  0  0
 16 13  2  0  0  0  0
 17  1  2  0  0  0  0
 19 18  1  0  0  0  0
 20 21  1  0  0  0  0
 20 22  1  0  0  0  0
 22 24  1  6  0  0  0
 22 19  1  0  0  0  0
 23 21  1  6  0  0  0
 23  6  1  0  0  0  0
 23 18  1  0  0  0  0
 25 24  1  0  0  0  0
 26 25  1  0  0  0  0
M  END
>  <MODEL>
4

>  <REMARK>
 VINA RESULT:      -9.4      2.050      6.845
  Name = 
  3 active torsions:
  status: ('A' for Active; 'I' for Inactive)
    1  A    between atoms: C_9  and  C_22
    2  A    between atoms: C_10  and  N_11
    3  A    between atoms: C_10  and  C_19
                            x       y       z     vdW  Elec       q    Type
                         _______ _______ _______ _____ _____    ______ ____

>  <TORSDO>
F 3

$$$$
=
 OpenBabel11042410563D

 26 29  0  0  1  0  0  0  0  0999 V2000
  189.9610  175.8380  143.2180 O   0  0  0  0  0  0  0  0  0  0  0  0
  186.1400  178.1350  145.0630 N   0  0  0  0  0  2  0  0  0  0  0  0
  187.1280  178.6430  141.5370 C   0  0  0  0  0  3  0  0  0  0  0  0
  189.6480  177.0620  145.5570 C   0  0  0  0  0  3  0  0  0  0  0  0
  189.6970  176.9340  146.9470 C   0  0  0  0  0  3  0  0  0  0  0  0
  186.2410  178.8840  143.8160 C   0  0  1  0  0  3  0  0  0  0  0  0
  188.4470  177.3950  144.9000 C   0  0  0  0  0  0  0  0  0  0  0  0
  187.3180  177.6600  145.6870 C   0  0  0  0  0  0  0  0  0  0  0  0
  189.4600  176.7720  141.2850 N   0  0  0  0  0  2  0  0  0  0  0  0
  187.8510  178.3380  140.4090 C   0  0  0  0  0  3  0  0  0  0  0  0
  187.3560  177.5120  147.0770 C   0  0  0  0  0  3  0  0  0  0  0  0
  188.5470  177.1450  147.7070 C   0  0  0  0  0  3  0  0  0  0  0  0
  188.9210  177.4890  140.2780 C   0  0  0  0  0  0  0  0  0  0  0  0
  187.2700  178.2570  142.8650 C   0  0  2  0  0  3  0  0  0  0  0  0
  188.3440  177.4770  143.3940 C   0  0  2  0  0  3  0  0  0  0  0  0
  189.4130  177.3550  139.1280 O   0  0  0  0  0  0  0  0  0  0  0  0
  189.2570  176.6950  142.6220 C   0  0  0  0  0  0  0  0  0  0  0  0
  184.4820  178.0500  142.1420 C   0  0  0  0  0  2  0  0  0  0  0  0
  183.1120  178.3480  141.5410 C   0  0  0  0  0  2  0  0  0  0  0  0
  182.3970  179.3780  143.7060 C   0  0  0  0  0  2  0  0  0  0  0  0
  183.7710  179.0760  144.2970 C   0  0  0  0  0  2  0  0  0  0  0  0
  182.0470  178.3460  142.6380 C   0  0  1  0  0  3  0  0  0  0  0  0
  184.8390  179.1040  143.1990 C   0  0  1  0  0  3  0  0  0  0  0  0
  180.6880  178.6760  142.0480 C   0  0  0  0  0  2  0  0  0  0  0  0
  180.4250  180.1000  142.1690 N   0  0  0  0  0  2  0  0  0  0  0  0
  179.7860  180.5110  140.9320 C   0  0  0  0  0  1  0  0  0  0  0  0
  2  8  1  0  0  0  0
  4  5  1  0  0  0  0
  5 12  2  0  0  0  0
  6  2  1  1  0  0  0
  7  4  2  0  0  0  0
  7  8  1  0  0  0  0
  8 11  2  0  0  0  0
  9 17  1  0  0  0  0
 10  3  2  0  0  0  0
 11 12  1  0  0  0  0
 13 10  1  0  0  0  0
 13  9  1  0  0  0  0
 14  3  1  1  0  0  0
 14 15  1  0  0  0  0
 14  6  1  0  0  0  0
 15 17  1  6  0  0  0
 15  7  1  0  0  0  0
 16 13  2  0  0  0  0
 17  1  2  0  0  0  0
 19 18  1  0  0  0  0
 19 22  1  0  0  0  0
 20 21  1  0  0  0  0
 22 24  1  6  0  0  0
 22 20  1  0  0  0  0
 23 18  1  6  0  0  0
 23  6  1  0  0  0  0
 23 21  1  0  0  0  0
 24 25  1  0  0  0  0
 26 25  1  0  0  0  0
M  END
>  <MODEL>
5

>  <REMARK>
 VINA RESULT:      -9.2      2.099      6.872
  Name = 
  3 active torsions:
  status: ('A' for Active; 'I' for Inactive)
    1  A    between atoms: C_9  and  C_22
    2  A    between atoms: C_10  and  N_11
    3  A    between atoms: C_10  and  C_19
                            x       y       z     vdW  Elec       q    Type
                         _______ _______ _______ _____ _____    ______ ____

>  <TORSDO>
F 3

$$$$
=
 OpenBabel11042410563D

 26 29  0  0  1  0  0  0  0  0999 V2000
  185.1860  179.8690  146.4340 O   0  0  0  0  0  0  0  0  0  0  0  0
  188.9950  177.4110  144.7820 N   0  0  0  0  0  2  0  0  0  0  0  0
  185.8290  177.4910  142.8770 C   0  0  0  0  0  3  0  0  0  0  0  0
  186.8880  178.2680  147.7020 C   0  0  0  0  0  3  0  0  0  0  0  0
  187.8110  178.1520  148.7450 C   0  0  0  0  0  3  0  0  0  0  0  0
  188.0010  176.8870  143.8540 C   0  0  1  0  0  3  0  0  0  0  0  0
  187.2800  178.0930  146.3610 C   0  0  0  0  0  0  0  0  0  0  0  0
  188.6110  177.7320  146.1060 C   0  0  0  0  0  0  0  0  0  0  0  0
  184.1440  179.3020  144.5760 N   0  0  0  0  0  2  0  0  0  0  0  0
  184.5650  177.9640  142.6160 C   0  0  0  0  0  3  0  0  0  0  0  0
  189.5430  177.6350  147.1430 C   0  0  0  0  0  3  0  0  0  0  0  0
  189.1430  177.8490  148.4640 C   0  0  0  0  0  3  0  0  0  0  0  0
  183.7800  178.7880  143.3830 C   0  0  0  0  0  0  0  0  0  0  0  0
  186.6670  177.6360  143.9770 C   0  0  2  0  0  3  0  0  0  0  0  0
  186.3220  178.2770  145.2060 C   0  0  2  0  0  3  0  0  0  0  0  0
  182.6530  179.1040  142.9230 O   0  0  0  0  0  0  0  0  0  0  0  0
  185.2090  179.1520  145.3990 C   0  0  0  0  0  0  0  0  0  0  0  0
  188.5330  178.1770  141.6990 C   0  0  0  0  0  2  0  0  0  0  0  0
  189.0720  178.0370  140.2790 C   0  0  0  0  0  2  0  0  0  0  0  0
  190.5770  176.1910  141.0410 C   0  0  0  0  0  2  0  0  0  0  0  0
  190.0300  176.3380  142.4580 C   0  0  0  0  0  2  0  0  0  0  0  0
  190.5130  177.5290  140.3120 C   0  0  1  0  0  3  0  0  0  0  0  0
  188.5780  176.8220  142.4200 C   0  0  1  0  0  3  0  0  0  0  0  0
  191.0410  177.3570  138.8990 C   0  0  0  0  0  2  0  0  0  0  0  0
  192.4630  177.0600  138.9320 N   0  0  0  0  0  2  0  0  0  0  0  0
  192.7680  176.3500  137.7040 C   0  0  0  0  0  1  0  0  0  0  0  0
  2  8  1  0  0  0  0
  4  5  1  0  0  0  0
  6 14  1  0  0  0  0
  6  2  1  1  0  0  0
  7  4  2  0  0  0  0
  8  7  1  0  0  0  0
  8 11  2  0  0  0  0
  9 17  1  0  0  0  0
 10  3  2  0  0  0  0
 10 13  1  0  0  0  0
 11 12  1  0  0  0  0
 12  5  2  0  0  0  0
 13  9  1  0  0  0  0
 14  3  1  1  0  0  0
 14 15  1  0  0  0  0
 15 17  1  6  0  0  0
 15  7  1  0  0  0  0
 16 13  2  0  0  0  0
 17  1  2  0  0  0  0
 19 22  1  0  0  0  0
 19 18  1  0  0  0  0
 20 21  1  0  0  0  0
 22 24  1  6  0  0  0
 22 20  1  0  0  0  0
 23 18  1  1  0  0  0
 23 21  1  0  0  0  0
 23  6  1  0  0  0  0
 24 25  1  0  0  0  0
 26 25  1  0  0  0  0
M  END
>  <MODEL>
6

>  <REMARK>
 VINA RESULT:      -9.2      2.675      6.050
  Name = 
  3 active torsions:
  status: ('A' for Active; 'I' for Inactive)
    1  A    between atoms: C_9  and  C_22
    2  A    between atoms: C_10  and  N_11
    3  A    between atoms: C_10  and  C_19
                            x       y       z     vdW  Elec       q    Type
                         _______ _______ _______ _____ _____    ______ ____

>  <TORSDO>
F 3

$$$$
=
 OpenBabel11042410563D

 26 29  0  0  1  0  0  0  0  0999 V2000
  187.4850  176.8530  146.4840 O   0  0  0  0  0  0  0  0  0  0  0  0
  186.9240  178.1440  141.8690 N   0  0  0  0  0  2  0  0  0  0  0  0
  190.2760  178.1170  143.4290 C   0  0  0  0  0  3  0  0  0  0  0  0
  185.6640  178.4140  145.3390 C   0  0  0  0  0  3  0  0  0  0  0  0
  184.3020  178.6340  145.1150 C   0  0  0  0  0  3  0  0  0  0  0  0
  188.3070  178.5770  142.0310 C   0  0  1  0  0  3  0  0  0  0  0  0
  186.5480  178.1780  144.2680 C   0  0  0  0  0  0  0  0  0  0  0  0
  186.0330  178.2350  142.9660 C   0  0  0  0  0  0  0  0  0  0  0  0
  189.6560  177.1000  146.1820 N   0  0  0  0  0  2  0  0  0  0  0  0
  191.1580  177.8110  144.4370 C   0  0  0  0  0  3  0  0  0  0  0  0
  184.6680  178.4330  142.7370 C   0  0  0  0  0  3  0  0  0  0  0  0
  183.8010  178.6290  143.8130 C   0  0  0  0  0  3  0  0  0  0  0  0
  190.8900  177.3510  145.7020 C   0  0  0  0  0  0  0  0  0  0  0  0
  188.8860  178.1160  143.3760 C   0  0  2  0  0  3  0  0  0  0  0  0
  188.0130  177.8710  144.4800 C   0  0  2  0  0  3  0  0  0  0  0  0
  191.8740  177.1220  146.4520 O   0  0  0  0  0  0  0  0  0  0  0  0
  188.3940  177.2730  145.7200 C   0  0  0  0  0  0  0  0  0  0  0  0
  189.7080  176.7540  140.8870 C   0  0  0  0  0  2  0  0  0  0  0  0
  190.5620  176.4410  139.6630 C   0  0  0  0  0  2  0  0  0  0  0  0
  189.1480  177.9840  138.2930 C   0  0  0  0  0  2  0  0  0  0  0  0
  188.2990  178.2900  139.5240 C   0  0  0  0  0  2  0  0  0  0  0  0
  189.7250  176.5750  138.3910 C   0  0  1  0  0  3  0  0  0  0  0  0
  189.1480  178.1810  140.7940 C   0  0  1  0  0  3  0  0  0  0  0  0
  190.5810  176.2980  137.1690 C   0  0  0  0  0  2  0  0  0  0  0  0
  191.6270  175.3440  137.4990 N   0  0  0  0  0  2  0  0  0  0  0  0
  192.7340  175.6120  136.6000 C   0  0  0  0  0  1  0  0  0  0  0  0
  2  8  1  0  0  0  0
  3 10  2  0  0  0  0
  5  4  1  0  0  0  0
  6  2  1  6  0  0  0
  6 14  1  0  0  0  0
  7  4  2  0  0  0  0
  8  7  1  0  0  0  0
 10 13  1  0  0  0  0
 11  8  2  0  0  0  0
 11 12  1  0  0  0  0
 12  5  2  0  0  0  0
 13  9  1  0  0  0  0
 13 16  2  0  0  0  0
 14  3  1  1  0  0  0
 14 15  1  0  0  0  0
 15  7  1  6  0  0  0
 15 17  1  0  0  0  0
 17  9  1  0  0  0  0
 17  1  2  0  0  0  0
 19 18  1  0  0  0  0
 20 22  1  0  0  0  0
 20 21  1  0  0  0  0
 22 24  1  6  0  0  0
 22 19  1  0  0  0  0
 23 21  1  6  0  0  0
 23 18  1  0  0  0  0
 23  6  1  0  0  0  0
 24 25  1  0  0  0  0
 26 25  1  0  0  0  0
M  END
>  <MODEL>
7

>  <REMARK>
 VINA RESULT:      -9.1      3.284      6.219
  Name = 
  3 active torsions:
  status: ('A' for Active; 'I' for Inactive)
    1  A    between atoms: C_9  and  C_22
    2  A    between atoms: C_10  and  N_11
    3  A    between atoms: C_10  and  C_19
                            x       y       z     vdW  Elec       q    Type
                         _______ _______ _______ _____ _____    ______ ____

>  <TORSDO>
F 3

$$$$
=
 OpenBabel11042410563D

 26 29  0  0  1  0  0  0  0  0999 V2000
  190.5720  176.1470  144.2540 O   0  0  0  0  0  0  0  0  0  0  0  0
  186.0810  177.8960  144.4830 N   0  0  0  0  0  2  0  0  0  0  0  0
  187.9860  177.9910  141.3160 C   0  0  0  0  0  3  0  0  0  0  0  0
  189.4020  177.6590  146.1000 C   0  0  0  0  0  3  0  0  0  0  0  0
  189.0550  177.7800  147.4480 C   0  0  0  0  0  3  0  0  0  0  0  0
  186.4360  178.4290  143.1730 C   0  0  1  0  0  3  0  0  0  0  0  0
  188.4150  177.6250  145.0960 C   0  0  0  0  0  0  0  0  0  0  0  0
  187.0770  177.7830  145.4820 C   0  0  0  0  0  0  0  0  0  0  0  0
  190.5360  176.6180  142.1000 N   0  0  0  0  0  2  0  0  0  0  0  0
  189.0480  177.6530  140.5120 C   0  0  0  0  0  3  0  0  0  0  0  0
  186.7220  177.8830  146.8310 C   0  0  0  0  0  3  0  0  0  0  0  0
  187.7120  177.8780  147.8150 C   0  0  0  0  0  3  0  0  0  0  0  0
  190.2210  177.0300  140.8550 C   0  0  0  0  0  0  0  0  0  0  0  0
  187.7820  177.8720  142.6860 C   0  0  2  0  0  3  0  0  0  0  0  0
  188.7530  177.4280  143.6350 C   0  0  2  0  0  3  0  0  0  0  0  0
  191.0470  176.8070  139.9330 O   0  0  0  0  0  0  0  0  0  0  0  0
  189.9590  176.7290  143.3200 C   0  0  0  0  0  0  0  0  0  0  0  0
  183.8930  178.4820  142.8280 C   0  0  0  0  0  2  0  0  0  0  0  0
  182.7810  178.2490  141.8100 C   0  0  0  0  0  2  0  0  0  0  0  0
  184.3130  178.9930  139.9780 C   0  0  0  0  0  2  0  0  0  0  0  0
  185.4190  179.2230  141.0050 C   0  0  0  0  0  2  0  0  0  0  0  0
  182.9470  179.1990  140.6250 C   0  0  1  0  0  3  0  0  0  0  0  0
  185.2650  178.2510  142.1780 C   0  0  1  0  0  3  0  0  0  0  0  0
  181.8620  178.9460  139.5940 C   0  0  0  0  0  2  0  0  0  0  0  0
  182.3270  179.3390  138.2750 N   0  0  0  0  0  2  0  0  0  0  0  0
  181.6950  178.4410  137.3260 C   0  0  0  0  0  1  0  0  0  0  0  0
  2  8  1  0  0  0  0
  4  5  1  0  0  0  0
  5 12  2  0  0  0  0
  6  2  1  1  0  0  0
  7  8  1  0  0  0  0
  7  4  2  0  0  0  0
  8 11  2  0  0  0  0
  9 17  1  0  0  0  0
 10 13  1  0  0  0  0
 10  3  2  0  0  0  0
 11 12  1  0  0  0  0
 13  9  1  0  0  0  0
 14  3  1  1  0  0  0
 14  6  1  0  0  0  0
 14 15  1  0  0  0  0
 15 17  1  1  0  0  0
 15  7  1  0  0  0  0
 16 13  2  0  0  0  0
 17  1  2  0  0  0  0
 19 18  1  0  0  0  0
 20 22  1  0  0  0  0
 20 21  1  0  0  0  0
 22 24  1  6  0  0  0
 22 19  1  0  0  0  0
 23 21  1  6  0  0  0
 23 18  1  0  0  0  0
 23  6  1  0  0  0  0
 25 24  1  0  0  0  0
 26 25  1  0  0  0  0
M  END
>  <MODEL>
8

>  <REMARK>
 VINA RESULT:      -9.0      2.436      7.026
  Name = 
  3 active torsions:
  status: ('A' for Active; 'I' for Inactive)
    1  A    between atoms: C_9  and  C_22
    2  A    between atoms: C_10  and  N_11
    3  A    between atoms: C_10  and  C_19
                            x       y       z     vdW  Elec       q    Type
                         _______ _______ _______ _____ _____    ______ ____

>  <TORSDO>
F 3

$$$$
=
 OpenBabel11042410563D

 26 29  0  0  1  0  0  0  0  0999 V2000
  190.7550  178.1320  144.8660 O   0  0  0  0  0  0  0  0  0  0  0  0
  187.1080  178.4100  141.7200 N   0  0  0  0  0  2  0  0  0  0  0  0
  186.4670  177.7560  145.3010 C   0  0  0  0  0  3  0  0  0  0  0  0
  190.5050  177.1180  142.4220 C   0  0  0  0  0  3  0  0  0  0  0  0
  191.0420  177.0560  141.1330 C   0  0  0  0  0  3  0  0  0  0  0  0
  186.3570  177.8730  142.8490 C   0  0  1  0  0  3  0  0  0  0  0  0
  189.2140  177.6350  142.6480 C   0  0  0  0  0  0  0  0  0  0  0  0
  188.4570  178.0230  141.5340 C   0  0  0  0  0  0  0  0  0  0  0  0
  189.2380  177.8760  146.4450 N   0  0  0  0  0  2  0  0  0  0  0  0
  186.8430  177.6760  146.6210 C   0  0  0  0  0  3  0  0  0  0  0  0
  188.9960  177.9830  140.2440 C   0  0  0  0  0  3  0  0  0  0  0  0
  190.2920  177.5030  140.0450 C   0  0  0  0  0  3  0  0  0  0  0  0
  188.1040  177.7240  147.1590 C   0  0  0  0  0  0  0  0  0  0  0  0
  187.2070  177.8500  144.1280 C   0  0  2  0  0  3  0  0  0  0  0  0
  188.6300  177.7770  144.0350 C   0  0  2  0  0  3  0  0  0  0  0  0
  188.2000  177.6480  148.4110 O   0  0  0  0  0  0  0  0  0  0  0  0
  189.5400  177.9290  145.1260 C   0  0  0  0  0  0  0  0  0  0  0  0
  184.0110  178.2290  141.8700 C   0  0  0  0  0  2  0  0  0  0  0  0
  182.7090  179.0060  142.0390 C   0  0  0  0  0  2  0  0  0  0  0  0
  183.0540  179.0300  144.5160 C   0  0  0  0  0  2  0  0  0  0  0  0
  184.3550  178.2530  144.3370 C   0  0  0  0  0  2  0  0  0  0  0  0
  182.0790  178.6860  143.3940 C   0  0  1  0  0  3  0  0  0  0  0  0
  184.9970  178.5960  142.9890 C   0  0  1  0  0  3  0  0  0  0  0  0
  180.8010  179.4840  143.5790 C   0  0  0  0  0  2  0  0  0  0  0  0
  180.4320  180.1290  142.3300 N   0  0  0  0  0  2  0  0  0  0  0  0
  178.9860  180.2510  142.3360 C   0  0  0  0  0  1  0  0  0  0  0  0
  1 17  2  0  0  0  0
  3 10  2  0  0  0  0
  4  7  1  0  0  0  0
  5  4  2  0  0  0  0
  6  2  1  6  0  0  0
  6 23  1  0  0  0  0
  6 14  1  0  0  0  0
  8  2  1  0  0  0  0
  8  7  2  0  0  0  0
  9 13  1  0  0  0  0
 10 13  1  0  0  0  0
 11  8  1  0  0  0  0
 12 11  2  0  0  0  0
 12  5  1  0  0  0  0
 13 16  2  0  0  0  0
 14  3  1  1  0  0  0
 15  7  1  6  0  0  0
 15 14  1  0  0  0  0
 15 17  1  0  0  0  0
 17  9  1  0  0  0  0
 18 19  1  0  0  0  0
 19 22  1  0  0  0  0
 21 20  1  0  0  0  0
 22 24  1  1  0  0  0
 22 20  1  0  0  0  0
 23 18  1  6  0  0  0
 23 21  1  0  0  0  0
 25 26  1  0  0  0  0
 25 24  1  0  0  0  0
M  END
>  <MODEL>
9

>  <REMARK>
 VINA RESULT:      -8.8      2.864      7.662
  Name = 
  3 active torsions:
  status: ('A' for Active; 'I' for Inactive)
    1  A    between atoms: C_9  and  C_22
    2  A    between atoms: C_10  and  N_11
    3  A    between atoms: C_10  and  C_19
                            x       y       z     vdW  Elec       q    Type
                         _______ _______ _______ _____ _____    ______ ____

>  <TORSDO>
F 3

$$$$
