=
 OpenBabel11042412453D

 59 68  0  0  1  0  0  0  0  0999 V2000
  190.0220  177.9280  145.3130 N   0  0  0  0  0  2  0  0  0  0  0  0
  190.6350  176.8740  144.5170 C   0  0  0  0  0  2  0  0  0  0  0  0
  188.0940  178.5910  140.4860 C   0  0  0  0  0  1  0  0  0  0  0  0
  189.2070  177.8120  142.6210 C   0  0  0  0  0  3  0  0  0  0  0  0
  190.2780  177.0580  143.0850 C   0  0  0  0  0  0  0  0  0  0  0  0
  190.1580  177.1160  140.6000 C   0  0  0  0  0  0  0  0  0  0  0  0
  189.1440  177.8390  141.2220 C   0  0  0  0  0  0  0  0  0  0  0  0
  191.1430  176.4380  141.7840 S   0  0  0  0  0  0  0  0  0  0  0  0
  190.3670  177.0010  139.1240 C   0  0  1  0  0  3  0  0  0  0  0  0
  188.4610  174.7910  136.4900 N   0  0  0  0  0  2  0  0  0  0  0  0
  190.3910  174.9560  137.8760 N   0  0  0  0  0  0  0  0  0  0  0  0
  191.0500  175.7550  138.8120 N   0  0  0  0  0  2  0  0  0  0  0  0
  189.2490  175.4260  137.5010 C   0  0  0  0  0  0  0  0  0  0  0  0
  188.7610  176.9760  138.2390 S   0  0  0  0  0  0  0  0  0  0  0  0
  188.8250  173.5110  135.8880 C   0  0  0  0  0  2  0  0  0  0  0  0
  188.0000  172.4030  136.5200 C   0  0  0  0  0  2  0  0  0  0  0  0
  185.9470  172.7010  135.1150 C   0  0  0  0  0  3  0  0  0  0  0  0
  186.5390  172.6650  136.3820 C   0  0  0  0  0  0  0  0  0  0  0  0
  184.5720  172.9250  134.9920 C   0  0  0  0  0  3  0  0  0  0  0  0
  183.7810  173.1060  136.1310 C   0  0  0  0  0  0  0  0  0  0  0  0
  184.3800  173.0680  137.4000 C   0  0  0  0  0  3  0  0  0  0  0  0
  185.7550  172.8520  137.5240 C   0  0  0  0  0  3  0  0  0  0  0  0
  182.4080  173.3110  135.9760 O   0  0  0  0  0  0  0  0  0  0  0  0
  180.2730  174.4370  136.0270 C   0  0  0  0  0  2  0  0  0  0  0  0
  180.7720  174.3270  137.4470 C   0  0  2  0  0  0  0  0  0  0  0  0
  181.7680  174.5370  136.3200 C   0  0  1  0  0  3  0  0  0  0  0  0
  180.7030  173.0290  137.9700 O   0  0  0  0  0  1  0  0  0  0  0  0
  181.3950  175.5350  139.5730 C   0  0  0  0  0  2  0  0  0  0  0  0
  180.4980  175.5350  138.3440 C   0  0  0  0  0  3  0  0  0  0  0  0
  179.9590  175.0690  139.6880 C   0  0  0  0  0  2  0  0  0  0  0  0
  189.0840  177.3180  146.1550 N   0  0  0  0  0  2  0  0  0  0  0  0
  185.6110  178.3690  145.2080 C   0  0  0  0  0  0  0  0  0  0  0  0
  187.7410  177.7960  146.2500 C   0  0  0  0  0  0  0  0  0  0  0  0
  185.1130  178.7300  146.4730 C   0  0  0  0  0  3  0  0  0  0  0  0
  186.9290  177.8950  145.1110 C   0  0  0  0  0  3  0  0  0  0  0  0
  185.9170  178.6270  147.6110 C   0  0  0  0  0  3  0  0  0  0  0  0
  187.2310  178.1650  147.4990 C   0  0  0  0  0  3  0  0  0  0  0  0
  181.0980  179.1740  141.1060 C   0  0  0  0  0  0  0  0  0  0  0  0
  181.1340  180.0010  139.1590 C   0  0  0  0  0  0  0  0  0  0  0  0
  184.7770  178.5120  143.9890 C   0  0  0  0  0  0  0  0  0  0  0  0
  183.3270  178.9540  144.1280 C   0  0  0  0  0  2  0  0  0  0  0  0
  180.3960  179.9800  140.2990 N   0  0  0  0  0  0  0  0  0  0  0  0
  180.4650  179.7200  143.3850 O   0  0  0  0  0  0  0  0  0  0  0  0
  182.3580  179.3340  139.2900 C   0  0  0  0  0  3  0  0  0  0  0  0
  183.2330  178.5670  141.6140 C   0  0  0  0  0  0  0  0  0  0  0  0
  185.3110  178.2520  142.7720 C   0  0  0  0  0  3  0  0  0  0  0  0
  182.5990  178.7980  142.8720 N   0  0  0  0  0  0  0  0  0  0  0  0
  182.2630  178.7800  140.5450 C   0  0  1  0  0  3  0  0  0  0  0  0
  184.5340  178.3320  141.5200 C   0  0  0  0  0  3  0  0  0  0  0  0
  181.2810  179.2440  142.5530 C   0  0  0  0  0  0  0  0  0  0  0  0
  180.6230  181.0180  135.5650 C   0  0  0  0  0  2  0  0  0  0  0  0
  180.0430  183.1450  134.6620 O   0  0  0  0  0  1  0  0  0  0  0  0
  180.5720  182.5260  135.7930 C   0  0  1  0  0  3  0  0  0  0  0  0
  179.6750  182.7830  137.0040 C   0  0  1  0  0  3  0  0  0  0  0  0
  180.7460  180.7740  137.9730 C   0  0  0  0  0  0  0  0  0  0  0  0
  181.0180  180.3160  136.7850 N   0  0  0  0  0  0  0  0  0  0  0  0
  180.1190  182.0210  138.1270 O   0  0  0  0  0  0  0  0  0  0  0  0
  180.8210  184.9020  137.0460 O   0  0  0  0  0  1  0  0  0  0  0  0
  179.6150  184.2660  137.3620 C   0  0  0  0  0  2  0  0  0  0  0  0
  1 31  1  0  0  0  0
  2  1  1  0  0  0  0
  3  7  1  0  0  0  0
  4  5  2  0  0  0  0
  5  2  1  0  0  0  0
  6  7  2  0  0  0  0
  6  8  1  0  0  0  0
  7  4  1  0  0  0  0
  8  5  1  0  0  0  0
  9  6  1  1  0  0  0
 10 13  1  0  0  0  0
 11 12  1  0  0  0  0
 12  9  1  0  0  0  0
 13 11  2  0  0  0  0
 13 14  1  0  0  0  0
 14  9  1  0  0  0  0
 15 10  1  0  0  0  0
 15 16  1  0  0  0  0
 17 18  1  0  0  0  0
 18 16  1  0  0  0  0
 18 22  2  0  0  0  0
 19 17  2  0  0  0  0
 19 20  1  0  0  0  0
 20 21  2  0  0  0  0
 21 22  1  0  0  0  0
 23 20  1  0  0  0  0
 24 26  1  0  0  0  0
 24 25  1  0  0  0  0
 25 27  1  1  0  0  0
 25 29  1  0  0  0  0
 26 23  1  6  0  0  0
 26 25  1  0  0  0  0
 28 30  1  0  0  0  0
 29 28  1  0  0  0  0
 29 30  1  0  0  0  0
 31 33  1  0  0  0  0
 32 34  1  0  0  0  0
 33 37  2  0  0  0  0
 34 36  2  0  0  0  0
 35 32  2  0  0  0  0
 35 33  1  0  0  0  0
 37 36  1  0  0  0  0
 38 50  1  0  0  0  0
 39 44  2  0  0  0  0
 39 42  1  0  0  0  0
 40 41  1  0  0  0  0
 40 32  1  0  0  0  0
 42 38  2  0  0  0  0
 45 47  1  0  0  0  0
 46 40  2  0  0  0  0
 47 41  1  0  0  0  0
 48 44  1  6  0  0  0
 48 38  1  0  0  0  0
 48 45  1  0  0  0  0
 49 45  2  0  0  0  0
 49 46  1  0  0  0  0
 50 47  1  0  0  0  0
 50 43  2  0  0  0  0
 51 53  1  0  0  0  0
 51 56  1  0  0  0  0
 53 52  1  6  0  0  0
 53 54  1  0  0  0  0
 54 59  1  1  0  0  0
 54 57  1  0  0  0  0
 55 57  1  0  0  0  0
 55 39  1  0  0  0  0
 56 55  2  0  0  0  0
 58 59  1  0  0  0  0
M  END
>  <MODEL>
1

>  <REMARK>
 VINA RESULT:      -9.7      0.000      0.000
  Name = 
  14 active torsions:
  status: ('A' for Active; 'I' for Inactive)
    1  A    between atoms: C_4  and  C_26
    2  A    between atoms: C_5  and  N_58
    3  A    between atoms: C_9  and  C_22
    4  A    between atoms: C_12  and  C_14
    5  A    between atoms: C_13  and  C_20
    6  A    between atoms: N_16  and  C_45
    7  A    between atoms: N_16  and  N_58
    8  A    between atoms: C_17  and  C_36
    9  A    between atoms: C_22  and  C_46
   10  A    between atoms: C_23  and  O_55
   11  A    between atoms: C_24  and  C_29
   12  A    between atoms: N_28  and  C_46
   13  A    between atoms: C_31  and  C_45
   14  A    between atoms: C_39  and  O_55
                            x       y       z     vdW  Elec       q    Type
                         _______ _______ _______ _____ _____    ______ ____

>  <TORSDO>
F 14

$$$$
=
 OpenBabel11042412453D

 59 68  0  0  1  0  0  0  0  0999 V2000
  190.1870  177.1450  147.2540 N   0  0  0  0  0  2  0  0  0  0  0  0
  191.3220  177.0390  146.3500 C   0  0  0  0  0  2  0  0  0  0  0  0
  189.2550  179.1320  142.2270 C   0  0  0  0  0  1  0  0  0  0  0  0
  190.2130  178.2520  144.3980 C   0  0  0  0  0  3  0  0  0  0  0  0
  190.8530  177.1450  144.9440 C   0  0  0  0  0  0  0  0  0  0  0  0
  190.3400  176.8550  142.5250 C   0  0  0  0  0  0  0  0  0  0  0  0
  189.9260  178.0810  143.0380 C   0  0  0  0  0  0  0  0  0  0  0  0
  191.0690  175.9720  143.7590 S   0  0  0  0  0  0  0  0  0  0  0  0
  190.2060  176.4150  141.1030 C   0  0  1  0  0  3  0  0  0  0  0  0
  189.7650  178.5720  137.8460 N   0  0  0  0  0  2  0  0  0  0  0  0
  188.6430  177.2960  139.5150 N   0  0  0  0  0  0  0  0  0  0  0  0
  188.8210  176.5360  140.6720 N   0  0  0  0  0  2  0  0  0  0  0  0
  189.7310  177.8250  139.0650 C   0  0  0  0  0  0  0  0  0  0  0  0
  191.2130  177.4740  139.9960 S   0  0  0  0  0  0  0  0  0  0  0  0
  188.5660  178.8940  137.0790 C   0  0  0  0  0  2  0  0  0  0  0  0
  188.3740  177.8600  135.9820 C   0  0  0  0  0  2  0  0  0  0  0  0
  186.3180  176.8860  137.0310 C   0  0  0  0  0  3  0  0  0  0  0  0
  186.9560  177.4080  135.9010 C   0  0  0  0  0  0  0  0  0  0  0  0
  184.9810  176.4840  136.9570 C   0  0  0  0  0  3  0  0  0  0  0  0
  184.2720  176.6080  135.7570 C   0  0  0  0  0  0  0  0  0  0  0  0
  184.9170  177.1330  134.6260 C   0  0  0  0  0  3  0  0  0  0  0  0
  186.2560  177.5280  134.6980 C   0  0  0  0  0  3  0  0  0  0  0  0
  182.9330  176.2130  135.7180 O   0  0  0  0  0  0  0  0  0  0  0  0
  180.5430  176.3580  136.0190 C   0  0  0  0  0  2  0  0  0  0  0  0
  181.1480  175.9110  137.3270 C   0  0  2  0  0  0  0  0  0  0  0  0
  181.9100  176.8860  136.4460 C   0  0  1  0  0  3  0  0  0  0  0  0
  181.6040  174.5860  137.3140 O   0  0  0  0  0  1  0  0  0  0  0  0
  180.7570  175.6090  139.8020 C   0  0  0  0  0  2  0  0  0  0  0  0
  180.5090  176.4940  138.5890 C   0  0  0  0  0  3  0  0  0  0  0  0
  179.4190  175.5620  139.0940 C   0  0  0  0  0  2  0  0  0  0  0  0
  189.0520  176.7330  146.5440 N   0  0  0  0  0  2  0  0  0  0  0  0
  185.8770  178.3660  145.3980 C   0  0  0  0  0  0  0  0  0  0  0  0
  187.8470  177.4990  146.5470 C   0  0  0  0  0  0  0  0  0  0  0  0
  185.4880  179.0050  146.5900 C   0  0  0  0  0  3  0  0  0  0  0  0
  187.0580  177.6090  145.3920 C   0  0  0  0  0  3  0  0  0  0  0  0
  186.2670  178.8930  147.7440 C   0  0  0  0  0  3  0  0  0  0  0  0
  187.4480  178.1450  147.7210 C   0  0  0  0  0  3  0  0  0  0  0  0
  181.4540  179.0130  141.1730 C   0  0  0  0  0  0  0  0  0  0  0  0
  181.4770  179.9680  139.2840 C   0  0  0  0  0  0  0  0  0  0  0  0
  185.0760  178.5110  144.1570 C   0  0  0  0  0  0  0  0  0  0  0  0
  183.5870  178.8050  144.2640 C   0  0  0  0  0  2  0  0  0  0  0  0
  180.7050  179.8020  140.3890 N   0  0  0  0  0  0  0  0  0  0  0  0
  180.6910  179.3450  143.4530 O   0  0  0  0  0  0  0  0  0  0  0  0
  182.7550  179.4130  139.4240 C   0  0  0  0  0  3  0  0  0  0  0  0
  183.6180  178.5790  141.7290 C   0  0  0  0  0  0  0  0  0  0  0  0
  185.6750  178.3840  142.9490 C   0  0  0  0  0  3  0  0  0  0  0  0
  182.9210  178.6640  142.9710 N   0  0  0  0  0  0  0  0  0  0  0  0
  182.6700  178.7700  140.6360 C   0  0  1  0  0  3  0  0  0  0  0  0
  184.9380  178.4740  141.6740 C   0  0  0  0  0  3  0  0  0  0  0  0
  181.5780  179.0040  142.6270 C   0  0  0  0  0  0  0  0  0  0  0  0
  180.4070  180.9540  135.8070 C   0  0  0  0  0  2  0  0  0  0  0  0
  180.3000  183.1170  134.8130 O   0  0  0  0  0  1  0  0  0  0  0  0
  180.8830  182.4040  135.8590 C   0  0  1  0  0  3  0  0  0  0  0  0
  180.4480  182.9880  137.2020 C   0  0  1  0  0  3  0  0  0  0  0  0
  181.0580  180.7790  138.1350 C   0  0  0  0  0  0  0  0  0  0  0  0
  180.8630  180.2110  136.9790 N   0  0  0  0  0  0  0  0  0  0  0  0
  180.9060  182.1670  138.2770 O   0  0  0  0  0  0  0  0  0  0  0  0
  182.3300  184.4500  137.5510 O   0  0  0  0  0  1  0  0  0  0  0  0
  180.9410  184.4210  137.3850 C   0  0  0  0  0  2  0  0  0  0  0  0
  2  1  1  0  0  0  0
  3  7  1  0  0  0  0
  4  5  2  0  0  0  0
  5  2  1  0  0  0  0
  6  7  2  0  0  0  0
  6  8  1  0  0  0  0
  7  4  1  0  0  0  0
  8  5  1  0  0  0  0
  9  6  1  1  0  0  0
 10 13  1  0  0  0  0
 11 12  1  0  0  0  0
 12  9  1  0  0  0  0
 13 11  2  0  0  0  0
 13 14  1  0  0  0  0
 14  9  1  0  0  0  0
 15 10  1  0  0  0  0
 16 15  1  0  0  0  0
 18 16  1  0  0  0  0
 18 17  2  0  0  0  0
 19 17  1  0  0  0  0
 20 19  2  0  0  0  0
 21 22  2  0  0  0  0
 21 20  1  0  0  0  0
 22 18  1  0  0  0  0
 23 20  1  0  0  0  0
 24 26  1  0  0  0  0
 24 25  1  0  0  0  0
 25 27  1  1  0  0  0
 25 29  1  0  0  0  0
 26 23  1  6  0  0  0
 26 25  1  0  0  0  0
 29 30  1  0  0  0  0
 29 28  1  0  0  0  0
 30 28  1  0  0  0  0
 31 33  1  0  0  0  0
 31  1  1  0  0  0  0
 32 34  1  0  0  0  0
 33 37  2  0  0  0  0
 34 36  2  0  0  0  0
 35 32  2  0  0  0  0
 35 33  1  0  0  0  0
 37 36  1  0  0  0  0
 38 50  1  0  0  0  0
 39 44  2  0  0  0  0
 39 42  1  0  0  0  0
 40 41  1  0  0  0  0
 40 32  1  0  0  0  0
 42 38  2  0  0  0  0
 45 47  1  0  0  0  0
 46 40  2  0  0  0  0
 47 41  1  0  0  0  0
 48 44  1  1  0  0  0
 48 38  1  0  0  0  0
 48 45  1  0  0  0  0
 49 45  2  0  0  0  0
 49 46  1  0  0  0  0
 50 47  1  0  0  0  0
 50 43  2  0  0  0  0
 51 53  1  0  0  0  0
 51 56  1  0  0  0  0
 53 52  1  6  0  0  0
 53 54  1  0  0  0  0
 54 59  1  1  0  0  0
 54 57  1  0  0  0  0
 55 57  1  0  0  0  0
 55 39  1  0  0  0  0
 56 55  2  0  0  0  0
 59 58  1  0  0  0  0
M  END
>  <MODEL>
2

>  <REMARK>
 VINA RESULT:      -9.4      1.984      2.324
  Name = 
  14 active torsions:
  status: ('A' for Active; 'I' for Inactive)
    1  A    between atoms: C_4  and  C_26
    2  A    between atoms: C_5  and  N_58
    3  A    between atoms: C_9  and  C_22
    4  A    between atoms: C_12  and  C_14
    5  A    between atoms: C_13  and  C_20
    6  A    between atoms: N_16  and  C_45
    7  A    between atoms: N_16  and  N_58
    8  A    between atoms: C_17  and  C_36
    9  A    between atoms: C_22  and  C_46
   10  A    between atoms: C_23  and  O_55
   11  A    between atoms: C_24  and  C_29
   12  A    between atoms: N_28  and  C_46
   13  A    between atoms: C_31  and  C_45
   14  A    between atoms: C_39  and  O_55
                            x       y       z     vdW  Elec       q    Type
                         _______ _______ _______ _____ _____    ______ ____

>  <TORSDO>
F 14

$$$$
=
 OpenBabel11042412453D

 59 68  0  0  1  0  0  0  0  0999 V2000
  190.3450  177.6290  146.0160 N   0  0  0  0  0  2  0  0  0  0  0  0
  191.1800  176.9250  145.0540 C   0  0  0  0  0  2  0  0  0  0  0  0
  188.3760  178.9550  141.3560 C   0  0  0  0  0  1  0  0  0  0  0  0
  189.6560  178.0480  143.3420 C   0  0  0  0  0  3  0  0  0  0  0  0
  190.6450  177.1330  143.6820 C   0  0  0  0  0  0  0  0  0  0  0  0
  190.1610  177.1520  141.2400 C   0  0  0  0  0  0  0  0  0  0  0  0
  189.3870  178.0520  141.9670 C   0  0  0  0  0  0  0  0  0  0  0  0
  191.1890  176.3440  142.3010 S   0  0  0  0  0  0  0  0  0  0  0  0
  190.1230  176.9690  139.7570 C   0  0  1  0  0  3  0  0  0  0  0  0
  187.5320  178.3330  137.1340 N   0  0  0  0  0  2  0  0  0  0  0  0
  188.1670  176.4660  138.4670 N   0  0  0  0  0  0  0  0  0  0  0  0
  189.0960  176.0020  139.4000 N   0  0  0  0  0  2  0  0  0  0  0  0
  188.3340  177.7010  138.1350 C   0  0  0  0  0  0  0  0  0  0  0  0
  189.6990  178.5440  138.9180 S   0  0  0  0  0  0  0  0  0  0  0  0
  186.3960  177.6760  136.4950 C   0  0  0  0  0  2  0  0  0  0  0  0
  185.1650  177.8260  137.3740 C   0  0  0  0  0  2  0  0  0  0  0  0
  184.4000  175.4480  137.1930 C   0  0  0  0  0  3  0  0  0  0  0  0
  184.1280  176.8110  137.0370 C   0  0  0  0  0  0  0  0  0  0  0  0
  183.4160  174.4990  136.8970 C   0  0  0  0  0  3  0  0  0  0  0  0
  182.1540  174.9060  136.4520 C   0  0  0  0  0  0  0  0  0  0  0  0
  181.8850  176.2750  136.2970 C   0  0  0  0  0  3  0  0  0  0  0  0
  182.8710  177.2240  136.5850 C   0  0  0  0  0  3  0  0  0  0  0  0
  181.1860  173.9370  136.1800 O   0  0  0  0  0  0  0  0  0  0  0  0
  180.0080  172.2400  137.4280 C   0  0  0  0  0  2  0  0  0  0  0  0
  180.2140  171.7230  136.0250 C   0  0  2  0  0  0  0  0  0  0  0  0
  181.2790  172.5990  136.6630 C   0  0  1  0  0  3  0  0  0  0  0  0
  179.3980  172.3450  135.0700 O   0  0  0  0  0  1  0  0  0  0  0  0
  181.2660  169.9230  134.6060 C   0  0  0  0  0  2  0  0  0  0  0  0
  180.5420  170.2340  135.9060 C   0  0  0  0  0  3  0  0  0  0  0  0
  179.7860  169.6300  134.7330 C   0  0  0  0  0  2  0  0  0  0  0  0
  189.1640  176.8890  146.1590 N   0  0  0  0  0  2  0  0  0  0  0  0
  185.8080  178.2770  145.2240 C   0  0  0  0  0  0  0  0  0  0  0  0
  187.8890  177.5260  146.2530 C   0  0  0  0  0  0  0  0  0  0  0  0
  185.3930  178.7730  146.4740 C   0  0  0  0  0  3  0  0  0  0  0  0
  187.0580  177.6470  145.1290 C   0  0  0  0  0  3  0  0  0  0  0  0
  186.2150  178.6480  147.5980 C   0  0  0  0  0  3  0  0  0  0  0  0
  187.4630  178.0300  147.4860 C   0  0  0  0  0  3  0  0  0  0  0  0
  181.2290  179.0490  141.1900 C   0  0  0  0  0  0  0  0  0  0  0  0
  181.2050  179.9810  139.2900 C   0  0  0  0  0  0  0  0  0  0  0  0
  184.9590  178.4380  144.0180 C   0  0  0  0  0  0  0  0  0  0  0  0
  183.4870  178.7910  144.1870 C   0  0  0  0  0  2  0  0  0  0  0  0
  180.4780  179.8570  140.4300 N   0  0  0  0  0  0  0  0  0  0  0  0
  180.5820  179.4360  143.4970 O   0  0  0  0  0  0  0  0  0  0  0  0
  182.4650  179.3770  139.3800 C   0  0  0  0  0  3  0  0  0  0  0  0
  183.3970  178.5360  141.6560 C   0  0  0  0  0  0  0  0  0  0  0  0
  185.4970  178.2740  142.7870 C   0  0  0  0  0  3  0  0  0  0  0  0
  182.7600  178.6620  142.9270 N   0  0  0  0  0  0  0  0  0  0  0  0
  182.4100  178.7520  140.6030 C   0  0  1  0  0  3  0  0  0  0  0  0
  184.7090  178.3790  141.5450 C   0  0  0  0  0  3  0  0  0  0  0  0
  181.4180  179.0510  142.6380 C   0  0  0  0  0  0  0  0  0  0  0  0
  179.7410  180.9730  135.9620 C   0  0  0  0  0  2  0  0  0  0  0  0
  179.9340  183.0310  134.7770 O   0  0  0  0  0  1  0  0  0  0  0  0
  180.5310  182.2670  135.7770 C   0  0  1  0  0  3  0  0  0  0  0  0
  180.5010  183.0210  137.1060 C   0  0  1  0  0  3  0  0  0  0  0  0
  180.7670  180.7940  138.1490 C   0  0  0  0  0  0  0  0  0  0  0  0
  180.2340  180.2170  137.1100 N   0  0  0  0  0  0  0  0  0  0  0  0
  180.9600  182.1840  138.1680 O   0  0  0  0  0  0  0  0  0  0  0  0
  180.5840  185.3950  137.5110 O   0  0  0  0  0  1  0  0  0  0  0  0
  181.3290  184.3030  137.0490 C   0  0  0  0  0  2  0  0  0  0  0  0
  1 31  1  0  0  0  0
  2  1  1  0  0  0  0
  3  7  1  0  0  0  0
  4  5  2  0  0  0  0
  5  2  1  0  0  0  0
  6  7  2  0  0  0  0
  6  8  1  0  0  0  0
  7  4  1  0  0  0  0
  8  5  1  0  0  0  0
  9  6  1  1  0  0  0
 10 13  1  0  0  0  0
 11 12  1  0  0  0  0
 12  9  1  0  0  0  0
 13 11  2  0  0  0  0
 13 14  1  0  0  0  0
 14  9  1  0  0  0  0
 15 10  1  0  0  0  0
 15 16  1  0  0  0  0
 18 17  1  0  0  0  0
 18 16  1  0  0  0  0
 19 17  2  0  0  0  0
 20 19  1  0  0  0  0
 21 20  2  0  0  0  0
 21 22  1  0  0  0  0
 22 18  2  0  0  0  0
 23 20  1  0  0  0  0
 25 27  1  6  0  0  0
 25 26  1  0  0  0  0
 25 24  1  0  0  0  0
 26 23  1  6  0  0  0
 26 24  1  0  0  0  0
 28 30  1  0  0  0  0
 28 29  1  0  0  0  0
 29 25  1  0  0  0  0
 30 29  1  0  0  0  0
 31 33  1  0  0  0  0
 32 34  1  0  0  0  0
 33 37  2  0  0  0  0
 34 36  2  0  0  0  0
 35 32  2  0  0  0  0
 35 33  1  0  0  0  0
 37 36  1  0  0  0  0
 38 50  1  0  0  0  0
 39 44  2  0  0  0  0
 39 42  1  0  0  0  0
 40 41  1  0  0  0  0
 40 32  1  0  0  0  0
 42 38  2  0  0  0  0
 45 47  1  0  0  0  0
 46 40  2  0  0  0  0
 47 41  1  0  0  0  0
 48 44  1  6  0  0  0
 48 38  1  0  0  0  0
 48 45  1  0  0  0  0
 49 45  2  0  0  0  0
 49 46  1  0  0  0  0
 50 47  1  0  0  0  0
 50 43  2  0  0  0  0
 51 56  1  0  0  0  0
 53 52  1  6  0  0  0
 53 51  1  0  0  0  0
 53 54  1  0  0  0  0
 54 59  1  6  0  0  0
 54 57  1  0  0  0  0
 55 57  1  0  0  0  0
 55 39  1  0  0  0  0
 56 55  2  0  0  0  0
 59 58  1  0  0  0  0
M  END
>  <MODEL>
3

>  <REMARK>
 VINA RESULT:      -8.3      1.828      2.555
  Name = 
  14 active torsions:
  status: ('A' for Active; 'I' for Inactive)
    1  A    between atoms: C_4  and  C_26
    2  A    between atoms: C_5  and  N_58
    3  A    between atoms: C_9  and  C_22
    4  A    between atoms: C_12  and  C_14
    5  A    between atoms: C_13  and  C_20
    6  A    between atoms: N_16  and  C_45
    7  A    between atoms: N_16  and  N_58
    8  A    between atoms: C_17  and  C_36
    9  A    between atoms: C_22  and  C_46
   10  A    between atoms: C_23  and  O_55
   11  A    between atoms: C_24  and  C_29
   12  A    between atoms: N_28  and  C_46
   13  A    between atoms: C_31  and  C_45
   14  A    between atoms: C_39  and  O_55
                            x       y       z     vdW  Elec       q    Type
                         _______ _______ _______ _____ _____    ______ ____

>  <TORSDO>
F 14

$$$$
=
 OpenBabel11042412453D

 59 68  0  0  1  0  0  0  0  0999 V2000
  182.4310  176.1390  139.2520 N   0  0  0  0  0  2  0  0  0  0  0  0
  181.5580  177.3030  139.3190 C   0  0  0  0  0  2  0  0  0  0  0  0
  180.0300  178.8510  143.8930 C   0  0  0  0  0  1  0  0  0  0  0  0
  180.5890  178.0430  141.5610 C   0  0  0  0  0  3  0  0  0  0  0  0
  181.6480  177.9170  140.6700 C   0  0  0  0  0  0  0  0  0  0  0  0
  182.3350  178.9430  142.8320 C   0  0  0  0  0  0  0  0  0  0  0  0
  180.9820  178.6230  142.7740 C   0  0  0  0  0  0  0  0  0  0  0  0
  183.0560  178.5060  141.3750 S   0  0  0  0  0  0  0  0  0  0  0  0
  183.0420  179.5310  144.0100 C   0  0  1  0  0  3  0  0  0  0  0  0
  186.5960  178.6940  145.4690 N   0  0  0  0  0  2  0  0  0  0  0  0
  184.2570  178.2940  145.6640 N   0  0  0  0  0  0  0  0  0  0  0  0
  183.0050  178.6020  145.1290 N   0  0  0  0  0  2  0  0  0  0  0  0
  185.2430  178.8290  145.0260 C   0  0  0  0  0  0  0  0  0  0  0  0
  184.8070  179.8400  143.6210 S   0  0  0  0  0  0  0  0  0  0  0  0
  186.9810  177.8540  146.5990 C   0  0  0  0  0  2  0  0  0  0  0  0
  188.2750  177.1280  146.2710 C   0  0  0  0  0  2  0  0  0  0  0  0
  187.9730  176.5920  143.8430 C   0  0  0  0  0  3  0  0  0  0  0  0
  188.6500  177.3020  144.8400 C   0  0  0  0  0  0  0  0  0  0  0  0
  188.3120  176.7750  142.4990 C   0  0  0  0  0  3  0  0  0  0  0  0
  189.3240  177.6730  142.1420 C   0  0  0  0  0  0  0  0  0  0  0  0
  190.0010  178.3840  143.1460 C   0  0  0  0  0  3  0  0  0  0  0  0
  189.6670  178.1950  144.4900 C   0  0  0  0  0  3  0  0  0  0  0  0
  189.6300  177.8470  140.7910 O   0  0  0  0  0  0  0  0  0  0  0  0
  189.3590  178.6570  138.5330 C   0  0  0  0  0  2  0  0  0  0  0  0
  188.6790  177.3130  138.6270 C   0  0  2  0  0  0  0  0  0  0  0  0
  188.6590  178.2450  139.8260 C   0  0  1  0  0  3  0  0  0  0  0  0
  189.5710  176.2340  138.7030 O   0  0  0  0  0  1  0  0  0  0  0  0
  187.1230  178.3710  136.9470 C   0  0  0  0  0  2  0  0  0  0  0  0
  187.3670  177.1750  137.8530 C   0  0  0  0  0  3  0  0  0  0  0  0
  186.4010  178.2710  138.2740 C   0  0  0  0  0  2  0  0  0  0  0  0
  182.7800  175.9600  137.9080 N   0  0  0  0  0  2  0  0  0  0  0  0
  185.3660  173.4920  136.7750 C   0  0  0  0  0  0  0  0  0  0  0  0
  183.3880  174.7530  137.4460 C   0  0  0  0  0  0  0  0  0  0  0  0
  184.5480  172.3700  136.5470 C   0  0  0  0  0  3  0  0  0  0  0  0
  184.7720  174.6790  137.2320 C   0  0  0  0  0  3  0  0  0  0  0  0
  183.1690  172.4380  136.7650 C   0  0  0  0  0  3  0  0  0  0  0  0
  182.5900  173.6300  137.2090 C   0  0  0  0  0  3  0  0  0  0  0  0
  191.2130  174.6350  135.2450 C   0  0  0  0  0  0  0  0  0  0  0  0
  193.0220  173.8970  136.0580 C   0  0  0  0  0  0  0  0  0  0  0  0
  186.8250  173.4410  136.5090 C   0  0  0  0  0  0  0  0  0  0  0  0
  187.5520  174.7150  136.1030 C   0  0  0  0  0  2  0  0  0  0  0  0
  192.4450  175.0340  135.5900 N   0  0  0  0  0  2  0  0  0  0  0  0
  189.7970  176.6060  135.2580 O   0  0  0  0  0  0  0  0  0  0  0  0
  192.1250  172.8250  136.1420 C   0  0  0  0  0  3  0  0  0  0  0  0
  189.5680  173.1820  135.8480 C   0  0  0  0  0  0  0  0  0  0  0  0
  187.4920  172.2690  136.6340 C   0  0  0  0  0  3  0  0  0  0  0  0
  188.9090  174.4320  135.6430 N   0  0  0  0  0  0  0  0  0  0  0  0
  190.9900  173.3400  135.5620 C   0  0  0  0  0  0  0  0  0  0  0  0
  188.9330  172.1310  136.3480 C   0  0  0  0  0  3  0  0  0  0  0  0
  189.9480  175.3590  135.3320 C   0  0  0  0  0  0  0  0  0  0  0  0
  195.9870  173.3050  138.3090 C   0  0  0  0  0  2  0  0  0  0  0  0
  198.2140  174.1300  138.1260 O   0  0  0  0  0  1  0  0  0  0  0  0
  196.9070  174.3630  137.7050 C   0  0  1  0  0  3  0  0  0  0  0  0
  196.8140  174.2440  136.1840 C   0  0  1  0  0  3  0  0  0  0  0  0
  194.4000  173.8520  136.5610 C   0  0  0  0  0  0  0  0  0  0  0  0
  194.6350  173.4130  137.7650 N   0  0  0  0  0  0  0  0  0  0  0  0
  195.4520  174.3180  135.7580 O   0  0  0  0  0  0  0  0  0  0  0  0
  197.3210  176.5880  135.9520 O   0  0  0  0  0  1  0  0  0  0  0  0
  197.6470  175.3120  135.4790 C   0  0  0  0  0  2  0  0  0  0  0  0
  1  2  1  0  0  0  0
  2  5  1  0  0  0  0
  4  7  1  0  0  0  0
  5  8  1  0  0  0  0
  5  4  2  0  0  0  0
  7  6  2  0  0  0  0
  7  3  1  0  0  0  0
  8  6  1  0  0  0  0
  9  6  1  6  0  0  0
  9 12  1  0  0  0  0
 10 15  1  0  0  0  0
 12 11  1  0  0  0  0
 13 10  1  0  0  0  0
 13 11  2  0  0  0  0
 14  9  1  0  0  0  0
 14 13  1  0  0  0  0
 16 15  1  0  0  0  0
 17 18  1  0  0  0  0
 18 16  1  0  0  0  0
 19 17  2  0  0  0  0
 20 19  1  0  0  0  0
 20 21  2  0  0  0  0
 21 22  1  0  0  0  0
 22 18  2  0  0  0  0
 23 20  1  0  0  0  0
 24 25  1  0  0  0  0
 24 26  1  0  0  0  0
 25 27  1  1  0  0  0
 25 26  1  0  0  0  0
 26 23  1  1  0  0  0
 28 29  1  0  0  0  0
 28 30  1  0  0  0  0
 29 30  1  0  0  0  0
 29 25  1  0  0  0  0
 31  1  1  0  0  0  0
 32 35  1  0  0  0  0
 33 31  1  0  0  0  0
 34 36  1  0  0  0  0
 34 32  2  0  0  0  0
 35 33  2  0  0  0  0
 36 37  2  0  0  0  0
 37 33  1  0  0  0  0
 38 50  1  0  0  0  0
 38 48  2  0  0  0  0
 38 42  1  0  0  0  0
 39 44  2  0  0  0  0
 39 55  1  0  0  0  0
 40 46  2  0  0  0  0
 40 32  1  0  0  0  0
 41 40  1  0  0  0  0
 42 39  1  0  0  0  0
 43 50  2  0  0  0  0
 45 49  2  0  0  0  0
 47 45  1  0  0  0  0
 47 41  1  0  0  0  0
 48 45  1  0  0  0  0
 48 44  1  0  0  0  0
 49 46  1  0  0  0  0
 50 47  1  0  0  0  0
 53 52  1  1  0  0  0
 53 51  1  0  0  0  0
 54 59  1  6  0  0  0
 54 53  1  0  0  0  0
 55 56  2  0  0  0  0
 56 51  1  0  0  0  0
 57 54  1  0  0  0  0
 57 55  1  0  0  0  0
 59 58  1  0  0  0  0
M  END
>  <MODEL>
4

>  <REMARK>
 VINA RESULT:      -8.2      4.983     11.689
  Name = 
  14 active torsions:
  status: ('A' for Active; 'I' for Inactive)
    1  A    between atoms: C_4  and  C_26
    2  A    between atoms: C_5  and  N_58
    3  A    between atoms: C_9  and  C_22
    4  A    between atoms: C_12  and  C_14
    5  A    between atoms: C_13  and  C_20
    6  A    between atoms: N_16  and  C_45
    7  A    between atoms: N_16  and  N_58
    8  A    between atoms: C_17  and  C_36
    9  A    between atoms: C_22  and  C_46
   10  A    between atoms: C_23  and  O_55
   11  A    between atoms: C_24  and  C_29
   12  A    between atoms: N_28  and  C_46
   13  A    between atoms: C_31  and  C_45
   14  A    between atoms: C_39  and  O_55
                            x       y       z     vdW  Elec       q    Type
                         _______ _______ _______ _____ _____    ______ ____

>  <TORSDO>
F 14

$$$$
=
 OpenBabel11042412453D

 59 68  0  0  1  0  0  0  0  0999 V2000
  180.1740  173.3460  137.2450 N   0  0  0  0  0  2  0  0  0  0  0  0
  180.2890  173.5910  138.6760 C   0  0  0  0  0  2  0  0  0  0  0  0
  178.9320  178.4710  138.6710 C   0  0  0  0  0  1  0  0  0  0  0  0
  179.4460  175.9960  138.5430 C   0  0  0  0  0  3  0  0  0  0  0  0
  180.3920  175.0530  138.9250 C   0  0  0  0  0  0  0  0  0  0  0  0
  180.9950  177.3580  139.6470 C   0  0  0  0  0  0  0  0  0  0  0  0
  179.7930  177.2910  138.9500 C   0  0  0  0  0  0  0  0  0  0  0  0
  181.6380  175.8070  139.7640 S   0  0  0  0  0  0  0  0  0  0  0  0
  181.5930  178.5940  140.2380 C   0  0  1  0  0  3  0  0  0  0  0  0
  183.9500  178.9880  143.3600 N   0  0  0  0  0  2  0  0  0  0  0  0
  181.7040  179.1050  142.5760 N   0  0  0  0  0  0  0  0  0  0  0  0
  180.8850  178.9580  141.4560 N   0  0  0  0  0  2  0  0  0  0  0  0
  182.9440  178.8220  142.3570 C   0  0  0  0  0  0  0  0  0  0  0  0
  183.3470  178.3150  140.6940 S   0  0  0  0  0  0  0  0  0  0  0  0
  183.6440  179.3780  144.7330 C   0  0  0  0  0  2  0  0  0  0  0  0
  184.2650  178.3760  145.6930 C   0  0  0  0  0  2  0  0  0  0  0  0
  186.6660  178.1320  146.3670 C   0  0  0  0  0  3  0  0  0  0  0  0
  185.6940  178.1170  145.3600 C   0  0  0  0  0  0  0  0  0  0  0  0
  188.0020  177.8660  146.0540 C   0  0  0  0  0  3  0  0  0  0  0  0
  188.3750  177.5760  144.7370 C   0  0  0  0  0  0  0  0  0  0  0  0
  187.3970  177.5620  143.7310 C   0  0  0  0  0  3  0  0  0  0  0  0
  186.0620  177.8350  144.0420 C   0  0  0  0  0  3  0  0  0  0  0  0
  189.7150  177.2980  144.4590 O   0  0  0  0  0  0  0  0  0  0  0  0
  191.8020  177.2750  143.2460 C   0  0  0  0  0  2  0  0  0  0  0  0
  190.7000  176.9160  142.2780 C   0  0  2  0  0  0  0  0  0  0  0  0
  190.4240  177.9170  143.3880 C   0  0  1  0  0  3  0  0  0  0  0  0
  190.1800  175.6290  142.4690 O   0  0  0  0  0  1  0  0  0  0  0  0
  189.4890  177.6420  140.1880 C   0  0  0  0  0  2  0  0  0  0  0  0
  190.8410  177.4900  140.8680 C   0  0  0  0  0  3  0  0  0  0  0  0
  190.3780  176.4650  139.8440 C   0  0  0  0  0  2  0  0  0  0  0  0
  181.4610  173.0610  136.7700 N   0  0  0  0  0  2  0  0  0  0  0  0
  184.4770  174.9680  135.6170 C   0  0  0  0  0  0  0  0  0  0  0  0
  182.2780  174.0690  136.1710 C   0  0  0  0  0  0  0  0  0  0  0  0
  183.8490  176.0570  134.9840 C   0  0  0  0  0  3  0  0  0  0  0  0
  183.6770  173.9740  136.2020 C   0  0  0  0  0  3  0  0  0  0  0  0
  182.4560  176.1510  134.9460 C   0  0  0  0  0  3  0  0  0  0  0  0
  181.6710  175.1600  135.5430 C   0  0  0  0  0  3  0  0  0  0  0  0
  190.5320  176.0310  135.8350 C   0  0  0  0  0  0  0  0  0  0  0  0
  192.0810  174.9930  136.8350 C   0  0  0  0  0  0  0  0  0  0  0  0
  185.9560  174.8790  135.6960 C   0  0  0  0  0  0  0  0  0  0  0  0
  186.7730  176.1600  135.8040 C   0  0  0  0  0  2  0  0  0  0  0  0
  191.6460  176.2470  136.5470 N   0  0  0  0  0  2  0  0  0  0  0  0
  189.1750  178.0360  136.0110 O   0  0  0  0  0  0  0  0  0  0  0  0
  191.1800  173.9990  136.4350 C   0  0  0  0  0  3  0  0  0  0  0  0
  188.7750  174.5960  135.6510 C   0  0  0  0  0  0  0  0  0  0  0  0
  186.5620  173.6690  135.6750 C   0  0  0  0  0  3  0  0  0  0  0  0
  188.1980  175.9010  135.6180 N   0  0  0  0  0  0  0  0  0  0  0  0
  190.2250  174.7170  135.7550 C   0  0  0  0  0  0  0  0  0  0  0  0
  188.0270  173.5020  135.7090 C   0  0  0  0  0  3  0  0  0  0  0  0
  189.2910  176.8000  135.8030 C   0  0  0  0  0  0  0  0  0  0  0  0
  194.9970  175.4720  139.1740 C   0  0  0  0  0  2  0  0  0  0  0  0
  196.9340  174.1180  139.4750 O   0  0  0  0  0  1  0  0  0  0  0  0
  195.9050  174.4000  138.5790 C   0  0  1  0  0  3  0  0  0  0  0  0
  195.0560  173.1510  138.3420 C   0  0  1  0  0  3  0  0  0  0  0  0
  193.2940  174.7310  137.6190 C   0  0  0  0  0  0  0  0  0  0  0  0
  193.8160  175.6810  138.3410 N   0  0  0  0  0  0  0  0  0  0  0  0
  193.9070  173.4690  137.5560 O   0  0  0  0  0  0  0  0  0  0  0  0
  195.4750  170.7850  138.1730 O   0  0  0  0  0  1  0  0  0  0  0  0
  195.8590  172.0360  137.6770 C   0  0  0  0  0  2  0  0  0  0  0  0
  1  2  1  0  0  0  0
  2  5  1  0  0  0  0
  3  7  1  0  0  0  0
  4  5  2  0  0  0  0
  4  7  1  0  0  0  0
  5  8  1  0  0  0  0
  6  8  1  0  0  0  0
  7  6  2  0  0  0  0
  9  6  1  1  0  0  0
  9 14  1  0  0  0  0
  9 12  1  0  0  0  0
 10 15  1  0  0  0  0
 12 11  1  0  0  0  0
 13 11  2  0  0  0  0
 13 10  1  0  0  0  0
 14 13  1  0  0  0  0
 15 16  1  0  0  0  0
 18 16  1  0  0  0  0
 18 17  2  0  0  0  0
 19 17  1  0  0  0  0
 20 19  2  0  0  0  0
 21 22  2  0  0  0  0
 21 20  1  0  0  0  0
 22 18  1  0  0  0  0
 23 20  1  0  0  0  0
 24 26  1  0  0  0  0
 25 27  1  1  0  0  0
 25 24  1  0  0  0  0
 25 26  1  0  0  0  0
 26 23  1  1  0  0  0
 28 29  1  0  0  0  0
 29 25  1  0  0  0  0
 30 28  1  0  0  0  0
 30 29  1  0  0  0  0
 31  1  1  0  0  0  0
 32 40  1  0  0  0  0
 32 35  1  0  0  0  0
 33 35  2  0  0  0  0
 33 31  1  0  0  0  0
 34 32  2  0  0  0  0
 36 34  1  0  0  0  0
 36 37  2  0  0  0  0
 37 33  1  0  0  0  0
 38 42  1  0  0  0  0
 39 55  1  0  0  0  0
 40 41  1  0  0  0  0
 42 39  1  0  0  0  0
 44 39  2  0  0  0  0
 45 49  2  0  0  0  0
 45 48  1  0  0  0  0
 46 40  2  0  0  0  0
 46 49  1  0  0  0  0
 47 45  1  0  0  0  0
 47 50  1  0  0  0  0
 47 41  1  0  0  0  0
 48 38  2  0  0  0  0
 48 44  1  0  0  0  0
 50 38  1  0  0  0  0
 50 43  2  0  0  0  0
 53 51  1  0  0  0  0
 53 52  1  1  0  0  0
 54 59  1  6  0  0  0
 54 53  1  0  0  0  0
 55 56  2  0  0  0  0
 56 51  1  0  0  0  0
 57 55  1  0  0  0  0
 57 54  1  0  0  0  0
 59 58  1  0  0  0  0
M  END
>  <MODEL>
5

>  <REMARK>
 VINA RESULT:      -7.9      4.686     12.053
  Name = 
  14 active torsions:
  status: ('A' for Active; 'I' for Inactive)
    1  A    between atoms: C_4  and  C_26
    2  A    between atoms: C_5  and  N_58
    3  A    between atoms: C_9  and  C_22
    4  A    between atoms: C_12  and  C_14
    5  A    between atoms: C_13  and  C_20
    6  A    between atoms: N_16  and  C_45
    7  A    between atoms: N_16  and  N_58
    8  A    between atoms: C_17  and  C_36
    9  A    between atoms: C_22  and  C_46
   10  A    between atoms: C_23  and  O_55
   11  A    between atoms: C_24  and  C_29
   12  A    between atoms: N_28  and  C_46
   13  A    between atoms: C_31  and  C_45
   14  A    between atoms: C_39  and  O_55
                            x       y       z     vdW  Elec       q    Type
                         _______ _______ _______ _____ _____    ______ ____

>  <TORSDO>
F 14

$$$$
=
 OpenBabel11042412453D

 59 68  0  0  1  0  0  0  0  0999 V2000
  181.7880  175.5300  139.1290 N   0  0  0  0  0  2  0  0  0  0  0  0
  181.1980  176.8540  139.2540 C   0  0  0  0  0  2  0  0  0  0  0  0
  181.8520  179.3310  143.6240 C   0  0  0  0  0  1  0  0  0  0  0  0
  181.3160  178.0990  141.4790 C   0  0  0  0  0  3  0  0  0  0  0  0
  181.9050  177.6180  140.3160 C   0  0  0  0  0  0  0  0  0  0  0  0
  183.5360  178.7610  141.8100 C   0  0  0  0  0  0  0  0  0  0  0  0
  182.2390  178.7430  142.3140 C   0  0  0  0  0  0  0  0  0  0  0  0
  183.5470  177.9750  140.3220 S   0  0  0  0  0  0  0  0  0  0  0  0
  184.7300  179.3380  142.4980 C   0  0  1  0  0  3  0  0  0  0  0  0
  187.4100  177.5670  144.7660 N   0  0  0  0  0  2  0  0  0  0  0  0
  185.4090  178.8580  144.7460 N   0  0  0  0  0  0  0  0  0  0  0  0
  184.4670  179.4780  143.9230 N   0  0  0  0  0  2  0  0  0  0  0  0
  186.3140  178.2030  144.1010 C   0  0  0  0  0  0  0  0  0  0  0  0
  186.1810  178.2310  142.3210 S   0  0  0  0  0  0  0  0  0  0  0  0
  187.5300  177.5090  146.2200 C   0  0  0  0  0  2  0  0  0  0  0  0
  188.9940  177.6170  146.6110 C   0  0  0  0  0  2  0  0  0  0  0  0
  190.4680  176.2890  145.0820 C   0  0  0  0  0  3  0  0  0  0  0  0
  189.8850  177.5140  145.4210 C   0  0  0  0  0  0  0  0  0  0  0  0
  191.2860  176.1920  143.9510 C   0  0  0  0  0  3  0  0  0  0  0  0
  191.5190  177.3150  143.1510 C   0  0  0  0  0  0  0  0  0  0  0  0
  190.9310  178.5420  143.4950 C   0  0  0  0  0  3  0  0  0  0  0  0
  190.1200  178.6410  144.6290 C   0  0  0  0  0  3  0  0  0  0  0  0
  192.3260  177.1830  142.0180 O   0  0  0  0  0  0  0  0  0  0  0  0
  192.4220  176.9570  139.6170 C   0  0  0  0  0  2  0  0  0  0  0  0
  190.9740  177.1300  140.0090 C   0  0  2  0  0  0  0  0  0  0  0  0
  192.0520  177.8580  140.7940 C   0  0  1  0  0  3  0  0  0  0  0  0
  190.4200  176.0010  140.6290 O   0  0  0  0  0  1  0  0  0  0  0  0
  188.6850  178.0810  139.5410 C   0  0  0  0  0  2  0  0  0  0  0  0
  190.1270  177.9850  139.0660 C   0  0  0  0  0  3  0  0  0  0  0  0
  189.0480  177.1290  138.4200 C   0  0  0  0  0  2  0  0  0  0  0  0
  182.0750  175.3310  137.7730 N   0  0  0  0  0  2  0  0  0  0  0  0
  185.0270  173.3520  136.5750 C   0  0  0  0  0  0  0  0  0  0  0  0
  182.8830  174.2390  137.3300 C   0  0  0  0  0  0  0  0  0  0  0  0
  184.4390  172.0770  136.4720 C   0  0  0  0  0  3  0  0  0  0  0  0
  184.2370  174.4260  137.0130 C   0  0  0  0  0  3  0  0  0  0  0  0
  183.0920  171.8860  136.7930 C   0  0  0  0  0  3  0  0  0  0  0  0
  182.3150  172.9670  137.2170 C   0  0  0  0  0  3  0  0  0  0  0  0
  190.4300  175.5650  134.6420 C   0  0  0  0  0  0  0  0  0  0  0  0
  192.4020  175.1620  135.2970 C   0  0  0  0  0  0  0  0  0  0  0  0
  186.4460  173.5720  136.2000 C   0  0  0  0  0  0  0  0  0  0  0  0
  186.8940  174.9620  135.7730 C   0  0  0  0  0  2  0  0  0  0  0  0
  191.5920  176.1790  134.9030 N   0  0  0  0  0  0  0  0  0  0  0  0
  188.6850  177.2430  134.8110 O   0  0  0  0  0  0  0  0  0  0  0  0
  191.7240  173.9430  135.4200 C   0  0  0  0  0  3  0  0  0  0  0  0
  189.1290  173.8280  135.3280 C   0  0  0  0  0  0  0  0  0  0  0  0
  187.3220  172.5410  136.2440 C   0  0  0  0  0  3  0  0  0  0  0  0
  188.2400  174.9380  135.2050 N   0  0  0  0  0  0  0  0  0  0  0  0
  190.4720  174.2480  134.9410 C   0  0  1  0  0  3  0  0  0  0  0  0
  188.7370  172.6730  135.8480 C   0  0  0  0  0  3  0  0  0  0  0  0
  189.0650  176.0440  134.8420 C   0  0  0  0  0  0  0  0  0  0  0  0
  195.9310  176.4800  135.4030 C   0  0  0  0  0  2  0  0  0  0  0  0
  197.8370  175.6120  136.5400 O   0  0  0  0  0  1  0  0  0  0  0  0
  196.5760  175.2620  136.0620 C   0  0  1  0  0  3  0  0  0  0  0  0
  195.6750  174.8280  137.2170 C   0  0  1  0  0  3  0  0  0  0  0  0
  193.8000  175.3640  135.6940 C   0  0  0  0  0  0  0  0  0  0  0  0
  194.5460  176.2030  135.0330 N   0  0  0  0  0  0  0  0  0  0  0  0
  194.3370  174.6260  136.7600 O   0  0  0  0  0  0  0  0  0  0  0  0
  195.4090  173.2430  139.0120 O   0  0  0  0  0  1  0  0  0  0  0  0
  196.1960  173.5660  137.9010 C   0  0  0  0  0  2  0  0  0  0  0  0
  1  2  1  0  0  0  0
  2  5  1  0  0  0  0
  4  7  1  0  0  0  0
  5  8  1  0  0  0  0
  5  4  2  0  0  0  0
  6  7  2  0  0  0  0
  7  3  1  0  0  0  0
  8  6  1  0  0  0  0
  9  6  1  6  0  0  0
  9 12  1  0  0  0  0
 10 15  1  0  0  0  0
 12 11  1  0  0  0  0
 13 11  2  0  0  0  0
 13 10  1  0  0  0  0
 14  9  1  0  0  0  0
 14 13  1  0  0  0  0
 15 16  1  0  0  0  0
 17 18  1  0  0  0  0
 18 16  1  0  0  0  0
 19 17  2  0  0  0  0
 20 21  2  0  0  0  0
 20 19  1  0  0  0  0
 21 22  1  0  0  0  0
 22 18  2  0  0  0  0
 23 20  1  0  0  0  0
 24 25  1  0  0  0  0
 24 26  1  0  0  0  0
 25 27  1  1  0  0  0
 25 26  1  0  0  0  0
 26 23  1  1  0  0  0
 29 28  1  0  0  0  0
 29 25  1  0  0  0  0
 30 29  1  0  0  0  0
 30 28  1  0  0  0  0
 31  1  1  0  0  0  0
 32 35  1  0  0  0  0
 33 31  1  0  0  0  0
 34 32  2  0  0  0  0
 34 36  1  0  0  0  0
 35 33  2  0  0  0  0
 36 37  2  0  0  0  0
 37 33  1  0  0  0  0
 38 50  1  0  0  0  0
 38 42  2  0  0  0  0
 38 48  1  0  0  0  0
 39 44  2  0  0  0  0
 39 55  1  0  0  0  0
 40 46  2  0  0  0  0
 40 32  1  0  0  0  0
 41 40  1  0  0  0  0
 42 39  1  0  0  0  0
 43 50  2  0  0  0  0
 45 49  2  0  0  0  0
 47 45  1  0  0  0  0
 47 41  1  0  0  0  0
 48 45  1  0  0  0  0
 48 44  1  1  0  0  0
 49 46  1  0  0  0  0
 50 47  1  0  0  0  0
 51 53  1  0  0  0  0
 53 52  1  1  0  0  0
 53 54  1  0  0  0  0
 54 59  1  6  0  0  0
 55 57  1  0  0  0  0
 56 51  1  0  0  0  0
 56 55  2  0  0  0  0
 57 54  1  0  0  0  0
 59 58  1  0  0  0  0
M  END
>  <MODEL>
6

>  <REMARK>
 VINA RESULT:      -7.9      4.768     11.637
  Name = 
  14 active torsions:
  status: ('A' for Active; 'I' for Inactive)
    1  A    between atoms: C_4  and  C_26
    2  A    between atoms: C_5  and  N_58
    3  A    between atoms: C_9  and  C_22
    4  A    between atoms: C_12  and  C_14
    5  A    between atoms: C_13  and  C_20
    6  A    between atoms: N_16  and  C_45
    7  A    between atoms: N_16  and  N_58
    8  A    between atoms: C_17  and  C_36
    9  A    between atoms: C_22  and  C_46
   10  A    between atoms: C_23  and  O_55
   11  A    between atoms: C_24  and  C_29
   12  A    between atoms: N_28  and  C_46
   13  A    between atoms: C_31  and  C_45
   14  A    between atoms: C_39  and  O_55
                            x       y       z     vdW  Elec       q    Type
                         _______ _______ _______ _____ _____    ______ ____

>  <TORSDO>
F 14

$$$$
=
 OpenBabel11042412453D

 59 68  0  0  1  0  0  0  0  0999 V2000
  190.3860  177.3550  147.4490 N   0  0  0  0  0  2  0  0  0  0  0  0
  191.4190  176.8350  146.5640 C   0  0  0  0  0  2  0  0  0  0  0  0
  188.4500  175.9950  142.5480 C   0  0  0  0  0  1  0  0  0  0  0  0
  189.8200  176.2670  144.6580 C   0  0  0  0  0  3  0  0  0  0  0  0
  190.9510  176.9040  145.1550 C   0  0  0  0  0  0  0  0  0  0  0  0
  190.5550  177.4010  142.7480 C   0  0  0  0  0  0  0  0  0  0  0  0
  189.6050  176.5490  143.3030 C   0  0  0  0  0  0  0  0  0  0  0  0
  191.6720  177.8120  143.9390 S   0  0  0  0  0  0  0  0  0  0  0  0
  190.5560  177.9070  141.3420 C   0  0  1  0  0  3  0  0  0  0  0  0
  187.6180  178.0590  138.7340 N   0  0  0  0  0  2  0  0  0  0  0  0
  189.5180  176.8270  139.4720 N   0  0  0  0  0  0  0  0  0  0  0  0
  190.5520  176.7910  140.4090 N   0  0  0  0  0  2  0  0  0  0  0  0
  188.6960  177.8090  139.6400 C   0  0  0  0  0  0  0  0  0  0  0  0
  189.0520  178.9000  141.0070 S   0  0  0  0  0  0  0  0  0  0  0  0
  187.2920  177.1700  137.6240 C   0  0  0  0  0  2  0  0  0  0  0  0
  188.0220  177.6320  136.3730 C   0  0  0  0  0  2  0  0  0  0  0  0
  190.0630  176.9950  135.0690 C   0  0  0  0  0  3  0  0  0  0  0  0
  189.0170  176.6200  135.9190 C   0  0  0  0  0  0  0  0  0  0  0  0
  191.0090  176.0470  134.6630 C   0  0  0  0  0  3  0  0  0  0  0  0
  190.9190  174.7250  135.1090 C   0  0  0  0  0  0  0  0  0  0  0  0
  189.8680  174.3540  135.9630 C   0  0  0  0  0  3  0  0  0  0  0  0
  188.9190  175.2990  136.3630 C   0  0  0  0  0  3  0  0  0  0  0  0
  191.8870  173.8050  134.7000 O   0  0  0  0  0  0  0  0  0  0  0  0
  193.7330  172.2590  134.8640 C   0  0  0  0  0  2  0  0  0  0  0  0
  194.1080  173.5090  135.6220 C   0  0  2  0  0  0  0  0  0  0  0  0
  192.6620  173.0410  135.6200 C   0  0  1  0  0  3  0  0  0  0  0  0
  194.4000  174.6020  134.7970 O   0  0  0  0  0  1  0  0  0  0  0  0
  194.5370  174.3380  137.9660 C   0  0  0  0  0  2  0  0  0  0  0  0
  194.8890  173.2920  136.9190 C   0  0  0  0  0  3  0  0  0  0  0  0
  195.8170  174.4700  137.1670 C   0  0  0  0  0  2  0  0  0  0  0  0
  189.1620  176.8400  147.0040 N   0  0  0  0  0  2  0  0  0  0  0  0
  185.9990  178.4660  145.8140 C   0  0  0  0  0  0  0  0  0  0  0  0
  187.9790  177.6390  146.9760 C   0  0  0  0  0  0  0  0  0  0  0  0
  185.6640  179.2120  146.9590 C   0  0  0  0  0  3  0  0  0  0  0  0
  187.1590  177.6750  145.8390 C   0  0  0  0  0  3  0  0  0  0  0  0
  186.4750  179.1740  148.0960 C   0  0  0  0  0  3  0  0  0  0  0  0
  187.6340  178.3920  148.1030 C   0  0  0  0  0  3  0  0  0  0  0  0
  181.4660  178.8850  141.6770 C   0  0  0  0  0  0  0  0  0  0  0  0
  181.4560  179.6820  139.7160 C   0  0  0  0  0  0  0  0  0  0  0  0
  185.1650  178.5300  144.5880 C   0  0  0  0  0  0  0  0  0  0  0  0
  183.6860  178.8720  144.7130 C   0  0  0  0  0  2  0  0  0  0  0  0
  180.7140  179.6270  140.8530 N   0  0  0  0  0  0  0  0  0  0  0  0
  180.7820  179.4230  143.9430 O   0  0  0  0  0  0  0  0  0  0  0  0
  182.7230  179.1040  139.8650 C   0  0  0  0  0  3  0  0  0  0  0  0
  183.6350  178.4390  142.2060 C   0  0  0  0  0  0  0  0  0  0  0  0
  185.7230  178.2880  143.3790 C   0  0  0  0  0  3  0  0  0  0  0  0
  182.9780  178.6440  143.4560 N   0  0  0  0  0  0  0  0  0  0  0  0
  182.6590  178.5660  141.1280 C   0  0  1  0  0  3  0  0  0  0  0  0
  184.9500  178.2940  142.1220 C   0  0  0  0  0  3  0  0  0  0  0  0
  181.6350  178.9920  143.1230 C   0  0  0  0  0  0  0  0  0  0  0  0
  180.1300  180.4060  136.2630 C   0  0  0  0  0  2  0  0  0  0  0  0
  180.2140  182.4260  135.0030 O   0  0  0  0  0  1  0  0  0  0  0  0
  180.8100  181.7590  136.0710 C   0  0  1  0  0  3  0  0  0  0  0  0
  180.6250  182.5580  137.3610 C   0  0  1  0  0  3  0  0  0  0  0  0
  181.0220  180.4060  138.5160 C   0  0  0  0  0  0  0  0  0  0  0  0
  180.6130  179.7430  137.4720 N   0  0  0  0  0  0  0  0  0  0  0  0
  181.0870  181.8080  138.4850 O   0  0  0  0  0  0  0  0  0  0  0  0
  180.4180  184.9580  137.4250 O   0  0  0  0  0  1  0  0  0  0  0  0
  181.3350  183.9090  137.2990 C   0  0  0  0  0  2  0  0  0  0  0  0
  2  1  1  0  0  0  0
  3  7  1  0  0  0  0
  4  5  2  0  0  0  0
  5  2  1  0  0  0  0
  6  7  2  0  0  0  0
  6  8  1  0  0  0  0
  7  4  1  0  0  0  0
  8  5  1  0  0  0  0
  9  6  1  1  0  0  0
 10 13  1  0  0  0  0
 11 13  2  0  0  0  0
 11 12  1  0  0  0  0
 12  9  1  0  0  0  0
 13 14  1  0  0  0  0
 14  9  1  0  0  0  0
 15 10  1  0  0  0  0
 16 15  1  0  0  0  0
 17 18  1  0  0  0  0
 18 22  2  0  0  0  0
 18 16  1  0  0  0  0
 19 17  2  0  0  0  0
 19 20  1  0  0  0  0
 20 21  2  0  0  0  0
 21 22  1  0  0  0  0
 23 20  1  0  0  0  0
 24 26  1  0  0  0  0
 24 25  1  0  0  0  0
 25 27  1  6  0  0  0
 25 29  1  0  0  0  0
 26 23  1  6  0  0  0
 26 25  1  0  0  0  0
 29 30  1  0  0  0  0
 29 28  1  0  0  0  0
 30 28  1  0  0  0  0
 31  1  1  0  0  0  0
 32 35  2  0  0  0  0
 32 34  1  0  0  0  0
 33 31  1  0  0  0  0
 33 37  2  0  0  0  0
 34 36  2  0  0  0  0
 35 33  1  0  0  0  0
 36 37  1  0  0  0  0
 38 50  1  0  0  0  0
 39 44  2  0  0  0  0
 39 42  1  0  0  0  0
 40 41  1  0  0  0  0
 40 32  1  0  0  0  0
 42 38  2  0  0  0  0
 45 47  1  0  0  0  0
 46 40  2  0  0  0  0
 47 41  1  0  0  0  0
 48 44  1  6  0  0  0
 48 38  1  0  0  0  0
 48 45  1  0  0  0  0
 49 45  2  0  0  0  0
 49 46  1  0  0  0  0
 50 47  1  0  0  0  0
 50 43  2  0  0  0  0
 51 56  1  0  0  0  0
 53 52  1  6  0  0  0
 53 51  1  0  0  0  0
 53 54  1  0  0  0  0
 54 59  1  6  0  0  0
 54 57  1  0  0  0  0
 55 39  1  0  0  0  0
 56 55  2  0  0  0  0
 57 55  1  0  0  0  0
 59 58  1  0  0  0  0
M  END
>  <MODEL>
7

>  <REMARK>
 VINA RESULT:      -7.8      3.027      5.552
  Name = 
  14 active torsions:
  status: ('A' for Active; 'I' for Inactive)
    1  A    between atoms: C_4  and  C_26
    2  A    between atoms: C_5  and  N_58
    3  A    between atoms: C_9  and  C_22
    4  A    between atoms: C_12  and  C_14
    5  A    between atoms: C_13  and  C_20
    6  A    between atoms: N_16  and  C_45
    7  A    between atoms: N_16  and  N_58
    8  A    between atoms: C_17  and  C_36
    9  A    between atoms: C_22  and  C_46
   10  A    between atoms: C_23  and  O_55
   11  A    between atoms: C_24  and  C_29
   12  A    between atoms: N_28  and  C_46
   13  A    between atoms: C_31  and  C_45
   14  A    between atoms: C_39  and  O_55
                            x       y       z     vdW  Elec       q    Type
                         _______ _______ _______ _____ _____    ______ ____

>  <TORSDO>
F 14

$$$$
=
 OpenBabel11042412453D

 59 68  0  0  1  0  0  0  0  0999 V2000
  189.9190  176.2630  145.8300 N   0  0  0  0  0  2  0  0  0  0  0  0
  190.7850  177.3130  145.3130 C   0  0  0  0  0  2  0  0  0  0  0  0
  188.3750  177.9040  140.8970 C   0  0  0  0  0  1  0  0  0  0  0  0
  189.3880  177.5880  143.1950 C   0  0  0  0  0  3  0  0  0  0  0  0
  190.6080  177.4260  143.8410 C   0  0  0  0  0  0  0  0  0  0  0  0
  190.8560  177.6460  141.3740 C   0  0  0  0  0  0  0  0  0  0  0  0
  189.5350  177.7090  141.8070 C   0  0  0  0  0  0  0  0  0  0  0  0
  191.8540  177.4410  142.7140 S   0  0  0  0  0  0  0  0  0  0  0  0
  191.3170  177.7880  139.9590 C   0  0  1  0  0  3  0  0  0  0  0  0
  191.3800  175.1240  137.0690 N   0  0  0  0  0  2  0  0  0  0  0  0
  192.6570  176.2000  138.7660 N   0  0  0  0  0  0  0  0  0  0  0  0
  192.6130  177.1480  139.7900 N   0  0  0  0  0  2  0  0  0  0  0  0
  191.5200  175.9990  138.1910 C   0  0  0  0  0  0  0  0  0  0  0  0
  190.1510  176.9640  138.8090 S   0  0  0  0  0  0  0  0  0  0  0  0
  192.4770  174.3060  136.5590 C   0  0  0  0  0  2  0  0  0  0  0  0
  191.9740  173.4400  135.4160 C   0  0  0  0  0  2  0  0  0  0  0  0
  189.6550  172.5080  135.5930 C   0  0  0  0  0  3  0  0  0  0  0  0
  190.4990  173.5680  135.2450 C   0  0  0  0  0  0  0  0  0  0  0  0
  188.2700  172.6390  135.4520 C   0  0  0  0  0  3  0  0  0  0  0  0
  187.7200  173.8320  134.9700 C   0  0  0  0  0  0  0  0  0  0  0  0
  188.5710  174.8930  134.6230 C   0  0  0  0  0  3  0  0  0  0  0  0
  189.9560  174.7590  134.7560 C   0  0  0  0  0  3  0  0  0  0  0  0
  186.3330  173.9400  134.8550 O   0  0  0  0  0  0  0  0  0  0  0  0
  184.3100  175.1050  135.4700 C   0  0  0  0  0  2  0  0  0  0  0  0
  185.4680  175.7990  136.1450 C   0  0  2  0  0  0  0  0  0  0  0  0
  185.6620  175.1940  134.7660 C   0  0  1  0  0  3  0  0  0  0  0  0
  186.0120  175.0760  137.2150 O   0  0  0  0  0  1  0  0  0  0  0  0
  186.7620  177.9650  136.1650 C   0  0  0  0  0  2  0  0  0  0  0  0
  185.3830  177.3250  136.2110 C   0  0  0  0  0  3  0  0  0  0  0  0
  186.0390  177.8250  137.4880 C   0  0  0  0  0  2  0  0  0  0  0  0
  189.3860  176.7240  147.0410 N   0  0  0  0  0  2  0  0  0  0  0  0
  186.1410  178.3070  146.0280 C   0  0  0  0  0  0  0  0  0  0  0  0
  188.1850  177.4960  147.0850 C   0  0  0  0  0  0  0  0  0  0  0  0
  185.8360  179.0120  147.2070 C   0  0  0  0  0  3  0  0  0  0  0  0
  187.3180  177.5450  145.9830 C   0  0  0  0  0  3  0  0  0  0  0  0
  186.6930  178.9600  148.3100 C   0  0  0  0  0  3  0  0  0  0  0  0
  187.8690  178.2070  148.2460 C   0  0  0  0  0  3  0  0  0  0  0  0
  181.4290  178.6480  142.0890 C   0  0  0  0  0  0  0  0  0  0  0  0
  181.2820  179.5670  140.1880 C   0  0  0  0  0  0  0  0  0  0  0  0
  185.2560  178.3870  144.8390 C   0  0  0  0  0  0  0  0  0  0  0  0
  183.7630  178.6060  145.0380 C   0  0  0  0  0  2  0  0  0  0  0  0
  180.5920  179.3820  141.3430 N   0  0  0  0  0  0  0  0  0  0  0  0
  180.7970  178.9830  144.4080 O   0  0  0  0  0  0  0  0  0  0  0  0
  182.5930  179.0800  140.2530 C   0  0  0  0  0  3  0  0  0  0  0  0
  183.6440  178.3350  142.5100 C   0  0  0  0  0  0  0  0  0  0  0  0
  185.7820  178.2680  143.5980 C   0  0  0  0  0  3  0  0  0  0  0  0
  183.0240  178.4080  143.7940 N   0  0  0  0  0  0  0  0  0  0  0  0
  182.6200  178.4570  141.4780 C   0  0  1  0  0  3  0  0  0  0  0  0
  184.9620  178.2960  142.3720 C   0  0  0  0  0  3  0  0  0  0  0  0
  181.6470  178.6730  143.5320 C   0  0  0  0  0  0  0  0  0  0  0  0
  179.3360  182.0990  138.1870 C   0  0  0  0  0  2  0  0  0  0  0  0
  178.9340  182.1880  135.8400 O   0  0  0  0  0  1  0  0  0  0  0  0
  179.3020  181.3260  136.8710 C   0  0  1  0  0  3  0  0  0  0  0  0
  180.7050  180.7730  136.6210 C   0  0  1  0  0  3  0  0  0  0  0  0
  180.7490  180.3330  139.0560 C   0  0  0  0  0  0  0  0  0  0  0  0
  179.8740  181.2740  139.2660 N   0  0  0  0  0  0  0  0  0  0  0  0
  181.1550  180.0210  137.7490 O   0  0  0  0  0  0  0  0  0  0  0  0
  179.5690  179.2050  135.1880 O   0  0  0  0  0  1  0  0  0  0  0  0
  180.7610  179.9170  135.3580 C   0  0  0  0  0  2  0  0  0  0  0  0
  1 31  1  0  0  0  0
  2  1  1  0  0  0  0
  3  7  1  0  0  0  0
  4  5  2  0  0  0  0
  5  2  1  0  0  0  0
  6  7  2  0  0  0  0
  6  8  1  0  0  0  0
  7  4  1  0  0  0  0
  8  5  1  0  0  0  0
  9  6  1  1  0  0  0
 10 13  1  0  0  0  0
 11 12  1  0  0  0  0
 12  9  1  0  0  0  0
 13 11  2  0  0  0  0
 13 14  1  0  0  0  0
 14  9  1  0  0  0  0
 15 10  1  0  0  0  0
 16 15  1  0  0  0  0
 18 16  1  0  0  0  0
 18 17  2  0  0  0  0
 19 17  1  0  0  0  0
 20 19  2  0  0  0  0
 21 22  2  0  0  0  0
 21 20  1  0  0  0  0
 22 18  1  0  0  0  0
 23 20  1  0  0  0  0
 24 25  1  0  0  0  0
 25 29  1  0  0  0  0
 25 27  1  1  0  0  0
 26 23  1  1  0  0  0
 26 24  1  0  0  0  0
 26 25  1  0  0  0  0
 28 29  1  0  0  0  0
 28 30  1  0  0  0  0
 29 30  1  0  0  0  0
 31 33  1  0  0  0  0
 32 34  1  0  0  0  0
 33 37  2  0  0  0  0
 34 36  2  0  0  0  0
 35 32  2  0  0  0  0
 35 33  1  0  0  0  0
 37 36  1  0  0  0  0
 38 50  1  0  0  0  0
 39 44  2  0  0  0  0
 39 42  1  0  0  0  0
 40 41  1  0  0  0  0
 40 32  1  0  0  0  0
 42 38  2  0  0  0  0
 45 47  1  0  0  0  0
 46 40  2  0  0  0  0
 47 41  1  0  0  0  0
 48 44  1  6  0  0  0
 48 38  1  0  0  0  0
 48 45  1  0  0  0  0
 49 45  2  0  0  0  0
 49 46  1  0  0  0  0
 50 47  1  0  0  0  0
 50 43  2  0  0  0  0
 51 56  1  0  0  0  0
 53 52  1  6  0  0  0
 53 51  1  0  0  0  0
 54 59  1  6  0  0  0
 54 53  1  0  0  0  0
 54 57  1  0  0  0  0
 55 56  2  0  0  0  0
 55 39  1  0  0  0  0
 57 55  1  0  0  0  0
 58 59  1  0  0  0  0
M  END
>  <MODEL>
8

>  <REMARK>
 VINA RESULT:      -7.6      2.175      3.071
  Name = 
  14 active torsions:
  status: ('A' for Active; 'I' for Inactive)
    1  A    between atoms: C_4  and  C_26
    2  A    between atoms: C_5  and  N_58
    3  A    between atoms: C_9  and  C_22
    4  A    between atoms: C_12  and  C_14
    5  A    between atoms: C_13  and  C_20
    6  A    between atoms: N_16  and  C_45
    7  A    between atoms: N_16  and  N_58
    8  A    between atoms: C_17  and  C_36
    9  A    between atoms: C_22  and  C_46
   10  A    between atoms: C_23  and  O_55
   11  A    between atoms: C_24  and  C_29
   12  A    between atoms: N_28  and  C_46
   13  A    between atoms: C_31  and  C_45
   14  A    between atoms: C_39  and  O_55
                            x       y       z     vdW  Elec       q    Type
                         _______ _______ _______ _____ _____    ______ ____

>  <TORSDO>
F 14

$$$$
=
 OpenBabel11042412453D

 59 68  0  0  1  0  0  0  0  0999 V2000
  193.9740  175.8930  138.7440 N   0  0  0  0  0  2  0  0  0  0  0  0
  192.8860  176.4010  137.9210 C   0  0  0  0  0  2  0  0  0  0  0  0
  188.1980  177.7610  139.2750 C   0  0  0  0  0  1  0  0  0  0  0  0
  190.4710  177.0720  138.3980 C   0  0  0  0  0  3  0  0  0  0  0  0
  191.7920  176.9010  138.7940 C   0  0  0  0  0  0  0  0  0  0  0  0
  190.3320  177.6880  140.6510 C   0  0  0  0  0  0  0  0  0  0  0  0
  189.6560  177.5170  139.4470 C   0  0  0  0  0  0  0  0  0  0  0  0
  191.9500  177.2860  140.4230 S   0  0  0  0  0  0  0  0  0  0  0  0
  189.7150  178.1090  141.9450 C   0  0  1  0  0  3  0  0  0  0  0  0
  190.9170  177.4380  145.6280 N   0  0  0  0  0  2  0  0  0  0  0  0
  189.4610  176.7240  143.8840 N   0  0  0  0  0  0  0  0  0  0  0  0
  189.0500  176.9780  142.5740 N   0  0  0  0  0  2  0  0  0  0  0  0
  190.4160  177.4920  144.2890 C   0  0  0  0  0  0  0  0  0  0  0  0
  190.9960  178.7030  143.1140 S   0  0  0  0  0  0  0  0  0  0  0  0
  190.4770  176.4420  146.6000 C   0  0  0  0  0  2  0  0  0  0  0  0
  189.7680  177.1370  147.7500 C   0  0  0  0  0  2  0  0  0  0  0  0
  187.7740  178.6290  148.0160 C   0  0  0  0  0  3  0  0  0  0  0  0
  188.3890  177.5530  147.3690 C   0  0  0  0  0  0  0  0  0  0  0  0
  186.4880  179.0300  147.6400 C   0  0  0  0  0  3  0  0  0  0  0  0
  185.8140  178.3640  146.6110 C   0  0  0  0  0  0  0  0  0  0  0  0
  186.4350  177.2850  145.9640 C   0  0  0  0  0  3  0  0  0  0  0  0
  187.7170  176.8790  146.3450 C   0  0  0  0  0  3  0  0  0  0  0  0
  184.5370  178.7980  146.2460 O   0  0  0  0  0  0  0  0  0  0  0  0
  182.8100  179.3820  144.6650 C   0  0  0  0  0  2  0  0  0  0  0  0
  184.1280  179.3780  143.9300 C   0  0  2  0  0  0  0  0  0  0  0  0
  183.8930  178.3760  145.0480 C   0  0  1  0  0  3  0  0  0  0  0  0
  184.9520  180.4660  144.2450 O   0  0  0  0  0  1  0  0  0  0  0  0
  185.2660  177.8910  142.2380 C   0  0  0  0  0  2  0  0  0  0  0  0
  184.0950  178.8240  142.5050 C   0  0  0  0  0  3  0  0  0  0  0  0
  185.3070  179.3160  141.7300 C   0  0  0  0  0  2  0  0  0  0  0  0
  194.4540  174.7310  138.1250 N   0  0  0  0  0  2  0  0  0  0  0  0
  191.7900  173.6370  135.7240 C   0  0  0  0  0  0  0  0  0  0  0  0
  193.8130  174.1760  136.9760 C   0  0  0  0  0  0  0  0  0  0  0  0
  192.5910  173.0850  134.7070 C   0  0  0  0  0  3  0  0  0  0  0  0
  192.4160  174.1880  136.8530 C   0  0  0  0  0  3  0  0  0  0  0  0
  193.9830  173.0770  134.8230 C   0  0  0  0  0  3  0  0  0  0  0  0
  194.5930  173.6180  135.9590 C   0  0  0  0  0  3  0  0  0  0  0  0
  185.8610  172.1590  135.0120 C   0  0  0  0  0  0  0  0  0  0  0  0
  184.1250  172.9240  135.9510 C   0  0  0  0  0  0  0  0  0  0  0  0
  190.3090  173.6160  135.6270 C   0  0  0  0  0  0  0  0  0  0  0  0
  189.5960  172.2840  135.4400 C   0  0  0  0  0  2  0  0  0  0  0  0
  184.6950  171.7620  135.5370 N   0  0  0  0  0  2  0  0  0  0  0  0
  187.3530  170.2450  135.0600 O   0  0  0  0  0  0  0  0  0  0  0  0
  184.9800  174.0250  135.8190 C   0  0  0  0  0  3  0  0  0  0  0  0
  187.5010  173.7180  135.2670 C   0  0  0  0  0  0  0  0  0  0  0  0
  189.6100  174.7720  135.7080 C   0  0  0  0  0  3  0  0  0  0  0  0
  188.1850  172.4740  135.1150 N   0  0  0  0  0  0  0  0  0  0  0  0
  186.0630  173.4860  135.1670 C   0  0  0  0  0  0  0  0  0  0  0  0
  188.1420  174.8350  135.5800 C   0  0  0  0  0  3  0  0  0  0  0  0
  187.1580  171.4880  135.0240 C   0  0  0  0  0  0  0  0  0  0  0  0
  180.8940  171.8610  137.5740 C   0  0  0  0  0  2  0  0  0  0  0  0
  178.9430  173.1460  138.0450 O   0  0  0  0  0  1  0  0  0  0  0  0
  180.0910  173.1200  137.2550 C   0  0  1  0  0  3  0  0  0  0  0  0
  180.9740  174.3260  137.5680 C   0  0  1  0  0  3  0  0  0  0  0  0
  182.8130  172.9790  136.6040 C   0  0  0  0  0  0  0  0  0  0  0  0
  182.1840  171.8750  136.8880 N   0  0  0  0  0  0  0  0  0  0  0  0
  182.2240  174.2220  136.8850 O   0  0  0  0  0  0  0  0  0  0  0  0
  181.0340  176.7330  137.6690 O   0  0  0  0  0  1  0  0  0  0  0  0
  180.2860  175.6420  137.2130 C   0  0  0  0  0  2  0  0  0  0  0  0
  2  1  1  0  0  0  0
  2  5  1  0  0  0  0
  3  7  1  0  0  0  0
  4  5  2  0  0  0  0
  4  7  1  0  0  0  0
  5  8  1  0  0  0  0
  7  6  2  0  0  0  0
  8  6  1  0  0  0  0
  9  6  1  6  0  0  0
  9 12  1  0  0  0  0
  9 14  1  0  0  0  0
 10 15  1  0  0  0  0
 11 13  2  0  0  0  0
 12 11  1  0  0  0  0
 13 10  1  0  0  0  0
 14 13  1  0  0  0  0
 15 16  1  0  0  0  0
 18 16  1  0  0  0  0
 18 17  2  0  0  0  0
 19 17  1  0  0  0  0
 20 19  2  0  0  0  0
 21 22  2  0  0  0  0
 21 20  1  0  0  0  0
 22 18  1  0  0  0  0
 23 20  1  0  0  0  0
 24 26  1  0  0  0  0
 25 27  1  1  0  0  0
 25 24  1  0  0  0  0
 25 26  1  0  0  0  0
 26 23  1  1  0  0  0
 28 29  1  0  0  0  0
 29 25  1  0  0  0  0
 30 28  1  0  0  0  0
 30 29  1  0  0  0  0
 31  1  1  0  0  0  0
 32 35  1  0  0  0  0
 33 31  1  0  0  0  0
 34 36  1  0  0  0  0
 34 32  2  0  0  0  0
 35 33  2  0  0  0  0
 36 37  2  0  0  0  0
 37 33  1  0  0  0  0
 38 50  1  0  0  0  0
 38 48  2  0  0  0  0
 38 42  1  0  0  0  0
 39 55  1  0  0  0  0
 40 46  2  0  0  0  0
 40 32  1  0  0  0  0
 41 40  1  0  0  0  0
 42 39  1  0  0  0  0
 44 39  2  0  0  0  0
 45 49  2  0  0  0  0
 47 45  1  0  0  0  0
 47 41  1  0  0  0  0
 48 45  1  0  0  0  0
 48 44  1  0  0  0  0
 49 46  1  0  0  0  0
 50 43  2  0  0  0  0
 50 47  1  0  0  0  0
 53 54  1  0  0  0  0
 53 51  1  0  0  0  0
 53 52  1  1  0  0  0
 54 59  1  6  0  0  0
 55 57  1  0  0  0  0
 55 56  2  0  0  0  0
 56 51  1  0  0  0  0
 57 54  1  0  0  0  0
 59 58  1  0  0  0  0
M  END
>  <MODEL>
9

>  <REMARK>
 VINA RESULT:      -7.2      3.628      9.687
  Name = 
  14 active torsions:
  status: ('A' for Active; 'I' for Inactive)
    1  A    between atoms: C_4  and  C_26
    2  A    between atoms: C_5  and  N_58
    3  A    between atoms: C_9  and  C_22
    4  A    between atoms: C_12  and  C_14
    5  A    between atoms: C_13  and  C_20
    6  A    between atoms: N_16  and  C_45
    7  A    between atoms: N_16  and  N_58
    8  A    between atoms: C_17  and  C_36
    9  A    between atoms: C_22  and  C_46
   10  A    between atoms: C_23  and  O_55
   11  A    between atoms: C_24  and  C_29
   12  A    between atoms: N_28  and  C_46
   13  A    between atoms: C_31  and  C_45
   14  A    between atoms: C_39  and  O_55
                            x       y       z     vdW  Elec       q    Type
                         _______ _______ _______ _____ _____    ______ ____

>  <TORSDO>
F 14

$$$$
