=
 OpenBabel11032420083D

 28 30  0  0  0  0  0  0  0  0999 V2000
  189.0440  177.3060  140.5720 C   0  0  0  0  0  0  0  0  0  0  0  0
  187.4640  178.5010  141.3630 C   0  0  0  0  0  0  0  0  0  0  0  0
  189.7180  175.9310  142.6530 C   0  0  0  0  0  1  0  0  0  0  0  0
  188.9240  176.9530  141.9110 C   0  0  0  0  0  0  0  0  0  0  0  0
  188.1580  178.2340  140.2810 O   0  0  0  0  0  0  0  0  0  0  0  0
  187.8880  177.7160  142.4210 C   0  0  0  0  0  0  0  0  0  0  0  0
  186.0100  177.7980  144.0290 C   0  0  0  0  0  3  0  0  0  0  0  0
  187.6960  177.6900  146.2350 C   0  0  0  0  0  0  0  0  0  0  0  0
  187.3920  177.7340  143.8160 C   0  0  0  0  0  0  0  0  0  0  0  0
  189.9260  177.6280  147.1900 C   0  0  0  0  0  3  0  0  0  0  0  0
  188.5390  177.6500  147.3590 C   0  0  0  0  0  0  0  0  0  0  0  0
  186.3440  177.7410  146.3900 N   0  0  0  0  0  0  0  0  0  0  0  0
  185.5020  177.7990  145.3260 C   0  0  0  0  0  3  0  0  0  0  0  0
  190.4810  177.6470  145.9080 C   0  0  0  0  0  3  0  0  0  0  0  0
  187.9860  177.6400  148.7440 C   0  0  0  0  0  1  0  0  0  0  0  0
  188.2550  177.6910  144.9330 C   0  0  0  0  0  0  0  0  0  0  0  0
  189.6510  177.6820  144.7870 C   0  0  0  0  0  3  0  0  0  0  0  0
  189.9930  176.7650  139.5860 C   0  0  0  0  0  0  0  0  0  0  0  0
  191.2280  176.9390  139.7600 O   0  0  0  0  0  0  0  0  0  0  0  0
  189.5240  176.0470  138.4420 N   0  0  0  0  0  2  0  0  0  0  0  0
  189.6380  174.6510  135.9530 C   0  0  0  0  0  1  0  0  0  0  0  0
  191.4480  176.4850  136.6770 O   0  0  0  0  0  0  0  0  0  0  0  0
  191.4700  174.3400  137.8800 O   0  0  0  0  0  0  0  0  0  0  0  0
  190.5960  175.3910  137.2530 S   0  0  0  0  0  0  0  0  0  0  0  0
  186.4410  179.4930  141.4290 N   0  0  0  0  0  2  0  0  0  0  0  0
  185.0460  179.1540  141.2180 C   0  0  0  0  0  2  0  0  0  0  0  0
  184.8030  178.9170  139.7430 C   0  0  0  0  0  2  0  0  0  0  0  0
  184.3570  180.1510  139.1230 N   0  0  0  0  0  1  0  0  0  0  0  0
  1  4  2  0  0  0  0
  2 25  1  0  0  0  0
  2  6  2  0  0  0  0
  4  6  1  0  0  0  0
  4  3  1  0  0  0  0
  5  1  1  0  0  0  0
  5  2  1  0  0  0  0
  6  9  1  0  0  0  0
  7 13  1  0  0  0  0
  8 12  1  0  0  0  0
  8 11  1  0  0  0  0
  9  7  2  0  0  0  0
  9 16  1  0  0  0  0
 10 11  2  0  0  0  0
 11 15  1  0  0  0  0
 13 12  2  0  0  0  0
 14 10  1  0  0  0  0
 16  8  2  0  0  0  0
 17 16  1  0  0  0  0
 17 14  2  0  0  0  0
 18 19  2  0  0  0  0
 18  1  1  0  0  0  0
 20 18  1  0  0  0  0
 21 24  1  0  0  0  0
 22 24  2  0  0  0  0
 24 23  2  0  0  0  0
 24 20  1  0  0  0  0
 26 25  1  0  0  0  0
 27 26  1  0  0  0  0
 28 27  1  0  0  0  0
M  END
>  <MODEL>
1

>  <REMARK>
 VINA RESULT:      -8.8      0.000      0.000
  Name = 
  6 active torsions:
  status: ('A' for Active; 'I' for Inactive)
    1  A    between atoms: C_1  and  C_5
    2  A    between atoms: C_4  and  C_11
    3  A    between atoms: C_9  and  C_27
    4  A    between atoms: C_11  and  N_28
    5  A    between atoms: C_13  and  N_28
    6  A    between atoms: S_20  and  N_25
                            x       y       z     vdW  Elec       q    Type
                         _______ _______ _______ _____ _____    ______ ____

>  <TORSDO>
F 6

$$$$
=
 OpenBabel11032420083D

 28 30  0  0  0  0  0  0  0  0999 V2000
  185.2160  178.6380  143.1470 C   0  0  0  0  0  0  0  0  0  0  0  0
  187.0710  178.6330  142.0940 C   0  0  0  0  0  0  0  0  0  0  0  0
  185.8210  177.2300  145.2270 C   0  0  0  0  0  1  0  0  0  0  0  0
  186.0970  177.8880  143.9170 C   0  0  0  0  0  0  0  0  0  0  0  0
  185.8310  179.0650  142.0650 O   0  0  0  0  0  0  0  0  0  0  0  0
  187.3060  177.8980  143.2420 C   0  0  0  0  0  0  0  0  0  0  0  0
  189.2370  176.4650  142.6660 C   0  0  0  0  0  3  0  0  0  0  0  0
  190.2980  176.6040  145.2300 C   0  0  0  0  0  0  0  0  0  0  0  0
  188.5560  177.2100  143.6350 C   0  0  0  0  0  0  0  0  0  0  0  0
  190.1650  177.3530  147.5350 C   0  0  0  0  0  3  0  0  0  0  0  0
  190.8370  176.6540  146.5280 C   0  0  0  0  0  0  0  0  0  0  0  0
  190.9300  175.9010  144.2500 N   0  0  0  0  0  0  0  0  0  0  0  0
  190.4270  175.8170  142.9910 C   0  0  0  0  0  3  0  0  0  0  0  0
  188.9590  178.0000  147.2600 C   0  0  0  0  0  3  0  0  0  0  0  0
  192.1170  175.9670  146.8630 C   0  0  0  0  0  1  0  0  0  0  0  0
  189.0830  177.2750  144.9440 C   0  0  0  0  0  0  0  0  0  0  0  0
  188.4200  177.9590  145.9740 C   0  0  0  0  0  3  0  0  0  0  0  0
  183.8060  178.9410  143.4400 C   0  0  0  0  0  0  0  0  0  0  0  0
  183.5130  179.5270  144.5160 O   0  0  0  0  0  0  0  0  0  0  0  0
  182.7770  178.5780  142.5180 N   0  0  0  0  0  2  0  0  0  0  0  0
  180.1240  178.1100  141.5670 C   0  0  0  0  0  1  0  0  0  0  0  0
  180.7120  178.3830  144.1640 O   0  0  0  0  0  0  0  0  0  0  0  0
  180.8620  180.3930  142.7540 O   0  0  0  0  0  0  0  0  0  0  0  0
  181.1040  178.9100  142.8130 S   0  0  0  0  0  0  0  0  0  0  0  0
  188.0210  178.8700  141.0560 N   0  0  0  0  0  2  0  0  0  0  0  0
  187.8810  178.2550  139.7490 C   0  0  0  0  0  2  0  0  0  0  0  0
  189.1610  178.4460  138.9640 C   0  0  0  0  0  2  0  0  0  0  0  0
  188.9030  179.2980  137.8190 N   0  0  0  0  0  1  0  0  0  0  0  0
  1 18  1  0  0  0  0
  1  4  2  0  0  0  0
  2  6  2  0  0  0  0
  4  3  1  0  0  0  0
  5  2  1  0  0  0  0
  5  1  1  0  0  0  0
  6  9  1  0  0  0  0
  6  4  1  0  0  0  0
  7 13  2  0  0  0  0
  7  9  1  0  0  0  0
  8 11  1  0  0  0  0
  9 16  2  0  0  0  0
 11 15  1  0  0  0  0
 11 10  2  0  0  0  0
 12  8  2  0  0  0  0
 13 12  1  0  0  0  0
 14 10  1  0  0  0  0
 16  8  1  0  0  0  0
 16 17  1  0  0  0  0
 17 14  2  0  0  0  0
 18 19  2  0  0  0  0
 20 24  1  0  0  0  0
 20 18  1  0  0  0  0
 21 24  1  0  0  0  0
 23 24  2  0  0  0  0
 24 22  2  0  0  0  0
 25  2  1  0  0  0  0
 26 25  1  0  0  0  0
 27 26  1  0  0  0  0
 28 27  1  0  0  0  0
M  END
>  <MODEL>
2

>  <REMARK>
 VINA RESULT:      -8.8      3.945      6.222
  Name = 
  6 active torsions:
  status: ('A' for Active; 'I' for Inactive)
    1  A    between atoms: C_1  and  C_5
    2  A    between atoms: C_4  and  C_11
    3  A    between atoms: C_9  and  C_27
    4  A    between atoms: C_11  and  N_28
    5  A    between atoms: C_13  and  N_28
    6  A    between atoms: S_20  and  N_25
                            x       y       z     vdW  Elec       q    Type
                         _______ _______ _______ _____ _____    ______ ____

>  <TORSDO>
F 6

$$$$
=
 OpenBabel11032420083D

 28 30  0  0  0  0  0  0  0  0999 V2000
  188.4520  177.5940  139.1930 C   0  0  0  0  0  0  0  0  0  0  0  0
  187.5570  178.4810  140.9130 C   0  0  0  0  0  0  0  0  0  0  0  0
  190.6780  176.7300  140.1800 C   0  0  0  0  0  1  0  0  0  0  0  0
  189.3550  177.4170  140.2340 C   0  0  0  0  0  0  0  0  0  0  0  0
  187.3920  178.2350  139.6330 O   0  0  0  0  0  0  0  0  0  0  0  0
  188.7670  177.9790  141.3550 C   0  0  0  0  0  0  0  0  0  0  0  0
  190.6840  178.4680  142.8390 C   0  0  0  0  0  3  0  0  0  0  0  0
  189.2280  177.9350  145.1450 C   0  0  0  0  0  0  0  0  0  0  0  0
  189.3460  178.0780  142.7140 C   0  0  0  0  0  0  0  0  0  0  0  0
  187.1800  177.2210  146.2340 C   0  0  0  0  0  3  0  0  0  0  0  0
  188.5060  177.6540  146.3190 C   0  0  0  0  0  0  0  0  0  0  0  0
  190.5290  178.3290  145.2160 N   0  0  0  0  0  0  0  0  0  0  0  0
  191.2610  178.5900  144.1020 C   0  0  0  0  0  3  0  0  0  0  0  0
  186.5670  177.0640  144.9900 C   0  0  0  0  0  3  0  0  0  0  0  0
  189.1290  177.7990  147.6660 C   0  0  0  0  0  1  0  0  0  0  0  0
  188.6030  177.7940  143.8810 C   0  0  0  0  0  0  0  0  0  0  0  0
  187.2750  177.3450  143.8210 C   0  0  0  0  0  3  0  0  0  0  0  0
  188.6030  177.1580  137.7950 C   0  0  0  0  0  0  0  0  0  0  0  0
  189.2690  177.8690  136.9960 O   0  0  0  0  0  0  0  0  0  0  0  0
  188.0030  175.9420  137.3430 N   0  0  0  0  0  2  0  0  0  0  0  0
  187.2570  173.8560  135.5390 C   0  0  0  0  0  1  0  0  0  0  0  0
  187.5690  176.4020  134.7720 O   0  0  0  0  0  0  0  0  0  0  0  0
  189.5960  175.1490  135.3820 O   0  0  0  0  0  0  0  0  0  0  0  0
  188.1490  175.3830  135.7120 S   0  0  0  0  0  0  0  0  0  0  0  0
  186.6200  179.2020  141.7120 N   0  0  0  0  0  2  0  0  0  0  0  0
  185.2280  179.3210  141.3220 C   0  0  0  0  0  2  0  0  0  0  0  0
  184.4320  178.1950  141.9460 C   0  0  0  0  0  2  0  0  0  0  0  0
  183.8310  178.6570  143.1830 N   0  0  0  0  0  1  0  0  0  0  0  0
  1  5  1  0  0  0  0
  1  4  2  0  0  0  0
  2  6  2  0  0  0  0
  2 25  1  0  0  0  0
  3  4  1  0  0  0  0
  4  6  1  0  0  0  0
  5  2  1  0  0  0  0
  6  9  1  0  0  0  0
  7 13  1  0  0  0  0
  8 12  1  0  0  0  0
  8 11  1  0  0  0  0
  9  7  2  0  0  0  0
  9 16  1  0  0  0  0
 10 11  2  0  0  0  0
 11 15  1  0  0  0  0
 13 12  2  0  0  0  0
 14 10  1  0  0  0  0
 16  8  2  0  0  0  0
 17 16  1  0  0  0  0
 17 14  2  0  0  0  0
 18  1  1  0  0  0  0
 19 18  2  0  0  0  0
 20 18  1  0  0  0  0
 21 24  1  0  0  0  0
 22 24  2  0  0  0  0
 23 24  2  0  0  0  0
 24 20  1  0  0  0  0
 26 25  1  0  0  0  0
 26 27  1  0  0  0  0
 27 28  1  0  0  0  0
M  END
>  <MODEL>
3

>  <REMARK>
 VINA RESULT:      -8.2      1.985      2.865
  Name = 
  6 active torsions:
  status: ('A' for Active; 'I' for Inactive)
    1  A    between atoms: C_1  and  C_5
    2  A    between atoms: C_4  and  C_11
    3  A    between atoms: C_9  and  C_27
    4  A    between atoms: C_11  and  N_28
    5  A    between atoms: C_13  and  N_28
    6  A    between atoms: S_20  and  N_25
                            x       y       z     vdW  Elec       q    Type
                         _______ _______ _______ _____ _____    ______ ____

>  <TORSDO>
F 6

$$$$
=
 OpenBabel11032420083D

 28 30  0  0  0  0  0  0  0  0999 V2000
  190.4790  176.7750  139.9260 C   0  0  0  0  0  0  0  0  0  0  0  0
  190.1160  177.7180  141.8040 C   0  0  0  0  0  0  0  0  0  0  0  0
  188.1100  176.7890  138.8950 C   0  0  0  0  0  1  0  0  0  0  0  0
  189.1200  177.0610  139.9590 C   0  0  0  0  0  0  0  0  0  0  0  0
  191.0410  177.1780  141.0440 O   0  0  0  0  0  0  0  0  0  0  0  0
  188.8860  177.6880  141.1710 C   0  0  0  0  0  0  0  0  0  0  0  0
  186.7260  178.8440  140.8310 C   0  0  0  0  0  3  0  0  0  0  0  0
  185.9110  178.4140  143.4530 C   0  0  0  0  0  0  0  0  0  0  0  0
  187.5860  178.1600  141.6990 C   0  0  0  0  0  0  0  0  0  0  0  0
  186.3410  177.5740  145.6890 C   0  0  0  0  0  3  0  0  0  0  0  0
  185.4940  178.2160  144.7810 C   0  0  0  0  0  0  0  0  0  0  0  0
  185.1060  179.0640  142.5690 N   0  0  0  0  0  0  0  0  0  0  0  0
  185.4860  179.2890  141.2840 C   0  0  0  0  0  3  0  0  0  0  0  0
  187.6020  177.1300  145.2860 C   0  0  0  0  0  3  0  0  0  0  0  0
  184.1600  178.6860  145.2530 C   0  0  0  0  0  1  0  0  0  0  0  0
  187.1830  177.9490  143.0360 C   0  0  0  0  0  0  0  0  0  0  0  0
  188.0220  177.3190  143.9690 C   0  0  0  0  0  3  0  0  0  0  0  0
  191.2290  176.1220  138.8410 C   0  0  0  0  0  0  0  0  0  0  0  0
  190.8200  175.0210  138.3840 O   0  0  0  0  0  0  0  0  0  0  0  0
  192.4090  176.7260  138.3060 N   0  0  0  0  0  2  0  0  0  0  0  0
  194.0850  174.5120  137.6340 C   0  0  0  0  0  1  0  0  0  0  0  0
  192.4230  175.6650  135.8800 O   0  0  0  0  0  0  0  0  0  0  0  0
  194.4010  176.9500  136.5750 O   0  0  0  0  0  0  0  0  0  0  0  0
  193.3280  176.0020  137.0310 S   0  0  0  0  0  0  0  0  0  0  0  0
  190.3580  178.2270  143.1150 N   0  0  0  0  0  2  0  0  0  0  0  0
  191.6260  178.0110  143.7860 C   0  0  0  0  0  2  0  0  0  0  0  0
  191.5580  176.7300  144.5890 C   0  0  0  0  0  2  0  0  0  0  0  0
  191.7020  177.0360  146.0000 N   0  0  0  0  0  1  0  0  0  0  0  0
  1  4  2  0  0  0  0
  1  5  1  0  0  0  0
  2 25  1  0  0  0  0
  3  4  1  0  0  0  0
  4  6  1  0  0  0  0
  5  2  1  0  0  0  0
  6  9  1  0  0  0  0
  6  2  2  0  0  0  0
  7 13  2  0  0  0  0
  7  9  1  0  0  0  0
  8 11  1  0  0  0  0
  9 16  2  0  0  0  0
 11 15  1  0  0  0  0
 11 10  2  0  0  0  0
 12  8  2  0  0  0  0
 13 12  1  0  0  0  0
 14 10  1  0  0  0  0
 16  8  1  0  0  0  0
 16 17  1  0  0  0  0
 17 14  2  0  0  0  0
 18  1  1  0  0  0  0
 19 18  2  0  0  0  0
 20 18  1  0  0  0  0
 22 24  2  0  0  0  0
 23 24  2  0  0  0  0
 24 21  1  0  0  0  0
 24 20  1  0  0  0  0
 25 26  1  0  0  0  0
 26 27  1  0  0  0  0
 27 28  1  0  0  0  0
M  END
>  <MODEL>
4

>  <REMARK>
 VINA RESULT:      -8.2      2.176      4.260
  Name = 
  6 active torsions:
  status: ('A' for Active; 'I' for Inactive)
    1  A    between atoms: C_1  and  C_5
    2  A    between atoms: C_4  and  C_11
    3  A    between atoms: C_9  and  C_27
    4  A    between atoms: C_11  and  N_28
    5  A    between atoms: C_13  and  N_28
    6  A    between atoms: S_20  and  N_25
                            x       y       z     vdW  Elec       q    Type
                         _______ _______ _______ _____ _____    ______ ____

>  <TORSDO>
F 6

$$$$
=
 OpenBabel11032420083D

 28 30  0  0  0  0  0  0  0  0999 V2000
  184.5680  178.9080  140.4890 C   0  0  0  0  0  0  0  0  0  0  0  0
  186.6860  178.7040  140.6320 C   0  0  0  0  0  0  0  0  0  0  0  0
  183.8320  178.1130  142.8350 C   0  0  0  0  0  1  0  0  0  0  0  0
  184.8250  178.4190  141.7640 C   0  0  0  0  0  0  0  0  0  0  0  0
  185.7010  179.0640  139.8410 O   0  0  0  0  0  0  0  0  0  0  0  0
  186.2010  178.3020  141.8630 C   0  0  0  0  0  0  0  0  0  0  0  0
  188.0500  176.9300  142.7670 C   0  0  0  0  0  3  0  0  0  0  0  0
  187.4750  177.6160  145.3970 C   0  0  0  0  0  0  0  0  0  0  0  0
  186.9740  177.7900  143.0170 C   0  0  0  0  0  0  0  0  0  0  0  0
  186.0940  178.7670  147.0280 C   0  0  0  0  0  3  0  0  0  0  0  0
  187.1860  177.9440  146.7330 C   0  0  0  0  0  0  0  0  0  0  0  0
  188.5180  176.7920  145.1020 N   0  0  0  0  0  0  0  0  0  0  0  0
  188.8140  176.4410  143.8240 C   0  0  0  0  0  3  0  0  0  0  0  0
  185.2880  179.2630  146.0030 C   0  0  0  0  0  3  0  0  0  0  0  0
  188.0160  177.4250  147.8570 C   0  0  0  0  0  1  0  0  0  0  0  0
  186.6690  178.1340  144.3530 C   0  0  0  0  0  0  0  0  0  0  0  0
  185.5710  178.9460  144.6740 C   0  0  0  0  0  3  0  0  0  0  0  0
  183.2560  179.2190  139.8980 C   0  0  0  0  0  0  0  0  0  0  0  0
  182.3180  178.3860  140.0070 O   0  0  0  0  0  0  0  0  0  0  0  0
  183.0430  180.4530  139.2080 N   0  0  0  0  0  2  0  0  0  0  0  0
  181.1950  179.7680  137.1400 C   0  0  0  0  0  1  0  0  0  0  0  0
  180.4290  180.7340  139.5160 O   0  0  0  0  0  0  0  0  0  0  0  0
  181.5700  182.2810  137.9820 O   0  0  0  0  0  0  0  0  0  0  0  0
  181.5220  180.8690  138.4950 S   0  0  0  0  0  0  0  0  0  0  0  0
  188.0590  178.7020  140.2450 N   0  0  0  0  0  2  0  0  0  0  0  0
  188.5330  177.8770  139.1490 C   0  0  0  0  0  2  0  0  0  0  0  0
  189.0940  178.7630  138.0580 C   0  0  0  0  0  2  0  0  0  0  0  0
  188.0220  179.1750  137.1720 N   0  0  0  0  0  1  0  0  0  0  0  0
  1  4  2  0  0  0  0
  2  6  2  0  0  0  0
  4  6  1  0  0  0  0
  4  3  1  0  0  0  0
  5  1  1  0  0  0  0
  5  2  1  0  0  0  0
  6  9  1  0  0  0  0
  7  9  2  0  0  0  0
  7 13  1  0  0  0  0
  8 11  1  0  0  0  0
  9 16  1  0  0  0  0
 11 10  2  0  0  0  0
 11 15  1  0  0  0  0
 12  8  1  0  0  0  0
 13 12  2  0  0  0  0
 14 10  1  0  0  0  0
 16 17  1  0  0  0  0
 16  8  2  0  0  0  0
 17 14  2  0  0  0  0
 18 19  2  0  0  0  0
 18  1  1  0  0  0  0
 20 18  1  0  0  0  0
 21 24  1  0  0  0  0
 23 24  2  0  0  0  0
 24 20  1  0  0  0  0
 24 22  2  0  0  0  0
 25  2  1  0  0  0  0
 26 25  1  0  0  0  0
 27 26  1  0  0  0  0
 28 27  1  0  0  0  0
M  END
>  <MODEL>
5

>  <REMARK>
 VINA RESULT:      -8.1      3.644      5.891
  Name = 
  6 active torsions:
  status: ('A' for Active; 'I' for Inactive)
    1  A    between atoms: C_1  and  C_5
    2  A    between atoms: C_4  and  C_11
    3  A    between atoms: C_9  and  C_27
    4  A    between atoms: C_11  and  N_28
    5  A    between atoms: C_13  and  N_28
    6  A    between atoms: S_20  and  N_25
                            x       y       z     vdW  Elec       q    Type
                         _______ _______ _______ _____ _____    ______ ____

>  <TORSDO>
F 6

$$$$
=
 OpenBabel11032420083D

 28 30  0  0  0  0  0  0  0  0999 V2000
  187.8710  178.2420  139.6870 C   0  0  0  0  0  0  0  0  0  0  0  0
  186.6620  178.8010  141.3520 C   0  0  0  0  0  0  0  0  0  0  0  0
  189.6920  176.8240  140.8480 C   0  0  0  0  0  1  0  0  0  0  0  0
  188.4670  177.6730  140.8060 C   0  0  0  0  0  0  0  0  0  0  0  0
  186.7980  178.9100  140.0500 O   0  0  0  0  0  0  0  0  0  0  0  0
  187.6730  178.0220  141.8860 C   0  0  0  0  0  0  0  0  0  0  0  0
  186.8060  177.2800  144.0800 C   0  0  0  0  0  3  0  0  0  0  0  0
  189.3090  177.4060  145.2810 C   0  0  0  0  0  0  0  0  0  0  0  0
  187.9010  177.6880  143.3100 C   0  0  0  0  0  0  0  0  0  0  0  0
  191.6780  177.9220  145.1800 C   0  0  0  0  0  3  0  0  0  0  0  0
  190.5670  177.4800  145.9040 C   0  0  0  0  0  0  0  0  0  0  0  0
  188.2150  177.0040  145.9850 N   0  0  0  0  0  0  0  0  0  0  0  0
  186.9820  176.9390  145.4190 C   0  0  0  0  0  3  0  0  0  0  0  0
  191.5450  178.2940  143.8410 C   0  0  0  0  0  3  0  0  0  0  0  0
  190.7470  177.1020  147.3350 C   0  0  0  0  0  1  0  0  0  0  0  0
  189.1740  177.7650  143.9170 C   0  0  0  0  0  0  0  0  0  0  0  0
  190.3010  178.2190  143.2140 C   0  0  0  0  0  3  0  0  0  0  0  0
  188.3240  178.1510  138.2900 C   0  0  0  0  0  0  0  0  0  0  0  0
  188.9210  179.1310  137.7700 O   0  0  0  0  0  0  0  0  0  0  0  0
  188.0930  176.9650  137.5260 N   0  0  0  0  0  2  0  0  0  0  0  0
  188.1010  175.2140  135.2690 C   0  0  0  0  0  1  0  0  0  0  0  0
  187.9710  177.8790  135.0440 O   0  0  0  0  0  0  0  0  0  0  0  0
  190.1020  176.9110  135.8000 O   0  0  0  0  0  0  0  0  0  0  0  0
  188.6050  176.8040  135.8800 S   0  0  0  0  0  0  0  0  0  0  0  0
  185.6260  179.4360  142.1000 N   0  0  0  0  0  2  0  0  0  0  0  0
  184.2450  179.0030  141.9970 C   0  0  0  0  0  2  0  0  0  0  0  0
  183.6580  178.8610  143.3850 C   0  0  0  0  0  2  0  0  0  0  0  0
  184.3500  179.7550  144.2950 N   0  0  0  0  0  1  0  0  0  0  0  0
  1  5  1  0  0  0  0
  1  4  2  0  0  0  0
  2  6  2  0  0  0  0
  2 25  1  0  0  0  0
  4  3  1  0  0  0  0
  4  6  1  0  0  0  0
  5  2  1  0  0  0  0
  6  9  1  0  0  0  0
  7 13  1  0  0  0  0
  8 11  1  0  0  0  0
  8 12  1  0  0  0  0
  9 16  1  0  0  0  0
  9  7  2  0  0  0  0
 10 11  2  0  0  0  0
 11 15  1  0  0  0  0
 13 12  2  0  0  0  0
 14 10  1  0  0  0  0
 16  8  2  0  0  0  0
 17 14  2  0  0  0  0
 17 16  1  0  0  0  0
 18  1  1  0  0  0  0
 19 18  2  0  0  0  0
 20 18  1  0  0  0  0
 21 24  1  0  0  0  0
 22 24  2  0  0  0  0
 23 24  2  0  0  0  0
 24 20  1  0  0  0  0
 26 25  1  0  0  0  0
 26 27  1  0  0  0  0
 27 28  1  0  0  0  0
M  END
>  <MODEL>
6

>  <REMARK>
 VINA RESULT:      -8.0      1.912      2.446
  Name = 
  6 active torsions:
  status: ('A' for Active; 'I' for Inactive)
    1  A    between atoms: C_1  and  C_5
    2  A    between atoms: C_4  and  C_11
    3  A    between atoms: C_9  and  C_27
    4  A    between atoms: C_11  and  N_28
    5  A    between atoms: C_13  and  N_28
    6  A    between atoms: S_20  and  N_25
                            x       y       z     vdW  Elec       q    Type
                         _______ _______ _______ _____ _____    ______ ____

>  <TORSDO>
F 6

$$$$
=
 OpenBabel11032420083D

 28 30  0  0  0  0  0  0  0  0999 V2000
  188.1720  177.7870  140.7330 C   0  0  0  0  0  0  0  0  0  0  0  0
  188.7070  176.6950  142.4850 C   0  0  0  0  0  0  0  0  0  0  0  0
  186.3830  179.3960  141.6760 C   0  0  0  0  0  1  0  0  0  0  0  0
  187.3860  178.2950  141.7610 C   0  0  0  0  0  0  0  0  0  0  0  0
  188.9460  176.8320  141.2010 O   0  0  0  0  0  0  0  0  0  0  0  0
  187.7450  177.5980  142.9020 C   0  0  0  0  0  0  0  0  0  0  0  0
  185.7820  177.8780  144.3790 C   0  0  0  0  0  3  0  0  0  0  0  0
  187.3290  177.8770  146.6880 C   0  0  0  0  0  0  0  0  0  0  0  0
  187.1700  177.7440  144.2580 C   0  0  0  0  0  0  0  0  0  0  0  0
  189.4950  177.8040  147.7800 C   0  0  0  0  0  3  0  0  0  0  0  0
  188.1020  177.8930  147.8620 C   0  0  0  0  0  0  0  0  0  0  0  0
  185.9740  177.9940  146.7550 N   0  0  0  0  0  0  0  0  0  0  0  0
  185.1990  178.0000  145.6390 C   0  0  0  0  0  3  0  0  0  0  0  0
  190.1240  177.7010  146.5380 C   0  0  0  0  0  3  0  0  0  0  0  0
  187.4690  178.0130  149.2060 C   0  0  0  0  0  1  0  0  0  0  0  0
  187.9630  177.7550  145.4260 C   0  0  0  0  0  0  0  0  0  0  0  0
  189.3640  177.6800  145.3680 C   0  0  0  0  0  3  0  0  0  0  0  0
  188.1800  178.2070  139.3220 C   0  0  0  0  0  0  0  0  0  0  0  0
  189.0360  179.0460  138.9340 O   0  0  0  0  0  0  0  0  0  0  0  0
  187.2300  177.6720  138.3980 N   0  0  0  0  0  2  0  0  0  0  0  0
  188.6410  177.4890  135.9210 C   0  0  0  0  0  1  0  0  0  0  0  0
  185.9690  177.5670  136.0720 O   0  0  0  0  0  0  0  0  0  0  0  0
  187.1930  179.6310  136.6150 O   0  0  0  0  0  0  0  0  0  0  0  0
  187.1960  178.1320  136.7300 S   0  0  0  0  0  0  0  0  0  0  0  0
  189.3380  175.7190  143.3120 N   0  0  0  0  0  2  0  0  0  0  0  0
  190.6850  175.2540  143.0400 C   0  0  0  0  0  2  0  0  0  0  0  0
  191.6810  176.2540  143.5850 C   0  0  0  0  0  2  0  0  0  0  0  0
  192.0540  177.1850  142.5370 N   0  0  0  0  0  1  0  0  0  0  0  0
  1  5  1  0  0  0  0
  1  4  2  0  0  0  0
  2  6  2  0  0  0  0
  2 25  1  0  0  0  0
  3  4  1  0  0  0  0
  4  6  1  0  0  0  0
  5  2  1  0  0  0  0
  6  9  1  0  0  0  0
  7 13  1  0  0  0  0
  8 12  1  0  0  0  0
  8 11  1  0  0  0  0
  9  7  2  0  0  0  0
  9 16  1  0  0  0  0
 10 11  2  0  0  0  0
 11 15  1  0  0  0  0
 13 12  2  0  0  0  0
 14 10  1  0  0  0  0
 16  8  2  0  0  0  0
 17 16  1  0  0  0  0
 17 14  2  0  0  0  0
 18  1  1  0  0  0  0
 19 18  2  0  0  0  0
 20 18  1  0  0  0  0
 21 24  1  0  0  0  0
 22 24  2  0  0  0  0
 23 24  2  0  0  0  0
 24 20  1  0  0  0  0
 26 25  1  0  0  0  0
 26 27  1  0  0  0  0
 28 27  1  0  0  0  0
M  END
>  <MODEL>
7

>  <REMARK>
 VINA RESULT:      -7.9      2.291      3.779
  Name = 
  6 active torsions:
  status: ('A' for Active; 'I' for Inactive)
    1  A    between atoms: C_1  and  C_5
    2  A    between atoms: C_4  and  C_11
    3  A    between atoms: C_9  and  C_27
    4  A    between atoms: C_11  and  N_28
    5  A    between atoms: C_13  and  N_28
    6  A    between atoms: S_20  and  N_25
                            x       y       z     vdW  Elec       q    Type
                         _______ _______ _______ _____ _____    ______ ____

>  <TORSDO>
F 6

$$$$
=
 OpenBabel11032420083D

 28 30  0  0  0  0  0  0  0  0999 V2000
  187.9960  177.5540  142.1250 C   0  0  0  0  0  0  0  0  0  0  0  0
  189.7000  176.2850  142.3100 C   0  0  0  0  0  0  0  0  0  0  0  0
  188.5360  178.7950  139.9240 C   0  0  0  0  0  1  0  0  0  0  0  0
  188.8040  177.8280  141.0270 C   0  0  0  0  0  0  0  0  0  0  0  0
  188.5630  176.6300  142.8690 O   0  0  0  0  0  0  0  0  0  0  0  0
  189.9020  176.9930  141.1390 C   0  0  0  0  0  0  0  0  0  0  0  0
  192.2870  177.4600  140.6770 C   0  0  0  0  0  3  0  0  0  0  0  0
  192.1800  176.3080  138.1500 C   0  0  0  0  0  0  0  0  0  0  0  0
  191.0720  176.9270  140.2330 C   0  0  0  0  0  0  0  0  0  0  0  0
  190.9300  175.2350  136.3680 C   0  0  0  0  0  3  0  0  0  0  0  0
  192.1340  175.7410  136.8650 C   0  0  0  0  0  0  0  0  0  0  0  0
  193.3410  176.8310  138.6310 N   0  0  0  0  0  0  0  0  0  0  0  0
  193.4150  177.4020  139.8620 C   0  0  0  0  0  3  0  0  0  0  0  0
  189.7690  175.2910  137.1420 C   0  0  0  0  0  3  0  0  0  0  0  0
  193.3500  175.6730  136.0040 C   0  0  0  0  0  1  0  0  0  0  0  0
  191.0070  176.3500  138.9450 C   0  0  0  0  0  0  0  0  0  0  0  0
  189.8060  175.8480  138.4200 C   0  0  0  0  0  3  0  0  0  0  0  0
  186.7000  178.1680  142.4570 C   0  0  0  0  0  0  0  0  0  0  0  0
  186.0350  178.7330  141.5480 O   0  0  0  0  0  0  0  0  0  0  0  0
  186.1960  178.1260  143.7930 N   0  0  0  0  0  2  0  0  0  0  0  0
  184.3960  178.5560  145.9690 C   0  0  0  0  0  1  0  0  0  0  0  0
  184.7100  180.3100  143.9720 O   0  0  0  0  0  0  0  0  0  0  0  0
  183.5710  178.1940  143.4490 O   0  0  0  0  0  0  0  0  0  0  0  0
  184.6800  178.8320  144.2380 S   0  0  0  0  0  0  0  0  0  0  0  0
  190.6060  175.3340  142.8680 N   0  0  0  0  0  2  0  0  0  0  0  0
  191.6040  175.7260  143.8460 C   0  0  0  0  0  2  0  0  0  0  0  0
  191.3380  177.1470  144.2950 C   0  0  0  0  0  2  0  0  0  0  0  0
  191.6600  177.2760  145.7030 N   0  0  0  0  0  1  0  0  0  0  0  0
  1 18  1  0  0  0  0
  1  5  1  0  0  0  0
  2 25  1  0  0  0  0
  2  5  1  0  0  0  0
  3  4  1  0  0  0  0
  4  6  1  0  0  0  0
  4  1  2  0  0  0  0
  6  2  2  0  0  0  0
  8 12  2  0  0  0  0
  8 16  1  0  0  0  0
  9  7  1  0  0  0  0
  9  6  1  0  0  0  0
 10 11  2  0  0  0  0
 10 14  1  0  0  0  0
 11  8  1  0  0  0  0
 12 13  1  0  0  0  0
 13  7  2  0  0  0  0
 14 17  2  0  0  0  0
 15 11  1  0  0  0  0
 16  9  2  0  0  0  0
 17 16  1  0  0  0  0
 18 20  1  0  0  0  0
 19 18  2  0  0  0  0
 20 24  1  0  0  0  0
 22 24  2  0  0  0  0
 23 24  2  0  0  0  0
 24 21  1  0  0  0  0
 25 26  1  0  0  0  0
 26 27  1  0  0  0  0
 27 28  1  0  0  0  0
M  END
>  <MODEL>
8

>  <REMARK>
 VINA RESULT:      -7.9      3.641      8.156
  Name = 
  6 active torsions:
  status: ('A' for Active; 'I' for Inactive)
    1  A    between atoms: C_1  and  C_5
    2  A    between atoms: C_4  and  C_11
    3  A    between atoms: C_9  and  C_27
    4  A    between atoms: C_11  and  N_28
    5  A    between atoms: C_13  and  N_28
    6  A    between atoms: S_20  and  N_25
                            x       y       z     vdW  Elec       q    Type
                         _______ _______ _______ _____ _____    ______ ____

>  <TORSDO>
F 6

$$$$
=
 OpenBabel11032420083D

 28 30  0  0  0  0  0  0  0  0999 V2000
  187.8130  177.9670  140.7550 C   0  0  0  0  0  0  0  0  0  0  0  0
  189.3820  176.7740  141.5690 C   0  0  0  0  0  0  0  0  0  0  0  0
  188.8320  178.6460  138.4800 C   0  0  0  0  0  1  0  0  0  0  0  0
  188.8310  177.9690  139.8090 C   0  0  0  0  0  0  0  0  0  0  0  0
  188.1770  177.2460  141.7930 O   0  0  0  0  0  0  0  0  0  0  0  0
  189.8430  177.1810  140.3300 C   0  0  0  0  0  0  0  0  0  0  0  0
  192.2950  177.5020  140.2710 C   0  0  0  0  0  3  0  0  0  0  0  0
  192.6160  175.8090  138.0910 C   0  0  0  0  0  0  0  0  0  0  0  0
  191.1610  176.8970  139.7170 C   0  0  0  0  0  0  0  0  0  0  0  0
  191.6790  174.3750  136.3720 C   0  0  0  0  0  3  0  0  0  0  0  0
  192.7900  174.9660  136.9790 C   0  0  0  0  0  0  0  0  0  0  0  0
  193.6900  176.4120  138.6720 N   0  0  0  0  0  0  0  0  0  0  0  0
  193.5560  177.2460  139.7350 C   0  0  0  0  0  3  0  0  0  0  0  0
  190.3940  174.6200  136.8620 C   0  0  0  0  0  3  0  0  0  0  0  0
  194.1450  174.6900  136.4200 C   0  0  0  0  0  1  0  0  0  0  0  0
  191.3160  176.0440  138.6020 C   0  0  0  0  0  0  0  0  0  0  0  0
  190.2130  175.4510  137.9680 C   0  0  0  0  0  3  0  0  0  0  0  0
  186.5100  178.6470  140.6680 C   0  0  0  0  0  0  0  0  0  0  0  0
  186.2300  179.5500  141.5020 O   0  0  0  0  0  0  0  0  0  0  0  0
  185.5710  178.2930  139.6510 N   0  0  0  0  0  2  0  0  0  0  0  0
  183.0790  178.2230  138.2570 C   0  0  0  0  0  1  0  0  0  0  0  0
  183.2950  178.9860  140.8140 O   0  0  0  0  0  0  0  0  0  0  0  0
  184.2090  180.4970  139.1010 O   0  0  0  0  0  0  0  0  0  0  0  0
  184.0270  179.0610  139.5040 S   0  0  0  0  0  0  0  0  0  0  0  0
  190.1130  175.9820  142.5030 N   0  0  0  0  0  2  0  0  0  0  0  0
  190.9820  176.5900  143.4930 C   0  0  0  0  0  2  0  0  0  0  0  0
  190.1820  176.9030  144.7390 C   0  0  0  0  0  2  0  0  0  0  0  0
  189.9500  178.3340  144.8180 N   0  0  0  0  0  1  0  0  0  0  0  0
  1  5  1  0  0  0  0
  2  5  1  0  0  0  0
  2 25  1  0  0  0  0
  3  4  1  0  0  0  0
  4  6  1  0  0  0  0
  4  1  2  0  0  0  0
  6  2  2  0  0  0  0
  8 16  1  0  0  0  0
  8 12  1  0  0  0  0
  9  7  2  0  0  0  0
  9  6  1  0  0  0  0
 10 14  2  0  0  0  0
 10 11  1  0  0  0  0
 11  8  2  0  0  0  0
 12 13  2  0  0  0  0
 13  7  1  0  0  0  0
 14 17  1  0  0  0  0
 15 11  1  0  0  0  0
 16  9  1  0  0  0  0
 17 16  2  0  0  0  0
 18  1  1  0  0  0  0
 18 19  2  0  0  0  0
 20 18  1  0  0  0  0
 21 24  1  0  0  0  0
 23 24  2  0  0  0  0
 24 20  1  0  0  0  0
 24 22  2  0  0  0  0
 25 26  1  0  0  0  0
 26 27  1  0  0  0  0
 27 28  1  0  0  0  0
M  END
>  <MODEL>
9

>  <REMARK>
 VINA RESULT:      -7.9      3.318      7.740
  Name = 
  6 active torsions:
  status: ('A' for Active; 'I' for Inactive)
    1  A    between atoms: C_1  and  C_5
    2  A    between atoms: C_4  and  C_11
    3  A    between atoms: C_9  and  C_27
    4  A    between atoms: C_11  and  N_28
    5  A    between atoms: C_13  and  N_28
    6  A    between atoms: S_20  and  N_25
                            x       y       z     vdW  Elec       q    Type
                         _______ _______ _______ _____ _____    ______ ____

>  <TORSDO>
F 6

$$$$
