=
 OpenBabel11032420373D

 27 30  0  0  1  0  0  0  0  0999 V2000
  187.6970  177.3810  144.0160 N   0  0  0  0  0  0  0  0  0  0  0  0
  187.8400  177.5600  146.4880 C   0  0  0  0  0  3  0  0  0  0  0  0
  187.3170  177.9550  147.7170 C   0  0  0  0  0  0  0  0  0  0  0  0
  185.5390  177.8050  142.9690 C   0  0  1  0  0  3  0  0  0  0  0  0
  182.5810  178.8730  142.0120 C   0  0  0  0  0  2  0  0  0  0  0  0
  183.0610  179.7900  143.1410 C   0  0  0  0  0  2  0  0  0  0  0  0
  187.1500  177.8250  145.2890 C   0  0  0  0  0  0  0  0  0  0  0  0
  187.0510  177.8420  142.7760 C   0  0  0  0  0  2  0  0  0  0  0  0
  185.1630  178.8140  144.0750 C   0  0  2  0  0  3  0  0  0  0  0  0
  185.8930  178.4660  145.3530 C   0  0  0  0  0  0  0  0  0  0  0  0
  188.0790  177.7180  148.9700 C   0  0  0  0  0  1  0  0  0  0  0  0
  185.3710  178.8560  146.5950 C   0  0  0  0  0  3  0  0  0  0  0  0
  183.3970  177.6640  141.8570 N   0  0  0  0  0  2  0  0  0  0  0  0
  184.7960  178.0320  141.6520 C   0  0  0  0  0  2  0  0  0  0  0  0
  183.6500  178.9900  144.2940 C   0  0  0  0  0  2  0  0  0  0  0  0
  186.0650  178.5800  147.7770 C   0  0  0  0  0  3  0  0  0  0  0  0
  190.0470  177.8700  144.4160 C   0  0  0  0  0  0  0  0  0  0  0  0
  190.7020  178.7290  143.4160 C   0  0  0  0  0  0  0  0  0  0  0  0
  190.1420  177.0960  141.7200 C   0  0  0  0  0  0  0  0  0  0  0  0
  189.0610  176.8340  143.9460 C   0  0  2  0  0  3  0  0  0  0  0  0
  190.2870  178.0110  145.6440 O   0  0  0  0  0  0  0  0  0  0  0  0
  189.3980  176.3560  142.5550 C   0  0  0  0  0  3  0  0  0  0  0  0
  190.7280  178.3400  142.1740 N   0  0  0  0  0  0  0  0  0  0  0  0
  191.3420  179.8710  143.7860 F   0  0  0  0  0  0  0  0  0  0  0  0
  190.4160  176.6250  140.3130 C   0  0  1  0  0  3  0  0  0  0  0  0
  189.3810  177.0440  139.4660 O   0  0  0  0  0  1  0  0  0  0  0  0
  191.7350  177.1710  139.7830 C   0  0  0  0  0  1  0  0  0  0  0  0
  1  7  1  0  0  0  0
  2  3  1  0  0  0  0
  3 16  2  0  0  0  0
  3 11  1  0  0  0  0
  4 14  1  6  0  0  0
  4  9  1  0  0  0  0
  5  6  1  0  0  0  0
  6 15  1  0  0  0  0
  7 10  1  0  0  0  0
  7  2  2  0  0  0  0
  8  4  1  0  0  0  0
  8  1  1  0  0  0  0
  9 15  1  1  0  0  0
  9 10  1  0  0  0  0
 10 12  2  0  0  0  0
 12 16  1  0  0  0  0
 13  5  1  0  0  0  0
 14 13  1  0  0  0  0
 17 21  2  0  0  0  0
 18 24  1  0  0  0  0
 18 17  1  0  0  0  0
 19 23  1  0  0  0  0
 19 22  2  0  0  0  0
 20 22  1  6  0  0  0
 20  1  1  0  0  0  0
 20 17  1  0  0  0  0
 23 18  2  0  0  0  0
 25 27  1  6  0  0  0
 25 19  1  0  0  0  0
 26 25  1  0  0  0  0
M  END
>  <MODEL>
1

>  <REMARK>
 VINA RESULT:      -8.9      0.000      0.000
  Name = 
  2 active torsions:
  status: ('A' for Active; 'I' for Inactive)
    1  A    between atoms: N_1  and  C_17
    2  A    between atoms: C_4  and  C_16
                            x       y       z     vdW  Elec       q    Type
                         _______ _______ _______ _____ _____    ______ ____

>  <TORSDO>
F 2

$$$$
=
 OpenBabel11032420373D

 27 30  0  0  1  0  0  0  0  0999 V2000
  188.1500  177.8280  140.3030 N   0  0  0  0  0  0  0  0  0  0  0  0
  189.8020  176.9220  141.9180 C   0  0  0  0  0  3  0  0  0  0  0  0
  190.1940  176.6050  143.2170 C   0  0  0  0  0  0  0  0  0  0  0  0
  185.8700  178.1780  141.0840 C   0  0  1  0  0  3  0  0  0  0  0  0
  183.0940  178.8700  142.7020 C   0  0  0  0  0  2  0  0  0  0  0  0
  184.2660  179.2750  143.6010 C   0  0  0  0  0  2  0  0  0  0  0  0
  188.5560  177.5290  141.6670 C   0  0  0  0  0  0  0  0  0  0  0  0
  186.9350  178.6320  140.0920 C   0  0  0  0  0  2  0  0  0  0  0  0
  186.3710  178.4820  142.5120 C   0  0  2  0  0  3  0  0  0  0  0  0
  187.6870  177.7770  142.7520 C   0  0  0  0  0  0  0  0  0  0  0  0
  191.5330  176.0150  143.4750 C   0  0  0  0  0  1  0  0  0  0  0  0
  188.0870  177.4510  144.0570 C   0  0  0  0  0  3  0  0  0  0  0  0
  183.4990  178.0700  141.5410 N   0  0  0  0  0  2  0  0  0  0  0  0
  184.5060  178.7920  140.7670 C   0  0  0  0  0  2  0  0  0  0  0  0
  185.3450  178.2010  143.6240 C   0  0  0  0  0  2  0  0  0  0  0  0
  189.3250  176.8420  144.2890 C   0  0  0  0  0  3  0  0  0  0  0  0
  188.7590  178.6520  138.0960 C   0  0  0  0  0  0  0  0  0  0  0  0
  187.9220  178.1810  136.9820 C   0  0  0  0  0  0  0  0  0  0  0  0
  188.5150  175.9080  137.5600 C   0  0  0  0  0  0  0  0  0  0  0  0
  189.1100  177.6870  139.1960 C   0  0  2  0  0  3  0  0  0  0  0  0
  189.1610  179.8450  138.1440 O   0  0  0  0  0  0  0  0  0  0  0  0
  189.1600  176.2690  138.6790 C   0  0  0  0  0  3  0  0  0  0  0  0
  187.8290  176.9020  136.7610 N   0  0  0  0  0  0  0  0  0  0  0  0
  187.3140  179.0630  136.1420 F   0  0  0  0  0  0  0  0  0  0  0  0
  188.5290  174.4730  137.0950 C   0  0  1  0  0  3  0  0  0  0  0  0
  187.8060  174.3570  135.9010 O   0  0  0  0  0  1  0  0  0  0  0  0
  189.9470  173.9700  136.8620 C   0  0  0  0  0  1  0  0  0  0  0  0
  1  7  1  0  0  0  0
  2  3  1  0  0  0  0
  3 11  1  0  0  0  0
  3 16  2  0  0  0  0
  4  8  1  6  0  0  0
  4  9  1  0  0  0  0
  5  6  1  0  0  0  0
  6 15  1  0  0  0  0
  7  2  2  0  0  0  0
  7 10  1  0  0  0  0
  8  1  1  0  0  0  0
  9 10  1  0  0  0  0
  9 15  1  1  0  0  0
 10 12  2  0  0  0  0
 12 16  1  0  0  0  0
 13  5  1  0  0  0  0
 14  4  1  0  0  0  0
 14 13  1  0  0  0  0
 17 21  2  0  0  0  0
 17 20  1  0  0  0  0
 18 17  1  0  0  0  0
 19 22  2  0  0  0  0
 20 22  1  6  0  0  0
 20  1  1  0  0  0  0
 23 18  2  0  0  0  0
 23 19  1  0  0  0  0
 24 18  1  0  0  0  0
 25 27  1  6  0  0  0
 25 19  1  0  0  0  0
 26 25  1  0  0  0  0
M  END
>  <MODEL>
2

>  <REMARK>
 VINA RESULT:      -8.5      3.175      4.699
  Name = 
  2 active torsions:
  status: ('A' for Active; 'I' for Inactive)
    1  A    between atoms: N_1  and  C_17
    2  A    between atoms: C_4  and  C_16
                            x       y       z     vdW  Elec       q    Type
                         _______ _______ _______ _____ _____    ______ ____

>  <TORSDO>
F 2

$$$$
=
 OpenBabel11032420373D

 27 30  0  0  1  0  0  0  0  0999 V2000
  189.0510  177.2050  138.6810 N   0  0  0  0  0  0  0  0  0  0  0  0
  191.3100  176.7090  137.7800 C   0  0  0  0  0  3  0  0  0  0  0  0
  192.6890  176.5790  137.9400 C   0  0  0  0  0  0  0  0  0  0  0  0
  188.7860  177.2910  141.1000 C   0  0  1  0  0  3  0  0  0  0  0  0
  189.0260  177.7220  144.3500 C   0  0  0  0  0  2  0  0  0  0  0  0
  190.2500  178.3780  143.7050 C   0  0  0  0  0  2  0  0  0  0  0  0
  190.4920  177.1010  138.8570 C   0  0  0  0  0  0  0  0  0  0  0  0
  188.2530  177.7990  139.7650 C   0  0  0  0  0  2  0  0  0  0  0  0
  190.2330  177.8010  141.2740 C   0  0  2  0  0  3  0  0  0  0  0  0
  191.0850  177.3210  140.1200 C   0  0  0  0  0  0  0  0  0  0  0  0
  193.5480  176.2190  136.7830 C   0  0  0  0  0  1  0  0  0  0  0  0
  192.4720  177.1840  140.2730 C   0  0  0  0  0  3  0  0  0  0  0  0
  188.2590  176.8820  143.4240 N   0  0  0  0  0  2  0  0  0  0  0  0
  187.8590  177.6660  142.2580 C   0  0  0  0  0  2  0  0  0  0  0  0
  190.8650  177.4810  142.6400 C   0  0  0  0  0  2  0  0  0  0  0  0
  193.2710  176.7880  139.1960 C   0  0  0  0  0  3  0  0  0  0  0  0
  187.2750  178.0230  137.2330 C   0  0  0  0  0  0  0  0  0  0  0  0
  185.9320  177.4830  137.4980 C   0  0  0  0  0  0  0  0  0  0  0  0
  186.8010  175.2600  137.1020 C   0  0  0  0  0  0  0  0  0  0  0  0
  188.4600  177.1010  137.3370 C   0  0  2  0  0  3  0  0  0  0  0  0
  187.4380  179.2390  136.9440 O   0  0  0  0  0  0  0  0  0  0  0  0
  188.0720  175.6790  137.0090 C   0  0  0  0  0  3  0  0  0  0  0  0
  185.7470  176.1970  137.4290 N   0  0  0  0  0  0  0  0  0  0  0  0
  184.8780  178.3130  137.7320 F   0  0  0  0  0  0  0  0  0  0  0  0
  186.4450  173.8200  136.8270 C   0  0  1  0  0  3  0  0  0  0  0  0
  187.5200  172.9940  137.1800 O   0  0  0  0  0  1  0  0  0  0  0  0
  185.2140  173.3850  137.6110 C   0  0  0  0  0  1  0  0  0  0  0  0
  1  7  1  0  0  0  0
  1  8  1  0  0  0  0
  2  3  2  0  0  0  0
  2  7  1  0  0  0  0
  3 16  1  0  0  0  0
  4  8  1  6  0  0  0
  4  9  1  0  0  0  0
  4 14  1  0  0  0  0
  6  5  1  0  0  0  0
  7 10  2  0  0  0  0
  9 15  1  1  0  0  0
 10 12  1  0  0  0  0
 10  9  1  0  0  0  0
 11  3  1  0  0  0  0
 13  5  1  0  0  0  0
 14 13  1  0  0  0  0
 15  6  1  0  0  0  0
 16 12  2  0  0  0  0
 17 20  1  0  0  0  0
 17 18  1  0  0  0  0
 18 24  1  0  0  0  0
 19 23  1  0  0  0  0
 20 22  1  1  0  0  0
 20  1  1  0  0  0  0
 21 17  2  0  0  0  0
 22 19  2  0  0  0  0
 23 18  2  0  0  0  0
 25 19  1  0  0  0  0
 25 26  1  0  0  0  0
 25 27  1  1  0  0  0
M  END
>  <MODEL>
3

>  <REMARK>
 VINA RESULT:      -8.4      4.016      7.660
  Name = 
  2 active torsions:
  status: ('A' for Active; 'I' for Inactive)
    1  A    between atoms: N_1  and  C_17
    2  A    between atoms: C_4  and  C_16
                            x       y       z     vdW  Elec       q    Type
                         _______ _______ _______ _____ _____    ______ ____

>  <TORSDO>
F 2

$$$$
=
 OpenBabel11032420373D

 27 30  0  0  1  0  0  0  0  0999 V2000
  186.3700  178.6280  141.0630 N   0  0  0  0  0  0  0  0  0  0  0  0
  185.9810  178.8000  143.5080 C   0  0  0  0  0  3  0  0  0  0  0  0
  185.1290  178.8390  144.6100 C   0  0  0  0  0  0  0  0  0  0  0  0
  184.5160  177.8960  139.6650 C   0  0  1  0  0  3  0  0  0  0  0  0
  181.6410  177.3000  138.1850 C   0  0  0  0  0  2  0  0  0  0  0  0
  181.3820  178.3080  139.3090 C   0  0  0  0  0  2  0  0  0  0  0  0
  185.4670  178.6960  142.2010 C   0  0  0  0  0  0  0  0  0  0  0  0
  185.8010  178.7150  139.7080 C   0  0  0  0  0  2  0  0  0  0  0  0
  183.4930  178.5410  140.6260 C   0  0  2  0  0  3  0  0  0  0  0  0
  184.0690  178.5920  142.0230 C   0  0  0  0  0  0  0  0  0  0  0  0
  185.6800  179.0030  145.9800 C   0  0  0  0  0  1  0  0  0  0  0  0
  183.2190  178.6280  143.1390 C   0  0  0  0  0  3  0  0  0  0  0  0
  182.9740  176.6920  138.2440 N   0  0  0  0  0  2  0  0  0  0  0  0
  183.9970  177.7350  138.2350 C   0  0  0  0  0  2  0  0  0  0  0  0
  182.0930  177.9030  140.5930 C   0  0  0  0  0  2  0  0  0  0  0  0
  183.7450  178.7240  144.4310 C   0  0  0  0  0  3  0  0  0  0  0  0
  188.5620  178.3870  140.0330 C   0  0  0  0  0  0  0  0  0  0  0  0
  189.1300  177.0290  140.0450 C   0  0  0  0  0  0  0  0  0  0  0  0
  188.9940  177.0470  142.4600 C   0  0  0  0  0  0  0  0  0  0  0  0
  187.8110  178.8680  141.2450 C   0  0  2  0  0  3  0  0  0  0  0  0
  188.6810  179.1280  139.0210 O   0  0  0  0  0  0  0  0  0  0  0  0
  188.3300  178.2110  142.5010 C   0  0  0  0  0  3  0  0  0  0  0  0
  189.3170  176.4360  141.1880 N   0  0  0  0  0  0  0  0  0  0  0  0
  189.5300  176.4280  138.8910 F   0  0  0  0  0  0  0  0  0  0  0  0
  189.4500  176.3780  143.7340 C   0  0  1  0  0  3  0  0  0  0  0  0
  190.8410  176.2160  143.7090 O   0  0  0  0  0  1  0  0  0  0  0  0
  189.0730  177.1920  144.9640 C   0  0  0  0  0  1  0  0  0  0  0  0
  1  7  1  0  0  0  0
  2  3  1  0  0  0  0
  3 11  1  0  0  0  0
  4 14  1  6  0  0  0
  4  8  1  0  0  0  0
  4  9  1  0  0  0  0
  5 13  1  0  0  0  0
  5  6  1  0  0  0  0
  6 15  1  0  0  0  0
  7  2  2  0  0  0  0
  8  1  1  0  0  0  0
  9 15  1  1  0  0  0
  9 10  1  0  0  0  0
 10  7  1  0  0  0  0
 10 12  2  0  0  0  0
 12 16  1  0  0  0  0
 14 13  1  0  0  0  0
 16  3  2  0  0  0  0
 17 18  1  0  0  0  0
 17 20  1  0  0  0  0
 18 23  2  0  0  0  0
 19 22  2  0  0  0  0
 19 25  1  0  0  0  0
 20  1  1  6  0  0  0
 20 22  1  0  0  0  0
 21 17  2  0  0  0  0
 23 19  1  0  0  0  0
 24 18  1  0  0  0  0
 25 27  1  1  0  0  0
 26 25  1  0  0  0  0
M  END
>  <MODEL>
4

>  <REMARK>
 VINA RESULT:      -8.3      2.429      4.114
  Name = 
  2 active torsions:
  status: ('A' for Active; 'I' for Inactive)
    1  A    between atoms: N_1  and  C_17
    2  A    between atoms: C_4  and  C_16
                            x       y       z     vdW  Elec       q    Type
                         _______ _______ _______ _____ _____    ______ ____

>  <TORSDO>
F 2

$$$$
=
 OpenBabel11032420373D

 27 30  0  0  1  0  0  0  0  0999 V2000
  188.3710  176.7970  143.7900 N   0  0  0  0  0  0  0  0  0  0  0  0
  186.2920  177.6900  142.7700 C   0  0  0  0  0  3  0  0  0  0  0  0
  185.0650  178.3430  142.8690 C   0  0  0  0  0  0  0  0  0  0  0  0
  188.9220  177.5040  146.0540 C   0  0  1  0  0  3  0  0  0  0  0  0
  189.0020  178.3910  149.2180 C   0  0  0  0  0  2  0  0  0  0  0  0
  187.5550  178.0190  148.8790 C   0  0  0  0  0  2  0  0  0  0  0  0
  187.0800  177.4550  143.9140 C   0  0  0  0  0  0  0  0  0  0  0  0
  189.0750  176.3950  145.0190 C   0  0  0  0  0  2  0  0  0  0  0  0
  187.4260  177.6330  146.4130 C   0  0  2  0  0  3  0  0  0  0  0  0
  186.6250  177.9280  145.1650 C   0  0  0  0  0  0  0  0  0  0  0  0
  184.2180  178.5370  141.6640 C   0  0  0  0  0  1  0  0  0  0  0  0
  185.3910  178.5880  145.2550 C   0  0  0  0  0  3  0  0  0  0  0  0
  189.8640  178.5130  148.0380 N   0  0  0  0  0  2  0  0  0  0  0  0
  189.8270  177.2740  147.2650 C   0  0  0  0  0  2  0  0  0  0  0  0
  187.1240  178.6250  147.5500 C   0  0  0  0  0  2  0  0  0  0  0  0
  184.6230  178.8200  144.1090 C   0  0  0  0  0  3  0  0  0  0  0  0
  190.2700  176.0190  142.4820 C   0  0  0  0  0  0  0  0  0  0  0  0
  191.0940  177.0680  141.8610 C   0  0  0  0  0  0  0  0  0  0  0  0
  189.1290  177.8440  140.6810 C   0  0  0  0  0  0  0  0  0  0  0  0
  188.7760  176.1930  142.5100 C   0  0  2  0  0  3  0  0  0  0  0  0
  190.8020  175.0020  143.0000 O   0  0  0  0  0  0  0  0  0  0  0  0
  188.3030  177.0140  141.3340 C   0  0  0  0  0  3  0  0  0  0  0  0
  190.5330  177.8990  141.0300 N   0  0  0  0  0  0  0  0  0  0  0  0
  192.4350  177.1280  142.0830 F   0  0  0  0  0  0  0  0  0  0  0  0
  188.6200  178.7000  139.5470 C   0  0  1  0  0  3  0  0  0  0  0  0
  189.5090  178.6290  138.4670 O   0  0  0  0  0  1  0  0  0  0  0  0
  187.2420  178.2530  139.0790 C   0  0  0  0  0  1  0  0  0  0  0  0
  1  7  1  0  0  0  0
  1  8  1  0  0  0  0
  2  3  2  0  0  0  0
  2  7  1  0  0  0  0
  3 16  1  0  0  0  0
  4  8  1  6  0  0  0
  4  9  1  0  0  0  0
  4 14  1  0  0  0  0
  6  5  1  0  0  0  0
  7 10  2  0  0  0  0
  9 15  1  1  0  0  0
 10 12  1  0  0  0  0
 10  9  1  0  0  0  0
 11  3  1  0  0  0  0
 13  5  1  0  0  0  0
 14 13  1  0  0  0  0
 15  6  1  0  0  0  0
 16 12  2  0  0  0  0
 17 20  1  0  0  0  0
 17 21  2  0  0  0  0
 18 24  1  0  0  0  0
 18 17  1  0  0  0  0
 19 23  1  0  0  0  0
 19 22  2  0  0  0  0
 20 22  1  6  0  0  0
 20  1  1  0  0  0  0
 23 18  2  0  0  0  0
 25 27  1  6  0  0  0
 25 19  1  0  0  0  0
 26 25  1  0  0  0  0
M  END
>  <MODEL>
5

>  <REMARK>
 VINA RESULT:      -8.2      1.911      4.610
  Name = 
  2 active torsions:
  status: ('A' for Active; 'I' for Inactive)
    1  A    between atoms: N_1  and  C_17
    2  A    between atoms: C_4  and  C_16
                            x       y       z     vdW  Elec       q    Type
                         _______ _______ _______ _____ _____    ______ ____

>  <TORSDO>
F 2

$$$$
=
 OpenBabel11032420373D

 27 30  0  0  1  0  0  0  0  0999 V2000
  189.3770  177.4100  139.7150 N   0  0  0  0  0  0  0  0  0  0  0  0
  187.0560  178.2530  139.4590 C   0  0  0  0  0  3  0  0  0  0  0  0
  185.8400  178.6660  139.9990 C   0  0  0  0  0  0  0  0  0  0  0  0
  190.3830  177.5030  141.9300 C   0  0  1  0  0  3  0  0  0  0  0  0
  191.1270  177.4380  145.1320 C   0  0  0  0  0  2  0  0  0  0  0  0
  189.6740  176.9780  144.9860 C   0  0  0  0  0  2  0  0  0  0  0  0
  188.1030  177.8120  140.2920 C   0  0  0  0  0  0  0  0  0  0  0  0
  190.3750  176.7750  140.5910 C   0  0  0  0  0  2  0  0  0  0  0  0
  189.0050  177.3070  142.6010 C   0  0  2  0  0  3  0  0  0  0  0  0
  187.9170  177.8330  141.6920 C   0  0  0  0  0  0  0  0  0  0  0  0
  184.7240  179.0780  139.1080 C   0  0  0  0  0  1  0  0  0  0  0  0
  186.6910  178.2550  142.2270 C   0  0  0  0  0  3  0  0  0  0  0  0
  191.6800  178.0190  143.9040 N   0  0  0  0  0  2  0  0  0  0  0  0
  191.5590  177.0640  142.8050 C   0  0  0  0  0  2  0  0  0  0  0  0
  188.9010  177.8730  144.0270 C   0  0  0  0  0  2  0  0  0  0  0  0
  185.6630  178.6960  141.3870 C   0  0  0  0  0  3  0  0  0  0  0  0
  188.9040  175.9660  137.8140 C   0  0  0  0  0  0  0  0  0  0  0  0
  189.7710  174.7850  137.6740 C   0  0  0  0  0  0  0  0  0  0  0  0
  191.6810  176.2650  137.5430 C   0  0  0  0  0  0  0  0  0  0  0  0
  189.5170  177.2670  138.2570 C   0  0  2  0  0  3  0  0  0  0  0  0
  187.6670  175.8900  137.5890 O   0  0  0  0  0  0  0  0  0  0  0  0
  190.9610  177.3610  137.8260 C   0  0  0  0  0  3  0  0  0  0  0  0
  191.0550  174.9590  137.5510 N   0  0  0  0  0  0  0  0  0  0  0  0
  189.2420  173.5340  137.5930 F   0  0  0  0  0  0  0  0  0  0  0  0
  193.1400  176.3780  137.1730 C   0  0  1  0  0  3  0  0  0  0  0  0
  193.9310  176.2060  138.3160 O   0  0  0  0  0  1  0  0  0  0  0  0
  193.5400  175.3360  136.1370 C   0  0  0  0  0  1  0  0  0  0  0  0
  1  7  1  0  0  0  0
  1  8  1  0  0  0  0
  2  3  2  0  0  0  0
  2  7  1  0  0  0  0
  3 16  1  0  0  0  0
  4  8  1  6  0  0  0
  4  9  1  0  0  0  0
  4 14  1  0  0  0  0
  6  5  1  0  0  0  0
  7 10  2  0  0  0  0
  9 15  1  1  0  0  0
 10 12  1  0  0  0  0
 10  9  1  0  0  0  0
 11  3  1  0  0  0  0
 13  5  1  0  0  0  0
 14 13  1  0  0  0  0
 15  6  1  0  0  0  0
 16 12  2  0  0  0  0
 17 20  1  0  0  0  0
 18 17  1  0  0  0  0
 19 23  1  0  0  0  0
 19 22  2  0  0  0  0
 20 22  1  1  0  0  0
 20  1  1  0  0  0  0
 21 17  2  0  0  0  0
 23 18  2  0  0  0  0
 24 18  1  0  0  0  0
 25 27  1  6  0  0  0
 25 19  1  0  0  0  0
 25 26  1  0  0  0  0
M  END
>  <MODEL>
6

>  <REMARK>
 VINA RESULT:      -8.1      3.712      6.469
  Name = 
  2 active torsions:
  status: ('A' for Active; 'I' for Inactive)
    1  A    between atoms: N_1  and  C_17
    2  A    between atoms: C_4  and  C_16
                            x       y       z     vdW  Elec       q    Type
                         _______ _______ _______ _____ _____    ______ ____

>  <TORSDO>
F 2

$$$$
=
 OpenBabel11032420373D

 27 30  0  0  1  0  0  0  0  0999 V2000
  186.2420  178.2500  139.4160 N   0  0  0  0  0  0  0  0  0  0  0  0
  187.8420  177.8350  137.5650 C   0  0  0  0  0  3  0  0  0  0  0  0
  189.1330  177.5980  137.0940 C   0  0  0  0  0  0  0  0  0  0  0  0
  187.0030  177.8330  141.6910 C   0  0  1  0  0  3  0  0  0  0  0  0
  188.6070  177.5470  144.5470 C   0  0  0  0  0  2  0  0  0  0  0  0
  189.5400  178.2570  143.5610 C   0  0  0  0  0  2  0  0  0  0  0  0
  187.5990  178.0320  138.9380 C   0  0  0  0  0  0  0  0  0  0  0  0
  186.0480  178.6430  140.8210 C   0  0  0  0  0  2  0  0  0  0  0  0
  188.4510  178.2140  141.3130 C   0  0  2  0  0  3  0  0  0  0  0  0
  188.6800  177.9460  139.8420 C   0  0  0  0  0  0  0  0  0  0  0  0
  189.3850  177.4460  135.6380 C   0  0  0  0  0  1  0  0  0  0  0  0
  189.9750  177.7030  139.3610 C   0  0  0  0  0  3  0  0  0  0  0  0
  187.4200  176.9670  143.9100 N   0  0  0  0  0  2  0  0  0  0  0  0
  186.6920  178.0030  143.1790 C   0  0  0  0  0  2  0  0  0  0  0  0
  189.5330  177.5750  142.2000 C   0  0  0  0  0  2  0  0  0  0  0  0
  190.2000  177.5030  137.9950 C   0  0  0  0  0  3  0  0  0  0  0  0
  184.0800  179.3180  139.0960 C   0  0  0  0  0  0  0  0  0  0  0  0
  182.9350  178.6540  139.7400 C   0  0  0  0  0  0  0  0  0  0  0  0
  183.4320  176.6640  138.4580 C   0  0  0  0  0  0  0  0  0  0  0  0
  185.1450  178.4680  138.4590 C   0  0  2  0  0  3  0  0  0  0  0  0
  184.1800  180.5740  139.0940 O   0  0  0  0  0  0  0  0  0  0  0  0
  184.5740  177.1620  137.9620 C   0  0  0  0  0  3  0  0  0  0  0  0
  182.6620  177.4220  139.4210 N   0  0  0  0  0  0  0  0  0  0  0  0
  182.1220  179.3340  140.5940 F   0  0  0  0  0  0  0  0  0  0  0  0
  182.9100  175.3270  137.9890 C   0  0  1  0  0  3  0  0  0  0  0  0
  182.0680  175.5100  136.8850 O   0  0  0  0  0  1  0  0  0  0  0  0
  184.0420  174.3880  137.5930 C   0  0  0  0  0  1  0  0  0  0  0  0
  1  8  1  0  0  0  0
  2  7  1  0  0  0  0
  3  2  2  0  0  0  0
  3 16  1  0  0  0  0
  4  8  1  6  0  0  0
  4 14  1  0  0  0  0
  6  5  1  0  0  0  0
  7  1  1  0  0  0  0
  7 10  2  0  0  0  0
  9  4  1  0  0  0  0
  9 15  1  1  0  0  0
 10  9  1  0  0  0  0
 11  3  1  0  0  0  0
 12 10  1  0  0  0  0
 13  5  1  0  0  0  0
 14 13  1  0  0  0  0
 15  6  1  0  0  0  0
 16 12  2  0  0  0  0
 17 18  1  0  0  0  0
 18 24  1  0  0  0  0
 19 23  1  0  0  0  0
 20 22  1  1  0  0  0
 20 17  1  0  0  0  0
 20  1  1  0  0  0  0
 21 17  2  0  0  0  0
 22 19  2  0  0  0  0
 23 18  2  0  0  0  0
 25 27  1  6  0  0  0
 25 19  1  0  0  0  0
 26 25  1  0  0  0  0
M  END
>  <MODEL>
7

>  <REMARK>
 VINA RESULT:      -7.9      3.915      7.684
  Name = 
  2 active torsions:
  status: ('A' for Active; 'I' for Inactive)
    1  A    between atoms: N_1  and  C_17
    2  A    between atoms: C_4  and  C_16
                            x       y       z     vdW  Elec       q    Type
                         _______ _______ _______ _____ _____    ______ ____

>  <TORSDO>
F 2

$$$$
=
 OpenBabel11032420373D

 27 30  0  0  1  0  0  0  0  0999 V2000
  186.5470  178.4450  140.1290 N   0  0  0  0  0  0  0  0  0  0  0  0
  185.7130  178.7840  142.4420 C   0  0  0  0  0  3  0  0  0  0  0  0
  184.6730  178.8670  143.3670 C   0  0  0  0  0  0  0  0  0  0  0  0
  185.0040  177.5190  138.4890 C   0  0  1  0  0  3  0  0  0  0  0  0
  182.4690  176.6730  136.5740 C   0  0  0  0  0  2  0  0  0  0  0  0
  181.9750  177.7500  137.5450 C   0  0  0  0  0  2  0  0  0  0  0  0
  185.4490  178.5560  141.0780 C   0  0  0  0  0  0  0  0  0  0  0  0
  186.2310  178.4010  138.6920 C   0  0  0  0  0  2  0  0  0  0  0  0
  183.8020  178.1850  139.1940 C   0  0  2  0  0  3  0  0  0  0  0  0
  184.1120  178.3700  140.6620 C   0  0  0  0  0  0  0  0  0  0  0  0
  184.9600  179.1610  144.7940 C   0  0  0  0  0  1  0  0  0  0  0  0
  183.0720  178.4510  141.6010 C   0  0  0  0  0  3  0  0  0  0  0  0
  183.7890  176.1360  136.9210 N   0  0  0  0  0  2  0  0  0  0  0  0
  184.7600  177.2240  137.0080 C   0  0  0  0  0  2  0  0  0  0  0  0
  182.4540  177.4790  138.9650 C   0  0  0  0  0  2  0  0  0  0  0  0
  183.3500  178.6710  142.9530 C   0  0  0  0  0  3  0  0  0  0  0  0
  188.8700  178.5040  139.4080 C   0  0  0  0  0  0  0  0  0  0  0  0
  189.5550  177.2020  139.3450 C   0  0  0  0  0  0  0  0  0  0  0  0
  189.0930  176.9010  141.7010 C   0  0  0  0  0  0  0  0  0  0  0  0
  187.9210  178.7680  140.5450 C   0  0  2  0  0  3  0  0  0  0  0  0
  189.0550  179.3750  138.5170 O   0  0  0  0  0  0  0  0  0  0  0  0
  188.3240  177.9970  141.7790 C   0  0  0  0  0  3  0  0  0  0  0  0
  189.6400  176.4840  140.4270 N   0  0  0  0  0  0  0  0  0  0  0  0
  190.1610  176.7850  138.2000 F   0  0  0  0  0  0  0  0  0  0  0  0
  189.4330  176.1110  142.9410 C   0  0  1  0  0  3  0  0  0  0  0  0
  190.8250  176.0290  143.0800 O   0  0  0  0  0  1  0  0  0  0  0  0
  188.8520  176.7530  144.1940 C   0  0  0  0  0  1  0  0  0  0  0  0
  1  7  1  0  0  0  0
  2  3  1  0  0  0  0
  3 11  1  0  0  0  0
  4 14  1  6  0  0  0
  4  8  1  0  0  0  0
  4  9  1  0  0  0  0
  5 13  1  0  0  0  0
  5  6  1  0  0  0  0
  6 15  1  0  0  0  0
  7  2  2  0  0  0  0
  8  1  1  0  0  0  0
  9 15  1  1  0  0  0
  9 10  1  0  0  0  0
 10  7  1  0  0  0  0
 10 12  2  0  0  0  0
 12 16  1  0  0  0  0
 13 14  1  0  0  0  0
 16  3  2  0  0  0  0
 17 20  1  0  0  0  0
 18 17  1  0  0  0  0
 18 23  2  0  0  0  0
 19 22  2  0  0  0  0
 19 25  1  0  0  0  0
 20  1  1  6  0  0  0
 20 22  1  0  0  0  0
 21 17  2  0  0  0  0
 23 19  1  0  0  0  0
 24 18  1  0  0  0  0
 25 26  1  0  0  0  0
 25 27  1  1  0  0  0
M  END
>  <MODEL>
8

>  <REMARK>
 VINA RESULT:      -7.9      3.046      4.889
  Name = 
  2 active torsions:
  status: ('A' for Active; 'I' for Inactive)
    1  A    between atoms: N_1  and  C_17
    2  A    between atoms: C_4  and  C_16
                            x       y       z     vdW  Elec       q    Type
                         _______ _______ _______ _____ _____    ______ ____

>  <TORSDO>
F 2

$$$$
=
 OpenBabel11032420373D

 27 30  0  0  1  0  0  0  0  0999 V2000
  187.4980  178.5210  142.7070 N   0  0  0  0  0  0  0  0  0  0  0  0
  187.8640  178.0700  145.1200 C   0  0  0  0  0  3  0  0  0  0  0  0
  187.3840  177.8780  146.4140 C   0  0  0  0  0  0  0  0  0  0  0  0
  185.2300  178.3180  141.8430 C   0  0  1  0  0  3  0  0  0  0  0  0
  181.9950  178.3400  141.2600 C   0  0  0  0  0  2  0  0  0  0  0  0
  182.2270  179.0310  142.6070 C   0  0  0  0  0  2  0  0  0  0  0  0
  186.9840  178.3510  144.0570 C   0  0  0  0  0  0  0  0  0  0  0  0
  186.5800  179.0030  141.6620 C   0  0  0  0  0  2  0  0  0  0  0  0
  184.6380  178.7580  143.2000 C   0  0  2  0  0  3  0  0  0  0  0  0
  185.5960  178.3970  144.3140 C   0  0  0  0  0  0  0  0  0  0  0  0
  188.3260  177.6350  147.5370 C   0  0  0  0  0  1  0  0  0  0  0  0
  185.1200  178.1990  145.6190 C   0  0  0  0  0  3  0  0  0  0  0  0
  183.1820  177.6440  140.7510 N   0  0  0  0  0  2  0  0  0  0  0  0
  184.3020  178.5770  140.6560 C   0  0  0  0  0  2  0  0  0  0  0  0
  183.2100  178.2530  143.4690 C   0  0  0  0  0  2  0  0  0  0  0  0
  186.0060  177.9130  146.6630 C   0  0  0  0  0  3  0  0  0  0  0  0
  189.2720  178.0490  141.1100 C   0  0  0  0  0  0  0  0  0  0  0  0
  189.6730  176.6370  140.9960 C   0  0  0  0  0  0  0  0  0  0  0  0
  190.2250  176.6550  143.3510 C   0  0  0  0  0  0  0  0  0  0  0  0
  188.9490  178.6020  142.4720 C   0  0  2  0  0  3  0  0  0  0  0  0
  189.1790  178.7790  140.0880 O   0  0  0  0  0  0  0  0  0  0  0  0
  189.7270  177.8840  143.5480 C   0  0  0  0  0  3  0  0  0  0  0  0
  190.1100  176.0200  142.0550 N   0  0  0  0  0  0  0  0  0  0  0  0
  189.6660  176.0030  139.7920 F   0  0  0  0  0  0  0  0  0  0  0  0
  190.9480  175.9320  144.4620 C   0  0  1  0  0  3  0  0  0  0  0  0
  192.0560  175.2530  143.9390 O   0  0  0  0  0  1  0  0  0  0  0  0
  191.4260  176.8940  145.5410 C   0  0  0  0  0  1  0  0  0  0  0  0
  1  7  1  0  0  0  0
  2  3  1  0  0  0  0
  3 16  2  0  0  0  0
  3 11  1  0  0  0  0
  4 14  1  6  0  0  0
  4  9  1  0  0  0  0
  5  6  1  0  0  0  0
  6 15  1  0  0  0  0
  7 10  1  0  0  0  0
  7  2  2  0  0  0  0
  8  4  1  0  0  0  0
  8  1  1  0  0  0  0
  9 15  1  1  0  0  0
  9 10  1  0  0  0  0
 10 12  2  0  0  0  0
 12 16  1  0  0  0  0
 13  5  1  0  0  0  0
 14 13  1  0  0  0  0
 17 20  1  0  0  0  0
 18 17  1  0  0  0  0
 18 23  2  0  0  0  0
 19 22  2  0  0  0  0
 19 25  1  0  0  0  0
 20  1  1  1  0  0  0
 20 22  1  0  0  0  0
 21 17  2  0  0  0  0
 23 19  1  0  0  0  0
 24 18  1  0  0  0  0
 25 27  1  1  0  0  0
 26 25  1  0  0  0  0
M  END
>  <MODEL>
9

>  <REMARK>
 VINA RESULT:      -7.9      1.866      2.828
  Name = 
  2 active torsions:
  status: ('A' for Active; 'I' for Inactive)
    1  A    between atoms: N_1  and  C_17
    2  A    between atoms: C_4  and  C_16
                            x       y       z     vdW  Elec       q    Type
                         _______ _______ _______ _____ _____    ______ ____

>  <TORSDO>
F 2

$$$$
