=
 OpenBabel11032419163D

 30 32  0  0  1  0  0  0  0  0999 V2000
  188.1790  178.2970  147.3600 O   0  0  0  0  0  1  0  0  0  0  0  0
  187.5040  177.3740  145.2350 C   0  0  0  0  0  0  0  0  0  0  0  0
  186.2420  178.0340  145.3120 N   0  0  0  0  0  0  0  0  0  0  0  0
  187.7650  176.6590  144.2310 O   0  0  0  0  0  0  0  0  0  0  0  0
  184.8690  178.3690  144.7610 C   0  0  1  0  0  0  0  0  0  0  0  0
  184.6230  179.7600  144.1500 C   0  0  0  0  0  2  0  0  0  0  0  0
  185.2730  178.7440  143.3240 C   0  0  2  0  0  3  0  0  0  0  0  0
  188.4610  177.5180  146.2890 N   0  0  0  0  0  0  0  0  0  0  0  0
  185.2660  178.8880  145.9860 C   0  0  0  0  0  2  0  0  0  0  0  0
  184.2270  178.5700  141.0350 C   0  0  0  0  0  0  0  0  0  0  0  0
  184.3140  178.1590  142.4000 N   0  0  0  0  0  2  0  0  0  0  0  0
  184.6340  179.6780  139.1660 N   0  0  0  0  0  2  0  0  0  0  0  0
  183.6650  178.6960  138.8100 C   0  0  0  0  0  0  0  0  0  0  0  0
  184.9440  179.5190  140.5250 N   0  0  0  0  0  0  0  0  0  0  0  0
  182.8010  178.9270  137.8790 N   0  0  0  0  0  2  0  0  0  0  0  0
  182.6750  176.8690  140.2240 N   0  0  0  0  0  0  0  0  0  0  0  0
  183.3670  177.9560  140.0370 C   0  0  0  0  0  0  0  0  0  0  0  0
  181.9180  176.1070  139.2700 C   0  0  0  0  0  0  0  0  0  0  0  0
  182.4770  175.2920  138.4850 O   0  0  0  0  0  0  0  0  0  0  0  0
  180.4520  176.2610  139.2230 C   0  0  0  0  0  0  0  0  0  0  0  0
  179.9180  176.9650  138.3260 O   0  0  0  0  0  0  0  0  0  0  0  0
  180.0860  174.2790  140.4270 F   0  0  0  0  0  0  0  0  0  0  0  0
  179.5800  175.5460  140.2000 C   0  0  0  0  0  2  0  0  0  0  0  0
  189.7140  176.7720  146.2650 C   0  0  0  0  0  2  0  0  0  0  0  0
  190.7910  177.5670  145.5470 C   0  0  0  0  0  2  0  0  0  0  0  0
  191.5680  176.6850  144.6950 N   0  0  0  0  0  2  0  0  0  0  0  0
  190.2450  175.6470  142.4360 O   0  0  0  0  0  1  0  0  0  0  0  0
  192.3130  177.2350  142.1850 O   0  0  0  0  0  0  0  0  0  0  0  0
  191.0890  176.9840  143.0370 P   0  0  0  0  0  0  0  0  0  0  0  0
  190.0910  178.3460  142.9890 O   0  0  0  0  0  1  0  0  0  0  0  0
  2  3  1  0  0  0  0
  2  8  1  0  0  0  0
  3  9  1  0  0  0  0
  4  2  2  0  0  0  0
  5  6  1  6  0  0  0
  5  3  1  0  0  0  0
  5  9  1  0  0  0  0
  7 11  1  6  0  0  0
  7  6  1  0  0  0  0
  7  5  1  0  0  0  0
  8  1  1  0  0  0  0
 10 11  1  0  0  0  0
 12 14  1  0  0  0  0
 13 12  1  0  0  0  0
 13 17  1  0  0  0  0
 14 10  2  0  0  0  0
 15 13  2  0  0  0  0
 17 16  2  0  0  0  0
 17 10  1  0  0  0  0
 18 16  1  0  0  0  0
 19 18  2  0  0  0  0
 20 18  1  0  0  0  0
 20 23  1  0  0  0  0
 21 20  2  0  0  0  0
 23 22  1  0  0  0  0
 24  8  1  0  0  0  0
 25 24  1  0  0  0  0
 26 25  1  0  0  0  0
 27 29  1  0  0  0  0
 28 29  2  0  0  0  0
 29 26  1  0  0  0  0
 30 29  1  0  0  0  0
M  END
>  <MODEL>
1

>  <REMARK>
 VINA RESULT:      -7.2      0.000      0.000
  Name = 
  8 active torsions:
  status: ('A' for Active; 'I' for Inactive)
    1  A    between atoms: C_2  and  C_13
    2  A    between atoms: C_2  and  N_29
    3  A    between atoms: C_3  and  C_12
    4  A    between atoms: C_3  and  N_19
    5  A    between atoms: N_4  and  C_25
    6  A    between atoms: N_8  and  C_13
    7  A    between atoms: N_8  and  P_24
    8  A    between atoms: C_12  and  C_27
                            x       y       z     vdW  Elec       q    Type
                         _______ _______ _______ _____ _____    ______ ____

>  <TORSDO>
F 8

$$$$
=
 OpenBabel11032419163D

 30 32  0  0  1  0  0  0  0  0999 V2000
  189.7670  177.6580  145.2110 O   0  0  0  0  0  1  0  0  0  0  0  0
  188.2520  178.1100  143.3880 C   0  0  0  0  0  0  0  0  0  0  0  0
  187.1210  177.8750  144.2260 N   0  0  0  0  0  0  0  0  0  0  0  0
  188.0700  178.4240  142.1810 O   0  0  0  0  0  0  0  0  0  0  0  0
  185.6270  177.7820  144.4630 C   0  0  1  0  0  0  0  0  0  0  0  0
  184.9160  178.9100  145.2330 C   0  0  0  0  0  2  0  0  0  0  0  0
  185.1980  179.1100  143.8130 C   0  0  2  0  0  3  0  0  0  0  0  0
  189.5780  177.9860  143.9110 N   0  0  0  0  0  0  0  0  0  0  0  0
  186.5090  177.5180  145.5030 C   0  0  0  0  0  2  0  0  0  0  0  0
  183.9770  179.0400  141.6070 C   0  0  0  0  0  0  0  0  0  0  0  0
  183.9970  178.8800  143.0260 N   0  0  0  0  0  2  0  0  0  0  0  0
  184.6610  179.4920  139.5540 N   0  0  0  0  0  2  0  0  0  0  0  0
  183.3250  179.0200  139.4030 C   0  0  0  0  0  0  0  0  0  0  0  0
  184.9930  179.4480  140.9170 N   0  0  0  0  0  0  0  0  0  0  0  0
  182.5740  179.4560  138.4480 N   0  0  0  0  0  2  0  0  0  0  0  0
  181.7570  178.1300  141.1530 N   0  0  0  0  0  0  0  0  0  0  0  0
  182.8430  178.7260  140.7530 C   0  0  0  0  0  0  0  0  0  0  0  0
  180.6520  177.6480  140.3710 C   0  0  0  0  0  0  0  0  0  0  0  0
  179.7070  178.4100  140.0280 O   0  0  0  0  0  0  0  0  0  0  0  0
  180.6340  176.2380  139.9380 C   0  0  0  0  0  0  0  0  0  0  0  0
  181.6640  175.7170  139.4350 O   0  0  0  0  0  0  0  0  0  0  0  0
  179.4210  174.8760  141.4160 F   0  0  0  0  0  0  0  0  0  0  0  0
  179.4170  175.3970  140.1350 C   0  0  0  0  0  2  0  0  0  0  0  0
  190.7390  178.1290  143.0400 C   0  0  0  0  0  2  0  0  0  0  0  0
  191.2350  176.7660  142.5890 C   0  0  0  0  0  2  0  0  0  0  0  0
  190.3460  176.2290  141.5750 N   0  0  0  0  0  2  0  0  0  0  0  0
  189.8760  178.1060  139.5290 O   0  0  0  0  0  1  0  0  0  0  0  0
  190.8330  175.7280  138.9920 O   0  0  0  0  0  0  0  0  0  0  0  0
  190.8790  176.8360  140.0200 P   0  0  0  0  0  0  0  0  0  0  0  0
  192.4670  177.3970  140.1630 O   0  0  0  0  0  1  0  0  0  0  0  0
  2  8  1  0  0  0  0
  2  3  1  0  0  0  0
  3  5  1  0  0  0  0
  3  9  1  0  0  0  0
  4  2  2  0  0  0  0
  5  6  1  1  0  0  0
  5  9  1  0  0  0  0
  7 11  1  6  0  0  0
  7  5  1  0  0  0  0
  7  6  1  0  0  0  0
  8  1  1  0  0  0  0
 10 11  1  0  0  0  0
 12 14  1  0  0  0  0
 13 12  1  0  0  0  0
 13 17  1  0  0  0  0
 14 10  2  0  0  0  0
 15 13  2  0  0  0  0
 17 16  2  0  0  0  0
 17 10  1  0  0  0  0
 18 16  1  0  0  0  0
 19 18  2  0  0  0  0
 20 23  1  0  0  0  0
 20 18  1  0  0  0  0
 21 20  2  0  0  0  0
 23 22  1  0  0  0  0
 24  8  1  0  0  0  0
 25 24  1  0  0  0  0
 26 25  1  0  0  0  0
 27 29  1  0  0  0  0
 28 29  2  0  0  0  0
 29 30  1  0  0  0  0
 29 26  1  0  0  0  0
M  END
>  <MODEL>
2

>  <REMARK>
 VINA RESULT:      -6.8      1.928      2.338
  Name = 
  8 active torsions:
  status: ('A' for Active; 'I' for Inactive)
    1  A    between atoms: C_2  and  C_13
    2  A    between atoms: C_2  and  N_29
    3  A    between atoms: C_3  and  C_12
    4  A    between atoms: C_3  and  N_19
    5  A    between atoms: N_4  and  C_25
    6  A    between atoms: N_8  and  C_13
    7  A    between atoms: N_8  and  P_24
    8  A    between atoms: C_12  and  C_27
                            x       y       z     vdW  Elec       q    Type
                         _______ _______ _______ _____ _____    ______ ____

>  <TORSDO>
F 8

$$$$
=
 OpenBabel11032419163D

 30 32  0  0  1  0  0  0  0  0999 V2000
  188.7910  178.3020  147.5610 O   0  0  0  0  0  1  0  0  0  0  0  0
  188.2390  177.4520  145.3720 C   0  0  0  0  0  0  0  0  0  0  0  0
  189.6120  177.4670  144.9840 N   0  0  0  0  0  0  0  0  0  0  0  0
  187.3710  177.0540  144.5500 O   0  0  0  0  0  0  0  0  0  0  0  0
  190.7210  177.2370  143.9760 C   0  0  1  0  0  0  0  0  0  0  0  0
  191.6410  176.0140  144.1360 C   0  0  0  0  0  2  0  0  0  0  0  0
  190.3340  175.8220  143.5120 C   0  0  2  0  0  3  0  0  0  0  0  0
  187.8520  177.8870  146.6790 N   0  0  0  0  0  0  0  0  0  0  0  0
  191.0260  177.7330  145.2370 C   0  0  0  0  0  2  0  0  0  0  0  0
  189.8490  176.6890  141.1930 C   0  0  0  0  0  0  0  0  0  0  0  0
  190.4750  175.7480  142.0660 N   0  0  0  0  0  2  0  0  0  0  0  0
  188.6240  178.3990  140.5100 N   0  0  0  0  0  2  0  0  0  0  0  0
  189.2260  177.8790  139.3280 C   0  0  0  0  0  0  0  0  0  0  0  0
  189.0730  177.6410  141.6030 N   0  0  0  0  0  0  0  0  0  0  0  0
  188.6200  177.9520  138.1910 N   0  0  0  0  0  2  0  0  0  0  0  0
  190.8970  176.0160  139.0930 N   0  0  0  0  0  0  0  0  0  0  0  0
  190.0330  176.7340  139.7530 C   0  0  0  0  0  0  0  0  0  0  0  0
  191.2570  176.0880  137.7040 C   0  0  0  0  0  0  0  0  0  0  0  0
  192.2070  176.8170  137.3080 O   0  0  0  0  0  0  0  0  0  0  0  0
  190.5170  175.2730  136.7230 C   0  0  0  0  0  0  0  0  0  0  0  0
  189.8490  175.8300  135.8130 O   0  0  0  0  0  0  0  0  0  0  0  0
  189.4900  173.2860  137.4370 F   0  0  0  0  0  0  0  0  0  0  0  0
  190.5900  173.7830  136.7620 C   0  0  0  0  0  2  0  0  0  0  0  0
  186.4440  177.9670  147.0510 C   0  0  0  0  0  2  0  0  0  0  0  0
  185.7480  179.0620  146.2610 C   0  0  0  0  0  2  0  0  0  0  0  0
  184.3690  178.6850  146.0080 N   0  0  0  0  0  2  0  0  0  0  0  0
  184.7050  177.9110  143.3210 O   0  0  0  0  0  0  0  0  0  0  0  0
  184.5510  180.4370  143.9950 O   0  0  0  0  0  1  0  0  0  0  0  0
  184.0070  179.0690  144.3370 P   0  0  0  0  0  0  0  0  0  0  0  0
  182.3310  179.0670  144.1230 O   0  0  0  0  0  1  0  0  0  0  0  0
  2  8  1  0  0  0  0
  3  9  1  0  0  0  0
  3  2  1  0  0  0  0
  4  2  2  0  0  0  0
  5  6  1  1  0  0  0
  5  3  1  0  0  0  0
  5  9  1  0  0  0  0
  7 11  1  6  0  0  0
  7  5  1  0  0  0  0
  7  6  1  0  0  0  0
  8 24  1  0  0  0  0
  8  1  1  0  0  0  0
 10 14  2  0  0  0  0
 10 11  1  0  0  0  0
 12 14  1  0  0  0  0
 13 17  1  0  0  0  0
 13 12  1  0  0  0  0
 15 13  2  0  0  0  0
 16 17  2  0  0  0  0
 17 10  1  0  0  0  0
 18 16  1  0  0  0  0
 19 18  2  0  0  0  0
 20 23  1  0  0  0  0
 20 18  1  0  0  0  0
 21 20  2  0  0  0  0
 23 22  1  0  0  0  0
 25 24  1  0  0  0  0
 26 25  1  0  0  0  0
 27 29  2  0  0  0  0
 28 29  1  0  0  0  0
 29 26  1  0  0  0  0
 30 29  1  0  0  0  0
M  END
>  <MODEL>
3

>  <REMARK>
 VINA RESULT:      -6.8      5.020      6.951
  Name = 
  8 active torsions:
  status: ('A' for Active; 'I' for Inactive)
    1  A    between atoms: C_2  and  C_13
    2  A    between atoms: C_2  and  N_29
    3  A    between atoms: C_3  and  C_12
    4  A    between atoms: C_3  and  N_19
    5  A    between atoms: N_4  and  C_25
    6  A    between atoms: N_8  and  C_13
    7  A    between atoms: N_8  and  P_24
    8  A    between atoms: C_12  and  C_27
                            x       y       z     vdW  Elec       q    Type
                         _______ _______ _______ _____ _____    ______ ____

>  <TORSDO>
F 8

$$$$
=
 OpenBabel11032419163D

 30 32  0  0  1  0  0  0  0  0999 V2000
  190.9430  176.6050  142.3990 O   0  0  0  0  0  1  0  0  0  0  0  0
  188.9730  177.4750  141.3110 C   0  0  0  0  0  0  0  0  0  0  0  0
  188.1620  177.1330  142.4340 N   0  0  0  0  0  0  0  0  0  0  0  0
  188.4410  178.0280  140.3120 O   0  0  0  0  0  0  0  0  0  0  0  0
  186.8280  177.0650  143.1510 C   0  0  1  0  0  0  0  0  0  0  0  0
  186.5390  178.0520  144.2960 C   0  0  0  0  0  2  0  0  0  0  0  0
  186.3580  178.5130  142.9210 C   0  0  2  0  0  3  0  0  0  0  0  0
  190.3750  177.1890  141.3180 N   0  0  0  0  0  0  0  0  0  0  0  0
  187.9670  176.5620  143.7640 C   0  0  0  0  0  2  0  0  0  0  0  0
  184.4790  178.9510  141.2970 C   0  0  0  0  0  0  0  0  0  0  0  0
  184.9480  178.4980  142.5670 N   0  0  0  0  0  2  0  0  0  0  0  0
  184.4930  179.7960  139.2540 N   0  0  0  0  0  2  0  0  0  0  0  0
  183.1400  179.4160  139.4880 C   0  0  0  0  0  0  0  0  0  0  0  0
  185.2480  179.4550  140.3870 N   0  0  0  0  0  0  0  0  0  0  0  0
  182.1670  180.0700  138.9470 N   0  0  0  0  0  2  0  0  0  0  0  0
  182.1490  178.2400  141.4760 N   0  0  0  0  0  0  0  0  0  0  0  0
  183.1010  178.8660  140.8430 C   0  0  0  0  0  0  0  0  0  0  0  0
  180.8040  177.9740  141.0480 C   0  0  0  0  0  0  0  0  0  0  0  0
  180.5630  177.2220  140.0640 O   0  0  0  0  0  0  0  0  0  0  0  0
  179.6780  178.5730  141.7890 C   0  0  0  0  0  0  0  0  0  0  0  0
  179.2660  178.0390  142.8530 O   0  0  0  0  0  0  0  0  0  0  0  0
  180.0120  180.8260  141.2220 F   0  0  0  0  0  0  0  0  0  0  0  0
  179.0470  179.8410  141.3210 C   0  0  0  0  0  2  0  0  0  0  0  0
  191.1940  177.4460  140.1390 C   0  0  0  0  0  2  0  0  0  0  0  0
  191.0380  176.3210  139.1300 C   0  0  0  0  0  2  0  0  0  0  0  0
  191.3120  176.8190  137.7930 N   0  0  0  0  0  2  0  0  0  0  0  0
  189.2810  178.6640  137.1600 O   0  0  0  0  0  1  0  0  0  0  0  0
  188.7340  176.1370  137.5810 O   0  0  0  0  0  1  0  0  0  0  0  0
  189.7760  177.0560  136.9850 P   0  0  0  0  0  0  0  0  0  0  0  0
  189.9570  176.7000  135.3430 O   0  0  0  0  0  0  0  0  0  0  0  0
  2  8  1  0  0  0  0
  2  3  1  0  0  0  0
  3  5  1  0  0  0  0
  3  9  1  0  0  0  0
  4  2  2  0  0  0  0
  5  9  1  6  0  0  0
  5  6  1  0  0  0  0
  7 11  1  1  0  0  0
  7  5  1  0  0  0  0
  7  6  1  0  0  0  0
  8  1  1  0  0  0  0
 10 11  1  0  0  0  0
 12 13  1  0  0  0  0
 12 14  1  0  0  0  0
 13 17  1  0  0  0  0
 14 10  2  0  0  0  0
 15 13  2  0  0  0  0
 17 10  1  0  0  0  0
 17 16  2  0  0  0  0
 18 16  1  0  0  0  0
 18 20  1  0  0  0  0
 19 18  2  0  0  0  0
 20 21  2  0  0  0  0
 22 23  1  0  0  0  0
 23 20  1  0  0  0  0
 24  8  1  0  0  0  0
 25 24  1  0  0  0  0
 26 25  1  0  0  0  0
 29 27  1  0  0  0  0
 29 28  1  0  0  0  0
 29 26  1  0  0  0  0
 30 29  2  0  0  0  0
M  END
>  <MODEL>
4

>  <REMARK>
 VINA RESULT:      -6.7      3.889      4.378
  Name = 
  8 active torsions:
  status: ('A' for Active; 'I' for Inactive)
    1  A    between atoms: C_2  and  C_13
    2  A    between atoms: C_2  and  N_29
    3  A    between atoms: C_3  and  C_12
    4  A    between atoms: C_3  and  N_19
    5  A    between atoms: N_4  and  C_25
    6  A    between atoms: N_8  and  C_13
    7  A    between atoms: N_8  and  P_24
    8  A    between atoms: C_12  and  C_27
                            x       y       z     vdW  Elec       q    Type
                         _______ _______ _______ _____ _____    ______ ____

>  <TORSDO>
F 8

$$$$
=
 OpenBabel11032419163D

 30 32  0  0  1  0  0  0  0  0999 V2000
  190.8770  177.5020  147.4730 O   0  0  0  0  0  1  0  0  0  0  0  0
  189.4700  177.1230  145.5500 C   0  0  0  0  0  0  0  0  0  0  0  0
  190.4990  177.5700  144.6680 N   0  0  0  0  0  0  0  0  0  0  0  0
  188.3680  176.7460  145.0700 O   0  0  0  0  0  0  0  0  0  0  0  0
  191.0350  177.8810  143.2850 C   0  0  1  0  0  0  0  0  0  0  0  0
  192.0490  176.9200  142.6380 C   0  0  0  0  0  2  0  0  0  0  0  0
  190.6290  176.5780  142.5720 C   0  0  2  0  0  3  0  0  0  0  0  0
  189.6870  177.1060  146.9650 N   0  0  0  0  0  0  0  0  0  0  0  0
  191.8330  178.1010  144.4000 C   0  0  0  0  0  2  0  0  0  0  0  0
  188.8310  177.5560  141.0980 C   0  0  0  0  0  0  0  0  0  0  0  0
  190.0930  176.9080  141.2610 N   0  0  0  0  0  2  0  0  0  0  0  0
  186.8890  178.4860  141.6000 N   0  0  0  0  0  2  0  0  0  0  0  0
  187.0140  178.6280  140.1870 C   0  0  0  0  0  0  0  0  0  0  0  0
  188.0440  177.8510  142.0820 N   0  0  0  0  0  0  0  0  0  0  0  0
  185.9690  178.6250  139.4290 N   0  0  0  0  0  2  0  0  0  0  0  0
  188.9400  178.0030  138.7000 N   0  0  0  0  0  0  0  0  0  0  0  0
  188.2880  178.0050  139.8270 C   0  0  0  0  0  0  0  0  0  0  0  0
  188.5520  178.5550  137.4320 C   0  0  0  0  0  0  0  0  0  0  0  0
  188.6240  179.7940  137.2030 O   0  0  0  0  0  0  0  0  0  0  0  0
  188.0830  177.6520  136.3640 C   0  0  0  0  0  0  0  0  0  0  0  0
  186.8570  177.3860  136.2530 O   0  0  0  0  0  0  0  0  0  0  0  0
  190.2440  176.8120  136.0000 F   0  0  0  0  0  0  0  0  0  0  0  0
  189.0420  177.0830  135.3720 C   0  0  0  0  0  2  0  0  0  0  0  0
  188.6100  176.7420  147.8780 C   0  0  0  0  0  2  0  0  0  0  0  0
  187.5480  177.8280  147.9050 C   0  0  0  0  0  2  0  0  0  0  0  0
  186.3690  177.3810  147.1850 N   0  0  0  0  0  2  0  0  0  0  0  0
  186.0250  180.1670  147.4090 O   0  0  0  0  0  1  0  0  0  0  0  0
  184.0760  178.6220  146.5880 O   0  0  0  0  0  1  0  0  0  0  0  0
  185.5760  178.7970  146.5250 P   0  0  0  0  0  0  0  0  0  0  0  0
  186.0460  178.9900  144.9140 O   0  0  0  0  0  0  0  0  0  0  0  0
  2  8  1  0  0  0  0
  3  2  1  0  0  0  0
  4  2  2  0  0  0  0
  5  6  1  1  0  0  0
  5  9  1  0  0  0  0
  5  3  1  0  0  0  0
  7 11  1  6  0  0  0
  7  6  1  0  0  0  0
  7  5  1  0  0  0  0
  8  1  1  0  0  0  0
  8 24  1  0  0  0  0
  9  3  1  0  0  0  0
 10 11  1  0  0  0  0
 10 14  2  0  0  0  0
 12 14  1  0  0  0  0
 13 12  1  0  0  0  0
 15 13  2  0  0  0  0
 16 17  2  0  0  0  0
 17 13  1  0  0  0  0
 17 10  1  0  0  0  0
 18 16  1  0  0  0  0
 19 18  2  0  0  0  0
 20 18  1  0  0  0  0
 21 20  2  0  0  0  0
 23 22  1  0  0  0  0
 23 20  1  0  0  0  0
 24 25  1  0  0  0  0
 26 25  1  0  0  0  0
 29 28  1  0  0  0  0
 29 26  1  0  0  0  0
 29 27  1  0  0  0  0
 30 29  2  0  0  0  0
M  END
>  <MODEL>
5

>  <REMARK>
 VINA RESULT:      -6.6      4.515      6.189
  Name = 
  8 active torsions:
  status: ('A' for Active; 'I' for Inactive)
    1  A    between atoms: C_2  and  C_13
    2  A    between atoms: C_2  and  N_29
    3  A    between atoms: C_3  and  C_12
    4  A    between atoms: C_3  and  N_19
    5  A    between atoms: N_4  and  C_25
    6  A    between atoms: N_8  and  C_13
    7  A    between atoms: N_8  and  P_24
    8  A    between atoms: C_12  and  C_27
                            x       y       z     vdW  Elec       q    Type
                         _______ _______ _______ _____ _____    ______ ____

>  <TORSDO>
F 8

$$$$
=
 OpenBabel11032419163D

 30 32  0  0  1  0  0  0  0  0999 V2000
  185.3830  178.1660  146.6100 O   0  0  0  0  0  1  0  0  0  0  0  0
  187.0940  177.8400  144.9400 C   0  0  0  0  0  0  0  0  0  0  0  0
  186.1430  177.9890  143.8880 N   0  0  0  0  0  0  0  0  0  0  0  0
  188.3030  177.6280  144.6530 O   0  0  0  0  0  0  0  0  0  0  0  0
  185.7640  178.0230  142.4210 C   0  0  1  0  0  0  0  0  0  0  0  0
  185.4740  179.3780  141.7500 C   0  0  0  0  0  2  0  0  0  0  0  0
  186.8680  178.9660  141.9090 C   0  0  2  0  0  3  0  0  0  0  0  0
  186.6810  177.9270  146.3080 N   0  0  0  0  0  0  0  0  0  0  0  0
  184.7860  178.2020  143.3900 C   0  0  0  0  0  2  0  0  0  0  0  0
  188.6900  177.8770  140.5480 C   0  0  0  0  0  0  0  0  0  0  0  0
  187.3850  178.4460  140.6540 N   0  0  0  0  0  2  0  0  0  0  0  0
  190.7180  177.2020  141.1130 N   0  0  0  0  0  2  0  0  0  0  0  0
  190.5590  176.7990  139.7560 C   0  0  0  0  0  0  0  0  0  0  0  0
  189.5320  177.8250  141.5300 N   0  0  0  0  0  0  0  0  0  0  0  0
  191.5730  176.7430  138.9590 N   0  0  0  0  0  2  0  0  0  0  0  0
  188.5380  176.9960  138.2750 N   0  0  0  0  0  0  0  0  0  0  0  0
  189.2250  177.2480  139.3520 C   0  0  0  0  0  0  0  0  0  0  0  0
  188.9280  176.2550  137.1080 C   0  0  0  0  0  0  0  0  0  0  0  0
  189.3460  176.8370  136.0690 O   0  0  0  0  0  0  0  0  0  0  0  0
  188.8610  174.7820  137.1320 C   0  0  0  0  0  0  0  0  0  0  0  0
  189.8230  174.1130  137.5930 O   0  0  0  0  0  0  0  0  0  0  0  0
  186.6290  174.2230  137.5920 F   0  0  0  0  0  0  0  0  0  0  0  0
  187.6390  174.0680  136.6610 C   0  0  0  0  0  2  0  0  0  0  0  0
  187.6270  177.6810  147.3890 C   0  0  0  0  0  2  0  0  0  0  0  0
  189.0410  177.5830  146.8440 C   0  0  0  0  0  2  0  0  0  0  0  0
  189.6770  176.3750  147.3400 N   0  0  0  0  0  2  0  0  0  0  0  0
  192.0510  174.9840  146.7410 O   0  0  0  0  0  1  0  0  0  0  0  0
  192.0800  177.1290  148.2440 O   0  0  0  0  0  1  0  0  0  0  0  0
  191.3980  176.5150  147.0430 P   0  0  0  0  0  0  0  0  0  0  0  0
  191.6450  177.5060  145.6960 O   0  0  0  0  0  0  0  0  0  0  0  0
  2  8  1  0  0  0  0
  3  2  1  0  0  0  0
  4  2  2  0  0  0  0
  5  6  1  1  0  0  0
  5  9  1  0  0  0  0
  5  3  1  0  0  0  0
  6  7  1  0  0  0  0
  7 11  1  6  0  0  0
  7  5  1  0  0  0  0
  8  1  1  0  0  0  0
  8 24  1  0  0  0  0
  9  3  1  0  0  0  0
 10 11  1  0  0  0  0
 10 14  2  0  0  0  0
 12 14  1  0  0  0  0
 13 12  1  0  0  0  0
 15 13  2  0  0  0  0
 16 17  2  0  0  0  0
 17 13  1  0  0  0  0
 17 10  1  0  0  0  0
 18 20  1  0  0  0  0
 18 16  1  0  0  0  0
 19 18  2  0  0  0  0
 20 21  2  0  0  0  0
 23 20  1  0  0  0  0
 23 22  1  0  0  0  0
 25 26  1  0  0  0  0
 25 24  1  0  0  0  0
 27 29  1  0  0  0  0
 29 26  1  0  0  0  0
 29 28  1  0  0  0  0
 30 29  2  0  0  0  0
M  END
>  <MODEL>
6

>  <REMARK>
 VINA RESULT:      -6.5      4.159      5.433
  Name = 
  8 active torsions:
  status: ('A' for Active; 'I' for Inactive)
    1  A    between atoms: C_2  and  C_13
    2  A    between atoms: C_2  and  N_29
    3  A    between atoms: C_3  and  C_12
    4  A    between atoms: C_3  and  N_19
    5  A    between atoms: N_4  and  C_25
    6  A    between atoms: N_8  and  C_13
    7  A    between atoms: N_8  and  P_24
    8  A    between atoms: C_12  and  C_27
                            x       y       z     vdW  Elec       q    Type
                         _______ _______ _______ _____ _____    ______ ____

>  <TORSDO>
F 8

$$$$
=
 OpenBabel11032419163D

 30 32  0  0  1  0  0  0  0  0999 V2000
  180.6500  179.0700  142.0590 O   0  0  0  0  0  1  0  0  0  0  0  0
  182.9230  178.3530  141.6780 C   0  0  0  0  0  0  0  0  0  0  0  0
  183.3660  179.0230  142.8570 N   0  0  0  0  0  0  0  0  0  0  0  0
  183.7580  177.7220  140.9770 O   0  0  0  0  0  0  0  0  0  0  0  0
  184.4490  179.4400  143.8330 C   0  0  1  0  0  0  0  0  0  0  0  0
  184.5370  178.7410  145.2010 C   0  0  0  0  0  2  0  0  0  0  0  0
  185.1230  178.0730  144.0410 C   0  0  2  0  0  3  0  0  0  0  0  0
  181.5450  178.4000  141.2950 N   0  0  0  0  0  0  0  0  0  0  0  0
  183.1390  179.8530  144.0370 C   0  0  0  0  0  2  0  0  0  0  0  0
  187.3980  177.7840  145.0940 C   0  0  0  0  0  0  0  0  0  0  0  0
  186.5660  178.2550  144.0330 N   0  0  0  0  0  2  0  0  0  0  0  0
  188.0040  176.8560  147.0070 N   0  0  0  0  0  2  0  0  0  0  0  0
  189.2250  177.2100  146.3630 C   0  0  0  0  0  0  0  0  0  0  0  0
  186.9420  177.2110  146.1610 N   0  0  0  0  0  0  0  0  0  0  0  0
  190.2640  177.5410  147.0540 N   0  0  0  0  0  2  0  0  0  0  0  0
  189.5800  178.1970  144.0800 N   0  0  0  0  0  0  0  0  0  0  0  0
  188.8500  177.8410  145.0970 C   0  0  0  0  0  0  0  0  0  0  0  0
  191.0080  178.1480  143.9330 C   0  0  0  0  0  0  0  0  0  0  0  0
  191.7470  179.0680  144.3790 O   0  0  0  0  0  0  0  0  0  0  0  0
  191.6270  176.9860  143.2680 C   0  0  0  0  0  0  0  0  0  0  0  0
  192.1580  177.1150  142.1340 O   0  0  0  0  0  0  0  0  0  0  0  0
  192.0570  175.8330  145.2670 F   0  0  0  0  0  0  0  0  0  0  0  0
  191.6790  175.6590  143.9480 C   0  0  0  0  0  2  0  0  0  0  0  0
  181.0990  177.7990  140.0430 C   0  0  0  0  0  2  0  0  0  0  0  0
  180.4770  178.8530  139.1420 C   0  0  0  0  0  2  0  0  0  0  0  0
  181.4980  179.4370  138.2910 N   0  0  0  0  0  2  0  0  0  0  0  0
  180.7990  181.7730  136.8820 O   0  0  0  0  0  0  0  0  0  0  0  0
  182.6600  181.8080  138.7240 O   0  0  0  0  0  1  0  0  0  0  0  0
  181.3300  181.1800  138.3740 P   0  0  0  0  0  0  0  0  0  0  0  0
  180.2000  181.5680  139.5680 O   0  0  0  0  0  1  0  0  0  0  0  0
  2  3  1  0  0  0  0
  3  5  1  0  0  0  0
  3  9  1  0  0  0  0
  4  2  2  0  0  0  0
  5  9  1  6  0  0  0
  5  7  1  0  0  0  0
  5  6  1  0  0  0  0
  7 11  1  1  0  0  0
  7  6  1  0  0  0  0
  8  2  1  0  0  0  0
  8  1  1  0  0  0  0
 10 17  1  0  0  0  0
 10 14  2  0  0  0  0
 11 10  1  0  0  0  0
 13 12  1  0  0  0  0
 13 15  2  0  0  0  0
 14 12  1  0  0  0  0
 16 17  2  0  0  0  0
 17 13  1  0  0  0  0
 18 16  1  0  0  0  0
 18 19  2  0  0  0  0
 20 18  1  0  0  0  0
 20 23  1  0  0  0  0
 21 20  2  0  0  0  0
 23 22  1  0  0  0  0
 24  8  1  0  0  0  0
 25 24  1  0  0  0  0
 26 29  1  0  0  0  0
 26 25  1  0  0  0  0
 27 29  2  0  0  0  0
 29 28  1  0  0  0  0
 29 30  1  0  0  0  0
M  END
>  <MODEL>
7

>  <REMARK>
 VINA RESULT:      -6.4      4.002      9.292
  Name = 
  8 active torsions:
  status: ('A' for Active; 'I' for Inactive)
    1  A    between atoms: C_2  and  C_13
    2  A    between atoms: C_2  and  N_29
    3  A    between atoms: C_3  and  C_12
    4  A    between atoms: C_3  and  N_19
    5  A    between atoms: N_4  and  C_25
    6  A    between atoms: N_8  and  C_13
    7  A    between atoms: N_8  and  P_24
    8  A    between atoms: C_12  and  C_27
                            x       y       z     vdW  Elec       q    Type
                         _______ _______ _______ _____ _____    ______ ____

>  <TORSDO>
F 8

$$$$
=
 OpenBabel11032419163D

 30 32  0  0  1  0  0  0  0  0999 V2000
  181.2280  179.8790  142.2890 O   0  0  0  0  0  1  0  0  0  0  0  0
  183.1920  178.4890  142.1090 C   0  0  0  0  0  0  0  0  0  0  0  0
  183.7840  179.1220  143.2420 N   0  0  0  0  0  0  0  0  0  0  0  0
  183.8190  177.5690  141.5190 O   0  0  0  0  0  0  0  0  0  0  0  0
  184.9150  179.3040  144.2340 C   0  0  1  0  0  0  0  0  0  0  0  0
  184.7550  178.7610  145.6660 C   0  0  0  0  0  2  0  0  0  0  0  0
  185.1460  177.8300  144.6090 C   0  0  2  0  0  3  0  0  0  0  0  0
  181.9010  178.8980  141.6440 N   0  0  0  0  0  0  0  0  0  0  0  0
  183.7830  180.1030  144.3240 C   0  0  0  0  0  2  0  0  0  0  0  0
  187.4130  177.6840  143.5130 C   0  0  0  0  0  0  0  0  0  0  0  0
  186.5770  177.5780  144.6660 N   0  0  0  0  0  2  0  0  0  0  0  0
  188.0320  178.0000  141.4140 N   0  0  0  0  0  2  0  0  0  0  0  0
  189.2450  177.7750  142.1280 C   0  0  0  0  0  0  0  0  0  0  0  0
  186.9680  177.9570  142.3280 N   0  0  0  0  0  0  0  0  0  0  0  0
  190.2520  177.2060  141.5570 N   0  0  0  0  0  2  0  0  0  0  0  0
  189.5880  177.4550  144.5970 N   0  0  0  0  0  0  0  0  0  0  0  0
  188.8590  177.5490  143.5220 C   0  0  0  0  0  0  0  0  0  0  0  0
  191.0200  177.4640  144.7200 C   0  0  0  0  0  0  0  0  0  0  0  0
  191.6910  178.5130  144.5120 O   0  0  0  0  0  0  0  0  0  0  0  0
  191.7180  176.2300  145.1240 C   0  0  0  0  0  0  0  0  0  0  0  0
  192.0880  175.3990  144.2530 O   0  0  0  0  0  0  0  0  0  0  0  0
  190.9000  176.1270  147.3210 F   0  0  0  0  0  0  0  0  0  0  0  0
  192.0420  175.9720  146.5570 C   0  0  0  0  0  2  0  0  0  0  0  0
  181.3300  178.3240  140.4310 C   0  0  0  0  0  2  0  0  0  0  0  0
  181.7200  179.1520  139.2190 C   0  0  0  0  0  2  0  0  0  0  0  0
  181.6660  178.3300  138.0240 N   0  0  0  0  0  2  0  0  0  0  0  0
  184.4300  178.5770  138.5030 O   0  0  0  0  0  1  0  0  0  0  0  0
  183.5290  177.4150  136.3360 O   0  0  0  0  0  0  0  0  0  0  0  0
  183.2420  177.5940  137.8090 P   0  0  0  0  0  0  0  0  0  0  0  0
  183.2510  176.0830  138.5650 O   0  0  0  0  0  1  0  0  0  0  0  0
  2  3  1  0  0  0  0
  3  5  1  0  0  0  0
  3  9  1  0  0  0  0
  4  2  2  0  0  0  0
  5  9  1  6  0  0  0
  5  7  1  0  0  0  0
  5  6  1  0  0  0  0
  7 11  1  1  0  0  0
  7  6  1  0  0  0  0
  8  2  1  0  0  0  0
  8  1  1  0  0  0  0
 10 17  1  0  0  0  0
 10 11  1  0  0  0  0
 12 13  1  0  0  0  0
 12 14  1  0  0  0  0
 13 17  1  0  0  0  0
 14 10  2  0  0  0  0
 15 13  2  0  0  0  0
 16 18  1  0  0  0  0
 17 16  2  0  0  0  0
 18 20  1  0  0  0  0
 19 18  2  0  0  0  0
 20 23  1  0  0  0  0
 21 20  2  0  0  0  0
 23 22  1  0  0  0  0
 24  8  1  0  0  0  0
 25 24  1  0  0  0  0
 26 25  1  0  0  0  0
 28 29  2  0  0  0  0
 29 26  1  0  0  0  0
 29 27  1  0  0  0  0
 29 30  1  0  0  0  0
M  END
>  <MODEL>
8

>  <REMARK>
 VINA RESULT:      -6.4      3.768      8.499
  Name = 
  8 active torsions:
  status: ('A' for Active; 'I' for Inactive)
    1  A    between atoms: C_2  and  C_13
    2  A    between atoms: C_2  and  N_29
    3  A    between atoms: C_3  and  C_12
    4  A    between atoms: C_3  and  N_19
    5  A    between atoms: N_4  and  C_25
    6  A    between atoms: N_8  and  C_13
    7  A    between atoms: N_8  and  P_24
    8  A    between atoms: C_12  and  C_27
                            x       y       z     vdW  Elec       q    Type
                         _______ _______ _______ _____ _____    ______ ____

>  <TORSDO>
F 8

$$$$
=
 OpenBabel11032419163D

 30 32  0  0  1  0  0  0  0  0999 V2000
  181.2280  179.8450  142.2730 O   0  0  0  0  0  1  0  0  0  0  0  0
  183.1970  178.4590  142.1120 C   0  0  0  0  0  0  0  0  0  0  0  0
  183.7780  179.0960  143.2480 N   0  0  0  0  0  0  0  0  0  0  0  0
  183.8310  177.5390  141.5290 O   0  0  0  0  0  0  0  0  0  0  0  0
  184.9000  179.2840  144.2500 C   0  0  1  0  0  0  0  0  0  0  0  0
  184.7300  178.7440  145.6810 C   0  0  0  0  0  2  0  0  0  0  0  0
  185.1310  177.8110  144.6300 C   0  0  2  0  0  3  0  0  0  0  0  0
  181.9090  178.8640  141.6360 N   0  0  0  0  0  0  0  0  0  0  0  0
  183.7660  180.0800  144.3280 C   0  0  0  0  0  2  0  0  0  0  0  0
  187.4030  177.6400  143.5470 C   0  0  0  0  0  0  0  0  0  0  0  0
  186.5630  177.5630  144.6990 N   0  0  0  0  0  2  0  0  0  0  0  0
  188.0310  177.9000  141.4430 N   0  0  0  0  0  2  0  0  0  0  0  0
  189.2400  177.6960  142.1680 C   0  0  0  0  0  0  0  0  0  0  0  0
  186.9630  177.8800  142.3540 N   0  0  0  0  0  0  0  0  0  0  0  0
  190.2510  177.1130  141.6160 N   0  0  0  0  0  2  0  0  0  0  0  0
  189.5740  177.4420  144.6460 N   0  0  0  0  0  0  0  0  0  0  0  0
  188.8500  177.5070  143.5660 C   0  0  0  0  0  0  0  0  0  0  0  0
  191.0050  177.4570  144.7750 C   0  0  0  0  0  0  0  0  0  0  0  0
  191.6740  178.5050  144.5590 O   0  0  0  0  0  0  0  0  0  0  0  0
  191.7060  176.2290  145.1940 C   0  0  0  0  0  0  0  0  0  0  0  0
  192.0550  175.3760  144.3360 O   0  0  0  0  0  0  0  0  0  0  0  0
  190.9410  176.2300  147.4130 F   0  0  0  0  0  0  0  0  0  0  0  0
  192.0560  176.0030  146.6260 C   0  0  0  0  0  2  0  0  0  0  0  0
  181.3490  178.2860  140.4200 C   0  0  0  0  0  2  0  0  0  0  0  0
  180.7570  179.3730  139.5400 C   0  0  0  0  0  2  0  0  0  0  0  0
  181.8170  180.0530  138.8160 N   0  0  0  0  0  2  0  0  0  0  0  0
  180.6790  181.4290  136.6390 O   0  0  0  0  0  0  0  0  0  0  0  0
  182.2480  182.6500  138.3440 O   0  0  0  0  0  1  0  0  0  0  0  0
  181.1820  181.5830  138.2470 P   0  0  0  0  0  0  0  0  0  0  0  0
  179.8640  182.0240  139.2080 O   0  0  0  0  0  1  0  0  0  0  0  0
  2  3  1  0  0  0  0
  3  5  1  0  0  0  0
  3  9  1  0  0  0  0
  4  2  2  0  0  0  0
  5  9  1  6  0  0  0
  5  7  1  0  0  0  0
  5  6  1  0  0  0  0
  7 11  1  1  0  0  0
  7  6  1  0  0  0  0
  8  2  1  0  0  0  0
  8  1  1  0  0  0  0
 10 17  1  0  0  0  0
 10 11  1  0  0  0  0
 12 13  1  0  0  0  0
 12 14  1  0  0  0  0
 13 17  1  0  0  0  0
 14 10  2  0  0  0  0
 15 13  2  0  0  0  0
 16 18  1  0  0  0  0
 17 16  2  0  0  0  0
 18 20  1  0  0  0  0
 19 18  2  0  0  0  0
 20 23  1  0  0  0  0
 21 20  2  0  0  0  0
 23 22  1  0  0  0  0
 24  8  1  0  0  0  0
 25 24  1  0  0  0  0
 26 25  1  0  0  0  0
 27 29  2  0  0  0  0
 29 28  1  0  0  0  0
 29 26  1  0  0  0  0
 29 30  1  0  0  0  0
M  END
>  <MODEL>
9

>  <REMARK>
 VINA RESULT:      -6.3      4.273      9.007
  Name = 
  8 active torsions:
  status: ('A' for Active; 'I' for Inactive)
    1  A    between atoms: C_2  and  C_13
    2  A    between atoms: C_2  and  N_29
    3  A    between atoms: C_3  and  C_12
    4  A    between atoms: C_3  and  N_19
    5  A    between atoms: N_4  and  C_25
    6  A    between atoms: N_8  and  C_13
    7  A    between atoms: N_8  and  P_24
    8  A    between atoms: C_12  and  C_27
                            x       y       z     vdW  Elec       q    Type
                         _______ _______ _______ _____ _____    ______ ____

>  <TORSDO>
F 8

$$$$
