=
 OpenBabel11042411313D

 36 38  0  0  1  0  0  0  0  0999 V2000
  188.5720  177.1480  139.8210 C   0  0  0  0  0  2  0  0  0  0  0  0
  184.6920  178.5300  138.2530 C   0  0  0  0  0  0  0  0  0  0  0  0
  185.3020  178.3740  141.3160 C   0  0  0  0  0  0  0  0  0  0  0  0
  189.6100  178.0300  139.1400 C   0  0  2  0  0  3  0  0  0  0  0  0
  187.7860  178.9440  141.4210 C   0  0  0  0  0  2  0  0  0  0  0  0
  184.4210  177.3250  137.6280 C   0  0  0  0  0  0  0  0  0  0  0  0
  185.3960  177.1060  136.7250 N   0  0  0  0  0  0  0  0  0  0  0  0
  188.3830  177.5460  141.2790 C   0  0  0  0  0  2  0  0  0  0  0  0
  189.0030  178.7220  137.9200 C   0  0  0  0  0  2  0  0  0  0  0  0
  188.6040  177.7300  136.8350 C   0  0  0  0  0  2  0  0  0  0  0  0
  186.2060  178.1510  136.8060 N   0  0  0  0  0  0  0  0  0  0  0  0
  185.8220  179.0280  137.7210 N   0  0  0  0  0  0  0  0  0  0  0  0
  187.4330  178.2760  136.0360 C   0  0  0  0  0  2  0  0  0  0  0  0
  183.9460  179.1810  139.3760 C   0  0  0  0  0  2  0  0  0  0  0  0
  184.1390  178.4470  140.6680 C   0  0  0  0  0  3  0  0  0  0  0  0
  186.4710  179.0180  140.7960 N   0  0  0  0  0  2  0  0  0  0  0  0
  191.9490  177.1670  139.5860 C   0  0  0  0  0  0  0  0  0  0  0  0
  191.9920  177.7540  140.7000 O   0  0  0  0  0  0  0  0  0  0  0  0
  190.7760  177.2350  138.7720 N   0  0  0  0  0  2  0  0  0  0  0  0
  193.1180  176.3670  139.1280 C   0  0  0  0  0  2  0  0  0  0  0  0
  193.1160  176.1950  136.5110 N   0  0  0  0  0  0  0  0  0  0  0  0
  193.1150  176.2700  137.6670 C   0  0  0  0  0  0  0  0  0  0  0  0
  183.3020  176.4020  137.8710 C   0  0  0  0  0  0  0  0  0  0  0  0
  183.5560  175.0160  138.0670 N   0  0  0  0  0  1  0  0  0  0  0  0
  182.1160  176.8250  137.9060 O   0  0  0  0  0  0  0  0  0  0  0  0
  185.3430  177.6290  142.6090 C   0  0  0  0  0  2  0  0  0  0  0  0
  185.2820  178.5670  143.7200 N   0  0  0  0  0  2  0  0  0  0  0  0
  186.4110  178.6240  147.4160 C   0  0  0  0  0  2  0  0  0  0  0  0
  185.6320  179.0950  146.1880 C   0  0  0  0  0  2  0  0  0  0  0  0
  187.2140  177.7380  144.8260 C   0  0  0  0  0  3  0  0  0  0  0  0
  186.0570  178.4050  144.9090 C   0  0  0  0  0  0  0  0  0  0  0  0
  188.0950  177.4890  146.0170 C   0  0  0  0  0  2  0  0  0  0  0  0
  187.9010  178.5580  147.0930 C   0  0  2  0  0  3  0  0  0  0  0  0
  187.9350  177.4710  149.2310 O   0  0  0  0  0  1  0  0  0  0  0  0
  188.7120  178.2150  148.3420 C   0  0  1  0  0  3  0  0  0  0  0  0
  189.9420  177.4030  147.9750 C   0  0  0  0  0  1  0  0  0  0  0  0
  1  8  1  0  0  0  0
  2 14  1  0  0  0  0
  3 26  1  0  0  0  0
  4 19  1  6  0  0  0
  4  1  1  0  0  0  0
  6 23  1  0  0  0  0
  6  2  1  0  0  0  0
  7 11  1  0  0  0  0
  7  6  2  0  0  0  0
  8  5  1  0  0  0  0
  9  4  1  0  0  0  0
 10  9  1  0  0  0  0
 11 12  1  0  0  0  0
 12  2  2  0  0  0  0
 13 11  1  0  0  0  0
 13 10  1  0  0  0  0
 14 15  1  0  0  0  0
 15  3  2  0  0  0  0
 16  3  1  0  0  0  0
 16  5  1  0  0  0  0
 17 18  2  0  0  0  0
 19 17  1  0  0  0  0
 20 17  1  0  0  0  0
 21 22  3  0  0  0  0
 22 20  1  0  0  0  0
 23 25  2  0  0  0  0
 23 24  1  0  0  0  0
 26 27  1  0  0  0  0
 27 31  1  0  0  0  0
 29 28  1  0  0  0  0
 30 31  2  0  0  0  0
 30 32  1  0  0  0  0
 31 29  1  0  0  0  0
 32 33  1  0  0  0  0
 33 28  1  0  0  0  0
 33 35  1  1  0  0  0
 35 36  1  6  0  0  0
 35 34  1  0  0  0  0
M  END
>  <MODEL>
1

>  <REMARK>
 VINA RESULT:      -7.3      0.000      0.000
  Name = 
  8 active torsions:
  status: ('A' for Active; 'I' for Inactive)
    1  A    between atoms: C_4  and  C_19
    2  A    between atoms: C_6  and  C_34
    3  A    between atoms: C_7  and  N_24
    4  A    between atoms: C_8  and  C_32
    5  A    between atoms: C_10  and  C_13
    6  A    between atoms: C_19  and  C_33
    7  A    between atoms: N_25  and  C_28
    8  A    between atoms: N_25  and  C_34
                            x       y       z     vdW  Elec       q    Type
                         _______ _______ _______ _____ _____    ______ ____

>  <TORSDO>
F 8

$$$$
=
 OpenBabel11042411313D

 36 38  0  0  1  0  0  0  0  0999 V2000
  188.8260  176.8340  139.3390 C   0  0  0  0  0  2  0  0  0  0  0  0
  184.8000  178.6270  139.3240 C   0  0  0  0  0  0  0  0  0  0  0  0
  186.3950  178.1100  141.9640 C   0  0  0  0  0  0  0  0  0  0  0  0
  189.6520  177.7110  138.4090 C   0  0  2  0  0  3  0  0  0  0  0  0
  188.8100  178.5000  141.2420 C   0  0  0  0  0  2  0  0  0  0  0  0
  184.2170  177.5140  138.7430 C   0  0  0  0  0  0  0  0  0  0  0  0
  184.8000  177.3260  137.5440 N   0  0  0  0  0  0  0  0  0  0  0  0
  189.1830  177.0880  140.7970 C   0  0  0  0  0  2  0  0  0  0  0  0
  188.7390  178.5660  137.5310 C   0  0  0  0  0  2  0  0  0  0  0  0
  187.8990  177.7220  136.5810 C   0  0  0  0  0  2  0  0  0  0  0  0
  185.6880  178.3010  137.4180 N   0  0  0  0  0  0  0  0  0  0  0  0
  185.7260  179.1010  138.4730 N   0  0  0  0  0  0  0  0  0  0  0  0
  186.5870  178.4250  136.2810 C   0  0  0  0  0  2  0  0  0  0  0  0
  184.5480  179.2040  140.6820 C   0  0  0  0  0  2  0  0  0  0  0  0
  185.0950  178.3270  141.7670 C   0  0  0  0  0  2  0  0  0  0  0  0
  187.3760  178.7260  141.1210 N   0  0  0  0  0  0  0  0  0  0  0  0
  191.8630  176.5370  138.0180 C   0  0  0  0  0  0  0  0  0  0  0  0
  192.2920  176.8920  139.1480 O   0  0  0  0  0  0  0  0  0  0  0  0
  190.5400  176.8840  137.5990 N   0  0  0  0  0  2  0  0  0  0  0  0
  192.7280  175.7210  137.1220 C   0  0  0  0  0  2  0  0  0  0  0  0
  194.9200  175.0310  138.3840 N   0  0  0  0  0  0  0  0  0  0  0  0
  193.9520  175.3350  137.8260 C   0  0  0  0  0  0  0  0  0  0  0  0
  183.1610  176.6470  139.2890 C   0  0  0  0  0  0  0  0  0  0  0  0
  183.0290  175.3100  138.8200 N   0  0  0  0  0  1  0  0  0  0  0  0
  182.3680  177.0760  140.1690 O   0  0  0  0  0  0  0  0  0  0  0  0
  186.7990  177.2330  143.1020 C   0  0  0  0  0  2  0  0  0  0  0  0
  187.1930  178.0500  144.2390 N   0  0  0  0  0  2  0  0  0  0  0  0
  190.9190  177.6420  145.1810 C   0  0  0  0  0  2  0  0  0  0  0  0
  189.7060  177.6300  144.2510 C   0  0  0  0  0  2  0  0  0  0  0  0
  188.2970  177.6440  146.3030 C   0  0  0  0  0  3  0  0  0  0  0  0
  188.3920  177.8150  144.9790 C   0  0  0  0  0  0  0  0  0  0  0  0
  189.4950  177.4160  147.1810 C   0  0  0  0  0  2  0  0  0  0  0  0
  190.6450  176.7740  146.4050 C   0  0  2  0  0  3  0  0  0  0  0  0
  191.7300  177.4280  148.4420 O   0  0  0  0  0  1  0  0  0  0  0  0
  191.8910  176.6670  147.2840 C   0  0  1  0  0  3  0  0  0  0  0  0
  192.1410  175.2220  147.6830 C   0  0  0  0  0  1  0  0  0  0  0  0
  1  8  1  0  0  0  0
  2 14  1  0  0  0  0
  3 26  1  0  0  0  0
  4 19  1  6  0  0  0
  4  1  1  0  0  0  0
  6 23  1  0  0  0  0
  6  2  1  0  0  0  0
  7  6  2  0  0  0  0
  8  5  1  0  0  0  0
  9  4  1  0  0  0  0
 10  9  1  0  0  0  0
 11  7  1  0  0  0  0
 11 12  1  0  0  0  0
 12  2  2  0  0  0  0
 13 10  1  0  0  0  0
 13 11  1  0  0  0  0
 14 15  1  0  0  0  0
 15  3  1  0  0  0  0
 16  5  1  0  0  0  0
 16  3  2  0  0  0  0
 17 18  2  0  0  0  0
 19 17  1  0  0  0  0
 20 22  1  0  0  0  0
 20 17  1  0  0  0  0
 22 21  3  0  0  0  0
 23 25  2  0  0  0  0
 24 23  1  0  0  0  0
 26 27  1  0  0  0  0
 27 31  1  0  0  0  0
 28 33  1  0  0  0  0
 29 31  1  0  0  0  0
 29 28  1  0  0  0  0
 30 32  1  0  0  0  0
 31 30  2  0  0  0  0
 33 32  1  0  0  0  0
 33 35  1  1  0  0  0
 35 36  1  1  0  0  0
 35 34  1  0  0  0  0
M  END
>  <MODEL>
2

>  <REMARK>
 VINA RESULT:      -7.3      1.622      2.137
  Name = 
  8 active torsions:
  status: ('A' for Active; 'I' for Inactive)
    1  A    between atoms: C_4  and  C_19
    2  A    between atoms: C_6  and  C_34
    3  A    between atoms: C_7  and  N_24
    4  A    between atoms: C_8  and  C_32
    5  A    between atoms: C_10  and  C_13
    6  A    between atoms: C_19  and  C_33
    7  A    between atoms: N_25  and  C_28
    8  A    between atoms: N_25  and  C_34
                            x       y       z     vdW  Elec       q    Type
                         _______ _______ _______ _____ _____    ______ ____

>  <TORSDO>
F 8

$$$$
=
 OpenBabel11042411313D

 36 38  0  0  1  0  0  0  0  0999 V2000
  188.0320  177.0870  142.5360 C   0  0  0  0  0  2  0  0  0  0  0  0
  189.2250  177.6560  138.3320 C   0  0  0  0  0  0  0  0  0  0  0  0
  186.3210  178.2290  139.3420 C   0  0  0  0  0  0  0  0  0  0  0  0
  189.0240  177.9130  143.3440 C   0  0  2  0  0  3  0  0  0  0  0  0
  186.7140  179.0830  141.7140 C   0  0  0  0  0  2  0  0  0  0  0  0
  189.5520  176.3220  138.1580 C   0  0  0  0  0  0  0  0  0  0  0  0
  190.5340  176.0260  139.0310 N   0  0  0  0  0  0  0  0  0  0  0  0
  186.6690  177.7640  142.4800 C   0  0  0  0  0  2  0  0  0  0  0  0
  190.2470  178.2550  142.4950 C   0  0  0  0  0  2  0  0  0  0  0  0
  191.0430  177.0160  142.1060 C   0  0  0  0  0  2  0  0  0  0  0  0
  190.7840  177.1480  139.6880 N   0  0  0  0  0  0  0  0  0  0  0  0
  190.0110  178.1520  139.3030 N   0  0  0  0  0  0  0  0  0  0  0  0
  191.7440  177.2430  140.7770 C   0  0  0  0  0  2  0  0  0  0  0  0
  188.1500  178.4440  137.6510 C   0  0  0  0  0  2  0  0  0  0  0  0
  186.7850  178.0300  138.1090 C   0  0  0  0  0  3  0  0  0  0  0  0
  187.1310  178.8740  140.3330 N   0  0  0  0  0  2  0  0  0  0  0  0
  188.7650  177.4150  145.8140 C   0  0  0  0  0  0  0  0  0  0  0  0
  187.7920  178.2110  145.9090 O   0  0  0  0  0  0  0  0  0  0  0  0
  189.4040  177.1940  144.5550 N   0  0  0  0  0  2  0  0  0  0  0  0
  189.2320  176.6740  147.0170 C   0  0  0  0  0  2  0  0  0  0  0  0
  191.8490  176.7430  147.1500 N   0  0  0  0  0  0  0  0  0  0  0  0
  190.6930  176.7110  147.0910 C   0  0  0  0  0  0  0  0  0  0  0  0
  188.9640  175.3530  137.2210 C   0  0  0  0  0  0  0  0  0  0  0  0
  189.5470  175.1660  135.9360 N   0  0  0  0  0  1  0  0  0  0  0  0
  187.9460  174.6850  137.5420 O   0  0  0  0  0  0  0  0  0  0  0  0
  184.9300  177.7870  139.6530 C   0  0  0  0  0  2  0  0  0  0  0  0
  184.0570  178.9470  139.7600 N   0  0  0  0  0  2  0  0  0  0  0  0
  181.8230  178.9880  142.9130 C   0  0  0  0  0  2  0  0  0  0  0  0
  183.0730  178.6690  142.0940 C   0  0  0  0  0  2  0  0  0  0  0  0
  181.7110  179.1600  140.0690 C   0  0  0  0  0  3  0  0  0  0  0  0
  182.9170  178.9770  140.6190 C   0  0  0  0  0  0  0  0  0  0  0  0
  180.4500  179.2340  140.8800 C   0  0  0  0  0  2  0  0  0  0  0  0
  180.5820  178.4650  142.1950 C   0  0  2  0  0  3  0  0  0  0  0  0
  179.5000  178.0250  144.2900 O   0  0  0  0  0  1  0  0  0  0  0  0
  179.3350  178.6580  143.0570 C   0  0  1  0  0  3  0  0  0  0  0  0
  179.0760  180.1350  143.3010 C   0  0  0  0  0  1  0  0  0  0  0  0
  1  4  1  0  0  0  0
  2 12  2  0  0  0  0
  3 26  1  0  0  0  0
  3 16  1  0  0  0  0
  4 19  1  1  0  0  0
  5  8  1  0  0  0  0
  6  2  1  0  0  0  0
  6  7  2  0  0  0  0
  7 11  1  0  0  0  0
  8  1  1  0  0  0  0
  9  4  1  0  0  0  0
 10  9  1  0  0  0  0
 11 13  1  0  0  0  0
 12 11  1  0  0  0  0
 13 10  1  0  0  0  0
 14 15  1  0  0  0  0
 14  2  1  0  0  0  0
 15  3  2  0  0  0  0
 16  5  1  0  0  0  0
 17 18  2  0  0  0  0
 17 20  1  0  0  0  0
 19 17  1  0  0  0  0
 20 22  1  0  0  0  0
 22 21  3  0  0  0  0
 23 25  2  0  0  0  0
 23  6  1  0  0  0  0
 24 23  1  0  0  0  0
 26 27  1  0  0  0  0
 27 31  1  0  0  0  0
 29 28  1  0  0  0  0
 30 31  2  0  0  0  0
 30 32  1  0  0  0  0
 31 29  1  0  0  0  0
 32 33  1  0  0  0  0
 33 28  1  0  0  0  0
 33 35  1  1  0  0  0
 35 36  1  1  0  0  0
 35 34  1  0  0  0  0
M  END
>  <MODEL>
3

>  <REMARK>
 VINA RESULT:      -7.3      3.184      6.525
  Name = 
  8 active torsions:
  status: ('A' for Active; 'I' for Inactive)
    1  A    between atoms: C_4  and  C_19
    2  A    between atoms: C_6  and  C_34
    3  A    between atoms: C_7  and  N_24
    4  A    between atoms: C_8  and  C_32
    5  A    between atoms: C_10  and  C_13
    6  A    between atoms: C_19  and  C_33
    7  A    between atoms: N_25  and  C_28
    8  A    between atoms: N_25  and  C_34
                            x       y       z     vdW  Elec       q    Type
                         _______ _______ _______ _____ _____    ______ ____

>  <TORSDO>
F 8

$$$$
=
 OpenBabel11042411313D

 36 38  0  0  1  0  0  0  0  0999 V2000
  190.3490  175.6610  138.3920 C   0  0  0  0  0  2  0  0  0  0  0  0
  186.5890  176.7010  136.3420 C   0  0  0  0  0  0  0  0  0  0  0  0
  187.5210  178.1320  138.9620 C   0  0  0  0  0  0  0  0  0  0  0  0
  191.4300  175.7950  137.3270 C   0  0  2  0  0  3  0  0  0  0  0  0
  190.0600  178.1540  138.7130 C   0  0  0  0  0  2  0  0  0  0  0  0
  186.0550  175.4340  136.5030 C   0  0  0  0  0  0  0  0  0  0  0  0
  186.8680  174.5650  135.8730 N   0  0  0  0  0  0  0  0  0  0  0  0
  190.4010  176.8220  139.3760 C   0  0  0  0  0  2  0  0  0  0  0  0
  190.8050  175.8090  135.9330 C   0  0  0  0  0  2  0  0  0  0  0  0
  190.1240  174.4890  135.5940 C   0  0  0  0  0  2  0  0  0  0  0  0
  187.8400  175.2960  135.3480 N   0  0  0  0  0  0  0  0  0  0  0  0
  187.7140  176.5860  135.6160 N   0  0  0  0  0  0  0  0  0  0  0  0
  188.9730  174.7280  134.6330 C   0  0  0  0  0  2  0  0  0  0  0  0
  186.0960  177.9940  136.9110 C   0  0  0  0  0  2  0  0  0  0  0  0
  186.3180  178.0690  138.3920 C   0  0  0  0  0  2  0  0  0  0  0  0
  188.7100  178.1360  138.1630 N   0  0  0  0  0  0  0  0  0  0  0  0
  193.7990  174.9530  137.6310 C   0  0  0  0  0  0  0  0  0  0  0  0
  194.2420  176.1280  137.7340 O   0  0  0  0  0  0  0  0  0  0  0  0
  192.4000  174.7140  137.4610 N   0  0  0  0  0  2  0  0  0  0  0  0
  194.7370  173.8000  137.7210 C   0  0  0  0  0  2  0  0  0  0  0  0
  196.5550  174.2620  139.5530 N   0  0  0  0  0  0  0  0  0  0  0  0
  195.7510  174.0590  138.7440 C   0  0  0  0  0  0  0  0  0  0  0  0
  184.8370  175.0430  137.2290 C   0  0  0  0  0  0  0  0  0  0  0  0
  184.7050  173.7170  137.7290 N   0  0  0  0  0  1  0  0  0  0  0  0
  183.9040  175.8690  137.4120 O   0  0  0  0  0  0  0  0  0  0  0  0
  187.5930  178.2290  140.4500 C   0  0  0  0  0  2  0  0  0  0  0  0
  186.2550  178.3900  140.9980 N   0  0  0  0  0  2  0  0  0  0  0  0
  184.5730  179.1060  144.4030 C   0  0  0  0  0  2  0  0  0  0  0  0
  184.8740  179.3310  142.9220 C   0  0  0  0  0  2  0  0  0  0  0  0
  186.8520  177.8520  143.2340 C   0  0  0  0  0  3  0  0  0  0  0  0
  186.0010  178.4640  142.4020 C   0  0  0  0  0  0  0  0  0  0  0  0
  186.6670  177.8440  144.7250 C   0  0  0  0  0  2  0  0  0  0  0  0
  185.8750  179.0630  145.1980 C   0  0  2  0  0  3  0  0  0  0  0  0
  184.4130  178.2570  146.9210 O   0  0  0  0  0  1  0  0  0  0  0  0
  185.5920  178.9700  146.6970 C   0  0  1  0  0  3  0  0  0  0  0  0
  186.7300  178.2630  147.4130 C   0  0  0  0  0  1  0  0  0  0  0  0
  1  8  1  0  0  0  0
  2  6  1  0  0  0  0
  2 14  1  0  0  0  0
  3 26  1  0  0  0  0
  4 19  1  6  0  0  0
  4  1  1  0  0  0  0
  5  8  1  0  0  0  0
  6 23  1  0  0  0  0
  7  6  2  0  0  0  0
  9  4  1  0  0  0  0
 10  9  1  0  0  0  0
 11 12  1  0  0  0  0
 11  7  1  0  0  0  0
 12  2  2  0  0  0  0
 13 11  1  0  0  0  0
 13 10  1  0  0  0  0
 14 15  1  0  0  0  0
 15  3  1  0  0  0  0
 16  5  1  0  0  0  0
 16  3  2  0  0  0  0
 17 20  1  0  0  0  0
 17 18  2  0  0  0  0
 19 17  1  0  0  0  0
 20 22  1  0  0  0  0
 22 21  3  0  0  0  0
 23 25  2  0  0  0  0
 23 24  1  0  0  0  0
 26 27  1  0  0  0  0
 27 31  1  0  0  0  0
 28 33  1  0  0  0  0
 29 28  1  0  0  0  0
 30 32  1  0  0  0  0
 31 29  1  0  0  0  0
 31 30  2  0  0  0  0
 32 33  1  0  0  0  0
 33 35  1  1  0  0  0
 35 34  1  0  0  0  0
 35 36  1  1  0  0  0
M  END
>  <MODEL>
4

>  <REMARK>
 VINA RESULT:      -7.2      2.428      3.306
  Name = 
  8 active torsions:
  status: ('A' for Active; 'I' for Inactive)
    1  A    between atoms: C_4  and  C_19
    2  A    between atoms: C_6  and  C_34
    3  A    between atoms: C_7  and  N_24
    4  A    between atoms: C_8  and  C_32
    5  A    between atoms: C_10  and  C_13
    6  A    between atoms: C_19  and  C_33
    7  A    between atoms: N_25  and  C_28
    8  A    between atoms: N_25  and  C_34
                            x       y       z     vdW  Elec       q    Type
                         _______ _______ _______ _____ _____    ______ ____

>  <TORSDO>
F 8

$$$$
=
 OpenBabel11042411313D

 36 38  0  0  1  0  0  0  0  0999 V2000
  187.2620  177.2520  142.5830 C   0  0  0  0  0  2  0  0  0  0  0  0
  187.8770  177.9140  138.2690 C   0  0  0  0  0  0  0  0  0  0  0  0
  185.1260  178.4220  139.6670 C   0  0  0  0  0  0  0  0  0  0  0  0
  188.3400  178.0800  143.2680 C   0  0  2  0  0  3  0  0  0  0  0  0
  185.8180  179.2410  141.9820 C   0  0  0  0  0  2  0  0  0  0  0  0
  188.1970  176.5890  138.0280 C   0  0  0  0  0  0  0  0  0  0  0  0
  189.2890  176.2940  138.7560 N   0  0  0  0  0  0  0  0  0  0  0  0
  185.8940  177.9080  142.7210 C   0  0  0  0  0  2  0  0  0  0  0  0
  189.4350  178.4570  142.2710 C   0  0  0  0  0  2  0  0  0  0  0  0
  190.1890  177.2380  141.7550 C   0  0  0  0  0  2  0  0  0  0  0  0
  189.6100  177.4080  139.3960 N   0  0  0  0  0  0  0  0  0  0  0  0
  188.7780  178.4060  139.1370 N   0  0  0  0  0  0  0  0  0  0  0  0
  190.7040  177.4990  140.3500 C   0  0  0  0  0  2  0  0  0  0  0  0
  186.7100  178.6960  137.7520 C   0  0  0  0  0  2  0  0  0  0  0  0
  185.4230  178.2520  138.3790 C   0  0  0  0  0  3  0  0  0  0  0  0
  186.0500  179.0620  140.5540 N   0  0  0  0  0  2  0  0  0  0  0  0
  188.4000  177.5140  145.7360 C   0  0  0  0  0  0  0  0  0  0  0  0
  187.4210  178.2720  145.9700 O   0  0  0  0  0  0  0  0  0  0  0  0
  188.8890  177.3460  144.4030 N   0  0  0  0  0  2  0  0  0  0  0  0
  189.0340  176.7610  146.8520 C   0  0  0  0  0  2  0  0  0  0  0  0
  191.6430  176.7950  146.5920 N   0  0  0  0  0  0  0  0  0  0  0  0
  190.4900  176.7810  146.7050 C   0  0  0  0  0  0  0  0  0  0  0  0
  187.5020  175.6270  137.1580 C   0  0  0  0  0  0  0  0  0  0  0  0
  188.1170  175.1910  135.9510 N   0  0  0  0  0  1  0  0  0  0  0  0
  186.3650  175.1840  137.4690 O   0  0  0  0  0  0  0  0  0  0  0  0
  183.7940  177.9520  140.1520 C   0  0  0  0  0  2  0  0  0  0  0  0
  182.8910  177.7820  139.0240 N   0  0  0  0  0  2  0  0  0  0  0  0
  180.6970  179.9110  136.6600 C   0  0  0  0  0  2  0  0  0  0  0  0
  181.7050  178.8210  137.0220 C   0  0  0  0  0  2  0  0  0  0  0  0
  181.9230  179.9420  139.2350 C   0  0  0  0  0  3  0  0  0  0  0  0
  182.1330  178.8610  138.4740 C   0  0  0  0  0  0  0  0  0  0  0  0
  181.1200  181.1210  138.7660 C   0  0  0  0  0  2  0  0  0  0  0  0
  181.1440  181.2490  137.2430 C   0  0  2  0  0  3  0  0  0  0  0  0
  180.3770  183.4910  137.6090 O   0  0  0  0  0  1  0  0  0  0  0  0
  180.2220  182.3770  136.7840 C   0  0  1  0  0  3  0  0  0  0  0  0
  180.5430  182.7820  135.3550 C   0  0  0  0  0  1  0  0  0  0  0  0
  1  8  1  0  0  0  0
  1  4  1  0  0  0  0
  2 12  2  0  0  0  0
  3 26  1  0  0  0  0
  3 16  1  0  0  0  0
  4 19  1  1  0  0  0
  5  8  1  0  0  0  0
  6  2  1  0  0  0  0
  6  7  2  0  0  0  0
  7 11  1  0  0  0  0
  9  4  1  0  0  0  0
 10  9  1  0  0  0  0
 11 13  1  0  0  0  0
 12 11  1  0  0  0  0
 13 10  1  0  0  0  0
 14  2  1  0  0  0  0
 14 15  1  0  0  0  0
 15  3  2  0  0  0  0
 16  5  1  0  0  0  0
 17 18  2  0  0  0  0
 17 20  1  0  0  0  0
 19 17  1  0  0  0  0
 21 22  3  0  0  0  0
 22 20  1  0  0  0  0
 23 25  2  0  0  0  0
 23  6  1  0  0  0  0
 24 23  1  0  0  0  0
 27 26  1  0  0  0  0
 28 29  1  0  0  0  0
 28 33  1  0  0  0  0
 29 31  1  0  0  0  0
 31 27  1  0  0  0  0
 31 30  2  0  0  0  0
 32 30  1  0  0  0  0
 33 35  1  1  0  0  0
 33 32  1  0  0  0  0
 35 36  1  6  0  0  0
 35 34  1  0  0  0  0
M  END
>  <MODEL>
5

>  <REMARK>
 VINA RESULT:      -7.0      3.138      7.604
  Name = 
  8 active torsions:
  status: ('A' for Active; 'I' for Inactive)
    1  A    between atoms: C_4  and  C_19
    2  A    between atoms: C_6  and  C_34
    3  A    between atoms: C_7  and  N_24
    4  A    between atoms: C_8  and  C_32
    5  A    between atoms: C_10  and  C_13
    6  A    between atoms: C_19  and  C_33
    7  A    between atoms: N_25  and  C_28
    8  A    between atoms: N_25  and  C_34
                            x       y       z     vdW  Elec       q    Type
                         _______ _______ _______ _____ _____    ______ ____

>  <TORSDO>
F 8

$$$$
=
 OpenBabel11042411313D

 36 38  0  0  1  0  0  0  0  0999 V2000
  185.0420  177.9620  139.0780 C   0  0  0  0  0  2  0  0  0  0  0  0
  181.1910  176.6010  137.4240 C   0  0  0  0  0  0  0  0  0  0  0  0
  181.4140  179.0560  139.3490 C   0  0  0  0  0  0  0  0  0  0  0  0
  185.9370  178.1830  137.8660 C   0  0  2  0  0  3  0  0  0  0  0  0
  183.6730  180.0580  138.7150 C   0  0  0  0  0  2  0  0  0  0  0  0
  181.2810  175.3550  138.0200 C   0  0  0  0  0  0  0  0  0  0  0  0
  182.3890  174.7550  137.5460 N   0  0  0  0  0  0  0  0  0  0  0  0
  184.5800  179.2870  139.6700 C   0  0  0  0  0  2  0  0  0  0  0  0
  185.3550  177.4810  136.6400 C   0  0  0  0  0  2  0  0  0  0  0  0
  185.3330  175.9660  136.8010 C   0  0  0  0  0  2  0  0  0  0  0  0
  182.9270  175.6120  136.6920 N   0  0  0  0  0  0  0  0  0  0  0  0
  182.2410  176.7410  136.5960 N   0  0  0  0  0  0  0  0  0  0  0  0
  184.1850  175.3740  136.0020 C   0  0  0  0  0  2  0  0  0  0  0  0
  180.1780  177.6760  137.6690 C   0  0  0  0  0  2  0  0  0  0  0  0
  180.3600  178.3120  139.0140 C   0  0  0  0  0  2  0  0  0  0  0  0
  182.4680  179.2980  138.4090 N   0  0  0  0  0  0  0  0  0  0  0  0
  188.4530  178.4540  137.7700 C   0  0  0  0  0  0  0  0  0  0  0  0
  188.3470  179.5820  137.2180 O   0  0  0  0  0  0  0  0  0  0  0  0
  187.2890  177.7170  138.1510 N   0  0  0  0  0  2  0  0  0  0  0  0
  189.8040  177.8980  138.0590 C   0  0  0  0  0  2  0  0  0  0  0  0
  189.9510  177.1670  140.5730 N   0  0  0  0  0  0  0  0  0  0  0  0
  189.8870  177.4910  139.4630 C   0  0  0  0  0  0  0  0  0  0  0  0
  180.3740  174.7480  139.0070 C   0  0  0  0  0  0  0  0  0  0  0  0
  179.4180  173.7810  138.5890 N   0  0  0  0  0  1  0  0  0  0  0  0
  180.4320  175.0770  140.2210 O   0  0  0  0  0  0  0  0  0  0  0  0
  181.4520  179.6500  140.7180 C   0  0  0  0  0  2  0  0  0  0  0  0
  181.5740  178.5940  141.7110 N   0  0  0  0  0  2  0  0  0  0  0  0
  183.2350  178.9150  145.1860 C   0  0  0  0  0  2  0  0  0  0  0  0
  182.1750  179.1800  144.1170 C   0  0  0  0  0  2  0  0  0  0  0  0
  183.8050  178.2780  142.4640 C   0  0  0  0  0  3  0  0  0  0  0  0
  182.5470  178.6280  142.7560 C   0  0  0  0  0  0  0  0  0  0  0  0
  184.9010  178.2540  143.4920 C   0  0  0  0  0  2  0  0  0  0  0  0
  184.6220  179.2310  144.6330 C   0  0  2  0  0  3  0  0  0  0  0  0
  185.0760  178.9760  146.9750 O   0  0  0  0  0  1  0  0  0  0  0  0
  185.6830  179.0990  145.7250 C   0  0  1  0  0  3  0  0  0  0  0  0
  186.5490  177.8730  145.4830 C   0  0  0  0  0  1  0  0  0  0  0  0
  1  8  1  0  0  0  0
  2 14  1  0  0  0  0
  2  6  1  0  0  0  0
  3 26  1  0  0  0  0
  4 19  1  1  0  0  0
  4  1  1  0  0  0  0
  5  8  1  0  0  0  0
  6 23  1  0  0  0  0
  7  6  2  0  0  0  0
  9 10  1  0  0  0  0
  9  4  1  0  0  0  0
 11  7  1  0  0  0  0
 12 11  1  0  0  0  0
 12  2  2  0  0  0  0
 13 11  1  0  0  0  0
 13 10  1  0  0  0  0
 14 15  1  0  0  0  0
 15  3  1  0  0  0  0
 16  5  1  0  0  0  0
 16  3  2  0  0  0  0
 17 20  1  0  0  0  0
 17 19  1  0  0  0  0
 18 17  2  0  0  0  0
 20 22  1  0  0  0  0
 22 21  3  0  0  0  0
 23 25  2  0  0  0  0
 24 23  1  0  0  0  0
 26 27  1  0  0  0  0
 27 31  1  0  0  0  0
 29 28  1  0  0  0  0
 30 31  2  0  0  0  0
 30 32  1  0  0  0  0
 31 29  1  0  0  0  0
 32 33  1  0  0  0  0
 33 28  1  0  0  0  0
 33 35  1  1  0  0  0
 35 36  1  6  0  0  0
 35 34  1  0  0  0  0
M  END
>  <MODEL>
6

>  <REMARK>
 VINA RESULT:      -6.9      2.595      4.194
  Name = 
  8 active torsions:
  status: ('A' for Active; 'I' for Inactive)
    1  A    between atoms: C_4  and  C_19
    2  A    between atoms: C_6  and  C_34
    3  A    between atoms: C_7  and  N_24
    4  A    between atoms: C_8  and  C_32
    5  A    between atoms: C_10  and  C_13
    6  A    between atoms: C_19  and  C_33
    7  A    between atoms: N_25  and  C_28
    8  A    between atoms: N_25  and  C_34
                            x       y       z     vdW  Elec       q    Type
                         _______ _______ _______ _____ _____    ______ ____

>  <TORSDO>
F 8

$$$$
=
 OpenBabel11042411313D

 36 38  0  0  1  0  0  0  0  0999 V2000
  188.6130  174.1250  136.8820 C   0  0  0  0  0  2  0  0  0  0  0  0
  187.4450  178.3740  136.9040 C   0  0  0  0  0  0  0  0  0  0  0  0
  190.1670  177.3780  138.0800 C   0  0  0  0  0  0  0  0  0  0  0  0
  188.4990  173.6910  135.4280 C   0  0  2  0  0  3  0  0  0  0  0  0
  190.7560  175.4270  136.5460 C   0  0  0  0  0  2  0  0  0  0  0  0
  186.3290  178.1480  137.6910 C   0  0  0  0  0  0  0  0  0  0  0  0
  185.5220  177.3030  137.0220 N   0  0  0  0  0  0  0  0  0  0  0  0
  190.0710  174.2870  137.2950 C   0  0  0  0  0  2  0  0  0  0  0  0
  187.6580  174.6930  134.6380 C   0  0  0  0  0  2  0  0  0  0  0  0
  186.2120  174.7360  135.1170 C   0  0  0  0  0  2  0  0  0  0  0  0
  186.1370  177.0480  135.8760 N   0  0  0  0  0  0  0  0  0  0  0  0
  187.3020  177.6670  135.7700 N   0  0  0  0  0  0  0  0  0  0  0  0
  185.6260  176.1170  134.8820 C   0  0  0  0  0  2  0  0  0  0  0  0
  188.6600  179.1850  137.2300 C   0  0  0  0  0  2  0  0  0  0  0  0
  189.5070  178.5200  138.2730 C   0  0  0  0  0  2  0  0  0  0  0  0
  190.1030  176.7010  136.8190 N   0  0  0  0  0  0  0  0  0  0  0  0
  188.7210  171.2000  135.0290 C   0  0  0  0  0  0  0  0  0  0  0  0
  189.9660  171.3020  134.8600 O   0  0  0  0  0  0  0  0  0  0  0  0
  187.9330  172.3490  135.3490 N   0  0  0  0  0  2  0  0  0  0  0  0
  188.0700  169.8650  134.9280 C   0  0  0  0  0  2  0  0  0  0  0  0
  185.4630  170.1460  134.8730 N   0  0  0  0  0  0  0  0  0  0  0  0
  186.6140  170.0210  134.8990 C   0  0  0  0  0  0  0  0  0  0  0  0
  186.0270  178.6910  139.0240 C   0  0  0  0  0  0  0  0  0  0  0  0
  184.7670  179.3040  139.2720 N   0  0  0  0  0  1  0  0  0  0  0  0
  186.8740  178.6200  139.9540 O   0  0  0  0  0  0  0  0  0  0  0  0
  190.9940  176.8430  139.2010 C   0  0  0  0  0  2  0  0  0  0  0  0
  190.1290  176.3910  140.2800 N   0  0  0  0  0  2  0  0  0  0  0  0
  191.6100  177.9790  143.4770 C   0  0  0  0  0  2  0  0  0  0  0  0
  191.6410  177.4120  142.0580 C   0  0  0  0  0  2  0  0  0  0  0  0
  189.4090  176.4230  142.5440 C   0  0  0  0  0  3  0  0  0  0  0  0
  190.3360  176.7660  141.6420 C   0  0  0  0  0  0  0  0  0  0  0  0
  189.5140  176.7880  143.9970 C   0  0  0  0  0  2  0  0  0  0  0  0
  190.9690  176.9700  144.4260 C   0  0  2  0  0  3  0  0  0  0  0  0
  189.7790  177.8400  146.3180 O   0  0  0  0  0  1  0  0  0  0  0  0
  191.0450  177.4610  145.8710 C   0  0  1  0  0  3  0  0  0  0  0  0
  191.5730  176.3650  146.7820 C   0  0  0  0  0  1  0  0  0  0  0  0
  1  8  1  0  0  0  0
  2 14  1  0  0  0  0
  2  6  1  0  0  0  0
  3 15  1  0  0  0  0
  3 26  1  0  0  0  0
  4 19  1  1  0  0  0
  4  1  1  0  0  0  0
  5 16  1  0  0  0  0
  5  8  1  0  0  0  0
  6 23  1  0  0  0  0
  7  6  2  0  0  0  0
  9 10  1  0  0  0  0
  9  4  1  0  0  0  0
 11  7  1  0  0  0  0
 12 11  1  0  0  0  0
 12  2  2  0  0  0  0
 13 10  1  0  0  0  0
 13 11  1  0  0  0  0
 14 15  1  0  0  0  0
 16  3  2  0  0  0  0
 17 19  1  0  0  0  0
 18 17  2  0  0  0  0
 20 17  1  0  0  0  0
 21 22  3  0  0  0  0
 22 20  1  0  0  0  0
 23 24  1  0  0  0  0
 23 25  2  0  0  0  0
 26 27  1  0  0  0  0
 27 31  1  0  0  0  0
 28 33  1  0  0  0  0
 29 28  1  0  0  0  0
 30 32  1  0  0  0  0
 31 29  1  0  0  0  0
 31 30  2  0  0  0  0
 32 33  1  0  0  0  0
 33 35  1  1  0  0  0
 35 34  1  0  0  0  0
 35 36  1  1  0  0  0
M  END
>  <MODEL>
7

>  <REMARK>
 VINA RESULT:      -6.8      3.858      5.642
  Name = 
  8 active torsions:
  status: ('A' for Active; 'I' for Inactive)
    1  A    between atoms: C_4  and  C_19
    2  A    between atoms: C_6  and  C_34
    3  A    between atoms: C_7  and  N_24
    4  A    between atoms: C_8  and  C_32
    5  A    between atoms: C_10  and  C_13
    6  A    between atoms: C_19  and  C_33
    7  A    between atoms: N_25  and  C_28
    8  A    between atoms: N_25  and  C_34
                            x       y       z     vdW  Elec       q    Type
                         _______ _______ _______ _____ _____    ______ ____

>  <TORSDO>
F 8

$$$$
=
 OpenBabel11042411313D

 36 38  0  0  1  0  0  0  0  0999 V2000
  187.2870  177.2380  142.6250 C   0  0  0  0  0  2  0  0  0  0  0  0
  187.7850  177.9080  138.2980 C   0  0  0  0  0  0  0  0  0  0  0  0
  185.0690  178.4010  139.7680 C   0  0  0  0  0  0  0  0  0  0  0  0
  188.3800  178.0700  143.2820 C   0  0  2  0  0  3  0  0  0  0  0  0
  185.8190  179.2210  142.0650 C   0  0  0  0  0  2  0  0  0  0  0  0
  188.1040  176.5850  138.0460 C   0  0  0  0  0  0  0  0  0  0  0  0
  189.2170  176.2930  138.7450 N   0  0  0  0  0  0  0  0  0  0  0  0
  185.9200  177.8870  142.8000 C   0  0  0  0  0  2  0  0  0  0  0  0
  189.4460  178.4540  142.2570 C   0  0  0  0  0  2  0  0  0  0  0  0
  190.1910  177.2380  141.7200 C   0  0  0  0  0  2  0  0  0  0  0  0
  189.5490  177.4090  139.3770 N   0  0  0  0  0  0  0  0  0  0  0  0
  188.7060  178.4020  139.1420 N   0  0  0  0  0  0  0  0  0  0  0  0
  190.6680  177.5040  140.3020 C   0  0  0  0  0  2  0  0  0  0  0  0
  186.6010  178.6850  137.8120 C   0  0  0  0  0  2  0  0  0  0  0  0
  185.3330  178.2340  138.4730 C   0  0  0  0  0  3  0  0  0  0  0  0
  186.0140  179.0450  140.6310 N   0  0  0  0  0  2  0  0  0  0  0  0
  188.5070  177.5030  145.7470 C   0  0  0  0  0  0  0  0  0  0  0  0
  187.5310  178.2550  146.0080 O   0  0  0  0  0  0  0  0  0  0  0  0
  188.9610  177.3380  144.4010 N   0  0  0  0  0  2  0  0  0  0  0  0
  189.1740  176.7510  146.8450 C   0  0  0  0  0  2  0  0  0  0  0  0
  191.7720  176.7620  146.4920 N   0  0  0  0  0  0  0  0  0  0  0  0
  190.6250  176.7570  146.6470 C   0  0  0  0  0  0  0  0  0  0  0  0
  187.3910  175.6200  137.1940 C   0  0  0  0  0  0  0  0  0  0  0  0
  187.9000  175.3040  135.9030 N   0  0  0  0  0  1  0  0  0  0  0  0
  186.3320  175.0700  137.5940 O   0  0  0  0  0  0  0  0  0  0  0  0
  183.7530  177.9250  140.2870 C   0  0  0  0  0  2  0  0  0  0  0  0
  182.7810  177.8840  139.2050 N   0  0  0  0  0  2  0  0  0  0  0  0
  181.6030  174.6980  137.3620 C   0  0  0  0  0  2  0  0  0  0  0  0
  182.2360  176.0840  137.4860 C   0  0  0  0  0  2  0  0  0  0  0  0
  181.1550  176.2330  139.7240 C   0  0  0  0  0  3  0  0  0  0  0  0
  182.0620  176.7000  138.8590 C   0  0  0  0  0  0  0  0  0  0  0  0
  180.3600  174.9830  139.4720 C   0  0  0  0  0  2  0  0  0  0  0  0
  180.2070  174.7070  137.9770 C   0  0  2  0  0  3  0  0  0  0  0  0
  179.0150  173.3000  136.4430 O   0  0  0  0  0  1  0  0  0  0  0  0
  179.5050  173.3690  137.7480 C   0  0  1  0  0  3  0  0  0  0  0  0
  180.4700  172.2150  137.9650 C   0  0  0  0  0  1  0  0  0  0  0  0
  1  8  1  0  0  0  0
  1  4  1  0  0  0  0
  2 12  2  0  0  0  0
  3 26  1  0  0  0  0
  3 16  1  0  0  0  0
  4 19  1  1  0  0  0
  5  8  1  0  0  0  0
  6  2  1  0  0  0  0
  6  7  2  0  0  0  0
  7 11  1  0  0  0  0
  9  4  1  0  0  0  0
 10  9  1  0  0  0  0
 11 13  1  0  0  0  0
 12 11  1  0  0  0  0
 13 10  1  0  0  0  0
 14  2  1  0  0  0  0
 14 15  1  0  0  0  0
 15  3  2  0  0  0  0
 16  5  1  0  0  0  0
 17 18  2  0  0  0  0
 17 20  1  0  0  0  0
 19 17  1  0  0  0  0
 21 22  3  0  0  0  0
 22 20  1  0  0  0  0
 23 25  2  0  0  0  0
 23  6  1  0  0  0  0
 24 23  1  0  0  0  0
 27 26  1  0  0  0  0
 28 29  1  0  0  0  0
 28 33  1  0  0  0  0
 29 31  1  0  0  0  0
 31 27  1  0  0  0  0
 31 30  2  0  0  0  0
 32 30  1  0  0  0  0
 33 35  1  1  0  0  0
 33 32  1  0  0  0  0
 34 35  1  0  0  0  0
 35 36  1  6  0  0  0
M  END
>  <MODEL>
8

>  <REMARK>
 VINA RESULT:      -6.7      2.840      7.495
  Name = 
  8 active torsions:
  status: ('A' for Active; 'I' for Inactive)
    1  A    between atoms: C_4  and  C_19
    2  A    between atoms: C_6  and  C_34
    3  A    between atoms: C_7  and  N_24
    4  A    between atoms: C_8  and  C_32
    5  A    between atoms: C_10  and  C_13
    6  A    between atoms: C_19  and  C_33
    7  A    between atoms: N_25  and  C_28
    8  A    between atoms: N_25  and  C_34
                            x       y       z     vdW  Elec       q    Type
                         _______ _______ _______ _____ _____    ______ ____

>  <TORSDO>
F 8

$$$$
=
 OpenBabel11042411313D

 36 38  0  0  1  0  0  0  0  0999 V2000
  187.8370  175.9240  137.5940 C   0  0  0  0  0  2  0  0  0  0  0  0
  184.0040  178.0680  137.9600 C   0  0  0  0  0  0  0  0  0  0  0  0
  186.4190  178.6140  139.8710 C   0  0  0  0  0  0  0  0  0  0  0  0
  188.2720  176.1370  136.1500 C   0  0  2  0  0  3  0  0  0  0  0  0
  188.4310  178.2670  138.3410 C   0  0  0  0  0  2  0  0  0  0  0  0
  183.2860  176.9110  138.2090 C   0  0  0  0  0  0  0  0  0  0  0  0
  183.4290  176.1050  137.1400 N   0  0  0  0  0  0  0  0  0  0  0  0
  188.6650  176.7730  138.5490 C   0  0  0  0  0  2  0  0  0  0  0  0
  187.0920  176.6090  135.3020 C   0  0  0  0  0  2  0  0  0  0  0  0
  186.0000  175.5510  135.1980 C   0  0  0  0  0  2  0  0  0  0  0  0
  184.1940  176.7680  136.2860 N   0  0  0  0  0  0  0  0  0  0  0  0
  184.5700  177.9520  136.7470 N   0  0  0  0  0  0  0  0  0  0  0  0
  184.6460  176.2170  135.0190 C   0  0  0  0  0  2  0  0  0  0  0  0
  184.2170  179.2410  138.8660 C   0  0  0  0  0  2  0  0  0  0  0  0
  185.1250  178.9010  140.0090 C   0  0  0  0  0  2  0  0  0  0  0  0
  187.0360  178.6170  138.5780 N   0  0  0  0  0  0  0  0  0  0  0  0
  190.2270  174.5660  135.7950 C   0  0  0  0  0  0  0  0  0  0  0  0
  190.9870  175.2980  136.4840 O   0  0  0  0  0  0  0  0  0  0  0  0
  188.8510  174.9090  135.6160 N   0  0  0  0  0  2  0  0  0  0  0  0
  190.7580  173.3150  135.1870 C   0  0  0  0  0  2  0  0  0  0  0  0
  193.1360  172.7860  136.1560 N   0  0  0  0  0  0  0  0  0  0  0  0
  192.0860  173.0210  135.7300 C   0  0  0  0  0  0  0  0  0  0  0  0
  182.5040  176.5620  139.4040 C   0  0  0  0  0  0  0  0  0  0  0  0
  181.6390  177.5270  139.9930 N   0  0  0  0  0  1  0  0  0  0  0  0
  182.5920  175.4150  139.9170 O   0  0  0  0  0  0  0  0  0  0  0  0
  187.2110  178.3180  141.1010 C   0  0  0  0  0  2  0  0  0  0  0  0
  186.3200  178.2070  142.2470 N   0  0  0  0  0  2  0  0  0  0  0  0
  186.4410  177.5180  146.0470 C   0  0  0  0  0  2  0  0  0  0  0  0
  185.9280  178.1700  144.7640 C   0  0  0  0  0  2  0  0  0  0  0  0
  188.0260  177.3810  143.6790 C   0  0  0  0  0  3  0  0  0  0  0  0
  186.7830  177.8620  143.5520 C   0  0  0  0  0  0  0  0  0  0  0  0
  188.6050  176.9630  145.0010 C   0  0  0  0  0  2  0  0  0  0  0  0
  187.9510  177.7120  146.1620 C   0  0  2  0  0  3  0  0  0  0  0  0
  189.8300  176.9030  147.4140 O   0  0  0  0  0  1  0  0  0  0  0  0
  188.4650  177.1830  147.5000 C   0  0  1  0  0  3  0  0  0  0  0  0
  188.2490  178.2080  148.6000 C   0  0  0  0  0  1  0  0  0  0  0  0
  1  8  1  0  0  0  0
  2  6  1  0  0  0  0
  2 14  1  0  0  0  0
  3 15  1  0  0  0  0
  3 26  1  0  0  0  0
  4 19  1  6  0  0  0
  4  1  1  0  0  0  0
  5  8  1  0  0  0  0
  5 16  1  0  0  0  0
  6 23  1  0  0  0  0
  7  6  2  0  0  0  0
  9  4  1  0  0  0  0
 10  9  1  0  0  0  0
 11 12  1  0  0  0  0
 11  7  1  0  0  0  0
 12  2  2  0  0  0  0
 13 10  1  0  0  0  0
 13 11  1  0  0  0  0
 14 15  1  0  0  0  0
 16  3  2  0  0  0  0
 17 18  2  0  0  0  0
 19 17  1  0  0  0  0
 20 22  1  0  0  0  0
 20 17  1  0  0  0  0
 22 21  3  0  0  0  0
 23 25  2  0  0  0  0
 23 24  1  0  0  0  0
 26 27  1  0  0  0  0
 27 31  1  0  0  0  0
 28 33  1  0  0  0  0
 29 28  1  0  0  0  0
 30 32  1  0  0  0  0
 31 30  2  0  0  0  0
 31 29  1  0  0  0  0
 32 33  1  0  0  0  0
 33 35  1  1  0  0  0
 34 35  1  0  0  0  0
 35 36  1  1  0  0  0
M  END
>  <MODEL>
9

>  <REMARK>
 VINA RESULT:      -6.7      2.319      2.864
  Name = 
  8 active torsions:
  status: ('A' for Active; 'I' for Inactive)
    1  A    between atoms: C_4  and  C_19
    2  A    between atoms: C_6  and  C_34
    3  A    between atoms: C_7  and  N_24
    4  A    between atoms: C_8  and  C_32
    5  A    between atoms: C_10  and  C_13
    6  A    between atoms: C_19  and  C_33
    7  A    between atoms: N_25  and  C_28
    8  A    between atoms: N_25  and  C_34
                            x       y       z     vdW  Elec       q    Type
                         _______ _______ _______ _____ _____    ______ ____

>  <TORSDO>
F 8

$$$$
