=
 OpenBabel11042412593D

 42 47  0  0  1  0  0  0  0  0999 V2000
  189.1620  177.2650  145.2300 C   0  0  1  0  0  3  0  0  0  0  0  0
  185.8730  178.7330  142.6070 S   0  0  0  0  0  0  0  0  0  0  0  0
  184.9270  178.8470  144.1140 C   0  0  0  0  0  0  0  0  0  0  0  0
  187.8720  178.0430  145.5310 C   0  0  0  0  0  2  0  0  0  0  0  0
  189.1840  176.6450  143.8250 C   0  0  0  0  0  2  0  0  0  0  0  0
  185.4300  178.1780  145.1500 C   0  0  0  0  0  0  0  0  0  0  0  0
  184.8100  178.1830  146.5120 C   0  0  0  0  0  1  0  0  0  0  0  0
  186.6610  177.3910  144.8640 C   0  0  1  0  0  3  0  0  0  0  0  0
  188.2700  177.3930  142.8520 C   0  0  2  0  0  3  0  0  0  0  0  0
  186.8130  177.3470  143.3300 C   0  0  2  0  0  3  0  0  0  0  0  0
  188.7070  177.5350  140.5290 C   0  0  0  0  0  3  0  0  0  0  0  0
  188.3640  176.8170  141.5350 N   0  0  0  0  0  0  0  0  0  0  0  0
  190.1700  176.2690  138.9920 C   0  0  2  0  0  3  0  0  0  0  0  0
  188.7380  177.9930  138.1230 C   0  0  0  0  0  3  0  0  0  0  0  0
  190.3040  175.5050  137.6830 C   0  0  1  0  0  0  0  0  0  0  0  0
  188.8010  176.9310  139.1670 C   0  0  2  0  0  3  0  0  0  0  0  0
  189.1650  175.2810  136.8980 O   0  0  0  0  0  1  0  0  0  0  0  0
  189.8130  177.9720  137.3510 C   0  0  0  0  0  3  0  0  0  0  0  0
  190.8120  176.9370  137.7630 C   0  0  1  0  0  3  0  0  0  0  0  0
  191.3600  174.5050  137.6200 N   0  0  0  0  0  2  0  0  0  0  0  0
  193.7630  174.1870  137.5890 C   0  0  0  0  0  1  0  0  0  0  0  0
  192.6370  175.1990  137.5690 C   0  0  0  0  0  2  0  0  0  0  0  0
  190.3750  178.1660  145.4080 C   0  0  0  0  0  2  0  0  0  0  0  0
  191.6480  177.3510  145.5790 C   0  0  0  0  0  2  0  0  0  0  0  0
  191.6930  176.7670  146.8920 N   0  0  0  0  0  0  0  0  0  0  0  0
  192.2650  175.6350  147.0690 C   0  0  0  0  0  2  0  0  0  0  0  0
  183.6770  179.6690  144.1730 C   0  0  0  0  0  2  0  0  0  0  0  0
  182.4550  178.7830  144.0130 C   0  0  0  0  0  2  0  0  0  0  0  0
  181.4270  179.4930  143.1550 C   0  0  0  0  0  2  0  0  0  0  0  0
  182.2120  178.3820  141.1570 C   0  0  0  0  0  0  0  0  0  0  0  0
  179.7710  177.6010  140.2280 N   0  0  0  0  0  2  0  0  0  0  0  0
  183.0970  177.9270  140.3200 C   0  0  0  0  0  3  0  0  0  0  0  0
  179.8390  178.1610  141.5820 C   0  0  0  0  0  2  0  0  0  0  0  0
  183.7140  176.8140  138.1560 N   0  0  0  0  0  0  0  0  0  0  0  0
  181.2770  175.3710  138.0020 C   0  0  0  0  0  2  0  0  0  0  0  0
  183.5320  175.8070  137.1170 C   0  0  0  0  0  2  0  0  0  0  0  0
  180.4990  176.3350  140.2150 C   0  0  0  0  0  2  0  0  0  0  0  0
  182.0630  175.7240  136.7490 C   0  0  0  0  0  2  0  0  0  0  0  0
  181.5470  176.3280  139.1320 C   0  0  0  0  0  0  0  0  0  0  0  0
  184.8900  177.6660  138.0600 C   0  0  0  0  0  1  0  0  0  0  0  0
  182.7430  176.9910  139.2130 C   0  0  0  0  0  0  0  0  0  0  0  0
  181.1980  178.7330  141.8950 C   0  0  0  0  0  0  0  0  0  0  0  0
  1 23  1  6  0  0  0
  1  4  1  0  0  0  0
  2  3  1  0  0  0  0
  3 27  1  0  0  0  0
  3  6  2  0  0  0  0
  5  1  1  0  0  0  0
  6  7  1  0  0  0  0
  8  6  1  0  0  0  0
  8  4  1  1  0  0  0
  9 12  1  6  0  0  0
  9 10  1  0  0  0  0
  9  5  1  0  0  0  0
 10  2  1  6  0  0  0
 10  8  1  0  0  0  0
 11 12  2  0  0  0  0
 13 16  1  0  0  0  0
 14 16  1  0  0  0  0
 15 19  1  0  0  0  0
 15 13  1  0  0  0  0
 16 11  1  0  0  0  0
 17 15  1  0  0  0  0
 18 19  1  0  0  0  0
 18 14  2  0  0  0  0
 19 13  1  0  0  0  0
 20 15  1  0  0  0  0
 22 21  1  0  0  0  0
 22 20  1  0  0  0  0
 23 24  1  0  0  0  0
 24 25  1  0  0  0  0
 25 26  2  0  0  0  0
 28 27  1  0  0  0  0
 29 28  1  0  0  0  0
 30 42  2  0  0  0  0
 31 33  1  0  0  0  0
 32 30  2  0  0  0  0
 33 42  1  0  0  0  0
 34 41  1  0  0  0  0
 35 39  1  0  0  0  0
 36 34  1  0  0  0  0
 37 31  1  0  0  0  0
 38 36  1  0  0  0  0
 38 35  1  0  0  0  0
 39 41  2  0  0  0  0
 39 37  1  0  0  0  0
 40 34  1  0  0  0  0
 41 32  1  0  0  0  0
 42 29  1  0  0  0  0
M  END
>  <MODEL>
1

>  <REMARK>
 VINA RESULT:      -8.7      0.000      0.000
  Name = 
  11 active torsions:
  status: ('A' for Active; 'I' for Inactive)
    1  A    between atoms: N_1  and  C_9
    2  A    between atoms: C_3  and  C_6
    3  A    between atoms: C_6  and  C_9
    4  A    between atoms: C_10  and  C_18
    5  A    between atoms: C_10  and  C_35
    6  A    between atoms: C_11  and  C_35
    7  A    between atoms: C_16  and  C_27
    8  A    between atoms: C_18  and  C_41
    9  A    between atoms: N_21  and  C_25
   10  A    between atoms: N_21  and  C_40
   11  A    between atoms: N_29  and  C_38
                            x       y       z     vdW  Elec       q    Type
                         _______ _______ _______ _____ _____    ______ ____

>  <TORSDO>
F 11

$$$$
=
 OpenBabel11042412593D

 42 47  0  0  1  0  0  0  0  0999 V2000
  180.4790  178.1580  137.3860 C   0  0  1  0  0  3  0  0  0  0  0  0
  183.2480  177.9260  140.8700 S   0  0  0  0  0  0  0  0  0  0  0  0
  181.9660  178.7980  141.7520 C   0  0  0  0  0  0  0  0  0  0  0  0
  180.2510  178.3150  138.8970 C   0  0  0  0  0  2  0  0  0  0  0  0
  181.9610  178.2070  136.9870 C   0  0  0  0  0  2  0  0  0  0  0  0
  181.0460  179.3800  140.9850 C   0  0  0  0  0  0  0  0  0  0  0  0
  179.8670  180.1210  141.5330 C   0  0  0  0  0  1  0  0  0  0  0  0
  181.2740  179.2660  139.5180 C   0  0  1  0  0  3  0  0  0  0  0  0
  182.8810  177.7980  138.1400 C   0  0  2  0  0  3  0  0  0  0  0  0
  182.7150  178.7500  139.3320 C   0  0  2  0  0  3  0  0  0  0  0  0
  184.8700  176.7000  137.4730 C   0  0  0  0  0  3  0  0  0  0  0  0
  184.2550  177.8010  137.7080 N   0  0  0  0  0  0  0  0  0  0  0  0
  187.0740  177.7610  137.8190 C   0  0  2  0  0  3  0  0  0  0  0  0
  186.3880  177.1370  135.6020 C   0  0  0  0  0  3  0  0  0  0  0  0
  188.5670  177.7450  137.5290 C   0  0  1  0  0  0  0  0  0  0  0  0
  186.2950  176.7100  137.0260 C   0  0  2  0  0  3  0  0  0  0  0  0
  189.1130  176.6880  136.7890 O   0  0  0  0  0  1  0  0  0  0  0  0
  187.1580  178.2060  135.4700 C   0  0  0  0  0  3  0  0  0  0  0  0
  187.6750  178.7220  136.7770 C   0  0  1  0  0  3  0  0  0  0  0  0
  189.4290  178.3750  138.5200 N   0  0  0  0  0  2  0  0  0  0  0  0
  189.7390  177.2270  140.6330 C   0  0  0  0  0  1  0  0  0  0  0  0
  188.8450  178.1500  139.8340 C   0  0  0  0  0  2  0  0  0  0  0  0
  179.8610  176.8590  136.8910 C   0  0  0  0  0  2  0  0  0  0  0  0
  179.6040  175.8960  138.0400 C   0  0  0  0  0  2  0  0  0  0  0  0
  180.5310  174.7990  137.9870 N   0  0  0  0  0  0  0  0  0  0  0  0
  180.0960  173.5940  137.9700 C   0  0  0  0  0  2  0  0  0  0  0  0
  181.9500  178.8250  143.2490 C   0  0  0  0  0  2  0  0  0  0  0  0
  183.2070  179.4880  143.7790 C   0  0  0  0  0  2  0  0  0  0  0  0
  183.8010  178.6350  144.8820 C   0  0  0  0  0  2  0  0  0  0  0  0
  186.0520  178.1580  145.6230 C   0  0  0  0  0  0  0  0  0  0  0  0
  187.2220  178.1680  143.1620 N   0  0  0  0  0  2  0  0  0  0  0  0
  186.9850  177.8730  146.4830 C   0  0  0  0  0  3  0  0  0  0  0  0
  185.7570  178.2110  143.2210 C   0  0  0  0  0  2  0  0  0  0  0  0
  189.3940  177.4780  147.0690 N   0  0  0  0  0  0  0  0  0  0  0  0
  190.0680  176.6110  144.4540 C   0  0  0  0  0  2  0  0  0  0  0  0
  190.7200  176.9330  146.8050 C   0  0  0  0  0  2  0  0  0  0  0  0
  187.6680  176.8780  143.6830 C   0  0  0  0  0  2  0  0  0  0  0  0
  191.1110  177.2320  145.3710 C   0  0  0  0  0  2  0  0  0  0  0  0
  188.6730  177.0640  144.7900 C   0  0  0  0  0  0  0  0  0  0  0  0
  189.1730  178.0990  148.3670 C   0  0  0  0  0  1  0  0  0  0  0  0
  188.3530  177.4460  146.0650 C   0  0  0  0  0  0  0  0  0  0  0  0
  185.2500  178.4020  144.6270 C   0  0  0  0  0  0  0  0  0  0  0  0
  1 23  1  1  0  0  0
  1  4  1  0  0  0  0
  2  3  1  0  0  0  0
  3 27  1  0  0  0  0
  5  1  1  0  0  0  0
  5  9  1  0  0  0  0
  6  7  1  0  0  0  0
  6  3  2  0  0  0  0
  8  4  1  1  0  0  0
  8  6  1  0  0  0  0
  9 12  1  6  0  0  0
  9 10  1  0  0  0  0
 10  8  1  0  0  0  0
 10  2  1  1  0  0  0
 11 12  2  0  0  0  0
 14 16  1  0  0  0  0
 15 13  1  0  0  0  0
 15 20  1  0  0  0  0
 16 11  1  0  0  0  0
 16 13  1  0  0  0  0
 17 15  1  0  0  0  0
 18 14  2  0  0  0  0
 18 19  1  0  0  0  0
 19 15  1  0  0  0  0
 19 13  1  0  0  0  0
 20 22  1  0  0  0  0
 22 21  1  0  0  0  0
 23 24  1  0  0  0  0
 25 24  1  0  0  0  0
 26 25  2  0  0  0  0
 27 28  1  0  0  0  0
 28 29  1  0  0  0  0
 30 32  2  0  0  0  0
 31 33  1  0  0  0  0
 31 37  1  0  0  0  0
 33 42  1  0  0  0  0
 34 40  1  0  0  0  0
 35 39  1  0  0  0  0
 35 38  1  0  0  0  0
 36 34  1  0  0  0  0
 37 39  1  0  0  0  0
 38 36  1  0  0  0  0
 39 41  2  0  0  0  0
 41 32  1  0  0  0  0
 41 34  1  0  0  0  0
 42 29  1  0  0  0  0
 42 30  2  0  0  0  0
M  END
>  <MODEL>
2

>  <REMARK>
 VINA RESULT:      -8.6      2.112      8.113
  Name = 
  11 active torsions:
  status: ('A' for Active; 'I' for Inactive)
    1  A    between atoms: N_1  and  C_9
    2  A    between atoms: C_3  and  C_6
    3  A    between atoms: C_6  and  C_9
    4  A    between atoms: C_10  and  C_18
    5  A    between atoms: C_10  and  C_35
    6  A    between atoms: C_11  and  C_35
    7  A    between atoms: C_16  and  C_27
    8  A    between atoms: C_18  and  C_41
    9  A    between atoms: N_21  and  C_25
   10  A    between atoms: N_21  and  C_40
   11  A    between atoms: N_29  and  C_38
                            x       y       z     vdW  Elec       q    Type
                         _______ _______ _______ _____ _____    ______ ____

>  <TORSDO>
F 11

$$$$
=
 OpenBabel11042412593D

 42 47  0  0  1  0  0  0  0  0999 V2000
  181.2820  177.4030  138.9090 C   0  0  1  0  0  3  0  0  0  0  0  0
  184.4410  178.1890  141.9510 S   0  0  0  0  0  0  0  0  0  0  0  0
  183.0990  178.7660  142.9740 C   0  0  0  0  0  0  0  0  0  0  0  0
  181.2200  177.6190  140.4280 C   0  0  0  0  0  2  0  0  0  0  0  0
  182.6310  177.8050  138.2930 C   0  0  0  0  0  2  0  0  0  0  0  0
  181.9640  179.0220  142.3260 C   0  0  0  0  0  0  0  0  0  0  0  0
  180.7110  179.4720  143.0100 C   0  0  0  0  0  1  0  0  0  0  0  0
  182.0200  178.8520  140.8490 C   0  0  1  0  0  3  0  0  0  0  0  0
  183.7700  177.7460  139.3150 C   0  0  2  0  0  3  0  0  0  0  0  0
  183.5100  178.7160  140.4740 C   0  0  2  0  0  3  0  0  0  0  0  0
  185.5030  177.3270  137.7560 C   0  0  0  0  0  3  0  0  0  0  0  0
  185.0230  178.0720  138.6840 N   0  0  0  0  0  0  0  0  0  0  0  0
  187.6980  176.4290  137.0630 C   0  0  2  0  0  3  0  0  0  0  0  0
  187.5460  178.6660  137.9310 C   0  0  0  0  0  3  0  0  0  0  0  0
  188.9910  176.6510  136.2930 C   0  0  1  0  0  0  0  0  0  0  0  0
  186.8030  177.6700  137.1080 C   0  0  2  0  0  3  0  0  0  0  0  0
  189.1480  177.8170  135.5330 O   0  0  0  0  0  1  0  0  0  0  0  0
  188.7380  178.2070  138.2800 C   0  0  0  0  0  3  0  0  0  0  0  0
  188.9910  176.8110  137.8060 C   0  0  1  0  0  3  0  0  0  0  0  0
  189.6800  175.4570  135.8240 N   0  0  0  0  0  2  0  0  0  0  0  0
  191.1470  173.8930  136.9550 C   0  0  0  0  0  1  0  0  0  0  0  0
  189.7700  174.5210  136.9340 C   0  0  0  0  0  2  0  0  0  0  0  0
  180.9790  175.9520  138.5690 C   0  0  0  0  0  2  0  0  0  0  0  0
  179.4820  175.7150  138.4410 C   0  0  0  0  0  2  0  0  0  0  0  0
  179.1130  174.4890  139.0950 N   0  0  0  0  0  0  0  0  0  0  0  0
  179.0550  174.4380  140.3730 C   0  0  0  0  0  2  0  0  0  0  0  0
  183.2710  178.9100  144.4540 C   0  0  0  0  0  2  0  0  0  0  0  0
  184.7350  179.1170  144.7980 C   0  0  0  0  0  2  0  0  0  0  0  0
  185.0060  178.5870  146.1920 C   0  0  0  0  0  2  0  0  0  0  0  0
  187.0690  177.8530  145.1680 C   0  0  0  0  0  0  0  0  0  0  0  0
  188.2950  177.0130  147.4530 N   0  0  0  0  0  2  0  0  0  0  0  0
  187.9150  177.6700  144.1980 C   0  0  0  0  0  3  0  0  0  0  0  0
  187.0400  177.7620  147.5870 C   0  0  0  0  0  2  0  0  0  0  0  0
  190.0820  176.7700  143.3050 N   0  0  0  0  0  0  0  0  0  0  0  0
  191.3810  176.9190  145.8210 C   0  0  0  0  0  2  0  0  0  0  0  0
  191.5120  176.5000  143.4000 C   0  0  0  0  0  2  0  0  0  0  0  0
  189.3090  177.9060  146.8980 C   0  0  0  0  0  2  0  0  0  0  0  0
  191.8250  175.9180  144.7650 C   0  0  0  0  0  2  0  0  0  0  0  0
  189.9350  177.3090  145.6650 C   0  0  0  0  0  0  0  0  0  0  0  0
  189.4290  176.4740  142.0370 C   0  0  0  0  0  1  0  0  0  0  0  0
  189.3310  177.2650  144.4370 C   0  0  0  0  0  0  0  0  0  0  0  0
  186.3690  177.9900  146.2570 C   0  0  0  0  0  0  0  0  0  0  0  0
  1 23  1  1  0  0  0
  1  4  1  0  0  0  0
  2  3  1  0  0  0  0
  3 27  1  0  0  0  0
  5  1  1  0  0  0  0
  5  9  1  0  0  0  0
  6  3  2  0  0  0  0
  6  7  1  0  0  0  0
  8  4  1  1  0  0  0
  8  6  1  0  0  0  0
  9 12  1  6  0  0  0
  9 10  1  0  0  0  0
 10  8  1  0  0  0  0
 10  2  1  1  0  0  0
 11 12  2  0  0  0  0
 13 16  1  0  0  0  0
 13 19  1  0  0  0  0
 14 18  2  0  0  0  0
 15 13  1  0  0  0  0
 15 19  1  0  0  0  0
 16 11  1  0  0  0  0
 16 14  1  0  0  0  0
 17 15  1  0  0  0  0
 19 18  1  0  0  0  0
 20 15  1  0  0  0  0
 20 22  1  0  0  0  0
 22 21  1  0  0  0  0
 24 23  1  0  0  0  0
 24 25  1  0  0  0  0
 25 26  2  0  0  0  0
 27 28  1  0  0  0  0
 28 29  1  0  0  0  0
 29 42  1  0  0  0  0
 30 42  2  0  0  0  0
 31 33  1  0  0  0  0
 32 41  1  0  0  0  0
 32 30  2  0  0  0  0
 34 36  1  0  0  0  0
 34 41  1  0  0  0  0
 36 38  1  0  0  0  0
 37 31  1  0  0  0  0
 38 35  1  0  0  0  0
 39 35  1  0  0  0  0
 39 37  1  0  0  0  0
 40 34  1  0  0  0  0
 41 39  2  0  0  0  0
 42 33  1  0  0  0  0
M  END
>  <MODEL>
3

>  <REMARK>
 VINA RESULT:      -8.6      1.699      7.713
  Name = 
  11 active torsions:
  status: ('A' for Active; 'I' for Inactive)
    1  A    between atoms: N_1  and  C_9
    2  A    between atoms: C_3  and  C_6
    3  A    between atoms: C_6  and  C_9
    4  A    between atoms: C_10  and  C_18
    5  A    between atoms: C_10  and  C_35
    6  A    between atoms: C_11  and  C_35
    7  A    between atoms: C_16  and  C_27
    8  A    between atoms: C_18  and  C_41
    9  A    between atoms: N_21  and  C_25
   10  A    between atoms: N_21  and  C_40
   11  A    between atoms: N_29  and  C_38
                            x       y       z     vdW  Elec       q    Type
                         _______ _______ _______ _____ _____    ______ ____

>  <TORSDO>
F 11

$$$$
=
 OpenBabel11042412593D

 42 47  0  0  1  0  0  0  0  0999 V2000
  191.7790  175.9830  137.5680 C   0  0  1  0  0  3  0  0  0  0  0  0
  188.0590  177.6110  139.4030 S   0  0  0  0  0  0  0  0  0  0  0  0
  187.5900  178.0110  137.7300 C   0  0  0  0  0  0  0  0  0  0  0  0
  190.3990  176.3150  136.9800 C   0  0  0  0  0  2  0  0  0  0  0  0
  192.0020  176.5760  138.9670 C   0  0  0  0  0  2  0  0  0  0  0  0
  188.5840  177.9930  136.8440 C   0  0  0  0  0  0  0  0  0  0  0  0
  188.3890  178.2560  135.3830 C   0  0  0  0  0  1  0  0  0  0  0  0
  189.9330  177.7080  137.4040 C   0  0  1  0  0  3  0  0  0  0  0  0
  190.6830  176.8220  139.7040 C   0  0  2  0  0  3  0  0  0  0  0  0
  189.8100  177.8230  138.9370 C   0  0  2  0  0  3  0  0  0  0  0  0
  191.1390  176.5150  142.0080 C   0  0  0  0  0  3  0  0  0  0  0  0
  190.9390  177.3220  141.0310 N   0  0  0  0  0  0  0  0  0  0  0  0
  190.1450  176.8840  144.2390 C   0  0  2  0  0  3  0  0  0  0  0  0
  191.6710  178.5050  143.3330 C   0  0  0  0  0  3  0  0  0  0  0  0
  190.3640  177.2640  145.6960 C   0  0  1  0  0  0  0  0  0  0  0  0
  191.4020  177.0400  143.3800 C   0  0  2  0  0  3  0  0  0  0  0  0
  191.6670  177.4860  146.1610 O   0  0  0  0  0  1  0  0  0  0  0  0
  190.8170  179.1750  144.0900 C   0  0  0  0  0  3  0  0  0  0  0  0
  189.7920  178.2970  144.7360 C   0  0  1  0  0  3  0  0  0  0  0  0
  189.3980  176.7480  146.6550 N   0  0  0  0  0  2  0  0  0  0  0  0
  188.9530  178.2530  148.5030 C   0  0  0  0  0  1  0  0  0  0  0  0
  188.5630  177.8540  147.0960 C   0  0  0  0  0  2  0  0  0  0  0  0
  191.9850  174.4770  137.6140 C   0  0  0  0  0  2  0  0  0  0  0  0
  192.4970  173.9480  136.2830 C   0  0  0  0  0  2  0  0  0  0  0  0
  193.9140  173.7100  136.3540 N   0  0  0  0  0  0  0  0  0  0  0  0
  194.4600  173.4250  137.4770 C   0  0  0  0  0  2  0  0  0  0  0  0
  186.1650  178.3140  137.3850 C   0  0  0  0  0  2  0  0  0  0  0  0
  185.2930  177.0970  137.6270 C   0  0  0  0  0  2  0  0  0  0  0  0
  183.8340  177.4850  137.4930 C   0  0  0  0  0  2  0  0  0  0  0  0
  183.9480  177.9610  139.8600 C   0  0  0  0  0  0  0  0  0  0  0  0
  181.3060  177.5700  140.4060 N   0  0  0  0  0  2  0  0  0  0  0  0
  184.5140  178.3200  140.9750 C   0  0  0  0  0  3  0  0  0  0  0  0
  181.7150  177.5970  138.9980 C   0  0  0  0  0  2  0  0  0  0  0  0
  184.4530  178.6870  143.4570 N   0  0  0  0  0  0  0  0  0  0  0  0
  181.6580  179.1640  143.4930 C   0  0  0  0  0  2  0  0  0  0  0  0
  183.8100  179.1340  144.6870 C   0  0  0  0  0  2  0  0  0  0  0  0
  181.5210  178.8980  140.9760 C   0  0  0  0  0  2  0  0  0  0  0  0
  182.3810  178.6280  144.7200 C   0  0  0  0  0  2  0  0  0  0  0  0
  182.3740  178.8210  142.2150 C   0  0  0  0  0  0  0  0  0  0  0  0
  185.8410  178.2570  143.5480 C   0  0  0  0  0  1  0  0  0  0  0  0
  183.7300  178.6280  142.2070 C   0  0  0  0  0  0  0  0  0  0  0  0
  183.2140  177.6200  138.8400 C   0  0  0  0  0  0  0  0  0  0  0  0
  1 23  1  1  0  0  0
  1  5  1  0  0  0  0
  3  2  1  0  0  0  0
  4  1  1  0  0  0  0
  5  9  1  0  0  0  0
  6  8  1  0  0  0  0
  6  3  2  0  0  0  0
  7  6  1  0  0  0  0
  8  4  1  1  0  0  0
  8 10  1  0  0  0  0
  9 12  1  1  0  0  0
 10  2  1  6  0  0  0
 10  9  1  0  0  0  0
 11 16  1  0  0  0  0
 12 11  2  0  0  0  0
 13 19  1  0  0  0  0
 13 15  1  0  0  0  0
 14 16  1  0  0  0  0
 14 18  2  0  0  0  0
 15 17  1  0  0  0  0
 15 20  1  0  0  0  0
 16 13  1  0  0  0  0
 18 19  1  0  0  0  0
 19 15  1  0  0  0  0
 20 22  1  0  0  0  0
 22 21  1  0  0  0  0
 24 25  1  0  0  0  0
 24 23  1  0  0  0  0
 25 26  2  0  0  0  0
 27 28  1  0  0  0  0
 27  3  1  0  0  0  0
 29 28  1  0  0  0  0
 29 42  1  0  0  0  0
 30 32  2  0  0  0  0
 31 37  1  0  0  0  0
 32 41  1  0  0  0  0
 33 31  1  0  0  0  0
 34 40  1  0  0  0  0
 34 36  1  0  0  0  0
 35 38  1  0  0  0  0
 36 38  1  0  0  0  0
 37 39  1  0  0  0  0
 39 35  1  0  0  0  0
 41 39  2  0  0  0  0
 41 34  1  0  0  0  0
 42 33  1  0  0  0  0
 42 30  2  0  0  0  0
M  END
>  <MODEL>
4

>  <REMARK>
 VINA RESULT:      -8.1      2.381      7.198
  Name = 
  11 active torsions:
  status: ('A' for Active; 'I' for Inactive)
    1  A    between atoms: N_1  and  C_9
    2  A    between atoms: C_3  and  C_6
    3  A    between atoms: C_6  and  C_9
    4  A    between atoms: C_10  and  C_18
    5  A    between atoms: C_10  and  C_35
    6  A    between atoms: C_11  and  C_35
    7  A    between atoms: C_16  and  C_27
    8  A    between atoms: C_18  and  C_41
    9  A    between atoms: N_21  and  C_25
   10  A    between atoms: N_21  and  C_40
   11  A    between atoms: N_29  and  C_38
                            x       y       z     vdW  Elec       q    Type
                         _______ _______ _______ _____ _____    ______ ____

>  <TORSDO>
F 11

$$$$
=
 OpenBabel11042412593D

 42 47  0  0  1  0  0  0  0  0999 V2000
  191.5360  177.4400  144.7980 C   0  0  1  0  0  3  0  0  0  0  0  0
  189.0110  176.7240  141.1970 S   0  0  0  0  0  0  0  0  0  0  0  0
  190.5350  176.8830  140.2850 C   0  0  0  0  0  0  0  0  0  0  0  0
  191.8820  177.0020  143.3670 C   0  0  0  0  0  2  0  0  0  0  0  0
  190.1120  177.9970  144.9360 C   0  0  0  0  0  2  0  0  0  0  0  0
  191.5410  177.4420  140.9560 C   0  0  0  0  0  0  0  0  0  0  0  0
  192.9110  177.6240  140.3820 C   0  0  0  0  0  1  0  0  0  0  0  0
  191.2110  177.9040  142.3310 C   0  0  1  0  0  3  0  0  0  0  0  0
  189.1770  177.4610  143.8490 C   0  0  2  0  0  3  0  0  0  0  0  0
  189.6740  177.8660  142.4560 C   0  0  2  0  0  3  0  0  0  0  0  0
  186.8940  177.1720  144.4070 C   0  0  0  0  0  3  0  0  0  0  0  0
  187.8410  177.9590  144.0490 N   0  0  0  0  0  0  0  0  0  0  0  0
  184.9810  178.2730  143.2970 C   0  0  2  0  0  3  0  0  0  0  0  0
  185.5250  178.8370  145.5690 C   0  0  0  0  0  3  0  0  0  0  0  0
  183.5240  178.7040  143.3760 C   0  0  1  0  0  0  0  0  0  0  0  0
  185.5110  177.6960  144.6110 C   0  0  2  0  0  3  0  0  0  0  0  0
  182.7610  178.3460  144.4940 O   0  0  0  0  0  1  0  0  0  0  0  0
  185.0150  179.9290  145.0230 C   0  0  0  0  0  3  0  0  0  0  0  0
  184.6180  179.7400  143.5920 C   0  0  1  0  0  3  0  0  0  0  0  0
  182.8190  178.8450  142.1090 N   0  0  0  0  0  2  0  0  0  0  0  0
  182.3700  177.4230  140.1980 C   0  0  0  0  0  1  0  0  0  0  0  0
  183.4290  177.9390  141.1490 C   0  0  0  0  0  2  0  0  0  0  0  0
  191.7270  176.2810  145.7660 C   0  0  0  0  0  2  0  0  0  0  0  0
  191.1020  176.5830  147.1190 C   0  0  0  0  0  2  0  0  0  0  0  0
  192.1210  176.6720  148.1290 N   0  0  0  0  0  0  0  0  0  0  0  0
  192.7980  175.6340  148.4490 C   0  0  0  0  0  2  0  0  0  0  0  0
  190.6400  176.3850  138.8760 C   0  0  0  0  0  2  0  0  0  0  0  0
  190.2150  177.4670  137.9010 C   0  0  0  0  0  2  0  0  0  0  0  0
  189.8540  176.8350  136.5720 C   0  0  0  0  0  2  0  0  0  0  0  0
  187.6920  175.7630  136.7190 C   0  0  0  0  0  0  0  0  0  0  0  0
  186.2190  177.8500  135.7680 N   0  0  0  0  0  2  0  0  0  0  0  0
  186.8540  174.8140  137.0150 C   0  0  0  0  0  3  0  0  0  0  0  0
  187.6330  178.0950  136.0710 C   0  0  0  0  0  2  0  0  0  0  0  0
  184.5410  173.8370  137.0070 N   0  0  0  0  0  0  0  0  0  0  0  0
  183.2800  176.3760  136.9430 C   0  0  0  0  0  2  0  0  0  0  0  0
  183.0930  173.9310  137.1460 C   0  0  0  0  0  2  0  0  0  0  0  0
  185.5230  177.5570  137.0180 C   0  0  0  0  0  2  0  0  0  0  0  0
  182.5910  175.1410  136.3830 C   0  0  0  0  0  2  0  0  0  0  0  0
  184.7800  176.2490  136.9250 C   0  0  0  0  0  0  0  0  0  0  0  0
  185.1110  172.5080  136.8340 C   0  0  0  0  0  1  0  0  0  0  0  0
  185.3750  175.0180  136.9920 C   0  0  0  0  0  0  0  0  0  0  0  0
  188.3750  176.8240  136.3960 C   0  0  0  0  0  0  0  0  0  0  0  0
  1  5  1  0  0  0  0
  1 23  1  1  0  0  0
  3  6  2  0  0  0  0
  3  2  1  0  0  0  0
  4  1  1  0  0  0  0
  6  8  1  0  0  0  0
  7  6  1  0  0  0  0
  8 10  1  0  0  0  0
  8  4  1  1  0  0  0
  9 12  1  1  0  0  0
  9  5  1  0  0  0  0
 10  2  1  6  0  0  0
 10  9  1  0  0  0  0
 11 16  1  0  0  0  0
 12 11  2  0  0  0  0
 13 15  1  0  0  0  0
 13 19  1  0  0  0  0
 13 16  1  0  0  0  0
 15 19  1  0  0  0  0
 15 17  1  0  0  0  0
 16 14  1  0  0  0  0
 18 14  2  0  0  0  0
 19 18  1  0  0  0  0
 20 15  1  0  0  0  0
 21 22  1  0  0  0  0
 22 20  1  0  0  0  0
 23 24  1  0  0  0  0
 24 25  1  0  0  0  0
 25 26  2  0  0  0  0
 27  3  1  0  0  0  0
 28 27  1  0  0  0  0
 29 28  1  0  0  0  0
 30 32  2  0  0  0  0
 31 33  1  0  0  0  0
 31 37  1  0  0  0  0
 33 42  1  0  0  0  0
 34 36  1  0  0  0  0
 38 35  1  0  0  0  0
 38 36  1  0  0  0  0
 39 35  1  0  0  0  0
 39 41  2  0  0  0  0
 39 37  1  0  0  0  0
 40 34  1  0  0  0  0
 41 34  1  0  0  0  0
 41 32  1  0  0  0  0
 42 29  1  0  0  0  0
 42 30  2  0  0  0  0
M  END
>  <MODEL>
5

>  <REMARK>
 VINA RESULT:      -8.0      2.643      6.853
  Name = 
  11 active torsions:
  status: ('A' for Active; 'I' for Inactive)
    1  A    between atoms: N_1  and  C_9
    2  A    between atoms: C_3  and  C_6
    3  A    between atoms: C_6  and  C_9
    4  A    between atoms: C_10  and  C_18
    5  A    between atoms: C_10  and  C_35
    6  A    between atoms: C_11  and  C_35
    7  A    between atoms: C_16  and  C_27
    8  A    between atoms: C_18  and  C_41
    9  A    between atoms: N_21  and  C_25
   10  A    between atoms: N_21  and  C_40
   11  A    between atoms: N_29  and  C_38
                            x       y       z     vdW  Elec       q    Type
                         _______ _______ _______ _____ _____    ______ ____

>  <TORSDO>
F 11

$$$$
=
 OpenBabel11042412593D

 42 47  0  0  1  0  0  0  0  0999 V2000
  189.3000  177.4710  144.4700 C   0  0  1  0  0  3  0  0  0  0  0  0
  185.7170  179.0350  142.3320 S   0  0  0  0  0  0  0  0  0  0  0  0
  184.8880  178.8470  143.9000 C   0  0  0  0  0  0  0  0  0  0  0  0
  187.9860  178.0870  144.9740 C   0  0  0  0  0  2  0  0  0  0  0  0
  189.2540  177.0680  142.9890 C   0  0  0  0  0  2  0  0  0  0  0  0
  185.5180  178.0760  144.7840 C   0  0  0  0  0  0  0  0  0  0  0  0
  185.0090  177.8290  146.1700 C   0  0  0  0  0  1  0  0  0  0  0  0
  186.7740  177.4440  144.2980 C   0  0  1  0  0  3  0  0  0  0  0  0
  188.2140  177.8750  142.2060 C   0  0  2  0  0  3  0  0  0  0  0  0
  186.8070  177.6400  142.7690 C   0  0  2  0  0  3  0  0  0  0  0  0
  187.8570  178.3340  139.9100 C   0  0  0  0  0  3  0  0  0  0  0  0
  188.2450  177.5090  140.8130 N   0  0  0  0  0  0  0  0  0  0  0  0
  187.9690  176.4240  138.3470 C   0  0  2  0  0  3  0  0  0  0  0  0
  189.1310  178.4620  137.8220 C   0  0  0  0  0  3  0  0  0  0  0  0
  187.8660  175.9310  136.9110 C   0  0  1  0  0  0  0  0  0  0  0  0
  187.8900  177.9470  138.4690 C   0  0  2  0  0  3  0  0  0  0  0  0
  187.4930  176.8290  135.9010 O   0  0  0  0  0  1  0  0  0  0  0  0
  189.8410  177.4770  137.2930 C   0  0  0  0  0  3  0  0  0  0  0  0
  189.2410  176.1280  137.5320 C   0  0  1  0  0  3  0  0  0  0  0  0
  187.4920  174.5360  136.7280 N   0  0  0  0  0  2  0  0  0  0  0  0
  185.6900  173.1610  137.5870 C   0  0  0  0  0  1  0  0  0  0  0  0
  186.0470  174.4350  136.8510 C   0  0  0  0  0  2  0  0  0  0  0  0
  190.4560  178.4320  144.7020 C   0  0  0  0  0  2  0  0  0  0  0  0
  191.7420  177.6830  145.0180 C   0  0  0  0  0  2  0  0  0  0  0  0
  191.6750  177.1140  146.3360 N   0  0  0  0  0  0  0  0  0  0  0  0
  192.0500  175.9050  146.5310 C   0  0  0  0  0  2  0  0  0  0  0  0
  183.5910  179.5460  144.1690 C   0  0  0  0  0  2  0  0  0  0  0  0
  182.4260  178.6020  143.9400 C   0  0  0  0  0  2  0  0  0  0  0  0
  181.1650  179.4070  143.6930 C   0  0  0  0  0  2  0  0  0  0  0  0
  181.6510  178.8730  141.3860 C   0  0  0  0  0  0  0  0  0  0  0  0
  179.7440  180.4680  140.2670 N   0  0  0  0  0  2  0  0  0  0  0  0
  182.2480  178.2590  140.4090 C   0  0  0  0  0  3  0  0  0  0  0  0
  179.7120  180.2840  141.7220 C   0  0  0  0  0  2  0  0  0  0  0  0
  182.6680  177.9010  137.9590 N   0  0  0  0  0  0  0  0  0  0  0  0
  180.0920  178.8210  137.2080 C   0  0  0  0  0  2  0  0  0  0  0  0
  182.2320  177.7850  136.5730 C   0  0  0  0  0  2  0  0  0  0  0  0
  179.4500  179.1850  139.6330 C   0  0  0  0  0  2  0  0  0  0  0  0
  181.2710  178.9130  136.2500 C   0  0  0  0  0  2  0  0  0  0  0  0
  180.5280  178.8120  138.6480 C   0  0  0  0  0  0  0  0  0  0  0  0
  184.0650  177.6120  138.2470 C   0  0  0  0  0  1  0  0  0  0  0  0
  181.7610  178.3320  139.0000 C   0  0  0  0  0  0  0  0  0  0  0  0
  180.9270  179.5510  142.2300 C   0  0  0  0  0  0  0  0  0  0  0  0
  1 23  1  6  0  0  0
  1  4  1  0  0  0  0
  2  3  1  0  0  0  0
  3 27  1  0  0  0  0
  3  6  2  0  0  0  0
  5  1  1  0  0  0  0
  6  7  1  0  0  0  0
  8  6  1  0  0  0  0
  8  4  1  1  0  0  0
  9 12  1  6  0  0  0
  9 10  1  0  0  0  0
  9  5  1  0  0  0  0
 10  2  1  1  0  0  0
 10  8  1  0  0  0  0
 11 12  2  0  0  0  0
 13 16  1  0  0  0  0
 14 16  1  0  0  0  0
 15 19  1  0  0  0  0
 15 13  1  0  0  0  0
 16 11  1  0  0  0  0
 17 15  1  0  0  0  0
 18 19  1  0  0  0  0
 18 14  2  0  0  0  0
 19 13  1  0  0  0  0
 20 22  1  0  0  0  0
 20 15  1  0  0  0  0
 22 21  1  0  0  0  0
 23 24  1  0  0  0  0
 24 25  1  0  0  0  0
 25 26  2  0  0  0  0
 28 27  1  0  0  0  0
 29 28  1  0  0  0  0
 30 42  2  0  0  0  0
 31 33  1  0  0  0  0
 32 30  2  0  0  0  0
 33 42  1  0  0  0  0
 34 40  1  0  0  0  0
 34 41  1  0  0  0  0
 35 39  1  0  0  0  0
 36 34  1  0  0  0  0
 37 31  1  0  0  0  0
 38 36  1  0  0  0  0
 38 35  1  0  0  0  0
 39 41  2  0  0  0  0
 39 37  1  0  0  0  0
 41 32  1  0  0  0  0
 42 29  1  0  0  0  0
M  END
>  <MODEL>
6

>  <REMARK>
 VINA RESULT:      -7.9      1.719      2.333
  Name = 
  11 active torsions:
  status: ('A' for Active; 'I' for Inactive)
    1  A    between atoms: N_1  and  C_9
    2  A    between atoms: C_3  and  C_6
    3  A    between atoms: C_6  and  C_9
    4  A    between atoms: C_10  and  C_18
    5  A    between atoms: C_10  and  C_35
    6  A    between atoms: C_11  and  C_35
    7  A    between atoms: C_16  and  C_27
    8  A    between atoms: C_18  and  C_41
    9  A    between atoms: N_21  and  C_25
   10  A    between atoms: N_21  and  C_40
   11  A    between atoms: N_29  and  C_38
                            x       y       z     vdW  Elec       q    Type
                         _______ _______ _______ _____ _____    ______ ____

>  <TORSDO>
F 11

$$$$
=
 OpenBabel11042412593D

 42 47  0  0  1  0  0  0  0  0999 V2000
  186.1450  176.2210  136.1340 C   0  0  1  0  0  3  0  0  0  0  0  0
  187.9250  177.8970  139.8590 S   0  0  0  0  0  0  0  0  0  0  0  0
  186.3100  178.6020  140.1320 C   0  0  0  0  0  0  0  0  0  0  0  0
  185.5140  176.7760  137.4190 C   0  0  0  0  0  2  0  0  0  0  0  0
  187.6370  176.5590  135.9940 C   0  0  0  0  0  2  0  0  0  0  0  0
  185.5150  178.6260  139.0640 C   0  0  0  0  0  0  0  0  0  0  0  0
  184.1080  179.1360  139.0970 C   0  0  0  0  0  1  0  0  0  0  0  0
  186.1250  178.1240  137.8030 C   0  0  1  0  0  3  0  0  0  0  0  0
  188.2980  176.8150  137.3510 C   0  0  2  0  0  3  0  0  0  0  0  0
  187.6410  178.0060  138.0610 C   0  0  2  0  0  3  0  0  0  0  0  0
  190.5460  176.1010  137.1370 C   0  0  0  0  0  3  0  0  0  0  0  0
  189.7050  177.0690  137.1810 N   0  0  0  0  0  0  0  0  0  0  0  0
  192.7170  175.0890  136.5350 C   0  0  2  0  0  3  0  0  0  0  0  0
  192.6200  176.7570  138.2630 C   0  0  0  0  0  3  0  0  0  0  0  0
  194.1850  175.3040  136.1960 C   0  0  1  0  0  0  0  0  0  0  0  0
  192.0030  176.3730  136.9620 C   0  0  2  0  0  3  0  0  0  0  0  0
  194.6800  176.6100  136.0790 O   0  0  0  0  0  1  0  0  0  0  0  0
  193.6110  175.9400  138.5840 C   0  0  0  0  0  3  0  0  0  0  0  0
  193.8060  174.8360  137.5940 C   0  0  1  0  0  3  0  0  0  0  0  0
  194.8210  174.2790  135.3810 N   0  0  0  0  0  2  0  0  0  0  0  0
  194.1980  171.9360  135.3270 C   0  0  0  0  0  1  0  0  0  0  0  0
  194.8360  173.0400  136.1430 C   0  0  0  0  0  2  0  0  0  0  0  0
  185.9560  174.7130  136.0610 C   0  0  0  0  0  2  0  0  0  0  0  0
  186.3770  174.0410  137.3590 C   0  0  0  0  0  2  0  0  0  0  0  0
  185.5390  172.9020  137.6240 N   0  0  0  0  0  0  0  0  0  0  0  0
  184.4290  172.7650  137.0010 C   0  0  0  0  0  2  0  0  0  0  0  0
  185.9080  179.0960  141.4880 C   0  0  0  0  0  2  0  0  0  0  0  0
  185.6130  177.9270  142.4090 C   0  0  0  0  0  2  0  0  0  0  0  0
  185.2980  178.4450  143.7980 C   0  0  0  0  0  2  0  0  0  0  0  0
  187.5230  177.6970  144.3750 C   0  0  0  0  0  0  0  0  0  0  0  0
  187.0540  177.2680  147.0250 N   0  0  0  0  0  2  0  0  0  0  0  0
  188.7780  177.4270  144.1660 C   0  0  0  0  0  3  0  0  0  0  0  0
  186.0130  177.9520  146.2500 C   0  0  0  0  0  2  0  0  0  0  0  0
  190.9970  176.5400  144.9330 N   0  0  0  0  0  0  0  0  0  0  0  0
  190.4840  177.1260  147.6600 C   0  0  0  0  0  2  0  0  0  0  0  0
  192.0550  176.3730  145.9230 C   0  0  0  0  0  2  0  0  0  0  0  0
  188.2300  178.1320  147.0810 C   0  0  0  0  0  2  0  0  0  0  0  0
  191.4410  176.0130  147.2610 C   0  0  0  0  0  2  0  0  0  0  0  0
  189.4560  177.4030  146.5960 C   0  0  0  0  0  0  0  0  0  0  0  0
  191.2480  176.0270  143.5940 C   0  0  0  0  0  1  0  0  0  0  0  0
  189.7310  177.1470  145.2800 C   0  0  0  0  0  0  0  0  0  0  0  0
  186.3080  177.9470  144.7720 C   0  0  0  0  0  0  0  0  0  0  0  0
  1 23  1  1  0  0  0
  1  4  1  0  0  0  0
  2  3  1  0  0  0  0
  3 27  1  0  0  0  0
  5  1  1  0  0  0  0
  5  9  1  0  0  0  0
  6  7  1  0  0  0  0
  6  3  2  0  0  0  0
  8  4  1  1  0  0  0
  8 10  1  0  0  0  0
  8  6  1  0  0  0  0
  9 12  1  6  0  0  0
  9 10  1  0  0  0  0
 10  2  1  1  0  0  0
 11 12  2  0  0  0  0
 13 16  1  0  0  0  0
 13 19  1  0  0  0  0
 14 18  2  0  0  0  0
 15 13  1  0  0  0  0
 15 19  1  0  0  0  0
 16 11  1  0  0  0  0
 16 14  1  0  0  0  0
 17 15  1  0  0  0  0
 19 18  1  0  0  0  0
 20 22  1  0  0  0  0
 20 15  1  0  0  0  0
 21 22  1  0  0  0  0
 23 24  1  0  0  0  0
 24 25  1  0  0  0  0
 26 25  2  0  0  0  0
 27 28  1  0  0  0  0
 28 29  1  0  0  0  0
 29 42  1  0  0  0  0
 30 42  2  0  0  0  0
 31 37  1  0  0  0  0
 32 30  2  0  0  0  0
 32 41  1  0  0  0  0
 33 31  1  0  0  0  0
 34 41  1  0  0  0  0
 34 36  1  0  0  0  0
 36 38  1  0  0  0  0
 38 35  1  0  0  0  0
 39 37  1  0  0  0  0
 39 35  1  0  0  0  0
 40 34  1  0  0  0  0
 41 39  2  0  0  0  0
 42 33  1  0  0  0  0
M  END
>  <MODEL>
7

>  <REMARK>
 VINA RESULT:      -7.7      2.922      7.786
  Name = 
  11 active torsions:
  status: ('A' for Active; 'I' for Inactive)
    1  A    between atoms: N_1  and  C_9
    2  A    between atoms: C_3  and  C_6
    3  A    between atoms: C_6  and  C_9
    4  A    between atoms: C_10  and  C_18
    5  A    between atoms: C_10  and  C_35
    6  A    between atoms: C_11  and  C_35
    7  A    between atoms: C_16  and  C_27
    8  A    between atoms: C_18  and  C_41
    9  A    between atoms: N_21  and  C_25
   10  A    between atoms: N_21  and  C_40
   11  A    between atoms: N_29  and  C_38
                            x       y       z     vdW  Elec       q    Type
                         _______ _______ _______ _____ _____    ______ ____

>  <TORSDO>
F 11

$$$$
=
 OpenBabel11042412593D

 42 47  0  0  1  0  0  0  0  0999 V2000
  189.4280  177.3600  144.1150 C   0  0  1  0  0  3  0  0  0  0  0  0
  185.8630  179.2620  142.2380 S   0  0  0  0  0  0  0  0  0  0  0  0
  185.0350  178.8620  143.7660 C   0  0  0  0  0  0  0  0  0  0  0  0
  188.1240  177.9150  144.7070 C   0  0  0  0  0  2  0  0  0  0  0  0
  189.3740  177.1750  142.5920 C   0  0  0  0  0  2  0  0  0  0  0  0
  185.6560  177.9640  144.5280 C   0  0  0  0  0  0  0  0  0  0  0  0
  185.1470  177.5280  145.8660 C   0  0  0  0  0  1  0  0  0  0  0  0
  186.9030  177.3910  143.9510 C   0  0  1  0  0  3  0  0  0  0  0  0
  188.3440  178.0990  141.9360 C   0  0  2  0  0  3  0  0  0  0  0  0
  186.9350  177.8040  142.4660 C   0  0  2  0  0  3  0  0  0  0  0  0
  189.4470  177.6010  139.9010 C   0  0  0  0  0  3  0  0  0  0  0  0
  188.3660  177.9360  140.5060 N   0  0  0  0  0  0  0  0  0  0  0  0
  188.0290  177.4560  137.8830 C   0  0  2  0  0  3  0  0  0  0  0  0
  190.0050  176.0970  138.0500 C   0  0  0  0  0  3  0  0  0  0  0  0
  187.9560  177.4340  136.3630 C   0  0  1  0  0  0  0  0  0  0  0  0
  189.4630  177.4360  138.4170 C   0  0  2  0  0  3  0  0  0  0  0  0
  189.1250  177.6250  135.6150 O   0  0  0  0  0  1  0  0  0  0  0  0
  189.1340  175.4060  137.3320 C   0  0  0  0  0  3  0  0  0  0  0  0
  187.8370  176.1260  137.1310 C   0  0  1  0  0  3  0  0  0  0  0  0
  186.7070  177.8860  135.7660 N   0  0  0  0  0  2  0  0  0  0  0  0
  184.5730  176.7970  135.3970 C   0  0  0  0  0  1  0  0  0  0  0  0
  185.6130  177.1880  136.4240 C   0  0  0  0  0  2  0  0  0  0  0  0
  190.5980  178.2620  144.4770 C   0  0  0  0  0  2  0  0  0  0  0  0
  191.6870  177.4900  145.2070 C   0  0  0  0  0  2  0  0  0  0  0  0
  191.1790  176.9630  146.4440 N   0  0  0  0  0  0  0  0  0  0  0  0
  191.7980  176.0110  147.0370 C   0  0  0  0  0  2  0  0  0  0  0  0
  183.7480  179.5320  144.1380 C   0  0  0  0  0  2  0  0  0  0  0  0
  182.5670  178.6780  143.7170 C   0  0  0  0  0  2  0  0  0  0  0  0
  181.8070  179.3780  142.6080 C   0  0  0  0  0  2  0  0  0  0  0  0
  181.0120  177.7140  141.0450 C   0  0  0  0  0  0  0  0  0  0  0  0
  182.9980  178.0120  139.2020 N   0  0  0  0  0  2  0  0  0  0  0  0
  180.1940  176.8190  140.5760 C   0  0  0  0  0  3  0  0  0  0  0  0
  182.9250  178.9930  140.2910 C   0  0  0  0  0  2  0  0  0  0  0  0
  179.5780  175.0700  138.8840 N   0  0  0  0  0  0  0  0  0  0  0  0
  181.1260  176.2630  136.8290 C   0  0  0  0  0  2  0  0  0  0  0  0
  179.4980  174.5530  137.5230 C   0  0  0  0  0  2  0  0  0  0  0  0
  181.8100  178.1610  138.3660 C   0  0  0  0  0  2  0  0  0  0  0  0
  180.8250  174.7720  136.8230 C   0  0  0  0  0  2  0  0  0  0  0  0
  181.0900  176.8460  138.2170 C   0  0  0  0  0  0  0  0  0  0  0  0
  178.9310  174.2930  139.9320 C   0  0  0  0  0  1  0  0  0  0  0  0
  180.3100  176.2790  139.1890 C   0  0  0  0  0  0  0  0  0  0  0  0
  181.9170  178.6020  141.3420 C   0  0  0  0  0  0  0  0  0  0  0  0
  1 23  1  6  0  0  0
  1  4  1  0  0  0  0
  2  3  1  0  0  0  0
  3 27  1  0  0  0  0
  3  6  2  0  0  0  0
  5  1  1  0  0  0  0
  6  7  1  0  0  0  0
  8  6  1  0  0  0  0
  8  4  1  1  0  0  0
  9 12  1  6  0  0  0
  9 10  1  0  0  0  0
  9  5  1  0  0  0  0
 10  2  1  1  0  0  0
 10  8  1  0  0  0  0
 11 12  2  0  0  0  0
 13 16  1  0  0  0  0
 14 16  1  0  0  0  0
 15 19  1  0  0  0  0
 15 13  1  0  0  0  0
 16 11  1  0  0  0  0
 17 15  1  0  0  0  0
 18 14  2  0  0  0  0
 19 18  1  0  0  0  0
 19 13  1  0  0  0  0
 20 15  1  0  0  0  0
 20 22  1  0  0  0  0
 21 22  1  0  0  0  0
 23 24  1  0  0  0  0
 24 25  1  0  0  0  0
 25 26  2  0  0  0  0
 28 27  1  0  0  0  0
 29 28  1  0  0  0  0
 30 42  2  0  0  0  0
 31 33  1  0  0  0  0
 32 30  2  0  0  0  0
 33 42  1  0  0  0  0
 34 41  1  0  0  0  0
 34 40  1  0  0  0  0
 35 39  1  0  0  0  0
 36 34  1  0  0  0  0
 37 31  1  0  0  0  0
 38 35  1  0  0  0  0
 38 36  1  0  0  0  0
 39 37  1  0  0  0  0
 39 41  2  0  0  0  0
 41 32  1  0  0  0  0
 42 29  1  0  0  0  0
M  END
>  <MODEL>
8

>  <REMARK>
 VINA RESULT:      -7.6      1.644      3.074
  Name = 
  11 active torsions:
  status: ('A' for Active; 'I' for Inactive)
    1  A    between atoms: N_1  and  C_9
    2  A    between atoms: C_3  and  C_6
    3  A    between atoms: C_6  and  C_9
    4  A    between atoms: C_10  and  C_18
    5  A    between atoms: C_10  and  C_35
    6  A    between atoms: C_11  and  C_35
    7  A    between atoms: C_16  and  C_27
    8  A    between atoms: C_18  and  C_41
    9  A    between atoms: N_21  and  C_25
   10  A    between atoms: N_21  and  C_40
   11  A    between atoms: N_29  and  C_38
                            x       y       z     vdW  Elec       q    Type
                         _______ _______ _______ _____ _____    ______ ____

>  <TORSDO>
F 11

$$$$
=
 OpenBabel11042412593D

 42 47  0  0  1  0  0  0  0  0999 V2000
  189.9210  176.3230  144.5260 C   0  0  1  0  0  3  0  0  0  0  0  0
  187.1870  178.7370  141.9660 S   0  0  0  0  0  0  0  0  0  0  0  0
  186.0620  178.6480  143.3470 C   0  0  0  0  0  0  0  0  0  0  0  0
  188.6890  177.1800  144.8550 C   0  0  0  0  0  2  0  0  0  0  0  0
  190.0690  176.0210  143.0280 C   0  0  0  0  0  2  0  0  0  0  0  0
  186.3490  177.7120  144.2510 C   0  0  0  0  0  0  0  0  0  0  0  0
  185.5530  177.5060  145.5020 C   0  0  0  0  0  1  0  0  0  0  0  0
  187.5190  176.8510  143.9280 C   0  0  1  0  0  3  0  0  0  0  0  0
  189.3770  177.0740  142.1580 C   0  0  2  0  0  3  0  0  0  0  0  0
  187.8720  177.1180  142.4510 C   0  0  2  0  0  3  0  0  0  0  0  0
  190.5000  177.4000  140.0980 C   0  0  0  0  0  3  0  0  0  0  0  0
  189.5900  176.7870  140.7630 N   0  0  0  0  0  0  0  0  0  0  0  0
  189.6770  176.0760  138.1830 C   0  0  2  0  0  3  0  0  0  0  0  0
  192.0370  176.4420  138.4490 C   0  0  0  0  0  3  0  0  0  0  0  0
  189.7300  175.8130  136.6850 C   0  0  1  0  0  0  0  0  0  0  0  0
  190.7140  177.0970  138.6520 C   0  0  2  0  0  3  0  0  0  0  0  0
  190.5090  176.6430  135.8680 O   0  0  0  0  0  1  0  0  0  0  0  0
  191.9040  175.2590  137.8700 C   0  0  0  0  0  3  0  0  0  0  0  0
  190.4760  174.8820  137.6290 C   0  0  1  0  0  3  0  0  0  0  0  0
  188.5420  175.2210  136.0860 N   0  0  0  0  0  2  0  0  0  0  0  0
  186.3500  174.8150  137.0410 C   0  0  0  0  0  1  0  0  0  0  0  0
  187.3740  175.8660  136.6660 C   0  0  0  0  0  2  0  0  0  0  0  0
  191.1850  176.9980  145.0380 C   0  0  0  0  0  2  0  0  0  0  0  0
  192.0560  176.0240  145.8150 C   0  0  0  0  0  2  0  0  0  0  0  0
  192.2170  176.4740  147.1720 N   0  0  0  0  0  0  0  0  0  0  0  0
  192.4830  175.6310  148.0980 C   0  0  0  0  0  2  0  0  0  0  0  0
  184.9070  179.5940  143.4570 C   0  0  0  0  0  2  0  0  0  0  0  0
  183.6680  178.9900  142.8230 C   0  0  0  0  0  2  0  0  0  0  0  0
  183.9400  178.6970  141.3610 C   0  0  0  0  0  2  0  0  0  0  0  0
  182.8180  177.0770  139.9600 C   0  0  0  0  0  0  0  0  0  0  0  0
  180.2990  178.0800  140.2440 N   0  0  0  0  0  2  0  0  0  0  0  0
  182.7210  176.0210  139.2090 C   0  0  0  0  0  3  0  0  0  0  0  0
  181.3520  178.6260  141.1070 C   0  0  0  0  0  2  0  0  0  0  0  0
  181.4000  174.4910  137.7190 N   0  0  0  0  0  0  0  0  0  0  0  0
  178.9310  175.1370  138.9560 C   0  0  0  0  0  2  0  0  0  0  0  0
  180.1940  173.7550  137.3590 C   0  0  0  0  0  2  0  0  0  0  0  0
  180.0900  176.6790  140.6010 C   0  0  0  0  0  2  0  0  0  0  0  0
  178.9870  174.6590  137.5120 C   0  0  0  0  0  2  0  0  0  0  0  0
  180.2150  175.7910  139.3900 C   0  0  0  0  0  0  0  0  0  0  0  0
  182.5880  174.2660  136.9080 C   0  0  0  0  0  1  0  0  0  0  0  0
  181.4040  175.4440  138.8080 C   0  0  0  0  0  0  0  0  0  0  0  0
  182.7220  178.1350  140.7150 C   0  0  0  0  0  0  0  0  0  0  0  0
  1  4  1  0  0  0  0
  1 23  1  6  0  0  0
  2  3  1  0  0  0  0
  3 27  1  0  0  0  0
  3  6  2  0  0  0  0
  5  1  1  0  0  0  0
  6  7  1  0  0  0  0
  8  6  1  0  0  0  0
  8  4  1  1  0  0  0
  9 12  1  6  0  0  0
  9 10  1  0  0  0  0
  9  5  1  0  0  0  0
 10  2  1  1  0  0  0
 10  8  1  0  0  0  0
 11 12  2  0  0  0  0
 13 16  1  0  0  0  0
 14 16  1  0  0  0  0
 15 19  1  0  0  0  0
 15 13  1  0  0  0  0
 16 11  1  0  0  0  0
 17 15  1  0  0  0  0
 18 14  2  0  0  0  0
 19 18  1  0  0  0  0
 19 13  1  0  0  0  0
 20 22  1  0  0  0  0
 20 15  1  0  0  0  0
 22 21  1  0  0  0  0
 23 24  1  0  0  0  0
 24 25  1  0  0  0  0
 25 26  2  0  0  0  0
 28 27  1  0  0  0  0
 29 28  1  0  0  0  0
 30 42  2  0  0  0  0
 31 37  1  0  0  0  0
 31 33  1  0  0  0  0
 32 30  2  0  0  0  0
 34 41  1  0  0  0  0
 35 39  1  0  0  0  0
 36 38  1  0  0  0  0
 36 34  1  0  0  0  0
 38 35  1  0  0  0  0
 39 37  1  0  0  0  0
 40 34  1  0  0  0  0
 41 32  1  0  0  0  0
 41 39  2  0  0  0  0
 42 33  1  0  0  0  0
 42 29  1  0  0  0  0
M  END
>  <MODEL>
9

>  <REMARK>
 VINA RESULT:      -7.5      1.542      2.520
  Name = 
  11 active torsions:
  status: ('A' for Active; 'I' for Inactive)
    1  A    between atoms: N_1  and  C_9
    2  A    between atoms: C_3  and  C_6
    3  A    between atoms: C_6  and  C_9
    4  A    between atoms: C_10  and  C_18
    5  A    between atoms: C_10  and  C_35
    6  A    between atoms: C_11  and  C_35
    7  A    between atoms: C_16  and  C_27
    8  A    between atoms: C_18  and  C_41
    9  A    between atoms: N_21  and  C_25
   10  A    between atoms: N_21  and  C_40
   11  A    between atoms: N_29  and  C_38
                            x       y       z     vdW  Elec       q    Type
                         _______ _______ _______ _____ _____    ______ ____

>  <TORSDO>
F 11

$$$$
