=
 OpenBabel11042412203D

 44 47  0  0  1  0  0  0  0  0999 V2000
  190.4290  177.1070  141.3110 C   0  0  0  0  0  0  0  0  0  0  0  0
  189.2130  177.7920  141.3210 C   0  0  0  0  0  3  0  0  0  0  0  0
  189.1120  177.6920  138.8990 C   0  0  0  0  0  0  0  0  0  0  0  0
  188.5610  178.0880  140.1240 C   0  0  0  0  0  3  0  0  0  0  0  0
  190.3250  176.9700  138.8730 C   0  0  0  0  0  0  0  0  0  0  0  0
  190.9810  176.7050  140.0880 C   0  0  0  0  0  3  0  0  0  0  0  0
  190.9100  176.5140  137.5550 C   0  0  2  0  0  3  0  0  0  0  0  0
  192.7360  174.8840  137.6620 C   0  0  0  0  0  0  0  0  0  0  0  0
  193.6500  174.0140  137.9610 N   0  0  0  0  0  0  0  0  0  0  0  0
  190.9390  174.7450  137.3470 S   0  0  0  0  0  0  0  0  0  0  0  0
  192.6700  176.7150  137.5530 S   0  0  0  0  0  0  0  0  0  0  0  0
  195.3240  175.1050  139.1910 O   0  0  0  0  0  0  0  0  0  0  0  0
  196.0380  173.7830  137.4060 N   0  0  0  0  0  2  0  0  0  0  0  0
  195.0170  174.3400  138.2340 C   0  0  0  0  0  0  0  0  0  0  0  0
  198.4440  174.0950  136.3430 S   0  0  0  0  0  0  0  0  0  0  0  0
  197.4200  174.0700  137.6120 C   0  0  0  0  0  3  0  0  0  0  0  0
  188.3820  178.0520  137.6440 C   0  0  0  0  0  2  0  0  0  0  0  0
  187.1900  177.1750  137.4330 C   0  0  0  0  0  0  0  0  0  0  0  0
  187.3250  175.9610  137.3780 O   0  0  0  0  0  0  0  0  0  0  0  0
  185.8360  177.7900  137.2840 C   0  0  0  0  0  2  0  0  0  0  0  0
  185.1940  177.9380  138.6550 C   0  0  0  0  0  2  0  0  0  0  0  0
  184.3220  179.1820  138.7100 C   0  0  2  0  0  3  0  0  0  0  0  0
  185.1280  178.9530  140.7610 C   0  0  0  0  0  1  0  0  0  0  0  0
  184.6010  179.8980  139.8770 O   0  0  0  0  0  0  0  0  0  0  0  0
  182.9230  178.7900  138.7090 N   0  0  0  0  0  2  0  0  0  0  0  0
  179.3280  180.2910  141.6870 C   0  0  0  0  0  1  0  0  0  0  0  0
  181.8780  179.6580  139.1570 C   0  0  0  0  0  0  0  0  0  0  0  0
  181.2030  179.4140  140.2600 C   0  0  0  0  0  3  0  0  0  0  0  0
  180.0960  181.4400  139.5470 C   0  0  0  0  0  2  0  0  0  0  0  0
  181.3800  181.1400  138.2770 S   0  0  0  0  0  0  0  0  0  0  0  0
  180.2040  180.3800  140.5330 N   0  0  0  0  0  0  0  0  0  0  0  0
  191.0600  176.8240  142.5220 O   0  0  0  0  0  0  0  0  0  0  0  0
  191.3860  177.8370  143.4670 C   0  0  0  0  0  2  0  0  0  0  0  0
  189.4680  177.7250  145.0570 C   0  0  0  0  0  3  0  0  0  0  0  0
  188.9170  177.3980  146.3020 C   0  0  0  0  0  0  0  0  0  0  0  0
  189.7270  176.8390  147.2950 C   0  0  0  0  0  3  0  0  0  0  0  0
  190.8230  177.4940  144.8050 C   0  0  0  0  0  0  0  0  0  0  0  0
  191.6300  176.9260  145.7990 C   0  0  0  0  0  3  0  0  0  0  0  0
  191.0830  176.6030  147.0450 C   0  0  0  0  0  3  0  0  0  0  0  0
  187.4660  177.6220  146.5630 C   0  0  0  0  0  2  0  0  0  0  0  0
  186.8320  178.2460  145.4090 N   0  0  0  0  0  2  0  0  0  0  0  0
  185.5640  179.4030  146.9900 O   0  0  0  0  0  1  0  0  0  0  0  0
  185.4950  178.6610  145.8100 C   0  0  0  0  0  3  0  0  0  0  0  0
  184.9270  179.4410  144.8020 O   0  0  0  0  0  1  0  0  0  0  0  0
  1  2  1  0  0  0  0
  1 32  1  0  0  0  0
  3  4  1  0  0  0  0
  4  2  2  0  0  0  0
  5  3  2  0  0  0  0
  5  6  1  0  0  0  0
  6  1  2  0  0  0  0
  7  5  1  1  0  0  0
  8  9  2  0  0  0  0
  9 14  1  0  0  0  0
 10  7  1  0  0  0  0
 10  8  1  0  0  0  0
 11  7  1  0  0  0  0
 11  8  1  0  0  0  0
 13 16  1  0  0  0  0
 13 14  1  0  0  0  0
 14 12  2  0  0  0  0
 15 16  2  0  0  0  0
 17  3  1  0  0  0  0
 18 17  1  0  0  0  0
 19 18  2  0  0  0  0
 20 18  1  0  0  0  0
 20 21  1  0  0  0  0
 22 21  1  1  0  0  0
 22 24  1  0  0  0  0
 24 23  1  0  0  0  0
 25 22  1  0  0  0  0
 25 27  1  0  0  0  0
 27 28  2  0  0  0  0
 28 31  1  0  0  0  0
 29 31  1  0  0  0  0
 30 27  1  0  0  0  0
 30 29  1  0  0  0  0
 31 26  1  0  0  0  0
 32 33  1  0  0  0  0
 33 37  1  0  0  0  0
 34 35  1  0  0  0  0
 35 40  1  0  0  0  0
 35 36  2  0  0  0  0
 37 34  2  0  0  0  0
 37 38  1  0  0  0  0
 38 39  2  0  0  0  0
 39 36  1  0  0  0  0
 41 43  1  0  0  0  0
 41 40  1  0  0  0  0
 43 42  1  0  0  0  0
 44 43  1  0  0  0  0
M  END
>  <MODEL>
1

>  <REMARK>
 VINA RESULT:      -8.0      0.000      0.000
  Name = 
  17 active torsions:
  status: ('A' for Active; 'I' for Inactive)
    1  A    between atoms: O_2  and  C_19
    2  A    between atoms: O_3  and  C_9
    3  A    between atoms: O_3  and  C_42
    4  A    between atoms: C_5  and  N_27
    5  A    between atoms: C_6  and  C_8
    6  A    between atoms: C_6  and  C_32
    7  A    between atoms: C_7  and  C_28
    8  A    between atoms: C_8  and  C_13
    9  A    between atoms: C_13  and  C_19
   10  A    between atoms: C_16  and  N_33
   11  A    between atoms: C_17  and  C_20
   12  A    between atoms: C_17  and  N_35
   13  A    between atoms: C_19  and  N_27
   14  A    between atoms: C_24  and  C_32
   15  A    between atoms: N_29  and  C_37
   16  A    between atoms: C_31  and  N_35
   17  A    between atoms: C_36  and  C_42
                            x       y       z     vdW  Elec       q    Type
                         _______ _______ _______ _____ _____    ______ ____

>  <TORSDO>
F 17

$$$$
=
 OpenBabel11042412203D

 44 47  0  0  1  0  0  0  0  0999 V2000
  190.5140  177.2040  140.7500 C   0  0  0  0  0  0  0  0  0  0  0  0
  189.2020  177.6480  140.5760 C   0  0  0  0  0  3  0  0  0  0  0  0
  189.3250  177.1470  138.2060 C   0  0  0  0  0  0  0  0  0  0  0  0
  188.6130  177.6250  139.3120 C   0  0  0  0  0  3  0  0  0  0  0  0
  190.6420  176.6640  138.3700 C   0  0  0  0  0  0  0  0  0  0  0  0
  191.2280  176.7200  139.6470 C   0  0  0  0  0  3  0  0  0  0  0  0
  191.4050  176.1200  137.1840 C   0  0  2  0  0  3  0  0  0  0  0  0
  193.2990  174.6450  137.6730 C   0  0  0  0  0  0  0  0  0  0  0  0
  194.2220  173.8780  138.1660 N   0  0  0  0  0  0  0  0  0  0  0  0
  191.5650  174.3450  137.1770 S   0  0  0  0  0  0  0  0  0  0  0  0
  193.1380  176.4450  137.3560 S   0  0  0  0  0  0  0  0  0  0  0  0
  195.6710  175.1730  139.4790 O   0  0  0  0  0  0  0  0  0  0  0  0
  196.6660  173.8030  137.8740 N   0  0  0  0  0  2  0  0  0  0  0  0
  195.5250  174.3280  138.5530 C   0  0  0  0  0  0  0  0  0  0  0  0
  199.1650  174.1410  137.0660 S   0  0  0  0  0  0  0  0  0  0  0  0
  197.9930  174.2100  138.1980 C   0  0  0  0  0  3  0  0  0  0  0  0
  188.6530  177.1640  136.8690 C   0  0  0  0  0  2  0  0  0  0  0  0
  187.6510  176.0630  136.7460 C   0  0  0  0  0  0  0  0  0  0  0  0
  188.0080  174.8970  136.8360 O   0  0  0  0  0  0  0  0  0  0  0  0
  186.2120  176.3930  136.5080 C   0  0  0  0  0  2  0  0  0  0  0  0
  185.9280  177.8010  137.0080 C   0  0  0  0  0  2  0  0  0  0  0  0
  184.7850  177.7960  138.0110 C   0  0  2  0  0  3  0  0  0  0  0  0
  182.8620  176.7220  137.7690 C   0  0  0  0  0  1  0  0  0  0  0  0
  183.5660  177.8470  137.3300 O   0  0  0  0  0  0  0  0  0  0  0  0
  184.9000  178.9580  138.8770 N   0  0  0  0  0  2  0  0  0  0  0  0
  181.8400  178.8510  142.7060 C   0  0  0  0  0  1  0  0  0  0  0  0
  184.5460  178.9240  140.2620 C   0  0  0  0  0  0  0  0  0  0  0  0
  183.2910  178.8880  140.6530 C   0  0  0  0  0  3  0  0  0  0  0  0
  184.3850  178.9120  142.8080 C   0  0  0  0  0  2  0  0  0  0  0  0
  185.7520  178.9360  141.5900 S   0  0  0  0  0  0  0  0  0  0  0  0
  183.1400  178.8690  142.0620 N   0  0  0  0  0  0  0  0  0  0  0  0
  191.0790  177.2370  142.0240 O   0  0  0  0  0  0  0  0  0  0  0  0
  190.9030  176.1830  142.9650 C   0  0  0  0  0  2  0  0  0  0  0  0
  189.0350  177.2950  144.1870 C   0  0  0  0  0  3  0  0  0  0  0  0
  188.4500  177.7840  145.3600 C   0  0  0  0  0  0  0  0  0  0  0  0
  189.1390  177.6890  146.5730 C   0  0  0  0  0  3  0  0  0  0  0  0
  190.3040  176.7100  144.2250 C   0  0  0  0  0  0  0  0  0  0  0  0
  190.9890  176.6080  145.4420 C   0  0  0  0  0  3  0  0  0  0  0  0
  190.4080  177.1010  146.6150 C   0  0  0  0  0  3  0  0  0  0  0  0
  187.0860  178.3860  145.3250 C   0  0  0  0  0  2  0  0  0  0  0  0
  186.1300  177.5200  146.0030 N   0  0  0  0  0  2  0  0  0  0  0  0
  185.9140  179.6040  147.0310 O   0  0  0  0  0  1  0  0  0  0  0  0
  185.3070  178.3590  146.8630 C   0  0  0  0  0  3  0  0  0  0  0  0
  184.0500  178.5290  146.2820 O   0  0  0  0  0  1  0  0  0  0  0  0
  1 32  1  0  0  0  0
  2  1  1  0  0  0  0
  3  5  2  0  0  0  0
  3  4  1  0  0  0  0
  4  2  2  0  0  0  0
  5  6  1  0  0  0  0
  6  1  2  0  0  0  0
  7 11  1  0  0  0  0
  7  5  1  1  0  0  0
  8  9  2  0  0  0  0
  9 14  1  0  0  0  0
 10  7  1  0  0  0  0
 10  8  1  0  0  0  0
 11  8  1  0  0  0  0
 13 16  1  0  0  0  0
 13 14  1  0  0  0  0
 14 12  2  0  0  0  0
 15 16  2  0  0  0  0
 17  3  1  0  0  0  0
 18 19  2  0  0  0  0
 18 17  1  0  0  0  0
 20 18  1  0  0  0  0
 20 21  1  0  0  0  0
 22 21  1  6  0  0  0
 22 25  1  0  0  0  0
 24 23  1  0  0  0  0
 24 22  1  0  0  0  0
 25 27  1  0  0  0  0
 27 28  2  0  0  0  0
 27 30  1  0  0  0  0
 28 31  1  0  0  0  0
 30 29  1  0  0  0  0
 31 26  1  0  0  0  0
 31 29  1  0  0  0  0
 32 33  1  0  0  0  0
 33 37  1  0  0  0  0
 34 37  2  0  0  0  0
 34 35  1  0  0  0  0
 35 36  2  0  0  0  0
 36 39  1  0  0  0  0
 37 38  1  0  0  0  0
 38 39  2  0  0  0  0
 40 35  1  0  0  0  0
 40 41  1  0  0  0  0
 41 43  1  0  0  0  0
 43 42  1  0  0  0  0
 44 43  1  0  0  0  0
M  END
>  <MODEL>
2

>  <REMARK>
 VINA RESULT:      -7.8      1.753      2.039
  Name = 
  17 active torsions:
  status: ('A' for Active; 'I' for Inactive)
    1  A    between atoms: O_2  and  C_19
    2  A    between atoms: O_3  and  C_9
    3  A    between atoms: O_3  and  C_42
    4  A    between atoms: C_5  and  N_27
    5  A    between atoms: C_6  and  C_8
    6  A    between atoms: C_6  and  C_32
    7  A    between atoms: C_7  and  C_28
    8  A    between atoms: C_8  and  C_13
    9  A    between atoms: C_13  and  C_19
   10  A    between atoms: C_16  and  N_33
   11  A    between atoms: C_17  and  C_20
   12  A    between atoms: C_17  and  N_35
   13  A    between atoms: C_19  and  N_27
   14  A    between atoms: C_24  and  C_32
   15  A    between atoms: N_29  and  C_37
   16  A    between atoms: C_31  and  N_35
   17  A    between atoms: C_36  and  C_42
                            x       y       z     vdW  Elec       q    Type
                         _______ _______ _______ _____ _____    ______ ____

>  <TORSDO>
F 17

$$$$
=
 OpenBabel11042412203D

 44 47  0  0  1  0  0  0  0  0999 V2000
  185.8030  178.9190  141.6210 C   0  0  0  0  0  0  0  0  0  0  0  0
  187.1560  178.6330  141.4370 C   0  0  0  0  0  3  0  0  0  0  0  0
  186.7600  178.1750  139.0880 C   0  0  0  0  0  0  0  0  0  0  0  0
  187.6320  178.2580  140.1800 C   0  0  0  0  0  3  0  0  0  0  0  0
  185.3940  178.4940  139.2500 C   0  0  0  0  0  0  0  0  0  0  0  0
  184.9290  178.8440  140.5300 C   0  0  0  0  0  3  0  0  0  0  0  0
  184.4540  178.4350  138.0670 C   0  0  2  0  0  3  0  0  0  0  0  0
  182.1810  177.6320  138.5020 C   0  0  0  0  0  0  0  0  0  0  0  0
  181.0460  177.2140  138.9700 N   0  0  0  0  0  0  0  0  0  0  0  0
  182.9150  179.2970  138.3190 S   0  0  0  0  0  0  0  0  0  0  0  0
  183.7260  176.8260  137.9290 S   0  0  0  0  0  0  0  0  0  0  0  0
  180.8120  175.0440  138.1100 O   0  0  0  0  0  0  0  0  0  0  0  0
  180.1530  175.3620  140.3260 N   0  0  0  0  0  0  0  0  0  0  0  0
  180.6780  175.8360  139.0850 C   0  0  0  0  0  0  0  0  0  0  0  0
  179.1600  173.5210  141.9500 S   0  0  0  0  0  1  0  0  0  0  0  0
  179.7570  174.0050  140.5120 C   0  0  0  0  0  3  0  0  0  0  0  0
  187.3180  177.7490  137.7670 C   0  0  0  0  0  2  0  0  0  0  0  0
  188.6670  178.3440  137.5240 C   0  0  0  0  0  0  0  0  0  0  0  0
  188.8000  179.5580  137.4720 O   0  0  0  0  0  0  0  0  0  0  0  0
  189.8500  177.4480  137.3410 C   0  0  0  0  0  2  0  0  0  0  0  0
  189.5490  176.0840  137.9420 C   0  0  0  0  0  2  0  0  0  0  0  0
  190.4510  175.0180  137.3400 C   0  0  2  0  0  3  0  0  0  0  0  0
  188.6110  173.9350  136.7450 C   0  0  0  0  0  1  0  0  0  0  0  0
  189.8230  173.7730  137.4220 O   0  0  0  0  0  0  0  0  0  0  0  0
  191.7030  174.9750  138.0760 N   0  0  0  0  0  2  0  0  0  0  0  0
  195.0480  176.9620  135.0920 C   0  0  0  0  0  1  0  0  0  0  0  0
  192.9780  175.0860  137.4370 C   0  0  0  0  0  0  0  0  0  0  0  0
  193.2450  176.0610  136.5950 C   0  0  0  0  0  3  0  0  0  0  0  0
  195.3450  174.8690  136.5140 C   0  0  0  0  0  2  0  0  0  0  0  0
  194.3200  173.9260  137.7020 S   0  0  0  0  0  0  0  0  0  0  0  0
  194.5540  175.9970  136.0570 N   0  0  0  0  0  0  0  0  0  0  0  0
  185.3540  179.2920  142.8880 O   0  0  0  0  0  0  0  0  0  0  0  0
  184.8280  178.3520  143.8190 C   0  0  0  0  0  2  0  0  0  0  0  0
  186.9900  177.7100  144.8830 C   0  0  0  0  0  3  0  0  0  0  0  0
  187.8410  177.6290  145.9910 C   0  0  0  0  0  0  0  0  0  0  0  0
  187.4100  178.1000  147.2350 C   0  0  0  0  0  3  0  0  0  0  0  0
  185.7130  178.2620  145.0160 C   0  0  0  0  0  0  0  0  0  0  0  0
  185.2870  178.7420  146.2610 C   0  0  0  0  0  3  0  0  0  0  0  0
  186.1330  178.6570  147.3700 C   0  0  0  0  0  3  0  0  0  0  0  0
  189.2130  177.0610  145.8450 C   0  0  0  0  0  2  0  0  0  0  0  0
  190.0690  177.9850  145.1110 N   0  0  0  0  0  2  0  0  0  0  0  0
  191.7890  177.0300  146.3660 O   0  0  0  0  0  1  0  0  0  0  0  0
  191.4080  177.4140  145.0800 C   0  0  0  0  0  3  0  0  0  0  0  0
  191.4210  176.3010  144.2390 O   0  0  0  0  0  1  0  0  0  0  0  0
  1 32  1  0  0  0  0
  2  1  1  0  0  0  0
  3  5  2  0  0  0  0
  3  4  1  0  0  0  0
  4  2  2  0  0  0  0
  5  6  1  0  0  0  0
  6  1  2  0  0  0  0
  7 10  1  0  0  0  0
  7  5  1  1  0  0  0
  8  9  2  0  0  0  0
  9 14  1  0  0  0  0
 10  8  1  0  0  0  0
 11  7  1  0  0  0  0
 11  8  1  0  0  0  0
 12 14  2  0  0  0  0
 13 16  2  0  0  0  0
 14 13  1  0  0  0  0
 16 15  1  0  0  0  0
 17  3  1  0  0  0  0
 18 17  1  0  0  0  0
 19 18  2  0  0  0  0
 20 18  1  0  0  0  0
 20 21  1  0  0  0  0
 22 24  1  0  0  0  0
 22 21  1  1  0  0  0
 22 25  1  0  0  0  0
 23 24  1  0  0  0  0
 26 31  1  0  0  0  0
 27 30  1  0  0  0  0
 27 25  1  0  0  0  0
 28 27  2  0  0  0  0
 29 30  1  0  0  0  0
 31 29  1  0  0  0  0
 31 28  1  0  0  0  0
 32 33  1  0  0  0  0
 33 37  1  0  0  0  0
 34 37  2  0  0  0  0
 34 35  1  0  0  0  0
 35 36  2  0  0  0  0
 36 39  1  0  0  0  0
 37 38  1  0  0  0  0
 38 39  2  0  0  0  0
 40 35  1  0  0  0  0
 41 40  1  0  0  0  0
 43 41  1  0  0  0  0
 43 42  1  0  0  0  0
 44 43  1  0  0  0  0
M  END
>  <MODEL>
3

>  <REMARK>
 VINA RESULT:      -7.6      2.922      9.605
  Name = 
  17 active torsions:
  status: ('A' for Active; 'I' for Inactive)
    1  A    between atoms: O_2  and  C_19
    2  A    between atoms: O_3  and  C_9
    3  A    between atoms: O_3  and  C_42
    4  A    between atoms: C_5  and  N_27
    5  A    between atoms: C_6  and  C_8
    6  A    between atoms: C_6  and  C_32
    7  A    between atoms: C_7  and  C_28
    8  A    between atoms: C_8  and  C_13
    9  A    between atoms: C_13  and  C_19
   10  A    between atoms: C_16  and  N_33
   11  A    between atoms: C_17  and  C_20
   12  A    between atoms: C_17  and  N_35
   13  A    between atoms: C_19  and  N_27
   14  A    between atoms: C_24  and  C_32
   15  A    between atoms: N_29  and  C_37
   16  A    between atoms: C_31  and  N_35
   17  A    between atoms: C_36  and  C_42
                            x       y       z     vdW  Elec       q    Type
                         _______ _______ _______ _____ _____    ______ ____

>  <TORSDO>
F 17

$$$$
=
 OpenBabel11042412203D

 44 47  0  0  1  0  0  0  0  0999 V2000
  190.3900  176.8240  140.7930 C   0  0  0  0  0  0  0  0  0  0  0  0
  189.3910  177.7890  140.6600 C   0  0  0  0  0  3  0  0  0  0  0  0
  189.6900  177.7980  138.2520 C   0  0  0  0  0  0  0  0  0  0  0  0
  189.0460  178.2780  139.4000 C   0  0  0  0  0  3  0  0  0  0  0  0
  190.6800  176.7980  138.3660 C   0  0  0  0  0  0  0  0  0  0  0  0
  191.0320  176.3380  139.6470 C   0  0  0  0  0  3  0  0  0  0  0  0
  191.3580  176.2550  137.1280 C   0  0  2  0  0  3  0  0  0  0  0  0
  193.1120  174.5800  137.4750 C   0  0  0  0  0  0  0  0  0  0  0  0
  193.9680  173.7010  137.8940 N   0  0  0  0  0  0  0  0  0  0  0  0
  191.3450  174.4770  137.0140 S   0  0  0  0  0  0  0  0  0  0  0  0
  193.1180  176.4040  137.2660 S   0  0  0  0  0  0  0  0  0  0  0  0
  195.6830  173.9570  139.4750 O   0  0  0  0  0  0  0  0  0  0  0  0
  196.2540  174.3510  137.2470 N   0  0  0  0  0  2  0  0  0  0  0  0
  195.3170  174.0000  138.2670 C   0  0  0  0  0  0  0  0  0  0  0  0
  198.8180  173.8860  136.7770 S   0  0  0  0  0  0  0  0  0  0  0  0
  197.6110  174.6710  137.5440 C   0  0  0  0  0  3  0  0  0  0  0  0
  189.2970  178.3700  136.9270 C   0  0  0  0  0  2  0  0  0  0  0  0
  187.8110  178.4200  136.7710 C   0  0  0  0  0  0  0  0  0  0  0  0
  187.2430  179.4970  136.6620 O   0  0  0  0  0  0  0  0  0  0  0  0
  187.0250  177.1480  136.7530 C   0  0  0  0  0  2  0  0  0  0  0  0
  185.5590  177.4630  136.5000 C   0  0  0  0  0  2  0  0  0  0  0  0
  184.7350  177.2380  137.7580 C   0  0  2  0  0  3  0  0  0  0  0  0
  183.5500  175.3700  137.8920 C   0  0  0  0  0  1  0  0  0  0  0  0
  183.5000  176.6830  137.4140 O   0  0  0  0  0  0  0  0  0  0  0  0
  184.5200  178.5110  138.4270 N   0  0  0  0  0  2  0  0  0  0  0  0
  180.3050  180.6990  139.6480 C   0  0  0  0  0  1  0  0  0  0  0  0
  183.3740  178.7690  139.2420 C   0  0  0  0  0  0  0  0  0  0  0  0
  182.4600  179.6470  138.8890 C   0  0  0  0  0  3  0  0  0  0  0  0
  181.5380  178.9300  141.0050 C   0  0  0  0  0  2  0  0  0  0  0  0
  183.0700  177.9470  140.8070 S   0  0  0  0  0  0  0  0  0  0  0  0
  181.4070  179.7710  139.8290 N   0  0  0  0  0  0  0  0  0  0  0  0
  190.7150  176.3530  142.0640 O   0  0  0  0  0  0  0  0  0  0  0  0
  191.3860  177.1570  143.0280 C   0  0  0  0  0  2  0  0  0  0  0  0
  189.2440  177.6570  144.2010 C   0  0  0  0  0  3  0  0  0  0  0  0
  188.4640  177.7350  145.3610 C   0  0  0  0  0  0  0  0  0  0  0  0
  189.0240  177.4040  146.5990 C   0  0  0  0  0  3  0  0  0  0  0  0
  190.5780  177.2470  144.2770 C   0  0  0  0  0  0  0  0  0  0  0  0
  191.1330  176.9080  145.5180 C   0  0  0  0  0  3  0  0  0  0  0  0
  190.3580  176.9910  146.6780 C   0  0  0  0  0  3  0  0  0  0  0  0
  187.0330  178.1480  145.2770 C   0  0  0  0  0  2  0  0  0  0  0  0
  186.2470  177.4670  146.2980 N   0  0  0  0  0  2  0  0  0  0  0  0
  185.7060  179.5450  147.2100 O   0  0  0  0  0  1  0  0  0  0  0  0
  185.1710  178.3630  146.6980 C   0  0  0  0  0  3  0  0  0  0  0  0
  184.3720  178.6540  145.5910 O   0  0  0  0  0  1  0  0  0  0  0  0
  1 32  1  0  0  0  0
  2  1  1  0  0  0  0
  3  5  2  0  0  0  0
  3  4  1  0  0  0  0
  4  2  2  0  0  0  0
  5  6  1  0  0  0  0
  6  1  2  0  0  0  0
  7 11  1  0  0  0  0
  7  5  1  1  0  0  0
  8  9  2  0  0  0  0
  9 14  1  0  0  0  0
 10  7  1  0  0  0  0
 10  8  1  0  0  0  0
 11  8  1  0  0  0  0
 13 16  1  0  0  0  0
 13 14  1  0  0  0  0
 14 12  2  0  0  0  0
 15 16  2  0  0  0  0
 17  3  1  0  0  0  0
 18 17  1  0  0  0  0
 19 18  2  0  0  0  0
 20 18  1  0  0  0  0
 21 20  1  0  0  0  0
 22 21  1  6  0  0  0
 22 25  1  0  0  0  0
 24 22  1  0  0  0  0
 24 23  1  0  0  0  0
 25 27  1  0  0  0  0
 26 31  1  0  0  0  0
 27 30  1  0  0  0  0
 28 27  2  0  0  0  0
 28 31  1  0  0  0  0
 30 29  1  0  0  0  0
 31 29  1  0  0  0  0
 32 33  1  0  0  0  0
 33 37  1  0  0  0  0
 34 37  2  0  0  0  0
 34 35  1  0  0  0  0
 35 36  2  0  0  0  0
 36 39  1  0  0  0  0
 37 38  1  0  0  0  0
 38 39  2  0  0  0  0
 40 35  1  0  0  0  0
 40 41  1  0  0  0  0
 41 43  1  0  0  0  0
 43 42  1  0  0  0  0
 44 43  1  0  0  0  0
M  END
>  <MODEL>
4

>  <REMARK>
 VINA RESULT:      -7.6      1.441      1.764
  Name = 
  17 active torsions:
  status: ('A' for Active; 'I' for Inactive)
    1  A    between atoms: O_2  and  C_19
    2  A    between atoms: O_3  and  C_9
    3  A    between atoms: O_3  and  C_42
    4  A    between atoms: C_5  and  N_27
    5  A    between atoms: C_6  and  C_8
    6  A    between atoms: C_6  and  C_32
    7  A    between atoms: C_7  and  C_28
    8  A    between atoms: C_8  and  C_13
    9  A    between atoms: C_13  and  C_19
   10  A    between atoms: C_16  and  N_33
   11  A    between atoms: C_17  and  C_20
   12  A    between atoms: C_17  and  N_35
   13  A    between atoms: C_19  and  N_27
   14  A    between atoms: C_24  and  C_32
   15  A    between atoms: N_29  and  C_37
   16  A    between atoms: C_31  and  N_35
   17  A    between atoms: C_36  and  C_42
                            x       y       z     vdW  Elec       q    Type
                         _______ _______ _______ _____ _____    ______ ____

>  <TORSDO>
F 17

$$$$
=
 OpenBabel11042412203D

 44 47  0  0  1  0  0  0  0  0999 V2000
  184.4570  178.4520  142.8780 C   0  0  0  0  0  0  0  0  0  0  0  0
  185.6640  178.5940  142.1920 C   0  0  0  0  0  3  0  0  0  0  0  0
  184.4660  178.9220  140.1080 C   0  0  0  0  0  0  0  0  0  0  0  0
  185.6700  178.8210  140.8160 C   0  0  0  0  0  3  0  0  0  0  0  0
  183.2360  178.8150  140.7920 C   0  0  0  0  0  0  0  0  0  0  0  0
  183.2510  178.5590  142.1740 C   0  0  0  0  0  3  0  0  0  0  0  0
  181.9330  178.9530  140.0380 C   0  0  2  0  0  3  0  0  0  0  0  0
  180.0800  177.5250  140.7650 C   0  0  0  0  0  0  0  0  0  0  0  0
  179.2500  176.7080  141.3360 N   0  0  0  0  0  0  0  0  0  0  0  0
  180.5220  179.2720  141.0780 S   0  0  0  0  0  0  0  0  0  0  0  0
  181.3710  177.3710  139.4700 S   0  0  0  0  0  0  0  0  0  0  0  0
  178.9650  174.4380  141.8560 O   0  0  0  0  0  0  0  0  0  0  0  0
  179.0750  174.9810  139.5890 N   0  0  0  0  0  0  0  0  0  0  0  0
  179.0910  175.3320  140.9730 C   0  0  0  0  0  0  0  0  0  0  0  0
  179.1850  173.2500  137.5880 S   0  0  0  0  0  1  0  0  0  0  0  0
  178.9310  173.6310  139.1530 C   0  0  0  0  0  3  0  0  0  0  0  0
  184.5300  179.1470  138.6310 C   0  0  0  0  0  2  0  0  0  0  0  0
  185.0590  177.9450  137.9160 C   0  0  0  0  0  0  0  0  0  0  0  0
  184.5440  176.8510  138.0950 O   0  0  0  0  0  0  0  0  0  0  0  0
  186.2220  178.0880  136.9870 C   0  0  0  0  0  2  0  0  0  0  0  0
  187.4800  178.3710  137.7920 C   0  0  0  0  0  2  0  0  0  0  0  0
  188.2710  177.0930  138.0220 C   0  0  2  0  0  3  0  0  0  0  0  0
  189.0860  178.3380  139.6640 C   0  0  0  0  0  1  0  0  0  0  0  0
  188.6890  177.0350  139.3540 O   0  0  0  0  0  0  0  0  0  0  0  0
  189.4360  177.0840  137.1520 N   0  0  0  0  0  2  0  0  0  0  0  0
  193.9200  175.2360  137.8690 C   0  0  0  0  0  1  0  0  0  0  0  0
  190.4290  176.0570  137.2040 C   0  0  0  0  0  0  0  0  0  0  0  0
  191.6700  176.3140  137.5550 C   0  0  0  0  0  3  0  0  0  0  0  0
  191.8550  173.9440  137.1210 C   0  0  0  0  0  2  0  0  0  0  0  0
  190.0980  174.3410  136.7970 S   0  0  0  0  0  0  0  0  0  0  0  0
  192.5090  175.1720  137.5370 N   0  0  0  0  0  0  0  0  0  0  0  0
  184.4790  178.2260  144.2530 O   0  0  0  0  0  0  0  0  0  0  0  0
  185.0140  179.1710  145.1740 C   0  0  0  0  0  2  0  0  0  0  0  0
  187.2300  178.0300  145.1290 C   0  0  0  0  0  3  0  0  0  0  0  0
  188.3530  177.4940  145.7700 C   0  0  0  0  0  0  0  0  0  0  0  0
  188.4350  177.5210  147.1660 C   0  0  0  0  0  3  0  0  0  0  0  0
  186.1940  178.5920  145.8790 C   0  0  0  0  0  0  0  0  0  0  0  0
  186.2830  178.6260  147.2760 C   0  0  0  0  0  3  0  0  0  0  0  0
  187.4010  178.0860  147.9190 C   0  0  0  0  0  3  0  0  0  0  0  0
  189.4710  176.9150  144.9700 C   0  0  0  0  0  2  0  0  0  0  0  0
  190.7420  177.5050  145.3720 N   0  0  0  0  0  2  0  0  0  0  0  0
  191.2030  176.6690  143.2420 O   0  0  0  0  0  1  0  0  0  0  0  0
  191.5620  177.6420  144.1760 C   0  0  0  0  0  3  0  0  0  0  0  0
  191.3720  178.9090  143.6240 O   0  0  0  0  0  1  0  0  0  0  0  0
  1 32  1  0  0  0  0
  2  1  1  0  0  0  0
  3  5  2  0  0  0  0
  3  4  1  0  0  0  0
  4  2  2  0  0  0  0
  5  6  1  0  0  0  0
  6  1  2  0  0  0  0
  7  5  1  1  0  0  0
  7 10  1  0  0  0  0
  8 10  1  0  0  0  0
  8  9  2  0  0  0  0
 11  7  1  0  0  0  0
 11  8  1  0  0  0  0
 13 14  1  0  0  0  0
 14  9  1  0  0  0  0
 14 12  2  0  0  0  0
 15 16  1  0  0  0  0
 16 13  2  0  0  0  0
 17  3  1  0  0  0  0
 18 19  2  0  0  0  0
 18 17  1  0  0  0  0
 20 21  1  0  0  0  0
 20 18  1  0  0  0  0
 22 21  1  1  0  0  0
 22 24  1  0  0  0  0
 24 23  1  0  0  0  0
 25 27  1  0  0  0  0
 25 22  1  0  0  0  0
 27 28  2  0  0  0  0
 29 31  1  0  0  0  0
 30 29  1  0  0  0  0
 30 27  1  0  0  0  0
 31 28  1  0  0  0  0
 31 26  1  0  0  0  0
 32 33  1  0  0  0  0
 33 37  1  0  0  0  0
 34 35  2  0  0  0  0
 34 37  1  0  0  0  0
 35 36  1  0  0  0  0
 36 39  2  0  0  0  0
 37 38  2  0  0  0  0
 38 39  1  0  0  0  0
 40 41  1  0  0  0  0
 40 35  1  0  0  0  0
 42 43  1  0  0  0  0
 43 41  1  0  0  0  0
 44 43  1  0  0  0  0
M  END
>  <MODEL>
5

>  <REMARK>
 VINA RESULT:      -7.5      2.949      9.531
  Name = 
  17 active torsions:
  status: ('A' for Active; 'I' for Inactive)
    1  A    between atoms: O_2  and  C_19
    2  A    between atoms: O_3  and  C_9
    3  A    between atoms: O_3  and  C_42
    4  A    between atoms: C_5  and  N_27
    5  A    between atoms: C_6  and  C_8
    6  A    between atoms: C_6  and  C_32
    7  A    between atoms: C_7  and  C_28
    8  A    between atoms: C_8  and  C_13
    9  A    between atoms: C_13  and  C_19
   10  A    between atoms: C_16  and  N_33
   11  A    between atoms: C_17  and  C_20
   12  A    between atoms: C_17  and  N_35
   13  A    between atoms: C_19  and  N_27
   14  A    between atoms: C_24  and  C_32
   15  A    between atoms: N_29  and  C_37
   16  A    between atoms: C_31  and  N_35
   17  A    between atoms: C_36  and  C_42
                            x       y       z     vdW  Elec       q    Type
                         _______ _______ _______ _____ _____    ______ ____

>  <TORSDO>
F 17

$$$$
=
 OpenBabel11042412203D

 44 47  0  0  1  0  0  0  0  0999 V2000
  190.3690  176.9230  140.8600 C   0  0  0  0  0  0  0  0  0  0  0  0
  189.3780  177.8920  140.7000 C   0  0  0  0  0  3  0  0  0  0  0  0
  189.6560  177.8070  138.2910 C   0  0  0  0  0  0  0  0  0  0  0  0
  189.0270  178.3370  139.4250 C   0  0  0  0  0  3  0  0  0  0  0  0
  190.6370  176.8020  138.4340 C   0  0  0  0  0  0  0  0  0  0  0  0
  190.9960  176.3870  139.7280 C   0  0  0  0  0  3  0  0  0  0  0  0
  191.2980  176.2060  137.2120 C   0  0  2  0  0  3  0  0  0  0  0  0
  193.1870  174.6960  137.6040 C   0  0  0  0  0  0  0  0  0  0  0  0
  194.1250  173.9190  138.0500 N   0  0  0  0  0  0  0  0  0  0  0  0
  191.4140  174.4280  137.2440 S   0  0  0  0  0  0  0  0  0  0  0  0
  193.0460  176.4910  137.2470 S   0  0  0  0  0  0  0  0  0  0  0  0
  195.7520  174.9080  139.4200 O   0  0  0  0  0  0  0  0  0  0  0  0
  196.4760  174.1220  137.3460 N   0  0  0  0  0  0  0  0  0  0  0  0
  195.4630  174.3450  138.3270 C   0  0  0  0  0  0  0  0  0  0  0  0
  198.9750  174.1020  136.4700 S   0  0  0  0  0  1  0  0  0  0  0  0
  197.8280  174.5270  137.5490 C   0  0  0  0  0  3  0  0  0  0  0  0
  189.2560  178.3330  136.9490 C   0  0  0  0  0  2  0  0  0  0  0  0
  187.7720  178.4620  136.8310 C   0  0  0  0  0  0  0  0  0  0  0  0
  187.2530  179.5690  136.8210 O   0  0  0  0  0  0  0  0  0  0  0  0
  186.9270  177.2340  136.7300 C   0  0  0  0  0  2  0  0  0  0  0  0
  185.5440  177.5230  137.2920 C   0  0  0  0  0  2  0  0  0  0  0  0
  184.5110  176.5800  136.6950 C   0  0  2  0  0  3  0  0  0  0  0  0
  183.4220  177.1090  134.8390 C   0  0  0  0  0  1  0  0  0  0  0  0
  183.4240  177.3180  136.2200 O   0  0  0  0  0  0  0  0  0  0  0  0
  184.0540  175.6560  137.7190 N   0  0  0  0  0  2  0  0  0  0  0  0
  181.2640  171.8150  136.4910 C   0  0  0  0  0  1  0  0  0  0  0  0
  183.7780  174.2790  137.4470 C   0  0  0  0  0  0  0  0  0  0  0  0
  182.5790  173.8730  137.0880 C   0  0  0  0  0  3  0  0  0  0  0  0
  183.7370  171.7520  137.1030 C   0  0  0  0  0  2  0  0  0  0  0  0
  185.0100  172.9810  137.5710 S   0  0  0  0  0  0  0  0  0  0  0  0
  182.4990  172.4760  136.8720 N   0  0  0  0  0  0  0  0  0  0  0  0
  190.7010  176.4960  142.1450 O   0  0  0  0  0  0  0  0  0  0  0  0
  191.3610  177.3390  143.0830 C   0  0  0  0  0  2  0  0  0  0  0  0
  189.3360  177.6730  144.4980 C   0  0  0  0  0  3  0  0  0  0  0  0
  188.6670  177.6110  145.7260 C   0  0  0  0  0  0  0  0  0  0  0  0
  189.3430  177.1570  146.8640 C   0  0  0  0  0  3  0  0  0  0  0  0
  190.6730  177.2800  144.4050 C   0  0  0  0  0  0  0  0  0  0  0  0
  191.3450  176.8170  145.5430 C   0  0  0  0  0  3  0  0  0  0  0  0
  190.6820  176.7600  146.7720 C   0  0  0  0  0  3  0  0  0  0  0  0
  187.2330  178.0080  145.8220 C   0  0  0  0  0  2  0  0  0  0  0  0
  186.4570  177.3660  144.7680 N   0  0  0  0  0  2  0  0  0  0  0  0
  185.3770  179.3780  145.2490 O   0  0  0  0  0  1  0  0  0  0  0  0
  185.3880  178.2790  144.3890 C   0  0  0  0  0  3  0  0  0  0  0  0
  185.5910  178.7150  143.0790 O   0  0  0  0  0  1  0  0  0  0  0  0
  1 32  1  0  0  0  0
  2  1  1  0  0  0  0
  3  5  2  0  0  0  0
  3  4  1  0  0  0  0
  4  2  2  0  0  0  0
  5  6  1  0  0  0  0
  6  1  2  0  0  0  0
  7 10  1  0  0  0  0
  7 11  1  0  0  0  0
  7  5  1  1  0  0  0
  8  9  2  0  0  0  0
  9 14  1  0  0  0  0
 10  8  1  0  0  0  0
 11  8  1  0  0  0  0
 13 16  2  0  0  0  0
 13 14  1  0  0  0  0
 14 12  2  0  0  0  0
 15 16  1  0  0  0  0
 17  3  1  0  0  0  0
 18 17  1  0  0  0  0
 19 18  2  0  0  0  0
 20 18  1  0  0  0  0
 20 21  1  0  0  0  0
 22 21  1  1  0  0  0
 22 25  1  0  0  0  0
 23 24  1  0  0  0  0
 24 22  1  0  0  0  0
 26 31  1  0  0  0  0
 27 30  1  0  0  0  0
 27 25  1  0  0  0  0
 28 27  2  0  0  0  0
 29 30  1  0  0  0  0
 31 28  1  0  0  0  0
 31 29  1  0  0  0  0
 32 33  1  0  0  0  0
 33 37  1  0  0  0  0
 34 35  1  0  0  0  0
 35 40  1  0  0  0  0
 35 36  2  0  0  0  0
 37 34  2  0  0  0  0
 37 38  1  0  0  0  0
 38 39  2  0  0  0  0
 39 36  1  0  0  0  0
 41 40  1  0  0  0  0
 43 41  1  0  0  0  0
 43 42  1  0  0  0  0
 44 43  1  0  0  0  0
M  END
>  <MODEL>
6

>  <REMARK>
 VINA RESULT:      -7.4      2.837      3.635
  Name = 
  17 active torsions:
  status: ('A' for Active; 'I' for Inactive)
    1  A    between atoms: O_2  and  C_19
    2  A    between atoms: O_3  and  C_9
    3  A    between atoms: O_3  and  C_42
    4  A    between atoms: C_5  and  N_27
    5  A    between atoms: C_6  and  C_8
    6  A    between atoms: C_6  and  C_32
    7  A    between atoms: C_7  and  C_28
    8  A    between atoms: C_8  and  C_13
    9  A    between atoms: C_13  and  C_19
   10  A    between atoms: C_16  and  N_33
   11  A    between atoms: C_17  and  C_20
   12  A    between atoms: C_17  and  N_35
   13  A    between atoms: C_19  and  N_27
   14  A    between atoms: C_24  and  C_32
   15  A    between atoms: N_29  and  C_37
   16  A    between atoms: C_31  and  N_35
   17  A    between atoms: C_36  and  C_42
                            x       y       z     vdW  Elec       q    Type
                         _______ _______ _______ _____ _____    ______ ____

>  <TORSDO>
F 17

$$$$
=
 OpenBabel11042412203D

 44 47  0  0  1  0  0  0  0  0999 V2000
  186.4840  178.6440  142.1250 C   0  0  0  0  0  0  0  0  0  0  0  0
  187.7930  178.4270  141.6930 C   0  0  0  0  0  3  0  0  0  0  0  0
  187.0280  178.2530  139.3970 C   0  0  0  0  0  0  0  0  0  0  0  0
  188.0640  178.2270  140.3390 C   0  0  0  0  0  3  0  0  0  0  0  0
  185.7020  178.5040  139.8140 C   0  0  0  0  0  0  0  0  0  0  0  0
  185.4460  178.6760  141.1850 C   0  0  0  0  0  3  0  0  0  0  0  0
  184.5850  178.5620  138.7970 C   0  0  2  0  0  3  0  0  0  0  0  0
  182.3130  178.8450  139.6700 C   0  0  0  0  0  0  0  0  0  0  0  0
  181.2230  179.0260  140.3500 N   0  0  0  0  0  0  0  0  0  0  0  0
  183.5380  179.9960  138.9510 S   0  0  0  0  0  0  0  0  0  0  0  0
  183.3200  177.3860  139.1940 S   0  0  0  0  0  0  0  0  0  0  0  0
  180.2100  177.8810  142.1290 O   0  0  0  0  0  0  0  0  0  0  0  0
  179.8530  177.0110  139.9930 N   0  0  0  0  0  2  0  0  0  0  0  0
  180.4200  177.9700  140.8860 C   0  0  0  0  0  0  0  0  0  0  0  0
  179.1500  174.4720  139.7260 S   0  0  0  0  0  0  0  0  0  0  0  0
  179.0510  175.9270  140.4560 C   0  0  0  0  0  3  0  0  0  0  0  0
  187.3700  178.0130  137.9610 C   0  0  0  0  0  2  0  0  0  0  0  0
  188.7400  178.5130  137.6330 C   0  0  0  0  0  0  0  0  0  0  0  0
  189.0020  179.7010  137.7490 O   0  0  0  0  0  0  0  0  0  0  0  0
  189.7850  177.5540  137.1600 C   0  0  0  0  0  2  0  0  0  0  0  0
  189.7330  176.2910  138.0050 C   0  0  0  0  0  2  0  0  0  0  0  0
  190.9920  176.1520  138.8450 C   0  0  2  0  0  3  0  0  0  0  0  0
  192.0670  177.5030  140.2350 C   0  0  0  0  0  1  0  0  0  0  0  0
  190.8400  176.8640  140.0370 O   0  0  0  0  0  0  0  0  0  0  0  0
  192.1250  176.6850  138.1070 N   0  0  0  0  0  2  0  0  0  0  0  0
  195.9200  173.6390  137.5100 C   0  0  0  0  0  1  0  0  0  0  0  0
  193.0250  175.8540  137.3710 C   0  0  0  0  0  0  0  0  0  0  0  0
  193.9930  175.1890  137.9640 C   0  0  0  0  0  3  0  0  0  0  0  0
  194.4010  174.5390  135.6730 C   0  0  0  0  0  2  0  0  0  0  0  0
  192.9400  175.6390  135.5920 S   0  0  0  0  0  0  0  0  0  0  0  0
  194.7860  174.4300  137.0690 N   0  0  0  0  0  0  0  0  0  0  0  0
  186.2400  178.8420  143.4840 O   0  0  0  0  0  0  0  0  0  0  0  0
  186.0140  177.7620  144.3830 C   0  0  0  0  0  2  0  0  0  0  0  0
  188.3550  177.3970  145.1580 C   0  0  0  0  0  3  0  0  0  0  0  0
  189.3390  177.4070  146.1540 C   0  0  0  0  0  0  0  0  0  0  0  0
  189.0040  177.7850  147.4590 C   0  0  0  0  0  3  0  0  0  0  0  0
  187.0420  177.7660  145.4630 C   0  0  0  0  0  0  0  0  0  0  0  0
  186.7120  178.1520  146.7680 C   0  0  0  0  0  3  0  0  0  0  0  0
  187.6910  178.1570  147.7660 C   0  0  0  0  0  3  0  0  0  0  0  0
  190.7460  177.0370  145.8240 C   0  0  0  0  0  2  0  0  0  0  0  0
  191.5910  177.1520  147.0060 N   0  0  0  0  0  2  0  0  0  0  0  0
  192.4290  175.1250  146.2110 O   0  0  0  0  0  1  0  0  0  0  0  0
  192.0390  175.8120  147.3600 C   0  0  0  0  0  3  0  0  0  0  0  0
  193.1190  175.8990  148.2390 O   0  0  0  0  0  1  0  0  0  0  0  0
  1 32  1  0  0  0  0
  2  1  1  0  0  0  0
  3  5  2  0  0  0  0
  3  4  1  0  0  0  0
  4  2  2  0  0  0  0
  5  6  1  0  0  0  0
  6  1  2  0  0  0  0
  7 10  1  0  0  0  0
  7 11  1  0  0  0  0
  7  5  1  1  0  0  0
  8  9  2  0  0  0  0
  9 14  1  0  0  0  0
 10  8  1  0  0  0  0
 11  8  1  0  0  0  0
 13 16  1  0  0  0  0
 13 14  1  0  0  0  0
 14 12  2  0  0  0  0
 15 16  2  0  0  0  0
 17  3  1  0  0  0  0
 18 19  2  0  0  0  0
 18 17  1  0  0  0  0
 20 18  1  0  0  0  0
 20 21  1  0  0  0  0
 22 21  1  6  0  0  0
 22 24  1  0  0  0  0
 24 23  1  0  0  0  0
 25 22  1  0  0  0  0
 27 28  2  0  0  0  0
 27 25  1  0  0  0  0
 29 31  1  0  0  0  0
 30 29  1  0  0  0  0
 30 27  1  0  0  0  0
 31 26  1  0  0  0  0
 31 28  1  0  0  0  0
 32 33  1  0  0  0  0
 33 37  1  0  0  0  0
 34 37  2  0  0  0  0
 34 35  1  0  0  0  0
 35 36  2  0  0  0  0
 36 39  1  0  0  0  0
 37 38  1  0  0  0  0
 38 39  2  0  0  0  0
 40 35  1  0  0  0  0
 40 41  1  0  0  0  0
 41 43  1  0  0  0  0
 42 43  1  0  0  0  0
 43 44  1  0  0  0  0
M  END
>  <MODEL>
7

>  <REMARK>
 VINA RESULT:      -7.4      2.660      9.705
  Name = 
  17 active torsions:
  status: ('A' for Active; 'I' for Inactive)
    1  A    between atoms: O_2  and  C_19
    2  A    between atoms: O_3  and  C_9
    3  A    between atoms: O_3  and  C_42
    4  A    between atoms: C_5  and  N_27
    5  A    between atoms: C_6  and  C_8
    6  A    between atoms: C_6  and  C_32
    7  A    between atoms: C_7  and  C_28
    8  A    between atoms: C_8  and  C_13
    9  A    between atoms: C_13  and  C_19
   10  A    between atoms: C_16  and  N_33
   11  A    between atoms: C_17  and  C_20
   12  A    between atoms: C_17  and  N_35
   13  A    between atoms: C_19  and  N_27
   14  A    between atoms: C_24  and  C_32
   15  A    between atoms: N_29  and  C_37
   16  A    between atoms: C_31  and  N_35
   17  A    between atoms: C_36  and  C_42
                            x       y       z     vdW  Elec       q    Type
                         _______ _______ _______ _____ _____    ______ ____

>  <TORSDO>
F 17

$$$$
=
 OpenBabel11042412203D

 44 47  0  0  1  0  0  0  0  0999 V2000
  186.2310  178.7360  140.4940 C   0  0  0  0  0  0  0  0  0  0  0  0
  186.7020  178.5910  141.8000 C   0  0  0  0  0  3  0  0  0  0  0  0
  188.8310  177.7830  140.9630 C   0  0  0  0  0  0  0  0  0  0  0  0
  187.9910  178.1130  142.0340 C   0  0  0  0  0  3  0  0  0  0  0  0
  188.3820  177.9560  139.6360 C   0  0  0  0  0  0  0  0  0  0  0  0
  187.0700  178.4140  139.4210 C   0  0  0  0  0  3  0  0  0  0  0  0
  189.2950  177.6300  138.4760 C   0  0  2  0  0  3  0  0  0  0  0  0
  188.2240  176.8750  136.4060 C   0  0  0  0  0  0  0  0  0  0  0  0
  187.4460  176.5330  135.4260 N   0  0  0  0  0  0  0  0  0  0  0  0
  188.8850  178.4850  136.9670 S   0  0  0  0  0  0  0  0  0  0  0  0
  188.9520  176.0080  137.8500 S   0  0  0  0  0  0  0  0  0  0  0  0
  185.7600  174.9090  135.2820 O   0  0  0  0  0  0  0  0  0  0  0  0
  187.9360  174.1930  134.8360 N   0  0  0  0  0  2  0  0  0  0  0  0
  186.9850  175.1990  135.1870 C   0  0  0  0  0  0  0  0  0  0  0  0
  187.5290  171.7690  135.8220 S   0  0  0  0  0  0  0  0  0  0  0  0
  187.5520  172.8410  134.5940 C   0  0  0  0  0  3  0  0  0  0  0  0
  190.1970  177.2550  141.2700 C   0  0  0  0  0  2  0  0  0  0  0  0
  190.2940  176.7780  142.6830 C   0  0  0  0  0  0  0  0  0  0  0  0
  189.7180  175.7550  143.0250 O   0  0  0  0  0  0  0  0  0  0  0  0
  191.0960  177.5580  143.6750 C   0  0  0  0  0  2  0  0  0  0  0  0
  191.5460  176.6360  144.7980 C   0  0  0  0  0  2  0  0  0  0  0  0
  191.0990  177.1740  146.1480 C   0  0  2  0  0  3  0  0  0  0  0  0
  192.1390  175.5090  147.1760 C   0  0  0  0  0  1  0  0  0  0  0  0
  192.0780  176.9030  147.1070 O   0  0  0  0  0  0  0  0  0  0  0  0
  189.8550  176.5290  146.5360 N   0  0  0  0  0  2  0  0  0  0  0  0
  185.6160  178.6160  145.2270 C   0  0  0  0  0  1  0  0  0  0  0  0
  188.6410  177.2570  146.7430 C   0  0  0  0  0  0  0  0  0  0  0  0
  187.7980  177.4880  145.7600 C   0  0  0  0  0  3  0  0  0  0  0  0
  186.6420  178.6150  147.5580 C   0  0  0  0  0  2  0  0  0  0  0  0
  188.1520  177.9270  148.3340 S   0  0  0  0  0  0  0  0  0  0  0  0
  186.6610  178.2320  146.1580 N   0  0  0  0  0  0  0  0  0  0  0  0
  184.9380  179.2170  140.2880 O   0  0  0  0  0  0  0  0  0  0  0  0
  184.2310  179.0060  139.0710 C   0  0  0  0  0  2  0  0  0  0  0  0
  182.0870  178.1230  139.9870 C   0  0  0  0  0  3  0  0  0  0  0  0
  181.1400  177.1040  140.1410 C   0  0  0  0  0  0  0  0  0  0  0  0
  181.3540  175.8590  139.5400 C   0  0  0  0  0  3  0  0  0  0  0  0
  183.2420  177.9020  139.2330 C   0  0  0  0  0  0  0  0  0  0  0  0
  183.4500  176.6570  138.6250 C   0  0  0  0  0  3  0  0  0  0  0  0
  182.5090  175.6360  138.7820 C   0  0  0  0  0  3  0  0  0  0  0  0
  179.8950  177.3470  140.9250 C   0  0  0  0  0  2  0  0  0  0  0  0
  179.5980  178.7730  140.9780 N   0  0  0  0  0  2  0  0  0  0  0  0
  179.8870  178.0820  143.1880 O   0  0  0  0  0  1  0  0  0  0  0  0
  179.4920  179.1490  142.3810 C   0  0  0  0  0  3  0  0  0  0  0  0
  180.3120  180.2500  142.6310 O   0  0  0  0  0  1  0  0  0  0  0  0
  1  2  1  0  0  0  0
  2  4  2  0  0  0  0
  3 17  1  0  0  0  0
  3  4  1  0  0  0  0
  5  3  2  0  0  0  0
  6  5  1  0  0  0  0
  6  1  2  0  0  0  0
  7  5  1  1  0  0  0
  8 10  1  0  0  0  0
  8 11  1  0  0  0  0
  9  8  2  0  0  0  0
 10  7  1  0  0  0  0
 11  7  1  0  0  0  0
 13 14  1  0  0  0  0
 14 12  2  0  0  0  0
 14  9  1  0  0  0  0
 16 13  1  0  0  0  0
 16 15  2  0  0  0  0
 17 18  1  0  0  0  0
 18 19  2  0  0  0  0
 18 20  1  0  0  0  0
 20 21  1  0  0  0  0
 22 21  1  6  0  0  0
 22 25  1  0  0  0  0
 22 24  1  0  0  0  0
 24 23  1  0  0  0  0
 25 27  1  0  0  0  0
 26 31  1  0  0  0  0
 27 30  1  0  0  0  0
 28 31  1  0  0  0  0
 28 27  2  0  0  0  0
 29 30  1  0  0  0  0
 31 29  1  0  0  0  0
 32  1  1  0  0  0  0
 33 37  1  0  0  0  0
 33 32  1  0  0  0  0
 34 35  1  0  0  0  0
 35 40  1  0  0  0  0
 36 35  2  0  0  0  0
 37 34  2  0  0  0  0
 38 39  2  0  0  0  0
 38 37  1  0  0  0  0
 39 36  1  0  0  0  0
 40 41  1  0  0  0  0
 41 43  1  0  0  0  0
 43 44  1  0  0  0  0
 43 42  1  0  0  0  0
M  END
>  <MODEL>
8

>  <REMARK>
 VINA RESULT:      -7.1      3.788      8.253
  Name = 
  17 active torsions:
  status: ('A' for Active; 'I' for Inactive)
    1  A    between atoms: O_2  and  C_19
    2  A    between atoms: O_3  and  C_9
    3  A    between atoms: O_3  and  C_42
    4  A    between atoms: C_5  and  N_27
    5  A    between atoms: C_6  and  C_8
    6  A    between atoms: C_6  and  C_32
    7  A    between atoms: C_7  and  C_28
    8  A    between atoms: C_8  and  C_13
    9  A    between atoms: C_13  and  C_19
   10  A    between atoms: C_16  and  N_33
   11  A    between atoms: C_17  and  C_20
   12  A    between atoms: C_17  and  N_35
   13  A    between atoms: C_19  and  N_27
   14  A    between atoms: C_24  and  C_32
   15  A    between atoms: N_29  and  C_37
   16  A    between atoms: C_31  and  N_35
   17  A    between atoms: C_36  and  C_42
                            x       y       z     vdW  Elec       q    Type
                         _______ _______ _______ _____ _____    ______ ____

>  <TORSDO>
F 17

$$$$
=
 OpenBabel11042412203D

 44 47  0  0  1  0  0  0  0  0999 V2000
  189.3630  177.5040  140.8770 C   0  0  0  0  0  0  0  0  0  0  0  0
  190.7100  177.1410  140.9000 C   0  0  0  0  0  3  0  0  0  0  0  0
  190.6760  176.7860  138.5000 C   0  0  0  0  0  0  0  0  0  0  0  0
  191.3620  176.7790  139.7210 C   0  0  0  0  0  3  0  0  0  0  0  0
  189.3220  177.1820  138.4550 C   0  0  0  0  0  0  0  0  0  0  0  0
  188.6750  177.5180  139.6570 C   0  0  0  0  0  3  0  0  0  0  0  0
  188.5850  177.2210  137.1350 C   0  0  2  0  0  3  0  0  0  0  0  0
  186.1620  176.8730  137.2140 C   0  0  0  0  0  0  0  0  0  0  0  0
  184.9090  176.6990  137.5010 N   0  0  0  0  0  0  0  0  0  0  0  0
  187.2180  178.3620  137.1000 S   0  0  0  0  0  0  0  0  0  0  0  0
  187.5960  175.7650  136.9320 S   0  0  0  0  0  0  0  0  0  0  0  0
  183.2640  175.2520  138.3410 O   0  0  0  0  0  0  0  0  0  0  0  0
  184.7950  174.3290  136.8400 N   0  0  0  0  0  2  0  0  0  0  0  0
  184.2720  175.4210  137.5990 C   0  0  0  0  0  0  0  0  0  0  0  0
  184.1070  172.1280  135.5380 S   0  0  0  0  0  0  0  0  0  0  0  0
  184.2190  173.0260  136.8950 C   0  0  0  0  0  3  0  0  0  0  0  0
  191.4170  176.3700  137.2690 C   0  0  0  0  0  2  0  0  0  0  0  0
  191.6350  174.8910  137.2340 C   0  0  0  0  0  0  0  0  0  0  0  0
  190.7520  174.1340  137.6120 O   0  0  0  0  0  0  0  0  0  0  0  0
  192.9350  174.3450  136.7400 C   0  0  0  0  0  2  0  0  0  0  0  0
  193.7040  173.7380  137.9030 C   0  0  0  0  0  2  0  0  0  0  0  0
  195.0710  173.2510  137.4510 C   0  0  2  0  0  3  0  0  0  0  0  0
  195.6950  171.1330  137.6450 C   0  0  0  0  0  1  0  0  0  0  0  0
  195.5630  172.3210  138.3700 O   0  0  0  0  0  0  0  0  0  0  0  0
  195.9830  174.3800  137.3740 N   0  0  0  0  0  2  0  0  0  0  0  0
  197.8770  175.6280  141.7210 C   0  0  0  0  0  1  0  0  0  0  0  0
  197.0260  174.5940  138.3280 C   0  0  0  0  0  0  0  0  0  0  0  0
  196.7700  175.0000  139.5530 C   0  0  0  0  0  3  0  0  0  0  0  0
  199.1800  174.8780  139.6640 C   0  0  0  0  0  2  0  0  0  0  0  0
  198.7650  174.3450  137.9630 S   0  0  0  0  0  0  0  0  0  0  0  0
  197.9310  175.1660  140.3460 N   0  0  0  0  0  0  0  0  0  0  0  0
  188.7350  177.8620  142.0690 O   0  0  0  0  0  0  0  0  0  0  0  0
  187.6400  177.1280  142.6060 C   0  0  0  0  0  2  0  0  0  0  0  0
  188.5970  177.2550  144.9040 C   0  0  0  0  0  3  0  0  0  0  0  0
  188.4830  177.5290  146.2730 C   0  0  0  0  0  0  0  0  0  0  0  0
  187.2590  177.9580  146.7970 C   0  0  0  0  0  3  0  0  0  0  0  0
  187.4930  177.4110  144.0620 C   0  0  0  0  0  0  0  0  0  0  0  0
  186.2700  177.8490  144.5880 C   0  0  0  0  0  3  0  0  0  0  0  0
  186.1530  178.1170  145.9550 C   0  0  0  0  0  3  0  0  0  0  0  0
  189.6670  177.3870  147.1680 C   0  0  0  0  0  2  0  0  0  0  0  0
  190.2660  176.0670  147.0120 N   0  0  0  0  0  2  0  0  0  0  0  0
  191.9970  177.1260  145.8600 O   0  0  0  0  0  1  0  0  0  0  0  0
  191.7070  176.2460  146.9030 C   0  0  0  0  0  3  0  0  0  0  0  0
  192.2040  176.7630  148.1000 O   0  0  0  0  0  1  0  0  0  0  0  0
  1  2  1  0  0  0  0
  1 32  1  0  0  0  0
  3  4  1  0  0  0  0
  4  2  2  0  0  0  0
  5  3  2  0  0  0  0
  5  6  1  0  0  0  0
  6  1  2  0  0  0  0
  7  5  1  1  0  0  0
  8  9  2  0  0  0  0
  9 14  1  0  0  0  0
 10  7  1  0  0  0  0
 10  8  1  0  0  0  0
 11  7  1  0  0  0  0
 11  8  1  0  0  0  0
 13 16  1  0  0  0  0
 13 14  1  0  0  0  0
 14 12  2  0  0  0  0
 15 16  2  0  0  0  0
 17  3  1  0  0  0  0
 18 17  1  0  0  0  0
 18 19  2  0  0  0  0
 20 18  1  0  0  0  0
 20 21  1  0  0  0  0
 22 21  1  1  0  0  0
 22 24  1  0  0  0  0
 23 24  1  0  0  0  0
 25 22  1  0  0  0  0
 25 27  1  0  0  0  0
 27 28  2  0  0  0  0
 28 31  1  0  0  0  0
 29 31  1  0  0  0  0
 30 27  1  0  0  0  0
 30 29  1  0  0  0  0
 31 26  1  0  0  0  0
 32 33  1  0  0  0  0
 33 37  1  0  0  0  0
 34 35  1  0  0  0  0
 35 36  2  0  0  0  0
 35 40  1  0  0  0  0
 37 38  1  0  0  0  0
 37 34  2  0  0  0  0
 38 39  2  0  0  0  0
 39 36  1  0  0  0  0
 41 40  1  0  0  0  0
 42 43  1  0  0  0  0
 43 41  1  0  0  0  0
 43 44  1  0  0  0  0
M  END
>  <MODEL>
9

>  <REMARK>
 VINA RESULT:      -7.0      3.425      9.742
  Name = 
  17 active torsions:
  status: ('A' for Active; 'I' for Inactive)
    1  A    between atoms: O_2  and  C_19
    2  A    between atoms: O_3  and  C_9
    3  A    between atoms: O_3  and  C_42
    4  A    between atoms: C_5  and  N_27
    5  A    between atoms: C_6  and  C_8
    6  A    between atoms: C_6  and  C_32
    7  A    between atoms: C_7  and  C_28
    8  A    between atoms: C_8  and  C_13
    9  A    between atoms: C_13  and  C_19
   10  A    between atoms: C_16  and  N_33
   11  A    between atoms: C_17  and  C_20
   12  A    between atoms: C_17  and  N_35
   13  A    between atoms: C_19  and  N_27
   14  A    between atoms: C_24  and  C_32
   15  A    between atoms: N_29  and  C_37
   16  A    between atoms: C_31  and  N_35
   17  A    between atoms: C_36  and  C_42
                            x       y       z     vdW  Elec       q    Type
                         _______ _______ _______ _____ _____    ______ ____

>  <TORSDO>
F 17

$$$$
