=
 OpenBabel11042412003D

 28 30  0  0  1  0  0  0  0  0999 V2000
  188.8010  177.7040  143.6360 C   0  0  0  0  0  0  0  0  0  0  0  0
  189.3640  177.6910  144.9420 C   0  0  0  0  0  0  0  0  0  0  0  0
  187.1430  177.5530  145.9100 C   0  0  0  0  0  3  0  0  0  0  0  0
  186.5780  177.6030  144.6340 C   0  0  0  0  0  3  0  0  0  0  0  0
  188.5240  177.6060  146.0600 C   0  0  0  0  0  3  0  0  0  0  0  0
  187.3870  177.6970  143.4920 C   0  0  0  0  0  0  0  0  0  0  0  0
  189.1460  177.4430  140.3420 C   0  0  0  0  0  0  0  0  0  0  0  0
  189.7150  177.8650  142.4390 C   0  0  2  0  0  3  0  0  0  0  0  0
  188.9660  178.3260  141.2720 N   0  0  0  0  0  0  0  0  0  0  0  0
  189.9940  176.3590  140.7240 N   0  0  0  0  0  0  0  0  0  0  0  0
  190.3350  176.5820  141.9560 C   0  0  0  0  0  3  0  0  0  0  0  0
  189.0550  178.8440  138.2870 C   0  0  0  0  0  1  0  0  0  0  0  0
  188.5540  177.5710  138.9660 C   0  0  1  0  0  3  0  0  0  0  0  0
  188.9130  176.3350  138.1400 C   0  0  0  0  0  2  0  0  0  0  0  0
  191.2340  175.8130  137.3210 C   0  0  0  0  0  0  0  0  0  0  0  0
  190.0520  176.6140  137.2750 N   0  0  0  0  0  2  0  0  0  0  0  0
  192.2580  176.1780  136.6790 O   0  0  0  0  0  0  0  0  0  0  0  0
  191.2650  174.6390  138.0750 O   0  0  0  0  0  1  0  0  0  0  0  0
  191.5260  178.6140  144.5620 O   0  0  0  0  0  0  0  0  0  0  0  0
  190.8310  177.7560  145.1780 C   0  0  0  0  0  0  0  0  0  0  0  0
  192.3820  176.0500  147.8860 N   0  0  0  0  0  0  0  0  0  0  0  0
  191.4970  176.8330  146.1140 C   0  0  0  0  0  0  0  0  0  0  0  0
  191.7490  177.1030  147.4050 N   0  0  0  0  0  2  0  0  0  0  0  0
  192.5470  175.1220  146.9510 N   0  0  0  0  0  0  0  0  0  0  0  0
  192.0020  175.5840  145.8110 C   0  0  0  0  0  3  0  0  0  0  0  0
  186.7910  177.8040  142.2130 O   0  0  0  0  0  0  0  0  0  0  0  0
  185.6810  179.3820  141.0570 N   0  0  0  0  0  1  0  0  0  0  0  0
  185.5440  178.3640  142.0260 N   0  0  0  0  0  2  0  0  0  0  0  0
  1  2  1  0  0  0  0
  2 20  1  0  0  0  0
  2  5  2  0  0  0  0
  3  5  1  0  0  0  0
  4  3  2  0  0  0  0
  6  1  2  0  0  0  0
  6  4  1  0  0  0  0
  7 10  1  0  0  0  0
  7  9  2  0  0  0  0
  8  1  1  1  0  0  0
  9  8  1  0  0  0  0
 10 11  2  0  0  0  0
 11  8  1  0  0  0  0
 13 12  1  6  0  0  0
 13  7  1  0  0  0  0
 14 13  1  0  0  0  0
 15 18  1  0  0  0  0
 16 15  1  0  0  0  0
 16 14  1  0  0  0  0
 17 15  2  0  0  0  0
 19 20  2  0  0  0  0
 20 22  1  0  0  0  0
 22 23  1  0  0  0  0
 23 21  1  0  0  0  0
 24 21  2  0  0  0  0
 25 22  2  0  0  0  0
 25 24  1  0  0  0  0
 26  6  1  0  0  0  0
 27 28  1  0  0  0  0
 28 26  1  0  0  0  0
M  END
>  <MODEL>
1

>  <REMARK>
 VINA RESULT:      -8.0      0.000      0.000
  Name = 
  8 active torsions:
  status: ('A' for Active; 'I' for Inactive)
    1  A    between atoms: C_4  and  C_8
    2  A    between atoms: C_4  and  C_12
    3  A    between atoms: C_6  and  C_10
    4  A    between atoms: C_7  and  C_9
    5  A    between atoms: C_9  and  C_27
    6  A    between atoms: N_14  and  O_26
    7  A    between atoms: N_17  and  C_27
    8  A    between atoms: O_26  and  C_28
                            x       y       z     vdW  Elec       q    Type
                         _______ _______ _______ _____ _____    ______ ____

>  <TORSDO>
F 8

$$$$
=
 OpenBabel11042412003D

 28 30  0  0  1  0  0  0  0  0999 V2000
  185.1930  178.2640  143.1720 C   0  0  0  0  0  0  0  0  0  0  0  0
  183.9100  178.3870  142.5720 C   0  0  0  0  0  0  0  0  0  0  0  0
  182.9820  179.1420  144.6840 C   0  0  0  0  0  3  0  0  0  0  0  0
  184.2300  178.9880  145.2920 C   0  0  0  0  0  3  0  0  0  0  0  0
  182.8250  178.8340  143.3380 C   0  0  0  0  0  3  0  0  0  0  0  0
  185.3370  178.5350  144.5600 C   0  0  0  0  0  0  0  0  0  0  0  0
  188.3870  177.3480  143.1190 C   0  0  0  0  0  0  0  0  0  0  0  0
  186.3430  177.7160  142.3520 C   0  0  2  0  0  3  0  0  0  0  0  0
  187.1930  176.8480  143.1650 N   0  0  0  0  0  0  0  0  0  0  0  0
  188.4960  178.5210  142.3120 N   0  0  0  0  0  0  0  0  0  0  0  0
  187.3050  178.7610  141.8570 C   0  0  0  0  0  3  0  0  0  0  0  0
  190.5430  176.1500  142.7900 C   0  0  0  0  0  1  0  0  0  0  0  0
  189.5630  176.7220  143.8130 C   0  0  1  0  0  3  0  0  0  0  0  0
  190.2460  177.7640  144.6990 C   0  0  0  0  0  2  0  0  0  0  0  0
  191.2780  176.7090  146.7360 C   0  0  0  0  0  0  0  0  0  0  0  0
  191.3860  177.1770  145.3900 N   0  0  0  0  0  2  0  0  0  0  0  0
  192.3190  176.3580  147.3590 O   0  0  0  0  0  0  0  0  0  0  0  0
  190.0350  176.6460  147.3660 O   0  0  0  0  0  1  0  0  0  0  0  0
  183.5250  176.8620  140.7850 O   0  0  0  0  0  0  0  0  0  0  0  0
  183.6650  178.0660  141.1410 C   0  0  0  0  0  0  0  0  0  0  0  0
  184.1640  180.6750  138.7750 N   0  0  0  0  0  0  0  0  0  0  0  0
  183.5890  179.1270  140.1200 C   0  0  0  0  0  0  0  0  0  0  0  0
  184.6470  179.7940  139.6310 N   0  0  0  0  0  2  0  0  0  0  0  0
  182.8410  180.5990  138.7040 N   0  0  0  0  0  0  0  0  0  0  0  0
  182.4390  179.6300  139.5470 C   0  0  0  0  0  3  0  0  0  0  0  0
  186.5780  178.3320  145.2100 O   0  0  0  0  0  0  0  0  0  0  0  0
  187.0610  178.3700  147.4070 N   0  0  0  0  0  1  0  0  0  0  0  0
  186.7010  177.5330  146.3280 N   0  0  0  0  0  2  0  0  0  0  0  0
  1  6  1  0  0  0  0
  2  1  2  0  0  0  0
  2  5  1  0  0  0  0
  3  4  1  0  0  0  0
  5  3  2  0  0  0  0
  6 26  1  0  0  0  0
  6  4  2  0  0  0  0
  7  9  2  0  0  0  0
  7 13  1  0  0  0  0
  8  9  1  0  0  0  0
  8  1  1  1  0  0  0
 10  7  1  0  0  0  0
 11 10  2  0  0  0  0
 11  8  1  0  0  0  0
 13 12  1  6  0  0  0
 13 14  1  0  0  0  0
 14 16  1  0  0  0  0
 15 17  2  0  0  0  0
 15 18  1  0  0  0  0
 16 15  1  0  0  0  0
 19 20  2  0  0  0  0
 20  2  1  0  0  0  0
 21 23  1  0  0  0  0
 22 20  1  0  0  0  0
 23 22  1  0  0  0  0
 24 21  2  0  0  0  0
 24 25  1  0  0  0  0
 25 22  2  0  0  0  0
 26 28  1  0  0  0  0
 28 27  1  0  0  0  0
M  END
>  <MODEL>
2

>  <REMARK>
 VINA RESULT:      -8.0      3.643      7.556
  Name = 
  8 active torsions:
  status: ('A' for Active; 'I' for Inactive)
    1  A    between atoms: C_4  and  C_8
    2  A    between atoms: C_4  and  C_12
    3  A    between atoms: C_6  and  C_10
    4  A    between atoms: C_7  and  C_9
    5  A    between atoms: C_9  and  C_27
    6  A    between atoms: N_14  and  O_26
    7  A    between atoms: N_17  and  C_27
    8  A    between atoms: O_26  and  C_28
                            x       y       z     vdW  Elec       q    Type
                         _______ _______ _______ _____ _____    ______ ____

>  <TORSDO>
F 8

$$$$
=
 OpenBabel11042412003D

 28 30  0  0  1  0  0  0  0  0999 V2000
  188.5810  177.8220  143.4680 C   0  0  0  0  0  0  0  0  0  0  0  0
  189.1620  177.8090  144.7670 C   0  0  0  0  0  0  0  0  0  0  0  0
  186.9570  177.6150  145.7620 C   0  0  0  0  0  3  0  0  0  0  0  0
  186.3740  177.6650  144.4930 C   0  0  0  0  0  3  0  0  0  0  0  0
  188.3370  177.6960  145.8940 C   0  0  0  0  0  3  0  0  0  0  0  0
  187.1660  177.7870  143.3420 C   0  0  0  0  0  0  0  0  0  0  0  0
  188.8340  177.7800  140.1550 C   0  0  0  0  0  0  0  0  0  0  0  0
  189.4760  178.0130  142.2610 C   0  0  2  0  0  3  0  0  0  0  0  0
  188.7310  178.6020  141.1510 N   0  0  0  0  0  0  0  0  0  0  0  0
  189.6200  176.6210  140.4360 N   0  0  0  0  0  0  0  0  0  0  0  0
  190.0030  176.7320  141.6710 C   0  0  0  0  0  3  0  0  0  0  0  0
  189.1040  178.9880  137.9970 C   0  0  0  0  0  1  0  0  0  0  0  0
  188.2210  178.0440  138.8100 C   0  0  1  0  0  3  0  0  0  0  0  0
  188.0190  176.7190  138.0730 C   0  0  0  0  0  2  0  0  0  0  0  0
  186.8020  176.9460  135.8830 C   0  0  0  0  0  0  0  0  0  0  0  0
  186.7860  176.7500  137.2980 N   0  0  0  0  0  2  0  0  0  0  0  0
  185.7150  177.1300  135.2670 O   0  0  0  0  0  1  0  0  0  0  0  0
  188.0080  176.9430  135.1820 O   0  0  0  0  0  0  0  0  0  0  0  0
  191.2970  178.7840  144.3750 O   0  0  0  0  0  0  0  0  0  0  0  0
  190.6290  177.9010  144.9850 C   0  0  0  0  0  0  0  0  0  0  0  0
  192.2430  176.1800  147.6460 N   0  0  0  0  0  0  0  0  0  0  0  0
  191.3280  176.9780  145.8960 C   0  0  0  0  0  0  0  0  0  0  0  0
  191.5750  177.2240  147.1920 N   0  0  0  0  0  2  0  0  0  0  0  0
  192.4350  175.2810  146.6890 N   0  0  0  0  0  0  0  0  0  0  0  0
  191.8730  175.7540  145.5620 C   0  0  0  0  0  3  0  0  0  0  0  0
  186.5520  177.8930  142.0720 O   0  0  0  0  0  0  0  0  0  0  0  0
  185.3730  179.3340  140.8080 N   0  0  0  0  0  1  0  0  0  0  0  0
  185.2980  178.4460  141.9040 N   0  0  0  0  0  2  0  0  0  0  0  0
  1  2  1  0  0  0  0
  2 20  1  0  0  0  0
  2  5  2  0  0  0  0
  3  5  1  0  0  0  0
  4  3  2  0  0  0  0
  6  1  2  0  0  0  0
  6  4  1  0  0  0  0
  7 10  1  0  0  0  0
  7  9  2  0  0  0  0
  8  1  1  1  0  0  0
  9  8  1  0  0  0  0
 10 11  2  0  0  0  0
 11  8  1  0  0  0  0
 13 12  1  6  0  0  0
 13  7  1  0  0  0  0
 14 13  1  0  0  0  0
 15 16  1  0  0  0  0
 16 14  1  0  0  0  0
 17 15  1  0  0  0  0
 18 15  2  0  0  0  0
 19 20  2  0  0  0  0
 20 22  1  0  0  0  0
 22 23  1  0  0  0  0
 23 21  1  0  0  0  0
 24 21  2  0  0  0  0
 25 22  2  0  0  0  0
 25 24  1  0  0  0  0
 26  6  1  0  0  0  0
 27 28  1  0  0  0  0
 28 26  1  0  0  0  0
M  END
>  <MODEL>
3

>  <REMARK>
 VINA RESULT:      -7.6      1.796      1.960
  Name = 
  8 active torsions:
  status: ('A' for Active; 'I' for Inactive)
    1  A    between atoms: C_4  and  C_8
    2  A    between atoms: C_4  and  C_12
    3  A    between atoms: C_6  and  C_10
    4  A    between atoms: C_7  and  C_9
    5  A    between atoms: C_9  and  C_27
    6  A    between atoms: N_14  and  O_26
    7  A    between atoms: N_17  and  C_27
    8  A    between atoms: O_26  and  C_28
                            x       y       z     vdW  Elec       q    Type
                         _______ _______ _______ _____ _____    ______ ____

>  <TORSDO>
F 8

$$$$
=
 OpenBabel11042412003D

 28 30  0  0  1  0  0  0  0  0999 V2000
  189.8020  176.8630  139.5060 C   0  0  0  0  0  0  0  0  0  0  0  0
  189.7740  176.2040  138.2470 C   0  0  0  0  0  0  0  0  0  0  0  0
  187.7980  177.4640  137.6190 C   0  0  0  0  0  3  0  0  0  0  0  0
  187.7940  178.0900  138.8670 C   0  0  0  0  0  3  0  0  0  0  0  0
  188.7750  176.5230  137.3180 C   0  0  0  0  0  3  0  0  0  0  0  0
  188.7730  177.7900  139.8260 C   0  0  0  0  0  0  0  0  0  0  0  0
  190.7140  176.8590  142.7020 C   0  0  0  0  0  0  0  0  0  0  0  0
  190.8460  176.4610  140.5280 C   0  0  2  0  0  3  0  0  0  0  0  0
  190.2170  176.0830  141.7920 N   0  0  0  0  0  0  0  0  0  0  0  0
  191.6870  177.7820  142.2110 N   0  0  0  0  0  0  0  0  0  0  0  0
  191.7760  177.5720  140.9340 C   0  0  0  0  0  3  0  0  0  0  0  0
  191.5330  176.3110  144.9870 C   0  0  0  0  0  1  0  0  0  0  0  0
  190.3370  176.7640  144.1530 C   0  0  1  0  0  3  0  0  0  0  0  0
  189.8200  178.1200  144.6350 C   0  0  0  0  0  2  0  0  0  0  0  0
  188.4900  177.6780  146.7240 C   0  0  0  0  0  0  0  0  0  0  0  0
  188.5470  177.9650  145.3250 N   0  0  0  0  0  2  0  0  0  0  0  0
  187.3810  177.3890  147.2560 O   0  0  0  0  0  0  0  0  0  0  0  0
  189.6490  177.7080  147.5000 O   0  0  0  0  0  1  0  0  0  0  0  0
  190.4210  173.9770  137.7070 O   0  0  0  0  0  0  0  0  0  0  0  0
  190.7800  175.1790  137.8610 C   0  0  0  0  0  0  0  0  0  0  0  0
  193.9470  176.6570  137.1990 N   0  0  0  0  0  0  0  0  0  0  0  0
  192.1960  175.5350  137.6600 C   0  0  0  0  0  0  0  0  0  0  0  0
  192.6360  176.7560  137.3130 N   0  0  0  0  0  0  0  0  0  0  0  0
  194.3590  175.4210  137.4540 N   0  0  0  0  0  2  0  0  0  0  0  0
  193.2760  174.6790  137.7460 C   0  0  0  0  0  3  0  0  0  0  0  0
  188.7160  178.3930  141.1050 O   0  0  0  0  0  0  0  0  0  0  0  0
  186.9970  177.7380  142.4000 N   0  0  0  0  0  1  0  0  0  0  0  0
  187.5300  178.8210  141.6650 N   0  0  0  0  0  2  0  0  0  0  0  0
  1  6  1  0  0  0  0
  2  1  2  0  0  0  0
  3  4  1  0  0  0  0
  4  6  2  0  0  0  0
  5  3  2  0  0  0  0
  5  2  1  0  0  0  0
  6 26  1  0  0  0  0
  7 13  1  0  0  0  0
  8  1  1  6  0  0  0
  8 11  1  0  0  0  0
  8  9  1  0  0  0  0
  9  7  2  0  0  0  0
 10  7  1  0  0  0  0
 11 10  2  0  0  0  0
 13 14  1  0  0  0  0
 13 12  1  1  0  0  0
 14 16  1  0  0  0  0
 15 17  2  0  0  0  0
 15 18  1  0  0  0  0
 16 15  1  0  0  0  0
 19 20  2  0  0  0  0
 20  2  1  0  0  0  0
 21 23  2  0  0  0  0
 21 24  1  0  0  0  0
 22 25  2  0  0  0  0
 22 20  1  0  0  0  0
 23 22  1  0  0  0  0
 24 25  1  0  0  0  0
 26 28  1  0  0  0  0
 28 27  1  0  0  0  0
M  END
>  <MODEL>
4

>  <REMARK>
 VINA RESULT:      -7.3      2.290      7.165
  Name = 
  8 active torsions:
  status: ('A' for Active; 'I' for Inactive)
    1  A    between atoms: C_4  and  C_8
    2  A    between atoms: C_4  and  C_12
    3  A    between atoms: C_6  and  C_10
    4  A    between atoms: C_7  and  C_9
    5  A    between atoms: C_9  and  C_27
    6  A    between atoms: N_14  and  O_26
    7  A    between atoms: N_17  and  C_27
    8  A    between atoms: O_26  and  C_28
                            x       y       z     vdW  Elec       q    Type
                         _______ _______ _______ _____ _____    ______ ____

>  <TORSDO>
F 8

$$$$
=
 OpenBabel11042412003D

 28 30  0  0  1  0  0  0  0  0999 V2000
  188.9720  177.6020  144.5800 C   0  0  0  0  0  0  0  0  0  0  0  0
  190.1580  177.3950  145.3380 C   0  0  0  0  0  0  0  0  0  0  0  0
  191.5070  177.9880  143.4090 C   0  0  0  0  0  3  0  0  0  0  0  0
  190.3500  178.1560  142.6450 C   0  0  0  0  0  3  0  0  0  0  0  0
  191.4080  177.6020  144.7400 C   0  0  0  0  0  3  0  0  0  0  0  0
  189.0810  177.9500  143.2060 C   0  0  0  0  0  0  0  0  0  0  0  0
  185.6890  178.1050  144.5050 C   0  0  0  0  0  0  0  0  0  0  0  0
  187.6290  177.3100  145.2150 C   0  0  2  0  0  3  0  0  0  0  0  0
  186.5830  177.2180  144.2000 N   0  0  0  0  0  0  0  0  0  0  0  0
  185.9830  178.8440  145.6910 N   0  0  0  0  0  0  0  0  0  0  0  0
  187.1230  178.3990  146.1230 C   0  0  0  0  0  3  0  0  0  0  0  0
  183.4310  179.1520  144.4950 C   0  0  0  0  0  1  0  0  0  0  0  0
  184.4300  178.3050  143.7090 C   0  0  1  0  0  3  0  0  0  0  0  0
  184.7710  178.9660  142.3730 C   0  0  0  0  0  2  0  0  0  0  0  0
  184.1810  178.6830  139.9440 C   0  0  0  0  0  0  0  0  0  0  0  0
  184.2960  178.1490  141.2640 N   0  0  0  0  0  2  0  0  0  0  0  0
  183.6160  178.0020  139.0440 O   0  0  0  0  0  0  0  0  0  0  0  0
  184.6830  179.9510  139.6470 O   0  0  0  0  0  1  0  0  0  0  0  0
  189.0340  176.9760  147.3940 O   0  0  0  0  0  0  0  0  0  0  0  0
  190.1290  176.9720  146.7630 C   0  0  0  0  0  0  0  0  0  0  0  0
  193.0460  176.5760  148.7600 N   0  0  0  0  0  0  0  0  0  0  0  0
  191.3570  176.5530  147.4620 C   0  0  0  0  0  0  0  0  0  0  0  0
  191.9760  177.2690  148.4140 N   0  0  0  0  0  2  0  0  0  0  0  0
  193.1340  175.4510  148.0620 N   0  0  0  0  0  0  0  0  0  0  0  0
  192.0820  175.4030  147.2240 C   0  0  0  0  0  3  0  0  0  0  0  0
  187.9250  178.0710  142.3990 O   0  0  0  0  0  0  0  0  0  0  0  0
  187.7830  178.0980  140.1540 N   0  0  0  0  0  1  0  0  0  0  0  0
  187.8750  178.9110  141.3050 N   0  0  0  0  0  2  0  0  0  0  0  0
  1  2  1  0  0  0  0
  2 20  1  0  0  0  0
  3  5  1  0  0  0  0
  4  6  1  0  0  0  0
  4  3  2  0  0  0  0
  5  2  2  0  0  0  0
  6  1  2  0  0  0  0
  7 10  1  0  0  0  0
  8  1  1  6  0  0  0
  8 11  1  0  0  0  0
  9  7  2  0  0  0  0
  9  8  1  0  0  0  0
 10 11  2  0  0  0  0
 13 12  1  1  0  0  0
 13  7  1  0  0  0  0
 14 13  1  0  0  0  0
 15 16  1  0  0  0  0
 16 14  1  0  0  0  0
 17 15  2  0  0  0  0
 18 15  1  0  0  0  0
 20 19  2  0  0  0  0
 20 22  1  0  0  0  0
 22 23  1  0  0  0  0
 23 21  1  0  0  0  0
 24 21  2  0  0  0  0
 25 22  2  0  0  0  0
 25 24  1  0  0  0  0
 26  6  1  0  0  0  0
 27 28  1  0  0  0  0
 28 26  1  0  0  0  0
M  END
>  <MODEL>
5

>  <REMARK>
 VINA RESULT:      -7.2      3.109      4.869
  Name = 
  8 active torsions:
  status: ('A' for Active; 'I' for Inactive)
    1  A    between atoms: C_4  and  C_8
    2  A    between atoms: C_4  and  C_12
    3  A    between atoms: C_6  and  C_10
    4  A    between atoms: C_7  and  C_9
    5  A    between atoms: C_9  and  C_27
    6  A    between atoms: N_14  and  O_26
    7  A    between atoms: N_17  and  C_27
    8  A    between atoms: O_26  and  C_28
                            x       y       z     vdW  Elec       q    Type
                         _______ _______ _______ _____ _____    ______ ____

>  <TORSDO>
F 8

$$$$
=
 OpenBabel11042412003D

 28 30  0  0  1  0  0  0  0  0999 V2000
  188.6450  177.4880  145.3670 C   0  0  0  0  0  0  0  0  0  0  0  0
  189.5420  177.6010  146.4650 C   0  0  0  0  0  0  0  0  0  0  0  0
  187.6850  178.1080  147.9430 C   0  0  0  0  0  3  0  0  0  0  0  0
  186.8010  178.0370  146.8640 C   0  0  0  0  0  3  0  0  0  0  0  0
  189.0440  177.9000  147.7400 C   0  0  0  0  0  3  0  0  0  0  0  0
  187.2630  177.7480  145.5720 C   0  0  0  0  0  0  0  0  0  0  0  0
  188.2600  177.8950  142.0920 C   0  0  0  0  0  0  0  0  0  0  0  0
  189.2020  177.2310  143.9820 C   0  0  2  0  0  3  0  0  0  0  0  0
  188.9320  178.3620  143.0960 N   0  0  0  0  0  0  0  0  0  0  0  0
  188.0230  176.4880  142.1540 N   0  0  0  0  0  0  0  0  0  0  0  0
  188.5610  176.0770  143.2600 C   0  0  0  0  0  3  0  0  0  0  0  0
  188.3450  178.1890  139.6220 C   0  0  0  0  0  1  0  0  0  0  0  0
  187.8120  178.7490  140.9400 C   0  0  1  0  0  3  0  0  0  0  0  0
  186.2850  178.8210  140.9220 C   0  0  0  0  0  2  0  0  0  0  0  0
  184.4400  178.4070  139.2630 C   0  0  0  0  0  0  0  0  0  0  0  0
  185.7880  178.7820  139.5540 N   0  0  0  0  0  2  0  0  0  0  0  0
  184.0890  178.2270  138.0630 O   0  0  0  0  0  0  0  0  0  0  0  0
  183.5150  178.2340  140.2930 O   0  0  0  0  0  1  0  0  0  0  0  0
  191.6050  177.8640  145.3060 O   0  0  0  0  0  0  0  0  0  0  0  0
  191.0080  177.4020  146.3200 C   0  0  0  0  0  0  0  0  0  0  0  0
  192.9470  176.2510  149.0720 N   0  0  0  0  0  0  0  0  0  0  0  0
  191.7850  176.6690  147.3360 C   0  0  0  0  0  0  0  0  0  0  0  0
  192.2980  177.2180  148.4490 N   0  0  0  0  0  2  0  0  0  0  0  0
  192.8710  175.1110  148.3960 N   0  0  0  0  0  0  0  0  0  0  0  0
  192.1460  175.3370  147.2860 C   0  0  0  0  0  3  0  0  0  0  0  0
  186.3580  177.7380  144.4850 O   0  0  0  0  0  0  0  0  0  0  0  0
  184.2690  178.2500  143.8230 N   0  0  0  0  0  1  0  0  0  0  0  0
  185.5100  178.7950  144.2230 N   0  0  0  0  0  2  0  0  0  0  0  0
  1  6  2  0  0  0  0
  1  2  1  0  0  0  0
  2  5  2  0  0  0  0
  4  3  2  0  0  0  0
  5  3  1  0  0  0  0
  6  4  1  0  0  0  0
  7 10  1  0  0  0  0
  7  9  2  0  0  0  0
  8  1  1  1  0  0  0
  9  8  1  0  0  0  0
 10 11  2  0  0  0  0
 11  8  1  0  0  0  0
 13 12  1  6  0  0  0
 13  7  1  0  0  0  0
 14 13  1  0  0  0  0
 15 16  1  0  0  0  0
 15 18  1  0  0  0  0
 16 14  1  0  0  0  0
 17 15  2  0  0  0  0
 19 20  2  0  0  0  0
 20  2  1  0  0  0  0
 20 22  1  0  0  0  0
 22 23  1  0  0  0  0
 23 21  1  0  0  0  0
 24 21  2  0  0  0  0
 25 22  2  0  0  0  0
 25 24  1  0  0  0  0
 26  6  1  0  0  0  0
 27 28  1  0  0  0  0
 28 26  1  0  0  0  0
M  END
>  <MODEL>
6

>  <REMARK>
 VINA RESULT:      -7.2      2.928      3.497
  Name = 
  8 active torsions:
  status: ('A' for Active; 'I' for Inactive)
    1  A    between atoms: C_4  and  C_8
    2  A    between atoms: C_4  and  C_12
    3  A    between atoms: C_6  and  C_10
    4  A    between atoms: C_7  and  C_9
    5  A    between atoms: C_9  and  C_27
    6  A    between atoms: N_14  and  O_26
    7  A    between atoms: N_17  and  C_27
    8  A    between atoms: O_26  and  C_28
                            x       y       z     vdW  Elec       q    Type
                         _______ _______ _______ _____ _____    ______ ____

>  <TORSDO>
F 8

$$$$
=
 OpenBabel11042412003D

 28 30  0  0  1  0  0  0  0  0999 V2000
  185.4390  178.3130  143.0330 C   0  0  0  0  0  0  0  0  0  0  0  0
  184.1360  178.6700  142.5880 C   0  0  0  0  0  0  0  0  0  0  0  0
  183.4320  179.0030  144.8870 C   0  0  0  0  0  3  0  0  0  0  0  0
  184.6970  178.6170  145.3360 C   0  0  0  0  0  3  0  0  0  0  0  0
  183.1550  179.0190  143.5260 C   0  0  0  0  0  3  0  0  0  0  0  0
  185.7020  178.2530  144.4280 C   0  0  0  0  0  0  0  0  0  0  0  0
  188.6480  177.7360  142.3950 C   0  0  0  0  0  0  0  0  0  0  0  0
  186.4710  177.8730  142.0160 C   0  0  2  0  0  3  0  0  0  0  0  0
  187.5430  177.1150  142.6590 N   0  0  0  0  0  0  0  0  0  0  0  0
  188.4830  178.8980  141.5810 N   0  0  0  0  0  0  0  0  0  0  0  0
  187.2100  179.0030  141.3520 C   0  0  0  0  0  3  0  0  0  0  0  0
  189.9280  175.7660  143.2190 C   0  0  0  0  0  1  0  0  0  0  0  0
  189.9910  177.2500  142.8610 C   0  0  1  0  0  3  0  0  0  0  0  0
  191.0320  177.5030  141.7690 C   0  0  0  0  0  2  0  0  0  0  0  0
  190.5550  176.6010  139.4700 C   0  0  0  0  0  0  0  0  0  0  0  0
  191.0320  176.4120  140.8030 N   0  0  0  0  0  2  0  0  0  0  0  0
  190.4180  175.6010  138.7100 O   0  0  0  0  0  0  0  0  0  0  0  0
  190.2360  177.8780  139.0060 O   0  0  0  0  0  1  0  0  0  0  0  0
  184.3110  179.5410  140.3800 O   0  0  0  0  0  0  0  0  0  0  0  0
  183.7650  178.6990  141.1490 C   0  0  0  0  0  0  0  0  0  0  0  0
  181.8980  176.1380  139.5350 N   0  0  0  0  0  0  0  0  0  0  0  0
  182.7650  177.7680  140.5970 C   0  0  0  0  0  0  0  0  0  0  0  0
  183.0550  176.6810  139.8650 N   0  0  0  0  0  0  0  0  0  0  0  0
  180.8830  176.8400  140.0240 N   0  0  0  0  0  2  0  0  0  0  0  0
  181.3930  177.8850  140.7000 C   0  0  0  0  0  3  0  0  0  0  0  0
  186.9580  177.8100  144.9080 O   0  0  0  0  0  0  0  0  0  0  0  0
  188.6500  177.4610  146.3490 N   0  0  0  0  0  1  0  0  0  0  0  0
  187.3150  177.9090  146.2370 N   0  0  0  0  0  2  0  0  0  0  0  0
  1  6  1  0  0  0  0
  2  1  2  0  0  0  0
  2  5  1  0  0  0  0
  3  4  1  0  0  0  0
  5  3  2  0  0  0  0
  6 26  1  0  0  0  0
  6  4  2  0  0  0  0
  7  9  2  0  0  0  0
  7 13  1  0  0  0  0
  8  9  1  0  0  0  0
  8  1  1  1  0  0  0
 10  7  1  0  0  0  0
 11 10  2  0  0  0  0
 11  8  1  0  0  0  0
 13 12  1  6  0  0  0
 14 13  1  0  0  0  0
 15 16  1  0  0  0  0
 16 14  1  0  0  0  0
 17 15  2  0  0  0  0
 18 15  1  0  0  0  0
 19 20  2  0  0  0  0
 20  2  1  0  0  0  0
 21 23  2  0  0  0  0
 21 24  1  0  0  0  0
 22 25  2  0  0  0  0
 22 20  1  0  0  0  0
 23 22  1  0  0  0  0
 24 25  1  0  0  0  0
 26 28  1  0  0  0  0
 28 27  1  0  0  0  0
M  END
>  <MODEL>
7

>  <REMARK>
 VINA RESULT:      -7.1      3.266      6.608
  Name = 
  8 active torsions:
  status: ('A' for Active; 'I' for Inactive)
    1  A    between atoms: C_4  and  C_8
    2  A    between atoms: C_4  and  C_12
    3  A    between atoms: C_6  and  C_10
    4  A    between atoms: C_7  and  C_9
    5  A    between atoms: C_9  and  C_27
    6  A    between atoms: N_14  and  O_26
    7  A    between atoms: N_17  and  C_27
    8  A    between atoms: O_26  and  C_28
                            x       y       z     vdW  Elec       q    Type
                         _______ _______ _______ _____ _____    ______ ____

>  <TORSDO>
F 8

$$$$
=
 OpenBabel11042412003D

 28 30  0  0  1  0  0  0  0  0999 V2000
  189.3980  177.5850  143.0210 C   0  0  0  0  0  0  0  0  0  0  0  0
  188.8300  177.4190  144.3150 C   0  0  0  0  0  0  0  0  0  0  0  0
  190.9970  177.8260  145.3290 C   0  0  0  0  0  3  0  0  0  0  0  0
  191.5720  177.9530  144.0620 C   0  0  0  0  0  3  0  0  0  0  0  0
  189.6400  177.5530  145.4500 C   0  0  0  0  0  3  0  0  0  0  0  0
  190.7950  177.8170  142.9020 C   0  0  0  0  0  0  0  0  0  0  0  0
  189.1660  177.7220  139.7090 C   0  0  0  0  0  0  0  0  0  0  0  0
  188.5280  177.3720  141.8000 C   0  0  2  0  0  3  0  0  0  0  0  0
  189.3200  176.8760  140.6770 N   0  0  0  0  0  0  0  0  0  0  0  0
  188.2960  178.8110  140.0220 N   0  0  0  0  0  0  0  0  0  0  0  0
  187.9140  178.6300  141.2490 C   0  0  0  0  0  3  0  0  0  0  0  0
  190.0740  176.0720  138.0830 C   0  0  0  0  0  1  0  0  0  0  0  0
  189.8060  177.5490  138.3610 C   0  0  1  0  0  3  0  0  0  0  0  0
  188.8990  178.1500  137.2860 C   0  0  0  0  0  2  0  0  0  0  0  0
  186.4990  177.4050  137.1790 C   0  0  0  0  0  0  0  0  0  0  0  0
  187.8800  177.1900  136.8840 N   0  0  0  0  0  2  0  0  0  0  0  0
  185.6650  176.4820  136.9620 O   0  0  0  0  0  0  0  0  0  0  0  0
  186.0690  178.6220  137.7090 O   0  0  0  0  0  1  0  0  0  0  0  0
  186.8900  176.0760  144.0030 O   0  0  0  0  0  0  0  0  0  0  0  0
  187.3890  177.1160  144.5200 C   0  0  0  0  0  0  0  0  0  0  0  0
  185.6630  179.0350  146.9680 N   0  0  0  0  0  0  0  0  0  0  0  0
  186.5240  178.0090  145.3110 C   0  0  0  0  0  0  0  0  0  0  0  0
  186.6320  178.2010  146.6350 N   0  0  0  0  0  2  0  0  0  0  0  0
  184.9410  179.3760  145.9080 N   0  0  0  0  0  0  0  0  0  0  0  0
  185.4540  178.7420  144.8380 C   0  0  0  0  0  3  0  0  0  0  0  0
  191.4090  177.8930  141.6300 O   0  0  0  0  0  0  0  0  0  0  0  0
  192.8960  177.4980  139.9890 N   0  0  0  0  0  1  0  0  0  0  0  0
  192.6110  177.2730  141.3540 N   0  0  0  0  0  2  0  0  0  0  0  0
  1  2  1  0  0  0  0
  2 20  1  0  0  0  0
  2  5  2  0  0  0  0
  3  5  1  0  0  0  0
  4  3  2  0  0  0  0
  6  1  2  0  0  0  0
  6  4  1  0  0  0  0
  7 10  1  0  0  0  0
  7  9  2  0  0  0  0
  8  1  1  1  0  0  0
  9  8  1  0  0  0  0
 10 11  2  0  0  0  0
 11  8  1  0  0  0  0
 13 12  1  6  0  0  0
 13  7  1  0  0  0  0
 14 13  1  0  0  0  0
 15 18  1  0  0  0  0
 16 15  1  0  0  0  0
 16 14  1  0  0  0  0
 17 15  2  0  0  0  0
 19 20  2  0  0  0  0
 20 22  1  0  0  0  0
 22 23  1  0  0  0  0
 23 21  1  0  0  0  0
 24 21  2  0  0  0  0
 25 22  2  0  0  0  0
 25 24  1  0  0  0  0
 26  6  1  0  0  0  0
 27 28  1  0  0  0  0
 28 26  1  0  0  0  0
M  END
>  <MODEL>
8

>  <REMARK>
 VINA RESULT:      -7.0      2.811      4.720
  Name = 
  8 active torsions:
  status: ('A' for Active; 'I' for Inactive)
    1  A    between atoms: C_4  and  C_8
    2  A    between atoms: C_4  and  C_12
    3  A    between atoms: C_6  and  C_10
    4  A    between atoms: C_7  and  C_9
    5  A    between atoms: C_9  and  C_27
    6  A    between atoms: N_14  and  O_26
    7  A    between atoms: N_17  and  C_27
    8  A    between atoms: O_26  and  C_28
                            x       y       z     vdW  Elec       q    Type
                         _______ _______ _______ _____ _____    ______ ____

>  <TORSDO>
F 8

$$$$
=
 OpenBabel11042412003D

 28 30  0  0  1  0  0  0  0  0999 V2000
  189.8070  176.9430  145.1820 C   0  0  0  0  0  0  0  0  0  0  0  0
  190.7420  176.0830  144.5430 C   0  0  0  0  0  0  0  0  0  0  0  0
  192.0570  175.9820  146.5800 C   0  0  0  0  0  3  0  0  0  0  0  0
  191.1650  176.8560  147.2050 C   0  0  0  0  0  3  0  0  0  0  0  0
  191.8490  175.6080  145.2580 C   0  0  0  0  0  3  0  0  0  0  0  0
  190.0500  177.3590  146.5190 C   0  0  0  0  0  0  0  0  0  0  0  0
  186.5750  177.7110  145.1170 C   0  0  0  0  0  0  0  0  0  0  0  0
  188.6520  177.5050  144.3790 C   0  0  2  0  0  3  0  0  0  0  0  0
  187.7410  178.2600  145.2370 N   0  0  0  0  0  0  0  0  0  0  0  0
  186.5420  176.6060  144.2120 N   0  0  0  0  0  0  0  0  0  0  0  0
  187.7540  176.4620  143.7710 C   0  0  0  0  0  3  0  0  0  0  0  0
  185.7200  179.3740  146.7590 C   0  0  0  0  0  1  0  0  0  0  0  0
  185.3530  178.2200  145.8280 C   0  0  1  0  0  3  0  0  0  0  0  0
  184.3110  178.6610  144.7990 C   0  0  0  0  0  2  0  0  0  0  0  0
  184.9240  179.0970  142.3990 C   0  0  0  0  0  0  0  0  0  0  0  0
  184.9280  179.4900  143.7720 N   0  0  0  0  0  2  0  0  0  0  0  0
  185.6050  179.7530  141.5610 O   0  0  0  0  0  0  0  0  0  0  0  0
  184.1810  177.9930  141.9800 O   0  0  0  0  0  1  0  0  0  0  0  0
  190.1320  174.5010  142.8720 O   0  0  0  0  0  0  0  0  0  0  0  0
  190.5900  175.6510  143.1280 C   0  0  0  0  0  0  0  0  0  0  0  0
  190.9610  177.5070  140.1170 N   0  0  0  0  0  0  0  0  0  0  0  0
  190.9710  176.5350  142.0120 C   0  0  0  0  0  0  0  0  0  0  0  0
  190.2850  176.6550  140.8640 N   0  0  0  0  0  2  0  0  0  0  0  0
  192.0530  177.9310  140.7420 N   0  0  0  0  0  0  0  0  0  0  0  0
  192.0960  177.3320  141.9470 C   0  0  0  0  0  3  0  0  0  0  0  0
  189.1920  178.2880  147.1530 O   0  0  0  0  0  0  0  0  0  0  0  0
  187.9300  177.5020  148.8420 N   0  0  0  0  0  1  0  0  0  0  0  0
  189.0320  178.3260  148.5230 N   0  0  0  0  0  2  0  0  0  0  0  0
  1  6  1  0  0  0  0
  2  1  2  0  0  0  0
  2  5  1  0  0  0  0
  3  4  1  0  0  0  0
  5  3  2  0  0  0  0
  6 26  1  0  0  0  0
  6  4  2  0  0  0  0
  7  9  2  0  0  0  0
  7 13  1  0  0  0  0
  8  1  1  1  0  0  0
  8  9  1  0  0  0  0
 10  7  1  0  0  0  0
 11 10  2  0  0  0  0
 11  8  1  0  0  0  0
 13 12  1  1  0  0  0
 14 13  1  0  0  0  0
 15 16  1  0  0  0  0
 16 14  1  0  0  0  0
 17 15  2  0  0  0  0
 18 15  1  0  0  0  0
 19 20  2  0  0  0  0
 20  2  1  0  0  0  0
 21 24  2  0  0  0  0
 21 23  1  0  0  0  0
 22 20  1  0  0  0  0
 23 22  1  0  0  0  0
 24 25  1  0  0  0  0
 25 22  2  0  0  0  0
 26 28  1  0  0  0  0
 28 27  1  0  0  0  0
M  END
>  <MODEL>
9

>  <REMARK>
 VINA RESULT:      -7.0      3.101      6.211
  Name = 
  8 active torsions:
  status: ('A' for Active; 'I' for Inactive)
    1  A    between atoms: C_4  and  C_8
    2  A    between atoms: C_4  and  C_12
    3  A    between atoms: C_6  and  C_10
    4  A    between atoms: C_7  and  C_9
    5  A    between atoms: C_9  and  C_27
    6  A    between atoms: N_14  and  O_26
    7  A    between atoms: N_17  and  C_27
    8  A    between atoms: O_26  and  C_28
                            x       y       z     vdW  Elec       q    Type
                         _______ _______ _______ _____ _____    ______ ____

>  <TORSDO>
F 8

$$$$
