=
 OpenBabel11032420193D

 32 36  0  0  0  0  0  0  0  0999 V2000
  189.8300  177.0900  145.4140 N   0  0  0  0  0  0  0  0  0  0  0  0
  184.3930  179.0590  145.4920 N   0  0  0  0  0  0  0  0  0  0  0  0
  189.0940  178.3160  142.3440 C   0  0  0  0  0  2  0  0  0  0  0  0
  186.0050  178.6390  147.3830 C   0  0  0  0  0  3  0  0  0  0  0  0
  187.1210  177.1760  143.0300 C   0  0  0  0  0  3  0  0  0  0  0  0
  187.3180  178.2390  147.8080 C   0  0  0  0  0  3  0  0  0  0  0  0
  185.4360  178.9360  141.8790 C   0  0  0  0  0  0  0  0  0  0  0  0
  187.6480  177.8980  142.0180 C   0  0  0  0  0  0  0  0  0  0  0  0
  186.1210  177.7260  143.8280 C   0  0  0  0  0  0  0  0  0  0  0  0
  191.9150  176.3850  145.8340 C   0  0  0  0  0  3  0  0  0  0  0  0
  191.1050  176.7480  143.4630 N   0  0  0  0  0  0  0  0  0  0  0  0
  184.4800  179.4850  141.0170 O   0  0  0  0  0  1  0  0  0  0  0  0
  190.8850  176.6650  144.9160 C   0  0  0  0  0  0  0  0  0  0  0  0
  184.1390  179.0170  144.1220 C   0  0  0  0  0  0  0  0  0  0  0  0
  185.5960  178.5520  145.9540 C   0  0  0  0  0  0  0  0  0  0  0  0
  190.4160  176.9720  147.6890 C   0  0  0  0  0  3  0  0  0  0  0  0
  188.1650  177.8050  146.7540 C   0  0  0  0  0  0  0  0  0  0  0  0
  189.4900  177.2700  146.7030 C   0  0  0  0  0  0  0  0  0  0  0  0
  187.6250  177.7050  145.5250 N   0  0  0  0  0  0  0  0  0  0  0  0
  182.8890  179.4980  143.6120 N   0  0  0  0  0  1  0  0  0  0  0  0
  190.3530  177.3150  142.2810 C   0  0  0  0  0  0  0  0  0  0  0  0
  191.7070  176.4420  147.2920 C   0  0  0  0  0  0  0  0  0  0  0  0
  185.1120  178.4950  143.2630 C   0  0  0  0  0  0  0  0  0  0  0  0
  186.4550  177.9550  145.1250 C   0  0  0  0  0  0  0  0  0  0  0  0
  186.7270  178.7270  141.3770 C   0  0  0  0  0  3  0  0  0  0  0  0
  192.3460  177.5520  140.7880 O   0  0  0  0  0  1  0  0  0  0  0  0
  190.5720  176.2990  140.0860 O   0  0  0  0  0  0  0  0  0  0  0  0
  191.0300  177.1530  140.9100 C   0  0  0  0  0  0  0  0  0  0  0  0
  192.8310  176.5060  148.2360 N   0  0  0  0  0  2  0  0  0  0  0  0
  192.8200  176.9380  149.5780 N   0  0  0  0  0  0  0  0  0  0  0  0
  192.8180  178.2120  149.5990 O   0  0  0  0  0  1  0  0  0  0  0  0
  194.2170  176.6700  150.0800 C   0  0  0  0  0  1  0  0  0  0  0  0
  1 18  1  0  0  0  0
  2 15  1  0  0  0  0
  4  6  1  0  0  0  0
  5  9  1  0  0  0  0
  7 23  1  0  0  0  0
  8  3  1  0  0  0  0
  8  5  2  0  0  0  0
  9 24  1  0  0  0  0
 10 22  2  0  0  0  0
 11 13  1  0  0  0  0
 12  7  1  0  0  0  0
 13  1  2  0  0  0  0
 13 10  1  0  0  0  0
 14  2  2  0  0  0  0
 15  4  2  0  0  0  0
 17  6  2  0  0  0  0
 18 17  1  0  0  0  0
 18 16  2  0  0  0  0
 19 17  1  0  0  0  0
 20 14  1  0  0  0  0
 21  3  1  0  0  0  0
 21 11  2  0  0  0  0
 22 16  1  0  0  0  0
 22 29  1  0  0  0  0
 23  9  2  0  0  0  0
 23 14  1  0  0  0  0
 24 19  2  0  0  0  0
 24 15  1  0  0  0  0
 25  7  2  0  0  0  0
 25  8  1  0  0  0  0
 26 28  1  0  0  0  0
 27 28  2  0  0  0  0
 28 21  1  0  0  0  0
 29 30  1  0  0  0  0
 30 31  1  0  0  0  0
 30 32  1  0  0  0  0
M  END
>  <MODEL>
1

>  <REMARK>
 VINA RESULT:     -11.0      0.000      0.000
  Name = 
  3 active torsions:
  status: ('A' for Active; 'I' for Inactive)
    1  A    between atoms: N_4  and  N_6
    2  A    between atoms: N_4  and  C_29
    3  A    between atoms: C_22  and  CA_28
                            x       y       z     vdW  Elec       q    Type
                         _______ _______ _______ _____ _____    ______ ____

>  <TORSDO>
F 3

$$$$
=
 OpenBabel11032420193D

 32 36  0  0  0  0  0  0  0  0999 V2000
  189.1530  177.4020  141.1670 N   0  0  0  0  0  0  0  0  0  0  0  0
  189.3420  177.5320  146.9450 N   0  0  0  0  0  0  0  0  0  0  0  0
  186.4340  179.0810  142.2870 C   0  0  0  0  0  2  0  0  0  0  0  0
  191.1780  177.1580  145.2590 C   0  0  0  0  0  3  0  0  0  0  0  0
  186.6850  177.2600  143.7980 C   0  0  0  0  0  3  0  0  0  0  0  0
  191.5800  177.0830  143.8820 C   0  0  0  0  0  3  0  0  0  0  0  0
  185.8880  178.6530  145.9610 C   0  0  0  0  0  0  0  0  0  0  0  0
  185.9180  178.3400  143.5350 C   0  0  0  0  0  0  0  0  0  0  0  0
  187.5240  177.2570  144.9080 C   0  0  0  0  0  0  0  0  0  0  0  0
  189.5280  177.2830  138.9610 C   0  0  0  0  0  3  0  0  0  0  0  0
  187.2680  177.9710  139.8730 N   0  0  0  0  0  0  0  0  0  0  0  0
  185.1250  179.0850  147.0510 O   0  0  0  0  0  1  0  0  0  0  0  0
  188.6380  177.4590  140.0390 C   0  0  0  0  0  0  0  0  0  0  0  0
  187.9900  177.7640  147.1900 C   0  0  0  0  0  0  0  0  0  0  0  0
  189.7470  177.3160  145.6390 C   0  0  0  0  0  0  0  0  0  0  0  0
  191.3640  176.8950  140.5450 C   0  0  0  0  0  3  0  0  0  0  0  0
  190.5120  177.2100  142.9550 C   0  0  0  0  0  0  0  0  0  0  0  0
  190.4210  177.1360  141.5300 C   0  0  0  0  0  0  0  0  0  0  0  0
  189.2610  177.2660  143.4520 N   0  0  0  0  0  0  0  0  0  0  0  0
  187.5300  177.9530  148.5350 N   0  0  0  0  0  1  0  0  0  0  0  0
  186.2130  178.5620  140.7790 C   0  0  0  0  0  0  0  0  0  0  0  0
  190.9380  176.9020  139.1580 C   0  0  0  0  0  0  0  0  0  0  0  0
  187.0970  177.7990  146.1140 C   0  0  0  0  0  0  0  0  0  0  0  0
  188.8570  177.2400  144.6470 C   0  0  0  0  0  0  0  0  0  0  0  0
  185.4390  178.9820  144.6760 C   0  0  0  0  0  3  0  0  0  0  0  0
  183.7280  178.8410  140.8320 O   0  0  0  0  0  1  0  0  0  0  0  0
  184.9180  179.7840  139.1270 O   0  0  0  0  0  0  0  0  0  0  0  0
  184.8930  178.9670  140.1030 C   0  0  0  0  0  0  0  0  0  0  0  0
  191.9430  177.0640  138.0980 N   0  0  0  0  0  2  0  0  0  0  0  0
  193.2480  176.5340  138.0450 N   0  0  0  0  0  0  0  0  0  0  0  0
  193.8210  176.9600  136.9890 O   0  0  0  0  0  1  0  0  0  0  0  0
  193.0600  175.0840  137.6740 C   0  0  0  0  0  1  0  0  0  0  0  0
  1 18  1  0  0  0  0
  2 14  1  0  0  0  0
  3  8  1  0  0  0  0
  4 15  1  0  0  0  0
  5  9  1  0  0  0  0
  6  4  2  0  0  0  0
  7 23  1  0  0  0  0
  7 12  1  0  0  0  0
  8  5  2  0  0  0  0
  8 25  1  0  0  0  0
  9 23  1  0  0  0  0
 10 22  2  0  0  0  0
 10 13  1  0  0  0  0
 11 13  1  0  0  0  0
 11 21  2  0  0  0  0
 13  1  2  0  0  0  0
 14 20  1  0  0  0  0
 15  2  2  0  0  0  0
 16 18  2  0  0  0  0
 17 19  2  0  0  0  0
 17  6  1  0  0  0  0
 18 17  1  0  0  0  0
 19 24  1  0  0  0  0
 21  3  1  0  0  0  0
 22 16  1  0  0  0  0
 23 14  2  0  0  0  0
 24  9  2  0  0  0  0
 24 15  1  0  0  0  0
 25  7  2  0  0  0  0
 27 28  2  0  0  0  0
 28 21  1  0  0  0  0
 28 26  1  0  0  0  0
 29 22  1  0  0  0  0
 30 29  1  0  0  0  0
 31 30  1  0  0  0  0
 32 30  1  0  0  0  0
M  END
>  <MODEL>
2

>  <REMARK>
 VINA RESULT:     -10.9      2.905      6.467
  Name = 
  3 active torsions:
  status: ('A' for Active; 'I' for Inactive)
    1  A    between atoms: N_4  and  N_6
    2  A    between atoms: N_4  and  C_29
    3  A    between atoms: C_22  and  CA_28
                            x       y       z     vdW  Elec       q    Type
                         _______ _______ _______ _____ _____    ______ ____

>  <TORSDO>
F 3

$$$$
=
 OpenBabel11032420193D

 32 36  0  0  0  0  0  0  0  0999 V2000
  187.2940  178.1160  141.8570 N   0  0  0  0  0  0  0  0  0  0  0  0
  191.6280  177.2030  145.5760 N   0  0  0  0  0  0  0  0  0  0  0  0
  186.2650  179.0490  144.9460 C   0  0  0  0  0  2  0  0  0  0  0  0
  191.6560  177.4810  143.0710 C   0  0  0  0  0  3  0  0  0  0  0  0
  187.5110  177.0530  145.3000 C   0  0  0  0  0  3  0  0  0  0  0  0
  190.9300  177.7350  141.8580 C   0  0  0  0  0  3  0  0  0  0  0  0
  188.5570  177.8570  147.6490 C   0  0  0  0  0  0  0  0  0  0  0  0
  186.8090  178.0100  145.9440 C   0  0  0  0  0  0  0  0  0  0  0  0
  188.8950  176.9930  145.4420 C   0  0  0  0  0  0  0  0  0  0  0  0
  185.9460  178.4780  140.1050 C   0  0  0  0  0  3  0  0  0  0  0  0
  185.0680  178.5730  142.4780 N   0  0  0  0  0  0  0  0  0  0  0  0
  188.8310  177.9360  149.0190 O   0  0  0  0  0  1  0  0  0  0  0  0
  186.1210  178.2900  141.4890 C   0  0  0  0  0  0  0  0  0  0  0  0
  190.8810  177.1420  146.7510 C   0  0  0  0  0  0  0  0  0  0  0  0
  190.9520  177.3090  144.3720 C   0  0  0  0  0  0  0  0  0  0  0  0
  188.3520  178.1350  139.7570 C   0  0  0  0  0  3  0  0  0  0  0  0
  189.5240  177.8400  142.0310 C   0  0  0  0  0  0  0  0  0  0  0  0
  188.4250  178.0170  141.1340 C   0  0  0  0  0  0  0  0  0  0  0  0
  189.0280  177.5800  143.2560 N   0  0  0  0  0  0  0  0  0  0  0  0
  191.5460  176.9940  148.0120 N   0  0  0  0  0  1  0  0  0  0  0  0
  185.0100  178.7880  143.9720 C   0  0  0  0  0  0  0  0  0  0  0  0
  187.0510  178.3230  139.1430 C   0  0  0  0  0  0  0  0  0  0  0  0
  189.4860  177.2170  146.6780 C   0  0  0  0  0  0  0  0  0  0  0  0
  189.6190  177.2610  144.3240 C   0  0  0  0  0  0  0  0  0  0  0  0
  187.3190  178.3330  147.2010 C   0  0  0  0  0  3  0  0  0  0  0  0
  182.5180  178.8270  143.7620 O   0  0  0  0  0  0  0  0  0  0  0  0
  183.4660  179.0850  145.8230 O   0  0  0  0  0  1  0  0  0  0  0  0
  183.6180  179.0710  144.5600 C   0  0  0  0  0  0  0  0  0  0  0  0
  186.9730  178.8550  137.7750 N   0  0  0  0  0  2  0  0  0  0  0  0
  186.7690  178.1470  136.5730 N   0  0  0  0  0  0  0  0  0  0  0  0
  186.4310  176.9510  136.8540 O   0  0  0  0  0  1  0  0  0  0  0  0
  188.1540  177.9070  136.0270 C   0  0  0  0  0  1  0  0  0  0  0  0
  2 14  1  0  0  0  0
  3  8  1  0  0  0  0
  4 15  1  0  0  0  0
  5  9  1  0  0  0  0
  5  8  2  0  0  0  0
  6 17  1  0  0  0  0
  6  4  2  0  0  0  0
  7 12  1  0  0  0  0
  8 25  1  0  0  0  0
  9 23  1  0  0  0  0
 10 13  1  0  0  0  0
 11 21  2  0  0  0  0
 13  1  2  0  0  0  0
 13 11  1  0  0  0  0
 14 20  1  0  0  0  0
 15  2  2  0  0  0  0
 16 18  2  0  0  0  0
 17 19  2  0  0  0  0
 18  1  1  0  0  0  0
 18 17  1  0  0  0  0
 19 24  1  0  0  0  0
 21 28  1  0  0  0  0
 21  3  1  0  0  0  0
 22 16  1  0  0  0  0
 22 10  2  0  0  0  0
 23 14  2  0  0  0  0
 23  7  1  0  0  0  0
 24 15  1  0  0  0  0
 24  9  2  0  0  0  0
 25  7  2  0  0  0  0
 26 28  2  0  0  0  0
 28 27  1  0  0  0  0
 29 22  1  0  0  0  0
 30 31  1  0  0  0  0
 30 29  1  0  0  0  0
 32 30  1  0  0  0  0
M  END
>  <MODEL>
3

>  <REMARK>
 VINA RESULT:     -10.4      3.016      8.094
  Name = 
  3 active torsions:
  status: ('A' for Active; 'I' for Inactive)
    1  A    between atoms: N_4  and  N_6
    2  A    between atoms: N_4  and  C_29
    3  A    between atoms: C_22  and  CA_28
                            x       y       z     vdW  Elec       q    Type
                         _______ _______ _______ _____ _____    ______ ____

>  <TORSDO>
F 3

$$$$
=
 OpenBabel11032420193D

 32 36  0  0  0  0  0  0  0  0999 V2000
  188.8870  177.6990  144.0010 N   0  0  0  0  0  0  0  0  0  0  0  0
  187.9220  177.6190  138.3000 N   0  0  0  0  0  0  0  0  0  0  0  0
  185.5400  177.7340  143.4840 C   0  0  0  0  0  2  0  0  0  0  0  0
  189.9530  176.9290  139.6220 C   0  0  0  0  0  3  0  0  0  0  0  0
  186.4250  179.1820  141.8160 C   0  0  0  0  0  3  0  0  0  0  0  0
  190.5790  176.7500  140.9030 C   0  0  0  0  0  3  0  0  0  0  0  0
  184.6390  178.4680  139.9300 C   0  0  0  0  0  0  0  0  0  0  0  0
  185.2700  178.6630  142.2860 C   0  0  0  0  0  0  0  0  0  0  0  0
  186.9220  178.7660  140.5840 C   0  0  0  0  0  0  0  0  0  0  0  0
  189.6630  177.5530  146.0980 C   0  0  0  0  0  3  0  0  0  0  0  0
  187.2550  178.1810  145.6310 N   0  0  0  0  0  0  0  0  0  0  0  0
  183.5780  178.5290  139.0190 O   0  0  0  0  0  1  0  0  0  0  0  0
  188.6340  177.8970  145.2010 C   0  0  0  0  0  0  0  0  0  0  0  0
  186.6300  178.1410  138.3030 C   0  0  0  0  0  0  0  0  0  0  0  0
  188.6100  177.5590  139.5000 C   0  0  0  0  0  0  0  0  0  0  0  0
  191.1060  176.9480  144.2050 C   0  0  0  0  0  3  0  0  0  0  0  0
  189.7920  177.1850  142.0020 C   0  0  0  0  0  0  0  0  0  0  0  0
  190.0150  177.2640  143.4130 C   0  0  0  0  0  0  0  0  0  0  0  0
  188.6310  177.8080  141.7270 N   0  0  0  0  0  0  0  0  0  0  0  0
  185.9030  178.2530  137.0720 N   0  0  0  0  0  1  0  0  0  0  0  0
  185.9020  178.2570  144.9620 C   0  0  0  0  0  0  0  0  0  0  0  0
  191.0000  177.1360  145.6400 C   0  0  0  0  0  0  0  0  0  0  0  0
  186.0640  178.5580  139.5120 C   0  0  0  0  0  0  0  0  0  0  0  0
  188.0900  178.0710  140.6180 C   0  0  0  0  0  0  0  0  0  0  0  0
  184.3270  178.3970  141.2940 C   0  0  0  0  0  3  0  0  0  0  0  0
  184.9390  178.6270  147.2410 O   0  0  0  0  0  1  0  0  0  0  0  0
  183.7270  179.2430  145.4060 O   0  0  0  0  0  0  0  0  0  0  0  0
  184.7140  178.5950  145.8790 C   0  0  0  0  0  0  0  0  0  0  0  0
  191.9460  176.4440  146.5260 N   0  0  0  0  0  2  0  0  0  0  0  0
  191.8820  176.2970  147.9270 N   0  0  0  0  0  0  0  0  0  0  0  0
  192.0550  177.4370  148.4680 O   0  0  0  0  0  1  0  0  0  0  0  0
  193.1810  175.6280  148.3040 C   0  0  0  0  0  1  0  0  0  0  0  0
  1 13  2  0  0  0  0
  2 14  2  0  0  0  0
  2 15  1  0  0  0  0
  3 21  1  0  0  0  0
  4  6  1  0  0  0  0
  5  8  1  0  0  0  0
  6 17  2  0  0  0  0
  7 25  1  0  0  0  0
  8  3  1  0  0  0  0
  9 24  1  0  0  0  0
  9  5  2  0  0  0  0
 12  7  1  0  0  0  0
 13 11  1  0  0  0  0
 13 10  1  0  0  0  0
 14 23  1  0  0  0  0
 15  4  2  0  0  0  0
 15 24  1  0  0  0  0
 16 22  1  0  0  0  0
 17 18  1  0  0  0  0
 18  1  1  0  0  0  0
 18 16  2  0  0  0  0
 19 17  1  0  0  0  0
 20 14  1  0  0  0  0
 21 11  2  0  0  0  0
 21 28  1  0  0  0  0
 22 10  2  0  0  0  0
 22 29  1  0  0  0  0
 23  7  2  0  0  0  0
 23  9  1  0  0  0  0
 24 19  2  0  0  0  0
 25  8  2  0  0  0  0
 27 28  2  0  0  0  0
 28 26  1  0  0  0  0
 29 30  1  0  0  0  0
 30 32  1  0  0  0  0
 30 31  1  0  0  0  0
M  END
>  <MODEL>
4

>  <REMARK>
 VINA RESULT:     -10.1      2.644      5.131
  Name = 
  3 active torsions:
  status: ('A' for Active; 'I' for Inactive)
    1  A    between atoms: N_4  and  N_6
    2  A    between atoms: N_4  and  C_29
    3  A    between atoms: C_22  and  CA_28
                            x       y       z     vdW  Elec       q    Type
                         _______ _______ _______ _____ _____    ______ ____

>  <TORSDO>
F 3

$$$$
=
 OpenBabel11032420193D

 32 36  0  0  0  0  0  0  0  0999 V2000
  187.9280  177.8880  140.1290 N   0  0  0  0  0  0  0  0  0  0  0  0
  189.3740  177.6630  145.7240 N   0  0  0  0  0  0  0  0  0  0  0  0
  185.4890  179.4040  141.9240 C   0  0  0  0  0  2  0  0  0  0  0  0
  190.8030  177.4570  143.6580 C   0  0  0  0  0  3  0  0  0  0  0  0
  186.0980  177.5010  143.2160 C   0  0  0  0  0  3  0  0  0  0  0  0
  190.8950  177.4810  142.2240 C   0  0  0  0  0  3  0  0  0  0  0  0
  185.7680  178.7290  145.5910 C   0  0  0  0  0  0  0  0  0  0  0  0
  185.2720  178.5690  143.2010 C   0  0  0  0  0  0  0  0  0  0  0  0
  187.1590  177.4560  144.1160 C   0  0  0  0  0  0  0  0  0  0  0  0
  187.8130  177.9200  137.8920 C   0  0  0  0  0  3  0  0  0  0  0  0
  185.7960  178.4750  139.3170 N   0  0  0  0  0  0  0  0  0  0  0  0
  185.2530  179.0660  146.8480 O   0  0  0  0  0  1  0  0  0  0  0  0
  187.1780  177.9990  139.1460 C   0  0  0  0  0  0  0  0  0  0  0  0
  188.1040  177.8350  146.2710 C   0  0  0  0  0  0  0  0  0  0  0  0
  189.4870  177.5430  144.3490 C   0  0  0  0  0  0  0  0  0  0  0  0
  189.9580  177.4950  139.0090 C   0  0  0  0  0  3  0  0  0  0  0  0
  189.6480  177.6300  141.5620 C   0  0  0  0  0  0  0  0  0  0  0  0
  189.2490  177.6420  140.1890 C   0  0  0  0  0  0  0  0  0  0  0  0
  188.5360  177.6140  142.3210 N   0  0  0  0  0  0  0  0  0  0  0  0
  187.9460  177.9240  147.6930 N   0  0  0  0  0  1  0  0  0  0  0  0
  184.9530  178.9730  140.4690 C   0  0  0  0  0  0  0  0  0  0  0  0
  189.2390  177.5750  137.7510 C   0  0  0  0  0  0  0  0  0  0  0  0
  186.9970  177.9080  145.4190 C   0  0  0  0  0  0  0  0  0  0  0  0
  188.4030  177.5000  143.5710 C   0  0  0  0  0  0  0  0  0  0  0  0
  185.0430  179.1230  144.4600 C   0  0  0  0  0  3  0  0  0  0  0  0
  183.2200  179.6750  138.8080 O   0  0  0  0  0  0  0  0  0  0  0  0
  182.5620  179.0160  140.8920 O   0  0  0  0  0  1  0  0  0  0  0  0
  183.5100  179.3760  140.1240 C   0  0  0  0  0  0  0  0  0  0  0  0
  189.9850  177.8360  136.5120 N   0  0  0  0  0  2  0  0  0  0  0  0
  190.0550  177.0390  135.3510 N   0  0  0  0  0  0  0  0  0  0  0  0
  188.9430  176.4380  135.1980 O   0  0  0  0  0  1  0  0  0  0  0  0
  190.9330  175.8740  135.7360 C   0  0  0  0  0  1  0  0  0  0  0  0
  1 18  1  0  0  0  0
  2 14  1  0  0  0  0
  3  8  1  0  0  0  0
  4 15  1  0  0  0  0
  5  9  1  0  0  0  0
  6  4  2  0  0  0  0
  7 12  1  0  0  0  0
  8  5  2  0  0  0  0
  8 25  1  0  0  0  0
  9 23  1  0  0  0  0
 10 13  1  0  0  0  0
 11 21  2  0  0  0  0
 13 11  1  0  0  0  0
 13  1  2  0  0  0  0
 14 20  1  0  0  0  0
 15  2  2  0  0  0  0
 16 18  2  0  0  0  0
 17  6  1  0  0  0  0
 17 19  2  0  0  0  0
 18 17  1  0  0  0  0
 19 24  1  0  0  0  0
 21  3  1  0  0  0  0
 22 10  2  0  0  0  0
 22 16  1  0  0  0  0
 23  7  1  0  0  0  0
 23 14  2  0  0  0  0
 24  9  2  0  0  0  0
 24 15  1  0  0  0  0
 25  7  2  0  0  0  0
 26 28  2  0  0  0  0
 28 21  1  0  0  0  0
 28 27  1  0  0  0  0
 29 22  1  0  0  0  0
 30 32  1  0  0  0  0
 30 29  1  0  0  0  0
 31 30  1  0  0  0  0
M  END
>  <MODEL>
5

>  <REMARK>
 VINA RESULT:      -9.8      3.321      7.553
  Name = 
  3 active torsions:
  status: ('A' for Active; 'I' for Inactive)
    1  A    between atoms: N_4  and  N_6
    2  A    between atoms: N_4  and  C_29
    3  A    between atoms: C_22  and  CA_28
                            x       y       z     vdW  Elec       q    Type
                         _______ _______ _______ _____ _____    ______ ____

>  <TORSDO>
F 3

$$$$
=
 OpenBabel11032420193D

 32 36  0  0  0  0  0  0  0  0999 V2000
  187.0270  178.1620  141.4250 N   0  0  0  0  0  0  0  0  0  0  0  0
  188.0050  177.6780  147.1040 N   0  0  0  0  0  0  0  0  0  0  0  0
  189.9190  176.4550  141.8690 C   0  0  0  0  0  2  0  0  0  0  0  0
  185.8670  178.1280  145.8470 C   0  0  0  0  0  3  0  0  0  0  0  0
  189.9750  178.1780  143.5100 C   0  0  0  0  0  3  0  0  0  0  0  0
  185.1960  178.2810  144.5860 C   0  0  0  0  0  3  0  0  0  0  0  0
  191.1920  176.6660  145.3790 C   0  0  0  0  0  0  0  0  0  0  0  0
  190.6740  177.1260  143.0320 C   0  0  0  0  0  0  0  0  0  0  0  0
  189.3760  178.1010  144.7650 C   0  0  0  0  0  0  0  0  0  0  0  0
  186.2170  178.4100  139.3510 C   0  0  0  0  0  3  0  0  0  0  0  0
  188.6150  177.6980  139.7460 N   0  0  0  0  0  0  0  0  0  0  0  0
  192.1590  176.1800  146.2640 O   0  0  0  0  0  1  0  0  0  0  0  0
  187.3050  178.1810  140.2150 C   0  0  0  0  0  0  0  0  0  0  0  0
  189.3790  177.4500  147.0580 C   0  0  0  0  0  0  0  0  0  0  0  0
  187.3450  177.9670  145.9210 C   0  0  0  0  0  0  0  0  0  0  0  0
  184.7370  178.6750  141.2920 C   0  0  0  0  0  3  0  0  0  0  0  0
  186.0560  178.2260  143.4570 C   0  0  0  0  0  0  0  0  0  0  0  0
  185.8580  178.3880  142.0500 C   0  0  0  0  0  0  0  0  0  0  0  0
  187.3810  178.1570  143.6890 N   0  0  0  0  0  0  0  0  0  0  0  0
  190.0990  177.1850  148.2680 N   0  0  0  0  0  1  0  0  0  0  0  0
  189.8320  177.0680  140.3830 C   0  0  0  0  0  0  0  0  0  0  0  0
  184.8750  178.7580  139.8500 C   0  0  0  0  0  0  0  0  0  0  0  0
  190.0370  177.4920  145.8240 C   0  0  0  0  0  0  0  0  0  0  0  0
  188.0170  178.1160  144.7770 C   0  0  0  0  0  0  0  0  0  0  0  0
  191.3730  176.4230  144.0120 C   0  0  0  0  0  3  0  0  0  0  0  0
  192.2420  177.2170  139.7340 O   0  0  0  0  0  1  0  0  0  0  0  0
  190.8990  175.6930  138.6900 O   0  0  0  0  0  0  0  0  0  0  0  0
  190.9890  176.7230  139.4320 C   0  0  0  0  0  0  0  0  0  0  0  0
  183.6770  178.6470  139.0050 N   0  0  0  0  0  2  0  0  0  0  0  0
  182.8380  179.6800  138.5400 N   0  0  0  0  0  0  0  0  0  0  0  0
  183.3390  180.8000  138.8810 O   0  0  0  0  0  1  0  0  0  0  0  0
  181.6380  179.6410  139.4530 C   0  0  0  0  0  1  0  0  0  0  0  0
  1 18  1  0  0  0  0
  3  8  1  0  0  0  0
  4 15  1  0  0  0  0
  5  9  1  0  0  0  0
  6  4  2  0  0  0  0
  7 23  1  0  0  0  0
  7 12  1  0  0  0  0
  8  5  2  0  0  0  0
  8 25  1  0  0  0  0
  9 24  2  0  0  0  0
  9 23  1  0  0  0  0
 10 22  2  0  0  0  0
 10 13  1  0  0  0  0
 11 13  1  0  0  0  0
 11 21  2  0  0  0  0
 13  1  2  0  0  0  0
 14  2  1  0  0  0  0
 14 20  1  0  0  0  0
 15  2  2  0  0  0  0
 16 18  2  0  0  0  0
 17 19  2  0  0  0  0
 17  6  1  0  0  0  0
 18 17  1  0  0  0  0
 19 24  1  0  0  0  0
 21  3  1  0  0  0  0
 22 16  1  0  0  0  0
 23 14  2  0  0  0  0
 24 15  1  0  0  0  0
 25  7  2  0  0  0  0
 27 28  2  0  0  0  0
 28 26  1  0  0  0  0
 28 21  1  0  0  0  0
 29 22  1  0  0  0  0
 30 31  1  0  0  0  0
 30 29  1  0  0  0  0
 30 32  1  0  0  0  0
M  END
>  <MODEL>
6

>  <REMARK>
 VINA RESULT:      -9.7      2.387      7.316
  Name = 
  3 active torsions:
  status: ('A' for Active; 'I' for Inactive)
    1  A    between atoms: N_4  and  N_6
    2  A    between atoms: N_4  and  C_29
    3  A    between atoms: C_22  and  CA_28
                            x       y       z     vdW  Elec       q    Type
                         _______ _______ _______ _____ _____    ______ ____

>  <TORSDO>
F 3

$$$$
=
 OpenBabel11032420193D

 32 36  0  0  0  0  0  0  0  0999 V2000
  186.3530  178.4050  142.0070 N   0  0  0  0  0  0  0  0  0  0  0  0
  188.3070  177.4110  147.3590 N   0  0  0  0  0  0  0  0  0  0  0  0
  189.2910  176.7350  141.7790 C   0  0  0  0  0  2  0  0  0  0  0  0
  185.9800  177.9260  146.5390 C   0  0  0  0  0  3  0  0  0  0  0  0
  189.6180  178.2960  143.5450 C   0  0  0  0  0  3  0  0  0  0  0  0
  185.0980  178.1810  145.4330 C   0  0  0  0  0  3  0  0  0  0  0  0
  191.1530  176.6450  145.0210 C   0  0  0  0  0  0  0  0  0  0  0  0
  190.2320  177.3110  142.8540 C   0  0  0  0  0  0  0  0  0  0  0  0
  189.2470  178.0870  144.8710 C   0  0  0  0  0  0  0  0  0  0  0  0
  185.1930  178.8270  140.1380 C   0  0  0  0  0  3  0  0  0  0  0  0
  187.6280  178.1400  140.0440 N   0  0  0  0  0  0  0  0  0  0  0  0
  192.2640  176.1010  145.6750 O   0  0  0  0  0  1  0  0  0  0  0  0
  186.4160  178.5440  140.7750 C   0  0  0  0  0  0  0  0  0  0  0  0
  189.6530  177.2230  147.0550 C   0  0  0  0  0  0  0  0  0  0  0  0
  187.4500  177.7940  146.3410 C   0  0  0  0  0  0  0  0  0  0  0  0
  184.0700  178.8710  142.3210 C   0  0  0  0  0  3  0  0  0  0  0  0
  185.7500  178.2530  144.1730 C   0  0  0  0  0  0  0  0  0  0  0  0
  185.3090  178.5420  142.8440 C   0  0  0  0  0  0  0  0  0  0  0  0
  187.0950  178.1950  144.1650 N   0  0  0  0  0  0  0  0  0  0  0  0
  190.5760  176.8630  148.0910 N   0  0  0  0  0  1  0  0  0  0  0  0
  188.9420  177.4820  140.3970 C   0  0  0  0  0  0  0  0  0  0  0  0
  183.9550  179.0940  140.8920 C   0  0  0  0  0  0  0  0  0  0  0  0
  190.0870  177.3970  145.7360 C   0  0  0  0  0  0  0  0  0  0  0  0
  187.9110  178.0670  145.1190 C   0  0  0  0  0  0  0  0  0  0  0  0
  191.0960  176.5360  143.6260 C   0  0  0  0  0  3  0  0  0  0  0  0
  190.5540  176.0340  139.1480 O   0  0  0  0  0  1  0  0  0  0  0  0
  189.8030  177.9590  138.1760 O   0  0  0  0  0  0  0  0  0  0  0  0
  189.9190  177.2570  139.2310 C   0  0  0  0  0  0  0  0  0  0  0  0
  182.6300  179.0330  140.2600 N   0  0  0  0  0  2  0  0  0  0  0  0
  181.3820  178.7900  140.8690 N   0  0  0  0  0  0  0  0  0  0  0  0
  180.8590  177.7590  140.3360 O   0  0  0  0  0  1  0  0  0  0  0  0
  180.4710  179.8600  140.3210 C   0  0  0  0  0  1  0  0  0  0  0  0
  1 18  1  0  0  0  0
  3  8  1  0  0  0  0
  5  9  1  0  0  0  0
  6  4  2  0  0  0  0
  7 12  1  0  0  0  0
  7 23  1  0  0  0  0
  8  5  2  0  0  0  0
  8 25  1  0  0  0  0
  9 24  2  0  0  0  0
  9 23  1  0  0  0  0
 10 13  1  0  0  0  0
 10 22  2  0  0  0  0
 11 21  2  0  0  0  0
 11 13  1  0  0  0  0
 13  1  2  0  0  0  0
 14  2  1  0  0  0  0
 14 20  1  0  0  0  0
 15  4  1  0  0  0  0
 15  2  2  0  0  0  0
 16 18  2  0  0  0  0
 17  6  1  0  0  0  0
 18 17  1  0  0  0  0
 19 17  2  0  0  0  0
 19 24  1  0  0  0  0
 21  3  1  0  0  0  0
 22 16  1  0  0  0  0
 23 14  2  0  0  0  0
 24 15  1  0  0  0  0
 25  7  2  0  0  0  0
 26 28  1  0  0  0  0
 27 28  2  0  0  0  0
 28 21  1  0  0  0  0
 29 30  1  0  0  0  0
 29 22  1  0  0  0  0
 31 30  1  0  0  0  0
 32 30  1  0  0  0  0
M  END
>  <MODEL>
7

>  <REMARK>
 VINA RESULT:      -9.6      2.370      7.368
  Name = 
  3 active torsions:
  status: ('A' for Active; 'I' for Inactive)
    1  A    between atoms: N_4  and  N_6
    2  A    between atoms: N_4  and  C_29
    3  A    between atoms: C_22  and  CA_28
                            x       y       z     vdW  Elec       q    Type
                         _______ _______ _______ _____ _____    ______ ____

>  <TORSDO>
F 3

$$$$
=
 OpenBabel11032420193D

 32 36  0  0  0  0  0  0  0  0999 V2000
  188.4260  177.6260  144.1230 N   0  0  0  0  0  0  0  0  0  0  0  0
  182.8490  179.0610  144.6470 N   0  0  0  0  0  0  0  0  0  0  0  0
  187.3910  178.9760  141.1940 C   0  0  0  0  0  2  0  0  0  0  0  0
  184.6080  178.6730  146.4090 C   0  0  0  0  0  3  0  0  0  0  0  0
  185.5760  177.6120  141.9070 C   0  0  0  0  0  3  0  0  0  0  0  0
  185.9750  178.3710  146.7300 C   0  0  0  0  0  3  0  0  0  0  0  0
  183.6700  179.2760  140.9810 C   0  0  0  0  0  0  0  0  0  0  0  0
  185.9710  178.4460  140.9210 C   0  0  0  0  0  0  0  0  0  0  0  0
  184.5830  178.0110  142.7970 C   0  0  0  0  0  0  0  0  0  0  0  0
  190.5880  177.0950  144.3730 C   0  0  0  0  0  3  0  0  0  0  0  0
  189.6020  177.5360  142.0830 N   0  0  0  0  0  0  0  0  0  0  0  0
  182.6160  179.7880  140.2160 O   0  0  0  0  0  1  0  0  0  0  0  0
  189.4820  177.3360  143.5370 C   0  0  0  0  0  0  0  0  0  0  0  0
  182.5150  179.0860  143.2940 C   0  0  0  0  0  0  0  0  0  0  0  0
  184.1190  178.6420  145.0030 C   0  0  0  0  0  0  0  0  0  0  0  0
  189.1620  177.4150  146.3460 C   0  0  0  0  0  3  0  0  0  0  0  0
  186.7900  178.0900  145.6020 C   0  0  0  0  0  0  0  0  0  0  0  0
  188.1530  177.6870  145.4380 C   0  0  0  0  0  0  0  0  0  0  0  0
  186.1860  178.0210  144.4010 N   0  0  0  0  0  0  0  0  0  0  0  0
  181.1960  179.4790  142.8920 N   0  0  0  0  0  1  0  0  0  0  0  0
  188.7290  178.1050  140.9890 C   0  0  0  0  0  0  0  0  0  0  0  0
  190.4680  177.0360  145.8410 C   0  0  0  0  0  0  0  0  0  0  0  0
  183.4750  178.7170  142.3470 C   0  0  0  0  0  0  0  0  0  0  0  0
  184.9750  178.1840  144.0870 C   0  0  0  0  0  0  0  0  0  0  0  0
  184.9400  179.2230  140.3940 C   0  0  0  0  0  3  0  0  0  0  0  0
  189.8340  176.9070  139.0920 O   0  0  0  0  0  1  0  0  0  0  0  0
  188.9770  178.9940  138.7420 O   0  0  0  0  0  0  0  0  0  0  0  0
  189.3310  178.0980  139.5730 C   0  0  0  0  0  0  0  0  0  0  0  0
  191.6390  177.1440  146.7220 N   0  0  0  0  0  2  0  0  0  0  0  0
  191.7810  176.6800  148.0460 N   0  0  0  0  0  0  0  0  0  0  0  0
  192.3990  177.5620  148.7260 O   0  0  0  0  0  1  0  0  0  0  0  0
  192.8460  175.6140  147.9680 C   0  0  0  0  0  1  0  0  0  0  0  0
  1 18  1  0  0  0  0
  2 15  1  0  0  0  0
  4  6  1  0  0  0  0
  5  9  1  0  0  0  0
  7 23  1  0  0  0  0
  8  3  1  0  0  0  0
  8  5  2  0  0  0  0
  9 24  1  0  0  0  0
 10 22  2  0  0  0  0
 11 13  1  0  0  0  0
 12  7  1  0  0  0  0
 13  1  2  0  0  0  0
 13 10  1  0  0  0  0
 14  2  2  0  0  0  0
 15  4  2  0  0  0  0
 17  6  2  0  0  0  0
 18 17  1  0  0  0  0
 18 16  2  0  0  0  0
 19 17  1  0  0  0  0
 20 14  1  0  0  0  0
 21  3  1  0  0  0  0
 21 11  2  0  0  0  0
 22 16  1  0  0  0  0
 22 29  1  0  0  0  0
 23  9  2  0  0  0  0
 23 14  1  0  0  0  0
 24 19  2  0  0  0  0
 24 15  1  0  0  0  0
 25  8  1  0  0  0  0
 25  7  2  0  0  0  0
 26 28  1  0  0  0  0
 27 28  2  0  0  0  0
 28 21  1  0  0  0  0
 29 30  1  0  0  0  0
 30 31  1  0  0  0  0
 32 30  1  0  0  0  0
M  END
>  <MODEL>
8

>  <REMARK>
 VINA RESULT:      -9.6      1.590      2.077
  Name = 
  3 active torsions:
  status: ('A' for Active; 'I' for Inactive)
    1  A    between atoms: N_4  and  N_6
    2  A    between atoms: N_4  and  C_29
    3  A    between atoms: C_22  and  CA_28
                            x       y       z     vdW  Elec       q    Type
                         _______ _______ _______ _____ _____    ______ ____

>  <TORSDO>
F 3

$$$$
=
 OpenBabel11032420193D

 32 36  0  0  0  0  0  0  0  0999 V2000
  185.7440  178.6740  143.4970 N   0  0  0  0  0  0  0  0  0  0  0  0
  189.6500  176.8380  147.3470 N   0  0  0  0  0  0  0  0  0  0  0  0
  188.2560  177.1410  141.8210 C   0  0  0  0  0  2  0  0  0  0  0  0
  187.2170  177.4260  147.6420 C   0  0  0  0  0  3  0  0  0  0  0  0
  189.3430  178.3880  143.5320 C   0  0  0  0  0  3  0  0  0  0  0  0
  185.9760  177.8420  147.0490 C   0  0  0  0  0  3  0  0  0  0  0  0
  191.2650  176.5500  143.9610 C   0  0  0  0  0  0  0  0  0  0  0  0
  189.5770  177.5500  142.4990 C   0  0  0  0  0  0  0  0  0  0  0  0
  189.5320  177.9490  144.8390 C   0  0  0  0  0  0  0  0  0  0  0  0
  183.9470  179.3780  142.3590 C   0  0  0  0  0  3  0  0  0  0  0  0
  186.1000  178.7780  141.1700 N   0  0  0  0  0  0  0  0  0  0  0  0
  192.5190  175.9310  144.0070 O   0  0  0  0  0  1  0  0  0  0  0  0
  185.3090  179.0220  142.3870 C   0  0  0  0  0  0  0  0  0  0  0  0
  190.7470  176.7380  146.4940 C   0  0  0  0  0  0  0  0  0  0  0  0
  188.4730  177.3670  146.8440 C   0  0  0  0  0  0  0  0  0  0  0  0
  183.8090  179.0240  144.7850 C   0  0  0  0  0  3  0  0  0  0  0  0
  186.0640  178.1430  145.6640 C   0  0  0  0  0  0  0  0  0  0  0  0
  185.1360  178.6420  144.6960 C   0  0  0  0  0  0  0  0  0  0  0  0
  187.2860  178.1200  145.0990 N   0  0  0  0  0  0  0  0  0  0  0  0
  191.9930  176.2310  146.9900 N   0  0  0  0  0  1  0  0  0  0  0  0
  187.4130  178.1030  140.8450 C   0  0  0  0  0  0  0  0  0  0  0  0
  183.1350  179.4820  143.5850 C   0  0  0  0  0  0  0  0  0  0  0  0
  190.6170  177.1440  145.1620 C   0  0  0  0  0  0  0  0  0  0  0  0
  188.4120  177.8540  145.6030 C   0  0  0  0  0  0  0  0  0  0  0  0
  190.6430  176.6770  142.7130 C   0  0  0  0  0  3  0  0  0  0  0  0
  186.8670  177.7510  138.4290 O   0  0  0  0  0  0  0  0  0  0  0  0
  188.8110  178.8110  138.9890 O   0  0  0  0  0  1  0  0  0  0  0  0
  187.8220  178.1020  139.3620 C   0  0  0  0  0  0  0  0  0  0  0  0
  181.6660  179.4960  143.5460 N   0  0  0  0  0  2  0  0  0  0  0  0
  180.8240  179.7860  142.4530 N   0  0  0  0  0  0  0  0  0  0  0  0
  180.0330  180.7280  142.7820 O   0  0  0  0  0  1  0  0  0  0  0  0
  179.8520  178.6340  142.4000 C   0  0  0  0  0  1  0  0  0  0  0  0
  1 18  1  0  0  0  0
  3  8  1  0  0  0  0
  5  9  1  0  0  0  0
  6  4  1  0  0  0  0
  7 12  1  0  0  0  0
  7 23  1  0  0  0  0
  8 25  1  0  0  0  0
  8  5  2  0  0  0  0
  9 23  2  0  0  0  0
  9 24  1  0  0  0  0
 10 13  1  0  0  0  0
 10 22  2  0  0  0  0
 11 13  1  0  0  0  0
 13  1  2  0  0  0  0
 14 20  1  0  0  0  0
 14  2  2  0  0  0  0
 15  2  1  0  0  0  0
 15  4  2  0  0  0  0
 17  6  2  0  0  0  0
 18 16  2  0  0  0  0
 18 17  1  0  0  0  0
 19 24  2  0  0  0  0
 19 17  1  0  0  0  0
 21 11  2  0  0  0  0
 21  3  1  0  0  0  0
 22 16  1  0  0  0  0
 23 14  1  0  0  0  0
 24 15  1  0  0  0  0
 25  7  2  0  0  0  0
 26 28  2  0  0  0  0
 27 28  1  0  0  0  0
 28 21  1  0  0  0  0
 29 22  1  0  0  0  0
 30 31  1  0  0  0  0
 30 29  1  0  0  0  0
 32 30  1  0  0  0  0
M  END
>  <MODEL>
9

>  <REMARK>
 VINA RESULT:      -9.5      2.234      7.315
  Name = 
  3 active torsions:
  status: ('A' for Active; 'I' for Inactive)
    1  A    between atoms: N_4  and  N_6
    2  A    between atoms: N_4  and  C_29
    3  A    between atoms: C_22  and  CA_28
                            x       y       z     vdW  Elec       q    Type
                         _______ _______ _______ _____ _____    ______ ____

>  <TORSDO>
F 3

$$$$
