=
 OpenBabel11032419443D

 45 49  0  0  1  0  0  0  0  0999 V2000
  188.1070  178.2160  140.1220 C   0  0  0  0  0  0  0  0  0  0  0  0
  186.8440  178.6590  139.9680 N   0  0  0  0  0  0  0  0  0  0  0  0
  188.3660  177.7990  141.3720 N   0  0  0  0  0  0  0  0  0  0  0  0
  189.1100  178.1810  139.1420 C   0  0  0  0  0  0  0  0  0  0  0  0
  190.5920  177.2800  140.7900 C   0  0  0  0  0  3  0  0  0  0  0  0
  190.3340  177.7040  139.5180 N   0  0  0  0  0  0  0  0  0  0  0  0
  187.2400  177.9600  142.0870 C   0  0  0  0  0  3  0  0  0  0  0  0
  189.5770  177.3180  141.7530 C   0  0  0  0  0  0  0  0  0  0  0  0
  186.3110  178.4920  141.2010 C   0  0  0  0  0  0  0  0  0  0  0  0
  184.9260  178.8420  141.5380 C   0  0  0  0  0  0  0  0  0  0  0  0
  184.6910  179.7610  142.3670 O   0  0  0  0  0  0  0  0  0  0  0  0
  183.8490  178.1340  140.9200 N   0  0  0  0  0  2  0  0  0  0  0  0
  181.8340  179.0850  139.9750 C   0  0  2  0  0  3  0  0  0  0  0  0
  181.5600  177.6600  140.2610 C   0  0  1  0  0  3  0  0  0  0  0  0
  182.4560  178.4470  141.1960 C   0  0  1  0  0  3  0  0  0  0  0  0
  180.5700  178.5110  139.7350 O   0  0  0  0  0  0  0  0  0  0  0  0
  188.8640  178.6120  137.7400 C   0  0  0  0  0  0  0  0  0  0  0  0
  189.1350  179.7940  137.3990 O   0  0  0  0  0  0  0  0  0  0  0  0
  188.3160  177.7330  136.7480 N   0  0  0  0  0  2  0  0  0  0  0  0
  188.1030  176.3340  136.9310 C   0  0  0  0  0  3  0  0  0  0  0  0
  183.0250  174.3320  137.3150 C   0  0  0  0  0  0  0  0  0  0  0  0
  184.1970  173.4330  137.2020 C   0  0  0  0  0  0  0  0  0  0  0  0
  186.8920  175.8670  137.0210 C   0  0  0  0  0  0  0  0  0  0  0  0
  184.6680  177.5570  137.2090 O   0  0  0  0  0  0  0  0  0  0  0  0
  184.5180  176.3060  137.2110 C   0  0  0  0  0  0  0  0  0  0  0  0
  186.5010  173.0910  137.0160 F   0  0  0  0  0  0  0  0  0  0  0  0
  185.6750  175.3960  137.1100 C   0  0  0  0  0  0  0  0  0  0  0  0
  185.4390  173.9350  137.1080 C   0  0  0  0  0  0  0  0  0  0  0  0
  183.2070  175.7500  137.3130 N   0  0  0  0  0  2  0  0  0  0  0  0
  181.8630  173.8550  137.4150 O   0  0  0  0  0  0  0  0  0  0  0  0
  183.9900  171.9540  137.2020 C   0  0  0  0  0  1  0  0  0  0  0  0
  189.8470  176.8850  143.1550 C   0  0  0  0  0  2  0  0  0  0  0  0
  191.1520  176.4060  143.2580 O   0  0  0  0  0  0  0  0  0  0  0  0
  191.3820  176.3120  144.6310 C   0  0  0  0  0  2  0  0  0  0  0  0
  190.6560  177.4310  145.3570 C   0  0  0  0  0  2  0  0  0  0  0  0
  190.7040  177.2170  146.7370 O   0  0  0  0  0  0  0  0  0  0  0  0
  189.1320  177.5180  147.3020 P   0  0  2  0  0  0  0  0  0  0  0  0
  189.1700  178.5860  148.3760 O   0  0  0  0  0  1  0  0  0  0  0  0
  188.4790  176.0920  147.9430 O   0  0  0  0  0  0  0  0  0  0  0  0
  188.1820  178.0530  146.0030 O   0  0  0  0  0  0  0  0  0  0  0  0
  186.9190  177.4940  146.2100 C   0  0  0  0  0  2  0  0  0  0  0  0
  186.1780  179.8500  147.6520 O   0  0  0  0  0  1  0  0  0  0  0  0
  185.5810  179.5970  145.1200 O   0  0  0  0  0  0  0  0  0  0  0  0
  185.6930  178.8160  146.4080 P   0  0  0  0  0  0  0  0  0  0  0  0
  184.1910  178.1390  146.7900 O   0  0  0  0  0  1  0  0  0  0  0  0
  1  3  1  0  0  0  0
  2  1  2  0  0  0  0
  2  9  1  0  0  0  0
  3  8  1  0  0  0  0
  3  7  1  0  0  0  0
  4  6  2  0  0  0  0
  4  1  1  0  0  0  0
  5  8  2  0  0  0  0
  6  5  1  0  0  0  0
  8 32  1  0  0  0  0
  9 10  1  0  0  0  0
  9  7  2  0  0  0  0
 10 11  2  0  0  0  0
 12 10  1  0  0  0  0
 13 16  1  1  0  0  0
 13 14  1  0  0  0  0
 13 15  1  0  0  0  0
 14 16  1  1  0  0  0
 14 15  1  0  0  0  0
 15 12  1  6  0  0  0
 17  4  1  0  0  0  0
 18 17  2  0  0  0  0
 19 20  1  0  0  0  0
 19 17  1  0  0  0  0
 20 23  2  0  0  0  0
 21 30  2  0  0  0  0
 22 21  1  0  0  0  0
 23 27  2  0  0  0  0
 24 25  2  0  0  0  0
 25 29  1  0  0  0  0
 26 28  1  0  0  0  0
 27 25  1  0  0  0  0
 28 27  1  0  0  0  0
 28 22  2  0  0  0  0
 29 21  1  0  0  0  0
 31 22  1  0  0  0  0
 32 33  1  0  0  0  0
 33 34  1  0  0  0  0
 34 35  1  0  0  0  0
 35 36  1  0  0  0  0
 36 37  1  0  0  0  0
 37 39  2  1  0  0  0
 37 38  1  0  0  0  0
 40 41  1  0  0  0  0
 40 37  1  0  0  0  0
 41 44  1  0  0  0  0
 43 44  2  0  0  0  0
 44 45  1  0  0  0  0
 44 42  1  0  0  0  0
M  END
>  <MODEL>
1

>  <REMARK>
 VINA RESULT:      -7.9      0.000      0.000
  Name = 
  13 active torsions:
  status: ('A' for Active; 'I' for Inactive)
    1  A    between atoms: C_1  and  O_22
    2  A    between atoms: C_1  and  C_41
    3  A    between atoms: C_2  and  N_37
    4  A    between atoms: C_6  and  O_16
    5  A    between atoms: C_6  and  P_36
    6  A    between atoms: O_8  and  C_9
    7  A    between atoms: O_8  and  P_12
    8  A    between atoms: C_9  and  C_19
    9  A    between atoms: C_10  and  C_42
   10  A    between atoms: P_12  and  O_16
   11  A    between atoms: N_13  and  C_30
   12  A    between atoms: C_19  and  O_22
   13  A    between atoms: C_21  and  C_26
                            x       y       z     vdW  Elec       q    Type
                         _______ _______ _______ _____ _____    ______ ____

>  <TORSDO>
F 13

$$$$
=
 OpenBabel11032419443D

 45 49  0  0  1  0  0  0  0  0999 V2000
  183.0650  177.2400  139.5080 C   0  0  0  0  0  0  0  0  0  0  0  0
  181.9900  176.4800  139.7940 N   0  0  0  0  0  0  0  0  0  0  0  0
  183.6030  176.9550  138.3110 N   0  0  0  0  0  0  0  0  0  0  0  0
  183.6360  178.2290  140.3240 C   0  0  0  0  0  0  0  0  0  0  0  0
  185.2840  178.5810  138.6240 C   0  0  0  0  0  3  0  0  0  0  0  0
  184.7400  178.8740  139.8430 N   0  0  0  0  0  0  0  0  0  0  0  0
  182.8670  175.9720  137.7670 C   0  0  0  0  0  3  0  0  0  0  0  0
  184.6960  177.5950  137.8230 C   0  0  0  0  0  0  0  0  0  0  0  0
  181.8740  175.6930  138.6990 C   0  0  0  0  0  0  0  0  0  0  0  0
  180.8270  174.6770  138.5400 C   0  0  0  0  0  0  0  0  0  0  0  0
  180.0170  174.4530  139.4800 O   0  0  0  0  0  0  0  0  0  0  0  0
  180.7340  173.9440  137.3160 N   0  0  0  0  0  2  0  0  0  0  0  0
  180.0650  172.1210  135.8710 C   0  0  2  0  0  3  0  0  0  0  0  0
  180.3100  171.5550  137.2160 C   0  0  1  0  0  3  0  0  0  0  0  0
  179.7070  172.9390  137.0910 C   0  0  1  0  0  3  0  0  0  0  0  0
  179.8680  170.7530  136.1460 O   0  0  0  0  0  0  0  0  0  0  0  0
  183.0620  178.5940  141.6450 C   0  0  0  0  0  0  0  0  0  0  0  0
  181.8360  178.8710  141.7330 O   0  0  0  0  0  0  0  0  0  0  0  0
  183.8530  178.6540  142.8400 N   0  0  0  0  0  2  0  0  0  0  0  0
  185.2090  178.2230  142.9380 C   0  0  0  0  0  3  0  0  0  0  0  0
  187.7080  178.0170  147.8020 C   0  0  0  0  0  0  0  0  0  0  0  0
  188.3430  177.4500  146.5890 C   0  0  0  0  0  0  0  0  0  0  0  0
  185.7960  178.1770  144.0990 C   0  0  0  0  0  0  0  0  0  0  0  0
  184.5940  179.2230  146.4010 O   0  0  0  0  0  0  0  0  0  0  0  0
  185.7330  178.6890  146.4650 C   0  0  0  0  0  0  0  0  0  0  0  0
  188.3270  176.9880  144.2990 F   0  0  0  0  0  0  0  0  0  0  0  0
  186.3850  178.1280  145.2660 C   0  0  0  0  0  0  0  0  0  0  0  0
  187.7210  177.5060  145.4010 C   0  0  0  0  0  0  0  0  0  0  0  0
  186.4150  178.6210  147.7180 N   0  0  0  0  0  2  0  0  0  0  0  0
  188.3010  177.9730  148.9120 O   0  0  0  0  0  0  0  0  0  0  0  0
  189.6920  176.8180  146.6950 C   0  0  0  0  0  1  0  0  0  0  0  0
  185.2910  177.2410  136.5010 C   0  0  0  0  0  2  0  0  0  0  0  0
  186.6820  177.3030  136.5770 O   0  0  0  0  0  0  0  0  0  0  0  0
  187.1170  176.1180  135.9830 C   0  0  0  0  0  2  0  0  0  0  0  0
  188.1440  175.4380  136.8710 C   0  0  0  0  0  2  0  0  0  0  0  0
  188.4010  176.2280  137.9960 O   0  0  0  0  0  0  0  0  0  0  0  0
  190.0750  176.5100  137.9830 P   0  0  2  0  0  0  0  0  0  0  0  0
  190.5190  176.8890  136.5850 O   0  0  0  0  0  0  0  0  0  0  0  0
  190.8890  175.1080  138.4750 O   0  0  0  0  0  1  0  0  0  0  0  0
  190.4190  177.7820  139.0510 O   0  0  0  0  0  0  0  0  0  0  0  0
  191.1460  177.2050  140.0950 C   0  0  0  0  0  2  0  0  0  0  0  0
  190.7360  178.2960  142.7060 O   0  0  0  0  0  1  0  0  0  0  0  0
  188.7050  177.5260  141.2530 O   0  0  0  0  0  0  0  0  0  0  0  0
  190.1320  177.1730  141.5980 P   0  0  0  0  0  0  0  0  0  0  0  0
  190.1810  175.6260  142.2800 O   0  0  0  0  0  1  0  0  0  0  0  0
  1  2  2  0  0  0  0
  1  4  1  0  0  0  0
  3  1  1  0  0  0  0
  4 17  1  0  0  0  0
  5  6  1  0  0  0  0
  6  4  2  0  0  0  0
  7  3  1  0  0  0  0
  7  9  2  0  0  0  0
  8  3  1  0  0  0  0
  8  5  2  0  0  0  0
  9  2  1  0  0  0  0
 10  9  1  0  0  0  0
 10 11  2  0  0  0  0
 12 10  1  0  0  0  0
 13 16  1  6  0  0  0
 13 15  1  0  0  0  0
 13 14  1  0  0  0  0
 14 16  1  6  0  0  0
 15 14  1  0  0  0  0
 15 12  1  1  0  0  0
 17 18  2  0  0  0  0
 17 19  1  0  0  0  0
 19 20  1  0  0  0  0
 20 23  2  0  0  0  0
 21 30  2  0  0  0  0
 22 31  1  0  0  0  0
 22 21  1  0  0  0  0
 23 27  2  0  0  0  0
 24 25  2  0  0  0  0
 25 29  1  0  0  0  0
 26 28  1  0  0  0  0
 27 28  1  0  0  0  0
 27 25  1  0  0  0  0
 28 22  2  0  0  0  0
 29 21  1  0  0  0  0
 32 33  1  0  0  0  0
 32  8  1  0  0  0  0
 34 33  1  0  0  0  0
 34 35  1  0  0  0  0
 35 36  1  0  0  0  0
 37 38  2  6  0  0  0
 37 36  1  0  0  0  0
 37 39  1  0  0  0  0
 37 40  1  0  0  0  0
 40 41  1  0  0  0  0
 41 44  1  0  0  0  0
 43 44  2  0  0  0  0
 44 45  1  0  0  0  0
 44 42  1  0  0  0  0
M  END
>  <MODEL>
2

>  <REMARK>
 VINA RESULT:      -7.8      3.255      8.336
  Name = 
  13 active torsions:
  status: ('A' for Active; 'I' for Inactive)
    1  A    between atoms: C_1  and  O_22
    2  A    between atoms: C_1  and  C_41
    3  A    between atoms: C_2  and  N_37
    4  A    between atoms: C_6  and  O_16
    5  A    between atoms: C_6  and  P_36
    6  A    between atoms: O_8  and  C_9
    7  A    between atoms: O_8  and  P_12
    8  A    between atoms: C_9  and  C_19
    9  A    between atoms: C_10  and  C_42
   10  A    between atoms: P_12  and  O_16
   11  A    between atoms: N_13  and  C_30
   12  A    between atoms: C_19  and  O_22
   13  A    between atoms: C_21  and  C_26
                            x       y       z     vdW  Elec       q    Type
                         _______ _______ _______ _____ _____    ______ ____

>  <TORSDO>
F 13

$$$$
=
 OpenBabel11032419443D

 45 49  0  0  1  0  0  0  0  0999 V2000
  185.1460  178.6530  140.1250 C   0  0  0  0  0  0  0  0  0  0  0  0
  185.9710  178.5910  139.0620 N   0  0  0  0  0  0  0  0  0  0  0  0
  185.7850  178.4840  141.2940 N   0  0  0  0  0  0  0  0  0  0  0  0
  183.7560  178.8470  140.0990 C   0  0  0  0  0  0  0  0  0  0  0  0
  183.7610  178.6910  142.4870 C   0  0  0  0  0  3  0  0  0  0  0  0
  183.1060  178.8620  141.3010 N   0  0  0  0  0  0  0  0  0  0  0  0
  187.0860  178.3070  141.0130 C   0  0  0  0  0  3  0  0  0  0  0  0
  185.1480  178.5030  142.4920 C   0  0  0  0  0  0  0  0  0  0  0  0
  187.1820  178.3770  139.6290 C   0  0  0  0  0  0  0  0  0  0  0  0
  188.4220  178.2340  138.8580 C   0  0  0  0  0  0  0  0  0  0  0  0
  189.0320  179.2590  138.4490 O   0  0  0  0  0  0  0  0  0  0  0  0
  188.9310  176.9290  138.5740 N   0  0  0  0  0  2  0  0  0  0  0  0
  191.1770  176.0390  138.7250 C   0  0  2  0  0  3  0  0  0  0  0  0
  190.4490  175.2390  137.7160 C   0  0  1  0  0  3  0  0  0  0  0  0
  190.1650  176.7230  137.8330 C   0  0  1  0  0  3  0  0  0  0  0  0
  191.8030  174.9960  138.0140 O   0  0  0  0  0  0  0  0  0  0  0  0
  183.0090  179.0600  138.8320 C   0  0  0  0  0  0  0  0  0  0  0  0
  182.7220  180.2330  138.4710 O   0  0  0  0  0  0  0  0  0  0  0  0
  182.5880  177.9750  137.9940 N   0  0  0  0  0  2  0  0  0  0  0  0
  182.9660  176.6120  138.1790 C   0  0  0  0  0  3  0  0  0  0  0  0
  187.3820  174.5930  135.6560 C   0  0  0  0  0  0  0  0  0  0  0  0
  186.6650  173.8110  136.6900 C   0  0  0  0  0  0  0  0  0  0  0  0
  184.0180  176.1400  137.5750 C   0  0  0  0  0  0  0  0  0  0  0  0
  185.3950  177.6210  135.6380 O   0  0  0  0  0  0  0  0  0  0  0  0
  185.7850  176.4640  135.9500 C   0  0  0  0  0  0  0  0  0  0  0  0
  184.9340  173.5760  138.2420 F   0  0  0  0  0  0  0  0  0  0  0  0
  185.0760  175.6660  136.9700 C   0  0  0  0  0  0  0  0  0  0  0  0
  185.5830  174.3160  137.3030 C   0  0  0  0  0  0  0  0  0  0  0  0
  186.9310  175.9050  135.3100 N   0  0  0  0  0  2  0  0  0  0  0  0
  188.3900  174.1100  135.0760 O   0  0  0  0  0  0  0  0  0  0  0  0
  187.1510  172.4440  137.0440 C   0  0  0  0  0  1  0  0  0  0  0  0
  185.8780  178.2880  143.7760 C   0  0  0  0  0  2  0  0  0  0  0  0
  185.0180  178.5070  144.8510 O   0  0  0  0  0  0  0  0  0  0  0  0
  185.8570  178.5600  145.9640 C   0  0  0  0  0  2  0  0  0  0  0  0
  187.1160  177.7540  145.7030 C   0  0  0  0  0  2  0  0  0  0  0  0
  187.5110  177.0920  146.8700 O   0  0  0  0  0  0  0  0  0  0  0  0
  189.1630  177.4390  147.0560 P   0  0  2  0  0  0  0  0  0  0  0  0
  189.9190  176.1680  147.3860 O   0  0  0  0  0  0  0  0  0  0  0  0
  189.3670  178.5610  148.3080 O   0  0  0  0  0  1  0  0  0  0  0  0
  189.7480  178.0860  145.6020 O   0  0  0  0  0  0  0  0  0  0  0  0
  191.0230  177.5400  145.4380 C   0  0  0  0  0  2  0  0  0  0  0  0
  189.5330  176.2430  143.3690 O   0  0  0  0  0  1  0  0  0  0  0  0
  191.7640  177.4900  142.8200 O   0  0  0  0  0  0  0  0  0  0  0  0
  191.0990  176.6310  143.8700 P   0  0  0  0  0  0  0  0  0  0  0  0
  191.9910  175.2100  144.0840 O   0  0  0  0  0  1  0  0  0  0  0  0
  1  3  1  0  0  0  0
  2  9  1  0  0  0  0
  2  1  2  0  0  0  0
  3  8  1  0  0  0  0
  4  1  1  0  0  0  0
  4  6  2  0  0  0  0
  5  8  2  0  0  0  0
  6  5  1  0  0  0  0
  7  3  1  0  0  0  0
  8 32  1  0  0  0  0
  9  7  2  0  0  0  0
 10  9  1  0  0  0  0
 11 10  2  0  0  0  0
 12 10  1  0  0  0  0
 13 16  1  6  0  0  0
 14 15  1  0  0  0  0
 14 16  1  6  0  0  0
 14 13  1  0  0  0  0
 15 12  1  1  0  0  0
 15 13  1  0  0  0  0
 17  4  1  0  0  0  0
 18 17  2  0  0  0  0
 19 20  1  0  0  0  0
 19 17  1  0  0  0  0
 21 22  1  0  0  0  0
 22 31  1  0  0  0  0
 22 28  2  0  0  0  0
 23 20  2  0  0  0  0
 24 25  2  0  0  0  0
 25 27  1  0  0  0  0
 27 28  1  0  0  0  0
 27 23  2  0  0  0  0
 28 26  1  0  0  0  0
 29 21  1  0  0  0  0
 29 25  1  0  0  0  0
 30 21  2  0  0  0  0
 32 33  1  0  0  0  0
 33 34  1  0  0  0  0
 35 34  1  0  0  0  0
 35 36  1  0  0  0  0
 36 37  1  0  0  0  0
 37 38  2  1  0  0  0
 37 39  1  0  0  0  0
 40 37  1  0  0  0  0
 41 40  1  0  0  0  0
 42 44  1  0  0  0  0
 43 44  2  0  0  0  0
 44 45  1  0  0  0  0
 44 41  1  0  0  0  0
M  END
>  <MODEL>
3

>  <REMARK>
 VINA RESULT:      -7.7      2.053      5.383
  Name = 
  13 active torsions:
  status: ('A' for Active; 'I' for Inactive)
    1  A    between atoms: C_1  and  O_22
    2  A    between atoms: C_1  and  C_41
    3  A    between atoms: C_2  and  N_37
    4  A    between atoms: C_6  and  O_16
    5  A    between atoms: C_6  and  P_36
    6  A    between atoms: O_8  and  C_9
    7  A    between atoms: O_8  and  P_12
    8  A    between atoms: C_9  and  C_19
    9  A    between atoms: C_10  and  C_42
   10  A    between atoms: P_12  and  O_16
   11  A    between atoms: N_13  and  C_30
   12  A    between atoms: C_19  and  O_22
   13  A    between atoms: C_21  and  C_26
                            x       y       z     vdW  Elec       q    Type
                         _______ _______ _______ _____ _____    ______ ____

>  <TORSDO>
F 13

$$$$
=
 OpenBabel11032419443D

 45 49  0  0  1  0  0  0  0  0999 V2000
  190.6790  176.6230  138.3970 C   0  0  0  0  0  0  0  0  0  0  0  0
  191.5450  175.5950  138.4980 N   0  0  0  0  0  0  0  0  0  0  0  0
  190.1830  176.7690  137.1580 N   0  0  0  0  0  0  0  0  0  0  0  0
  190.3000  177.5040  139.4200 C   0  0  0  0  0  0  0  0  0  0  0  0
  188.9100  178.6360  137.8340 C   0  0  0  0  0  3  0  0  0  0  0  0
  189.4140  178.4920  139.0960 N   0  0  0  0  0  0  0  0  0  0  0  0
  190.7270  175.8060  136.3950 C   0  0  0  0  0  3  0  0  0  0  0  0
  189.2970  177.7430  136.8280 C   0  0  0  0  0  0  0  0  0  0  0  0
  191.5650  175.0910  137.2410 C   0  0  0  0  0  0  0  0  0  0  0  0
  192.3820  173.9370  136.8460 C   0  0  0  0  0  0  0  0  0  0  0  0
  191.8620  172.9880  136.2000 O   0  0  0  0  0  0  0  0  0  0  0  0
  193.7670  173.8980  137.1990 N   0  0  0  0  0  2  0  0  0  0  0  0
  196.0760  173.1910  137.0330 C   0  0  2  0  0  3  0  0  0  0  0  0
  195.4130  172.3180  138.0260 C   0  0  1  0  0  3  0  0  0  0  0  0
  194.6320  172.7930  136.8180 C   0  0  1  0  0  3  0  0  0  0  0  0
  196.7640  172.1400  137.6710 O   0  0  0  0  0  0  0  0  0  0  0  0
  190.8060  177.3680  140.8120 C   0  0  0  0  0  0  0  0  0  0  0  0
  192.0460  177.4180  141.0270 O   0  0  0  0  0  0  0  0  0  0  0  0
  189.9340  177.1720  141.9330 N   0  0  0  0  0  2  0  0  0  0  0  0
  188.5110  177.2470  141.8790 C   0  0  0  0  0  3  0  0  0  0  0  0
  185.6230  178.4150  146.3780 C   0  0  0  0  0  0  0  0  0  0  0  0
  184.9780  178.3620  145.0460 C   0  0  0  0  0  0  0  0  0  0  0  0
  187.8320  177.5270  142.9540 C   0  0  0  0  0  0  0  0  0  0  0  0
  189.0460  177.6540  145.4740 O   0  0  0  0  0  0  0  0  0  0  0  0
  187.8100  177.8670  145.3520 C   0  0  0  0  0  0  0  0  0  0  0  0
  185.0810  178.0220  142.7360 F   0  0  0  0  0  0  0  0  0  0  0  0
  187.1490  177.8080  144.0330 C   0  0  0  0  0  0  0  0  0  0  0  0
  185.6960  178.0750  143.9480 C   0  0  0  0  0  0  0  0  0  0  0  0
  187.0260  178.1710  146.5050 N   0  0  0  0  0  2  0  0  0  0  0  0
  184.9420  178.6740  147.4060 O   0  0  0  0  0  0  0  0  0  0  0  0
  183.5120  178.6240  144.9290 C   0  0  0  0  0  1  0  0  0  0  0  0
  188.7800  177.9000  135.4370 C   0  0  0  0  0  2  0  0  0  0  0  0
  187.4060  177.6660  135.4150 O   0  0  0  0  0  0  0  0  0  0  0  0
  187.2900  176.2900  135.2180 C   0  0  0  0  0  2  0  0  0  0  0  0
  186.3540  175.6950  136.2550 C   0  0  0  0  0  2  0  0  0  0  0  0
  185.1700  175.2720  135.6440 O   0  0  0  0  0  0  0  0  0  0  0  0
  183.9320  176.1820  136.3650 P   0  0  2  0  0  0  0  0  0  0  0  0
  182.8640  175.2550  136.9070 O   0  0  0  0  0  1  0  0  0  0  0  0
  183.2500  177.2210  135.2140 O   0  0  0  0  0  0  0  0  0  0  0  0
  184.5950  177.0880  137.6370 O   0  0  0  0  0  0  0  0  0  0  0  0
  183.5980  177.9920  138.0100 C   0  0  0  0  0  2  0  0  0  0  0  0
  185.8000  178.6280  139.7200 O   0  0  0  0  0  1  0  0  0  0  0  0
  184.1790  180.5010  138.8860 O   0  0  0  0  0  0  0  0  0  0  0  0
  184.2120  179.0610  139.3400 P   0  0  0  0  0  0  0  0  0  0  0  0
  183.2350  178.8780  140.7080 O   0  0  0  0  0  1  0  0  0  0  0  0
  1  2  2  0  0  0  0
  1  4  1  0  0  0  0
  3  1  1  0  0  0  0
  4 17  1  0  0  0  0
  5  6  1  0  0  0  0
  6  4  2  0  0  0  0
  7  3  1  0  0  0  0
  7  9  2  0  0  0  0
  8  3  1  0  0  0  0
  8  5  2  0  0  0  0
  9  2  1  0  0  0  0
 10 12  1  0  0  0  0
 10  9  1  0  0  0  0
 11 10  2  0  0  0  0
 13 16  1  6  0  0  0
 13 14  1  0  0  0  0
 14 16  1  6  0  0  0
 15 13  1  0  0  0  0
 15 12  1  1  0  0  0
 15 14  1  0  0  0  0
 17 18  2  0  0  0  0
 17 19  1  0  0  0  0
 20 19  1  0  0  0  0
 20 23  2  0  0  0  0
 21 29  1  0  0  0  0
 21 30  2  0  0  0  0
 22 21  1  0  0  0  0
 23 27  2  0  0  0  0
 25 24  2  0  0  0  0
 25 29  1  0  0  0  0
 26 28  1  0  0  0  0
 27 25  1  0  0  0  0
 28 27  1  0  0  0  0
 28 22  2  0  0  0  0
 31 22  1  0  0  0  0
 32  8  1  0  0  0  0
 33 32  1  0  0  0  0
 34 33  1  0  0  0  0
 34 35  1  0  0  0  0
 36 35  1  0  0  0  0
 36 37  1  0  0  0  0
 37 39  2  6  0  0  0
 37 38  1  0  0  0  0
 37 40  1  0  0  0  0
 40 41  1  0  0  0  0
 41 44  1  0  0  0  0
 43 44  2  0  0  0  0
 44 42  1  0  0  0  0
 44 45  1  0  0  0  0
M  END
>  <MODEL>
4

>  <REMARK>
 VINA RESULT:      -7.6      4.139      9.383
  Name = 
  13 active torsions:
  status: ('A' for Active; 'I' for Inactive)
    1  A    between atoms: C_1  and  O_22
    2  A    between atoms: C_1  and  C_41
    3  A    between atoms: C_2  and  N_37
    4  A    between atoms: C_6  and  O_16
    5  A    between atoms: C_6  and  P_36
    6  A    between atoms: O_8  and  C_9
    7  A    between atoms: O_8  and  P_12
    8  A    between atoms: C_9  and  C_19
    9  A    between atoms: C_10  and  C_42
   10  A    between atoms: P_12  and  O_16
   11  A    between atoms: N_13  and  C_30
   12  A    between atoms: C_19  and  O_22
   13  A    between atoms: C_21  and  C_26
                            x       y       z     vdW  Elec       q    Type
                         _______ _______ _______ _____ _____    ______ ____

>  <TORSDO>
F 13

$$$$
=
 OpenBabel11032419443D

 45 49  0  0  1  0  0  0  0  0999 V2000
  190.5260  176.4260  138.4230 C   0  0  0  0  0  0  0  0  0  0  0  0
  191.4060  175.4110  138.3150 N   0  0  0  0  0  0  0  0  0  0  0  0
  189.6540  176.4730  137.4030 N   0  0  0  0  0  0  0  0  0  0  0  0
  190.4710  177.3850  139.4460 C   0  0  0  0  0  0  0  0  0  0  0  0
  188.6150  178.3850  138.3140 C   0  0  0  0  0  3  0  0  0  0  0  0
  189.5010  178.3420  139.3530 N   0  0  0  0  0  0  0  0  0  0  0  0
  189.9500  175.4550  136.5790 C   0  0  0  0  0  3  0  0  0  0  0  0
  188.6830  177.4170  137.3050 C   0  0  0  0  0  0  0  0  0  0  0  0
  191.0360  174.8100  137.1600 C   0  0  0  0  0  0  0  0  0  0  0  0
  191.7130  173.6310  136.6090 C   0  0  0  0  0  0  0  0  0  0  0  0
  191.0550  172.7640  135.9730 O   0  0  0  0  0  0  0  0  0  0  0  0
  193.1210  173.4720  136.7980 N   0  0  0  0  0  2  0  0  0  0  0  0
  195.3120  172.7060  136.1110 C   0  0  2  0  0  3  0  0  0  0  0  0
  194.8910  171.8770  137.2610 C   0  0  1  0  0  3  0  0  0  0  0  0
  193.8530  172.3370  136.2590 C   0  0  1  0  0  3  0  0  0  0  0  0
  196.1150  171.6570  136.6010 O   0  0  0  0  0  0  0  0  0  0  0  0
  191.4010  177.3600  140.6060 C   0  0  0  0  0  0  0  0  0  0  0  0
  192.6430  177.4230  140.4050 O   0  0  0  0  0  0  0  0  0  0  0  0
  190.9420  177.2580  141.9610 N   0  0  0  0  0  2  0  0  0  0  0  0
  189.5750  177.3340  142.3630 C   0  0  0  0  0  3  0  0  0  0  0  0
  188.2640  177.7730  147.6570 C   0  0  0  0  0  0  0  0  0  0  0  0
  187.2390  177.9250  146.5980 C   0  0  0  0  0  0  0  0  0  0  0  0
  189.2720  177.4390  143.6240 C   0  0  0  0  0  0  0  0  0  0  0  0
  191.2070  177.1790  145.6320 O   0  0  0  0  0  0  0  0  0  0  0  0
  190.0030  177.4030  145.9330 C   0  0  0  0  0  0  0  0  0  0  0  0
  186.6120  177.9480  144.3470 F   0  0  0  0  0  0  0  0  0  0  0  0
  188.9680  177.5460  144.8920 C   0  0  0  0  0  0  0  0  0  0  0  0
  187.5720  177.8150  145.3020 C   0  0  0  0  0  0  0  0  0  0  0  0
  189.6260  177.5200  147.3040 N   0  0  0  0  0  2  0  0  0  0  0  0
  187.9440  177.8650  148.8720 O   0  0  0  0  0  0  0  0  0  0  0  0
  185.8210  178.1940  146.9830 C   0  0  0  0  0  1  0  0  0  0  0  0
  187.7420  177.4630  136.1480 C   0  0  0  0  0  2  0  0  0  0  0  0
  186.5850  178.1510  136.5080 O   0  0  0  0  0  0  0  0  0  0  0  0
  185.5540  177.2360  136.2930 C   0  0  0  0  0  2  0  0  0  0  0  0
  184.7220  177.0870  137.5540 C   0  0  0  0  0  2  0  0  0  0  0  0
  185.1650  177.9850  138.5300 O   0  0  0  0  0  0  0  0  0  0  0  0
  183.7830  178.8310  139.0350 P   0  0  2  0  0  0  0  0  0  0  0  0
  182.6510  178.5920  138.0570 O   0  0  0  0  0  0  0  0  0  0  0  0
  184.1290  180.4870  139.1070 O   0  0  0  0  0  1  0  0  0  0  0  0
  183.3340  178.2690  140.5710 O   0  0  0  0  0  0  0  0  0  0  0  0
  182.0490  177.7470  140.4160 C   0  0  0  0  0  2  0  0  0  0  0  0
  179.6340  177.6290  141.9440 O   0  0  0  0  0  1  0  0  0  0  0  0
  181.6130  179.1610  142.7000 O   0  0  0  0  0  1  0  0  0  0  0  0
  180.8900  178.6570  141.4730 P   0  0  0  0  0  0  0  0  0  0  0  0
  180.2530  179.9680  140.6150 O   0  0  0  0  0  0  0  0  0  0  0  0
  1  4  1  0  0  0  0
  2  1  2  0  0  0  0
  3  1  1  0  0  0  0
  4 17  1  0  0  0  0
  5  6  1  0  0  0  0
  6  4  2  0  0  0  0
  7  9  2  0  0  0  0
  7  3  1  0  0  0  0
  8  3  1  0  0  0  0
  8  5  2  0  0  0  0
  9  2  1  0  0  0  0
 10 12  1  0  0  0  0
 10  9  1  0  0  0  0
 11 10  2  0  0  0  0
 13 15  1  0  0  0  0
 13 16  1  6  0  0  0
 13 14  1  0  0  0  0
 14 16  1  6  0  0  0
 15 12  1  1  0  0  0
 15 14  1  0  0  0  0
 17 19  1  0  0  0  0
 18 17  2  0  0  0  0
 19 20  1  0  0  0  0
 20 23  2  0  0  0  0
 21 30  2  0  0  0  0
 22 31  1  0  0  0  0
 22 21  1  0  0  0  0
 23 27  2  0  0  0  0
 24 25  2  0  0  0  0
 25 29  1  0  0  0  0
 26 28  1  0  0  0  0
 27 28  1  0  0  0  0
 27 25  1  0  0  0  0
 28 22  2  0  0  0  0
 29 21  1  0  0  0  0
 32 33  1  0  0  0  0
 32  8  1  0  0  0  0
 34 33  1  0  0  0  0
 34 35  1  0  0  0  0
 35 36  1  0  0  0  0
 36 37  1  0  0  0  0
 37 38  2  6  0  0  0
 37 39  1  0  0  0  0
 37 40  1  0  0  0  0
 41 40  1  0  0  0  0
 41 44  1  0  0  0  0
 44 42  1  0  0  0  0
 44 43  1  0  0  0  0
 45 44  2  0  0  0  0
M  END
>  <MODEL>
5

>  <REMARK>
 VINA RESULT:      -7.6      4.012      9.374
  Name = 
  13 active torsions:
  status: ('A' for Active; 'I' for Inactive)
    1  A    between atoms: C_1  and  O_22
    2  A    between atoms: C_1  and  C_41
    3  A    between atoms: C_2  and  N_37
    4  A    between atoms: C_6  and  O_16
    5  A    between atoms: C_6  and  P_36
    6  A    between atoms: O_8  and  C_9
    7  A    between atoms: O_8  and  P_12
    8  A    between atoms: C_9  and  C_19
    9  A    between atoms: C_10  and  C_42
   10  A    between atoms: P_12  and  O_16
   11  A    between atoms: N_13  and  C_30
   12  A    between atoms: C_19  and  O_22
   13  A    between atoms: C_21  and  C_26
                            x       y       z     vdW  Elec       q    Type
                         _______ _______ _______ _____ _____    ______ ____

>  <TORSDO>
F 13

$$$$
=
 OpenBabel11032419443D

 45 49  0  0  1  0  0  0  0  0999 V2000
  189.8190  177.5590  138.8790 C   0  0  0  0  0  0  0  0  0  0  0  0
  190.6200  177.2400  137.8420 N   0  0  0  0  0  0  0  0  0  0  0  0
  190.2420  177.0430  140.0440 N   0  0  0  0  0  0  0  0  0  0  0  0
  188.6440  178.3240  138.8280 C   0  0  0  0  0  0  0  0  0  0  0  0
  188.4070  177.9890  141.1850 C   0  0  0  0  0  3  0  0  0  0  0  0
  187.9730  178.5160  140.0020 N   0  0  0  0  0  0  0  0  0  0  0  0
  191.3670  176.3550  139.7900 C   0  0  0  0  0  3  0  0  0  0  0  0
  189.5850  177.2330  141.2160 C   0  0  0  0  0  0  0  0  0  0  0  0
  191.5850  176.4890  138.4240 C   0  0  0  0  0  0  0  0  0  0  0  0
  192.7050  175.8980  137.6830 C   0  0  0  0  0  0  0  0  0  0  0  0
  192.7250  175.9460  136.4240 O   0  0  0  0  0  0  0  0  0  0  0  0
  193.7710  175.2690  138.3990 N   0  0  0  0  0  2  0  0  0  0  0  0
  195.8680  174.1130  138.7530 C   0  0  2  0  0  3  0  0  0  0  0  0
  194.9750  173.1970  138.0100 C   0  0  1  0  0  3  0  0  0  0  0  0
  194.9180  174.6830  137.7240 C   0  0  1  0  0  3  0  0  0  0  0  0
  196.2940  172.8340  138.3430 O   0  0  0  0  0  0  0  0  0  0  0  0
  188.1500  178.9340  137.5650 C   0  0  0  0  0  0  0  0  0  0  0  0
  188.8220  179.8460  137.0130 O   0  0  0  0  0  0  0  0  0  0  0  0
  186.9220  178.5320  136.9440 N   0  0  0  0  0  2  0  0  0  0  0  0
  186.1310  177.4180  137.3540 C   0  0  0  0  0  3  0  0  0  0  0  0
  181.5870  178.1830  140.3050 C   0  0  0  0  0  0  0  0  0  0  0  0
  181.9240  176.8520  139.7490 C   0  0  0  0  0  0  0  0  0  0  0  0
  185.0510  177.6090  138.0550 C   0  0  0  0  0  0  0  0  0  0  0  0
  184.3910  180.1260  139.0910 O   0  0  0  0  0  0  0  0  0  0  0  0
  183.6390  179.1360  139.2970 C   0  0  0  0  0  0  0  0  0  0  0  0
  183.3370  175.4430  138.5320 F   0  0  0  0  0  0  0  0  0  0  0  0
  183.9650  177.8010  138.7590 C   0  0  0  0  0  0  0  0  0  0  0  0
  183.0420  176.6760  139.0250 C   0  0  0  0  0  0  0  0  0  0  0  0
  182.4470  179.2990  140.0660 N   0  0  0  0  0  2  0  0  0  0  0  0
  180.5430  178.3400  140.9930 O   0  0  0  0  0  0  0  0  0  0  0  0
  181.0120  175.6970  140.0040 C   0  0  0  0  0  1  0  0  0  0  0  0
  190.0610  176.6260  142.4940 C   0  0  0  0  0  2  0  0  0  0  0  0
  189.4760  177.2840  143.5750 O   0  0  0  0  0  0  0  0  0  0  0  0
  190.3120  176.9920  144.6540 C   0  0  0  0  0  2  0  0  0  0  0  0
  189.6860  177.4880  145.9450 C   0  0  0  0  0  2  0  0  0  0  0  0
  188.5700  178.2820  145.6620 O   0  0  0  0  0  0  0  0  0  0  0  0
  187.4120  177.8770  146.8350 P   0  0  2  0  0  0  0  0  0  0  0  0
  187.0090  179.1180  147.6050 O   0  0  0  0  0  0  0  0  0  0  0  0
  188.0640  176.7350  147.9030 O   0  0  0  0  0  1  0  0  0  0  0  0
  186.0530  177.2270  146.0560 O   0  0  0  0  0  0  0  0  0  0  0  0
  186.1150  177.6990  144.7430 C   0  0  0  0  0  2  0  0  0  0  0  0
  183.8040  178.9760  145.8420 O   0  0  0  0  0  1  0  0  0  0  0  0
  185.2930  180.2080  144.0830 O   0  0  0  0  0  1  0  0  0  0  0  0
  184.7440  178.8480  144.4450 P   0  0  0  0  0  0  0  0  0  0  0  0
  183.7890  178.2690  143.1740 O   0  0  0  0  0  0  0  0  0  0  0  0
  1  3  1  0  0  0  0
  2  9  1  0  0  0  0
  2  1  2  0  0  0  0
  3  8  1  0  0  0  0
  4  1  1  0  0  0  0
  4  6  2  0  0  0  0
  5  8  2  0  0  0  0
  6  5  1  0  0  0  0
  7  3  1  0  0  0  0
  8 32  1  0  0  0  0
  9  7  2  0  0  0  0
 10 12  1  0  0  0  0
 10  9  1  0  0  0  0
 11 10  2  0  0  0  0
 13 16  1  6  0  0  0
 14 16  1  6  0  0  0
 14 13  1  0  0  0  0
 15 14  1  0  0  0  0
 15 12  1  1  0  0  0
 15 13  1  0  0  0  0
 17  4  1  0  0  0  0
 18 17  2  0  0  0  0
 19 20  1  0  0  0  0
 19 17  1  0  0  0  0
 20 23  2  0  0  0  0
 21 30  2  0  0  0  0
 22 31  1  0  0  0  0
 22 21  1  0  0  0  0
 23 27  2  0  0  0  0
 24 25  2  0  0  0  0
 25 29  1  0  0  0  0
 26 28  1  0  0  0  0
 27 28  1  0  0  0  0
 27 25  1  0  0  0  0
 28 22  2  0  0  0  0
 29 21  1  0  0  0  0
 32 33  1  0  0  0  0
 33 34  1  0  0  0  0
 34 35  1  0  0  0  0
 36 35  1  0  0  0  0
 36 37  1  0  0  0  0
 37 38  2  1  0  0  0
 37 39  1  0  0  0  0
 40 37  1  0  0  0  0
 41 40  1  0  0  0  0
 43 44  1  0  0  0  0
 44 41  1  0  0  0  0
 44 42  1  0  0  0  0
 45 44  2  0  0  0  0
M  END
>  <MODEL>
6

>  <REMARK>
 VINA RESULT:      -7.5      2.822      5.950
  Name = 
  13 active torsions:
  status: ('A' for Active; 'I' for Inactive)
    1  A    between atoms: C_1  and  O_22
    2  A    between atoms: C_1  and  C_41
    3  A    between atoms: C_2  and  N_37
    4  A    between atoms: C_6  and  O_16
    5  A    between atoms: C_6  and  P_36
    6  A    between atoms: O_8  and  C_9
    7  A    between atoms: O_8  and  P_12
    8  A    between atoms: C_9  and  C_19
    9  A    between atoms: C_10  and  C_42
   10  A    between atoms: P_12  and  O_16
   11  A    between atoms: N_13  and  C_30
   12  A    between atoms: C_19  and  O_22
   13  A    between atoms: C_21  and  C_26
                            x       y       z     vdW  Elec       q    Type
                         _______ _______ _______ _____ _____    ______ ____

>  <TORSDO>
F 13

$$$$
=
 OpenBabel11032419443D

 45 49  0  0  1  0  0  0  0  0999 V2000
  189.4590  177.7740  139.3070 C   0  0  0  0  0  0  0  0  0  0  0  0
  190.4880  177.4420  138.5040 N   0  0  0  0  0  0  0  0  0  0  0  0
  189.7550  177.6580  140.6120 N   0  0  0  0  0  0  0  0  0  0  0  0
  188.1790  178.1870  138.9060 C   0  0  0  0  0  0  0  0  0  0  0  0
  187.5810  178.3450  141.2180 C   0  0  0  0  0  3  0  0  0  0  0  0
  187.2750  178.4640  139.8920 N   0  0  0  0  0  0  0  0  0  0  0  0
  191.0280  177.2360  140.6950 C   0  0  0  0  0  3  0  0  0  0  0  0
  188.8650  177.9360  141.5980 C   0  0  0  0  0  0  0  0  0  0  0  0
  191.4640  177.1090  139.3810 C   0  0  0  0  0  0  0  0  0  0  0  0
  192.8020  176.6670  138.9730 C   0  0  0  0  0  0  0  0  0  0  0  0
  193.8200  177.0900  139.5850 O   0  0  0  0  0  0  0  0  0  0  0  0
  192.9430  175.7580  137.8790 N   0  0  0  0  0  2  0  0  0  0  0  0
  194.4530  173.8680  137.9730 C   0  0  2  0  0  3  0  0  0  0  0  0
  194.0550  174.0500  136.5600 C   0  0  1  0  0  3  0  0  0  0  0  0
  194.2400  175.2680  137.4410 C   0  0  1  0  0  3  0  0  0  0  0  0
  194.9650  173.0470  136.9480 O   0  0  0  0  0  0  0  0  0  0  0  0
  187.8120  178.3520  137.4740 C   0  0  0  0  0  0  0  0  0  0  0  0
  188.0800  179.4340  136.8870 O   0  0  0  0  0  0  0  0  0  0  0  0
  187.1510  177.3230  136.7250 N   0  0  0  0  0  2  0  0  0  0  0  0
  186.9210  175.9960  137.1950 C   0  0  0  0  0  3  0  0  0  0  0  0
  182.1300  173.5200  136.2680 C   0  0  0  0  0  0  0  0  0  0  0  0
  183.2800  172.7770  136.8340 C   0  0  0  0  0  0  0  0  0  0  0  0
  185.7780  175.4150  136.9700 C   0  0  0  0  0  0  0  0  0  0  0  0
  183.6060  176.8040  135.8780 O   0  0  0  0  0  0  0  0  0  0  0  0
  183.4990  175.5820  136.1680 C   0  0  0  0  0  0  0  0  0  0  0  0
  185.4910  172.6950  137.5860 F   0  0  0  0  0  0  0  0  0  0  0  0
  184.6310  174.8290  136.7420 C   0  0  0  0  0  0  0  0  0  0  0  0
  184.4510  173.3940  137.0570 C   0  0  0  0  0  0  0  0  0  0  0  0
  182.2620  174.9060  135.9430 N   0  0  0  0  0  2  0  0  0  0  0  0
  181.0290  172.9390  136.0720 O   0  0  0  0  0  0  0  0  0  0  0  0
  183.1270  171.3290  137.1640 C   0  0  0  0  0  1  0  0  0  0  0  0
  189.2110  177.7740  143.0400 C   0  0  0  0  0  2  0  0  0  0  0  0
  188.1600  177.1490  143.7110 O   0  0  0  0  0  0  0  0  0  0  0  0
  188.0190  177.8760  144.8930 C   0  0  0  0  0  2  0  0  0  0  0  0
  186.5490  178.0090  145.2480 C   0  0  0  0  0  2  0  0  0  0  0  0
  185.7630  177.8460  144.1030 O   0  0  0  0  0  0  0  0  0  0  0  0
  184.5230  178.9980  144.2320 P   0  0  2  0  0  0  0  0  0  0  0  0
  185.0900  180.3860  144.0110 O   0  0  0  0  0  0  0  0  0  0  0  0
  183.8270  178.9100  145.7740 O   0  0  0  0  0  1  0  0  0  0  0  0
  183.3510  178.6690  143.0510 O   0  0  0  0  0  0  0  0  0  0  0  0
  184.0260  177.9880  142.0370 C   0  0  0  0  0  2  0  0  0  0  0  0
  183.4100  177.1990  139.3570 O   0  0  0  0  0  0  0  0  0  0  0  0
  181.9670  179.0060  140.5770 O   0  0  0  0  0  1  0  0  0  0  0  0
  183.3860  178.5110  140.4220 P   0  0  0  0  0  0  0  0  0  0  0  0
  184.3530  179.7540  139.8070 O   0  0  0  0  0  1  0  0  0  0  0  0
  1  3  1  0  0  0  0
  2  1  2  0  0  0  0
  2  9  1  0  0  0  0
  3  7  1  0  0  0  0
  3  8  1  0  0  0  0
  4  1  1  0  0  0  0
  4  6  2  0  0  0  0
  5  8  2  0  0  0  0
  6  5  1  0  0  0  0
  8 32  1  0  0  0  0
  9  7  2  0  0  0  0
 10  9  1  0  0  0  0
 10 11  2  0  0  0  0
 12 10  1  0  0  0  0
 13 16  1  6  0  0  0
 14 16  1  6  0  0  0
 14 15  1  0  0  0  0
 14 13  1  0  0  0  0
 15 12  1  1  0  0  0
 15 13  1  0  0  0  0
 17  4  1  0  0  0  0
 18 17  2  0  0  0  0
 19 20  1  0  0  0  0
 19 17  1  0  0  0  0
 21 22  1  0  0  0  0
 22 28  2  0  0  0  0
 22 31  1  0  0  0  0
 23 20  2  0  0  0  0
 24 25  2  0  0  0  0
 25 27  1  0  0  0  0
 27 23  2  0  0  0  0
 27 28  1  0  0  0  0
 28 26  1  0  0  0  0
 29 25  1  0  0  0  0
 29 21  1  0  0  0  0
 30 21  2  0  0  0  0
 32 33  1  0  0  0  0
 33 34  1  0  0  0  0
 34 35  1  0  0  0  0
 36 37  1  0  0  0  0
 36 35  1  0  0  0  0
 37 38  2  6  0  0  0
 37 39  1  0  0  0  0
 40 37  1  0  0  0  0
 41 40  1  0  0  0  0
 42 44  2  0  0  0  0
 44 43  1  0  0  0  0
 44 41  1  0  0  0  0
 45 44  1  0  0  0  0
M  END
>  <MODEL>
7

>  <REMARK>
 VINA RESULT:      -7.5      2.727      6.003
  Name = 
  13 active torsions:
  status: ('A' for Active; 'I' for Inactive)
    1  A    between atoms: C_1  and  O_22
    2  A    between atoms: C_1  and  C_41
    3  A    between atoms: C_2  and  N_37
    4  A    between atoms: C_6  and  O_16
    5  A    between atoms: C_6  and  P_36
    6  A    between atoms: O_8  and  C_9
    7  A    between atoms: O_8  and  P_12
    8  A    between atoms: C_9  and  C_19
    9  A    between atoms: C_10  and  C_42
   10  A    between atoms: P_12  and  O_16
   11  A    between atoms: N_13  and  C_30
   12  A    between atoms: C_19  and  O_22
   13  A    between atoms: C_21  and  C_26
                            x       y       z     vdW  Elec       q    Type
                         _______ _______ _______ _____ _____    ______ ____

>  <TORSDO>
F 13

$$$$
=
 OpenBabel11032419443D

 45 49  0  0  1  0  0  0  0  0999 V2000
  188.1910  178.1780  140.7900 C   0  0  0  0  0  0  0  0  0  0  0  0
  189.4830  177.9270  141.0800 N   0  0  0  0  0  0  0  0  0  0  0  0
  187.4030  178.1820  141.8770 N   0  0  0  0  0  0  0  0  0  0  0  0
  187.6440  178.4000  139.5170 C   0  0  0  0  0  0  0  0  0  0  0  0
  185.5000  178.6270  140.5560 C   0  0  0  0  0  3  0  0  0  0  0  0
  186.2980  178.6220  139.4470 N   0  0  0  0  0  0  0  0  0  0  0  0
  188.1870  177.9310  142.9380 C   0  0  0  0  0  3  0  0  0  0  0  0
  186.0660  178.4090  141.8180 C   0  0  0  0  0  0  0  0  0  0  0  0
  189.4690  177.7760  142.4250 C   0  0  0  0  0  0  0  0  0  0  0  0
  190.6680  177.4820  143.2180 C   0  0  0  0  0  0  0  0  0  0  0  0
  191.7940  177.4100  142.6570 O   0  0  0  0  0  0  0  0  0  0  0  0
  190.5490  177.2770  144.6280 N   0  0  0  0  0  2  0  0  0  0  0  0
  191.2380  176.7560  146.8890 C   0  0  2  0  0  3  0  0  0  0  0  0
  191.5980  175.6010  146.0370 C   0  0  1  0  0  3  0  0  0  0  0  0
  191.7020  177.0020  145.4710 C   0  0  1  0  0  3  0  0  0  0  0  0
  191.9010  175.6280  147.4120 O   0  0  0  0  0  0  0  0  0  0  0  0
  188.4800  178.4260  138.2880 C   0  0  0  0  0  0  0  0  0  0  0  0
  189.0480  179.4980  137.9480 O   0  0  0  0  0  0  0  0  0  0  0  0
  188.6650  177.2720  137.4570 N   0  0  0  0  0  2  0  0  0  0  0  0
  188.2210  175.9560  137.7840 C   0  0  0  0  0  3  0  0  0  0  0  0
  183.2360  174.2620  136.2930 C   0  0  0  0  0  0  0  0  0  0  0  0
  184.2250  173.3210  136.8670 C   0  0  0  0  0  0  0  0  0  0  0  0
  187.0340  175.5610  137.4250 C   0  0  0  0  0  0  0  0  0  0  0  0
  185.1640  177.3270  136.3170 O   0  0  0  0  0  0  0  0  0  0  0  0
  184.8710  176.1130  136.4830 C   0  0  0  0  0  0  0  0  0  0  0  0
  186.3360  172.8670  137.7620 F   0  0  0  0  0  0  0  0  0  0  0  0
  185.8410  175.1640  137.0630 C   0  0  0  0  0  0  0  0  0  0  0  0
  185.4460  173.7470  137.2290 C   0  0  0  0  0  0  0  0  0  0  0  0
  183.5790  175.6380  136.1090 N   0  0  0  0  0  2  0  0  0  0  0  0
  182.0880  173.8590  135.9660 O   0  0  0  0  0  0  0  0  0  0  0  0
  183.8530  171.8860  137.0490 C   0  0  0  0  0  1  0  0  0  0  0  0
  185.2070  178.3830  143.0380 C   0  0  0  0  0  2  0  0  0  0  0  0
  184.0320  179.0960  142.8040 O   0  0  0  0  0  0  0  0  0  0  0  0
  183.2110  178.7810  143.8870 C   0  0  0  0  0  2  0  0  0  0  0  0
  181.7560  179.0080  143.5190 C   0  0  0  0  0  2  0  0  0  0  0  0
  181.6110  179.0240  142.1280 O   0  0  0  0  0  0  0  0  0  0  0  0
  179.9980  179.4700  141.8430 P   0  0  2  0  0  0  0  0  0  0  0  0
  179.7090  180.7990  142.5080 O   0  0  0  0  0  1  0  0  0  0  0  0
  178.9640  178.2850  142.4720 O   0  0  0  0  0  0  0  0  0  0  0  0
  179.7620  179.6100  140.1690 O   0  0  0  0  0  0  0  0  0  0  0  0
  180.1500  180.9110  139.8450 C   0  0  0  0  0  2  0  0  0  0  0  0
  182.7690  180.2440  138.9110 O   0  0  0  0  0  1  0  0  0  0  0  0
  180.6950  180.0060  137.3380 O   0  0  0  0  0  0  0  0  0  0  0  0
  181.2790  180.8750  138.4260 P   0  0  0  0  0  0  0  0  0  0  0  0
  181.4960  182.4460  137.8380 O   0  0  0  0  0  1  0  0  0  0  0  0
  1  2  2  0  0  0  0
  1  3  1  0  0  0  0
  2  9  1  0  0  0  0
  3  7  1  0  0  0  0
  4  1  1  0  0  0  0
  5  8  2  0  0  0  0
  6  4  2  0  0  0  0
  6  5  1  0  0  0  0
  8  3  1  0  0  0  0
  8 32  1  0  0  0  0
  9  7  2  0  0  0  0
  9 10  1  0  0  0  0
 10 12  1  0  0  0  0
 11 10  2  0  0  0  0
 13 16  1  1  0  0  0
 14 13  1  0  0  0  0
 14 16  1  1  0  0  0
 15 12  1  6  0  0  0
 15 14  1  0  0  0  0
 15 13  1  0  0  0  0
 17  4  1  0  0  0  0
 18 17  2  0  0  0  0
 19 20  1  0  0  0  0
 19 17  1  0  0  0  0
 21 22  1  0  0  0  0
 22 31  1  0  0  0  0
 22 28  2  0  0  0  0
 23 20  2  0  0  0  0
 24 25  2  0  0  0  0
 25 27  1  0  0  0  0
 27 28  1  0  0  0  0
 27 23  2  0  0  0  0
 28 26  1  0  0  0  0
 29 21  1  0  0  0  0
 29 25  1  0  0  0  0
 30 21  2  0  0  0  0
 33 32  1  0  0  0  0
 33 34  1  0  0  0  0
 35 34  1  0  0  0  0
 36 35  1  0  0  0  0
 37 36  1  0  0  0  0
 37 39  2  1  0  0  0
 37 38  1  0  0  0  0
 40 37  1  0  0  0  0
 41 40  1  0  0  0  0
 43 44  2  0  0  0  0
 44 42  1  0  0  0  0
 44 41  1  0  0  0  0
 45 44  1  0  0  0  0
M  END
>  <MODEL>
8

>  <REMARK>
 VINA RESULT:      -7.3      2.826      6.864
  Name = 
  13 active torsions:
  status: ('A' for Active; 'I' for Inactive)
    1  A    between atoms: C_1  and  O_22
    2  A    between atoms: C_1  and  C_41
    3  A    between atoms: C_2  and  N_37
    4  A    between atoms: C_6  and  O_16
    5  A    between atoms: C_6  and  P_36
    6  A    between atoms: O_8  and  C_9
    7  A    between atoms: O_8  and  P_12
    8  A    between atoms: C_9  and  C_19
    9  A    between atoms: C_10  and  C_42
   10  A    between atoms: P_12  and  O_16
   11  A    between atoms: N_13  and  C_30
   12  A    between atoms: C_19  and  O_22
   13  A    between atoms: C_21  and  C_26
                            x       y       z     vdW  Elec       q    Type
                         _______ _______ _______ _____ _____    ______ ____

>  <TORSDO>
F 13

$$$$
=
 OpenBabel11032419443D

 45 49  0  0  1  0  0  0  0  0999 V2000
  189.0110  177.8560  139.8880 C   0  0  0  0  0  0  0  0  0  0  0  0
  187.8020  178.2670  139.4580 N   0  0  0  0  0  0  0  0  0  0  0  0
  189.1100  177.8350  141.2270 N   0  0  0  0  0  0  0  0  0  0  0  0
  190.1070  177.4910  139.0910 C   0  0  0  0  0  0  0  0  0  0  0  0
  191.3470  177.0960  141.0990 C   0  0  0  0  0  3  0  0  0  0  0  0
  191.2510  177.1160  139.7370 N   0  0  0  0  0  0  0  0  0  0  0  0
  187.9290  178.2410  141.7210 C   0  0  0  0  0  3  0  0  0  0  0  0
  190.2410  177.4580  141.8770 C   0  0  0  0  0  0  0  0  0  0  0  0
  187.1330  178.5030  140.6120 C   0  0  0  0  0  0  0  0  0  0  0  0
  185.7470  178.9800  140.6590 C   0  0  0  0  0  0  0  0  0  0  0  0
  185.3510  179.6730  141.6350 O   0  0  0  0  0  0  0  0  0  0  0  0
  184.8510  178.6540  139.5940 N   0  0  0  0  0  2  0  0  0  0  0  0
  182.7720  178.5480  138.3570 C   0  0  2  0  0  3  0  0  0  0  0  0
  182.5360  177.9270  139.6790 C   0  0  1  0  0  3  0  0  0  0  0  0
  183.4710  179.1140  139.5730 C   0  0  1  0  0  3  0  0  0  0  0  0
  181.5050  178.0570  138.7290 O   0  0  0  0  0  0  0  0  0  0  0  0
  190.0370  177.4780  137.6060 C   0  0  0  0  0  0  0  0  0  0  0  0
  189.4610  178.4230  137.0050 O   0  0  0  0  0  0  0  0  0  0  0  0
  190.5960  176.4180  136.8170 N   0  0  0  0  0  2  0  0  0  0  0  0
  191.4080  175.3650  137.3320 C   0  0  0  0  0  3  0  0  0  0  0  0
  196.7850  175.2660  136.3220 C   0  0  0  0  0  0  0  0  0  0  0  0
  196.1690  174.3240  137.2850 C   0  0  0  0  0  0  0  0  0  0  0  0
  192.6870  175.3500  137.0870 C   0  0  0  0  0  0  0  0  0  0  0  0
  193.8660  177.1420  135.2870 O   0  0  0  0  0  0  0  0  0  0  0  0
  194.5710  176.2870  135.8880 C   0  0  0  0  0  0  0  0  0  0  0  0
  194.3020  173.4770  138.4070 F   0  0  0  0  0  0  0  0  0  0  0  0
  193.9720  175.3350  136.8430 C   0  0  0  0  0  0  0  0  0  0  0  0
  194.8490  174.3580  137.5260 C   0  0  0  0  0  0  0  0  0  0  0  0
  195.9760  176.2310  135.6460 N   0  0  0  0  0  2  0  0  0  0  0  0
  198.0230  175.2230  136.0910 O   0  0  0  0  0  0  0  0  0  0  0  0
  197.0290  173.3250  137.9870 C   0  0  0  0  0  1  0  0  0  0  0  0
  190.3340  177.4680  143.3670 C   0  0  0  0  0  2  0  0  0  0  0  0
  190.6550  176.1930  143.8290 O   0  0  0  0  0  0  0  0  0  0  0  0
  191.4840  176.4180  144.9280 C   0  0  0  0  0  2  0  0  0  0  0  0
  190.7990  177.3490  145.9120 C   0  0  0  0  0  2  0  0  0  0  0  0
  190.2500  176.6120  146.9660 O   0  0  0  0  0  0  0  0  0  0  0  0
  188.8880  177.4880  147.4760 P   0  0  2  0  0  0  0  0  0  0  0  0
  189.3250  178.6650  148.3230 O   0  0  0  0  0  0  0  0  0  0  0  0
  187.8760  176.4800  148.3870 O   0  0  0  0  0  1  0  0  0  0  0  0
  188.0600  178.0500  146.1070 O   0  0  0  0  0  0  0  0  0  0  0  0
  186.7830  177.4920  146.1890 C   0  0  0  0  0  2  0  0  0  0  0  0
  185.3680  179.5540  144.8010 O   0  0  0  0  0  0  0  0  0  0  0  0
  184.2240  178.2310  146.7440 O   0  0  0  0  0  1  0  0  0  0  0  0
  185.5470  178.8140  146.3090 P   0  0  0  0  0  0  0  0  0  0  0  0
  186.0570  179.9620  147.4420 O   0  0  0  0  0  1  0  0  0  0  0  0
  1  3  1  0  0  0  0
  2  1  2  0  0  0  0
  2  9  1  0  0  0  0
  3  7  1  0  0  0  0
  3  8  1  0  0  0  0
  4  6  2  0  0  0  0
  4  1  1  0  0  0  0
  5  8  2  0  0  0  0
  6  5  1  0  0  0  0
  8 32  1  0  0  0  0
  9 10  1  0  0  0  0
  9  7  2  0  0  0  0
 10 11  2  0  0  0  0
 12 10  1  0  0  0  0
 13 16  1  1  0  0  0
 13 15  1  0  0  0  0
 13 14  1  0  0  0  0
 14 16  1  1  0  0  0
 15 12  1  6  0  0  0
 15 14  1  0  0  0  0
 17  4  1  0  0  0  0
 18 17  2  0  0  0  0
 19 20  1  0  0  0  0
 19 17  1  0  0  0  0
 21 22  1  0  0  0  0
 22 28  2  0  0  0  0
 22 31  1  0  0  0  0
 23 20  2  0  0  0  0
 24 25  2  0  0  0  0
 25 27  1  0  0  0  0
 27 23  2  0  0  0  0
 27 28  1  0  0  0  0
 28 26  1  0  0  0  0
 29 25  1  0  0  0  0
 29 21  1  0  0  0  0
 30 21  2  0  0  0  0
 32 33  1  0  0  0  0
 33 34  1  0  0  0  0
 34 35  1  0  0  0  0
 35 36  1  0  0  0  0
 36 37  1  0  0  0  0
 37 38  2  1  0  0  0
 37 39  1  0  0  0  0
 40 41  1  0  0  0  0
 40 37  1  0  0  0  0
 41 44  1  0  0  0  0
 42 44  2  0  0  0  0
 44 43  1  0  0  0  0
 44 45  1  0  0  0  0
M  END
>  <MODEL>
9

>  <REMARK>
 VINA RESULT:      -7.2      3.671      5.695
  Name = 
  13 active torsions:
  status: ('A' for Active; 'I' for Inactive)
    1  A    between atoms: C_1  and  O_22
    2  A    between atoms: C_1  and  C_41
    3  A    between atoms: C_2  and  N_37
    4  A    between atoms: C_6  and  O_16
    5  A    between atoms: C_6  and  P_36
    6  A    between atoms: O_8  and  C_9
    7  A    between atoms: O_8  and  P_12
    8  A    between atoms: C_9  and  C_19
    9  A    between atoms: C_10  and  C_42
   10  A    between atoms: P_12  and  O_16
   11  A    between atoms: N_13  and  C_30
   12  A    between atoms: C_19  and  O_22
   13  A    between atoms: C_21  and  C_26
                            x       y       z     vdW  Elec       q    Type
                         _______ _______ _______ _____ _____    ______ ____

>  <TORSDO>
F 13

$$$$
