=
 OpenBabel11042411183D

 48 51  0  0  1  0  0  0  0  0999 V2000
  186.3510  178.5890  141.7190 S   0  0  0  0  0  0  0  0  0  0  0  0
  185.0990  178.7710  143.0300 C   0  0  1  0  0  3  0  0  0  0  0  0
  185.0300  178.7360  140.5240 C   0  0  0  0  0  0  0  0  0  0  0  0
  183.7810  178.2570  142.4750 C   0  0  0  0  0  2  0  0  0  0  0  0
  183.8070  178.5390  141.0140 C   0  0  0  0  0  0  0  0  0  0  0  0
  182.0220  179.8650  139.8460 N   0  0  0  0  0  2  0  0  0  0  0  0
  180.8970  180.0660  138.9820 C   0  0  0  0  0  0  0  0  0  0  0  0
  180.3670  179.0940  138.3740 O   0  0  0  0  0  0  0  0  0  0  0  0
  182.5560  178.5910  140.2290 C   0  0  0  0  0  0  0  0  0  0  0  0
  181.9530  177.5320  139.9110 O   0  0  0  0  0  0  0  0  0  0  0  0
  180.3270  181.4300  138.8130 C   0  0  0  0  0  2  0  0  0  0  0  0
  181.1100  182.2120  137.7730 C   0  0  0  0  0  2  0  0  0  0  0  0
  178.9310  185.1870  135.7400 N   0  0  0  0  0  0  0  0  0  0  0  0
  179.3120  183.9750  135.0130 C   0  0  0  0  0  2  0  0  0  0  0  0
  180.1140  184.5100  137.7170 C   0  0  0  0  0  2  0  0  0  0  0  0
  180.2500  183.2020  137.1400 N   0  0  0  0  0  0  0  0  0  0  0  0
  179.4550  185.4610  137.0510 C   0  0  0  0  0  3  0  0  0  0  0  0
  179.4260  182.8080  135.9920 C   0  0  0  0  0  2  0  0  0  0  0  0
  185.2740  179.1090  139.1620 N   0  0  0  0  0  2  0  0  0  0  0  0
  185.8070  178.1820  138.1750 C   0  0  0  0  0  2  0  0  0  0  0  0
  188.6300  177.4960  138.4520 N   0  0  0  0  0  2  0  0  0  0  0  0
  186.8400  178.8420  137.3910 N   0  0  0  0  0  2  0  0  0  0  0  0
  189.0790  179.1730  136.8900 O   0  0  0  0  0  0  0  0  0  0  0  0
  188.2220  178.5290  137.5500 C   0  0  0  0  0  0  0  0  0  0  0  0
  190.3390  177.2100  140.1560 C   0  0  0  0  0  1  0  0  0  0  0  0
  190.0260  177.1510  138.6710 C   0  0  1  0  0  3  0  0  0  0  0  0
  190.2840  175.7510  138.1450 C   0  0  0  0  0  2  0  0  0  0  0  0
  191.2280  175.8000  137.0370 N   0  0  0  0  0  2  0  0  0  0  0  0
  192.4740  175.2070  137.5030 C   0  0  0  0  0  2  0  0  0  0  0  0
  193.4990  176.2670  137.7200 C   0  0  0  0  0  0  0  0  0  0  0  0
  193.6500  176.8400  138.9790 O   0  0  0  0  0  1  0  0  0  0  0  0
  194.2420  176.6290  136.7710 O   0  0  0  0  0  0  0  0  0  0  0  0
  185.4880  177.9880  144.2680 C   0  0  0  0  0  2  0  0  0  0  0  0
  186.8660  178.2920  144.6250 N   0  0  0  0  0  2  0  0  0  0  0  0
  188.5440  177.6640  148.4170 N   0  0  0  0  0  0  0  0  0  0  0  0
  187.2720  178.1280  148.3210 C   0  0  0  0  0  3  0  0  0  0  0  0
  188.7300  177.4860  146.0260 C   0  0  0  0  0  0  0  0  0  0  0  0
  189.3010  177.3650  147.3240 C   0  0  0  0  0  0  0  0  0  0  0  0
  187.4300  178.0320  145.9160 C   0  0  0  0  0  0  0  0  0  0  0  0
  186.7000  178.3340  147.0710 C   0  0  0  0  0  3  0  0  0  0  0  0
  189.4900  177.0920  144.7760 C   0  0  2  0  0  3  0  0  0  0  0  0
  191.7230  177.2340  143.7250 C   0  0  0  0  0  1  0  0  0  0  0  0
  190.7070  177.9850  144.5610 C   0  0  1  0  0  3  0  0  0  0  0  0
  189.4600  178.2110  143.7480 C   0  0  0  0  0  2  0  0  0  0  0  0
  191.1880  175.6820  147.1600 N   0  0  0  0  0  2  0  0  0  0  0  0
  192.5760  175.2850  147.3380 C   0  0  0  0  0  1  0  0  0  0  0  0
  191.5030  177.8020  148.0680 O   0  0  0  0  0  0  0  0  0  0  0  0
  190.7060  176.9670  147.5640 C   0  0  0  0  0  0  0  0  0  0  0  0
  1  2  1  0  0  0  0
  2 33  1  1  0  0  0
  3  5  2  0  0  0  0
  3  1  1  0  0  0  0
  4  2  1  0  0  0  0
  5  4  1  0  0  0  0
  6  9  1  0  0  0  0
  7  6  1  0  0  0  0
  8  7  2  0  0  0  0
  9  5  1  0  0  0  0
 10  9  2  0  0  0  0
 11  7  1  0  0  0  0
 12 11  1  0  0  0  0
 13 17  2  0  0  0  0
 14 13  1  0  0  0  0
 14 18  1  0  0  0  0
 16 15  1  0  0  0  0
 16 12  1  0  0  0  0
 17 15  1  0  0  0  0
 18 16  1  0  0  0  0
 19  3  1  0  0  0  0
 20 19  1  0  0  0  0
 21 26  1  0  0  0  0
 22 24  1  0  0  0  0
 22 20  1  0  0  0  0
 23 24  2  0  0  0  0
 24 21  1  0  0  0  0
 26 25  1  1  0  0  0
 27 26  1  0  0  0  0
 28 29  1  0  0  0  0
 28 27  1  0  0  0  0
 29 30  1  0  0  0  0
 30 31  1  0  0  0  0
 32 30  2  0  0  0  0
 33 34  1  0  0  0  0
 34 39  1  0  0  0  0
 36 35  1  0  0  0  0
 37 38  1  0  0  0  0
 38 48  1  0  0  0  0
 38 35  2  0  0  0  0
 39 37  2  0  0  0  0
 39 40  1  0  0  0  0
 40 36  2  0  0  0  0
 41 37  1  1  0  0  0
 43 42  1  6  0  0  0
 43 41  1  0  0  0  0
 44 43  1  0  0  0  0
 44 41  1  0  0  0  0
 45 46  1  0  0  0  0
 45 48  1  0  0  0  0
 48 47  2  0  0  0  0
M  END
>  <MODEL>
1

>  <REMARK>
 VINA RESULT:      -7.9      0.000      0.000
  Name = 
  17 active torsions:
  status: ('A' for Active; 'I' for Inactive)
    1  A    between atoms: N_1  and  C_16
    2  A    between atoms: C_2  and  C_23
    3  A    between atoms: C_4  and  C_18
    4  A    between atoms: C_4  and  C_42
    5  A    between atoms: C_6  and  N_9
    6  A    between atoms: C_6  and  N_32
    7  A    between atoms: C_7  and  C_38
    8  A    between atoms: C_13  and  C_30
    9  A    between atoms: C_13  and  N_39
   10  A    between atoms: C_16  and  C_34
   11  A    between atoms: C_25  and  C_47
   12  A    between atoms: C_28  and  C_46
   13  A    between atoms: N_31  and  C_42
   14  A    between atoms: N_32  and  C_37
   15  A    between atoms: C_34  and  N_45
   16  A    between atoms: C_38  and  N_45
   17  A    between atoms: N_39  and  C_40
                            x       y       z     vdW  Elec       q    Type
                         _______ _______ _______ _____ _____    ______ ____

>  <TORSDO>
F 17

$$$$
=
 OpenBabel11042411183D

 48 51  0  0  1  0  0  0  0  0999 V2000
  186.3560  178.6600  141.7640 S   0  0  0  0  0  0  0  0  0  0  0  0
  185.0480  178.8330  143.0200 C   0  0  1  0  0  3  0  0  0  0  0  0
  185.0820  178.7580  140.5140 C   0  0  0  0  0  0  0  0  0  0  0  0
  183.7660  178.2810  142.4220 C   0  0  0  0  0  2  0  0  0  0  0  0
  183.8450  178.5420  140.9590 C   0  0  0  0  0  0  0  0  0  0  0  0
  182.3740  177.4550  139.2370 N   0  0  0  0  0  2  0  0  0  0  0  0
  181.1790  177.2690  138.4690 C   0  0  0  0  0  0  0  0  0  0  0  0
  180.1800  178.0230  138.6320 O   0  0  0  0  0  0  0  0  0  0  0  0
  182.6250  178.5530  140.1230 C   0  0  0  0  0  0  0  0  0  0  0  0
  181.8220  179.5230  140.1720 O   0  0  0  0  0  0  0  0  0  0  0  0
  181.1170  176.1880  137.4470 C   0  0  0  0  0  2  0  0  0  0  0  0
  181.9320  174.9850  137.8910 C   0  0  0  0  0  2  0  0  0  0  0  0
  185.6210  174.9930  135.8610 N   0  0  0  0  0  0  0  0  0  0  0  0
  185.5470  174.3640  137.1800 C   0  0  0  0  0  2  0  0  0  0  0  0
  183.3430  175.7430  135.9640 C   0  0  0  0  0  2  0  0  0  0  0  0
  183.1560  174.8940  137.1070 N   0  0  0  0  0  0  0  0  0  0  0  0
  184.5260  175.7710  135.3480 C   0  0  0  0  0  3  0  0  0  0  0  0
  184.1300  173.8430  137.4170 C   0  0  0  0  0  2  0  0  0  0  0  0
  185.3720  179.1160  139.1570 N   0  0  0  0  0  2  0  0  0  0  0  0
  185.9580  178.1830  138.2060 C   0  0  0  0  0  2  0  0  0  0  0  0
  188.7500  177.3450  138.3430 N   0  0  0  0  0  2  0  0  0  0  0  0
  187.0010  178.8530  137.4440 N   0  0  0  0  0  2  0  0  0  0  0  0
  189.2390  179.1150  136.9010 O   0  0  0  0  0  0  0  0  0  0  0  0
  188.3700  178.4630  137.5350 C   0  0  0  0  0  0  0  0  0  0  0  0
  190.4410  176.6920  139.9620 C   0  0  0  0  0  1  0  0  0  0  0  0
  190.1320  176.9170  138.4920 C   0  0  1  0  0  3  0  0  0  0  0  0
  190.3450  175.6290  137.7180 C   0  0  0  0  0  2  0  0  0  0  0  0
  191.4310  174.8630  138.3120 N   0  0  0  0  0  2  0  0  0  0  0  0
  192.4970  174.7850  137.3220 C   0  0  0  0  0  2  0  0  0  0  0  0
  193.6630  175.6080  137.7540 C   0  0  0  0  0  0  0  0  0  0  0  0
  193.5880  176.9970  137.7070 O   0  0  0  0  0  0  0  0  0  0  0  0
  194.7060  175.0480  138.1800 O   0  0  0  0  0  1  0  0  0  0  0  0
  185.4050  178.0790  144.2860 C   0  0  0  0  0  2  0  0  0  0  0  0
  186.8180  178.2640  144.5840 N   0  0  0  0  0  2  0  0  0  0  0  0
  188.5330  177.7510  148.3760 N   0  0  0  0  0  0  0  0  0  0  0  0
  187.2650  178.2260  148.2790 C   0  0  0  0  0  3  0  0  0  0  0  0
  188.6890  177.4870  145.9910 C   0  0  0  0  0  0  0  0  0  0  0  0
  189.2740  177.4050  147.2860 C   0  0  0  0  0  0  0  0  0  0  0  0
  187.3940  178.0430  145.8770 C   0  0  0  0  0  0  0  0  0  0  0  0
  186.6810  178.3940  147.0290 C   0  0  0  0  0  3  0  0  0  0  0  0
  189.4290  177.0400  144.7470 C   0  0  2  0  0  3  0  0  0  0  0  0
  191.6570  177.0950  143.6780 C   0  0  0  0  0  1  0  0  0  0  0  0
  190.6680  177.8950  144.5000 C   0  0  1  0  0  3  0  0  0  0  0  0
  189.4220  178.1320  143.6900 C   0  0  0  0  0  2  0  0  0  0  0  0
  191.1460  175.7040  147.1380 N   0  0  0  0  0  2  0  0  0  0  0  0
  192.5320  175.2980  147.3140 C   0  0  0  0  0  1  0  0  0  0  0  0
  191.4850  177.8370  148.0070 O   0  0  0  0  0  0  0  0  0  0  0  0
  190.6770  176.9990  147.5230 C   0  0  0  0  0  0  0  0  0  0  0  0
  1  2  1  0  0  0  0
  2 33  1  1  0  0  0
  3  5  2  0  0  0  0
  3  1  1  0  0  0  0
  4  2  1  0  0  0  0
  5  4  1  0  0  0  0
  6  9  1  0  0  0  0
  7  8  2  0  0  0  0
  7  6  1  0  0  0  0
  9 10  2  0  0  0  0
  9  5  1  0  0  0  0
 11 12  1  0  0  0  0
 11  7  1  0  0  0  0
 13 14  1  0  0  0  0
 14 18  1  0  0  0  0
 15 16  1  0  0  0  0
 16 18  1  0  0  0  0
 16 12  1  0  0  0  0
 17 13  2  0  0  0  0
 17 15  1  0  0  0  0
 19  3  1  0  0  0  0
 20 19  1  0  0  0  0
 21 26  1  0  0  0  0
 22 24  1  0  0  0  0
 22 20  1  0  0  0  0
 23 24  2  0  0  0  0
 24 21  1  0  0  0  0
 26 25  1  1  0  0  0
 27 28  1  0  0  0  0
 27 26  1  0  0  0  0
 29 30  1  0  0  0  0
 29 28  1  0  0  0  0
 30 32  1  0  0  0  0
 31 30  2  0  0  0  0
 33 34  1  0  0  0  0
 34 39  1  0  0  0  0
 36 35  1  0  0  0  0
 37 38  1  0  0  0  0
 38 48  1  0  0  0  0
 38 35  2  0  0  0  0
 39 37  2  0  0  0  0
 39 40  1  0  0  0  0
 40 36  2  0  0  0  0
 41 37  1  1  0  0  0
 43 42  1  6  0  0  0
 43 41  1  0  0  0  0
 44 43  1  0  0  0  0
 44 41  1  0  0  0  0
 45 46  1  0  0  0  0
 45 48  1  0  0  0  0
 48 47  2  0  0  0  0
M  END
>  <MODEL>
2

>  <REMARK>
 VINA RESULT:      -7.9      2.897      4.064
  Name = 
  17 active torsions:
  status: ('A' for Active; 'I' for Inactive)
    1  A    between atoms: N_1  and  C_16
    2  A    between atoms: C_2  and  C_23
    3  A    between atoms: C_4  and  C_18
    4  A    between atoms: C_4  and  C_42
    5  A    between atoms: C_6  and  N_9
    6  A    between atoms: C_6  and  N_32
    7  A    between atoms: C_7  and  C_38
    8  A    between atoms: C_13  and  C_30
    9  A    between atoms: C_13  and  N_39
   10  A    between atoms: C_16  and  C_34
   11  A    between atoms: C_25  and  C_47
   12  A    between atoms: C_28  and  C_46
   13  A    between atoms: N_31  and  C_42
   14  A    between atoms: N_32  and  C_37
   15  A    between atoms: C_34  and  N_45
   16  A    between atoms: C_38  and  N_45
   17  A    between atoms: N_39  and  C_40
                            x       y       z     vdW  Elec       q    Type
                         _______ _______ _______ _____ _____    ______ ____

>  <TORSDO>
F 17

$$$$
=
 OpenBabel11042411183D

 48 51  0  0  1  0  0  0  0  0999 V2000
  186.1470  178.6350  141.5970 S   0  0  0  0  0  0  0  0  0  0  0  0
  184.8240  178.9230  142.8150 C   0  0  1  0  0  3  0  0  0  0  0  0
  184.8840  178.5740  140.3340 C   0  0  0  0  0  0  0  0  0  0  0  0
  183.5560  178.2870  142.2710 C   0  0  0  0  0  2  0  0  0  0  0  0
  183.6460  178.3870  140.7890 C   0  0  0  0  0  0  0  0  0  0  0  0
  181.7930  179.4860  139.4980 N   0  0  0  0  0  2  0  0  0  0  0  0
  180.6960  179.5440  138.5780 C   0  0  0  0  0  0  0  0  0  0  0  0
  180.2980  178.5060  137.9790 O   0  0  0  0  0  0  0  0  0  0  0  0
  182.4350  178.2860  139.9460 C   0  0  0  0  0  0  0  0  0  0  0  0
  181.9600  177.1610  139.6370 O   0  0  0  0  0  0  0  0  0  0  0  0
  179.9990  180.8360  138.3370 C   0  0  0  0  0  2  0  0  0  0  0  0
  180.9590  182.0020  138.5030 C   0  0  0  0  0  2  0  0  0  0  0  0
  180.6900  184.4070  135.0570 N   0  0  0  0  0  0  0  0  0  0  0  0
  180.7980  185.0600  136.3620 C   0  0  0  0  0  2  0  0  0  0  0  0
  180.5940  182.2160  136.0330 C   0  0  0  0  0  2  0  0  0  0  0  0
  180.9920  182.7980  137.2840 N   0  0  0  0  0  0  0  0  0  0  0  0
  180.4730  182.9890  134.9520 C   0  0  0  0  0  3  0  0  0  0  0  0
  181.5590  184.1500  137.3250 C   0  0  0  0  0  2  0  0  0  0  0  0
  185.1830  178.7850  138.9480 N   0  0  0  0  0  2  0  0  0  0  0  0
  186.1790  178.0050  138.2300 C   0  0  0  0  0  2  0  0  0  0  0  0
  188.9490  177.2300  137.7330 N   0  0  0  0  0  2  0  0  0  0  0  0
  187.1240  178.9000  137.5780 N   0  0  0  0  0  2  0  0  0  0  0  0
  189.2750  179.3670  136.8500 O   0  0  0  0  0  0  0  0  0  0  0  0
  188.4850  178.5320  137.3640 C   0  0  0  0  0  0  0  0  0  0  0  0
  190.9710  176.5880  138.9180 C   0  0  0  0  0  1  0  0  0  0  0  0
  190.3310  176.8090  137.5590 C   0  0  1  0  0  3  0  0  0  0  0  0
  190.3660  175.5210  136.7570 C   0  0  0  0  0  2  0  0  0  0  0  0
  189.8840  174.4130  137.5700 N   0  0  0  0  0  2  0  0  0  0  0  0
  189.1780  173.5000  136.6820 C   0  0  0  0  0  2  0  0  0  0  0  0
  187.9040  174.1170  136.2150 C   0  0  0  0  0  0  0  0  0  0  0  0
  186.9560  174.5390  137.1420 O   0  0  0  0  0  1  0  0  0  0  0  0
  187.6940  174.2740  134.9840 O   0  0  0  0  0  0  0  0  0  0  0  0
  185.1790  178.3180  144.1600 C   0  0  0  0  0  2  0  0  0  0  0  0
  186.6080  178.0450  144.2100 N   0  0  0  0  0  2  0  0  0  0  0  0
  188.7890  177.7100  147.7760 N   0  0  0  0  0  0  0  0  0  0  0  0
  187.4980  178.1260  147.8230 C   0  0  0  0  0  3  0  0  0  0  0  0
  188.6690  177.3890  145.3960 C   0  0  0  0  0  0  0  0  0  0  0  0
  189.4090  177.3680  146.6120 C   0  0  0  0  0  0  0  0  0  0  0  0
  187.3450  177.8840  145.4280 C   0  0  0  0  0  0  0  0  0  0  0  0
  186.7600  178.2350  146.6500 C   0  0  0  0  0  3  0  0  0  0  0  0
  189.2750  176.9420  144.0820 C   0  0  2  0  0  3  0  0  0  0  0  0
  191.1940  177.3520  142.5790 C   0  0  0  0  0  1  0  0  0  0  0  0
  190.1880  178.0150  143.4970 C   0  0  1  0  0  3  0  0  0  0  0  0
  188.8030  177.8260  142.9380 C   0  0  0  0  0  2  0  0  0  0  0  0
  191.3030  175.8920  147.4210 N   0  0  0  0  0  2  0  0  0  0  0  0
  192.7050  175.5100  147.4690 C   0  0  0  0  0  1  0  0  0  0  0  0
  191.6740  177.7220  146.0320 O   0  0  0  0  0  0  0  0  0  0  0  0
  190.8480  177.0310  146.6860 C   0  0  0  0  0  0  0  0  0  0  0  0
  1  2  1  0  0  0  0
  2 33  1  1  0  0  0
  3  5  2  0  0  0  0
  3  1  1  0  0  0  0
  4  2  1  0  0  0  0
  5  4  1  0  0  0  0
  6  9  1  0  0  0  0
  7  6  1  0  0  0  0
  8  7  2  0  0  0  0
  9  5  1  0  0  0  0
 10  9  2  0  0  0  0
 11 12  1  0  0  0  0
 11  7  1  0  0  0  0
 13 14  1  0  0  0  0
 14 18  1  0  0  0  0
 15 16  1  0  0  0  0
 16 18  1  0  0  0  0
 16 12  1  0  0  0  0
 17 13  2  0  0  0  0
 17 15  1  0  0  0  0
 19  3  1  0  0  0  0
 20 19  1  0  0  0  0
 22 20  1  0  0  0  0
 23 24  2  0  0  0  0
 24 22  1  0  0  0  0
 24 21  1  0  0  0  0
 26 21  1  0  0  0  0
 26 25  1  1  0  0  0
 27 26  1  0  0  0  0
 27 28  1  0  0  0  0
 29 28  1  0  0  0  0
 30 29  1  0  0  0  0
 30 31  1  0  0  0  0
 32 30  2  0  0  0  0
 33 34  1  0  0  0  0
 34 39  1  0  0  0  0
 35 36  1  0  0  0  0
 37 39  2  0  0  0  0
 37 38  1  0  0  0  0
 38 48  1  0  0  0  0
 38 35  2  0  0  0  0
 39 40  1  0  0  0  0
 40 36  2  0  0  0  0
 41 37  1  1  0  0  0
 43 42  1  6  0  0  0
 43 41  1  0  0  0  0
 44 43  1  0  0  0  0
 44 41  1  0  0  0  0
 45 46  1  0  0  0  0
 47 48  2  0  0  0  0
 48 45  1  0  0  0  0
M  END
>  <MODEL>
3

>  <REMARK>
 VINA RESULT:      -7.7      1.549      2.156
  Name = 
  17 active torsions:
  status: ('A' for Active; 'I' for Inactive)
    1  A    between atoms: N_1  and  C_16
    2  A    between atoms: C_2  and  C_23
    3  A    between atoms: C_4  and  C_18
    4  A    between atoms: C_4  and  C_42
    5  A    between atoms: C_6  and  N_9
    6  A    between atoms: C_6  and  N_32
    7  A    between atoms: C_7  and  C_38
    8  A    between atoms: C_13  and  C_30
    9  A    between atoms: C_13  and  N_39
   10  A    between atoms: C_16  and  C_34
   11  A    between atoms: C_25  and  C_47
   12  A    between atoms: C_28  and  C_46
   13  A    between atoms: N_31  and  C_42
   14  A    between atoms: N_32  and  C_37
   15  A    between atoms: C_34  and  N_45
   16  A    between atoms: C_38  and  N_45
   17  A    between atoms: N_39  and  C_40
                            x       y       z     vdW  Elec       q    Type
                         _______ _______ _______ _____ _____    ______ ____

>  <TORSDO>
F 17

$$$$
=
 OpenBabel11042411183D

 48 51  0  0  1  0  0  0  0  0999 V2000
  182.5930  178.7920  138.9850 S   0  0  0  0  0  0  0  0  0  0  0  0
  184.3750  178.8270  139.3620 C   0  0  1  0  0  3  0  0  0  0  0  0
  182.2840  178.9520  140.7390 C   0  0  0  0  0  0  0  0  0  0  0  0
  184.5540  178.2860  140.7700 C   0  0  0  0  0  2  0  0  0  0  0  0
  183.3240  178.6640  141.5180 C   0  0  0  0  0  0  0  0  0  0  0  0
  184.5060  178.3420  143.7110 N   0  0  0  0  0  2  0  0  0  0  0  0
  184.6870  178.4570  145.1280 C   0  0  0  0  0  0  0  0  0  0  0  0
  183.8240  179.0340  145.8460 O   0  0  0  0  0  0  0  0  0  0  0  0
  183.3180  178.7060  142.9970 C   0  0  0  0  0  0  0  0  0  0  0  0
  182.2790  179.0410  143.6250 O   0  0  0  0  0  0  0  0  0  0  0  0
  185.8950  177.8710  145.7700 C   0  0  0  0  0  2  0  0  0  0  0  0
  187.1230  178.0940  144.9030 C   0  0  0  0  0  2  0  0  0  0  0  0
  190.6660  176.9730  146.8830 N   0  0  0  0  0  2  0  0  0  0  0  0
  189.5890  177.5860  147.6630 C   0  0  0  0  0  2  0  0  0  0  0  0
  189.4810  177.2530  144.8140 C   0  0  0  0  0  3  0  0  0  0  0  0
  188.3080  177.5790  145.5750 N   0  0  0  0  0  0  0  0  0  0  0  0
  190.6130  176.9360  145.4470 C   0  0  0  0  0  3  0  0  0  0  0  0
  188.2450  177.2740  147.0080 C   0  0  0  0  0  2  0  0  0  0  0  0
  181.0310  179.4240  141.2510 N   0  0  0  0  0  2  0  0  0  0  0  0
  179.7510  178.8840  140.8200 C   0  0  0  0  0  2  0  0  0  0  0  0
  179.8210  176.2730  139.5170 N   0  0  0  0  0  2  0  0  0  0  0  0
  179.4710  177.6530  141.5450 N   0  0  0  0  0  2  0  0  0  0  0  0
  179.1660  175.3550  141.5620 O   0  0  0  0  0  0  0  0  0  0  0  0
  179.4740  176.3810  140.9010 C   0  0  0  0  0  0  0  0  0  0  0  0
  178.9310  175.1140  137.5740 C   0  0  0  0  0  1  0  0  0  0  0  0
  179.8180  175.0060  138.8030 C   0  0  1  0  0  3  0  0  0  0  0  0
  181.2360  174.6620  138.3860 C   0  0  0  0  0  2  0  0  0  0  0  0
  181.3920  174.8430  136.9490 N   0  0  0  0  0  2  0  0  0  0  0  0
  182.8180  174.9710  136.6820 C   0  0  0  0  0  2  0  0  0  0  0  0
  183.4890  173.6460  136.8170 C   0  0  0  0  0  0  0  0  0  0  0  0
  184.5120  173.4770  137.7450 O   0  0  0  0  0  1  0  0  0  0  0  0
  183.1160  172.6760  136.1080 O   0  0  0  0  0  0  0  0  0  0  0  0
  185.1570  177.9850  138.3720 C   0  0  0  0  0  2  0  0  0  0  0  0
  186.4850  178.5530  138.1900 N   0  0  0  0  0  2  0  0  0  0  0  0
  189.2870  176.8420  135.5820 N   0  0  0  0  0  0  0  0  0  0  0  0
  188.2760  177.5900  135.0730 C   0  0  0  0  0  3  0  0  0  0  0  0
  188.5660  177.2780  137.8340 C   0  0  0  0  0  0  0  0  0  0  0  0
  189.4510  176.6400  136.9190 C   0  0  0  0  0  0  0  0  0  0  0  0
  187.4720  178.0030  137.3090 C   0  0  0  0  0  0  0  0  0  0  0  0
  187.3440  178.1690  135.9260 C   0  0  0  0  0  3  0  0  0  0  0  0
  188.7430  177.1610  139.3340 C   0  0  2  0  0  3  0  0  0  0  0  0
  188.3220  178.3720  141.4480 C   0  0  0  0  0  1  0  0  0  0  0  0
  188.7440  178.5330  140.0010 C   0  0  1  0  0  3  0  0  0  0  0  0
  190.0450  177.8100  139.7780 C   0  0  0  0  0  2  0  0  0  0  0  0
  191.9070  176.1020  137.2370 N   0  0  0  0  0  2  0  0  0  0  0  0
  192.9850  175.2370  137.6860 C   0  0  0  0  0  1  0  0  0  0  0  0
  190.2290  174.6100  137.8530 O   0  0  0  0  0  0  0  0  0  0  0  0
  190.5320  175.7190  137.3370 C   0  0  0  0  0  0  0  0  0  0  0  0
  1  2  1  0  0  0  0
  1  3  1  0  0  0  0
  2 33  1  6  0  0  0
  2  4  1  0  0  0  0
  3 19  1  0  0  0  0
  3  5  2  0  0  0  0
  4  5  1  0  0  0  0
  5  9  1  0  0  0  0
  6  7  1  0  0  0  0
  7 11  1  0  0  0  0
  7  8  2  0  0  0  0
  9 10  2  0  0  0  0
  9  6  1  0  0  0  0
 12 16  1  0  0  0  0
 12 11  1  0  0  0  0
 13 14  1  0  0  0  0
 15 17  2  0  0  0  0
 15 16  1  0  0  0  0
 16 18  1  0  0  0  0
 17 13  1  0  0  0  0
 18 14  1  0  0  0  0
 20 19  1  0  0  0  0
 20 22  1  0  0  0  0
 21 24  1  0  0  0  0
 24 22  1  0  0  0  0
 24 23  2  0  0  0  0
 26 25  1  6  0  0  0
 26 21  1  0  0  0  0
 27 26  1  0  0  0  0
 28 27  1  0  0  0  0
 29 30  1  0  0  0  0
 29 28  1  0  0  0  0
 30 31  1  0  0  0  0
 32 30  2  0  0  0  0
 34 33  1  0  0  0  0
 35 38  1  0  0  0  0
 36 35  2  0  0  0  0
 36 40  1  0  0  0  0
 38 48  1  0  0  0  0
 38 37  2  0  0  0  0
 39 37  1  0  0  0  0
 39 34  1  0  0  0  0
 40 39  2  0  0  0  0
 41 37  1  6  0  0  0
 41 44  1  0  0  0  0
 41 43  1  0  0  0  0
 43 42  1  1  0  0  0
 44 43  1  0  0  0  0
 45 48  1  0  0  0  0
 45 46  1  0  0  0  0
 48 47  2  0  0  0  0
M  END
>  <MODEL>
4

>  <REMARK>
 VINA RESULT:      -7.5      3.514      9.703
  Name = 
  17 active torsions:
  status: ('A' for Active; 'I' for Inactive)
    1  A    between atoms: N_1  and  C_16
    2  A    between atoms: C_2  and  C_23
    3  A    between atoms: C_4  and  C_18
    4  A    between atoms: C_4  and  C_42
    5  A    between atoms: C_6  and  N_9
    6  A    between atoms: C_6  and  N_32
    7  A    between atoms: C_7  and  C_38
    8  A    between atoms: C_13  and  C_30
    9  A    between atoms: C_13  and  N_39
   10  A    between atoms: C_16  and  C_34
   11  A    between atoms: C_25  and  C_47
   12  A    between atoms: C_28  and  C_46
   13  A    between atoms: N_31  and  C_42
   14  A    between atoms: N_32  and  C_37
   15  A    between atoms: C_34  and  N_45
   16  A    between atoms: C_38  and  N_45
   17  A    between atoms: N_39  and  C_40
                            x       y       z     vdW  Elec       q    Type
                         _______ _______ _______ _____ _____    ______ ____

>  <TORSDO>
F 17

$$$$
=
 OpenBabel11042411183D

 48 51  0  0  1  0  0  0  0  0999 V2000
  183.3360  177.7820  138.3760 S   0  0  0  0  0  0  0  0  0  0  0  0
  184.7540  178.9140  138.5360 C   0  0  1  0  0  3  0  0  0  0  0  0
  183.1860  177.8200  140.1570 C   0  0  0  0  0  0  0  0  0  0  0  0
  185.3780  178.6740  139.9000 C   0  0  0  0  0  2  0  0  0  0  0  0
  184.2630  178.2690  140.7990 C   0  0  0  0  0  0  0  0  0  0  0  0
  185.5470  177.8280  142.9130 N   0  0  0  0  0  2  0  0  0  0  0  0
  185.8690  177.9730  144.3010 C   0  0  0  0  0  0  0  0  0  0  0  0
  185.1980  178.7420  145.0440 O   0  0  0  0  0  0  0  0  0  0  0  0
  184.3940  178.3820  142.2680 C   0  0  0  0  0  0  0  0  0  0  0  0
  183.4960  178.9440  142.9510 O   0  0  0  0  0  0  0  0  0  0  0  0
  186.9950  177.1940  144.8860 C   0  0  0  0  0  2  0  0  0  0  0  0
  187.5570  177.9010  146.1070 C   0  0  0  0  0  2  0  0  0  0  0  0
  191.6640  176.9730  146.1760 N   0  0  0  0  0  0  0  0  0  0  0  0
  191.0230  177.2290  144.8840 C   0  0  0  0  0  2  0  0  0  0  0  0
  189.5910  177.1650  147.3720 C   0  0  0  0  0  2  0  0  0  0  0  0
  188.9980  177.7030  146.1800 N   0  0  0  0  0  0  0  0  0  0  0  0
  190.8840  176.8370  147.3760 C   0  0  0  0  0  3  0  0  0  0  0  0
  189.8440  178.1810  145.0810 C   0  0  0  0  0  2  0  0  0  0  0  0
  181.9700  177.4630  140.8270 N   0  0  0  0  0  2  0  0  0  0  0  0
  180.6710  177.9860  140.4310 C   0  0  0  0  0  2  0  0  0  0  0  0
  180.5550  179.7450  138.1050 N   0  0  0  0  0  2  0  0  0  0  0  0
  180.6680  179.4350  140.5620 N   0  0  0  0  0  2  0  0  0  0  0  0
  180.7020  181.5400  139.5910 O   0  0  0  0  0  0  0  0  0  0  0  0
  180.6430  180.2940  139.4240 C   0  0  0  0  0  0  0  0  0  0  0  0
  180.8480  179.7120  135.6920 C   0  0  0  0  0  1  0  0  0  0  0  0
  180.5490  180.5720  136.9080 C   0  0  1  0  0  3  0  0  0  0  0  0
  179.1880  181.2250  136.7560 C   0  0  0  0  0  2  0  0  0  0  0  0
  179.3150  182.4810  136.0300 N   0  0  0  0  0  2  0  0  0  0  0  0
  179.8020  183.4780  136.9720 C   0  0  0  0  0  2  0  0  0  0  0  0
  180.9470  184.2290  136.3820 C   0  0  0  0  0  0  0  0  0  0  0  0
  181.9740  184.6860  137.2010 O   0  0  0  0  0  1  0  0  0  0  0  0
  180.9950  184.4310  135.1400 O   0  0  0  0  0  0  0  0  0  0  0  0
  185.7750  178.6660  137.4410 C   0  0  0  0  0  2  0  0  0  0  0  0
  186.7170  177.6450  137.8750 N   0  0  0  0  0  2  0  0  0  0  0  0
  189.8340  176.1480  135.5020 N   0  0  0  0  0  0  0  0  0  0  0  0
  188.7270  176.6560  134.9020 C   0  0  0  0  0  3  0  0  0  0  0  0
  188.9890  176.7040  137.6840 C   0  0  0  0  0  0  0  0  0  0  0  0
  189.9920  176.1250  136.8550 C   0  0  0  0  0  0  0  0  0  0  0  0
  187.8050  177.1740  137.0700 C   0  0  0  0  0  0  0  0  0  0  0  0
  187.6890  177.1620  135.6760 C   0  0  0  0  0  3  0  0  0  0  0  0
  189.1420  176.7850  139.1880 C   0  0  2  0  0  3  0  0  0  0  0  0
  188.6720  178.2550  141.1200 C   0  0  0  0  0  1  0  0  0  0  0  0
  189.1170  178.2310  139.6720 C   0  0  1  0  0  3  0  0  0  0  0  0
  190.4290  177.5020  139.5650 C   0  0  0  0  0  2  0  0  0  0  0  0
  192.4840  176.0740  137.3130 N   0  0  0  0  0  2  0  0  0  0  0  0
  193.6760  175.4550  137.8690 C   0  0  0  0  0  1  0  0  0  0  0  0
  191.0740  174.3410  137.9680 O   0  0  0  0  0  0  0  0  0  0  0  0
  191.1980  175.4500  137.3840 C   0  0  0  0  0  0  0  0  0  0  0  0
  1  2  1  0  0  0  0
  1  3  1  0  0  0  0
  2 33  1  6  0  0  0
  2  4  1  0  0  0  0
  3  5  2  0  0  0  0
  3 19  1  0  0  0  0
  4  5  1  0  0  0  0
  5  9  1  0  0  0  0
  6  7  1  0  0  0  0
  7 11  1  0  0  0  0
  7  8  2  0  0  0  0
  9  6  1  0  0  0  0
  9 10  2  0  0  0  0
 11 12  1  0  0  0  0
 12 16  1  0  0  0  0
 13 17  2  0  0  0  0
 14 18  1  0  0  0  0
 14 13  1  0  0  0  0
 15 17  1  0  0  0  0
 16 15  1  0  0  0  0
 18 16  1  0  0  0  0
 20 22  1  0  0  0  0
 20 19  1  0  0  0  0
 21 24  1  0  0  0  0
 24 23  2  0  0  0  0
 24 22  1  0  0  0  0
 26 25  1  6  0  0  0
 26 21  1  0  0  0  0
 27 26  1  0  0  0  0
 28 27  1  0  0  0  0
 28 29  1  0  0  0  0
 30 29  1  0  0  0  0
 30 31  1  0  0  0  0
 32 30  2  0  0  0  0
 33 34  1  0  0  0  0
 35 38  1  0  0  0  0
 36 35  2  0  0  0  0
 36 40  1  0  0  0  0
 38 48  1  0  0  0  0
 38 37  2  0  0  0  0
 39 37  1  0  0  0  0
 39 34  1  0  0  0  0
 40 39  2  0  0  0  0
 41 37  1  6  0  0  0
 41 44  1  0  0  0  0
 41 43  1  0  0  0  0
 43 42  1  1  0  0  0
 44 43  1  0  0  0  0
 45 48  1  0  0  0  0
 45 46  1  0  0  0  0
 48 47  2  0  0  0  0
M  END
>  <MODEL>
5

>  <REMARK>
 VINA RESULT:      -7.4      2.398     10.348
  Name = 
  17 active torsions:
  status: ('A' for Active; 'I' for Inactive)
    1  A    between atoms: N_1  and  C_16
    2  A    between atoms: C_2  and  C_23
    3  A    between atoms: C_4  and  C_18
    4  A    between atoms: C_4  and  C_42
    5  A    between atoms: C_6  and  N_9
    6  A    between atoms: C_6  and  N_32
    7  A    between atoms: C_7  and  C_38
    8  A    between atoms: C_13  and  C_30
    9  A    between atoms: C_13  and  N_39
   10  A    between atoms: C_16  and  C_34
   11  A    between atoms: C_25  and  C_47
   12  A    between atoms: C_28  and  C_46
   13  A    between atoms: N_31  and  C_42
   14  A    between atoms: N_32  and  C_37
   15  A    between atoms: C_34  and  N_45
   16  A    between atoms: C_38  and  N_45
   17  A    between atoms: N_39  and  C_40
                            x       y       z     vdW  Elec       q    Type
                         _______ _______ _______ _____ _____    ______ ____

>  <TORSDO>
F 17

$$$$
=
 OpenBabel11042411183D

 48 51  0  0  1  0  0  0  0  0999 V2000
  183.7990  178.5100  140.6100 S   0  0  0  0  0  0  0  0  0  0  0  0
  182.1730  178.5640  141.4280 C   0  0  1  0  0  3  0  0  0  0  0  0
  184.5410  178.3990  142.2320 C   0  0  0  0  0  0  0  0  0  0  0  0
  182.3770  179.1610  142.8100 C   0  0  0  0  0  2  0  0  0  0  0  0
  183.7450  178.7580  143.2370 C   0  0  0  0  0  0  0  0  0  0  0  0
  185.4390  178.3310  145.0420 N   0  0  0  0  0  2  0  0  0  0  0  0
  185.9890  178.4060  146.3620 C   0  0  0  0  0  0  0  0  0  0  0  0
  185.3750  179.0090  147.2860 O   0  0  0  0  0  0  0  0  0  0  0  0
  184.1270  178.7680  144.6660 C   0  0  0  0  0  0  0  0  0  0  0  0
  183.3070  179.1400  145.5470 O   0  0  0  0  0  0  0  0  0  0  0  0
  187.2900  177.7480  146.6610 C   0  0  0  0  0  2  0  0  0  0  0  0
  188.1050  177.5720  145.3910 C   0  0  0  0  0  2  0  0  0  0  0  0
  192.0580  176.4010  146.2450 N   0  0  0  0  0  0  0  0  0  0  0  0
  191.6550  176.5440  144.8450 C   0  0  0  0  0  2  0  0  0  0  0  0
  189.8440  176.8610  147.0490 C   0  0  0  0  0  2  0  0  0  0  0  0
  189.4950  177.2930  145.7240 N   0  0  0  0  0  0  0  0  0  0  0  0
  191.0890  176.4540  147.3050 C   0  0  0  0  0  3  0  0  0  0  0  0
  190.5420  177.5840  144.7400 C   0  0  0  0  0  2  0  0  0  0  0  0
  185.8680  177.8930  142.4300 N   0  0  0  0  0  2  0  0  0  0  0  0
  187.0570  178.6100  141.9960 C   0  0  0  0  0  2  0  0  0  0  0  0
  189.4300  177.8550  140.4740 N   0  0  0  0  0  2  0  0  0  0  0  0
  187.0900  178.6680  140.5420 N   0  0  0  0  0  2  0  0  0  0  0  0
  188.2530  178.4550  138.5490 O   0  0  0  0  0  0  0  0  0  0  0  0
  188.2600  178.3290  139.8010 C   0  0  0  0  0  0  0  0  0  0  0  0
  191.8140  177.4760  140.7560 C   0  0  0  0  0  1  0  0  0  0  0  0
  190.6580  177.5170  139.7720 C   0  0  1  0  0  3  0  0  0  0  0  0
  190.4990  176.1630  139.1070 C   0  0  0  0  0  2  0  0  0  0  0  0
  191.1270  176.1740  137.7930 N   0  0  0  0  0  2  0  0  0  0  0  0
  192.1110  175.1000  137.7750 C   0  0  0  0  0  2  0  0  0  0  0  0
  193.2810  175.4880  136.9370 C   0  0  0  0  0  0  0  0  0  0  0  0
  193.0910  176.2500  135.7880 O   0  0  0  0  0  0  0  0  0  0  0  0
  194.4420  175.1440  137.2780 O   0  0  0  0  0  1  0  0  0  0  0  0
  181.1900  179.4020  140.6330 C   0  0  0  0  0  2  0  0  0  0  0  0
  180.0480  178.5850  140.2510 N   0  0  0  0  0  2  0  0  0  0  0  0
  180.4020  174.4910  139.4160 N   0  0  0  0  0  0  0  0  0  0  0  0
  179.6110  174.8940  140.4440 C   0  0  0  0  0  3  0  0  0  0  0  0
  180.9060  176.7660  138.8230 C   0  0  0  0  0  0  0  0  0  0  0  0
  181.0730  175.3670  138.6180 C   0  0  0  0  0  0  0  0  0  0  0  0
  180.1380  177.1920  139.9310 C   0  0  0  0  0  0  0  0  0  0  0  0
  179.4790  176.2480  140.7280 C   0  0  0  0  0  3  0  0  0  0  0  0
  181.5580  177.7920  137.9200 C   0  0  2  0  0  3  0  0  0  0  0  0
  181.1250  179.9420  136.7790 C   0  0  0  0  0  1  0  0  0  0  0  0
  180.5150  178.6100  137.1650 C   0  0  1  0  0  3  0  0  0  0  0  0
  181.2490  177.5020  136.4590 C   0  0  0  0  0  2  0  0  0  0  0  0
  183.3920  174.7170  137.8310 N   0  0  0  0  0  2  0  0  0  0  0  0
  184.3010  174.1140  136.8690 C   0  0  0  0  0  1  0  0  0  0  0  0
  181.4940  174.3060  136.5470 O   0  0  0  0  0  0  0  0  0  0  0  0
  181.9830  174.7950  137.6000 C   0  0  0  0  0  0  0  0  0  0  0  0
  1  2  1  0  0  0  0
  1  3  1  0  0  0  0
  2 33  1  6  0  0  0
  2  4  1  0  0  0  0
  3 19  1  0  0  0  0
  3  5  2  0  0  0  0
  4  5  1  0  0  0  0
  5  9  1  0  0  0  0
  6  7  1  0  0  0  0
  7 11  1  0  0  0  0
  7  8  2  0  0  0  0
  9  6  1  0  0  0  0
  9 10  2  0  0  0  0
 12 16  1  0  0  0  0
 12 11  1  0  0  0  0
 13 17  2  0  0  0  0
 14 13  1  0  0  0  0
 15 17  1  0  0  0  0
 16 15  1  0  0  0  0
 18 14  1  0  0  0  0
 18 16  1  0  0  0  0
 20 19  1  0  0  0  0
 22 20  1  0  0  0  0
 23 24  2  0  0  0  0
 24 21  1  0  0  0  0
 24 22  1  0  0  0  0
 26 21  1  0  0  0  0
 26 25  1  1  0  0  0
 27 26  1  0  0  0  0
 28 27  1  0  0  0  0
 29 28  1  0  0  0  0
 30 32  1  0  0  0  0
 30 29  1  0  0  0  0
 31 30  2  0  0  0  0
 34 33  1  0  0  0  0
 35 36  1  0  0  0  0
 36 40  2  0  0  0  0
 37 39  2  0  0  0  0
 38 37  1  0  0  0  0
 38 35  2  0  0  0  0
 39 34  1  0  0  0  0
 39 40  1  0  0  0  0
 41 37  1  1  0  0  0
 43 42  1  6  0  0  0
 43 41  1  0  0  0  0
 44 43  1  0  0  0  0
 44 41  1  0  0  0  0
 46 45  1  0  0  0  0
 47 48  2  0  0  0  0
 48 45  1  0  0  0  0
 48 38  1  0  0  0  0
M  END
>  <MODEL>
6

>  <REMARK>
 VINA RESULT:      -7.2      2.876      9.615
  Name = 
  17 active torsions:
  status: ('A' for Active; 'I' for Inactive)
    1  A    between atoms: N_1  and  C_16
    2  A    between atoms: C_2  and  C_23
    3  A    between atoms: C_4  and  C_18
    4  A    between atoms: C_4  and  C_42
    5  A    between atoms: C_6  and  N_9
    6  A    between atoms: C_6  and  N_32
    7  A    between atoms: C_7  and  C_38
    8  A    between atoms: C_13  and  C_30
    9  A    between atoms: C_13  and  N_39
   10  A    between atoms: C_16  and  C_34
   11  A    between atoms: C_25  and  C_47
   12  A    between atoms: C_28  and  C_46
   13  A    between atoms: N_31  and  C_42
   14  A    between atoms: N_32  and  C_37
   15  A    between atoms: C_34  and  N_45
   16  A    between atoms: C_38  and  N_45
   17  A    between atoms: N_39  and  C_40
                            x       y       z     vdW  Elec       q    Type
                         _______ _______ _______ _____ _____    ______ ____

>  <TORSDO>
F 17

$$$$
=
 OpenBabel11042411183D

 48 51  0  0  1  0  0  0  0  0999 V2000
  182.7860  178.8060  143.3290 S   0  0  0  0  0  0  0  0  0  0  0  0
  184.4920  178.2470  143.6400 C   0  0  1  0  0  3  0  0  0  0  0  0
  183.2120  178.9380  141.5980 C   0  0  0  0  0  0  0  0  0  0  0  0
  185.3730  178.8480  142.5580 C   0  0  0  0  0  2  0  0  0  0  0  0
  184.5190  178.9610  141.3440 C   0  0  0  0  0  0  0  0  0  0  0  0
  186.3620  178.4110  139.7290 N   0  0  0  0  0  2  0  0  0  0  0  0
  186.9950  178.3310  138.4460 C   0  0  0  0  0  0  0  0  0  0  0  0
  186.4090  178.7470  137.4080 O   0  0  0  0  0  0  0  0  0  0  0  0
  185.1230  179.0790  140.0000 C   0  0  0  0  0  0  0  0  0  0  0  0
  184.5690  179.7710  139.1050 O   0  0  0  0  0  0  0  0  0  0  0  0
  188.3690  177.7710  138.3320 C   0  0  0  0  0  2  0  0  0  0  0  0
  188.5750  177.1310  136.9690 C   0  0  0  0  0  2  0  0  0  0  0  0
  191.4930  174.1400  137.4870 N   0  0  0  0  0  0  0  0  0  0  0  0
  190.1620  173.7490  137.0190 C   0  0  0  0  0  2  0  0  0  0  0  0
  190.8470  176.4350  137.7630 C   0  0  0  0  0  2  0  0  0  0  0  0
  189.6430  176.1430  137.0380 N   0  0  0  0  0  0  0  0  0  0  0  0
  191.7510  175.4730  137.9580 C   0  0  0  0  0  3  0  0  0  0  0  0
  189.5310  174.9100  136.2520 C   0  0  0  0  0  2  0  0  0  0  0  0
  182.2160  178.9450  140.5680 N   0  0  0  0  0  2  0  0  0  0  0  0
  180.8980  178.3530  140.7440 C   0  0  0  0  0  2  0  0  0  0  0  0
  180.8290  177.3220  138.0140 N   0  0  0  0  0  2  0  0  0  0  0  0
  180.9600  176.9270  140.4580 N   0  0  0  0  0  2  0  0  0  0  0  0
  180.8920  175.1780  138.9380 O   0  0  0  0  0  0  0  0  0  0  0  0
  180.8950  176.4220  139.1260 C   0  0  0  0  0  0  0  0  0  0  0  0
  179.7040  177.6920  135.8910 C   0  0  0  0  0  1  0  0  0  0  0  0
  180.7360  176.8630  136.6370 C   0  0  1  0  0  3  0  0  0  0  0  0
  182.0910  177.0050  135.9690 C   0  0  0  0  0  2  0  0  0  0  0  0
  182.8570  175.7770  136.1260 N   0  0  0  0  0  2  0  0  0  0  0  0
  184.1110  176.1290  136.7780 C   0  0  0  0  0  2  0  0  0  0  0  0
  185.2660  175.6550  135.9620 C   0  0  0  0  0  0  0  0  0  0  0  0
  185.7750  174.3750  136.1570 O   0  0  0  0  0  1  0  0  0  0  0  0
  185.7680  176.4050  135.0850 O   0  0  0  0  0  0  0  0  0  0  0  0
  184.9690  178.6870  145.0110 C   0  0  0  0  0  2  0  0  0  0  0  0
  186.4220  178.7680  145.0190 N   0  0  0  0  0  2  0  0  0  0  0  0
  188.8410  177.4580  148.1850 N   0  0  0  0  0  0  0  0  0  0  0  0
  187.5620  177.8350  148.4370 C   0  0  0  0  0  3  0  0  0  0  0  0
  188.5520  177.8200  145.8250 C   0  0  0  0  0  0  0  0  0  0  0  0
  189.3740  177.4620  146.9310 C   0  0  0  0  0  0  0  0  0  0  0  0
  187.2400  178.2770  146.0880 C   0  0  0  0  0  0  0  0  0  0  0  0
  186.7460  178.2650  147.3970 C   0  0  0  0  0  3  0  0  0  0  0  0
  189.0590  177.7640  144.3990 C   0  0  2  0  0  3  0  0  0  0  0  0
  188.3770  177.1250  142.1100 C   0  0  0  0  0  1  0  0  0  0  0  0
  188.2830  176.7430  143.5730 C   0  0  1  0  0  3  0  0  0  0  0  0
  189.6550  176.4010  144.0880 C   0  0  0  0  0  2  0  0  0  0  0  0
  191.3580  175.9720  147.4470 N   0  0  0  0  0  2  0  0  0  0  0  0
  192.7540  175.5940  147.2990 C   0  0  0  0  0  1  0  0  0  0  0  0
  191.5430  177.8370  146.0650 O   0  0  0  0  0  0  0  0  0  0  0  0
  190.8100  177.1280  146.8060 C   0  0  0  0  0  0  0  0  0  0  0  0
  1  2  1  0  0  0  0
  2 33  1  1  0  0  0
  3  1  1  0  0  0  0
  4  2  1  0  0  0  0
  5  3  2  0  0  0  0
  5  4  1  0  0  0  0
  6  9  1  0  0  0  0
  7  6  1  0  0  0  0
  8  7  2  0  0  0  0
  9  5  1  0  0  0  0
 10  9  2  0  0  0  0
 11  7  1  0  0  0  0
 12 16  1  0  0  0  0
 12 11  1  0  0  0  0
 13 17  2  0  0  0  0
 14 13  1  0  0  0  0
 15 17  1  0  0  0  0
 16 15  1  0  0  0  0
 18 14  1  0  0  0  0
 18 16  1  0  0  0  0
 19 20  1  0  0  0  0
 19  3  1  0  0  0  0
 21 24  1  0  0  0  0
 22 20  1  0  0  0  0
 23 24  2  0  0  0  0
 24 22  1  0  0  0  0
 26 25  1  6  0  0  0
 26 21  1  0  0  0  0
 27 28  1  0  0  0  0
 27 26  1  0  0  0  0
 28 29  1  0  0  0  0
 30 31  1  0  0  0  0
 30 29  1  0  0  0  0
 32 30  2  0  0  0  0
 33 34  1  0  0  0  0
 34 39  1  0  0  0  0
 35 36  1  0  0  0  0
 37 39  2  0  0  0  0
 37 38  1  0  0  0  0
 38 35  2  0  0  0  0
 39 40  1  0  0  0  0
 40 36  2  0  0  0  0
 41 37  1  1  0  0  0
 43 42  1  6  0  0  0
 43 44  1  0  0  0  0
 43 41  1  0  0  0  0
 44 41  1  0  0  0  0
 46 45  1  0  0  0  0
 47 48  2  0  0  0  0
 48 38  1  0  0  0  0
 48 45  1  0  0  0  0
M  END
>  <MODEL>
7

>  <REMARK>
 VINA RESULT:      -7.1      3.380      7.274
  Name = 
  17 active torsions:
  status: ('A' for Active; 'I' for Inactive)
    1  A    between atoms: N_1  and  C_16
    2  A    between atoms: C_2  and  C_23
    3  A    between atoms: C_4  and  C_18
    4  A    between atoms: C_4  and  C_42
    5  A    between atoms: C_6  and  N_9
    6  A    between atoms: C_6  and  N_32
    7  A    between atoms: C_7  and  C_38
    8  A    between atoms: C_13  and  C_30
    9  A    between atoms: C_13  and  N_39
   10  A    between atoms: C_16  and  C_34
   11  A    between atoms: C_25  and  C_47
   12  A    between atoms: C_28  and  C_46
   13  A    between atoms: N_31  and  C_42
   14  A    between atoms: N_32  and  C_37
   15  A    between atoms: C_34  and  N_45
   16  A    between atoms: C_38  and  N_45
   17  A    between atoms: N_39  and  C_40
                            x       y       z     vdW  Elec       q    Type
                         _______ _______ _______ _____ _____    ______ ____

>  <TORSDO>
F 17

$$$$
=
 OpenBabel11042411183D

 48 51  0  0  1  0  0  0  0  0999 V2000
  184.0970  178.5200  140.5900 S   0  0  0  0  0  0  0  0  0  0  0  0
  182.4290  178.5250  141.3230 C   0  0  1  0  0  3  0  0  0  0  0  0
  184.7560  178.4080  142.2470 C   0  0  0  0  0  0  0  0  0  0  0  0
  182.5470  179.1100  142.7200 C   0  0  0  0  0  2  0  0  0  0  0  0
  183.9000  178.7350  143.2130 C   0  0  0  0  0  0  0  0  0  0  0  0
  185.5190  178.3580  145.0970 N   0  0  0  0  0  2  0  0  0  0  0  0
  185.9960  178.4350  146.4450 C   0  0  0  0  0  0  0  0  0  0  0  0
  185.3060  178.9900  147.3450 O   0  0  0  0  0  0  0  0  0  0  0  0
  184.2070  178.7370  144.6600 C   0  0  0  0  0  0  0  0  0  0  0  0
  183.3260  179.0510  145.5030 O   0  0  0  0  0  0  0  0  0  0  0  0
  187.3110  177.8360  146.8010 C   0  0  0  0  0  2  0  0  0  0  0  0
  188.1940  177.7150  145.5700 C   0  0  0  0  0  2  0  0  0  0  0  0
  192.0470  176.4050  146.6520 N   0  0  0  0  0  2  0  0  0  0  0  0
  191.1890  176.9910  147.6830 C   0  0  0  0  0  2  0  0  0  0  0  0
  190.4460  176.8340  144.9150 C   0  0  0  0  0  3  0  0  0  0  0  0
  189.4800  177.1370  145.9330 N   0  0  0  0  0  0  0  0  0  0  0  0
  191.6780  176.4570  145.2630 C   0  0  0  0  0  3  0  0  0  0  0  0
  189.7240  176.7460  147.3260 C   0  0  0  0  0  2  0  0  0  0  0  0
  186.0820  177.9310  142.5080 N   0  0  0  0  0  2  0  0  0  0  0  0
  187.2520  178.4310  141.8010 C   0  0  0  0  0  2  0  0  0  0  0  0
  189.1120  177.7110  139.6710 N   0  0  0  0  0  2  0  0  0  0  0  0
  188.3800  177.5420  142.0330 N   0  0  0  0  0  2  0  0  0  0  0  0
  190.1950  176.3460  141.2260 O   0  0  0  0  0  0  0  0  0  0  0  0
  189.2710  177.1650  140.9840 C   0  0  0  0  0  0  0  0  0  0  0  0
  191.2820  176.7830  139.0910 C   0  0  0  0  0  1  0  0  0  0  0  0
  189.9760  177.3450  138.5590 C   0  0  1  0  0  3  0  0  0  0  0  0
  189.2770  176.3040  137.7030 C   0  0  0  0  0  2  0  0  0  0  0  0
  188.4100  176.9560  136.7320 N   0  0  0  0  0  2  0  0  0  0  0  0
  187.0680  176.4240  136.9240 C   0  0  0  0  0  2  0  0  0  0  0  0
  186.1230  177.5220  137.2750 C   0  0  0  0  0  0  0  0  0  0  0  0
  184.7520  177.2850  137.2750 O   0  0  0  0  0  0  0  0  0  0  0  0
  186.5660  178.6570  137.5920 O   0  0  0  0  0  1  0  0  0  0  0  0
  181.4690  179.3500  140.4870 C   0  0  0  0  0  2  0  0  0  0  0  0
  180.2170  178.6260  140.3250 N   0  0  0  0  0  2  0  0  0  0  0  0
  180.0920  174.5000  139.5890 N   0  0  0  0  0  0  0  0  0  0  0  0
  179.4980  174.9940  140.7050 C   0  0  0  0  0  3  0  0  0  0  0  0
  180.6970  176.7080  138.8520 C   0  0  0  0  0  0  0  0  0  0  0  0
  180.7120  175.2950  138.6730 C   0  0  0  0  0  0  0  0  0  0  0  0
  180.1390  177.2240  140.0440 C   0  0  0  0  0  0  0  0  0  0  0  0
  179.5250  176.3600  140.9580 C   0  0  0  0  0  3  0  0  0  0  0  0
  181.2950  177.6510  137.8290 C   0  0  2  0  0  3  0  0  0  0  0  0
  180.8740  179.7960  136.6730 C   0  0  0  0  0  1  0  0  0  0  0  0
  180.2240  178.5290  137.1900 C   0  0  1  0  0  3  0  0  0  0  0  0
  180.7680  177.3450  136.4360 C   0  0  0  0  0  2  0  0  0  0  0  0
  182.8360  174.5110  137.5350 N   0  0  0  0  0  2  0  0  0  0  0  0
  183.5430  173.8120  136.4740 C   0  0  0  0  0  1  0  0  0  0  0  0
  180.7290  174.0790  136.6440 O   0  0  0  0  0  0  0  0  0  0  0  0
  181.4100  174.6220  137.5550 C   0  0  0  0  0  0  0  0  0  0  0  0
  1  2  1  0  0  0  0
  1  3  1  0  0  0  0
  2 33  1  6  0  0  0
  2  4  1  0  0  0  0
  3 19  1  0  0  0  0
  3  5  2  0  0  0  0
  4  5  1  0  0  0  0
  5  9  1  0  0  0  0
  6  7  1  0  0  0  0
  7 11  1  0  0  0  0
  7  8  2  0  0  0  0
  9  6  1  0  0  0  0
  9 10  2  0  0  0  0
 12 16  1  0  0  0  0
 12 11  1  0  0  0  0
 13 14  1  0  0  0  0
 15 17  2  0  0  0  0
 15 16  1  0  0  0  0
 16 18  1  0  0  0  0
 17 13  1  0  0  0  0
 18 14  1  0  0  0  0
 20 22  1  0  0  0  0
 20 19  1  0  0  0  0
 21 24  1  0  0  0  0
 24 23  2  0  0  0  0
 24 22  1  0  0  0  0
 26 25  1  1  0  0  0
 26 21  1  0  0  0  0
 27 26  1  0  0  0  0
 28 29  1  0  0  0  0
 28 27  1  0  0  0  0
 29 30  1  0  0  0  0
 30 32  1  0  0  0  0
 31 30  2  0  0  0  0
 34 33  1  0  0  0  0
 35 36  1  0  0  0  0
 36 40  2  0  0  0  0
 37 39  2  0  0  0  0
 38 37  1  0  0  0  0
 38 35  2  0  0  0  0
 39 34  1  0  0  0  0
 39 40  1  0  0  0  0
 41 37  1  1  0  0  0
 43 42  1  6  0  0  0
 43 41  1  0  0  0  0
 44 43  1  0  0  0  0
 44 41  1  0  0  0  0
 45 48  1  0  0  0  0
 46 45  1  0  0  0  0
 47 48  2  0  0  0  0
 48 38  1  0  0  0  0
M  END
>  <MODEL>
8

>  <REMARK>
 VINA RESULT:      -7.1      3.074     10.060
  Name = 
  17 active torsions:
  status: ('A' for Active; 'I' for Inactive)
    1  A    between atoms: N_1  and  C_16
    2  A    between atoms: C_2  and  C_23
    3  A    between atoms: C_4  and  C_18
    4  A    between atoms: C_4  and  C_42
    5  A    between atoms: C_6  and  N_9
    6  A    between atoms: C_6  and  N_32
    7  A    between atoms: C_7  and  C_38
    8  A    between atoms: C_13  and  C_30
    9  A    between atoms: C_13  and  N_39
   10  A    between atoms: C_16  and  C_34
   11  A    between atoms: C_25  and  C_47
   12  A    between atoms: C_28  and  C_46
   13  A    between atoms: N_31  and  C_42
   14  A    between atoms: N_32  and  C_37
   15  A    between atoms: C_34  and  N_45
   16  A    between atoms: C_38  and  N_45
   17  A    between atoms: N_39  and  C_40
                            x       y       z     vdW  Elec       q    Type
                         _______ _______ _______ _____ _____    ______ ____

>  <TORSDO>
F 17

$$$$
=
 OpenBabel11042411183D

 48 51  0  0  1  0  0  0  0  0999 V2000
  185.4250  178.3270  138.8560 S   0  0  0  0  0  0  0  0  0  0  0  0
  185.2230  179.0570  140.5130 C   0  0  1  0  0  3  0  0  0  0  0  0
  183.7210  177.7970  138.9510 C   0  0  0  0  0  0  0  0  0  0  0  0
  184.1440  178.2650  141.2310 C   0  0  0  0  0  2  0  0  0  0  0  0
  183.2020  177.7980  140.1780 C   0  0  0  0  0  0  0  0  0  0  0  0
  181.2560  176.2380  139.8820 N   0  0  0  0  0  2  0  0  0  0  0  0
  179.9890  175.6530  140.2060 C   0  0  0  0  0  0  0  0  0  0  0  0
  179.3270  176.0530  141.2030 O   0  0  0  0  0  0  0  0  0  0  0  0
  181.8230  177.3890  140.5200 C   0  0  0  0  0  0  0  0  0  0  0  0
  181.1440  178.0520  141.3490 O   0  0  0  0  0  0  0  0  0  0  0  0
  179.4300  174.5750  139.3450 C   0  0  0  0  0  2  0  0  0  0  0  0
  179.4920  174.9720  137.8800 C   0  0  0  0  0  2  0  0  0  0  0  0
  181.6260  172.0310  135.7530 N   0  0  0  0  0  2  0  0  0  0  0  0
  181.5120  171.9020  137.2070 C   0  0  0  0  0  2  0  0  0  0  0  0
  180.4940  174.1480  135.7370 C   0  0  0  0  0  3  0  0  0  0  0  0
  180.1120  173.9100  137.1010 N   0  0  0  0  0  0  0  0  0  0  0  0
  181.2040  173.2290  135.0790 C   0  0  0  0  0  3  0  0  0  0  0  0
  180.2190  172.5660  137.6770 C   0  0  0  0  0  2  0  0  0  0  0  0
  182.9590  177.4700  137.7820 N   0  0  0  0  0  2  0  0  0  0  0  0
  183.3960  176.4780  136.8110 C   0  0  0  0  0  2  0  0  0  0  0  0
  185.8400  174.8840  136.7300 N   0  0  0  0  0  2  0  0  0  0  0  0
  183.4860  175.1740  137.4510 N   0  0  0  0  0  2  0  0  0  0  0  0
  184.6740  173.2350  137.9040 O   0  0  0  0  0  0  0  0  0  0  0  0
  184.6700  174.3820  137.3840 C   0  0  0  0  0  0  0  0  0  0  0  0
  187.1390  173.4750  135.2340 C   0  0  0  0  0  1  0  0  0  0  0  0
  187.0670  174.1110  136.6120 C   0  0  1  0  0  3  0  0  0  0  0  0
  188.2580  175.0270  136.8200 C   0  0  0  0  0  2  0  0  0  0  0  0
  187.8090  176.3360  137.2740 N   0  0  0  0  0  2  0  0  0  0  0  0
  188.6900  177.3280  136.6730 C   0  0  0  0  0  2  0  0  0  0  0  0
  188.9700  178.4240  137.6440 C   0  0  0  0  0  0  0  0  0  0  0  0
  188.8150  179.7510  137.2570 O   0  0  0  0  0  0  0  0  0  0  0  0
  189.3270  178.1480  138.8190 O   0  0  0  0  0  1  0  0  0  0  0  0
  186.5220  179.0020  141.2950 C   0  0  0  0  0  2  0  0  0  0  0  0
  186.4090  178.0200  142.3630 N   0  0  0  0  0  2  0  0  0  0  0  0
  189.6240  176.4360  144.5400 N   0  0  0  0  0  0  0  0  0  0  0  0
  189.5830  176.2620  143.1940 C   0  0  0  0  0  3  0  0  0  0  0  0
  187.6120  177.7530  144.4990 C   0  0  0  0  0  0  0  0  0  0  0  0
  188.6710  177.1310  145.2200 C   0  0  0  0  0  0  0  0  0  0  0  0
  187.5260  177.5210  143.1070 C   0  0  0  0  0  0  0  0  0  0  0  0
  188.5270  176.7880  142.4580 C   0  0  0  0  0  3  0  0  0  0  0  0
  186.5680  178.6080  145.1860 C   0  0  2  0  0  3  0  0  0  0  0  0
  185.0440  178.6370  147.1330 C   0  0  0  0  0  1  0  0  0  0  0  0
  185.6360  177.7610  146.0470 C   0  0  1  0  0  3  0  0  0  0  0  0
  185.1720  178.2520  144.7020 C   0  0  0  0  0  2  0  0  0  0  0  0
  189.0780  178.3710  147.3920 N   0  0  0  0  0  2  0  0  0  0  0  0
  189.1400  178.4350  148.8440 C   0  0  0  0  0  1  0  0  0  0  0  0
  188.5300  176.1090  147.3490 O   0  0  0  0  0  0  0  0  0  0  0  0
  188.7780  177.1580  146.6960 C   0  0  0  0  0  0  0  0  0  0  0  0
  1  3  1  0  0  0  0
  1  2  1  0  0  0  0
  2  4  1  0  0  0  0
  2 33  1  1  0  0  0
  3  5  2  0  0  0  0
  5  9  1  0  0  0  0
  5  4  1  0  0  0  0
  6  7  1  0  0  0  0
  6  9  1  0  0  0  0
  7  8  2  0  0  0  0
  9 10  2  0  0  0  0
 11  7  1  0  0  0  0
 12 11  1  0  0  0  0
 13 14  1  0  0  0  0
 14 18  1  0  0  0  0
 15 16  1  0  0  0  0
 16 18  1  0  0  0  0
 16 12  1  0  0  0  0
 17 15  2  0  0  0  0
 17 13  1  0  0  0  0
 19  3  1  0  0  0  0
 20 22  1  0  0  0  0
 20 19  1  0  0  0  0
 21 24  1  0  0  0  0
 24 22  1  0  0  0  0
 24 23  2  0  0  0  0
 26 25  1  6  0  0  0
 26 21  1  0  0  0  0
 26 27  1  0  0  0  0
 27 28  1  0  0  0  0
 29 28  1  0  0  0  0
 29 30  1  0  0  0  0
 30 32  1  0  0  0  0
 31 30  2  0  0  0  0
 33 34  1  0  0  0  0
 34 39  1  0  0  0  0
 35 38  1  0  0  0  0
 36 35  2  0  0  0  0
 37 38  2  0  0  0  0
 38 48  1  0  0  0  0
 39 37  1  0  0  0  0
 40 39  2  0  0  0  0
 40 36  1  0  0  0  0
 41 37  1  6  0  0  0
 41 43  1  0  0  0  0
 43 42  1  1  0  0  0
 44 41  1  0  0  0  0
 44 43  1  0  0  0  0
 45 46  1  0  0  0  0
 48 47  2  0  0  0  0
 48 45  1  0  0  0  0
M  END
>  <MODEL>
9

>  <REMARK>
 VINA RESULT:      -6.9      3.861      5.798
  Name = 
  17 active torsions:
  status: ('A' for Active; 'I' for Inactive)
    1  A    between atoms: N_1  and  C_16
    2  A    between atoms: C_2  and  C_23
    3  A    between atoms: C_4  and  C_18
    4  A    between atoms: C_4  and  C_42
    5  A    between atoms: C_6  and  N_9
    6  A    between atoms: C_6  and  N_32
    7  A    between atoms: C_7  and  C_38
    8  A    between atoms: C_13  and  C_30
    9  A    between atoms: C_13  and  N_39
   10  A    between atoms: C_16  and  C_34
   11  A    between atoms: C_25  and  C_47
   12  A    between atoms: C_28  and  C_46
   13  A    between atoms: N_31  and  C_42
   14  A    between atoms: N_32  and  C_37
   15  A    between atoms: C_34  and  N_45
   16  A    between atoms: C_38  and  N_45
   17  A    between atoms: N_39  and  C_40
                            x       y       z     vdW  Elec       q    Type
                         _______ _______ _______ _____ _____    ______ ____

>  <TORSDO>
F 17

$$$$
