=
 OpenBabel11032420183D

 32 36  0  0  1  0  0  0  0  0999 V2000
  188.0210  176.6870  143.2210 C   0  0  0  0  0  0  0  0  0  0  0  0
  186.9150  176.6150  143.9130 C   0  0  0  0  0  3  0  0  0  0  0  0
  189.1210  176.7430  142.5210 C   0  0  0  0  0  0  0  0  0  0  0  0
  186.9090  177.3720  146.2290 C   0  0  0  0  0  3  0  0  0  0  0  0
  185.2800  179.5530  145.7360 C   0  0  0  0  0  3  0  0  0  0  0  0
  186.4680  177.5980  144.9230 C   0  0  0  0  0  0  0  0  0  0  0  0
  186.5280  178.2340  147.2580 C   0  0  0  0  0  3  0  0  0  0  0  0
  185.6360  178.7200  144.6690 C   0  0  0  0  0  0  0  0  0  0  0  0
  185.7260  179.2970  146.9940 N   0  0  0  0  0  0  0  0  0  0  0  0
  185.1360  179.0890  143.3060 C   0  0  0  0  0  2  0  0  0  0  0  0
  183.9080  178.2730  142.9220 C   0  0  0  0  0  3  0  0  0  0  0  0
  183.8580  178.0550  141.4220 C   0  0  0  0  0  1  0  0  0  0  0  0
  182.6620  179.0200  143.3490 C   0  0  0  0  0  1  0  0  0  0  0  0
  190.2190  175.7770  142.8100 C   0  0  0  0  0  2  0  0  0  0  0  0
  191.3450  176.4760  143.5460 C   0  0  0  0  0  2  0  0  0  0  0  0
  191.5890  175.8010  144.8070 N   0  0  0  0  0  2  0  0  0  0  0  0
  191.9020  176.2610  147.2080 C   0  0  0  0  0  2  0  0  0  0  0  0
  191.6390  176.8290  145.8310 C   0  0  2  0  0  0  0  0  0  0  0  0
  190.4810  176.5490  146.7790 C   0  0  2  0  0  3  0  0  0  0  0  0
  190.4150  177.7180  145.8230 C   0  0  0  0  0  2  0  0  0  0  0  0
  189.3930  177.9590  141.6980 C   0  0  0  0  0  2  0  0  0  0  0  0
  190.8630  176.4750  137.2740 C   0  0  0  0  0  0  0  0  0  0  0  0
  189.8260  177.2970  139.2980 C   0  0  0  0  0  0  0  0  0  0  0  0
  191.7260  176.6330  138.3430 C   0  0  0  0  0  0  0  0  0  0  0  0
  192.6390  175.6960  135.9240 N   0  0  0  0  0  0  0  0  0  0  0  0
  194.8220  175.5200  136.7910 F   0  0  0  0  0  0  0  0  0  0  0  0
  193.0760  176.3180  138.2090 C   0  0  0  0  0  3  0  0  0  0  0  0
  191.3150  176.0020  136.0480 C   0  0  0  0  0  3  0  0  0  0  0  0
  191.1550  177.0960  139.4820 N   0  0  0  0  0  0  0  0  0  0  0  0
  188.9480  177.7570  140.3270 N   0  0  0  0  0  2  0  0  0  0  0  0
  189.3110  176.9180  137.7300 S   0  0  0  0  0  0  0  0  0  0  0  0
  193.5180  175.8420  136.9630 C   0  0  0  0  0  0  0  0  0  0  0  0
  1  2  2  0  0  0  0
  2  6  1  0  0  0  0
  3 14  1  0  0  0  0
  3  1  2  0  0  0  0
  4  7  1  0  0  0  0
  5  9  1  0  0  0  0
  6  4  2  0  0  0  0
  8  6  1  0  0  0  0
  8  5  2  0  0  0  0
  9  7  2  0  0  0  0
 10  8  1  0  0  0  0
 11 10  1  0  0  0  0
 11 13  1  0  0  0  0
 12 11  1  0  0  0  0
 14 15  1  0  0  0  0
 15 16  1  0  0  0  0
 18 16  1  6  0  0  0
 18 19  1  0  0  0  0
 18 17  1  0  0  0  0
 19 20  1  1  0  0  0
 19 17  1  0  0  0  0
 20 18  1  0  0  0  0
 21  3  1  0  0  0  0
 22 31  1  0  0  0  0
 22 24  1  0  0  0  0
 23 29  2  0  0  0  0
 23 30  1  0  0  0  0
 24 29  1  0  0  0  0
 25 28  1  0  0  0  0
 25 32  2  0  0  0  0
 26 32  1  0  0  0  0
 27 24  2  0  0  0  0
 28 22  2  0  0  0  0
 30 21  1  0  0  0  0
 31 23  1  0  0  0  0
 32 27  1  0  0  0  0
M  END
>  <MODEL>
1

>  <REMARK>
 VINA RESULT:      -8.7      0.000      0.000
  Name = 
  9 active torsions:
  status: ('A' for Active; 'I' for Inactive)
    1  A    between atoms: C_3  and  N_25
    2  A    between atoms: C_9  and  C_20
    3  A    between atoms: C_10  and  C_13
    4  A    between atoms: C_10  and  C_23
    5  A    between atoms: C_21  and  C_24
    6  A    between atoms: C_21  and  C_27
    7  A    between atoms: C_24  and  C_31
    8  A    between atoms: N_25  and  C_27
    9  A    between atoms: N_26  and  C_31
                            x       y       z     vdW  Elec       q    Type
                         _______ _______ _______ _____ _____    ______ ____

>  <TORSDO>
F 9

$$$$
=
 OpenBabel11032420183D

 32 36  0  0  1  0  0  0  0  0999 V2000
  188.1630  176.6360  143.2290 C   0  0  0  0  0  0  0  0  0  0  0  0
  187.0170  176.5720  143.8520 C   0  0  0  0  0  3  0  0  0  0  0  0
  189.3030  176.6850  142.5960 C   0  0  0  0  0  0  0  0  0  0  0  0
  186.9090  177.3620  146.1560 C   0  0  0  0  0  3  0  0  0  0  0  0
  185.2600  179.5040  145.5680 C   0  0  0  0  0  3  0  0  0  0  0  0
  186.5140  177.5610  144.8300 C   0  0  0  0  0  0  0  0  0  0  0  0
  186.4740  178.2310  147.1560 C   0  0  0  0  0  3  0  0  0  0  0  0
  185.6720  178.6620  144.5280 C   0  0  0  0  0  0  0  0  0  0  0  0
  185.6620  179.2750  146.8450 N   0  0  0  0  0  0  0  0  0  0  0  0
  185.2170  179.0020  143.1410 C   0  0  0  0  0  2  0  0  0  0  0  0
  183.9630  178.2260  142.7600 C   0  0  0  0  0  3  0  0  0  0  0  0
  183.8650  178.0750  141.2540 C   0  0  0  0  0  1  0  0  0  0  0  0
  182.7440  178.9760  143.2560 C   0  0  0  0  0  1  0  0  0  0  0  0
  190.3780  175.7160  142.9540 C   0  0  0  0  0  2  0  0  0  0  0  0
  191.4650  176.4160  143.7460 C   0  0  0  0  0  2  0  0  0  0  0  0
  191.6530  175.7340  145.0140 N   0  0  0  0  0  2  0  0  0  0  0  0
  191.9820  176.1960  147.4120 C   0  0  0  0  0  2  0  0  0  0  0  0
  191.6740  176.7590  146.0420 C   0  0  2  0  0  0  0  0  0  0  0  0
  190.5440  176.4260  147.0060 C   0  0  2  0  0  3  0  0  0  0  0  0
  190.4140  177.5950  146.0580 C   0  0  0  0  0  2  0  0  0  0  0  0
  189.6300  177.8960  141.7860 C   0  0  0  0  0  2  0  0  0  0  0  0
  188.6730  177.1850  137.0410 C   0  0  0  0  0  0  0  0  0  0  0  0
  189.4770  177.4100  139.3110 C   0  0  0  0  0  0  0  0  0  0  0  0
  187.6910  177.4420  137.9800 C   0  0  0  0  0  0  0  0  0  0  0  0
  187.0560  177.1580  135.3190 N   0  0  0  0  0  0  0  0  0  0  0  0
  184.7800  177.5250  135.8000 F   0  0  0  0  0  0  0  0  0  0  0  0
  186.3600  177.5620  137.5880 C   0  0  0  0  0  3  0  0  0  0  0  0
  188.3630  177.0400  135.6950 C   0  0  0  0  0  3  0  0  0  0  0  0
  188.1310  177.5680  139.2560 N   0  0  0  0  0  0  0  0  0  0  0  0
  190.2340  177.5140  140.5180 N   0  0  0  0  0  2  0  0  0  0  0  0
  190.1690  177.1060  137.7960 S   0  0  0  0  0  0  0  0  0  0  0  0
  186.0610  177.4120  136.2240 C   0  0  0  0  0  0  0  0  0  0  0  0
  1  2  2  0  0  0  0
  2  6  1  0  0  0  0
  3 14  1  0  0  0  0
  3  1  2  0  0  0  0
  4  7  1  0  0  0  0
  5  9  1  0  0  0  0
  6  4  2  0  0  0  0
  8  6  1  0  0  0  0
  8  5  2  0  0  0  0
  9  7  2  0  0  0  0
 10  8  1  0  0  0  0
 11 10  1  0  0  0  0
 11 13  1  0  0  0  0
 12 11  1  0  0  0  0
 14 15  1  0  0  0  0
 15 16  1  0  0  0  0
 18 16  1  6  0  0  0
 18 20  1  0  0  0  0
 18 19  1  0  0  0  0
 18 17  1  0  0  0  0
 19 20  1  1  0  0  0
 19 17  1  0  0  0  0
 21  3  1  0  0  0  0
 22 31  1  0  0  0  0
 22 24  1  0  0  0  0
 23 30  1  0  0  0  0
 24 29  1  0  0  0  0
 25 28  1  0  0  0  0
 25 32  2  0  0  0  0
 26 32  1  0  0  0  0
 27 24  2  0  0  0  0
 28 22  2  0  0  0  0
 29 23  2  0  0  0  0
 30 21  1  0  0  0  0
 31 23  1  0  0  0  0
 32 27  1  0  0  0  0
M  END
>  <MODEL>
2

>  <REMARK>
 VINA RESULT:      -8.5      2.516      3.012
  Name = 
  9 active torsions:
  status: ('A' for Active; 'I' for Inactive)
    1  A    between atoms: C_3  and  N_25
    2  A    between atoms: C_9  and  C_20
    3  A    between atoms: C_10  and  C_13
    4  A    between atoms: C_10  and  C_23
    5  A    between atoms: C_21  and  C_24
    6  A    between atoms: C_21  and  C_27
    7  A    between atoms: C_24  and  C_31
    8  A    between atoms: N_25  and  C_27
    9  A    between atoms: N_26  and  C_31
                            x       y       z     vdW  Elec       q    Type
                         _______ _______ _______ _____ _____    ______ ____

>  <TORSDO>
F 9

$$$$
=
 OpenBabel11032420183D

 32 36  0  0  1  0  0  0  0  0999 V2000
  187.8110  177.0490  143.1830 C   0  0  0  0  0  0  0  0  0  0  0  0
  187.1840  176.6680  144.2640 C   0  0  0  0  0  3  0  0  0  0  0  0
  188.4300  177.4150  142.0950 C   0  0  0  0  0  0  0  0  0  0  0  0
  186.0410  178.2270  145.7490 C   0  0  0  0  0  3  0  0  0  0  0  0
  187.9910  178.1200  147.7090 C   0  0  0  0  0  3  0  0  0  0  0  0
  187.1530  177.4050  145.5450 C   0  0  0  0  0  0  0  0  0  0  0  0
  185.9270  178.9770  146.9190 C   0  0  0  0  0  3  0  0  0  0  0  0
  188.1500  177.3460  146.5540 C   0  0  0  0  0  0  0  0  0  0  0  0
  186.8970  178.9110  147.8680 N   0  0  0  0  0  0  0  0  0  0  0  0
  189.3640  176.4710  146.4690 C   0  0  0  0  0  2  0  0  0  0  0  0
  190.6440  177.2960  146.4220 C   0  0  0  0  0  3  0  0  0  0  0  0
  190.9720  177.6930  144.9950 C   0  0  0  0  0  1  0  0  0  0  0  0
  191.7870  176.4700  146.9750 C   0  0  0  0  0  1  0  0  0  0  0  0
  189.6420  176.6660  141.6580 C   0  0  0  0  0  2  0  0  0  0  0  0
  190.5940  177.5950  140.9320 C   0  0  0  0  0  2  0  0  0  0  0  0
  191.1460  176.9130  139.7760 N   0  0  0  0  0  2  0  0  0  0  0  0
  190.3090  175.5050  137.9340 C   0  0  0  0  0  2  0  0  0  0  0  0
  190.0410  176.6650  138.8680 C   0  0  2  0  0  0  0  0  0  0  0  0
  190.5700  176.9180  137.4640 C   0  0  2  0  0  3  0  0  0  0  0  0
  189.6220  177.9030  138.1070 C   0  0  0  0  0  2  0  0  0  0  0  0
  188.1280  178.7540  141.5060 C   0  0  0  0  0  2  0  0  0  0  0  0
  183.2730  178.7770  140.9050 C   0  0  0  0  0  0  0  0  0  0  0  0
  185.6890  178.6830  140.8500 C   0  0  0  0  0  0  0  0  0  0  0  0
  183.8810  178.7860  142.1470 C   0  0  0  0  0  0  0  0  0  0  0  0
  181.1420  178.9030  141.9180 N   0  0  0  0  0  0  0  0  0  0  0  0
  180.9280  178.9850  144.2630 F   0  0  0  0  0  0  0  0  0  0  0  0
  183.1100  178.8550  143.3050 C   0  0  0  0  0  3  0  0  0  0  0  0
  181.8910  178.8370  140.7790 C   0  0  0  0  0  3  0  0  0  0  0  0
  185.2350  178.7310  142.1270 N   0  0  0  0  0  0  0  0  0  0  0  0
  187.0750  178.6460  140.5070 N   0  0  0  0  0  2  0  0  0  0  0  0
  184.4420  178.7010  139.7040 S   0  0  0  0  0  0  0  0  0  0  0  0
  181.7140  178.9130  143.1630 C   0  0  0  0  0  0  0  0  0  0  0  0
  1  2  2  0  0  0  0
  2  6  1  0  0  0  0
  3  1  2  0  0  0  0
  4  7  1  0  0  0  0
  5  9  1  0  0  0  0
  6  4  2  0  0  0  0
  6  8  1  0  0  0  0
  7  9  2  0  0  0  0
  8  5  2  0  0  0  0
 10  8  1  0  0  0  0
 11 10  1  0  0  0  0
 11 13  1  0  0  0  0
 12 11  1  0  0  0  0
 14  3  1  0  0  0  0
 15 14  1  0  0  0  0
 16 15  1  0  0  0  0
 17 18  1  0  0  0  0
 18 16  1  1  0  0  0
 19 17  1  6  0  0  0
 19 20  1  0  0  0  0
 19 18  1  0  0  0  0
 20 18  1  0  0  0  0
 21  3  1  0  0  0  0
 22 24  1  0  0  0  0
 23 29  2  0  0  0  0
 24 27  2  0  0  0  0
 25 32  2  0  0  0  0
 28 22  2  0  0  0  0
 28 25  1  0  0  0  0
 29 24  1  0  0  0  0
 30 23  1  0  0  0  0
 30 21  1  0  0  0  0
 31 23  1  0  0  0  0
 31 22  1  0  0  0  0
 32 27  1  0  0  0  0
 32 26  1  0  0  0  0
M  END
>  <MODEL>
3

>  <REMARK>
 VINA RESULT:      -8.4      3.521      7.406
  Name = 
  9 active torsions:
  status: ('A' for Active; 'I' for Inactive)
    1  A    between atoms: C_3  and  N_25
    2  A    between atoms: C_9  and  C_20
    3  A    between atoms: C_10  and  C_13
    4  A    between atoms: C_10  and  C_23
    5  A    between atoms: C_21  and  C_24
    6  A    between atoms: C_21  and  C_27
    7  A    between atoms: C_24  and  C_31
    8  A    between atoms: N_25  and  C_27
    9  A    between atoms: N_26  and  C_31
                            x       y       z     vdW  Elec       q    Type
                         _______ _______ _______ _____ _____    ______ ____

>  <TORSDO>
F 9

$$$$
=
 OpenBabel11032420183D

 32 36  0  0  1  0  0  0  0  0999 V2000
  186.9510  177.8460  142.5370 C   0  0  0  0  0  0  0  0  0  0  0  0
  186.7870  177.1510  143.6310 C   0  0  0  0  0  3  0  0  0  0  0  0
  187.1170  178.5240  141.4350 C   0  0  0  0  0  0  0  0  0  0  0  0
  185.0860  178.1010  145.0950 C   0  0  0  0  0  3  0  0  0  0  0  0
  186.8050  178.4160  147.2400 C   0  0  0  0  0  3  0  0  0  0  0  0
  186.4180  177.7020  144.9520 C   0  0  0  0  0  0  0  0  0  0  0  0
  184.6430  178.6500  146.2990 C   0  0  0  0  0  3  0  0  0  0  0  0
  187.2980  177.8580  146.0540 C   0  0  0  0  0  0  0  0  0  0  0  0
  185.5050  178.7970  147.3390 N   0  0  0  0  0  0  0  0  0  0  0  0
  188.7330  177.4280  146.0370 C   0  0  0  0  0  2  0  0  0  0  0  0
  189.2140  177.0320  147.4270 C   0  0  0  0  0  3  0  0  0  0  0  0
  189.2160  178.2320  148.3540 C   0  0  0  0  0  1  0  0  0  0  0  0
  190.6240  176.4880  147.3280 C   0  0  0  0  0  1  0  0  0  0  0  0
  188.4910  178.6880  140.8800 C   0  0  0  0  0  2  0  0  0  0  0  0
  189.1330  177.3310  140.6710 C   0  0  0  0  0  2  0  0  0  0  0  0
  190.4710  177.3380  141.2330 N   0  0  0  0  0  2  0  0  0  0  0  0
  191.1860  178.2760  143.3980 C   0  0  0  0  0  2  0  0  0  0  0  0
  190.3200  177.2670  142.6750 C   0  0  2  0  0  0  0  0  0  0  0  0
  191.6760  176.8550  143.2310 C   0  0  2  0  0  3  0  0  0  0  0  0
  190.5300  175.8690  143.2150 C   0  0  0  0  0  2  0  0  0  0  0  0
  186.0060  179.3930  140.9450 C   0  0  0  0  0  2  0  0  0  0  0  0
  181.3480  177.9250  141.2530 C   0  0  0  0  0  0  0  0  0  0  0  0
  183.6740  178.4270  140.8170 C   0  0  0  0  0  0  0  0  0  0  0  0
  181.9850  178.6360  142.2540 C   0  0  0  0  0  0  0  0  0  0  0  0
  179.3320  177.9470  142.4850 N   0  0  0  0  0  0  0  0  0  0  0  0
  179.2180  179.0020  144.5870 F   0  0  0  0  0  0  0  0  0  0  0  0
  181.2870  179.0150  143.3990 C   0  0  0  0  0  3  0  0  0  0  0  0
  180.0090  177.5730  141.3600 C   0  0  0  0  0  3  0  0  0  0  0  0
  183.2890  178.9210  142.0210 N   0  0  0  0  0  0  0  0  0  0  0  0
  184.9870  178.5920  140.2810 N   0  0  0  0  0  2  0  0  0  0  0  0
  182.4260  177.6220  140.0040 S   0  0  0  0  0  0  0  0  0  0  0  0
  179.9340  178.6500  143.4930 C   0  0  0  0  0  0  0  0  0  0  0  0
  1  2  2  0  0  0  0
  2  6  1  0  0  0  0
  3  1  2  0  0  0  0
  4  7  1  0  0  0  0
  5  9  1  0  0  0  0
  6  4  2  0  0  0  0
  6  8  1  0  0  0  0
  7  9  2  0  0  0  0
  8  5  2  0  0  0  0
 10  8  1  0  0  0  0
 10 11  1  0  0  0  0
 11 12  1  0  0  0  0
 13 11  1  0  0  0  0
 14  3  1  0  0  0  0
 15 14  1  0  0  0  0
 15 16  1  0  0  0  0
 18 16  1  6  0  0  0
 18 20  1  0  0  0  0
 18 19  1  0  0  0  0
 18 17  1  0  0  0  0
 19 20  1  1  0  0  0
 19 17  1  0  0  0  0
 21  3  1  0  0  0  0
 22 28  2  0  0  0  0
 22 24  1  0  0  0  0
 23 29  2  0  0  0  0
 24 27  2  0  0  0  0
 25 32  2  0  0  0  0
 27 32  1  0  0  0  0
 28 25  1  0  0  0  0
 29 24  1  0  0  0  0
 30 23  1  0  0  0  0
 30 21  1  0  0  0  0
 31 23  1  0  0  0  0
 31 22  1  0  0  0  0
 32 26  1  0  0  0  0
M  END
>  <MODEL>
4

>  <REMARK>
 VINA RESULT:      -8.3      4.232      7.700
  Name = 
  9 active torsions:
  status: ('A' for Active; 'I' for Inactive)
    1  A    between atoms: C_3  and  N_25
    2  A    between atoms: C_9  and  C_20
    3  A    between atoms: C_10  and  C_13
    4  A    between atoms: C_10  and  C_23
    5  A    between atoms: C_21  and  C_24
    6  A    between atoms: C_21  and  C_27
    7  A    between atoms: C_24  and  C_31
    8  A    between atoms: N_25  and  C_27
    9  A    between atoms: N_26  and  C_31
                            x       y       z     vdW  Elec       q    Type
                         _______ _______ _______ _____ _____    ______ ____

>  <TORSDO>
F 9

$$$$
=
 OpenBabel11032420183D

 32 36  0  0  1  0  0  0  0  0999 V2000
  187.4960  177.6250  142.7220 C   0  0  0  0  0  0  0  0  0  0  0  0
  187.7660  176.8340  143.7260 C   0  0  0  0  0  3  0  0  0  0  0  0
  187.2250  178.3990  141.7070 C   0  0  0  0  0  0  0  0  0  0  0  0
  186.7640  177.5460  145.8310 C   0  0  0  0  0  3  0  0  0  0  0  0
  189.1880  177.8340  147.1330 C   0  0  0  0  0  3  0  0  0  0  0  0
  187.9400  177.2590  145.1320 C   0  0  0  0  0  0  0  0  0  0  0  0
  186.8230  177.9720  147.1590 C   0  0  0  0  0  3  0  0  0  0  0  0
  189.1830  177.4020  145.8010 C   0  0  0  0  0  0  0  0  0  0  0  0
  188.0240  178.1080  147.7770 N   0  0  0  0  0  0  0  0  0  0  0  0
  190.5050  177.0830  145.1720 C   0  0  0  0  0  2  0  0  0  0  0  0
  190.7430  177.9210  143.9220 C   0  0  0  0  0  3  0  0  0  0  0  0
  191.4100  177.0900  142.8410 C   0  0  0  0  0  1  0  0  0  0  0  0
  191.6460  179.0850  144.2700 C   0  0  0  0  0  1  0  0  0  0  0  0
  188.2770  178.6530  140.6830 C   0  0  0  0  0  2  0  0  0  0  0  0
  188.1180  177.6890  139.5240 C   0  0  0  0  0  2  0  0  0  0  0  0
  187.3810  178.3370  138.4550 N   0  0  0  0  0  2  0  0  0  0  0  0
  188.7360  177.9920  136.4240 C   0  0  0  0  0  2  0  0  0  0  0  0
  187.5670  177.5260  137.2650 C   0  0  2  0  0  0  0  0  0  0  0  0
  187.3370  178.4470  136.0750 C   0  0  2  0  0  3  0  0  0  0  0  0
  186.3050  177.4040  136.4390 C   0  0  0  0  0  2  0  0  0  0  0  0
  186.0140  179.2710  141.7660 C   0  0  0  0  0  2  0  0  0  0  0  0
  181.2280  178.3130  141.4200 C   0  0  0  0  0  0  0  0  0  0  0  0
  183.6200  178.6360  141.2620 C   0  0  0  0  0  0  0  0  0  0  0  0
  181.8410  178.6850  142.6020 C   0  0  0  0  0  0  0  0  0  0  0  0
  179.1250  178.2670  142.4950 N   0  0  0  0  0  0  0  0  0  0  0  0
  178.9320  178.7910  144.7830 F   0  0  0  0  0  0  0  0  0  0  0  0
  181.0870  178.8540  143.7610 C   0  0  0  0  0  3  0  0  0  0  0  0
  179.8570  178.1000  141.3550 C   0  0  0  0  0  3  0  0  0  0  0  0
  183.1830  178.8660  142.5250 N   0  0  0  0  0  0  0  0  0  0  0  0
  184.9840  178.7750  140.8630 N   0  0  0  0  0  2  0  0  0  0  0  0
  182.3760  178.1980  140.2010 S   0  0  0  0  0  0  0  0  0  0  0  0
  179.7020  178.6340  143.6810 C   0  0  0  0  0  0  0  0  0  0  0  0
  1  2  2  0  0  0  0
  2  6  1  0  0  0  0
  3 21  1  0  0  0  0
  3  1  2  0  0  0  0
  4  7  1  0  0  0  0
  5  9  1  0  0  0  0
  6  8  1  0  0  0  0
  6  4  2  0  0  0  0
  7  9  2  0  0  0  0
  8  5  2  0  0  0  0
 10  8  1  0  0  0  0
 11 13  1  0  0  0  0
 11 10  1  0  0  0  0
 12 11  1  0  0  0  0
 14  3  1  0  0  0  0
 15 14  1  0  0  0  0
 16 15  1  0  0  0  0
 17 18  1  0  0  0  0
 18 16  1  1  0  0  0
 19 17  1  6  0  0  0
 19 20  1  0  0  0  0
 19 18  1  0  0  0  0
 20 18  1  0  0  0  0
 22 24  1  0  0  0  0
 23 29  2  0  0  0  0
 24 27  2  0  0  0  0
 25 32  2  0  0  0  0
 28 22  2  0  0  0  0
 28 25  1  0  0  0  0
 29 24  1  0  0  0  0
 30 23  1  0  0  0  0
 30 21  1  0  0  0  0
 31 23  1  0  0  0  0
 31 22  1  0  0  0  0
 32 27  1  0  0  0  0
 32 26  1  0  0  0  0
M  END
>  <MODEL>
5

>  <REMARK>
 VINA RESULT:      -8.2      4.423      8.715
  Name = 
  9 active torsions:
  status: ('A' for Active; 'I' for Inactive)
    1  A    between atoms: C_3  and  N_25
    2  A    between atoms: C_9  and  C_20
    3  A    between atoms: C_10  and  C_13
    4  A    between atoms: C_10  and  C_23
    5  A    between atoms: C_21  and  C_24
    6  A    between atoms: C_21  and  C_27
    7  A    between atoms: C_24  and  C_31
    8  A    between atoms: N_25  and  C_27
    9  A    between atoms: N_26  and  C_31
                            x       y       z     vdW  Elec       q    Type
                         _______ _______ _______ _____ _____    ______ ____

>  <TORSDO>
F 9

$$$$
=
 OpenBabel11032420183D

 32 36  0  0  1  0  0  0  0  0999 V2000
  184.6400  178.5650  141.8170 C   0  0  0  0  0  0  0  0  0  0  0  0
  185.3680  178.4920  142.8990 C   0  0  0  0  0  3  0  0  0  0  0  0
  183.8990  178.6470  140.7460 C   0  0  0  0  0  0  0  0  0  0  0  0
  187.5360  178.1620  141.8370 C   0  0  0  0  0  3  0  0  0  0  0  0
  188.6280  176.8220  143.9970 C   0  0  0  0  0  3  0  0  0  0  0  0
  186.7470  177.9640  142.9740 C   0  0  0  0  0  0  0  0  0  0  0  0
  188.8470  177.6860  141.8010 C   0  0  0  0  0  3  0  0  0  0  0  0
  187.3090  177.2820  144.0830 C   0  0  0  0  0  0  0  0  0  0  0  0
  189.3630  177.0300  142.8730 N   0  0  0  0  0  0  0  0  0  0  0  0
  186.5780  177.0480  145.3700 C   0  0  0  0  0  2  0  0  0  0  0  0
  186.7060  178.2410  146.3090 C   0  0  0  0  0  3  0  0  0  0  0  0
  187.5590  177.8850  147.5120 C   0  0  0  0  0  1  0  0  0  0  0  0
  185.3280  178.6440  146.7900 C   0  0  0  0  0  1  0  0  0  0  0  0
  182.7270  177.7380  140.5990 C   0  0  0  0  0  2  0  0  0  0  0  0
  181.4410  178.5410  140.6160 C   0  0  0  0  0  2  0  0  0  0  0  0
  180.6540  178.1660  141.7770 N   0  0  0  0  0  2  0  0  0  0  0  0
  181.6510  178.7130  143.9640 C   0  0  0  0  0  2  0  0  0  0  0  0
  180.8570  179.2030  142.7730 C   0  0  2  0  0  0  0  0  0  0  0  0
  180.1410  178.7360  144.0330 C   0  0  2  0  0  3  0  0  0  0  0  0
  179.5620  179.8590  143.2030 C   0  0  0  0  0  2  0  0  0  0  0  0
  184.4220  179.3890  139.5600 C   0  0  0  0  0  2  0  0  0  0  0  0
  187.5120  176.7860  136.8000 C   0  0  0  0  0  0  0  0  0  0  0  0
  185.7330  177.9810  137.9210 C   0  0  0  0  0  0  0  0  0  0  0  0
  187.9310  177.6380  137.8050 C   0  0  0  0  0  0  0  0  0  0  0  0
  189.7460  176.1430  136.3790 N   0  0  0  0  0  0  0  0  0  0  0  0
  191.5180  177.0560  137.6350 F   0  0  0  0  0  0  0  0  0  0  0  0
  189.2850  177.7520  138.1110 C   0  0  0  0  0  3  0  0  0  0  0  0
  188.4210  176.0260  136.0750 C   0  0  0  0  0  3  0  0  0  0  0  0
  186.9410  178.3150  138.4390 N   0  0  0  0  0  0  0  0  0  0  0  0
  184.4960  178.5100  138.4010 N   0  0  0  0  0  2  0  0  0  0  0  0
  185.8400  176.8480  136.6670 S   0  0  0  0  0  0  0  0  0  0  0  0
  190.1920  176.9790  137.3680 C   0  0  0  0  0  0  0  0  0  0  0  0
  1  2  2  0  0  0  0
  2  6  1  0  0  0  0
  3  1  2  0  0  0  0
  4  6  1  0  0  0  0
  5  8  1  0  0  0  0
  6  8  2  0  0  0  0
  7  4  2  0  0  0  0
  7  9  1  0  0  0  0
  8 10  1  0  0  0  0
  9  5  2  0  0  0  0
 10 11  1  0  0  0  0
 11 13  1  0  0  0  0
 11 12  1  0  0  0  0
 14 15  1  0  0  0  0
 14  3  1  0  0  0  0
 15 16  1  0  0  0  0
 17 19  1  0  0  0  0
 18 16  1  6  0  0  0
 18 20  1  0  0  0  0
 18 17  1  0  0  0  0
 18 19  1  0  0  0  0
 19 20  1  1  0  0  0
 21  3  1  0  0  0  0
 22 24  1  0  0  0  0
 23 30  1  0  0  0  0
 23 29  2  0  0  0  0
 24 27  2  0  0  0  0
 24 29  1  0  0  0  0
 25 32  2  0  0  0  0
 28 25  1  0  0  0  0
 28 22  2  0  0  0  0
 30 21  1  0  0  0  0
 31 22  1  0  0  0  0
 31 23  1  0  0  0  0
 32 26  1  0  0  0  0
 32 27  1  0  0  0  0
M  END
>  <MODEL>
6

>  <REMARK>
 VINA RESULT:      -8.2      2.649      6.341
  Name = 
  9 active torsions:
  status: ('A' for Active; 'I' for Inactive)
    1  A    between atoms: C_3  and  N_25
    2  A    between atoms: C_9  and  C_20
    3  A    between atoms: C_10  and  C_13
    4  A    between atoms: C_10  and  C_23
    5  A    between atoms: C_21  and  C_24
    6  A    between atoms: C_21  and  C_27
    7  A    between atoms: C_24  and  C_31
    8  A    between atoms: N_25  and  C_27
    9  A    between atoms: N_26  and  C_31
                            x       y       z     vdW  Elec       q    Type
                         _______ _______ _______ _____ _____    ______ ____

>  <TORSDO>
F 9

$$$$
=
 OpenBabel11032420183D

 32 36  0  0  1  0  0  0  0  0999 V2000
  187.5100  177.5540  143.1010 C   0  0  0  0  0  0  0  0  0  0  0  0
  187.9700  176.8400  144.0940 C   0  0  0  0  0  3  0  0  0  0  0  0
  187.0520  178.2520  142.0990 C   0  0  0  0  0  0  0  0  0  0  0  0
  186.9290  177.6700  146.1350 C   0  0  0  0  0  3  0  0  0  0  0  0
  189.3150  177.8780  147.5200 C   0  0  0  0  0  3  0  0  0  0  0  0
  188.1140  177.3020  145.4910 C   0  0  0  0  0  0  0  0  0  0  0  0
  186.9600  178.1350  147.4500 C   0  0  0  0  0  3  0  0  0  0  0  0
  189.3370  177.4030  146.2040 C   0  0  0  0  0  0  0  0  0  0  0  0
  188.1430  178.2310  148.1110 N   0  0  0  0  0  0  0  0  0  0  0  0
  190.6630  176.9980  145.6360 C   0  0  0  0  0  2  0  0  0  0  0  0
  190.8690  177.5690  144.2390 C   0  0  0  0  0  3  0  0  0  0  0  0
  191.6680  176.6060  143.3810 C   0  0  0  0  0  1  0  0  0  0  0  0
  191.6270  178.8750  144.3430 C   0  0  0  0  0  1  0  0  0  0  0  0
  187.9920  178.7010  141.0330 C   0  0  0  0  0  2  0  0  0  0  0  0
  188.6810  177.5020  140.4100 C   0  0  0  0  0  2  0  0  0  0  0  0
  188.3750  177.4530  138.9920 N   0  0  0  0  0  2  0  0  0  0  0  0
  189.0560  179.0050  137.2020 C   0  0  0  0  0  2  0  0  0  0  0  0
  189.4970  178.0620  138.3000 C   0  0  2  0  0  0  0  0  0  0  0  0
  189.4270  177.5800  136.8580 C   0  0  2  0  0  3  0  0  0  0  0  0
  190.4890  177.0410  137.7880 C   0  0  0  0  0  2  0  0  0  0  0  0
  185.6970  178.8700  142.2070 C   0  0  0  0  0  2  0  0  0  0  0  0
  182.4140  178.2230  138.6380 C   0  0  0  0  0  0  0  0  0  0  0  0
  184.1860  178.7890  140.1830 C   0  0  0  0  0  0  0  0  0  0  0  0
  182.5440  177.3600  139.7100 C   0  0  0  0  0  0  0  0  0  0  0  0
  180.5970  176.9600  137.8100 N   0  0  0  0  0  0  0  0  0  0  0  0
  179.8450  175.0420  138.9530 F   0  0  0  0  0  0  0  0  0  0  0  0
  181.6870  176.2700  139.8430 C   0  0  0  0  0  3  0  0  0  0  0  0
  181.4330  178.0300  137.6730 C   0  0  0  0  0  3  0  0  0  0  0  0
  183.5370  177.6670  140.5820 N   0  0  0  0  0  0  0  0  0  0  0  0
  185.2630  179.3780  140.9130 N   0  0  0  0  0  2  0  0  0  0  0  0
  183.5660  179.4380  138.7470 S   0  0  0  0  0  0  0  0  0  0  0  0
  180.7020  176.0870  138.8590 C   0  0  0  0  0  0  0  0  0  0  0  0
  1  2  2  0  0  0  0
  2  6  1  0  0  0  0
  3 21  1  0  0  0  0
  3  1  2  0  0  0  0
  4  7  1  0  0  0  0
  5  9  1  0  0  0  0
  6  4  2  0  0  0  0
  6  8  1  0  0  0  0
  7  9  2  0  0  0  0
  8  5  2  0  0  0  0
 10  8  1  0  0  0  0
 11 13  1  0  0  0  0
 11 10  1  0  0  0  0
 12 11  1  0  0  0  0
 14  3  1  0  0  0  0
 15 14  1  0  0  0  0
 16 15  1  0  0  0  0
 17 18  1  0  0  0  0
 18 16  1  1  0  0  0
 19 17  1  6  0  0  0
 19 20  1  0  0  0  0
 19 18  1  0  0  0  0
 20 18  1  0  0  0  0
 22 31  1  0  0  0  0
 22 24  1  0  0  0  0
 23 29  2  0  0  0  0
 23 30  1  0  0  0  0
 24 27  2  0  0  0  0
 24 29  1  0  0  0  0
 25 32  2  0  0  0  0
 28 25  1  0  0  0  0
 28 22  2  0  0  0  0
 30 21  1  0  0  0  0
 31 23  1  0  0  0  0
 32 26  1  0  0  0  0
 32 27  1  0  0  0  0
M  END
>  <MODEL>
7

>  <REMARK>
 VINA RESULT:      -7.8      4.003      7.581
  Name = 
  9 active torsions:
  status: ('A' for Active; 'I' for Inactive)
    1  A    between atoms: C_3  and  N_25
    2  A    between atoms: C_9  and  C_20
    3  A    between atoms: C_10  and  C_13
    4  A    between atoms: C_10  and  C_23
    5  A    between atoms: C_21  and  C_24
    6  A    between atoms: C_21  and  C_27
    7  A    between atoms: C_24  and  C_31
    8  A    between atoms: N_25  and  C_27
    9  A    between atoms: N_26  and  C_31
                            x       y       z     vdW  Elec       q    Type
                         _______ _______ _______ _____ _____    ______ ____

>  <TORSDO>
F 9

$$$$
=
 OpenBabel11032420183D

 32 36  0  0  1  0  0  0  0  0999 V2000
  190.0320  178.2680  142.9320 C   0  0  0  0  0  0  0  0  0  0  0  0
  190.5210  178.5940  144.0990 C   0  0  0  0  0  3  0  0  0  0  0  0
  189.5510  177.9580  141.7600 C   0  0  0  0  0  0  0  0  0  0  0  0
  191.6800  176.9780  145.5090 C   0  0  0  0  0  3  0  0  0  0  0  0
  189.5980  176.7420  147.3150 C   0  0  0  0  0  3  0  0  0  0  0  0
  190.5220  177.7340  145.3020 C   0  0  0  0  0  0  0  0  0  0  0  0
  191.7730  176.1230  146.6070 C   0  0  0  0  0  3  0  0  0  0  0  0
  189.4570  177.6170  146.2320 C   0  0  0  0  0  0  0  0  0  0  0  0
  190.7380  176.0210  147.4800 N   0  0  0  0  0  0  0  0  0  0  0  0
  188.1860  178.4050  146.1400 C   0  0  0  0  0  2  0  0  0  0  0  0
  186.9860  177.5020  145.8890 C   0  0  0  0  0  3  0  0  0  0  0  0
  186.8920  177.1340  144.4200 C   0  0  0  0  0  1  0  0  0  0  0  0
  185.7220  178.2320  146.2910 C   0  0  0  0  0  1  0  0  0  0  0  0
  188.3060  178.6260  141.2830 C   0  0  0  0  0  2  0  0  0  0  0  0
  187.7860  177.9300  140.0410 C   0  0  0  0  0  2  0  0  0  0  0  0
  188.2570  178.6330  138.8620 N   0  0  0  0  0  2  0  0  0  0  0  0
  189.0770  177.9560  136.6380 C   0  0  0  0  0  2  0  0  0  0  0  0
  188.0560  177.7410  137.7340 C   0  0  2  0  0  0  0  0  0  0  0  0
  187.7250  178.6250  136.5400 C   0  0  2  0  0  3  0  0  0  0  0  0
  186.6440  177.7950  137.1930 C   0  0  0  0  0  2  0  0  0  0  0  0
  190.0440  176.7240  141.0780 C   0  0  0  0  0  2  0  0  0  0  0  0
  192.3230  175.5280  136.9180 C   0  0  0  0  0  0  0  0  0  0  0  0
  191.4830  176.3300  139.0390 C   0  0  0  0  0  0  0  0  0  0  0  0
  191.2270  174.8400  137.4040 C   0  0  0  0  0  0  0  0  0  0  0  0
  192.3720  174.1470  135.0010 N   0  0  0  0  0  0  0  0  0  0  0  0
  190.7900  172.4250  134.7180 F   0  0  0  0  0  0  0  0  0  0  0  0
  190.6850  173.7800  136.6790 C   0  0  0  0  0  3  0  0  0  0  0  0
  192.9080  175.1860  135.7050 C   0  0  0  0  0  3  0  0  0  0  0  0
  190.7500  175.2800  138.5940 N   0  0  0  0  0  0  0  0  0  0  0  0
  191.2060  177.0260  140.2550 N   0  0  0  0  0  2  0  0  0  0  0  0
  192.7440  176.7480  137.9890 S   0  0  0  0  0  0  0  0  0  0  0  0
  191.2880  173.4450  135.4560 C   0  0  0  0  0  0  0  0  0  0  0  0
  1  2  2  0  0  0  0
  2  6  1  0  0  0  0
  3  1  2  0  0  0  0
  4  7  1  0  0  0  0
  5  9  1  0  0  0  0
  6  4  2  0  0  0  0
  6  8  1  0  0  0  0
  7  9  2  0  0  0  0
  8  5  2  0  0  0  0
 10  8  1  0  0  0  0
 11 10  1  0  0  0  0
 11 13  1  0  0  0  0
 12 11  1  0  0  0  0
 14  3  1  0  0  0  0
 15 14  1  0  0  0  0
 16 15  1  0  0  0  0
 17 18  1  0  0  0  0
 18 16  1  1  0  0  0
 19 17  1  6  0  0  0
 19 20  1  0  0  0  0
 19 18  1  0  0  0  0
 20 18  1  0  0  0  0
 21  3  1  0  0  0  0
 22 24  1  0  0  0  0
 22 31  1  0  0  0  0
 23 30  1  0  0  0  0
 24 29  1  0  0  0  0
 25 32  2  0  0  0  0
 25 28  1  0  0  0  0
 26 32  1  0  0  0  0
 27 24  2  0  0  0  0
 28 22  2  0  0  0  0
 29 23  2  0  0  0  0
 30 21  1  0  0  0  0
 31 23  1  0  0  0  0
 32 27  1  0  0  0  0
M  END
>  <MODEL>
8

>  <REMARK>
 VINA RESULT:      -7.8      2.415      5.180
  Name = 
  9 active torsions:
  status: ('A' for Active; 'I' for Inactive)
    1  A    between atoms: C_3  and  N_25
    2  A    between atoms: C_9  and  C_20
    3  A    between atoms: C_10  and  C_13
    4  A    between atoms: C_10  and  C_23
    5  A    between atoms: C_21  and  C_24
    6  A    between atoms: C_21  and  C_27
    7  A    between atoms: C_24  and  C_31
    8  A    between atoms: N_25  and  C_27
    9  A    between atoms: N_26  and  C_31
                            x       y       z     vdW  Elec       q    Type
                         _______ _______ _______ _____ _____    ______ ____

>  <TORSDO>
F 9

$$$$
=
 OpenBabel11032420183D

 32 36  0  0  1  0  0  0  0  0999 V2000
  188.9150  176.9070  142.8570 C   0  0  0  0  0  0  0  0  0  0  0  0
  187.8470  176.7720  143.5980 C   0  0  0  0  0  3  0  0  0  0  0  0
  189.9880  177.0250  142.1240 C   0  0  0  0  0  0  0  0  0  0  0  0
  186.3540  178.2730  142.3900 C   0  0  0  0  0  3  0  0  0  0  0  0
  184.8720  178.9420  144.6280 C   0  0  0  0  0  3  0  0  0  0  0  0
  186.6930  177.6950  143.6170 C   0  0  0  0  0  0  0  0  0  0  0  0
  185.2900  179.1710  142.3070 C   0  0  0  0  0  3  0  0  0  0  0  0
  185.9290  178.0340  144.7640 C   0  0  0  0  0  0  0  0  0  0  0  0
  184.5770  179.4870  143.4190 N   0  0  0  0  0  0  0  0  0  0  0  0
  186.1670  177.4490  146.1220 C   0  0  0  0  0  2  0  0  0  0  0  0
  187.0320  178.3640  146.9800 C   0  0  0  0  0  3  0  0  0  0  0  0
  187.6770  177.5850  148.1100 C   0  0  0  0  0  1  0  0  0  0  0  0
  186.1640  179.4550  147.5720 C   0  0  0  0  0  1  0  0  0  0  0  0
  191.2800  177.3840  142.7750 C   0  0  0  0  0  2  0  0  0  0  0  0
  191.0210  178.1550  144.0540 C   0  0  0  0  0  2  0  0  0  0  0  0
  191.9000  177.6630  145.1000 N   0  0  0  0  0  2  0  0  0  0  0  0
  190.7720  176.8420  147.1320 C   0  0  0  0  0  2  0  0  0  0  0  0
  191.2240  176.5380  145.7210 C   0  0  2  0  0  0  0  0  0  0  0  0
  192.0810  176.1210  146.9070 C   0  0  2  0  0  3  0  0  0  0  0  0
  192.0390  175.2640  145.6630 C   0  0  0  0  0  2  0  0  0  0  0  0
  189.8430  177.1370  140.6420 C   0  0  0  0  0  2  0  0  0  0  0  0
  192.6040  175.2040  137.0960 C   0  0  0  0  0  0  0  0  0  0  0  0
  191.5350  176.3470  138.9400 C   0  0  0  0  0  0  0  0  0  0  0  0
  191.3700  174.6950  137.4550 C   0  0  0  0  0  0  0  0  0  0  0  0
  192.7970  173.5940  135.3780 N   0  0  0  0  0  0  0  0  0  0  0  0
  191.0870  172.0150  135.0110 F   0  0  0  0  0  0  0  0  0  0  0  0
  190.8300  173.6110  136.7660 C   0  0  0  0  0  3  0  0  0  0  0  0
  193.3330  174.6550  136.0480 C   0  0  0  0  0  3  0  0  0  0  0  0
  190.7630  175.3270  138.4890 N   0  0  0  0  0  0  0  0  0  0  0  0
  191.1500  177.2160  140.0060 N   0  0  0  0  0  2  0  0  0  0  0  0
  192.9890  176.5020  138.0860 S   0  0  0  0  0  0  0  0  0  0  0  0
  191.5780  173.0660  135.7100 C   0  0  0  0  0  0  0  0  0  0  0  0
  1  2  2  0  0  0  0
  2  6  1  0  0  0  0
  3 14  1  0  0  0  0
  3  1  2  0  0  0  0
  4  6  1  0  0  0  0
  5  8  1  0  0  0  0
  6  8  2  0  0  0  0
  7  4  2  0  0  0  0
  7  9  1  0  0  0  0
  8 10  1  0  0  0  0
  9  5  2  0  0  0  0
 10 11  1  0  0  0  0
 11 13  1  0  0  0  0
 11 12  1  0  0  0  0
 14 15  1  0  0  0  0
 15 16  1  0  0  0  0
 18 16  1  6  0  0  0
 18 19  1  0  0  0  0
 18 17  1  0  0  0  0
 19 20  1  1  0  0  0
 19 17  1  0  0  0  0
 20 18  1  0  0  0  0
 21  3  1  0  0  0  0
 22 24  1  0  0  0  0
 22 31  1  0  0  0  0
 23 30  1  0  0  0  0
 24 29  1  0  0  0  0
 25 32  2  0  0  0  0
 25 28  1  0  0  0  0
 26 32  1  0  0  0  0
 27 24  2  0  0  0  0
 28 22  2  0  0  0  0
 29 23  2  0  0  0  0
 30 21  1  0  0  0  0
 31 23  1  0  0  0  0
 32 27  1  0  0  0  0
M  END
>  <MODEL>
9

>  <REMARK>
 VINA RESULT:      -7.8      1.902      3.171
  Name = 
  9 active torsions:
  status: ('A' for Active; 'I' for Inactive)
    1  A    between atoms: C_3  and  N_25
    2  A    between atoms: C_9  and  C_20
    3  A    between atoms: C_10  and  C_13
    4  A    between atoms: C_10  and  C_23
    5  A    between atoms: C_21  and  C_24
    6  A    between atoms: C_21  and  C_27
    7  A    between atoms: C_24  and  C_31
    8  A    between atoms: N_25  and  C_27
    9  A    between atoms: N_26  and  C_31
                            x       y       z     vdW  Elec       q    Type
                         _______ _______ _______ _____ _____    ______ ____

>  <TORSDO>
F 9

$$$$
