=
 OpenBabel11042412273D

 26 29  0  0  1  0  0  0  0  0999 V2000
  182.0870  177.8030  140.1450 C   0  0  1  0  0  0  0  0  0  0  0  0
  179.9340  176.7450  140.5490 C   0  0  0  0  0  0  0  0  0  0  0  0
  178.9310  174.9240  141.6670 O   0  0  0  0  0  1  0  0  0  0  0  0
  183.4970  177.5310  140.5330 C   0  0  1  0  0  3  0  0  0  0  0  0
  179.4760  177.8380  142.6030 O   0  0  0  0  0  1  0  0  0  0  0  0
  179.4240  177.9960  141.2170 C   0  0  1  0  0  3  0  0  0  0  0  0
  183.1160  177.7550  139.1880 O   0  0  0  0  0  0  0  0  0  0  0  0
  179.2160  175.4490  140.4060 C   0  0  2  0  0  3  0  0  0  0  0  0
  180.1940  179.2500  140.8160 C   0  0  0  0  0  0  0  0  0  0  0  0
  180.2730  174.6110  139.7440 C   0  0  0  0  0  3  0  0  0  0  0  0
  181.3920  175.3060  139.5640 C   0  0  0  0  0  3  0  0  0  0  0  0
  181.1580  176.6410  140.0830 C   0  0  0  0  0  0  0  0  0  0  0  0
  181.4350  179.1640  140.2610 C   0  0  0  0  0  0  0  0  0  0  0  0
  179.6820  181.0730  142.4200 O   0  0  0  0  0  1  0  0  0  0  0  0
  178.9540  181.2130  140.2600 O   0  0  0  0  0  0  0  0  0  0  0  0
  179.5580  180.5450  141.1410 C   0  0  0  0  0  0  0  0  0  0  0  0
  181.9320  180.7400  138.4280 C   0  0  0  0  0  1  0  0  0  0  0  0
  182.1170  180.2790  139.7590 O   0  0  0  0  0  0  0  0  0  0  0  0
  184.2370  178.7480  141.0800 C   0  0  2  0  0  3  0  0  0  0  0  0
  185.6020  178.8680  140.4250 C   0  0  0  0  0  1  0  0  0  0  0  0
  184.3680  178.6810  142.5720 C   0  0  0  0  0  0  0  0  0  0  0  0
  184.6720  178.5690  145.3550 C   0  0  0  0  0  3  0  0  0  0  0  0
  183.4530  178.9700  144.8020 C   0  0  0  0  0  3  0  0  0  0  0  0
  185.5860  178.2800  143.1310 C   0  0  0  0  0  3  0  0  0  0  0  0
  183.2990  179.0260  143.4140 C   0  0  0  0  0  3  0  0  0  0  0  0
  185.7390  178.2240  144.5200 C   0  0  0  0  0  3  0  0  0  0  0  0
  1  7  1  6  0  0  0
  1 13  1  0  0  0  0
  1  4  1  0  0  0  0
  2  6  1  0  0  0  0
  4 19  1  1  0  0  0
  6  5  1  1  0  0  0
  7  4  1  0  0  0  0
  8  2  1  0  0  0  0
  8  3  1  1  0  0  0
  9 16  1  0  0  0  0
  9  6  1  0  0  0  0
 10  8  1  0  0  0  0
 11 10  2  0  0  0  0
 11 12  1  0  0  0  0
 12  1  1  0  0  0  0
 12  2  2  0  0  0  0
 13  9  2  0  0  0  0
 15 16  2  0  0  0  0
 16 14  1  0  0  0  0
 17 18  1  0  0  0  0
 18 13  1  0  0  0  0
 19 20  1  6  0  0  0
 19 21  1  0  0  0  0
 21 24  2  0  0  0  0
 21 25  1  0  0  0  0
 23 22  1  0  0  0  0
 24 26  1  0  0  0  0
 25 23  2  0  0  0  0
 26 22  2  0  0  0  0
M  END
>  <MODEL>
1

>  <REMARK>
 VINA RESULT:      -6.9      0.000      0.000
  Name = 
  4 active torsions:
  status: ('A' for Active; 'I' for Inactive)
    1  A    between atoms: C_3  and  C_7
    2  A    between atoms: C_6  and  C_7
    3  A    between atoms: O_8  and  C_25
    4  A    between atoms: C_18  and  C_26
                            x       y       z     vdW  Elec       q    Type
                         _______ _______ _______ _____ _____    ______ ____

>  <TORSDO>
F 4

$$$$
=
 OpenBabel11042412273D

 26 29  0  0  1  0  0  0  0  0999 V2000
  180.1260  179.3320  140.7570 C   0  0  1  0  0  0  0  0  0  0  0  0
  180.7010  180.5360  138.7230 C   0  0  0  0  0  0  0  0  0  0  0  0
  181.6600  182.5510  137.9550 O   0  0  0  0  0  1  0  0  0  0  0  0
  180.2320  179.5970  142.2170 C   0  0  1  0  0  3  0  0  0  0  0  0
  182.9500  179.7960  138.5950 O   0  0  0  0  0  1  0  0  0  0  0  0
  181.6340  179.4280  138.3080 C   0  0  1  0  0  3  0  0  0  0  0  0
  179.0200  179.1840  141.6110 O   0  0  0  0  0  0  0  0  0  0  0  0
  180.4700  181.8260  138.0160 C   0  0  2  0  0  3  0  0  0  0  0  0
  181.3190  178.0930  138.9760 C   0  0  0  0  0  0  0  0  0  0  0  0
  179.5200  182.5020  138.9620 C   0  0  0  0  0  3  0  0  0  0  0  0
  179.2740  181.7370  140.0220 C   0  0  0  0  0  3  0  0  0  0  0  0
  180.0310  180.5110  139.8530 C   0  0  0  0  0  0  0  0  0  0  0  0
  180.5630  178.0360  140.1080 C   0  0  0  0  0  0  0  0  0  0  0  0
  182.9890  176.2590  139.0420 O   0  0  0  0  0  1  0  0  0  0  0  0
  181.5130  176.3990  137.3050 O   0  0  0  0  0  0  0  0  0  0  0  0
  181.9470  176.8940  138.3790 C   0  0  0  0  0  0  0  0  0  0  0  0
  179.0030  176.1260  140.1970 C   0  0  0  0  0  1  0  0  0  0  0  0
  180.1430  176.8270  140.6750 O   0  0  0  0  0  0  0  0  0  0  0  0
  180.8390  178.4470  143.0150 C   0  0  2  0  0  3  0  0  0  0  0  0
  180.0490  178.2220  144.2920 C   0  0  0  0  0  1  0  0  0  0  0  0
  182.2840  178.7000  143.3220 C   0  0  0  0  0  0  0  0  0  0  0  0
  184.9780  179.1460  143.9500 C   0  0  0  0  0  3  0  0  0  0  0  0
  184.5940  178.9580  142.6190 C   0  0  0  0  0  3  0  0  0  0  0  0
  182.6740  178.8890  144.6520 C   0  0  0  0  0  3  0  0  0  0  0  0
  183.2510  178.7360  142.3040 C   0  0  0  0  0  3  0  0  0  0  0  0
  184.0190  179.1120  144.9660 C   0  0  0  0  0  3  0  0  0  0  0  0
  1 12  1  6  0  0  0
  1  7  1  0  0  0  0
  1  4  1  0  0  0  0
  2 12  2  0  0  0  0
  4 19  1  1  0  0  0
  6  5  1  1  0  0  0
  6  2  1  0  0  0  0
  6  9  1  0  0  0  0
  7  4  1  0  0  0  0
  8  3  1  1  0  0  0
  8  2  1  0  0  0  0
  8 10  1  0  0  0  0
  9 13  2  0  0  0  0
 10 11  2  0  0  0  0
 12 11  1  0  0  0  0
 13 18  1  0  0  0  0
 13  1  1  0  0  0  0
 15 16  2  0  0  0  0
 16  9  1  0  0  0  0
 16 14  1  0  0  0  0
 17 18  1  0  0  0  0
 19 21  1  0  0  0  0
 19 20  1  1  0  0  0
 21 24  1  0  0  0  0
 22 26  1  0  0  0  0
 23 22  2  0  0  0  0
 24 26  2  0  0  0  0
 25 23  1  0  0  0  0
 25 21  2  0  0  0  0
M  END
>  <MODEL>
2

>  <REMARK>
 VINA RESULT:      -5.9      1.760      4.913
  Name = 
  4 active torsions:
  status: ('A' for Active; 'I' for Inactive)
    1  A    between atoms: C_3  and  C_7
    2  A    between atoms: C_6  and  C_7
    3  A    between atoms: O_8  and  C_25
    4  A    between atoms: C_18  and  C_26
                            x       y       z     vdW  Elec       q    Type
                         _______ _______ _______ _____ _____    ______ ____

>  <TORSDO>
F 4

$$$$
=
 OpenBabel11042412273D

 26 29  0  0  1  0  0  0  0  0999 V2000
  190.0640  176.8360  138.4760 C   0  0  1  0  0  0  0  0  0  0  0  0
  191.1720  175.2350  137.0180 C   0  0  0  0  0  0  0  0  0  0  0  0
  192.8780  173.6040  136.9910 O   0  0  0  0  0  1  0  0  0  0  0  0
  190.2060  177.2590  139.8960 C   0  0  1  0  0  3  0  0  0  0  0  0
  189.8400  173.3640  137.6060 O   0  0  0  0  0  1  0  0  0  0  0  0
  189.8730  174.5040  136.8020 C   0  0  1  0  0  3  0  0  0  0  0  0
  190.1850  178.1910  138.8300 O   0  0  0  0  0  0  0  0  0  0  0  0
  192.5130  174.8550  136.4930 C   0  0  2  0  0  3  0  0  0  0  0  0
  188.6440  175.3640  137.0830 C   0  0  0  0  0  0  0  0  0  0  0  0
  193.3740  175.9130  137.1210 C   0  0  0  0  0  3  0  0  0  0  0  0
  192.6500  176.7330  137.8780 C   0  0  0  0  0  3  0  0  0  0  0  0
  191.2720  176.2830  137.8030 C   0  0  0  0  0  0  0  0  0  0  0  0
  188.7370  176.4970  137.8330 C   0  0  0  0  0  0  0  0  0  0  0  0
  187.0110  175.0500  135.2410 O   0  0  0  0  0  0  0  0  0  0  0  0
  186.5790  174.1860  137.3100 O   0  0  0  0  0  1  0  0  0  0  0  0
  187.3520  174.8530  136.5720 C   0  0  0  0  0  0  0  0  0  0  0  0
  187.2580  178.2800  136.9810 C   0  0  0  0  0  1  0  0  0  0  0  0
  187.6640  177.3800  138.0040 O   0  0  0  0  0  0  0  0  0  0  0  0
  188.8890  177.3090  140.6640 C   0  0  2  0  0  3  0  0  0  0  0  0
  188.2020  178.6440  140.4390 C   0  0  0  0  0  1  0  0  0  0  0  0
  189.1020  177.0600  142.1270 C   0  0  0  0  0  0  0  0  0  0  0  0
  189.5610  176.6150  144.8550 C   0  0  0  0  0  3  0  0  0  0  0  0
  188.2890  176.9890  144.4140 C   0  0  0  0  0  3  0  0  0  0  0  0
  190.3740  176.6850  142.5740 C   0  0  0  0  0  3  0  0  0  0  0  0
  188.0580  177.2110  143.0530 C   0  0  0  0  0  3  0  0  0  0  0  0
  190.6030  176.4630  143.9360 C   0  0  0  0  0  3  0  0  0  0  0  0
  1 12  1  6  0  0  0
  1  7  1  0  0  0  0
  1  4  1  0  0  0  0
  2 12  2  0  0  0  0
  4 19  1  1  0  0  0
  6  2  1  0  0  0  0
  6  9  1  0  0  0  0
  6  5  1  1  0  0  0
  7  4  1  0  0  0  0
  8  3  1  1  0  0  0
  8  2  1  0  0  0  0
  8 10  1  0  0  0  0
  9 13  2  0  0  0  0
 10 11  2  0  0  0  0
 12 11  1  0  0  0  0
 13 18  1  0  0  0  0
 13  1  1  0  0  0  0
 14 16  2  0  0  0  0
 16  9  1  0  0  0  0
 16 15  1  0  0  0  0
 17 18  1  0  0  0  0
 19 20  1  1  0  0  0
 19 21  1  0  0  0  0
 21 24  2  0  0  0  0
 21 25  1  0  0  0  0
 23 22  1  0  0  0  0
 24 26  1  0  0  0  0
 25 23  2  0  0  0  0
 26 22  2  0  0  0  0
M  END
>  <MODEL>
3

>  <REMARK>
 VINA RESULT:      -5.4      6.838      9.272
  Name = 
  4 active torsions:
  status: ('A' for Active; 'I' for Inactive)
    1  A    between atoms: C_3  and  C_7
    2  A    between atoms: C_6  and  C_7
    3  A    between atoms: O_8  and  C_25
    4  A    between atoms: C_18  and  C_26
                            x       y       z     vdW  Elec       q    Type
                         _______ _______ _______ _____ _____    ______ ____

>  <TORSDO>
F 4

$$$$
=
 OpenBabel11042412273D

 26 29  0  0  1  0  0  0  0  0999 V2000
  182.0270  178.6860  137.9330 C   0  0  1  0  0  0  0  0  0  0  0  0
  184.0010  177.4080  137.3150 C   0  0  0  0  0  0  0  0  0  0  0  0
  185.5560  177.1050  135.5650 O   0  0  0  0  0  1  0  0  0  0  0  0
  181.1810  179.7220  137.2800 C   0  0  1  0  0  3  0  0  0  0  0  0
  185.5970  179.0150  138.0170 O   0  0  0  0  0  1  0  0  0  0  0  0
  184.7650  177.9910  138.4750 C   0  0  1  0  0  3  0  0  0  0  0  0
  180.6290  178.5560  137.8650 O   0  0  0  0  0  0  0  0  0  0  0  0
  184.5240  176.4850  136.2700 C   0  0  2  0  0  3  0  0  0  0  0  0
  183.8630  178.5220  139.5850 C   0  0  0  0  0  0  0  0  0  0  0  0
  183.3210  176.3520  135.3810 C   0  0  0  0  0  3  0  0  0  0  0  0
  182.3070  177.0830  135.8340 C   0  0  0  0  0  3  0  0  0  0  0  0
  182.7600  177.7420  137.0450 C   0  0  0  0  0  0  0  0  0  0  0  0
  182.5520  178.8060  139.3470 C   0  0  0  0  0  0  0  0  0  0  0  0
  184.2930  177.9250  141.9550 O   0  0  0  0  0  1  0  0  0  0  0  0
  185.3070  179.7530  141.0340 O   0  0  0  0  0  0  0  0  0  0  0  0
  184.5100  178.7880  140.8880 C   0  0  0  0  0  0  0  0  0  0  0  0
  180.9080  178.2030  141.0860 C   0  0  0  0  0  1  0  0  0  0  0  0
  181.6620  179.1680  140.3660 O   0  0  0  0  0  0  0  0  0  0  0  0
  180.8960  180.9370  138.1590 C   0  0  2  0  0  3  0  0  0  0  0  0
  179.5240  180.8100  138.7970 C   0  0  0  0  0  1  0  0  0  0  0  0
  181.0030  182.2110  137.3770 C   0  0  0  0  0  0  0  0  0  0  0  0
  181.1550  184.5750  135.8800 C   0  0  0  0  0  3  0  0  0  0  0  0
  181.5550  184.5700  137.2190 C   0  0  0  0  0  3  0  0  0  0  0  0
  180.6040  182.2210  136.0350 C   0  0  0  0  0  3  0  0  0  0  0  0
  181.4810  183.3910  137.9670 C   0  0  0  0  0  3  0  0  0  0  0  0
  180.6800  183.4010  135.2880 C   0  0  0  0  0  3  0  0  0  0  0  0
  1 12  1  6  0  0  0
  1 13  1  0  0  0  0
  2  6  1  0  0  0  0
  4  7  1  0  0  0  0
  4  1  1  0  0  0  0
  4 19  1  1  0  0  0
  6  5  1  6  0  0  0
  6  9  1  0  0  0  0
  7  1  1  0  0  0  0
  8  3  1  6  0  0  0
  8  2  1  0  0  0  0
  9 16  1  0  0  0  0
 10 11  2  0  0  0  0
 10  8  1  0  0  0  0
 11 12  1  0  0  0  0
 12  2  2  0  0  0  0
 13  9  2  0  0  0  0
 13 18  1  0  0  0  0
 16 15  2  0  0  0  0
 16 14  1  0  0  0  0
 18 17  1  0  0  0  0
 19 20  1  6  0  0  0
 21 25  1  0  0  0  0
 21 19  1  0  0  0  0
 22 23  1  0  0  0  0
 23 25  2  0  0  0  0
 24 21  2  0  0  0  0
 26 22  2  0  0  0  0
 26 24  1  0  0  0  0
M  END
>  <MODEL>
4

>  <REMARK>
 VINA RESULT:      -5.2      3.065      6.560
  Name = 
  4 active torsions:
  status: ('A' for Active; 'I' for Inactive)
    1  A    between atoms: C_3  and  C_7
    2  A    between atoms: C_6  and  C_7
    3  A    between atoms: O_8  and  C_25
    4  A    between atoms: C_18  and  C_26
                            x       y       z     vdW  Elec       q    Type
                         _______ _______ _______ _____ _____    ______ ____

>  <TORSDO>
F 4

$$$$
=
 OpenBabel11042412273D

 26 29  0  0  1  0  0  0  0  0999 V2000
  184.6750  178.3450  139.6360 C   0  0  1  0  0  0  0  0  0  0  0  0
  184.7810  177.1550  137.5170 C   0  0  0  0  0  0  0  0  0  0  0  0
  186.1990  175.7950  136.2100 O   0  0  0  0  0  1  0  0  0  0  0  0
  185.5960  178.5600  140.7840 C   0  0  1  0  0  3  0  0  0  0  0  0
  184.0730  175.0510  138.3520 O   0  0  0  0  0  1  0  0  0  0  0  0
  183.6100  176.2950  137.9200 C   0  0  1  0  0  3  0  0  0  0  0  0
  184.9450  179.6330  140.1300 O   0  0  0  0  0  0  0  0  0  0  0  0
  185.5850  177.0460  136.2690 C   0  0  2  0  0  3  0  0  0  0  0  0
  182.7470  176.9260  139.0090 C   0  0  0  0  0  0  0  0  0  0  0  0
  186.6250  178.1020  136.5090 C   0  0  0  0  0  3  0  0  0  0  0  0
  186.4490  178.6890  137.6900 C   0  0  0  0  0  3  0  0  0  0  0  0
  185.2890  178.0730  138.3070 C   0  0  0  0  0  0  0  0  0  0  0  0
  183.2270  177.9310  139.7910 C   0  0  0  0  0  0  0  0  0  0  0  0
  180.3600  176.6760  138.3730 O   0  0  0  0  0  0  0  0  0  0  0  0
  181.2150  175.4590  140.1070 O   0  0  0  0  0  1  0  0  0  0  0  0
  181.4090  176.3280  139.2150 C   0  0  0  0  0  0  0  0  0  0  0  0
  181.3930  179.5040  140.2920 C   0  0  0  0  0  1  0  0  0  0  0  0
  182.4270  178.6230  140.7080 O   0  0  0  0  0  0  0  0  0  0  0  0
  184.9590  178.3100  142.1480 C   0  0  2  0  0  3  0  0  0  0  0  0
  184.2230  179.5520  142.6170 C   0  0  0  0  0  1  0  0  0  0  0  0
  185.9830  177.8860  143.1570 C   0  0  0  0  0  0  0  0  0  0  0  0
  187.9420  177.1090  145.0050 C   0  0  0  0  0  3  0  0  0  0  0  0
  186.7100  177.5920  145.4560 C   0  0  0  0  0  3  0  0  0  0  0  0
  187.2170  177.4000  142.7120 C   0  0  0  0  0  3  0  0  0  0  0  0
  185.7320  177.9800  144.5360 C   0  0  0  0  0  3  0  0  0  0  0  0
  188.1950  177.0120  143.6330 C   0  0  0  0  0  3  0  0  0  0  0  0
  1 12  1  6  0  0  0
  1 13  1  0  0  0  0
  1  7  1  0  0  0  0
  1  4  1  0  0  0  0
  2  6  1  0  0  0  0
  2 12  2  0  0  0  0
  4 19  1  1  0  0  0
  6  5  1  1  0  0  0
  6  9  1  0  0  0  0
  7  4  1  0  0  0  0
  8  3  1  1  0  0  0
  8 10  1  0  0  0  0
  8  2  1  0  0  0  0
  9 16  1  0  0  0  0
  9 13  2  0  0  0  0
 10 11  2  0  0  0  0
 11 12  1  0  0  0  0
 13 18  1  0  0  0  0
 14 16  2  0  0  0  0
 16 15  1  0  0  0  0
 17 18  1  0  0  0  0
 19 20  1  1  0  0  0
 19 21  1  0  0  0  0
 21 25  1  0  0  0  0
 22 23  1  0  0  0  0
 24 21  2  0  0  0  0
 24 26  1  0  0  0  0
 25 23  2  0  0  0  0
 26 22  2  0  0  0  0
M  END
>  <MODEL>
5

>  <REMARK>
 VINA RESULT:      -5.2      2.470      4.756
  Name = 
  4 active torsions:
  status: ('A' for Active; 'I' for Inactive)
    1  A    between atoms: C_3  and  C_7
    2  A    between atoms: C_6  and  C_7
    3  A    between atoms: O_8  and  C_25
    4  A    between atoms: C_18  and  C_26
                            x       y       z     vdW  Elec       q    Type
                         _______ _______ _______ _____ _____    ______ ____

>  <TORSDO>
F 4

$$$$
=
 OpenBabel11042412273D

 26 29  0  0  1  0  0  0  0  0999 V2000
  182.8200  177.6870  137.5850 C   0  0  1  0  0  0  0  0  0  0  0  0
  185.1540  177.9170  138.2290 C   0  0  0  0  0  0  0  0  0  0  0  0
  187.1770  178.9440  137.5790 O   0  0  0  0  0  1  0  0  0  0  0  0
  181.9690  178.1850  136.4710 C   0  0  1  0  0  3  0  0  0  0  0  0
  184.9020  179.9320  139.4520 O   0  0  0  0  0  1  0  0  0  0  0  0
  184.7510  178.5470  139.5370 C   0  0  1  0  0  3  0  0  0  0  0  0
  182.0230  176.8140  136.8240 O   0  0  0  0  0  0  0  0  0  0  0  0
  186.5390  177.7120  137.7220 C   0  0  2  0  0  3  0  0  0  0  0  0
  183.3210  178.2120  139.9510 C   0  0  0  0  0  0  0  0  0  0  0  0
  186.2610  177.1330  136.3650 C   0  0  0  0  0  3  0  0  0  0  0  0
  184.9530  177.0440  136.1400 C   0  0  0  0  0  3  0  0  0  0  0  0
  184.2790  177.5480  137.3220 C   0  0  0  0  0  0  0  0  0  0  0  0
  182.4160  177.7570  139.0420 C   0  0  0  0  0  0  0  0  0  0  0  0
  183.8860  178.2530  142.3680 O   0  0  0  0  0  1  0  0  0  0  0  0
  181.8490  179.0030  141.6570 O   0  0  0  0  0  0  0  0  0  0  0  0
  182.9620  178.4920  141.3590 C   0  0  0  0  0  0  0  0  0  0  0  0
  180.8940  175.9830  139.8350 C   0  0  0  0  0  1  0  0  0  0  0  0
  181.1370  177.3150  139.4050 O   0  0  0  0  0  0  0  0  0  0  0  0
  180.6440  178.7930  136.9240 C   0  0  2  0  0  3  0  0  0  0  0  0
  179.5040  178.2500  136.0800 C   0  0  0  0  0  1  0  0  0  0  0  0
  180.6850  180.2900  136.8630 C   0  0  0  0  0  0  0  0  0  0  0  0
  180.8060  183.0890  136.7930 C   0  0  0  0  0  3  0  0  0  0  0  0
  180.4220  182.3790  135.6530 C   0  0  0  0  0  3  0  0  0  0  0  0
  181.0670  181.0070  138.0030 C   0  0  0  0  0  3  0  0  0  0  0  0
  180.3610  180.9830  135.6860 C   0  0  0  0  0  3  0  0  0  0  0  0
  181.1280  182.4040  137.9680 C   0  0  0  0  0  3  0  0  0  0  0  0
  1  7  1  6  0  0  0
  1 13  1  0  0  0  0
  2  6  1  0  0  0  0
  4  7  1  0  0  0  0
  4 19  1  1  0  0  0
  4  1  1  0  0  0  0
  6  5  1  6  0  0  0
  6  9  1  0  0  0  0
  8  3  1  6  0  0  0
  8  2  1  0  0  0  0
  9 16  1  0  0  0  0
 10  8  1  0  0  0  0
 11 10  2  0  0  0  0
 11 12  1  0  0  0  0
 12  1  1  0  0  0  0
 12  2  2  0  0  0  0
 13 18  1  0  0  0  0
 13  9  2  0  0  0  0
 16 15  2  0  0  0  0
 16 14  1  0  0  0  0
 18 17  1  0  0  0  0
 19 20  1  6  0  0  0
 21 19  1  0  0  0  0
 21 24  1  0  0  0  0
 22 26  1  0  0  0  0
 23 25  1  0  0  0  0
 23 22  2  0  0  0  0
 25 21  2  0  0  0  0
 26 24  2  0  0  0  0
M  END
>  <MODEL>
6

>  <REMARK>
 VINA RESULT:      -5.2      2.872      6.428
  Name = 
  4 active torsions:
  status: ('A' for Active; 'I' for Inactive)
    1  A    between atoms: C_3  and  C_7
    2  A    between atoms: C_6  and  C_7
    3  A    between atoms: O_8  and  C_25
    4  A    between atoms: C_18  and  C_26
                            x       y       z     vdW  Elec       q    Type
                         _______ _______ _______ _____ _____    ______ ____

>  <TORSDO>
F 4

$$$$
=
 OpenBabel11042412273D

 26 29  0  0  1  0  0  0  0  0999 V2000
  188.1860  178.0210  139.9640 C   0  0  1  0  0  0  0  0  0  0  0  0
  187.1550  178.1240  142.1650 C   0  0  0  0  0  0  0  0  0  0  0  0
  185.2130  177.4920  143.3470 O   0  0  0  0  0  1  0  0  0  0  0  0
  187.8010  177.4800  138.6320 C   0  0  1  0  0  3  0  0  0  0  0  0
  187.9080  176.0050  142.9170 O   0  0  0  0  0  1  0  0  0  0  0  0
  188.2960  177.3370  142.7560 C   0  0  1  0  0  3  0  0  0  0  0  0
  188.2590  178.8090  138.8020 O   0  0  0  0  0  0  0  0  0  0  0  0
  185.9280  178.5900  142.8670 C   0  0  2  0  0  3  0  0  0  0  0  0
  189.5700  177.4010  141.9200 C   0  0  0  0  0  0  0  0  0  0  0  0
  185.1730  179.2200  141.7320 C   0  0  0  0  0  3  0  0  0  0  0  0
  185.8470  179.1130  140.5910 C   0  0  0  0  0  3  0  0  0  0  0  0
  187.0850  178.4150  140.8860 C   0  0  0  0  0  0  0  0  0  0  0  0
  189.5310  177.7730  140.6100 C   0  0  0  0  0  0  0  0  0  0  0  0
  191.7660  177.8980  142.9650 O   0  0  0  0  0  1  0  0  0  0  0  0
  191.0070  175.7460  142.8670 O   0  0  0  0  0  0  0  0  0  0  0  0
  190.8160  176.9580  142.5830 C   0  0  0  0  0  0  0  0  0  0  0  0
  191.6210  176.9270  139.6050 C   0  0  0  0  0  1  0  0  0  0  0  0
  190.6890  177.9720  139.8470 O   0  0  0  0  0  0  0  0  0  0  0  0
  188.8830  176.6310  137.9700 C   0  0  2  0  0  3  0  0  0  0  0  0
  189.5250  177.4000  136.8290 C   0  0  0  0  0  1  0  0  0  0  0  0
  188.3290  175.3250  137.4860 C   0  0  0  0  0  0  0  0  0  0  0  0
  187.3420  172.8540  136.6070 C   0  0  0  0  0  3  0  0  0  0  0  0
  186.4570  173.8980  136.8900 C   0  0  0  0  0  3  0  0  0  0  0  0
  189.2110  174.2760  137.2010 C   0  0  0  0  0  3  0  0  0  0  0  0
  186.9480  175.1310  137.3280 C   0  0  0  0  0  3  0  0  0  0  0  0
  188.7180  173.0430  136.7620 C   0  0  0  0  0  3  0  0  0  0  0  0
  1  7  1  6  0  0  0
  1 13  1  0  0  0  0
  1 12  1  0  0  0  0
  2  6  1  0  0  0  0
  2  8  1  0  0  0  0
  4 19  1  6  0  0  0
  4  7  1  0  0  0  0
  4  1  1  0  0  0  0
  6  5  1  6  0  0  0
  8  3  1  6  0  0  0
  9 16  1  0  0  0  0
  9  6  1  0  0  0  0
 10  8  1  0  0  0  0
 11 12  1  0  0  0  0
 11 10  2  0  0  0  0
 12  2  2  0  0  0  0
 13  9  2  0  0  0  0
 16 15  2  0  0  0  0
 16 14  1  0  0  0  0
 17 18  1  0  0  0  0
 18 13  1  0  0  0  0
 19 20  1  6  0  0  0
 21 19  1  0  0  0  0
 22 26  2  0  0  0  0
 22 23  1  0  0  0  0
 23 25  2  0  0  0  0
 24 21  2  0  0  0  0
 25 21  1  0  0  0  0
 26 24  1  0  0  0  0
M  END
>  <MODEL>
7

>  <REMARK>
 VINA RESULT:      -5.1      5.363      8.594
  Name = 
  4 active torsions:
  status: ('A' for Active; 'I' for Inactive)
    1  A    between atoms: C_3  and  C_7
    2  A    between atoms: C_6  and  C_7
    3  A    between atoms: O_8  and  C_25
    4  A    between atoms: C_18  and  C_26
                            x       y       z     vdW  Elec       q    Type
                         _______ _______ _______ _____ _____    ______ ____

>  <TORSDO>
F 4

$$$$
=
 OpenBabel11042412273D

 26 29  0  0  1  0  0  0  0  0999 V2000
  186.9600  178.0810  139.1940 C   0  0  1  0  0  0  0  0  0  0  0  0
  187.3030  178.2630  141.5960 C   0  0  0  0  0  0  0  0  0  0  0  0
  186.3420  177.6700  143.6680 O   0  0  0  0  0  1  0  0  0  0  0  0
  185.9210  177.4910  138.3090 C   0  0  1  0  0  3  0  0  0  0  0  0
  188.3920  176.1750  141.8730 O   0  0  0  0  0  1  0  0  0  0  0  0
  188.5980  177.5010  141.4870 C   0  0  1  0  0  3  0  0  0  0  0  0
  186.3680  178.8270  138.1600 O   0  0  0  0  0  0  0  0  0  0  0  0
  186.6520  178.7510  142.8420 C   0  0  2  0  0  3  0  0  0  0  0  0
  189.2040  177.5370  140.0870 C   0  0  0  0  0  0  0  0  0  0  0  0
  185.3850  179.3380  142.2900 C   0  0  0  0  0  3  0  0  0  0  0  0
  185.3250  179.1900  140.9690 C   0  0  0  0  0  3  0  0  0  0  0  0
  186.5370  178.5070  140.5570 C   0  0  0  0  0  0  0  0  0  0  0  0
  188.4450  177.8610  139.0030 C   0  0  0  0  0  0  0  0  0  0  0  0
  190.9480  175.9940  139.2310 O   0  0  0  0  0  0  0  0  0  0  0  0
  191.5430  177.8100  140.4820 O   0  0  0  0  0  1  0  0  0  0  0  0
  190.6190  177.1220  139.9710 C   0  0  0  0  0  0  0  0  0  0  0  0
  189.1730  179.3210  137.1520 C   0  0  0  0  0  1  0  0  0  0  0  0
  188.9900  178.0340  137.7250 O   0  0  0  0  0  0  0  0  0  0  0  0
  186.4800  176.6210  137.1870 C   0  0  2  0  0  3  0  0  0  0  0  0
  186.2160  177.2710  135.8400 C   0  0  0  0  0  1  0  0  0  0  0  0
  185.9050  175.2380  137.2320 C   0  0  0  0  0  0  0  0  0  0  0  0
  184.8820  172.6310  137.3460 C   0  0  0  0  0  3  0  0  0  0  0  0
  184.0130  173.7250  137.3890 C   0  0  0  0  0  3  0  0  0  0  0  0
  186.7710  174.1390  137.1890 C   0  0  0  0  0  3  0  0  0  0  0  0
  184.5210  175.0250  137.3320 C   0  0  0  0  0  3  0  0  0  0  0  0
  186.2610  172.8380  137.2460 C   0  0  0  0  0  3  0  0  0  0  0  0
  1  7  1  6  0  0  0
  1 12  1  0  0  0  0
  2  8  1  0  0  0  0
  4 19  1  6  0  0  0
  4  1  1  0  0  0  0
  6  2  1  0  0  0  0
  6  5  1  6  0  0  0
  7  4  1  0  0  0  0
  8  3  1  1  0  0  0
  9  6  1  0  0  0  0
 10  8  1  0  0  0  0
 11 10  2  0  0  0  0
 12 11  1  0  0  0  0
 12  2  2  0  0  0  0
 13  1  1  0  0  0  0
 13  9  2  0  0  0  0
 14 16  2  0  0  0  0
 16  9  1  0  0  0  0
 16 15  1  0  0  0  0
 17 18  1  0  0  0  0
 18 13  1  0  0  0  0
 19 20  1  6  0  0  0
 19 21  1  0  0  0  0
 21 25  1  0  0  0  0
 22 23  1  0  0  0  0
 24 21  2  0  0  0  0
 24 26  1  0  0  0  0
 25 23  2  0  0  0  0
 26 22  2  0  0  0  0
M  END
>  <MODEL>
8

>  <REMARK>
 VINA RESULT:      -5.1      4.749      8.120
  Name = 
  4 active torsions:
  status: ('A' for Active; 'I' for Inactive)
    1  A    between atoms: C_3  and  C_7
    2  A    between atoms: C_6  and  C_7
    3  A    between atoms: O_8  and  C_25
    4  A    between atoms: C_18  and  C_26
                            x       y       z     vdW  Elec       q    Type
                         _______ _______ _______ _____ _____    ______ ____

>  <TORSDO>
F 4

$$$$
=
 OpenBabel11042412273D

 26 29  0  0  1  0  0  0  0  0999 V2000
  182.3880  178.9220  139.5840 C   0  0  1  0  0  0  0  0  0  0  0  0
  183.3560  178.7120  141.8060 C   0  0  0  0  0  0  0  0  0  0  0  0
  184.6560  179.8790  143.3930 O   0  0  0  0  0  1  0  0  0  0  0  0
  182.3790  179.9620  138.5210 C   0  0  1  0  0  3  0  0  0  0  0  0
  181.5780  179.7550  142.9770 O   0  0  0  0  0  1  0  0  0  0  0  0
  181.9850  178.5470  142.4080 C   0  0  1  0  0  3  0  0  0  0  0  0
  182.7340  178.6170  138.2560 O   0  0  0  0  0  0  0  0  0  0  0  0
  184.6530  178.7800  142.5340 C   0  0  2  0  0  3  0  0  0  0  0  0
  180.9380  178.0760  141.4030 C   0  0  0  0  0  0  0  0  0  0  0  0
  185.6030  179.0320  141.3990 C   0  0  0  0  0  3  0  0  0  0  0  0
  184.9550  179.1090  140.2400 C   0  0  0  0  0  3  0  0  0  0  0  0
  183.5450  178.9120  140.5220 C   0  0  0  0  0  0  0  0  0  0  0  0
  181.1450  178.2040  140.0630 C   0  0  0  0  0  0  0  0  0  0  0  0
  179.3160  176.2320  141.7640 O   0  0  0  0  0  0  0  0  0  0  0  0
  178.9330  178.2880  142.6820 O   0  0  0  0  0  1  0  0  0  0  0  0
  179.6710  177.5600  141.9660 C   0  0  0  0  0  0  0  0  0  0  0  0
  180.4230  176.3470  138.6080 C   0  0  0  0  0  1  0  0  0  0  0  0
  180.2710  177.6670  139.1100 O   0  0  0  0  0  0  0  0  0  0  0  0
  180.9930  180.2620  137.9560 C   0  0  2  0  0  3  0  0  0  0  0  0
  180.8650  179.6880  136.5560 C   0  0  0  0  0  1  0  0  0  0  0  0
  180.7120  181.7330  137.9550 C   0  0  0  0  0  0  0  0  0  0  0  0
  180.2220  184.4920  137.9040 C   0  0  0  0  0  3  0  0  0  0  0  0
  179.2530  183.6210  138.4070 C   0  0  0  0  0  3  0  0  0  0  0  0
  181.6800  182.6110  137.4520 C   0  0  0  0  0  3  0  0  0  0  0  0
  179.4960  182.2450  138.4340 C   0  0  0  0  0  3  0  0  0  0  0  0
  181.4360  183.9880  137.4270 C   0  0  0  0  0  3  0  0  0  0  0  0
  1  7  1  6  0  0  0
  1 13  1  0  0  0  0
  1 12  1  0  0  0  0
  2  6  1  0  0  0  0
  2  8  1  0  0  0  0
  4 19  1  6  0  0  0
  4  1  1  0  0  0  0
  6  5  1  6  0  0  0
  7  4  1  0  0  0  0
  8  3  1  1  0  0  0
  9 16  1  0  0  0  0
  9  6  1  0  0  0  0
 10  8  1  0  0  0  0
 11 12  1  0  0  0  0
 11 10  2  0  0  0  0
 12  2  2  0  0  0  0
 13  9  2  0  0  0  0
 14 16  2  0  0  0  0
 16 15  1  0  0  0  0
 17 18  1  0  0  0  0
 18 13  1  0  0  0  0
 19 20  1  6  0  0  0
 21 19  1  0  0  0  0
 21 25  1  0  0  0  0
 22 23  1  0  0  0  0
 23 25  2  0  0  0  0
 24 21  2  0  0  0  0
 26 24  1  0  0  0  0
 26 22  2  0  0  0  0
M  END
>  <MODEL>
9

>  <REMARK>
 VINA RESULT:      -4.9      2.154      5.684
  Name = 
  4 active torsions:
  status: ('A' for Active; 'I' for Inactive)
    1  A    between atoms: C_3  and  C_7
    2  A    between atoms: C_6  and  C_7
    3  A    between atoms: O_8  and  C_25
    4  A    between atoms: C_18  and  C_26
                            x       y       z     vdW  Elec       q    Type
                         _______ _______ _______ _____ _____    ______ ____

>  <TORSDO>
F 4

$$$$
