=
 OpenBabel11032419523D

 27 30  0  0  1  0  0  0  0  0999 V2000
  187.7190  177.0730  144.8170 C   0  0  2  0  0  3  0  0  0  0  0  0
  186.4690  177.4030  142.7230 C   0  0  0  0  0  2  0  0  0  0  0  0
  185.3700  178.1160  143.4550 C   0  0  0  0  0  0  0  0  0  0  0  0
  187.7860  177.6660  143.4110 C   0  0  0  0  0  2  0  0  0  0  0  0
  186.5400  177.5670  145.6830 C   0  0  2  0  0  3  0  0  0  0  0  0
  185.3320  178.0530  144.9720 C   0  0  1  0  0  3  0  0  0  0  0  0
  186.3110  179.0120  145.5190 N   0  0  0  0  0  2  0  0  0  0  0  0
  184.4180  178.8070  142.7770 C   0  0  0  0  0  0  0  0  0  0  0  0
  183.3110  179.5020  143.5510 C   0  0  1  0  0  3  0  0  0  0  0  0
  182.0690  179.0840  143.0860 C   0  0  0  0  0  0  0  0  0  0  0  0
  180.8920  179.0490  141.9570 S   0  0  0  0  0  0  0  0  0  0  0  0
  182.6470  178.6430  144.4340 N   0  0  0  0  0  2  0  0  0  0  0  0
  184.9880  179.7490  140.6590 O   0  0  0  0  0  0  0  0  0  0  0  0
  183.7380  177.7960  140.5590 N   0  0  0  0  0  1  0  0  0  0  0  0
  184.4050  178.8250  141.2890 C   0  0  0  0  0  0  0  0  0  0  0  0
  189.0510  177.1520  145.5810 C   0  0  2  0  0  3  0  0  0  0  0  0
  189.9680  177.4460  147.8350 N   0  0  0  0  0  2  0  0  0  0  0  0
  188.9700  177.9520  146.8810 C   0  0  2  0  0  3  0  0  0  0  0  0
  188.5490  177.0880  147.9810 C   0  0  2  0  0  3  0  0  0  0  0  0
  187.9790  177.8690  148.9850 O   0  0  0  0  0  1  0  0  0  0  0  0
  190.4590  178.8230  144.7060 O   0  0  0  0  0  0  0  0  0  0  0  0
  190.1840  177.6310  144.7180 C   0  0  0  0  0  0  0  0  0  0  0  0
  191.7660  177.5110  142.5810 C   0  0  0  0  0  2  0  0  0  0  0  0
  191.1060  176.5180  143.6690 S   0  0  0  0  0  0  0  0  0  0  0  0
  191.4970  177.3100  141.1290 C   0  0  0  0  0  2  0  0  0  0  0  0
  190.3080  176.4930  140.9650 N   0  0  0  0  0  2  0  0  0  0  0  0
  189.4140  177.2310  140.0900 C   0  0  0  0  0  1  0  0  0  0  0  0
  1 16  1  1  0  0  0
  1  5  1  0  0  0  0
  2  4  1  0  0  0  0
  2  3  1  0  0  0  0
  4  1  1  0  0  0  0
  5  7  1  6  0  0  0
  6  3  1  6  0  0  0
  6  7  1  0  0  0  0
  6  5  1  0  0  0  0
  8  3  2  0  0  0  0
  9  8  1  6  0  0  0
  9 12  1  0  0  0  0
 10  9  1  0  0  0  0
 10 12  1  0  0  0  0
 11 10  2  0  0  0  0
 13 15  2  0  0  0  0
 14 15  1  0  0  0  0
 15  8  1  0  0  0  0
 16 22  1  6  0  0  0
 17 19  1  0  0  0  0
 18 16  1  6  0  0  0
 18 17  1  0  0  0  0
 18 19  1  0  0  0  0
 19 20  1  1  0  0  0
 21 22  2  0  0  0  0
 23 24  1  0  0  0  0
 24 22  1  0  0  0  0
 25 23  1  0  0  0  0
 26 25  1  0  0  0  0
 27 26  1  0  0  0  0
M  END
>  <MODEL>
1

>  <REMARK>
 VINA RESULT:      -7.4      0.000      0.000
  Name = 
  8 active torsions:
  status: ('A' for Active; 'I' for Inactive)
    1  A    between atoms: C_1  and  C_24
    2  A    between atoms: C_2  and  C_17
    3  A    between atoms: C_3  and  C_10
    4  A    between atoms: C_10  and  CA_16
    5  A    between atoms: C_10  and  C_25
    6  A    between atoms: S_13  and  C_25
    7  A    between atoms: N_14  and  C_17
    8  A    between atoms: C_24  and  C_27
                            x       y       z     vdW  Elec       q    Type
                         _______ _______ _______ _____ _____    ______ ____

>  <TORSDO>
F 8

$$$$
=
 OpenBabel11032419523D

 27 30  0  0  1  0  0  0  0  0999 V2000
  189.3810  178.1240  143.2130 C   0  0  2  0  0  3  0  0  0  0  0  0
  188.7050  178.6680  140.9090 C   0  0  0  0  0  2  0  0  0  0  0  0
  189.6450  177.6360  140.3580 C   0  0  0  0  0  0  0  0  0  0  0  0
  188.1940  178.2140  142.2550 C   0  0  0  0  0  2  0  0  0  0  0  0
  190.5420  177.2250  142.7370 C   0  0  2  0  0  3  0  0  0  0  0  0
  190.6900  177.0240  141.2750 C   0  0  1  0  0  3  0  0  0  0  0  0
  190.0510  175.9880  142.1090 N   0  0  0  0  0  2  0  0  0  0  0  0
  189.5700  177.2530  139.0570 C   0  0  0  0  0  0  0  0  0  0  0  0
  190.5500  176.2190  138.5290 C   0  0  1  0  0  3  0  0  0  0  0  0
  189.9900  175.5350  137.4560 C   0  0  0  0  0  0  0  0  0  0  0  0
  188.9340  174.4630  136.8260 S   0  0  0  0  0  0  0  0  0  0  0  0
  191.1010  176.5770  137.2940 N   0  0  0  0  0  2  0  0  0  0  0  0
  187.4470  177.3900  137.9740 O   0  0  0  0  0  0  0  0  0  0  0  0
  188.9440  179.0730  137.4140 N   0  0  0  0  0  1  0  0  0  0  0  0
  188.5950  177.8900  138.1310 C   0  0  0  0  0  0  0  0  0  0  0  0
  188.9780  177.8040  144.6620 C   0  0  2  0  0  3  0  0  0  0  0  0
  189.7140  176.8750  146.8070 N   0  0  0  0  0  2  0  0  0  0  0  0
  189.9000  176.7980  145.3510 C   0  0  2  0  0  3  0  0  0  0  0  0
  190.8860  177.4960  146.1720 C   0  0  2  0  0  3  0  0  0  0  0  0
  191.9970  176.6740  146.3520 O   0  0  0  0  0  1  0  0  0  0  0  0
  187.1770  176.3380  144.2770 O   0  0  0  0  0  0  0  0  0  0  0  0
  187.5370  177.3920  144.7830 C   0  0  0  0  0  0  0  0  0  0  0  0
  185.0010  178.1910  144.7080 C   0  0  0  0  0  2  0  0  0  0  0  0
  186.3270  178.4220  145.5980 S   0  0  0  0  0  0  0  0  0  0  0  0
  184.3210  179.3530  144.0690 C   0  0  0  0  0  2  0  0  0  0  0  0
  183.5130  178.8890  142.9550 N   0  0  0  0  0  2  0  0  0  0  0  0
  184.4240  178.2600  142.0150 C   0  0  0  0  0  1  0  0  0  0  0  0
  1 16  1  1  0  0  0
  2  4  1  0  0  0  0
  3  2  1  0  0  0  0
  4  1  1  0  0  0  0
  5  7  1  1  0  0  0
  5  1  1  0  0  0  0
  6  3  1  6  0  0  0
  6  7  1  0  0  0  0
  6  5  1  0  0  0  0
  8  3  2  0  0  0  0
  9  8  1  6  0  0  0
 10  9  1  0  0  0  0
 11 10  2  0  0  0  0
 12 10  1  0  0  0  0
 12  9  1  0  0  0  0
 13 15  2  0  0  0  0
 14 15  1  0  0  0  0
 15  8  1  0  0  0  0
 16 22  1  6  0  0  0
 18 16  1  6  0  0  0
 18 19  1  0  0  0  0
 18 17  1  0  0  0  0
 19 20  1  1  0  0  0
 19 17  1  0  0  0  0
 21 22  2  0  0  0  0
 22 24  1  0  0  0  0
 23 24  1  0  0  0  0
 25 23  1  0  0  0  0
 26 25  1  0  0  0  0
 27 26  1  0  0  0  0
M  END
>  <MODEL>
2

>  <REMARK>
 VINA RESULT:      -7.3      2.800      6.109
  Name = 
  8 active torsions:
  status: ('A' for Active; 'I' for Inactive)
    1  A    between atoms: C_1  and  C_24
    2  A    between atoms: C_2  and  C_17
    3  A    between atoms: C_3  and  C_10
    4  A    between atoms: C_10  and  CA_16
    5  A    between atoms: C_10  and  C_25
    6  A    between atoms: S_13  and  C_25
    7  A    between atoms: N_14  and  C_17
    8  A    between atoms: C_24  and  C_27
                            x       y       z     vdW  Elec       q    Type
                         _______ _______ _______ _____ _____    ______ ____

>  <TORSDO>
F 8

$$$$
=
 OpenBabel11032419523D

 27 30  0  0  1  0  0  0  0  0999 V2000
  185.8910  177.5750  143.5100 C   0  0  2  0  0  3  0  0  0  0  0  0
  186.8610  177.2580  145.7500 C   0  0  0  0  0  2  0  0  0  0  0  0
  188.2210  177.0170  145.1610 C   0  0  0  0  0  0  0  0  0  0  0  0
  186.0990  178.2240  144.8770 C   0  0  0  0  0  2  0  0  0  0  0  0
  187.1810  177.1010  142.8060 C   0  0  2  0  0  3  0  0  0  0  0  0
  188.3450  176.7760  143.6670 C   0  0  1  0  0  3  0  0  0  0  0  0
  188.2760  178.0720  142.9630 N   0  0  0  0  0  2  0  0  0  0  0  0
  189.3270  177.0080  145.9480 C   0  0  0  0  0  0  0  0  0  0  0  0
  190.6840  176.7430  145.3190 C   0  0  1  0  0  3  0  0  0  0  0  0
  191.3150  177.9450  145.0210 C   0  0  0  0  0  0  0  0  0  0  0  0
  191.4730  179.3090  144.1400 S   0  0  0  0  0  0  0  0  0  0  0  0
  191.7470  177.0390  146.1790 N   0  0  0  0  0  2  0  0  0  0  0  0
  188.9860  176.1810  148.1610 O   0  0  0  0  0  0  0  0  0  0  0  0
  189.3650  178.4660  148.0160 N   0  0  0  0  0  1  0  0  0  0  0  0
  189.2140  177.1780  147.4220 C   0  0  0  0  0  0  0  0  0  0  0  0
  185.0050  178.4030  142.5650 C   0  0  2  0  0  3  0  0  0  0  0  0
  184.8630  179.5750  140.4180 N   0  0  0  0  0  2  0  0  0  0  0  0
  185.7850  179.1430  141.4790 C   0  0  2  0  0  3  0  0  0  0  0  0
  185.7280  178.4030  140.2220 C   0  0  2  0  0  3  0  0  0  0  0  0
  186.8170  178.7610  139.4290 O   0  0  0  0  0  1  0  0  0  0  0  0
  184.5460  180.3480  143.8090 O   0  0  0  0  0  0  0  0  0  0  0  0
  184.0840  179.3340  143.3040 C   0  0  0  0  0  0  0  0  0  0  0  0
  181.8550  178.6920  142.0000 C   0  0  0  0  0  2  0  0  0  0  0  0
  182.3470  178.9730  143.5110 S   0  0  0  0  0  0  0  0  0  0  0  0
  180.7530  179.5040  141.4120 C   0  0  0  0  0  2  0  0  0  0  0  0
  180.2200  180.4010  142.4210 N   0  0  0  0  0  2  0  0  0  0  0  0
  179.0460  181.0290  141.8420 C   0  0  0  0  0  1  0  0  0  0  0  0
  1 16  1  6  0  0  0
  1  4  1  0  0  0  0
  3  2  1  0  0  0  0
  3  8  2  0  0  0  0
  4  2  1  0  0  0  0
  5  7  1  6  0  0  0
  5  1  1  0  0  0  0
  5  6  1  0  0  0  0
  6  7  1  6  0  0  0
  6  3  1  0  0  0  0
  8 15  1  0  0  0  0
  9  8  1  1  0  0  0
  9 12  1  0  0  0  0
 10  9  1  0  0  0  0
 10 12  1  0  0  0  0
 11 10  2  0  0  0  0
 15 14  1  0  0  0  0
 15 13  2  0  0  0  0
 16 22  1  1  0  0  0
 17 18  1  0  0  0  0
 18 16  1  1  0  0  0
 19 20  1  6  0  0  0
 19 17  1  0  0  0  0
 19 18  1  0  0  0  0
 22 24  1  0  0  0  0
 22 21  2  0  0  0  0
 23 24  1  0  0  0  0
 25 23  1  0  0  0  0
 25 26  1  0  0  0  0
 27 26  1  0  0  0  0
M  END
>  <MODEL>
3

>  <REMARK>
 VINA RESULT:      -7.3      2.200      7.802
  Name = 
  8 active torsions:
  status: ('A' for Active; 'I' for Inactive)
    1  A    between atoms: C_1  and  C_24
    2  A    between atoms: C_2  and  C_17
    3  A    between atoms: C_3  and  C_10
    4  A    between atoms: C_10  and  CA_16
    5  A    between atoms: C_10  and  C_25
    6  A    between atoms: S_13  and  C_25
    7  A    between atoms: N_14  and  C_17
    8  A    between atoms: C_24  and  C_27
                            x       y       z     vdW  Elec       q    Type
                         _______ _______ _______ _____ _____    ______ ____

>  <TORSDO>
F 8

$$$$
=
 OpenBabel11032419523D

 27 30  0  0  1  0  0  0  0  0999 V2000
  186.3910  178.7210  143.5260 C   0  0  2  0  0  3  0  0  0  0  0  0
  187.0320  178.9030  141.1560 C   0  0  0  0  0  2  0  0  0  0  0  0
  188.2250  178.0190  141.3800 C   0  0  0  0  0  0  0  0  0  0  0  0
  185.9200  178.4930  142.0900 C   0  0  0  0  0  2  0  0  0  0  0  0
  187.7110  178.0150  143.9030 C   0  0  2  0  0  3  0  0  0  0  0  0
  188.6550  177.7060  142.8020 C   0  0  1  0  0  3  0  0  0  0  0  0
  187.7790  176.6530  143.3500 N   0  0  0  0  0  2  0  0  0  0  0  0
  188.9150  177.5060  140.3290 C   0  0  0  0  0  0  0  0  0  0  0  0
  190.1270  176.6300  140.5930 C   0  0  1  0  0  3  0  0  0  0  0  0
  190.9170  176.5520  139.4510 C   0  0  0  0  0  0  0  0  0  0  0  0
  191.2050  176.0300  137.9330 S   0  0  0  0  0  0  0  0  0  0  0  0
  191.3150  177.3630  140.6880 N   0  0  0  0  0  2  0  0  0  0  0  0
  187.8070  177.0850  138.2560 O   0  0  0  0  0  0  0  0  0  0  0  0
  189.0130  179.0660  138.3390 N   0  0  0  0  0  1  0  0  0  0  0  0
  188.5440  177.8560  138.9310 C   0  0  0  0  0  0  0  0  0  0  0  0
  185.2980  178.4700  144.5780 C   0  0  2  0  0  3  0  0  0  0  0  0
  182.9010  178.6460  145.0580 N   0  0  0  0  0  2  0  0  0  0  0  0
  184.0220  179.2780  144.3460 C   0  0  2  0  0  3  0  0  0  0  0  0
  183.0470  178.4820  143.6050 C   0  0  2  0  0  3  0  0  0  0  0  0
  182.1580  179.3360  142.9530 O   0  0  0  0  0  1  0  0  0  0  0  0
  185.6390  179.7150  146.5470 O   0  0  0  0  0  0  0  0  0  0  0  0
  185.8010  178.6410  145.9850 C   0  0  0  0  0  0  0  0  0  0  0  0
  187.5840  178.1470  147.8970 C   0  0  0  0  0  2  0  0  0  0  0  0
  186.6740  177.3370  146.8380 S   0  0  0  0  0  0  0  0  0  0  0  0
  189.0650  177.9820  147.8860 C   0  0  0  0  0  2  0  0  0  0  0  0
  189.4100  176.7360  147.2240 N   0  0  0  0  0  2  0  0  0  0  0  0
  190.4420  177.0520  146.2530 C   0  0  0  0  0  1  0  0  0  0  0  0
  1  5  1  0  0  0  0
  1 16  1  1  0  0  0
  2  3  1  0  0  0  0
  2  4  1  0  0  0  0
  4  1  1  0  0  0  0
  5  7  1  6  0  0  0
  6  3  1  6  0  0  0
  6  7  1  0  0  0  0
  6  5  1  0  0  0  0
  8  3  2  0  0  0  0
  9  8  1  6  0  0  0
  9 12  1  0  0  0  0
 10  9  1  0  0  0  0
 10 12  1  0  0  0  0
 11 10  2  0  0  0  0
 13 15  2  0  0  0  0
 14 15  1  0  0  0  0
 15  8  1  0  0  0  0
 16 22  1  1  0  0  0
 18 16  1  1  0  0  0
 18 17  1  0  0  0  0
 19 20  1  6  0  0  0
 19 18  1  0  0  0  0
 19 17  1  0  0  0  0
 22 21  2  0  0  0  0
 22 24  1  0  0  0  0
 24 23  1  0  0  0  0
 25 23  1  0  0  0  0
 26 25  1  0  0  0  0
 27 26  1  0  0  0  0
M  END
>  <MODEL>
4

>  <REMARK>
 VINA RESULT:      -7.1      2.835      6.213
  Name = 
  8 active torsions:
  status: ('A' for Active; 'I' for Inactive)
    1  A    between atoms: C_1  and  C_24
    2  A    between atoms: C_2  and  C_17
    3  A    between atoms: C_3  and  C_10
    4  A    between atoms: C_10  and  CA_16
    5  A    between atoms: C_10  and  C_25
    6  A    between atoms: S_13  and  C_25
    7  A    between atoms: N_14  and  C_17
    8  A    between atoms: C_24  and  C_27
                            x       y       z     vdW  Elec       q    Type
                         _______ _______ _______ _____ _____    ______ ____

>  <TORSDO>
F 8

$$$$
=
 OpenBabel11032419523D

 27 30  0  0  1  0  0  0  0  0999 V2000
  185.7850  178.4720  144.2320 C   0  0  2  0  0  3  0  0  0  0  0  0
  183.4430  179.2140  144.3930 C   0  0  0  0  0  2  0  0  0  0  0  0
  183.2600  179.0590  142.9110 C   0  0  0  0  0  0  0  0  0  0  0  0
  184.4330  178.1890  144.8870 C   0  0  0  0  0  2  0  0  0  0  0  0
  185.7680  178.5180  142.6890 C   0  0  2  0  0  3  0  0  0  0  0  0
  184.4840  178.8650  142.0330 C   0  0  1  0  0  3  0  0  0  0  0  0
  184.9210  177.4580  142.1200 N   0  0  0  0  0  2  0  0  0  0  0  0
  182.0210  179.0950  142.3560 C   0  0  0  0  0  0  0  0  0  0  0  0
  181.8760  178.9530  140.8510 C   0  0  1  0  0  3  0  0  0  0  0  0
  180.7520  178.1920  140.5500 C   0  0  0  0  0  0  0  0  0  0  0  0
  179.9460  176.7750  140.4920 S   0  0  0  0  0  0  0  0  0  0  0  0
  180.8170  179.7070  140.3350 N   0  0  0  0  0  2  0  0  0  0  0  0
  180.3100  180.5030  143.2450 O   0  0  0  0  0  0  0  0  0  0  0  0
  180.2270  178.2940  143.9500 N   0  0  0  0  0  1  0  0  0  0  0  0
  180.8190  179.3500  143.1960 C   0  0  0  0  0  0  0  0  0  0  0  0
  186.9210  177.5800  144.7570 C   0  0  2  0  0  3  0  0  0  0  0  0
  188.3790  177.1310  146.6750 N   0  0  0  0  0  2  0  0  0  0  0  0
  187.7020  178.1950  145.9190 C   0  0  2  0  0  3  0  0  0  0  0  0
  187.1480  177.7460  147.1930 C   0  0  2  0  0  3  0  0  0  0  0  0
  187.4760  178.6680  148.1860 O   0  0  0  0  0  1  0  0  0  0  0  0
  187.7330  175.9810  143.2330 O   0  0  0  0  0  0  0  0  0  0  0  0
  187.8450  177.1190  143.6650 C   0  0  0  0  0  0  0  0  0  0  0  0
  190.3070  177.1190  142.6550 C   0  0  0  0  0  2  0  0  0  0  0  0
  189.1370  178.1700  143.0180 S   0  0  0  0  0  0  0  0  0  0  0  0
  191.6570  177.2650  143.2700 C   0  0  0  0  0  2  0  0  0  0  0  0
  191.5200  177.7640  144.6270 N   0  0  0  0  0  2  0  0  0  0  0  0
  191.6460  176.6160  145.5070 C   0  0  0  0  0  1  0  0  0  0  0  0
  1 16  1  6  0  0  0
  1  4  1  0  0  0  0
  2  4  1  0  0  0  0
  3  2  1  0  0  0  0
  5  7  1  6  0  0  0
  5  1  1  0  0  0  0
  6  7  1  6  0  0  0
  6  5  1  0  0  0  0
  6  3  1  0  0  0  0
  8  3  2  0  0  0  0
  8 15  1  0  0  0  0
  9  8  1  1  0  0  0
 10  9  1  0  0  0  0
 11 10  2  0  0  0  0
 12 10  1  0  0  0  0
 12  9  1  0  0  0  0
 15 13  2  0  0  0  0
 15 14  1  0  0  0  0
 16 22  1  6  0  0  0
 17 19  1  0  0  0  0
 18 16  1  6  0  0  0
 18 17  1  0  0  0  0
 18 19  1  0  0  0  0
 19 20  1  1  0  0  0
 21 22  2  0  0  0  0
 23 24  1  0  0  0  0
 23 25  1  0  0  0  0
 24 22  1  0  0  0  0
 25 26  1  0  0  0  0
 26 27  1  0  0  0  0
M  END
>  <MODEL>
5

>  <REMARK>
 VINA RESULT:      -7.1      2.244      3.373
  Name = 
  8 active torsions:
  status: ('A' for Active; 'I' for Inactive)
    1  A    between atoms: C_1  and  C_24
    2  A    between atoms: C_2  and  C_17
    3  A    between atoms: C_3  and  C_10
    4  A    between atoms: C_10  and  CA_16
    5  A    between atoms: C_10  and  C_25
    6  A    between atoms: S_13  and  C_25
    7  A    between atoms: N_14  and  C_17
    8  A    between atoms: C_24  and  C_27
                            x       y       z     vdW  Elec       q    Type
                         _______ _______ _______ _____ _____    ______ ____

>  <TORSDO>
F 8

$$$$
=
 OpenBabel11032419523D

 27 30  0  0  1  0  0  0  0  0999 V2000
  189.1830  177.7480  141.8830 C   0  0  2  0  0  3  0  0  0  0  0  0
  188.0120  178.6290  139.9050 C   0  0  0  0  0  2  0  0  0  0  0  0
  189.0520  178.0470  138.9920 C   0  0  0  0  0  0  0  0  0  0  0  0
  187.8590  177.7470  141.1200 C   0  0  0  0  0  2  0  0  0  0  0  0
  190.4170  177.3310  141.0550 C   0  0  2  0  0  3  0  0  0  0  0  0
  190.3510  177.5330  139.5870 C   0  0  1  0  0  3  0  0  0  0  0  0
  190.1200  176.1960  140.1660 N   0  0  0  0  0  2  0  0  0  0  0  0
  188.8420  177.9820  137.6520 C   0  0  0  0  0  0  0  0  0  0  0  0
  189.9240  177.4030  136.7580 C   0  0  1  0  0  3  0  0  0  0  0  0
  189.6070  176.0950  136.4100 C   0  0  0  0  0  0  0  0  0  0  0  0
  189.4310  174.5130  136.7670 S   0  0  0  0  0  0  0  0  0  0  0  0
  189.5120  177.2670  135.4280 N   0  0  0  0  0  2  0  0  0  0  0  0
  187.5550  179.7510  136.6970 O   0  0  0  0  0  0  0  0  0  0  0  0
  186.4540  177.7140  136.8570 N   0  0  0  0  0  1  0  0  0  0  0  0
  187.6010  178.5400  137.0480 C   0  0  0  0  0  0  0  0  0  0  0  0
  189.1210  176.9940  143.2210 C   0  0  2  0  0  3  0  0  0  0  0  0
  187.9620  176.8710  145.3770 N   0  0  0  0  0  2  0  0  0  0  0  0
  188.4690  177.7930  144.3500 C   0  0  2  0  0  3  0  0  0  0  0  0
  187.0400  177.4980  144.4180 C   0  0  2  0  0  3  0  0  0  0  0  0
  186.3820  178.5590  145.0380 O   0  0  0  0  0  1  0  0  0  0  0  0
  190.8120  175.3570  143.2290 O   0  0  0  0  0  0  0  0  0  0  0  0
  190.4590  176.4530  143.6420 C   0  0  0  0  0  0  0  0  0  0  0  0
  191.5250  176.4000  146.0790 C   0  0  0  0  0  2  0  0  0  0  0  0
  191.5230  177.3410  144.7680 S   0  0  0  0  0  0  0  0  0  0  0  0
  191.0850  176.9510  147.3920 C   0  0  0  0  0  2  0  0  0  0  0  0
  192.2030  176.9470  148.3190 N   0  0  0  0  0  2  0  0  0  0  0  0
  192.8050  175.6280  148.2390 C   0  0  0  0  0  1  0  0  0  0  0  0
  1 16  1  1  0  0  0
  2  4  1  0  0  0  0
  3  2  1  0  0  0  0
  4  1  1  0  0  0  0
  5  7  1  6  0  0  0
  5  1  1  0  0  0  0
  6  3  1  1  0  0  0
  6  7  1  0  0  0  0
  6  5  1  0  0  0  0
  8  3  2  0  0  0  0
  9  8  1  1  0  0  0
 10  9  1  0  0  0  0
 10 11  2  0  0  0  0
 12 10  1  0  0  0  0
 12  9  1  0  0  0  0
 13 15  2  0  0  0  0
 14 15  1  0  0  0  0
 15  8  1  0  0  0  0
 16 22  1  1  0  0  0
 18 16  1  6  0  0  0
 18 19  1  0  0  0  0
 18 17  1  0  0  0  0
 19 20  1  1  0  0  0
 19 17  1  0  0  0  0
 21 22  2  0  0  0  0
 22 24  1  0  0  0  0
 23 25  1  0  0  0  0
 24 23  1  0  0  0  0
 25 26  1  0  0  0  0
 27 26  1  0  0  0  0
M  END
>  <MODEL>
6

>  <REMARK>
 VINA RESULT:      -7.0      3.628      6.218
  Name = 
  8 active torsions:
  status: ('A' for Active; 'I' for Inactive)
    1  A    between atoms: C_1  and  C_24
    2  A    between atoms: C_2  and  C_17
    3  A    between atoms: C_3  and  C_10
    4  A    between atoms: C_10  and  CA_16
    5  A    between atoms: C_10  and  C_25
    6  A    between atoms: S_13  and  C_25
    7  A    between atoms: N_14  and  C_17
    8  A    between atoms: C_24  and  C_27
                            x       y       z     vdW  Elec       q    Type
                         _______ _______ _______ _____ _____    ______ ____

>  <TORSDO>
F 8

$$$$
=
 OpenBabel11032419523D

 27 30  0  0  1  0  0  0  0  0999 V2000
  189.6730  176.7960  140.9030 C   0  0  2  0  0  3  0  0  0  0  0  0
  187.9430  176.8710  142.6520 C   0  0  0  0  0  2  0  0  0  0  0  0
  188.9760  177.1590  143.7040 C   0  0  0  0  0  0  0  0  0  0  0  0
  188.3780  177.4780  141.3410 C   0  0  0  0  0  2  0  0  0  0  0  0
  190.8200  176.8420  141.9350 C   0  0  2  0  0  3  0  0  0  0  0  0
  190.4450  176.9800  143.3630 C   0  0  1  0  0  3  0  0  0  0  0  0
  190.9070  178.1530  142.5970 N   0  0  0  0  0  2  0  0  0  0  0  0
  188.6070  177.5690  144.9450 C   0  0  0  0  0  0  0  0  0  0  0  0
  189.6790  177.8320  145.9880 C   0  0  1  0  0  3  0  0  0  0  0  0
  189.1460  177.6920  147.2650 C   0  0  0  0  0  0  0  0  0  0  0  0
  188.2020  178.1990  148.4950 S   0  0  0  0  0  0  0  0  0  0  0  0
  190.0980  176.6680  146.6400 N   0  0  0  0  0  2  0  0  0  0  0  0
  186.5500  176.6900  145.7770 O   0  0  0  0  0  0  0  0  0  0  0  0
  186.4790  178.9220  145.1480 N   0  0  0  0  0  1  0  0  0  0  0  0
  187.1700  177.6850  145.3120 C   0  0  0  0  0  0  0  0  0  0  0  0
  190.1530  177.2280  139.5070 C   0  0  2  0  0  3  0  0  0  0  0  0
  189.5780  177.7070  137.1740 N   0  0  0  0  0  2  0  0  0  0  0  0
  189.0180  177.4760  138.5140 C   0  0  2  0  0  3  0  0  0  0  0  0
  189.0980  178.8350  137.9850 C   0  0  2  0  0  3  0  0  0  0  0  0
  187.8390  179.2260  137.5320 O   0  0  0  0  0  1  0  0  0  0  0  0
  190.8510  175.1480  138.6540 O   0  0  0  0  0  0  0  0  0  0  0  0
  191.1810  176.2920  138.9350 C   0  0  0  0  0  0  0  0  0  0  0  0
  193.3220  175.9600  137.3900 C   0  0  0  0  0  2  0  0  0  0  0  0
  192.8820  176.7860  138.7050 S   0  0  0  0  0  0  0  0  0  0  0  0
  194.4830  175.0270  137.4500 C   0  0  0  0  0  2  0  0  0  0  0  0
  195.0910  175.0940  138.7670 N   0  0  0  0  0  2  0  0  0  0  0  0
  195.9770  173.9490  138.8760 C   0  0  0  0  0  1  0  0  0  0  0  0
  1 16  1  6  0  0  0
  1  4  1  0  0  0  0
  1  5  1  0  0  0  0
  2  3  1  0  0  0  0
  3  8  2  0  0  0  0
  4  2  1  0  0  0  0
  5  7  1  6  0  0  0
  5  6  1  0  0  0  0
  6  7  1  6  0  0  0
  6  3  1  0  0  0  0
  8 15  1  0  0  0  0
  9  8  1  6  0  0  0
  9 12  1  0  0  0  0
  9 10  1  0  0  0  0
 10 11  2  0  0  0  0
 12 10  1  0  0  0  0
 14 15  1  0  0  0  0
 15 13  2  0  0  0  0
 16 22  1  6  0  0  0
 17 19  1  0  0  0  0
 17 18  1  0  0  0  0
 18 16  1  1  0  0  0
 19 20  1  6  0  0  0
 19 18  1  0  0  0  0
 21 22  2  0  0  0  0
 23 25  1  0  0  0  0
 23 24  1  0  0  0  0
 24 22  1  0  0  0  0
 25 26  1  0  0  0  0
 26 27  1  0  0  0  0
M  END
>  <MODEL>
7

>  <REMARK>
 VINA RESULT:      -7.0      3.557      6.798
  Name = 
  8 active torsions:
  status: ('A' for Active; 'I' for Inactive)
    1  A    between atoms: C_1  and  C_24
    2  A    between atoms: C_2  and  C_17
    3  A    between atoms: C_3  and  C_10
    4  A    between atoms: C_10  and  CA_16
    5  A    between atoms: C_10  and  C_25
    6  A    between atoms: S_13  and  C_25
    7  A    between atoms: N_14  and  C_17
    8  A    between atoms: C_24  and  C_27
                            x       y       z     vdW  Elec       q    Type
                         _______ _______ _______ _____ _____    ______ ____

>  <TORSDO>
F 8

$$$$
=
 OpenBabel11032419523D

 27 30  0  0  1  0  0  0  0  0999 V2000
  185.2890  178.0470  143.6450 C   0  0  2  0  0  3  0  0  0  0  0  0
  186.3840  177.6430  145.8130 C   0  0  0  0  0  2  0  0  0  0  0  0
  187.6670  177.2670  145.1290 C   0  0  0  0  0  0  0  0  0  0  0  0
  185.6590  178.6770  144.9870 C   0  0  0  0  0  2  0  0  0  0  0  0
  186.4710  177.4470  142.8550 C   0  0  2  0  0  3  0  0  0  0  0  0
  187.6570  177.0110  143.6320 C   0  0  1  0  0  3  0  0  0  0  0  0
  187.6650  178.3050  142.9220 N   0  0  0  0  0  2  0  0  0  0  0  0
  188.8220  177.1520  145.8340 C   0  0  0  0  0  0  0  0  0  0  0  0
  190.0960  176.7530  145.1110 C   0  0  1  0  0  3  0  0  0  0  0  0
  190.8500  177.8830  144.8130 C   0  0  0  0  0  0  0  0  0  0  0  0
  191.1190  179.2520  143.9690 S   0  0  0  0  0  0  0  0  0  0  0  0
  191.2370  176.8870  145.9110 N   0  0  0  0  0  2  0  0  0  0  0  0
  188.6550  176.3500  148.0760 O   0  0  0  0  0  0  0  0  0  0  0  0
  189.0490  178.6280  147.8770 N   0  0  0  0  0  1  0  0  0  0  0  0
  188.8330  177.3370  147.3110 C   0  0  0  0  0  0  0  0  0  0  0  0
  184.4220  178.9550  142.7580 C   0  0  2  0  0  3  0  0  0  0  0  0
  182.1690  179.8890  143.0010 N   0  0  0  0  0  2  0  0  0  0  0  0
  182.9270  178.6410  142.8290 C   0  0  2  0  0  3  0  0  0  0  0  0
  182.3990  178.9940  144.1450 C   0  0  2  0  0  3  0  0  0  0  0  0
  181.2440  178.2530  144.3880 O   0  0  0  0  0  1  0  0  0  0  0  0
  185.8170  179.7530  141.0390 O   0  0  0  0  0  0  0  0  0  0  0  0
  184.9000  178.9990  141.3340 C   0  0  0  0  0  0  0  0  0  0  0  0
  183.7430  179.1260  138.9410 C   0  0  0  0  0  2  0  0  0  0  0  0
  184.1330  178.0210  140.0510 S   0  0  0  0  0  0  0  0  0  0  0  0
  182.3260  179.2760  138.5050 C   0  0  0  0  0  2  0  0  0  0  0  0
  181.5280  179.7730  139.6120 N   0  0  0  0  0  2  0  0  0  0  0  0
  180.4670  178.8050  139.8280 C   0  0  0  0  0  1  0  0  0  0  0  0
  1 16  1  6  0  0  0
  1  4  1  0  0  0  0
  3  2  1  0  0  0  0
  3  8  2  0  0  0  0
  4  2  1  0  0  0  0
  5  7  1  6  0  0  0
  5  6  1  0  0  0  0
  5  1  1  0  0  0  0
  6  7  1  6  0  0  0
  6  3  1  0  0  0  0
  8 15  1  0  0  0  0
  9  8  1  1  0  0  0
  9 12  1  0  0  0  0
 10  9  1  0  0  0  0
 10 12  1  0  0  0  0
 11 10  2  0  0  0  0
 15 14  1  0  0  0  0
 15 13  2  0  0  0  0
 16 22  1  6  0  0  0
 17 19  1  0  0  0  0
 18 16  1  1  0  0  0
 18 17  1  0  0  0  0
 18 19  1  0  0  0  0
 19 20  1  6  0  0  0
 21 22  2  0  0  0  0
 23 24  1  0  0  0  0
 24 22  1  0  0  0  0
 25 23  1  0  0  0  0
 25 26  1  0  0  0  0
 26 27  1  0  0  0  0
M  END
>  <MODEL>
8

>  <REMARK>
 VINA RESULT:      -6.9      2.182      7.264
  Name = 
  8 active torsions:
  status: ('A' for Active; 'I' for Inactive)
    1  A    between atoms: C_1  and  C_24
    2  A    between atoms: C_2  and  C_17
    3  A    between atoms: C_3  and  C_10
    4  A    between atoms: C_10  and  CA_16
    5  A    between atoms: C_10  and  C_25
    6  A    between atoms: S_13  and  C_25
    7  A    between atoms: N_14  and  C_17
    8  A    between atoms: C_24  and  C_27
                            x       y       z     vdW  Elec       q    Type
                         _______ _______ _______ _____ _____    ______ ____

>  <TORSDO>
F 8

$$$$
=
 OpenBabel11032419523D

 27 30  0  0  1  0  0  0  0  0999 V2000
  190.4920  177.8930  139.7340 C   0  0  2  0  0  3  0  0  0  0  0  0
  191.5350  177.7730  141.9610 C   0  0  0  0  0  2  0  0  0  0  0  0
  190.2050  177.4990  142.6030 C   0  0  0  0  0  0  0  0  0  0  0  0
  191.5540  177.1830  140.5730 C   0  0  0  0  0  2  0  0  0  0  0  0
  189.0650  177.8630  140.3220 C   0  0  2  0  0  3  0  0  0  0  0  0
  188.9380  177.7080  141.7920 C   0  0  1  0  0  3  0  0  0  0  0  0
  188.7400  176.5490  140.9010 N   0  0  0  0  0  2  0  0  0  0  0  0
  190.1300  177.0740  143.8900 C   0  0  0  0  0  0  0  0  0  0  0  0
  188.7670  176.8250  144.5120 C   0  0  1  0  0  3  0  0  0  0  0  0
  188.7830  177.1810  145.8560 C   0  0  0  0  0  0  0  0  0  0  0  0
  189.2360  176.9380  147.4040 S   0  0  0  0  0  0  0  0  0  0  0  0
  188.0700  178.0080  144.7810 N   0  0  0  0  0  2  0  0  0  0  0  0
  191.9000  177.9410  145.2380 O   0  0  0  0  0  0  0  0  0  0  0  0
  191.9370  175.6410  144.9310 N   0  0  0  0  0  1  0  0  0  0  0  0
  191.3590  176.9270  144.7170 C   0  0  0  0  0  0  0  0  0  0  0  0
  190.5000  177.4790  138.2540 C   0  0  2  0  0  3  0  0  0  0  0  0
  189.2770  177.8300  136.1590 N   0  0  0  0  0  2  0  0  0  0  0  0
  189.1240  177.5320  137.5910 C   0  0  2  0  0  3  0  0  0  0  0  0
  188.8520  178.8790  137.0980 C   0  0  2  0  0  3  0  0  0  0  0  0
  187.4730  179.0600  136.9930 O   0  0  0  0  0  1  0  0  0  0  0  0
  190.6030  175.1340  138.4280 O   0  0  0  0  0  0  0  0  0  0  0  0
  191.1600  176.1470  138.0300 C   0  0  0  0  0  0  0  0  0  0  0  0
  193.0100  174.4140  137.2210 C   0  0  0  0  0  2  0  0  0  0  0  0
  192.7600  176.0080  137.2470 S   0  0  0  0  0  0  0  0  0  0  0  0
  194.2180  173.8380  137.8760 C   0  0  0  0  0  2  0  0  0  0  0  0
  195.1300  174.9090  138.2370 N   0  0  0  0  0  2  0  0  0  0  0  0
  195.9310  174.4180  139.3450 C   0  0  0  0  0  1  0  0  0  0  0  0
  1 16  1  6  0  0  0
  1  5  1  0  0  0  0
  1  4  1  0  0  0  0
  2  3  1  0  0  0  0
  3  8  2  0  0  0  0
  4  2  1  0  0  0  0
  5  7  1  6  0  0  0
  5  6  1  0  0  0  0
  6  7  1  6  0  0  0
  6  3  1  0  0  0  0
  8 15  1  0  0  0  0
  9  8  1  6  0  0  0
  9 12  1  0  0  0  0
  9 10  1  0  0  0  0
 10 11  2  0  0  0  0
 12 10  1  0  0  0  0
 15 14  1  0  0  0  0
 15 13  2  0  0  0  0
 16 22  1  1  0  0  0
 17 19  1  0  0  0  0
 17 18  1  0  0  0  0
 18 16  1  1  0  0  0
 19 20  1  6  0  0  0
 19 18  1  0  0  0  0
 22 21  2  0  0  0  0
 23 24  1  0  0  0  0
 23 25  1  0  0  0  0
 24 22  1  0  0  0  0
 25 26  1  0  0  0  0
 26 27  1  0  0  0  0
M  END
>  <MODEL>
9

>  <REMARK>
 VINA RESULT:      -6.7      4.024      7.544
  Name = 
  8 active torsions:
  status: ('A' for Active; 'I' for Inactive)
    1  A    between atoms: C_1  and  C_24
    2  A    between atoms: C_2  and  C_17
    3  A    between atoms: C_3  and  C_10
    4  A    between atoms: C_10  and  CA_16
    5  A    between atoms: C_10  and  C_25
    6  A    between atoms: S_13  and  C_25
    7  A    between atoms: N_14  and  C_17
    8  A    between atoms: C_24  and  C_27
                            x       y       z     vdW  Elec       q    Type
                         _______ _______ _______ _____ _____    ______ ____

>  <TORSDO>
F 8

$$$$
