=
 OpenBabel11042410423D

 38 40  0  0  1  0  0  0  0  0999 V2000
  191.3400  175.9840  142.7510 O   0  0  0  0  0  0  0  0  0  0  0  0
  190.4760  176.4960  143.5090 C   0  0  0  0  0  0  0  0  0  0  0  0
  189.0900  176.8930  143.0950 C   0  0  1  0  0  3  0  0  0  0  0  0
  191.7950  176.4260  145.7290 N   0  0  0  0  0  2  0  0  0  0  0  0
  190.6640  176.7600  144.9220 C   0  0  0  0  0  0  0  0  0  0  0  0
  187.2860  177.7630  144.6490 C   0  0  0  0  0  3  0  0  0  0  0  0
  191.8390  176.8560  147.0730 N   0  0  0  0  0  2  0  0  0  0  0  0
  188.5340  177.3540  144.4210 C   0  0  0  0  0  0  0  0  0  0  0  0
  189.5600  177.2270  145.4540 C   0  0  0  0  0  0  0  0  0  0  0  0
  190.5130  176.6770  147.6800 C   0  0  0  0  0  2  0  0  0  0  0  0
  189.4490  177.4960  146.9240 C   0  0  0  0  0  2  0  0  0  0  0  0
  186.2620  177.8220  143.5660 C   0  0  0  0  0  2  0  0  0  0  0  0
  185.0180  179.4700  144.9660 C   0  0  0  0  0  1  0  0  0  0  0  0
  184.9060  178.1950  144.1490 C   0  0  1  0  0  3  0  0  0  0  0  0
  183.8190  178.3500  143.0780 C   0  0  1  0  0  3  0  0  0  0  0  0
  182.5550  179.0530  143.5620 C   0  0  0  0  0  1  0  0  0  0  0  0
  184.3380  178.9260  141.7580 C   0  0  0  0  0  2  0  0  0  0  0  0
  183.3830  178.7230  140.5860 C   0  0  2  0  0  3  0  0  0  0  0  0
  184.1710  177.2540  138.0700 C   0  0  2  0  0  3  0  0  0  0  0  0
  182.9420  176.8720  138.9080 C   0  0  0  0  0  2  0  0  0  0  0  0
  184.8600  178.5490  138.5310 C   0  0  0  0  0  2  0  0  0  0  0  0
  183.1630  177.2180  140.3780 C   0  0  0  0  0  2  0  0  0  0  0  0
  183.9130  179.4410  139.3330 C   0  0  0  0  0  2  0  0  0  0  0  0
  182.4890  177.6780  136.2210 N   0  0  0  0  0  2  0  0  0  0  0  0
  184.7020  177.0840  135.7570 O   0  0  0  0  0  0  0  0  0  0  0  0
  183.8160  177.3260  136.6220 C   0  0  0  0  0  0  0  0  0  0  0  0
  182.1000  177.7500  134.8230 C   0  0  0  0  0  1  0  0  0  0  0  0
  189.1510  178.0160  142.1680 N   0  0  0  0  0  2  0  0  0  0  0  0
  190.1260  176.6570  139.0590 C   0  0  0  0  0  3  0  0  0  0  0  0
  188.6930  177.9380  140.8180 C   0  0  0  0  0  0  0  0  0  0  0  0
  189.4080  177.2990  139.9360 C   0  0  0  0  0  0  0  0  0  0  0  0
  187.4180  178.5870  140.3910 C   0  0  0  0  0  1  0  0  0  0  0  0
  189.4960  176.0010  137.9620 N   0  0  0  0  0  2  0  0  0  0  0  0
  188.1540  176.3780  137.5410 C   0  0  2  0  0  3  0  0  0  0  0  0
  187.3630  175.1210  137.2080 C   0  0  0  0  0  1  0  0  0  0  0  0
  189.5080  177.0940  135.5560 C   0  0  0  0  0  1  0  0  0  0  0  0
  188.1620  178.7630  136.7600 C   0  0  0  0  0  1  0  0  0  0  0  0
  188.2180  177.3070  136.3270 C   0  0  0  0  0  3  0  0  0  0  0  0
  1  2  2  0  0  0  0
  2  5  1  0  0  0  0
  3 28  1  6  0  0  0
  3  2  1  0  0  0  0
  3  8  1  0  0  0  0
  4  7  1  0  0  0  0
  5  9  2  0  0  0  0
  5  4  1  0  0  0  0
  7 10  1  0  0  0  0
  8  6  2  0  0  0  0
  8  9  1  0  0  0  0
  9 11  1  0  0  0  0
 11 10  1  0  0  0  0
 12 14  1  0  0  0  0
 12  6  1  0  0  0  0
 14 13  1  6  0  0  0
 15 16  1  1  0  0  0
 15 14  1  0  0  0  0
 17 15  1  0  0  0  0
 18 17  1  1  0  0  0
 19 26  1  6  0  0  0
 19 21  1  0  0  0  0
 19 20  1  0  0  0  0
 20 22  1  0  0  0  0
 21 23  1  0  0  0  0
 22 18  1  0  0  0  0
 23 18  1  0  0  0  0
 24 26  1  0  0  0  0
 25 26  2  0  0  0  0
 27 24  1  0  0  0  0
 29 31  2  0  0  0  0
 30 28  1  0  0  0  0
 31 30  2  0  0  0  0
 32 30  1  0  0  0  0
 33 29  1  0  0  0  0
 34 35  1  6  0  0  0
 34 33  1  0  0  0  0
 36 38  1  0  0  0  0
 38 37  1  0  0  0  0
 38 34  1  0  0  0  0
M  END
>  <MODEL>
1

>  <REMARK>
 VINA RESULT:      -8.4      0.000      0.000
  Name = 
  11 active torsions:
  status: ('A' for Active; 'I' for Inactive)
    1  A    between atoms: C_1  and  C_34
    2  A    between atoms: C_3  and  C_34
    3  A    between atoms: C_3  and  C_37
    4  A    between atoms: C_4  and  N_32
    5  A    between atoms: C_7  and  N_32
    6  A    between atoms: C_7  and  C_38
    7  A    between atoms: C_9  and  N_29
    8  A    between atoms: C_12  and  C_14
    9  A    between atoms: C_13  and  N_29
   10  A    between atoms: C_19  and  C_25
   11  A    between atoms: C_25  and  C_37
                            x       y       z     vdW  Elec       q    Type
                         _______ _______ _______ _____ _____    ______ ____

>  <TORSDO>
F 11

$$$$
=
 OpenBabel11042410423D

 38 40  0  0  1  0  0  0  0  0999 V2000
  188.3040  178.2080  136.9880 O   0  0  0  0  0  0  0  0  0  0  0  0
  188.3340  178.1170  138.2430 C   0  0  0  0  0  0  0  0  0  0  0  0
  189.5610  177.8380  139.0590 C   0  0  1  0  0  3  0  0  0  0  0  0
  185.8660  178.6860  138.7480 N   0  0  0  0  0  0  0  0  0  0  0  0
  187.1910  178.2980  139.1140 C   0  0  0  0  0  0  0  0  0  0  0  0
  189.6670  177.8250  141.5910 C   0  0  0  0  0  2  0  0  0  0  0  0
  184.8530  178.7140  139.7300 N   0  0  0  0  0  2  0  0  0  0  0  0
  188.9840  177.9280  140.4520 C   0  0  0  0  0  0  0  0  0  0  0  0
  187.5530  178.2150  140.3730 C   0  0  0  0  0  0  0  0  0  0  0  0
  185.3970  179.2930  140.9670 C   0  0  0  0  0  2  0  0  0  0  0  0
  186.5820  178.4580  141.4880 C   0  0  0  0  0  2  0  0  0  0  0  0
  191.1390  177.5850  141.6140 C   0  0  0  0  0  2  0  0  0  0  0  0
  191.9320  178.6340  143.7350 C   0  0  0  0  0  1  0  0  0  0  0  0
  191.6040  177.3230  143.0410 C   0  0  1  0  0  3  0  0  0  0  0  0
  190.5820  176.5310  143.8650 C   0  0  1  0  0  3  0  0  0  0  0  0
  190.5260  175.0430  143.5350 C   0  0  0  0  0  1  0  0  0  0  0  0
  190.6750  176.7930  145.3700 C   0  0  0  0  0  2  0  0  0  0  0  0
  189.7070  177.8650  145.8640 C   0  0  2  0  0  3  0  0  0  0  0  0
  186.7560  177.3530  146.2410 C   0  0  2  0  0  3  0  0  0  0  0  0
  187.6560  177.9030  147.3570 C   0  0  0  0  0  2  0  0  0  0  0  0
  187.4540  177.2500  144.8740 C   0  0  0  0  0  2  0  0  0  0  0  0
  189.0880  177.4030  147.1910 C   0  0  0  0  0  2  0  0  0  0  0  0
  188.6620  178.1810  144.7810 C   0  0  0  0  0  2  0  0  0  0  0  0
  184.9370  178.4490  144.8560 N   0  0  0  0  0  2  0  0  0  0  0  0
  184.9380  178.5570  147.1910 O   0  0  0  0  0  0  0  0  0  0  0  0
  185.5010  178.1540  146.1370 C   0  0  0  0  0  0  0  0  0  0  0  0
  183.7220  179.2330  144.7110 C   0  0  0  0  0  1  0  0  0  0  0  0
  190.0290  176.4810  138.8060 N   0  0  0  0  0  2  0  0  0  0  0  0
  193.5350  176.4260  138.3910 C   0  0  0  0  0  3  0  0  0  0  0  0
  191.0070  176.1660  137.8140 C   0  0  0  0  0  0  0  0  0  0  0  0
  192.2710  176.2960  138.1000 C   0  0  0  0  0  0  0  0  0  0  0  0
  190.6110  175.7060  136.4500 C   0  0  0  0  0  1  0  0  0  0  0  0
  194.5000  175.5770  137.7760 N   0  0  0  0  0  2  0  0  0  0  0  0
  194.7080  174.2170  138.2530 C   0  0  2  0  0  3  0  0  0  0  0  0
  195.9730  174.1710  139.0970 C   0  0  0  0  0  1  0  0  0  0  0  0
  195.8320  173.7510  136.0600 C   0  0  0  0  0  1  0  0  0  0  0  0
  193.4770  173.1090  136.3660 C   0  0  0  0  0  1  0  0  0  0  0  0
  194.8160  173.2510  137.0710 C   0  0  0  0  0  3  0  0  0  0  0  0
  1  2  2  0  0  0  0
  2  3  1  0  0  0  0
  2  5  1  0  0  0  0
  3 28  1  6  0  0  0
  3  8  1  0  0  0  0
  4  5  2  0  0  0  0
  4  7  1  0  0  0  0
  5  9  1  0  0  0  0
  6 12  1  0  0  0  0
  7 10  1  0  0  0  0
  8  6  1  0  0  0  0
  9  8  2  0  0  0  0
  9 11  1  0  0  0  0
 10 11  1  0  0  0  0
 12 14  1  0  0  0  0
 14 13  1  1  0  0  0
 14 15  1  0  0  0  0
 15 16  1  1  0  0  0
 15 17  1  0  0  0  0
 18 17  1  6  0  0  0
 18 22  1  0  0  0  0
 19 26  1  6  0  0  0
 19 20  1  0  0  0  0
 21 19  1  0  0  0  0
 22 20  1  0  0  0  0
 23 21  1  0  0  0  0
 23 18  1  0  0  0  0
 24 26  1  0  0  0  0
 26 25  2  0  0  0  0
 27 24  1  0  0  0  0
 30 31  2  0  0  0  0
 30 28  1  0  0  0  0
 31 29  2  0  0  0  0
 32 30  1  0  0  0  0
 33 34  1  0  0  0  0
 33 29  1  0  0  0  0
 34 35  1  6  0  0  0
 36 38  1  0  0  0  0
 37 38  1  0  0  0  0
 38 34  1  0  0  0  0
M  END
>  <MODEL>
2

>  <REMARK>
 VINA RESULT:      -8.2      3.343      7.399
  Name = 
  11 active torsions:
  status: ('A' for Active; 'I' for Inactive)
    1  A    between atoms: C_1  and  C_34
    2  A    between atoms: C_3  and  C_34
    3  A    between atoms: C_3  and  C_37
    4  A    between atoms: C_4  and  N_32
    5  A    between atoms: C_7  and  N_32
    6  A    between atoms: C_7  and  C_38
    7  A    between atoms: C_9  and  N_29
    8  A    between atoms: C_12  and  C_14
    9  A    between atoms: C_13  and  N_29
   10  A    between atoms: C_19  and  C_25
   11  A    between atoms: C_25  and  C_37
                            x       y       z     vdW  Elec       q    Type
                         _______ _______ _______ _____ _____    ______ ____

>  <TORSDO>
F 11

$$$$
=
 OpenBabel11042410423D

 38 40  0  0  1  0  0  0  0  0999 V2000
  190.7470  176.2240  142.6300 O   0  0  0  0  0  0  0  0  0  0  0  0
  190.0460  176.6260  143.5940 C   0  0  0  0  0  0  0  0  0  0  0  0
  188.5950  176.9980  143.5100 C   0  0  1  0  0  3  0  0  0  0  0  0
  191.7950  176.4140  145.4820 N   0  0  0  0  0  0  0  0  0  0  0  0
  190.5150  176.7690  144.9570 C   0  0  0  0  0  0  0  0  0  0  0  0
  187.1290  177.6430  145.4740 C   0  0  0  0  0  2  0  0  0  0  0  0
  192.1050  176.7220  146.8250 N   0  0  0  0  0  2  0  0  0  0  0  0
  188.3130  177.3120  144.9590 C   0  0  0  0  0  0  0  0  0  0  0  0
  189.5320  177.1370  145.7460 C   0  0  0  0  0  0  0  0  0  0  0  0
  190.9370  176.4300  147.6670 C   0  0  0  0  0  2  0  0  0  0  0  0
  189.7210  177.2670  147.2270 C   0  0  0  0  0  2  0  0  0  0  0  0
  185.9030  177.7560  144.6330 C   0  0  0  0  0  2  0  0  0  0  0  0
  185.1550  178.5380  146.8810 C   0  0  0  0  0  1  0  0  0  0  0  0
  184.6990  178.0870  145.5040 C   0  0  1  0  0  3  0  0  0  0  0  0
  183.7840  179.1480  144.8790 C   0  0  1  0  0  3  0  0  0  0  0  0
  184.5190  180.2190  144.0800 C   0  0  0  0  0  1  0  0  0  0  0  0
  182.5980  178.5570  144.1120 C   0  0  0  0  0  2  0  0  0  0  0  0
  182.1870  179.3820  142.8960 C   0  0  2  0  0  3  0  0  0  0  0  0
  180.2900  178.3490  140.7870 C   0  0  2  0  0  3  0  0  0  0  0  0
  180.0640  179.6710  141.5370 C   0  0  0  0  0  2  0  0  0  0  0  0
  181.6480  177.6910  141.0830 C   0  0  0  0  0  2  0  0  0  0  0  0
  180.6690  179.6060  142.9370 C   0  0  0  0  0  2  0  0  0  0  0  0
  182.6680  178.7030  141.6020 C   0  0  0  0  0  2  0  0  0  0  0  0
  179.9310  179.8540  138.7790 N   0  0  0  0  0  2  0  0  0  0  0  0
  180.1030  177.5330  138.5600 O   0  0  0  0  0  0  0  0  0  0  0  0
  180.1010  178.5410  139.3190 C   0  0  0  0  0  0  0  0  0  0  0  0
  179.7340  180.0830  137.3580 C   0  0  0  0  0  1  0  0  0  0  0  0
  188.4360  178.2020  142.7040 N   0  0  0  0  0  2  0  0  0  0  0  0
  189.3200  177.4150  139.3770 C   0  0  0  0  0  3  0  0  0  0  0  0
  187.8660  178.1940  141.3940 C   0  0  0  0  0  0  0  0  0  0  0  0
  188.5910  177.8060  140.3840 C   0  0  0  0  0  0  0  0  0  0  0  0
  186.4600  178.6360  141.1560 C   0  0  0  0  0  1  0  0  0  0  0  0
  188.7090  176.7820  138.2570 N   0  0  0  0  0  2  0  0  0  0  0  0
  188.5540  177.4900  136.9940 C   0  0  2  0  0  3  0  0  0  0  0  0
  188.9950  178.9360  137.1740 C   0  0  0  0  0  1  0  0  0  0  0  0
  186.9550  178.0480  135.1450 C   0  0  0  0  0  1  0  0  0  0  0  0
  186.1910  178.1820  137.4790 C   0  0  0  0  0  1  0  0  0  0  0  0
  187.1000  177.4280  136.5240 C   0  0  0  0  0  3  0  0  0  0  0  0
  1  2  2  0  0  0  0
  2  5  1  0  0  0  0
  3 28  1  6  0  0  0
  3  2  1  0  0  0  0
  3  8  1  0  0  0  0
  4  7  1  0  0  0  0
  5  4  2  0  0  0  0
  5  9  1  0  0  0  0
  7 10  1  0  0  0  0
  8  6  1  0  0  0  0
  8  9  2  0  0  0  0
  9 11  1  0  0  0  0
 11 10  1  0  0  0  0
 12  6  1  0  0  0  0
 12 14  1  0  0  0  0
 14 13  1  1  0  0  0
 15 16  1  6  0  0  0
 15 14  1  0  0  0  0
 17 15  1  0  0  0  0
 18 22  1  0  0  0  0
 18 17  1  1  0  0  0
 19 26  1  6  0  0  0
 19 21  1  0  0  0  0
 19 20  1  0  0  0  0
 20 22  1  0  0  0  0
 21 23  1  0  0  0  0
 23 18  1  0  0  0  0
 24 26  1  0  0  0  0
 25 26  2  0  0  0  0
 27 24  1  0  0  0  0
 29 31  2  0  0  0  0
 30 28  1  0  0  0  0
 31 30  2  0  0  0  0
 32 30  1  0  0  0  0
 33 29  1  0  0  0  0
 34 35  1  1  0  0  0
 34 33  1  0  0  0  0
 36 38  1  0  0  0  0
 38 34  1  0  0  0  0
 38 37  1  0  0  0  0
M  END
>  <MODEL>
3

>  <REMARK>
 VINA RESULT:      -8.1      1.881      2.578
  Name = 
  11 active torsions:
  status: ('A' for Active; 'I' for Inactive)
    1  A    between atoms: C_1  and  C_34
    2  A    between atoms: C_3  and  C_34
    3  A    between atoms: C_3  and  C_37
    4  A    between atoms: C_4  and  N_32
    5  A    between atoms: C_7  and  N_32
    6  A    between atoms: C_7  and  C_38
    7  A    between atoms: C_9  and  N_29
    8  A    between atoms: C_12  and  C_14
    9  A    between atoms: C_13  and  N_29
   10  A    between atoms: C_19  and  C_25
   11  A    between atoms: C_25  and  C_37
                            x       y       z     vdW  Elec       q    Type
                         _______ _______ _______ _____ _____    ______ ____

>  <TORSDO>
F 11

$$$$
=
 OpenBabel11042410423D

 38 40  0  0  1  0  0  0  0  0999 V2000
  182.9460  179.7580  143.3380 O   0  0  0  0  0  0  0  0  0  0  0  0
  184.0970  179.2590  143.4310 C   0  0  0  0  0  0  0  0  0  0  0  0
  185.0790  179.1390  142.3030 C   0  0  1  0  0  3  0  0  0  0  0  0
  184.1260  178.7760  145.9680 N   0  0  0  0  0  2  0  0  0  0  0  0
  184.6830  178.7450  144.6530 C   0  0  0  0  0  0  0  0  0  0  0  0
  187.4610  178.2980  142.5140 C   0  0  0  0  0  3  0  0  0  0  0  0
  184.8050  178.1320  147.0250 N   0  0  0  0  0  2  0  0  0  0  0  0
  186.2620  178.5540  143.0370 C   0  0  0  0  0  0  0  0  0  0  0  0
  185.9200  178.3620  144.4450 C   0  0  0  0  0  0  0  0  0  0  0  0
  186.2450  178.4000  146.9060 C   0  0  0  0  0  2  0  0  0  0  0  0
  186.7910  177.8760  145.5640 C   0  0  0  0  0  2  0  0  0  0  0  0
  187.7720  178.5640  141.0800 C   0  0  0  0  0  2  0  0  0  0  0  0
  188.0640  177.2960  138.9510 C   0  0  0  0  0  1  0  0  0  0  0  0
  188.3750  177.3210  140.4370 C   0  0  1  0  0  3  0  0  0  0  0  0
  189.8880  177.2090  140.6610 C   0  0  1  0  0  3  0  0  0  0  0  0
  190.7100  177.1440  139.3780 C   0  0  0  0  0  1  0  0  0  0  0  0
  190.4370  178.2340  141.6560 C   0  0  0  0  0  2  0  0  0  0  0  0
  191.3520  177.6270  142.7160 C   0  0  2  0  0  3  0  0  0  0  0  0
  190.3670  176.8090  145.4490 C   0  0  2  0  0  3  0  0  0  0  0  0
  191.1130  175.8490  144.5100 C   0  0  0  0  0  2  0  0  0  0  0  0
  190.3190  178.2610  144.9440 C   0  0  0  0  0  2  0  0  0  0  0  0
  190.8540  176.2130  143.0510 C   0  0  0  0  0  2  0  0  0  0  0  0
  191.4350  178.5500  143.9420 C   0  0  0  0  0  2  0  0  0  0  0  0
  192.2040  176.1190  147.0540 N   0  0  0  0  0  2  0  0  0  0  0  0
  190.2960  177.2550  147.7850 O   0  0  0  0  0  0  0  0  0  0  0  0
  190.9380  176.7440  146.8270 C   0  0  0  0  0  0  0  0  0  0  0  0
  192.7910  176.0260  148.3800 C   0  0  0  0  0  1  0  0  0  0  0  0
  184.5890  178.1850  141.3170 N   0  0  0  0  0  2  0  0  0  0  0  0
  181.2950  178.8360  140.2230 C   0  0  0  0  0  3  0  0  0  0  0  0
  183.8870  178.5750  140.1360 C   0  0  0  0  0  0  0  0  0  0  0  0
  182.5910  178.7050  140.1770 C   0  0  0  0  0  0  0  0  0  0  0  0
  184.6050  178.8240  138.8510 C   0  0  0  0  0  1  0  0  0  0  0  0
  180.6430  179.7830  139.3820 N   0  0  0  0  0  2  0  0  0  0  0  0
  181.3300  180.3600  138.2360 C   0  0  2  0  0  3  0  0  0  0  0  0
  181.2730  181.8770  138.3290 C   0  0  0  0  0  1  0  0  0  0  0  0
  181.4270  178.6710  136.3850 C   0  0  0  0  0  1  0  0  0  0  0  0
  180.7230  180.9720  135.8790 C   0  0  0  0  0  1  0  0  0  0  0  0
  180.6880  179.8790  136.9330 C   0  0  0  0  0  3  0  0  0  0  0  0
  1  2  2  0  0  0  0
  2  5  1  0  0  0  0
  3 28  1  6  0  0  0
  3  8  1  0  0  0  0
  3  2  1  0  0  0  0
  4  7  1  0  0  0  0
  5  4  1  0  0  0  0
  6  8  2  0  0  0  0
  8  9  1  0  0  0  0
  9  5  2  0  0  0  0
  9 11  1  0  0  0  0
 10  7  1  0  0  0  0
 11 10  1  0  0  0  0
 12  6  1  0  0  0  0
 14 13  1  6  0  0  0
 14 15  1  0  0  0  0
 14 12  1  0  0  0  0
 15 16  1  6  0  0  0
 15 17  1  0  0  0  0
 18 17  1  6  0  0  0
 18 22  1  0  0  0  0
 18 23  1  0  0  0  0
 19 26  1  1  0  0  0
 20 19  1  0  0  0  0
 21 19  1  0  0  0  0
 22 20  1  0  0  0  0
 23 21  1  0  0  0  0
 24 27  1  0  0  0  0
 26 24  1  0  0  0  0
 26 25  2  0  0  0  0
 30 31  2  0  0  0  0
 30 28  1  0  0  0  0
 31 29  2  0  0  0  0
 32 30  1  0  0  0  0
 33 29  1  0  0  0  0
 34 35  1  1  0  0  0
 34 33  1  0  0  0  0
 36 38  1  0  0  0  0
 37 38  1  0  0  0  0
 38 34  1  0  0  0  0
M  END
>  <MODEL>
4

>  <REMARK>
 VINA RESULT:      -8.0      2.892      8.229
  Name = 
  11 active torsions:
  status: ('A' for Active; 'I' for Inactive)
    1  A    between atoms: C_1  and  C_34
    2  A    between atoms: C_3  and  C_34
    3  A    between atoms: C_3  and  C_37
    4  A    between atoms: C_4  and  N_32
    5  A    between atoms: C_7  and  N_32
    6  A    between atoms: C_7  and  C_38
    7  A    between atoms: C_9  and  N_29
    8  A    between atoms: C_12  and  C_14
    9  A    between atoms: C_13  and  N_29
   10  A    between atoms: C_19  and  C_25
   11  A    between atoms: C_25  and  C_37
                            x       y       z     vdW  Elec       q    Type
                         _______ _______ _______ _____ _____    ______ ____

>  <TORSDO>
F 11

$$$$
=
 OpenBabel11042410423D

 38 40  0  0  1  0  0  0  0  0999 V2000
  191.5000  175.8320  142.9730 O   0  0  0  0  0  0  0  0  0  0  0  0
  190.6600  176.3950  143.7210 C   0  0  0  0  0  0  0  0  0  0  0  0
  189.2860  176.8300  143.3020 C   0  0  1  0  0  3  0  0  0  0  0  0
  191.9870  176.3380  145.9360 N   0  0  0  0  0  2  0  0  0  0  0  0
  190.8650  176.6900  145.1250 C   0  0  0  0  0  0  0  0  0  0  0  0
  187.5240  177.8060  144.8400 C   0  0  0  0  0  3  0  0  0  0  0  0
  192.0550  176.8020  147.2670 N   0  0  0  0  0  2  0  0  0  0  0  0
  188.7550  177.3470  144.6180 C   0  0  0  0  0  0  0  0  0  0  0  0
  189.7810  177.2110  145.6490 C   0  0  0  0  0  0  0  0  0  0  0  0
  190.7270  176.6880  147.8850 C   0  0  0  0  0  2  0  0  0  0  0  0
  189.6890  177.5240  147.1120 C   0  0  0  0  0  2  0  0  0  0  0  0
  186.4960  177.8730  143.7610 C   0  0  0  0  0  2  0  0  0  0  0  0
  185.1580  178.7320  145.6830 C   0  0  0  0  0  1  0  0  0  0  0  0
  185.1040  177.9720  144.3700 C   0  0  1  0  0  3  0  0  0  0  0  0
  184.0860  178.6230  143.4260 C   0  0  1  0  0  3  0  0  0  0  0  0
  183.2470  179.7230  144.0680 C   0  0  0  0  0  1  0  0  0  0  0  0
  184.6830  179.0530  142.0840 C   0  0  0  0  0  2  0  0  0  0  0  0
  184.1700  178.2390  140.8990 C   0  0  2  0  0  3  0  0  0  0  0  0
  182.0340  179.2540  139.0230 C   0  0  2  0  0  3  0  0  0  0  0  0
  183.4060  178.7640  138.5370 C   0  0  0  0  0  2  0  0  0  0  0  0
  181.7860  179.0210  140.5230 C   0  0  0  0  0  2  0  0  0  0  0  0
  184.4720  179.0040  139.6020 C   0  0  0  0  0  2  0  0  0  0  0  0
  182.6780  177.9130  141.0800 C   0  0  0  0  0  2  0  0  0  0  0  0
  180.9940  177.2690  137.8380 N   0  0  0  0  0  2  0  0  0  0  0  0
  179.9680  179.3690  137.8480 O   0  0  0  0  0  0  0  0  0  0  0  0
  180.9420  178.6500  138.2040 C   0  0  0  0  0  0  0  0  0  0  0  0
  179.9570  176.6450  137.0330 C   0  0  0  0  0  1  0  0  0  0  0  0
  189.3820  177.9250  142.3450 N   0  0  0  0  0  2  0  0  0  0  0  0
  190.9550  176.5500  139.4980 C   0  0  0  0  0  3  0  0  0  0  0  0
  189.1550  177.7580  140.9450 C   0  0  0  0  0  0  0  0  0  0  0  0
  190.0540  177.1550  140.2190 C   0  0  0  0  0  0  0  0  0  0  0  0
  187.9160  178.2730  140.2910 C   0  0  0  0  0  1  0  0  0  0  0  0
  190.5670  175.8020  138.3500 N   0  0  0  0  0  2  0  0  0  0  0  0
  191.5640  175.1500  137.5130 C   0  0  2  0  0  3  0  0  0  0  0  0
  191.8190  176.0040  136.2810 C   0  0  0  0  0  1  0  0  0  0  0  0
  191.8070  173.2830  135.8570 C   0  0  0  0  0  1  0  0  0  0  0  0
  189.5960  173.7540  136.8240 C   0  0  0  0  0  1  0  0  0  0  0  0
  191.0880  173.7530  137.1090 C   0  0  0  0  0  3  0  0  0  0  0  0
  1  2  2  0  0  0  0
  2  5  1  0  0  0  0
  3 28  1  6  0  0  0
  3  2  1  0  0  0  0
  3  8  1  0  0  0  0
  4  7  1  0  0  0  0
  5  9  2  0  0  0  0
  5  4  1  0  0  0  0
  7 10  1  0  0  0  0
  8  6  2  0  0  0  0
  8  9  1  0  0  0  0
  9 11  1  0  0  0  0
 11 10  1  0  0  0  0
 12 14  1  0  0  0  0
 12  6  1  0  0  0  0
 14 13  1  1  0  0  0
 15 16  1  1  0  0  0
 15 14  1  0  0  0  0
 17 15  1  0  0  0  0
 18 23  1  0  0  0  0
 18 17  1  1  0  0  0
 19 26  1  6  0  0  0
 19 21  1  0  0  0  0
 20 19  1  0  0  0  0
 20 22  1  0  0  0  0
 21 23  1  0  0  0  0
 22 18  1  0  0  0  0
 24 26  1  0  0  0  0
 25 26  2  0  0  0  0
 27 24  1  0  0  0  0
 29 31  2  0  0  0  0
 30 28  1  0  0  0  0
 31 30  2  0  0  0  0
 32 30  1  0  0  0  0
 33 29  1  0  0  0  0
 34 35  1  6  0  0  0
 34 33  1  0  0  0  0
 36 38  1  0  0  0  0
 37 38  1  0  0  0  0
 38 34  1  0  0  0  0
M  END
>  <MODEL>
5

>  <REMARK>
 VINA RESULT:      -7.6      1.829      2.358
  Name = 
  11 active torsions:
  status: ('A' for Active; 'I' for Inactive)
    1  A    between atoms: C_1  and  C_34
    2  A    between atoms: C_3  and  C_34
    3  A    between atoms: C_3  and  C_37
    4  A    between atoms: C_4  and  N_32
    5  A    between atoms: C_7  and  N_32
    6  A    between atoms: C_7  and  C_38
    7  A    between atoms: C_9  and  N_29
    8  A    between atoms: C_12  and  C_14
    9  A    between atoms: C_13  and  N_29
   10  A    between atoms: C_19  and  C_25
   11  A    between atoms: C_25  and  C_37
                            x       y       z     vdW  Elec       q    Type
                         _______ _______ _______ _____ _____    ______ ____

>  <TORSDO>
F 11

$$$$
=
 OpenBabel11042410423D

 38 40  0  0  1  0  0  0  0  0999 V2000
  188.8510  175.4440  137.2680 O   0  0  0  0  0  0  0  0  0  0  0  0
  189.8590  175.9000  137.8680 C   0  0  0  0  0  0  0  0  0  0  0  0
  189.8240  176.6530  139.1650 C   0  0  1  0  0  3  0  0  0  0  0  0
  191.7040  175.0000  136.3010 N   0  0  0  0  0  0  0  0  0  0  0  0
  191.2290  175.7450  137.4230 C   0  0  0  0  0  0  0  0  0  0  0  0
  191.8560  177.4230  140.4700 C   0  0  0  0  0  2  0  0  0  0  0  0
  193.0740  175.0480  135.9640 N   0  0  0  0  0  2  0  0  0  0  0  0
  191.3020  176.8530  139.4000 C   0  0  0  0  0  0  0  0  0  0  0  0
  192.0590  176.2640  138.2970 C   0  0  0  0  0  0  0  0  0  0  0  0
  193.8750  174.9790  137.1940 C   0  0  0  0  0  2  0  0  0  0  0  0
  193.5450  176.1580  138.1300 C   0  0  0  0  0  2  0  0  0  0  0  0
  191.0360  177.9610  141.5940 C   0  0  0  0  0  2  0  0  0  0  0  0
  192.0550  178.4530  143.8180 C   0  0  0  0  0  1  0  0  0  0  0  0
  191.5040  177.3640  142.9150 C   0  0  1  0  0  3  0  0  0  0  0  0
  190.4000  176.5850  143.6410 C   0  0  1  0  0  3  0  0  0  0  0  0
  190.2790  175.1250  143.2190 C   0  0  0  0  0  1  0  0  0  0  0  0
  190.4330  176.7530  145.1620 C   0  0  0  0  0  2  0  0  0  0  0  0
  189.5180  177.8620  145.6730 C   0  0  2  0  0  3  0  0  0  0  0  0
  186.5420  177.4920  146.0240 C   0  0  2  0  0  3  0  0  0  0  0  0
  187.4620  177.9730  147.1570 C   0  0  0  0  0  2  0  0  0  0  0  0
  187.2420  177.3820  144.6590 C   0  0  0  0  0  2  0  0  0  0  0  0
  188.8680  177.4040  146.9870 C   0  0  0  0  0  2  0  0  0  0  0  0
  188.4960  178.2530  144.5920 C   0  0  0  0  0  2  0  0  0  0  0  0
  184.6550  178.5210  144.6800 N   0  0  0  0  0  2  0  0  0  0  0  0
  184.9010  178.9330  146.9680 O   0  0  0  0  0  0  0  0  0  0  0  0
  185.3290  178.3570  145.9310 C   0  0  0  0  0  0  0  0  0  0  0  0
  183.4770  179.3610  144.5440 C   0  0  0  0  0  1  0  0  0  0  0  0
  189.1770  177.9450  138.9720 N   0  0  0  0  0  2  0  0  0  0  0  0
  185.8030  178.2390  137.9700 C   0  0  0  0  0  3  0  0  0  0  0  0
  187.8970  178.2640  139.5210 C   0  0  0  0  0  0  0  0  0  0  0  0
  186.8490  178.2530  138.7470 C   0  0  0  0  0  0  0  0  0  0  0  0
  187.7370  178.6260  140.9600 C   0  0  0  0  0  1  0  0  0  0  0  0
  184.5240  177.9050  138.5000 N   0  0  0  0  0  2  0  0  0  0  0  0
  183.8490  178.7960  139.4330 C   0  0  2  0  0  3  0  0  0  0  0  0
  183.8420  178.1600  140.8150 C   0  0  0  0  0  1  0  0  0  0  0  0
  182.2150  180.5580  138.7180 C   0  0  0  0  0  1  0  0  0  0  0  0
  181.4120  178.6250  140.0090 C   0  0  0  0  0  1  0  0  0  0  0  0
  182.4200  179.0740  138.9640 C   0  0  0  0  0  3  0  0  0  0  0  0
  1  2  2  0  0  0  0
  2  3  1  0  0  0  0
  3 28  1  6  0  0  0
  3  8  1  0  0  0  0
  4  5  2  0  0  0  0
  5  2  1  0  0  0  0
  5  9  1  0  0  0  0
  6 12  1  0  0  0  0
  7  4  1  0  0  0  0
  7 10  1  0  0  0  0
  8  6  1  0  0  0  0
  9  8  2  0  0  0  0
 10 11  1  0  0  0  0
 11  9  1  0  0  0  0
 12 14  1  0  0  0  0
 14 15  1  0  0  0  0
 14 13  1  1  0  0  0
 15 16  1  1  0  0  0
 15 17  1  0  0  0  0
 18 17  1  6  0  0  0
 18 22  1  0  0  0  0
 19 26  1  6  0  0  0
 19 20  1  0  0  0  0
 21 19  1  0  0  0  0
 22 20  1  0  0  0  0
 23 21  1  0  0  0  0
 23 18  1  0  0  0  0
 24 26  1  0  0  0  0
 26 25  2  0  0  0  0
 27 24  1  0  0  0  0
 28 30  1  0  0  0  0
 29 33  1  0  0  0  0
 29 31  2  0  0  0  0
 30 32  1  0  0  0  0
 31 30  2  0  0  0  0
 33 34  1  0  0  0  0
 34 35  1  1  0  0  0
 36 38  1  0  0  0  0
 38 34  1  0  0  0  0
 38 37  1  0  0  0  0
M  END
>  <MODEL>
6

>  <REMARK>
 VINA RESULT:      -7.6      2.773      7.454
  Name = 
  11 active torsions:
  status: ('A' for Active; 'I' for Inactive)
    1  A    between atoms: C_1  and  C_34
    2  A    between atoms: C_3  and  C_34
    3  A    between atoms: C_3  and  C_37
    4  A    between atoms: C_4  and  N_32
    5  A    between atoms: C_7  and  N_32
    6  A    between atoms: C_7  and  C_38
    7  A    between atoms: C_9  and  N_29
    8  A    between atoms: C_12  and  C_14
    9  A    between atoms: C_13  and  N_29
   10  A    between atoms: C_19  and  C_25
   11  A    between atoms: C_25  and  C_37
                            x       y       z     vdW  Elec       q    Type
                         _______ _______ _______ _____ _____    ______ ____

>  <TORSDO>
F 11

$$$$
=
 OpenBabel11042410423D

 38 40  0  0  1  0  0  0  0  0999 V2000
  190.6860  176.3650  144.5140 O   0  0  0  0  0  0  0  0  0  0  0  0
  189.5800  176.9080  144.7720 C   0  0  0  0  0  0  0  0  0  0  0  0
  188.4750  177.1290  143.7810 C   0  0  1  0  0  3  0  0  0  0  0  0
  189.8850  177.2600  147.3120 N   0  0  0  0  0  2  0  0  0  0  0  0
  189.1750  177.3830  146.0790 C   0  0  0  0  0  0  0  0  0  0  0  0
  186.1820  178.0610  144.3240 C   0  0  0  0  0  3  0  0  0  0  0  0
  189.3730  177.8780  148.4740 N   0  0  0  0  0  2  0  0  0  0  0  0
  187.4220  177.7270  144.6820 C   0  0  0  0  0  0  0  0  0  0  0  0
  187.9410  177.8300  146.0440 C   0  0  0  0  0  0  0  0  0  0  0  0
  187.9180  177.6800  148.5220 C   0  0  0  0  0  2  0  0  0  0  0  0
  187.2390  178.2950  147.2840 C   0  0  0  0  0  2  0  0  0  0  0  0
  185.6850  177.8840  142.9290 C   0  0  0  0  0  2  0  0  0  0  0  0
  183.8370  179.1780  143.9940 C   0  0  0  0  0  1  0  0  0  0  0  0
  184.2100  178.2530  142.8490 C   0  0  1  0  0  3  0  0  0  0  0  0
  183.8270  178.8920  141.5080 C   0  0  1  0  0  3  0  0  0  0  0  0
  184.9790  179.0030  140.5140 C   0  0  0  0  0  1  0  0  0  0  0  0
  182.5690  178.2900  140.8800 C   0  0  0  0  0  2  0  0  0  0  0  0
  182.8220  177.6130  139.5360 C   0  0  2  0  0  3  0  0  0  0  0  0
  180.7040  176.0310  138.0790 C   0  0  2  0  0  3  0  0  0  0  0  0
  181.4640  177.1990  137.4330 C   0  0  0  0  0  2  0  0  0  0  0  0
  181.2360  175.6340  139.4660 C   0  0  0  0  0  2  0  0  0  0  0  0
  181.8790  178.2210  138.4870 C   0  0  0  0  0  2  0  0  0  0  0  0
  182.6810  176.0880  139.6710 C   0  0  0  0  0  2  0  0  0  0  0  0
  179.6880  173.8320  137.3310 N   0  0  0  0  0  2  0  0  0  0  0  0
  181.5270  174.7720  136.2350 O   0  0  0  0  0  0  0  0  0  0  0  0
  180.6770  174.8520  137.1630 C   0  0  0  0  0  0  0  0  0  0  0  0
  179.6330  172.6640  136.4680 C   0  0  0  0  0  1  0  0  0  0  0  0
  188.8890  178.1110  142.7860 N   0  0  0  0  0  2  0  0  0  0  0  0
  187.9270  177.8710  139.3970 C   0  0  0  0  0  3  0  0  0  0  0  0
  189.4370  177.7510  141.5170 C   0  0  0  0  0  0  0  0  0  0  0  0
  188.6840  177.8090  140.4560 C   0  0  0  0  0  0  0  0  0  0  0  0
  190.8520  177.2950  141.3830 C   0  0  0  0  0  1  0  0  0  0  0  0
  188.4990  178.1640  138.1260 N   0  0  0  0  0  2  0  0  0  0  0  0
  187.9380  177.5970  136.9080 C   0  0  2  0  0  3  0  0  0  0  0  0
  187.3610  178.7160  136.0540 C   0  0  0  0  0  1  0  0  0  0  0  0
  187.0680  175.2870  136.4660 C   0  0  0  0  0  1  0  0  0  0  0  0
  185.4760  177.1080  136.9090 C   0  0  0  0  0  1  0  0  0  0  0  0
  186.8560  176.5700  137.2490 C   0  0  0  0  0  3  0  0  0  0  0  0
  1  2  2  0  0  0  0
  2  5  1  0  0  0  0
  3 28  1  6  0  0  0
  3  8  1  0  0  0  0
  3  2  1  0  0  0  0
  4  7  1  0  0  0  0
  5  4  1  0  0  0  0
  6  8  2  0  0  0  0
  7 10  1  0  0  0  0
  8  9  1  0  0  0  0
  9  5  2  0  0  0  0
  9 11  1  0  0  0  0
 11 10  1  0  0  0  0
 12  6  1  0  0  0  0
 14 12  1  0  0  0  0
 14 13  1  1  0  0  0
 15 16  1  6  0  0  0
 15 14  1  0  0  0  0
 17 15  1  0  0  0  0
 18 23  1  0  0  0  0
 18 17  1  1  0  0  0
 19 26  1  6  0  0  0
 19 21  1  0  0  0  0
 20 19  1  0  0  0  0
 20 22  1  0  0  0  0
 21 23  1  0  0  0  0
 22 18  1  0  0  0  0
 25 26  2  0  0  0  0
 26 24  1  0  0  0  0
 27 24  1  0  0  0  0
 29 31  2  0  0  0  0
 30 28  1  0  0  0  0
 31 30  2  0  0  0  0
 32 30  1  0  0  0  0
 33 29  1  0  0  0  0
 34 35  1  6  0  0  0
 34 38  1  0  0  0  0
 34 33  1  0  0  0  0
 36 38  1  0  0  0  0
 37 38  1  0  0  0  0
M  END
>  <MODEL>
7

>  <REMARK>
 VINA RESULT:      -7.6      2.086      2.792
  Name = 
  11 active torsions:
  status: ('A' for Active; 'I' for Inactive)
    1  A    between atoms: C_1  and  C_34
    2  A    between atoms: C_3  and  C_34
    3  A    between atoms: C_3  and  C_37
    4  A    between atoms: C_4  and  N_32
    5  A    between atoms: C_7  and  N_32
    6  A    between atoms: C_7  and  C_38
    7  A    between atoms: C_9  and  N_29
    8  A    between atoms: C_12  and  C_14
    9  A    between atoms: C_13  and  N_29
   10  A    between atoms: C_19  and  C_25
   11  A    between atoms: C_25  and  C_37
                            x       y       z     vdW  Elec       q    Type
                         _______ _______ _______ _____ _____    ______ ____

>  <TORSDO>
F 11

$$$$
=
 OpenBabel11042410423D

 38 40  0  0  1  0  0  0  0  0999 V2000
  182.5940  179.5280  143.4310 O   0  0  0  0  0  0  0  0  0  0  0  0
  183.7830  179.1190  143.4640 C   0  0  0  0  0  0  0  0  0  0  0  0
  184.6950  179.0200  142.2770 C   0  0  1  0  0  3  0  0  0  0  0  0
  184.0150  178.7540  146.0110 N   0  0  0  0  0  2  0  0  0  0  0  0
  184.4850  178.7040  144.6620 C   0  0  0  0  0  0  0  0  0  0  0  0
  187.1420  178.3640  142.3570 C   0  0  0  0  0  3  0  0  0  0  0  0
  184.8080  178.2080  147.0430 N   0  0  0  0  0  2  0  0  0  0  0  0
  185.9640  178.5550  142.9510 C   0  0  0  0  0  0  0  0  0  0  0  0
  185.7310  178.4020  144.3850 C   0  0  0  0  0  0  0  0  0  0  0  0
  186.2130  178.5740  146.8150 C   0  0  0  0  0  2  0  0  0  0  0  0
  186.7080  178.0320  145.4600 C   0  0  0  0  0  2  0  0  0  0  0  0
  187.3380  178.5860  140.8950 C   0  0  0  0  0  2  0  0  0  0  0  0
  188.1640  177.5440  138.7840 C   0  0  0  0  0  1  0  0  0  0  0  0
  188.1640  177.4540  140.3000 C   0  0  1  0  0  3  0  0  0  0  0  0
  189.6050  177.4280  140.8260 C   0  0  1  0  0  3  0  0  0  0  0  0
  190.6720  177.4420  139.7360 C   0  0  0  0  0  1  0  0  0  0  0  0
  189.8760  178.4620  141.9210 C   0  0  0  0  0  2  0  0  0  0  0  0
  190.9630  178.0390  142.9040 C   0  0  2  0  0  3  0  0  0  0  0  0
  190.3500  176.7730  145.5750 C   0  0  2  0  0  3  0  0  0  0  0  0
  191.2810  176.1250  144.5390 C   0  0  0  0  0  2  0  0  0  0  0  0
  189.8970  178.1940  145.2010 C   0  0  0  0  0  2  0  0  0  0  0  0
  190.8730  176.5220  143.1240 C   0  0  0  0  0  2  0  0  0  0  0  0
  190.8530  178.8510  144.2050 C   0  0  0  0  0  2  0  0  0  0  0  0
  192.1690  175.9990  147.1610 N   0  0  0  0  0  2  0  0  0  0  0  0
  190.4490  177.4180  147.8630 O   0  0  0  0  0  0  0  0  0  0  0  0
  190.9770  176.7540  146.9290 C   0  0  0  0  0  0  0  0  0  0  0  0
  192.8050  175.9450  148.4660 C   0  0  0  0  0  1  0  0  0  0  0  0
  184.2140  177.9890  141.3660 N   0  0  0  0  0  2  0  0  0  0  0  0
  184.8240  177.7790  137.8940 C   0  0  0  0  0  3  0  0  0  0  0  0
  183.5740  178.2840  140.1240 C   0  0  0  0  0  0  0  0  0  0  0  0
  184.1970  178.0330  139.0080 C   0  0  0  0  0  0  0  0  0  0  0  0
  182.2090  178.8880  140.0770 C   0  0  0  0  0  1  0  0  0  0  0  0
  184.0890  177.4310  136.7240 N   0  0  0  0  0  2  0  0  0  0  0  0
  184.4600  176.2670  135.9310 C   0  0  2  0  0  3  0  0  0  0  0  0
  183.2000  175.5200  135.5200 C   0  0  0  0  0  1  0  0  0  0  0  0
  186.7580  175.2750  136.0790 C   0  0  0  0  0  1  0  0  0  0  0  0
  184.8230  173.9440  136.8080 C   0  0  0  0  0  1  0  0  0  0  0  0
  185.3890  175.3520  136.7310 C   0  0  0  0  0  3  0  0  0  0  0  0
  1  2  2  0  0  0  0
  2  5  1  0  0  0  0
  3 28  1  6  0  0  0
  3  8  1  0  0  0  0
  3  2  1  0  0  0  0
  4  7  1  0  0  0  0
  5  4  1  0  0  0  0
  6  8  2  0  0  0  0
  8  9  1  0  0  0  0
  9  5  2  0  0  0  0
  9 11  1  0  0  0  0
 10  7  1  0  0  0  0
 11 10  1  0  0  0  0
 12  6  1  0  0  0  0
 14 13  1  6  0  0  0
 14 15  1  0  0  0  0
 14 12  1  0  0  0  0
 15 16  1  6  0  0  0
 15 17  1  0  0  0  0
 18 17  1  6  0  0  0
 18 22  1  0  0  0  0
 18 23  1  0  0  0  0
 19 26  1  1  0  0  0
 20 19  1  0  0  0  0
 21 19  1  0  0  0  0
 22 20  1  0  0  0  0
 23 21  1  0  0  0  0
 24 27  1  0  0  0  0
 26 24  1  0  0  0  0
 26 25  2  0  0  0  0
 29 31  2  0  0  0  0
 30 28  1  0  0  0  0
 31 30  2  0  0  0  0
 32 30  1  0  0  0  0
 33 29  1  0  0  0  0
 34 35  1  1  0  0  0
 34 33  1  0  0  0  0
 34 38  1  0  0  0  0
 36 38  1  0  0  0  0
 38 37  1  0  0  0  0
M  END
>  <MODEL>
8

>  <REMARK>
 VINA RESULT:      -7.5      2.694      7.649
  Name = 
  11 active torsions:
  status: ('A' for Active; 'I' for Inactive)
    1  A    between atoms: C_1  and  C_34
    2  A    between atoms: C_3  and  C_34
    3  A    between atoms: C_3  and  C_37
    4  A    between atoms: C_4  and  N_32
    5  A    between atoms: C_7  and  N_32
    6  A    between atoms: C_7  and  C_38
    7  A    between atoms: C_9  and  N_29
    8  A    between atoms: C_12  and  C_14
    9  A    between atoms: C_13  and  N_29
   10  A    between atoms: C_19  and  C_25
   11  A    between atoms: C_25  and  C_37
                            x       y       z     vdW  Elec       q    Type
                         _______ _______ _______ _____ _____    ______ ____

>  <TORSDO>
F 11

$$$$
=
 OpenBabel11042410423D

 38 40  0  0  1  0  0  0  0  0999 V2000
  190.7300  176.1290  143.2250 O   0  0  0  0  0  0  0  0  0  0  0  0
  189.6880  176.6660  143.6810 C   0  0  0  0  0  0  0  0  0  0  0  0
  188.4660  176.9990  142.8780 C   0  0  1  0  0  3  0  0  0  0  0  0
  190.3470  176.7710  146.1760 N   0  0  0  0  0  2  0  0  0  0  0  0
  189.4790  177.0230  145.0700 C   0  0  0  0  0  0  0  0  0  0  0  0
  186.2990  177.9190  143.8150 C   0  0  0  0  0  3  0  0  0  0  0  0
  190.0180  177.2870  147.4490 N   0  0  0  0  0  2  0  0  0  0  0  0
  187.5640  177.5300  143.9660 C   0  0  0  0  0  0  0  0  0  0  0  0
  188.2670  177.4950  145.2470 C   0  0  0  0  0  0  0  0  0  0  0  0
  188.5770  177.1120  147.6800 C   0  0  0  0  0  2  0  0  0  0  0  0
  187.7550  177.8540  146.6090 C   0  0  0  0  0  2  0  0  0  0  0  0
  185.6110  177.8830  142.4920 C   0  0  0  0  0  2  0  0  0  0  0  0
  183.9190  179.0090  143.9400 C   0  0  0  0  0  1  0  0  0  0  0  0
  184.1350  178.2190  142.6610 C   0  0  1  0  0  3  0  0  0  0  0  0
  183.5580  178.9860  141.4650 C   0  0  1  0  0  3  0  0  0  0  0  0
  184.5460  179.2060  140.3240 C   0  0  0  0  0  1  0  0  0  0  0  0
  182.2150  178.4380  140.9770 C   0  0  0  0  0  2  0  0  0  0  0  0
  182.2810  177.8090  139.5880 C   0  0  2  0  0  3  0  0  0  0  0  0
  180.3400  175.6930  138.6590 C   0  0  2  0  0  3  0  0  0  0  0  0
  180.5840  176.9970  137.8850 C   0  0  0  0  0  2  0  0  0  0  0  0
  181.2920  175.4880  139.8500 C   0  0  0  0  0  2  0  0  0  0  0  0
  180.9790  178.1220  138.8370 C   0  0  0  0  0  2  0  0  0  0  0  0
  182.5740  176.3030  139.6970 C   0  0  0  0  0  2  0  0  0  0  0  0
  180.0350  173.2160  138.2120 N   0  0  0  0  0  2  0  0  0  0  0  0
  180.7160  174.6930  136.5330 O   0  0  0  0  0  0  0  0  0  0  0  0
  180.3820  174.5200  137.7370 C   0  0  0  0  0  0  0  0  0  0  0  0
  180.0730  172.0460  137.3500 C   0  0  0  0  0  1  0  0  0  0  0  0
  188.7710  178.0630  141.9280 N   0  0  0  0  0  2  0  0  0  0  0  0
  191.0840  176.7360  139.6130 C   0  0  0  0  0  3  0  0  0  0  0  0
  188.9050  177.8390  140.5240 C   0  0  0  0  0  0  0  0  0  0  0  0
  189.9940  177.2890  140.0660 C   0  0  0  0  0  0  0  0  0  0  0  0
  187.8310  178.2360  139.5670 C   0  0  0  0  0  1  0  0  0  0  0  0
  191.0410  175.9280  138.4420 N   0  0  0  0  0  2  0  0  0  0  0  0
  189.8730  175.9360  137.5730 C   0  0  2  0  0  3  0  0  0  0  0  0
  189.5080  174.5050  137.2110 C   0  0  0  0  0  1  0  0  0  0  0  0
  189.0120  177.7100  136.0230 C   0  0  0  0  0  1  0  0  0  0  0  0
  190.3230  175.8430  135.1050 C   0  0  0  0  0  1  0  0  0  0  0  0
  190.1550  176.7530  136.3100 C   0  0  0  0  0  3  0  0  0  0  0  0
  1  2  2  0  0  0  0
  2  5  1  0  0  0  0
  3 28  1  6  0  0  0
  3  2  1  0  0  0  0
  3  8  1  0  0  0  0
  4  7  1  0  0  0  0
  5  9  2  0  0  0  0
  5  4  1  0  0  0  0
  6  8  2  0  0  0  0
  7 10  1  0  0  0  0
  8  9  1  0  0  0  0
  9 11  1  0  0  0  0
 11 10  1  0  0  0  0
 12 14  1  0  0  0  0
 12  6  1  0  0  0  0
 14 13  1  1  0  0  0
 15 16  1  6  0  0  0
 15 14  1  0  0  0  0
 17 15  1  0  0  0  0
 18 23  1  0  0  0  0
 18 17  1  1  0  0  0
 19 26  1  6  0  0  0
 19 21  1  0  0  0  0
 20 19  1  0  0  0  0
 20 22  1  0  0  0  0
 22 18  1  0  0  0  0
 23 21  1  0  0  0  0
 25 26  2  0  0  0  0
 26 24  1  0  0  0  0
 27 24  1  0  0  0  0
 29 31  2  0  0  0  0
 30 28  1  0  0  0  0
 31 30  2  0  0  0  0
 32 30  1  0  0  0  0
 33 29  1  0  0  0  0
 34 35  1  6  0  0  0
 34 33  1  0  0  0  0
 36 38  1  0  0  0  0
 37 38  1  0  0  0  0
 38 34  1  0  0  0  0
M  END
>  <MODEL>
9

>  <REMARK>
 VINA RESULT:      -7.4      2.094      2.676
  Name = 
  11 active torsions:
  status: ('A' for Active; 'I' for Inactive)
    1  A    between atoms: C_1  and  C_34
    2  A    between atoms: C_3  and  C_34
    3  A    between atoms: C_3  and  C_37
    4  A    between atoms: C_4  and  N_32
    5  A    between atoms: C_7  and  N_32
    6  A    between atoms: C_7  and  C_38
    7  A    between atoms: C_9  and  N_29
    8  A    between atoms: C_12  and  C_14
    9  A    between atoms: C_13  and  N_29
   10  A    between atoms: C_19  and  C_25
   11  A    between atoms: C_25  and  C_37
                            x       y       z     vdW  Elec       q    Type
                         _______ _______ _______ _____ _____    ______ ____

>  <TORSDO>
F 11

$$$$
