=
 OpenBabel11042411353D

 35 38  0  0  1  0  0  0  0  0999 V2000
  184.1550  179.1580  144.4760 N   0  0  0  0  0  0  0  0  0  0  0  0
  183.0780  179.4050  143.7950 C   0  0  0  0  0  3  0  0  0  0  0  0
  185.7620  178.4480  142.8100 C   0  0  0  0  0  3  0  0  0  0  0  0
  183.5950  178.3780  141.5630 C   0  0  0  0  0  0  0  0  0  0  0  0
  185.0620  178.5240  141.6810 C   0  0  0  0  0  3  0  0  0  0  0  0
  182.7080  178.7530  142.5180 C   0  0  0  0  0  0  0  0  0  0  0  0
  185.1340  178.1410  144.1260 C   0  0  1  0  0  3  0  0  0  0  0  0
  188.1040  177.8930  147.1820 C   0  0  0  0  0  0  0  0  0  0  0  0
  186.1770  178.0620  145.1930 C   0  0  0  0  0  0  0  0  0  0  0  0
  186.8280  178.3910  147.4560 C   0  0  0  0  0  3  0  0  0  0  0  0
  185.8990  178.4640  146.4650 N   0  0  0  0  0  0  0  0  0  0  0  0
  188.4080  177.4700  145.8880 C   0  0  0  0  0  3  0  0  0  0  0  0
  187.4410  177.5520  144.8850 C   0  0  0  0  0  3  0  0  0  0  0  0
  189.1240  177.8120  148.2570 C   0  0  0  0  0  1  0  0  0  0  0  0
  183.1180  177.9020  140.2230 C   0  0  0  0  0  2  0  0  0  0  0  0
  183.8890  178.5440  139.0730 C   0  0  0  0  0  2  0  0  0  0  0  0
  184.2960  177.5450  138.0860 N   0  0  0  0  0  0  0  0  0  0  0  0
  186.0620  176.8430  136.5750 N   0  0  0  0  0  0  0  0  0  0  0  0
  187.3520  176.8070  136.1490 C   0  0  0  0  0  3  0  0  0  0  0  0
  187.9760  178.2570  137.9640 C   0  0  0  0  0  0  0  0  0  0  0  0
  188.9390  178.9670  138.6660 O   0  0  0  0  0  1  0  0  0  0  0  0
  185.6770  177.5660  137.6660 C   0  0  0  0  0  0  0  0  0  0  0  0
  188.3350  177.5190  136.8360 C   0  0  0  0  0  3  0  0  0  0  0  0
  186.6470  178.2780  138.3860 C   0  0  0  0  0  3  0  0  0  0  0  0
  183.3660  176.5350  137.6180 C   0  0  0  0  0  0  0  0  0  0  0  0
  182.3290  176.7020  136.7970 C   0  0  0  0  0  0  0  0  0  0  0  0
  183.3380  175.1060  138.0650 C   0  0  0  0  0  2  0  0  0  0  0  0
  181.6250  175.4830  136.6500 N   0  0  0  0  0  0  0  0  0  0  0  0
  181.8920  177.9560  136.1210 C   0  0  0  0  0  1  0  0  0  0  0  0
  182.1800  174.5840  137.3530 N   0  0  0  0  0  0  0  0  0  0  0  0
  181.2360  178.6590  142.2550 C   0  0  0  0  0  2  0  0  0  0  0  0
  179.6460  178.6270  144.0020 C   0  0  0  0  0  1  0  0  0  0  0  0
  180.5030  179.4900  143.2040 N   0  0  0  0  0  0  0  0  0  0  0  0
  179.7150  180.2970  140.9650 C   0  0  0  0  0  1  0  0  0  0  0  0
  179.6810  180.4700  142.4840 C   0  0  0  0  0  2  0  0  0  0  0  0
  2  1  2  0  0  0  0
  3  7  1  0  0  0  0
  4  5  1  0  0  0  0
  4  6  2  0  0  0  0
  5  3  2  0  0  0  0
  6  2  1  0  0  0  0
  7  1  1  0  0  0  0
  7  9  1  1  0  0  0
  8 10  1  0  0  0  0
  8 14  1  0  0  0  0
  9 11  1  0  0  0  0
 11 10  2  0  0  0  0
 12  8  2  0  0  0  0
 13  9  2  0  0  0  0
 13 12  1  0  0  0  0
 15  4  1  0  0  0  0
 16 15  1  0  0  0  0
 17 16  1  0  0  0  0
 18 22  1  0  0  0  0
 19 18  2  0  0  0  0
 19 23  1  0  0  0  0
 20 24  1  0  0  0  0
 20 21  1  0  0  0  0
 22 17  1  0  0  0  0
 22 24  2  0  0  0  0
 23 20  2  0  0  0  0
 25 27  1  0  0  0  0
 25 17  1  0  0  0  0
 26 25  2  0  0  0  0
 28 26  1  0  0  0  0
 28 30  2  0  0  0  0
 29 26  1  0  0  0  0
 30 27  1  0  0  0  0
 31  6  1  0  0  0  0
 31 33  1  0  0  0  0
 33 32  1  0  0  0  0
 34 35  1  0  0  0  0
 35 33  1  0  0  0  0
M  END
>  <MODEL>
1

>  <REMARK>
 VINA RESULT:      -7.8      0.000      0.000
  Name = 
  9 active torsions:
  status: ('A' for Active; 'I' for Inactive)
    1  A    between atoms: C_1  and  C_8
    2  A    between atoms: C_1  and  C_17
    3  A    between atoms: C_2  and  N_7
    4  A    between atoms: N_7  and  C_8
    5  A    between atoms: N_7  and  C_28
    6  A    between atoms: C_11  and  C_35
    7  A    between atoms: C_13  and  N_32
    8  A    between atoms: C_23  and  C_25
    9  A    between atoms: C_25  and  N_32
                            x       y       z     vdW  Elec       q    Type
                         _______ _______ _______ _____ _____    ______ ____

>  <TORSDO>
F 9

$$$$
=
 OpenBabel11042411353D

 35 38  0  0  1  0  0  0  0  0999 V2000
  189.0460  176.9470  142.6810 N   0  0  0  0  0  0  0  0  0  0  0  0
  188.4630  177.1800  141.5460 C   0  0  0  0  0  3  0  0  0  0  0  0
  187.3220  177.3580  144.3310 C   0  0  0  0  0  3  0  0  0  0  0  0
  186.3460  178.3320  142.2450 C   0  0  0  0  0  0  0  0  0  0  0  0
  186.2790  177.6990  143.5800 C   0  0  0  0  0  3  0  0  0  0  0  0
  187.3340  178.1160  141.3430 C   0  0  0  0  0  0  0  0  0  0  0  0
  188.7300  177.6330  143.9250 C   0  0  1  0  0  3  0  0  0  0  0  0
  191.4410  176.3970  146.9800 C   0  0  0  0  0  0  0  0  0  0  0  0
  189.6750  177.1920  144.9940 C   0  0  0  0  0  0  0  0  0  0  0  0
  191.7990  176.3350  145.6320 C   0  0  0  0  0  3  0  0  0  0  0  0
  190.9170  176.7310  144.6750 N   0  0  0  0  0  0  0  0  0  0  0  0
  190.1770  176.8720  147.3300 C   0  0  0  0  0  3  0  0  0  0  0  0
  189.2870  177.2740  146.3340 C   0  0  0  0  0  3  0  0  0  0  0  0
  192.3980  175.9650  148.0300 C   0  0  0  0  0  1  0  0  0  0  0  0
  185.1420  179.1510  141.8780 C   0  0  0  0  0  2  0  0  0  0  0  0
  183.8680  178.6350  142.5400 C   0  0  0  0  0  2  0  0  0  0  0  0
  182.7840  178.4990  141.5690 N   0  0  0  0  0  0  0  0  0  0  0  0
  180.9080  180.0040  141.2330 N   0  0  0  0  0  0  0  0  0  0  0  0
  179.7020  180.5330  141.5670 C   0  0  0  0  0  3  0  0  0  0  0  0
  179.5920  179.0510  143.4580 C   0  0  0  0  0  0  0  0  0  0  0  0
  178.9310  178.5720  144.5800 O   0  0  0  0  0  1  0  0  0  0  0  0
  181.4890  179.0050  141.9590 C   0  0  0  0  0  0  0  0  0  0  0  0
  179.0180  180.0620  142.6870 C   0  0  0  0  0  3  0  0  0  0  0  0
  180.8310  178.5230  143.0990 C   0  0  0  0  0  3  0  0  0  0  0  0
  183.0300  177.9540  140.2470 C   0  0  0  0  0  0  0  0  0  0  0  0
  183.3250  178.6240  139.1330 C   0  0  0  0  0  0  0  0  0  0  0  0
  182.8920  176.5140  139.8620 C   0  0  0  0  0  2  0  0  0  0  0  0
  183.4130  177.7310  138.0390 N   0  0  0  0  0  0  0  0  0  0  0  0
  183.5190  180.0930  138.9750 C   0  0  0  0  0  1  0  0  0  0  0  0
  183.1740  176.5490  138.4340 N   0  0  0  0  0  0  0  0  0  0  0  0
  187.2510  178.7260  139.9770 C   0  0  0  0  0  2  0  0  0  0  0  0
  189.0220  178.7070  138.4120 C   0  0  0  0  0  1  0  0  0  0  0  0
  187.9720  177.8990  139.0140 N   0  0  0  0  0  0  0  0  0  0  0  0
  186.9370  178.3820  136.7820 C   0  0  0  0  0  1  0  0  0  0  0  0
  187.0540  177.4280  137.9710 C   0  0  0  0  0  2  0  0  0  0  0  0
  1  7  1  0  0  0  0
  2  1  2  0  0  0  0
  4  5  1  0  0  0  0
  5  3  2  0  0  0  0
  6  2  1  0  0  0  0
  6  4  2  0  0  0  0
  7  3  1  0  0  0  0
  7  9  1  1  0  0  0
  8 12  1  0  0  0  0
  8 14  1  0  0  0  0
  9 13  1  0  0  0  0
 10  8  2  0  0  0  0
 11  9  2  0  0  0  0
 11 10  1  0  0  0  0
 13 12  2  0  0  0  0
 15  4  1  0  0  0  0
 15 16  1  0  0  0  0
 17 22  1  0  0  0  0
 17 16  1  0  0  0  0
 18 19  2  0  0  0  0
 18 22  1  0  0  0  0
 19 23  1  0  0  0  0
 20 21  1  0  0  0  0
 22 24  2  0  0  0  0
 23 20  2  0  0  0  0
 24 20  1  0  0  0  0
 25 17  1  0  0  0  0
 26 25  2  0  0  0  0
 27 25  1  0  0  0  0
 28 30  2  0  0  0  0
 28 26  1  0  0  0  0
 29 26  1  0  0  0  0
 30 27  1  0  0  0  0
 31  6  1  0  0  0  0
 32 33  1  0  0  0  0
 33 31  1  0  0  0  0
 34 35  1  0  0  0  0
 35 33  1  0  0  0  0
M  END
>  <MODEL>
2

>  <REMARK>
 VINA RESULT:      -7.7      2.929      6.202
  Name = 
  9 active torsions:
  status: ('A' for Active; 'I' for Inactive)
    1  A    between atoms: C_1  and  C_8
    2  A    between atoms: C_1  and  C_17
    3  A    between atoms: C_2  and  N_7
    4  A    between atoms: N_7  and  C_8
    5  A    between atoms: N_7  and  C_28
    6  A    between atoms: C_11  and  C_35
    7  A    between atoms: C_13  and  N_32
    8  A    between atoms: C_23  and  C_25
    9  A    between atoms: C_25  and  N_32
                            x       y       z     vdW  Elec       q    Type
                         _______ _______ _______ _____ _____    ______ ____

>  <TORSDO>
F 9

$$$$
=
 OpenBabel11042411353D

 35 38  0  0  1  0  0  0  0  0999 V2000
  184.1440  178.8470  143.8070 N   0  0  0  0  0  0  0  0  0  0  0  0
  183.1980  178.9940  142.9310 C   0  0  0  0  0  3  0  0  0  0  0  0
  186.1530  178.6070  142.4790 C   0  0  0  0  0  3  0  0  0  0  0  0
  184.3290  178.3330  140.7900 C   0  0  0  0  0  0  0  0  0  0  0  0
  185.6900  178.7010  141.2350 C   0  0  0  0  0  3  0  0  0  0  0  0
  183.2160  178.4440  141.5560 C   0  0  0  0  0  0  0  0  0  0  0  0
  185.3420  178.0500  143.5980 C   0  0  1  0  0  3  0  0  0  0  0  0
  187.6540  177.9790  147.1850 C   0  0  0  0  0  0  0  0  0  0  0  0
  186.1470  178.0170  144.8560 C   0  0  0  0  0  0  0  0  0  0  0  0
  188.1660  177.4730  145.9890 C   0  0  0  0  0  3  0  0  0  0  0  0
  187.4090  177.5030  144.8590 N   0  0  0  0  0  0  0  0  0  0  0  0
  186.3670  178.5170  147.2050 C   0  0  0  0  0  3  0  0  0  0  0  0
  185.6070  178.5390  146.0340 C   0  0  0  0  0  3  0  0  0  0  0  0
  188.4730  177.9490  148.4230 C   0  0  0  0  0  1  0  0  0  0  0  0
  184.2250  177.9460  139.3440 C   0  0  0  0  0  2  0  0  0  0  0  0
  185.2760  178.6390  138.4820 C   0  0  0  0  0  2  0  0  0  0  0  0
  186.1280  177.6660  137.8010 N   0  0  0  0  0  0  0  0  0  0  0  0
  188.0670  178.6140  138.9130 N   0  0  0  0  0  0  0  0  0  0  0  0
  189.3580  178.5850  139.3370 C   0  0  0  0  0  3  0  0  0  0  0  0
  189.6000  176.3830  138.4020 C   0  0  0  0  0  0  0  0  0  0  0  0
  190.3720  175.2590  138.1420 O   0  0  0  0  0  1  0  0  0  0  0  0
  187.4970  177.5680  138.2480 C   0  0  0  0  0  0  0  0  0  0  0  0
  190.1490  177.4640  139.0910 C   0  0  0  0  0  3  0  0  0  0  0  0
  188.2740  176.4330  137.9740 C   0  0  0  0  0  3  0  0  0  0  0  0
  185.5890  176.7880  136.7790 C   0  0  0  0  0  0  0  0  0  0  0  0
  185.6940  176.9190  135.4570 C   0  0  0  0  0  0  0  0  0  0  0  0
  184.7080  175.6040  137.0280 C   0  0  0  0  0  2  0  0  0  0  0  0
  184.9630  175.8960  134.8080 N   0  0  0  0  0  0  0  0  0  0  0  0
  186.4260  177.9720  134.6990 C   0  0  0  0  0  1  0  0  0  0  0  0
  184.4070  175.1540  135.6750 N   0  0  0  0  0  0  0  0  0  0  0  0
  181.8690  178.1440  140.9730 C   0  0  0  0  0  2  0  0  0  0  0  0
  179.8420  179.2960  141.3560 C   0  0  0  0  0  1  0  0  0  0  0  0
  181.1460  179.3860  140.7170 N   0  0  0  0  0  0  0  0  0  0  0  0
  181.7690  180.7570  138.7130 C   0  0  0  0  0  1  0  0  0  0  0  0
  180.9740  179.5780  139.2720 C   0  0  0  0  0  2  0  0  0  0  0  0
  2  1  2  0  0  0  0
  3  7  1  0  0  0  0
  4  5  1  0  0  0  0
  4  6  2  0  0  0  0
  5  3  2  0  0  0  0
  6  2  1  0  0  0  0
  7  1  1  0  0  0  0
  7  9  1  1  0  0  0
  8 12  1  0  0  0  0
  8 14  1  0  0  0  0
  9 11  2  0  0  0  0
  9 13  1  0  0  0  0
 10  8  2  0  0  0  0
 11 10  1  0  0  0  0
 13 12  2  0  0  0  0
 15  4  1  0  0  0  0
 16 15  1  0  0  0  0
 17 22  1  0  0  0  0
 17 16  1  0  0  0  0
 18 19  1  0  0  0  0
 20 23  1  0  0  0  0
 21 20  1  0  0  0  0
 22 18  2  0  0  0  0
 23 19  2  0  0  0  0
 24 22  1  0  0  0  0
 24 20  2  0  0  0  0
 25 27  1  0  0  0  0
 25 17  1  0  0  0  0
 26 25  2  0  0  0  0
 28 26  1  0  0  0  0
 28 30  2  0  0  0  0
 29 26  1  0  0  0  0
 30 27  1  0  0  0  0
 31  6  1  0  0  0  0
 33 31  1  0  0  0  0
 33 32  1  0  0  0  0
 34 35  1  0  0  0  0
 35 33  1  0  0  0  0
M  END
>  <MODEL>
3

>  <REMARK>
 VINA RESULT:      -7.6      1.791      2.471
  Name = 
  9 active torsions:
  status: ('A' for Active; 'I' for Inactive)
    1  A    between atoms: C_1  and  C_8
    2  A    between atoms: C_1  and  C_17
    3  A    between atoms: C_2  and  N_7
    4  A    between atoms: N_7  and  C_8
    5  A    between atoms: N_7  and  C_28
    6  A    between atoms: C_11  and  C_35
    7  A    between atoms: C_13  and  N_32
    8  A    between atoms: C_23  and  C_25
    9  A    between atoms: C_25  and  N_32
                            x       y       z     vdW  Elec       q    Type
                         _______ _______ _______ _____ _____    ______ ____

>  <TORSDO>
F 9

$$$$
=
 OpenBabel11042411353D

 35 38  0  0  1  0  0  0  0  0999 V2000
  186.8900  178.5210  138.5940 N   0  0  0  0  0  0  0  0  0  0  0  0
  188.1230  178.1320  138.7030 C   0  0  0  0  0  3  0  0  0  0  0  0
  186.1930  178.9390  140.8740 C   0  0  0  0  0  3  0  0  0  0  0  0
  188.3400  177.6890  141.1650 C   0  0  0  0  0  0  0  0  0  0  0  0
  187.2890  178.6480  141.5700 C   0  0  0  0  0  3  0  0  0  0  0  0
  188.6990  177.4430  139.8810 C   0  0  0  0  0  0  0  0  0  0  0  0
  185.8570  178.2690  139.5860 C   0  0  1  0  0  3  0  0  0  0  0  0
  182.1110  179.6760  138.1020 C   0  0  0  0  0  0  0  0  0  0  0  0
  184.5410  178.7580  139.0740 C   0  0  0  0  0  0  0  0  0  0  0  0
  182.9710  180.5230  138.8030 C   0  0  0  0  0  3  0  0  0  0  0  0
  184.1590  180.0520  139.2700 N   0  0  0  0  0  0  0  0  0  0  0  0
  182.4850  178.3500  137.8840 C   0  0  0  0  0  3  0  0  0  0  0  0
  183.7080  177.8850  138.3710 C   0  0  0  0  0  3  0  0  0  0  0  0
  180.8120  180.1830  137.5910 C   0  0  0  0  0  1  0  0  0  0  0  0
  189.1090  177.0850  142.3020 C   0  0  0  0  0  2  0  0  0  0  0  0
  188.1940  176.4740  143.3600 C   0  0  0  0  0  2  0  0  0  0  0  0
  188.3050  177.1870  144.6320 N   0  0  0  0  0  0  0  0  0  0  0  0
  187.0570  178.1870  146.4580 N   0  0  0  0  0  0  0  0  0  0  0  0
  185.9410  178.7330  147.0090 C   0  0  0  0  0  3  0  0  0  0  0  0
  184.7950  178.4760  144.9110 C   0  0  0  0  0  0  0  0  0  0  0  0
  183.6560  178.6180  144.1310 O   0  0  0  0  0  1  0  0  0  0  0  0
  187.1000  177.7830  145.1550 C   0  0  0  0  0  0  0  0  0  0  0  0
  184.7880  178.8910  146.2420 C   0  0  0  0  0  3  0  0  0  0  0  0
  185.9490  177.9160  144.3640 C   0  0  0  0  0  3  0  0  0  0  0  0
  189.5580  177.2180  145.3630 C   0  0  0  0  0  0  0  0  0  0  0  0
  190.6460  177.9350  145.0830 C   0  0  0  0  0  0  0  0  0  0  0  0
  189.9010  176.3510  146.5350 C   0  0  0  0  0  2  0  0  0  0  0  0
  191.6820  177.6220  145.9950 N   0  0  0  0  0  0  0  0  0  0  0  0
  190.8340  178.9150  143.9770 C   0  0  0  0  0  1  0  0  0  0  0  0
  191.2780  176.7390  146.8120 N   0  0  0  0  0  0  0  0  0  0  0  0
  189.8500  176.5300  139.5840 C   0  0  0  0  0  2  0  0  0  0  0  0
  190.6040  176.4200  137.3480 C   0  0  0  0  0  1  0  0  0  0  0  0
  190.7370  177.1450  138.6020 N   0  0  0  0  0  0  0  0  0  0  0  0
  192.3100  177.5140  140.5200 C   0  0  0  0  0  1  0  0  0  0  0  0
  192.1270  177.0740  139.0670 C   0  0  0  0  0  2  0  0  0  0  0  0
  1  2  2  0  0  0  0
  1  7  1  0  0  0  0
  2  6  1  0  0  0  0
  3  5  2  0  0  0  0
  4  5  1  0  0  0  0
  4 15  1  0  0  0  0
  6  4  2  0  0  0  0
  7  9  1  6  0  0  0
  7  3  1  0  0  0  0
  8 10  1  0  0  0  0
  9 11  1  0  0  0  0
 10 11  2  0  0  0  0
 12  8  2  0  0  0  0
 12 13  1  0  0  0  0
 13  9  2  0  0  0  0
 14  8  1  0  0  0  0
 15 16  1  0  0  0  0
 16 17  1  0  0  0  0
 17 22  1  0  0  0  0
 17 25  1  0  0  0  0
 18 19  1  0  0  0  0
 20 23  1  0  0  0  0
 21 20  1  0  0  0  0
 22 18  2  0  0  0  0
 23 19  2  0  0  0  0
 24 20  2  0  0  0  0
 24 22  1  0  0  0  0
 25 27  1  0  0  0  0
 26 25  2  0  0  0  0
 26 28  1  0  0  0  0
 27 30  1  0  0  0  0
 28 30  2  0  0  0  0
 29 26  1  0  0  0  0
 31  6  1  0  0  0  0
 32 33  1  0  0  0  0
 33 35  1  0  0  0  0
 33 31  1  0  0  0  0
 35 34  1  0  0  0  0
M  END
>  <MODEL>
4

>  <REMARK>
 VINA RESULT:      -7.5      3.189      9.456
  Name = 
  9 active torsions:
  status: ('A' for Active; 'I' for Inactive)
    1  A    between atoms: C_1  and  C_8
    2  A    between atoms: C_1  and  C_17
    3  A    between atoms: C_2  and  N_7
    4  A    between atoms: N_7  and  C_8
    5  A    between atoms: N_7  and  C_28
    6  A    between atoms: C_11  and  C_35
    7  A    between atoms: C_13  and  N_32
    8  A    between atoms: C_23  and  C_25
    9  A    between atoms: C_25  and  N_32
                            x       y       z     vdW  Elec       q    Type
                         _______ _______ _______ _____ _____    ______ ____

>  <TORSDO>
F 9

$$$$
=
 OpenBabel11042411353D

 35 38  0  0  1  0  0  0  0  0999 V2000
  189.5760  177.6240  142.9340 N   0  0  0  0  0  0  0  0  0  0  0  0
  188.8750  177.7720  144.0160 C   0  0  0  0  0  3  0  0  0  0  0  0
  188.0370  178.1770  141.1480 C   0  0  0  0  0  3  0  0  0  0  0  0
  186.5320  177.9390  143.1310 C   0  0  0  0  0  0  0  0  0  0  0  0
  186.9220  178.4750  141.8090 C   0  0  0  0  0  3  0  0  0  0  0  0
  187.4070  177.6050  144.1110 C   0  0  0  0  0  0  0  0  0  0  0  0
  189.0330  177.1910  141.6560 C   0  0  1  0  0  3  0  0  0  0  0  0
  192.2010  176.7300  138.8330 C   0  0  0  0  0  0  0  0  0  0  0  0
  190.1440  177.0220  140.6720 C   0  0  0  0  0  0  0  0  0  0  0  0
  190.9010  176.3260  138.5280 C   0  0  0  0  0  3  0  0  0  0  0  0
  189.9070  176.4790  139.4440 N   0  0  0  0  0  0  0  0  0  0  0  0
  192.4660  177.2950  140.0820 C   0  0  0  0  0  3  0  0  0  0  0  0
  191.4330  177.4440  141.0080 C   0  0  0  0  0  3  0  0  0  0  0  0
  193.2910  176.5650  137.8390 C   0  0  0  0  0  1  0  0  0  0  0  0
  185.0530  177.9160  143.3860 C   0  0  0  0  0  2  0  0  0  0  0  0
  184.3650  179.1940  142.9180 C   0  0  0  0  0  2  0  0  0  0  0  0
  183.2160  178.8950  142.0640 N   0  0  0  0  0  0  0  0  0  0  0  0
  184.1410  179.3180  139.8600 N   0  0  0  0  0  0  0  0  0  0  0  0
  184.4120  178.9790  138.5710 C   0  0  0  0  0  3  0  0  0  0  0  0
  183.3540  176.8490  138.9250 C   0  0  0  0  0  0  0  0  0  0  0  0
  182.9550  175.6060  138.4550 O   0  0  0  0  0  1  0  0  0  0  0  0
  183.4980  178.4700  140.7140 C   0  0  0  0  0  0  0  0  0  0  0  0
  184.0250  177.7330  138.0810 C   0  0  0  0  0  3  0  0  0  0  0  0
  183.0840  177.2160  140.2420 C   0  0  0  0  0  3  0  0  0  0  0  0
  181.8640  178.9490  142.5860 C   0  0  0  0  0  0  0  0  0  0  0  0
  180.7680  179.3820  141.9630 C   0  0  0  0  0  0  0  0  0  0  0  0
  181.4600  178.6170  143.9890 C   0  0  0  0  0  2  0  0  0  0  0  0
  179.6610  179.3430  142.8430 N   0  0  0  0  0  0  0  0  0  0  0  0
  180.6490  179.8760  140.5620 C   0  0  0  0  0  1  0  0  0  0  0  0
  180.0350  178.9160  143.9790 N   0  0  0  0  0  0  0  0  0  0  0  0
  186.9020  177.1710  145.4540 C   0  0  0  0  0  2  0  0  0  0  0  0
  187.9000  177.2540  147.5930 C   0  0  0  0  0  1  0  0  0  0  0  0
  187.4050  178.0650  146.4910 N   0  0  0  0  0  0  0  0  0  0  0  0
  184.9530  178.2640  146.9750 C   0  0  0  0  0  1  0  0  0  0  0  0
  186.3260  178.9370  146.9690 C   0  0  0  0  0  2  0  0  0  0  0  0
  1  2  2  0  0  0  0
  2  6  1  0  0  0  0
  3  7  1  0  0  0  0
  3  5  2  0  0  0  0
  4 15  1  0  0  0  0
  4  6  2  0  0  0  0
  5  4  1  0  0  0  0
  6 31  1  0  0  0  0
  7  9  1  6  0  0  0
  7  1  1  0  0  0  0
  8 12  1  0  0  0  0
  9 13  1  0  0  0  0
 10  8  2  0  0  0  0
 10 11  1  0  0  0  0
 11  9  2  0  0  0  0
 12 13  2  0  0  0  0
 14  8  1  0  0  0  0
 16 15  1  0  0  0  0
 17 25  1  0  0  0  0
 17 16  1  0  0  0  0
 18 22  1  0  0  0  0
 19 18  2  0  0  0  0
 20 24  1  0  0  0  0
 21 20  1  0  0  0  0
 22 17  1  0  0  0  0
 23 19  1  0  0  0  0
 23 20  2  0  0  0  0
 24 22  2  0  0  0  0
 25 27  1  0  0  0  0
 26 25  2  0  0  0  0
 26 28  1  0  0  0  0
 28 30  2  0  0  0  0
 29 26  1  0  0  0  0
 30 27  1  0  0  0  0
 31 33  1  0  0  0  0
 33 35  1  0  0  0  0
 33 32  1  0  0  0  0
 35 34  1  0  0  0  0
M  END
>  <MODEL>
5

>  <REMARK>
 VINA RESULT:      -7.5      2.830      6.432
  Name = 
  9 active torsions:
  status: ('A' for Active; 'I' for Inactive)
    1  A    between atoms: C_1  and  C_8
    2  A    between atoms: C_1  and  C_17
    3  A    between atoms: C_2  and  N_7
    4  A    between atoms: N_7  and  C_8
    5  A    between atoms: N_7  and  C_28
    6  A    between atoms: C_11  and  C_35
    7  A    between atoms: C_13  and  N_32
    8  A    between atoms: C_23  and  C_25
    9  A    between atoms: C_25  and  N_32
                            x       y       z     vdW  Elec       q    Type
                         _______ _______ _______ _____ _____    ______ ____

>  <TORSDO>
F 9

$$$$
=
 OpenBabel11042411353D

 35 38  0  0  1  0  0  0  0  0999 V2000
  189.5420  177.5880  142.4620 N   0  0  0  0  0  0  0  0  0  0  0  0
  188.7740  177.7810  143.4900 C   0  0  0  0  0  3  0  0  0  0  0  0
  188.1830  178.2550  140.5720 C   0  0  0  0  0  3  0  0  0  0  0  0
  186.5210  178.1150  142.4360 C   0  0  0  0  0  0  0  0  0  0  0  0
  187.0450  178.6280  141.1520 C   0  0  0  0  0  3  0  0  0  0  0  0
  187.2950  177.7160  143.4750 C   0  0  0  0  0  0  0  0  0  0  0  0
  189.0670  177.2000  141.1430 C   0  0  1  0  0  3  0  0  0  0  0  0
  192.3950  176.5290  138.5560 C   0  0  0  0  0  0  0  0  0  0  0  0
  190.2340  176.9570  140.2420 C   0  0  0  0  0  0  0  0  0  0  0  0
  191.1200  176.0640  138.2250 C   0  0  0  0  0  3  0  0  0  0  0  0
  190.0750  176.2870  139.0660 N   0  0  0  0  0  0  0  0  0  0  0  0
  192.5790  177.2240  139.7510 C   0  0  0  0  0  3  0  0  0  0  0  0
  191.4940  177.4430  140.6010 C   0  0  0  0  0  3  0  0  0  0  0  0
  193.5410  176.2890  137.6430 C   0  0  0  0  0  1  0  0  0  0  0  0
  185.0290  178.1940  142.5810 C   0  0  0  0  0  2  0  0  0  0  0  0
  184.3920  179.0940  141.5260 C   0  0  0  0  0  2  0  0  0  0  0  0
  183.2040  178.4700  140.9460 N   0  0  0  0  0  0  0  0  0  0  0  0
  181.1450  179.6950  140.5560 N   0  0  0  0  0  0  0  0  0  0  0  0
  179.9400  180.1970  140.9370 C   0  0  0  0  0  3  0  0  0  0  0  0
  180.2420  179.2290  143.1170 C   0  0  0  0  0  0  0  0  0  0  0  0
  179.7900  178.9950  144.4090 O   0  0  0  0  0  1  0  0  0  0  0  0
  181.9220  178.9560  141.3990 C   0  0  0  0  0  0  0  0  0  0  0  0
  179.4650  179.9690  142.2280 C   0  0  0  0  0  3  0  0  0  0  0  0
  181.4760  178.7240  142.7080 C   0  0  0  0  0  3  0  0  0  0  0  0
  183.3210  177.4660  139.9050 C   0  0  0  0  0  0  0  0  0  0  0  0
  184.0400  177.5360  138.7850 C   0  0  0  0  0  0  0  0  0  0  0  0
  182.5560  176.1810  139.8480 C   0  0  0  0  0  2  0  0  0  0  0  0
  183.8240  176.3820  137.9960 N   0  0  0  0  0  0  0  0  0  0  0  0
  184.9360  178.6420  138.3430 C   0  0  0  0  0  1  0  0  0  0  0  0
  182.9970  175.6160  138.5800 N   0  0  0  0  0  0  0  0  0  0  0  0
  186.6630  177.3130  144.7720 C   0  0  0  0  0  2  0  0  0  0  0  0
  187.5020  177.5000  146.9730 C   0  0  0  0  0  1  0  0  0  0  0  0
  187.0290  178.2570  145.8230 N   0  0  0  0  0  0  0  0  0  0  0  0
  184.5630  178.2520  146.2750 C   0  0  0  0  0  1  0  0  0  0  0  0
  185.8610  179.0570  146.2080 C   0  0  0  0  0  2  0  0  0  0  0  0
  1  2  2  0  0  0  0
  3  7  1  0  0  0  0
  3  5  2  0  0  0  0
  4 15  1  0  0  0  0
  4  6  2  0  0  0  0
  5  4  1  0  0  0  0
  6  2  1  0  0  0  0
  6 31  1  0  0  0  0
  7  9  1  6  0  0  0
  7  1  1  0  0  0  0
  8 12  1  0  0  0  0
  9 13  1  0  0  0  0
 10  8  2  0  0  0  0
 10 11  1  0  0  0  0
 11  9  2  0  0  0  0
 12 13  2  0  0  0  0
 14  8  1  0  0  0  0
 16 15  1  0  0  0  0
 17 22  1  0  0  0  0
 17 16  1  0  0  0  0
 18 19  2  0  0  0  0
 18 22  1  0  0  0  0
 19 23  1  0  0  0  0
 20 21  1  0  0  0  0
 22 24  2  0  0  0  0
 23 20  2  0  0  0  0
 24 20  1  0  0  0  0
 25 17  1  0  0  0  0
 26 25  2  0  0  0  0
 27 25  1  0  0  0  0
 28 30  2  0  0  0  0
 28 26  1  0  0  0  0
 29 26  1  0  0  0  0
 30 27  1  0  0  0  0
 31 33  1  0  0  0  0
 33 35  1  0  0  0  0
 33 32  1  0  0  0  0
 35 34  1  0  0  0  0
M  END
>  <MODEL>
6

>  <REMARK>
 VINA RESULT:      -7.4      3.213      6.680
  Name = 
  9 active torsions:
  status: ('A' for Active; 'I' for Inactive)
    1  A    between atoms: C_1  and  C_8
    2  A    between atoms: C_1  and  C_17
    3  A    between atoms: C_2  and  N_7
    4  A    between atoms: N_7  and  C_8
    5  A    between atoms: N_7  and  C_28
    6  A    between atoms: C_11  and  C_35
    7  A    between atoms: C_13  and  N_32
    8  A    between atoms: C_23  and  C_25
    9  A    between atoms: C_25  and  N_32
                            x       y       z     vdW  Elec       q    Type
                         _______ _______ _______ _____ _____    ______ ____

>  <TORSDO>
F 9

$$$$
=
 OpenBabel11042411353D

 35 38  0  0  1  0  0  0  0  0999 V2000
  183.8140  179.1390  144.6470 N   0  0  0  0  0  0  0  0  0  0  0  0
  182.6940  179.3800  144.0380 C   0  0  0  0  0  3  0  0  0  0  0  0
  185.3690  178.6450  142.8580 C   0  0  0  0  0  3  0  0  0  0  0  0
  183.1490  178.5580  141.7100 C   0  0  0  0  0  0  0  0  0  0  0  0
  184.6110  178.7720  141.7730 C   0  0  0  0  0  3  0  0  0  0  0  0
  182.2930  178.8100  142.7310 C   0  0  0  0  0  0  0  0  0  0  0  0
  184.8240  178.2050  144.1730 C   0  0  1  0  0  3  0  0  0  0  0  0
  187.9470  177.8800  147.0630 C   0  0  0  0  0  0  0  0  0  0  0  0
  185.9200  178.0990  145.1820 C   0  0  0  0  0  0  0  0  0  0  0  0
  186.7050  178.4170  147.4040 C   0  0  0  0  0  3  0  0  0  0  0  0
  185.7250  178.5140  146.4650 N   0  0  0  0  0  0  0  0  0  0  0  0
  188.1680  177.4420  145.7570 C   0  0  0  0  0  3  0  0  0  0  0  0
  187.1490  177.5500  144.8090 C   0  0  0  0  0  3  0  0  0  0  0  0
  189.0220  177.7730  148.0820 C   0  0  0  0  0  1  0  0  0  0  0  0
  182.6300  178.1620  140.3590 C   0  0  0  0  0  2  0  0  0  0  0  0
  182.5880  179.3380  139.3880 C   0  0  0  0  0  2  0  0  0  0  0  0
  181.7690  179.0290  138.2170 N   0  0  0  0  0  0  0  0  0  0  0  0
  180.9560  179.9630  136.1290 N   0  0  0  0  0  0  0  0  0  0  0  0
  180.5230  180.9840  135.3420 C   0  0  0  0  0  3  0  0  0  0  0  0
  180.7690  182.4960  137.1960 C   0  0  0  0  0  0  0  0  0  0  0  0
  180.6780  183.7720  137.7350 O   0  0  0  0  0  1  0  0  0  0  0  0
  181.2930  180.1470  137.4380 C   0  0  0  0  0  0  0  0  0  0  0  0
  180.4190  182.2720  135.8650 C   0  0  0  0  0  3  0  0  0  0  0  0
  181.2120  181.4360  137.9860 C   0  0  0  0  0  3  0  0  0  0  0  0
  181.5220  177.6560  137.8210 C   0  0  0  0  0  0  0  0  0  0  0  0
  182.3160  176.8610  137.1040 C   0  0  0  0  0  0  0  0  0  0  0  0
  180.2550  176.8960  138.0630 C   0  0  0  0  0  2  0  0  0  0  0  0
  181.6770  175.6210  136.8690 N   0  0  0  0  0  0  0  0  0  0  0  0
  183.6720  177.1680  136.5680 C   0  0  0  0  0  1  0  0  0  0  0  0
  180.5240  175.6280  137.4000 N   0  0  0  0  0  0  0  0  0  0  0  0
  180.8160  178.6590  142.5290 C   0  0  0  0  0  2  0  0  0  0  0  0
  179.0300  179.5270  143.8090 C   0  0  0  0  0  1  0  0  0  0  0  0
  180.1290  179.8840  142.9240 N   0  0  0  0  0  0  0  0  0  0  0  0
  179.0820  179.6160  140.6620 C   0  0  0  0  0  1  0  0  0  0  0  0
  179.6020  180.5690  141.7380 C   0  0  0  0  0  2  0  0  0  0  0  0
  2  1  2  0  0  0  0
  3  7  1  0  0  0  0
  4  5  1  0  0  0  0
  4  6  2  0  0  0  0
  5  3  2  0  0  0  0
  6  2  1  0  0  0  0
  7  1  1  0  0  0  0
  7  9  1  1  0  0  0
  8 10  1  0  0  0  0
  8 14  1  0  0  0  0
  9 11  1  0  0  0  0
 11 10  2  0  0  0  0
 12  8  2  0  0  0  0
 13  9  2  0  0  0  0
 13 12  1  0  0  0  0
 15  4  1  0  0  0  0
 16 15  1  0  0  0  0
 17 16  1  0  0  0  0
 18 22  1  0  0  0  0
 19 23  1  0  0  0  0
 19 18  2  0  0  0  0
 20 21  1  0  0  0  0
 20 24  1  0  0  0  0
 22 24  2  0  0  0  0
 22 17  1  0  0  0  0
 23 20  2  0  0  0  0
 25 27  1  0  0  0  0
 25 17  1  0  0  0  0
 26 25  2  0  0  0  0
 28 26  1  0  0  0  0
 28 30  2  0  0  0  0
 29 26  1  0  0  0  0
 30 27  1  0  0  0  0
 31  6  1  0  0  0  0
 31 33  1  0  0  0  0
 33 32  1  0  0  0  0
 34 35  1  0  0  0  0
 35 33  1  0  0  0  0
M  END
>  <MODEL>
7

>  <REMARK>
 VINA RESULT:      -7.4      2.485      3.614
  Name = 
  9 active torsions:
  status: ('A' for Active; 'I' for Inactive)
    1  A    between atoms: C_1  and  C_8
    2  A    between atoms: C_1  and  C_17
    3  A    between atoms: C_2  and  N_7
    4  A    between atoms: N_7  and  C_8
    5  A    between atoms: N_7  and  C_28
    6  A    between atoms: C_11  and  C_35
    7  A    between atoms: C_13  and  N_32
    8  A    between atoms: C_23  and  C_25
    9  A    between atoms: C_25  and  N_32
                            x       y       z     vdW  Elec       q    Type
                         _______ _______ _______ _____ _____    ______ ____

>  <TORSDO>
F 9

$$$$
=
 OpenBabel11042411353D

 35 38  0  0  1  0  0  0  0  0999 V2000
  189.9640  176.7800  142.3830 N   0  0  0  0  0  0  0  0  0  0  0  0
  189.5690  177.0350  141.1740 C   0  0  0  0  0  3  0  0  0  0  0  0
  187.9860  177.1170  143.7380 C   0  0  0  0  0  3  0  0  0  0  0  0
  187.3420  178.1320  141.5450 C   0  0  0  0  0  0  0  0  0  0  0  0
  187.0720  177.4610  142.8340 C   0  0  0  0  0  3  0  0  0  0  0  0
  188.4690  177.9570  140.8110 C   0  0  0  0  0  0  0  0  0  0  0  0
  189.4340  177.4260  143.5740 C   0  0  1  0  0  3  0  0  0  0  0  0
  191.6410  176.1480  146.9970 C   0  0  0  0  0  0  0  0  0  0  0  0
  190.2010  176.9710  144.7730 C   0  0  0  0  0  0  0  0  0  0  0  0
  192.0690  175.8340  145.7060 C   0  0  0  0  0  3  0  0  0  0  0  0
  191.3480  176.2490  144.6300 N   0  0  0  0  0  0  0  0  0  0  0  0
  190.4730  176.8930  147.1670 C   0  0  0  0  0  3  0  0  0  0  0  0
  189.7480  177.3100  146.0500 C   0  0  0  0  0  3  0  0  0  0  0  0
  192.4210  175.6970  148.1760 C   0  0  0  0  0  1  0  0  0  0  0  0
  186.1980  178.9400  141.0060 C   0  0  0  0  0  2  0  0  0  0  0  0
  185.2340  179.3800  142.1030 C   0  0  0  0  0  2  0  0  0  0  0  0
  183.8580  179.0070  141.7790 N   0  0  0  0  0  0  0  0  0  0  0  0
  183.5430  179.4040  139.4050 N   0  0  0  0  0  0  0  0  0  0  0  0
  183.2890  179.0050  138.1310 C   0  0  0  0  0  3  0  0  0  0  0  0
  183.1240  176.7300  138.8920 C   0  0  0  0  0  0  0  0  0  0  0  0
  182.9110  175.3820  138.6360 O   0  0  0  0  0  1  0  0  0  0  0  0
  183.6080  178.5210  140.4430 C   0  0  0  0  0  0  0  0  0  0  0  0
  183.0780  177.6550  137.8510 C   0  0  0  0  0  3  0  0  0  0  0  0
  183.3840  177.1590  140.1930 C   0  0  0  0  0  3  0  0  0  0  0  0
  182.8160  179.0500  142.7880 C   0  0  0  0  0  0  0  0  0  0  0  0
  182.9620  178.9830  144.1120 C   0  0  1  0  0  3  0  0  0  0  0  0
  181.3440  179.0760  142.5170 C   0  0  0  0  0  3  0  0  0  0  0  0
  181.6940  178.9810  144.7400 N   0  0  0  0  0  0  0  0  0  0  0  0
  184.2310  178.8900  144.8860 C   0  0  0  0  0  1  0  0  0  0  0  0
  180.7820  179.0340  143.8600 N   0  0  0  0  0  0  0  0  0  0  0  0
  188.5980  178.6030  139.4650 C   0  0  0  0  0  2  0  0  0  0  0  0
  189.5390  178.2430  137.3280 C   0  0  0  0  0  1  0  0  0  0  0  0
  188.8760  177.5940  138.4500 N   0  0  0  0  0  0  0  0  0  0  0  0
  186.7110  177.9490  137.2360 C   0  0  0  0  0  1  0  0  0  0  0  0
  187.6220  176.9820  137.9930 C   0  0  0  0  0  2  0  0  0  0  0  0
  1  7  1  0  0  0  0
  2  1  2  0  0  0  0
  4  5  1  0  0  0  0
  5  3  2  0  0  0  0
  6  2  1  0  0  0  0
  6  4  2  0  0  0  0
  7  3  1  0  0  0  0
  7  9  1  1  0  0  0
  8 12  1  0  0  0  0
  8 14  1  0  0  0  0
  9 13  1  0  0  0  0
 10  8  2  0  0  0  0
 11  9  2  0  0  0  0
 11 10  1  0  0  0  0
 13 12  2  0  0  0  0
 15  4  1  0  0  0  0
 15 16  1  0  0  0  0
 17 16  1  0  0  0  0
 17 25  1  0  0  0  0
 18 22  1  0  0  0  0
 19 18  2  0  0  0  0
 20 24  1  0  0  0  0
 21 20  1  0  0  0  0
 22 17  1  0  0  0  0
 23 19  1  0  0  0  0
 23 20  2  0  0  0  0
 24 22  2  0  0  0  0
 25 26  1  0  0  0  0
 26 28  1  0  0  0  0
 26 29  1  6  0  0  0
 27 25  2  0  0  0  0
 27 30  1  0  0  0  0
 30 28  2  0  0  0  0
 31  6  1  0  0  0  0
 32 33  1  0  0  0  0
 33 31  1  0  0  0  0
 34 35  1  0  0  0  0
 35 33  1  0  0  0  0
M  END
>  <MODEL>
8

>  <REMARK>
 VINA RESULT:      -7.2      2.738      6.230
  Name = 
  9 active torsions:
  status: ('A' for Active; 'I' for Inactive)
    1  A    between atoms: C_1  and  C_8
    2  A    between atoms: C_1  and  C_17
    3  A    between atoms: C_2  and  N_7
    4  A    between atoms: N_7  and  C_8
    5  A    between atoms: N_7  and  C_28
    6  A    between atoms: C_11  and  C_35
    7  A    between atoms: C_13  and  N_32
    8  A    between atoms: C_23  and  C_25
    9  A    between atoms: C_25  and  N_32
                            x       y       z     vdW  Elec       q    Type
                         _______ _______ _______ _____ _____    ______ ____

>  <TORSDO>
F 9

$$$$
=
 OpenBabel11042411353D

 35 38  0  0  1  0  0  0  0  0999 V2000
  189.2850  176.8810  142.5890 N   0  0  0  0  0  0  0  0  0  0  0  0
  188.7420  177.1060  141.4320 C   0  0  0  0  0  3  0  0  0  0  0  0
  187.4680  177.1680  144.1640 C   0  0  0  0  0  3  0  0  0  0  0  0
  186.5370  178.1330  142.0530 C   0  0  0  0  0  0  0  0  0  0  0  0
  186.4430  177.4700  143.3710 C   0  0  0  0  0  3  0  0  0  0  0  0
  187.5760  177.9870  141.1940 C   0  0  0  0  0  0  0  0  0  0  0  0
  188.8760  177.5240  143.8290 C   0  0  1  0  0  3  0  0  0  0  0  0
  191.5090  176.3680  146.9830 C   0  0  0  0  0  0  0  0  0  0  0  0
  189.7930  177.1110  144.9330 C   0  0  0  0  0  0  0  0  0  0  0  0
  191.8920  176.2490  145.6450 C   0  0  0  0  0  3  0  0  0  0  0  0
  191.0340  176.6200  144.6560 N   0  0  0  0  0  0  0  0  0  0  0  0
  190.2450  176.8750  147.2890 C   0  0  0  0  0  3  0  0  0  0  0  0
  189.3810  177.2510  146.2600 C   0  0  0  0  0  3  0  0  0  0  0  0
  192.4380  175.9630  148.0670 C   0  0  0  0  0  1  0  0  0  0  0  0
  185.3100  178.8940  141.6450 C   0  0  0  0  0  2  0  0  0  0  0  0
  184.0240  178.1920  142.0720 C   0  0  0  0  0  2  0  0  0  0  0  0
  182.9820  178.3310  141.0560 N   0  0  0  0  0  0  0  0  0  0  0  0
  182.5950  176.2330  139.8970 N   0  0  0  0  0  0  0  0  0  0  0  0
  182.6970  175.4010  138.8270 C   0  0  0  0  0  3  0  0  0  0  0  0
  183.8770  177.1150  137.6240 C   0  0  0  0  0  0  0  0  0  0  0  0
  184.5260  177.5600  136.4800 O   0  0  0  0  0  1  0  0  0  0  0  0
  183.0990  177.5010  139.8810 C   0  0  0  0  0  0  0  0  0  0  0  0
  183.3390  175.8300  137.6670 C   0  0  0  0  0  3  0  0  0  0  0  0
  183.7640  177.9530  138.7320 C   0  0  0  0  0  3  0  0  0  0  0  0
  181.8460  179.2070  141.2680 C   0  0  0  0  0  0  0  0  0  0  0  0
  181.1560  179.3870  142.3950 C   0  0  1  0  0  3  0  0  0  0  0  0
  181.1590  180.0110  140.2080 C   0  0  0  0  0  3  0  0  0  0  0  0
  180.0730  180.2670  142.1650 N   0  0  0  0  0  0  0  0  0  0  0  0
  181.4060  178.7670  143.7260 C   0  0  0  0  0  1  0  0  0  0  0  0
  180.0630  180.6240  140.9470 N   0  0  0  0  0  0  0  0  0  0  0  0
  187.5230  178.6190  139.8360 C   0  0  0  0  0  2  0  0  0  0  0  0
  189.2510  178.8380  138.2400 C   0  0  0  0  0  1  0  0  0  0  0  0
  188.3780  177.8850  138.9080 N   0  0  0  0  0  0  0  0  0  0  0  0
  188.1750  175.8830  137.4130 C   0  0  0  0  0  1  0  0  0  0  0  0
  187.5550  177.1880  137.9130 C   0  0  0  0  0  2  0  0  0  0  0  0
  1  7  1  0  0  0  0
  2  1  2  0  0  0  0
  4  5  1  0  0  0  0
  5  3  2  0  0  0  0
  6  2  1  0  0  0  0
  6  4  2  0  0  0  0
  7  3  1  0  0  0  0
  7  9  1  1  0  0  0
  8 12  1  0  0  0  0
  8 14  1  0  0  0  0
  9 13  1  0  0  0  0
 10  8  2  0  0  0  0
 11  9  2  0  0  0  0
 11 10  1  0  0  0  0
 13 12  2  0  0  0  0
 15  4  1  0  0  0  0
 15 16  1  0  0  0  0
 17 25  1  0  0  0  0
 17 16  1  0  0  0  0
 19 18  2  0  0  0  0
 20 23  2  0  0  0  0
 20 24  1  0  0  0  0
 21 20  1  0  0  0  0
 22 18  1  0  0  0  0
 22 17  1  0  0  0  0
 23 19  1  0  0  0  0
 24 22  2  0  0  0  0
 25 26  1  0  0  0  0
 26 29  1  6  0  0  0
 27 30  1  0  0  0  0
 27 25  2  0  0  0  0
 28 26  1  0  0  0  0
 30 28  2  0  0  0  0
 31  6  1  0  0  0  0
 32 33  1  0  0  0  0
 33 31  1  0  0  0  0
 34 35  1  0  0  0  0
 35 33  1  0  0  0  0
M  END
>  <MODEL>
9

>  <REMARK>
 VINA RESULT:      -7.2      2.496      5.735
  Name = 
  9 active torsions:
  status: ('A' for Active; 'I' for Inactive)
    1  A    between atoms: C_1  and  C_8
    2  A    between atoms: C_1  and  C_17
    3  A    between atoms: C_2  and  N_7
    4  A    between atoms: N_7  and  C_8
    5  A    between atoms: N_7  and  C_28
    6  A    between atoms: C_11  and  C_35
    7  A    between atoms: C_13  and  N_32
    8  A    between atoms: C_23  and  C_25
    9  A    between atoms: C_25  and  N_32
                            x       y       z     vdW  Elec       q    Type
                         _______ _______ _______ _____ _____    ______ ____

>  <TORSDO>
F 9

$$$$
