=
 OpenBabel11042410533D

 26 29  0  0  1  0  0  0  0  0999 V2000
  188.8950  177.5600  140.7420 N   0  0  0  0  0  2  0  0  0  0  0  0
  185.3680  178.9400  144.8920 N   0  0  0  0  0  2  0  0  0  0  0  0
  188.4120  177.3660  143.2200 C   0  0  0  0  0  2  0  0  0  0  0  0
  184.6770  179.2270  142.5960 C   0  0  0  0  0  2  0  0  0  0  0  0
  187.5220  177.8830  144.3380 C   0  0  0  0  0  0  0  0  0  0  0  0
  185.9240  178.4960  142.6700 N   0  0  0  0  0  0  0  0  0  0  0  0
  186.3190  178.3800  144.0090 C   0  0  0  0  0  0  0  0  0  0  0  0
  184.2760  179.4660  144.0720 C   0  0  1  0  0  3  0  0  0  0  0  0
  186.8110  178.2880  141.6050 N   0  0  0  0  0  0  0  0  0  0  0  0
  187.9900  177.7800  141.8260 C   0  0  0  0  0  0  0  0  0  0  0  0
  189.3070  177.3620  146.0130 C   0  0  0  0  0  3  0  0  0  0  0  0
  191.3830  176.7470  147.6770 Cl  0  0  0  0  0  0  0  0  0  0  0  0
  188.8800  177.5810  148.3790 C   0  0  0  0  0  3  0  0  0  0  0  0
  187.5800  177.9910  148.0830 C   0  0  0  0  0  3  0  0  0  0  0  0
  187.9950  177.7780  145.7450 C   0  0  0  0  0  0  0  0  0  0  0  0
  187.1710  178.0800  146.7890 N   0  0  0  0  0  0  0  0  0  0  0  0
  189.7460  177.2650  147.3340 C   0  0  0  0  0  0  0  0  0  0  0  0
  188.5700  177.8720  139.3560 C   0  0  0  0  0  2  0  0  0  0  0  0
  190.7450  175.5180  138.7300 O   0  0  0  0  0  0  0  0  0  0  0  0
  189.4130  176.8200  137.2800 C   0  0  0  0  0  2  0  0  0  0  0  0
  190.3210  175.6200  137.3980 C   0  0  0  0  0  2  0  0  0  0  0  0
  189.7830  177.6680  138.4620 C   0  0  2  0  0  3  0  0  0  0  0  0
  190.8160  176.8400  139.1940 C   0  0  0  0  0  2  0  0  0  0  0  0
  182.9920  178.7180  144.3990 C   0  0  0  0  0  2  0  0  0  0  0  0
  180.6470  178.7030  143.9430 O   0  0  0  0  0  1  0  0  0  0  0  0
  181.8840  179.0850  143.4240 C   0  0  0  0  0  2  0  0  0  0  0  0
  1 10  1  0  0  0  0
  3  5  1  0  0  0  0
  4  6  1  0  0  0  0
  4  8  1  0  0  0  0
  5 15  1  0  0  0  0
  6  7  1  0  0  0  0
  7  5  2  0  0  0  0
  7  2  1  0  0  0  0
  8 24  1  1  0  0  0
  8  2  1  0  0  0  0
  9 10  2  0  0  0  0
  9  6  1  0  0  0  0
 10  3  1  0  0  0  0
 11 17  1  0  0  0  0
 14 13  1  0  0  0  0
 15 11  2  0  0  0  0
 15 16  1  0  0  0  0
 16 14  2  0  0  0  0
 17 12  1  0  0  0  0
 17 13  2  0  0  0  0
 18  1  1  0  0  0  0
 19 23  1  0  0  0  0
 20 21  1  0  0  0  0
 20 22  1  0  0  0  0
 21 19  1  0  0  0  0
 22 23  1  0  0  0  0
 22 18  1  1  0  0  0
 26 25  1  0  0  0  0
 26 24  1  0  0  0  0
M  END
>  <MODEL>
1

>  <REMARK>
 VINA RESULT:      -8.4      0.000      0.000
  Name = 
  5 active torsions:
  status: ('A' for Active; 'I' for Inactive)
    1  A    between atoms: N_3  and  C_17
    2  A    between atoms: C_11  and  C_19
    3  A    between atoms: C_13  and  C_17
    4  A    between atoms: C_18  and  C_24
    5  A    between atoms: C_24  and  C_25
                            x       y       z     vdW  Elec       q    Type
                         _______ _______ _______ _____ _____    ______ ____

>  <TORSDO>
F 5

$$$$
=
 OpenBabel11042410533D

 26 29  0  0  1  0  0  0  0  0999 V2000
  187.5520  178.5830  138.8470 N   0  0  0  0  0  2  0  0  0  0  0  0
  189.0870  176.7030  143.9140 N   0  0  0  0  0  2  0  0  0  0  0  0
  187.0890  178.6760  141.3360 C   0  0  0  0  0  2  0  0  0  0  0  0
  190.5530  176.3670  142.0250 C   0  0  0  0  0  2  0  0  0  0  0  0
  187.4310  178.0320  142.6690 C   0  0  0  0  0  0  0  0  0  0  0  0
  189.4590  177.2490  141.6770 N   0  0  0  0  0  0  0  0  0  0  0  0
  188.6050  177.3920  142.7790 C   0  0  0  0  0  0  0  0  0  0  0  0
  190.3410  176.0560  143.5270 C   0  0  1  0  0  3  0  0  0  0  0  0
  189.0660  177.5840  140.3740 N   0  0  0  0  0  0  0  0  0  0  0  0
  187.9550  178.2330  140.1740 C   0  0  0  0  0  0  0  0  0  0  0  0
  185.1190  178.4050  143.5530 C   0  0  0  0  0  3  0  0  0  0  0  0
  182.5310  178.8260  144.3150 Cl  0  0  0  0  0  0  0  0  0  0  0  0
  184.6980  178.4400  145.9300 C   0  0  0  0  0  3  0  0  0  0  0  0
  186.0570  178.2100  146.1500 C   0  0  0  0  0  3  0  0  0  0  0  0
  186.4800  178.1730  143.8040 C   0  0  0  0  0  0  0  0  0  0  0  0
  186.9070  178.0830  145.0960 N   0  0  0  0  0  0  0  0  0  0  0  0
  184.2300  178.5380  144.6200 C   0  0  0  0  0  0  0  0  0  0  0  0
  188.3380  178.2550  137.6640 C   0  0  0  0  0  2  0  0  0  0  0  0
  186.7840  175.4260  137.1640 O   0  0  0  0  0  0  0  0  0  0  0  0
  186.0210  177.6540  137.0310 C   0  0  0  0  0  2  0  0  0  0  0  0
  185.6210  176.1990  137.0540 C   0  0  0  0  0  2  0  0  0  0  0  0
  187.4560  177.6260  136.5950 C   0  0  2  0  0  3  0  0  0  0  0  0
  187.7730  176.1510  136.4840 C   0  0  0  0  0  2  0  0  0  0  0  0
  191.4830  176.6290  144.3510 C   0  0  0  0  0  2  0  0  0  0  0  0
  192.0040  176.6810  146.6820 O   0  0  0  0  0  1  0  0  0  0  0  0
  191.0160  176.9980  145.7510 C   0  0  0  0  0  2  0  0  0  0  0  0
  1 10  1  0  0  0  0
  3  5  1  0  0  0  0
  4  8  1  0  0  0  0
  5  7  2  0  0  0  0
  5 15  1  0  0  0  0
  6  4  1  0  0  0  0
  6  7  1  0  0  0  0
  7  2  1  0  0  0  0
  8  2  1  0  0  0  0
  8 24  1  1  0  0  0
  9  6  1  0  0  0  0
 10  9  2  0  0  0  0
 10  3  1  0  0  0  0
 11 15  2  0  0  0  0
 11 17  1  0  0  0  0
 12 17  1  0  0  0  0
 13 14  1  0  0  0  0
 15 16  1  0  0  0  0
 16 14  2  0  0  0  0
 17 13  2  0  0  0  0
 18  1  1  0  0  0  0
 20 21  1  0  0  0  0
 21 19  1  0  0  0  0
 22 20  1  0  0  0  0
 22 18  1  1  0  0  0
 23 22  1  0  0  0  0
 23 19  1  0  0  0  0
 24 26  1  0  0  0  0
 26 25  1  0  0  0  0
M  END
>  <MODEL>
2

>  <REMARK>
 VINA RESULT:      -8.2      3.365      5.372
  Name = 
  5 active torsions:
  status: ('A' for Active; 'I' for Inactive)
    1  A    between atoms: N_3  and  C_17
    2  A    between atoms: C_11  and  C_19
    3  A    between atoms: C_13  and  C_17
    4  A    between atoms: C_18  and  C_24
    5  A    between atoms: C_24  and  C_25
                            x       y       z     vdW  Elec       q    Type
                         _______ _______ _______ _____ _____    ______ ____

>  <TORSDO>
F 5

$$$$
=
 OpenBabel11042410533D

 26 29  0  0  1  0  0  0  0  0999 V2000
  188.1550  178.5240  139.1550 N   0  0  0  0  0  2  0  0  0  0  0  0
  187.3920  177.3740  144.6010 N   0  0  0  0  0  2  0  0  0  0  0  0
  186.6500  178.8520  141.1650 C   0  0  0  0  0  2  0  0  0  0  0  0
  189.5450  176.9660  143.5880 C   0  0  0  0  0  2  0  0  0  0  0  0
  186.3990  178.3960  142.5930 C   0  0  0  0  0  0  0  0  0  0  0  0
  188.6830  177.6980  142.6850 N   0  0  0  0  0  0  0  0  0  0  0  0
  187.4290  177.8840  143.2840 C   0  0  0  0  0  0  0  0  0  0  0  0
  188.7110  176.8070  144.8820 C   0  0  1  0  0  3  0  0  0  0  0  0
  188.8850  177.8470  141.3060 N   0  0  0  0  0  0  0  0  0  0  0  0
  187.9510  178.3640  140.5610 C   0  0  0  0  0  0  0  0  0  0  0  0
  183.9130  178.5650  142.3490 C   0  0  0  0  0  3  0  0  0  0  0  0
  181.2290  178.7210  141.8730 Cl  0  0  0  0  0  0  0  0  0  0  0  0
  182.5050  178.9120  144.2790 C   0  0  0  0  0  3  0  0  0  0  0  0
  183.6470  178.9190  145.0810 C   0  0  0  0  0  3  0  0  0  0  0  0
  185.0440  178.5750  143.1800 C   0  0  0  0  0  0  0  0  0  0  0  0
  184.8750  178.7520  144.5220 N   0  0  0  0  0  0  0  0  0  0  0  0
  182.6440  178.7340  142.9030 C   0  0  0  0  0  0  0  0  0  0  0  0
  189.3890  178.1390  138.4800 C   0  0  0  0  0  2  0  0  0  0  0  0
  188.1960  176.4750  135.9360 O   0  0  0  0  0  0  0  0  0  0  0  0
  187.8470  178.7030  136.6280 C   0  0  0  0  0  2  0  0  0  0  0  0
  187.3890  177.5980  135.7080 C   0  0  0  0  0  2  0  0  0  0  0  0
  189.2560  178.3220  136.9760 C   0  0  2  0  0  3  0  0  0  0  0  0
  189.4520  176.9910  136.2860 C   0  0  0  0  0  2  0  0  0  0  0  0
  189.3580  177.5730  146.0260 C   0  0  0  0  0  2  0  0  0  0  0  0
  189.0770  178.2900  148.2880 O   0  0  0  0  0  1  0  0  0  0  0  0
  188.4600  177.5870  147.2520 C   0  0  0  0  0  2  0  0  0  0  0  0
  1 10  1  0  0  0  0
  2  8  1  0  0  0  0
  3  5  1  0  0  0  0
  4  8  1  0  0  0  0
  5 15  1  0  0  0  0
  5  7  2  0  0  0  0
  6  7  1  0  0  0  0
  6  4  1  0  0  0  0
  7  2  1  0  0  0  0
  8 24  1  1  0  0  0
  9  6  1  0  0  0  0
 10  3  1  0  0  0  0
 10  9  2  0  0  0  0
 11 17  2  0  0  0  0
 11 15  1  0  0  0  0
 12 17  1  0  0  0  0
 13 14  2  0  0  0  0
 15 16  2  0  0  0  0
 16 14  1  0  0  0  0
 17 13  1  0  0  0  0
 18  1  1  0  0  0  0
 19 23  1  0  0  0  0
 20 22  1  0  0  0  0
 21 19  1  0  0  0  0
 21 20  1  0  0  0  0
 22 18  1  1  0  0  0
 23 22  1  0  0  0  0
 24 26  1  0  0  0  0
 26 25  1  0  0  0  0
M  END
>  <MODEL>
3

>  <REMARK>
 VINA RESULT:      -8.1      3.369      5.238
  Name = 
  5 active torsions:
  status: ('A' for Active; 'I' for Inactive)
    1  A    between atoms: N_3  and  C_17
    2  A    between atoms: C_11  and  C_19
    3  A    between atoms: C_13  and  C_17
    4  A    between atoms: C_18  and  C_24
    5  A    between atoms: C_24  and  C_25
                            x       y       z     vdW  Elec       q    Type
                         _______ _______ _______ _____ _____    ______ ____

>  <TORSDO>
F 5

$$$$
=
 OpenBabel11042410533D

 26 29  0  0  1  0  0  0  0  0999 V2000
  189.9130  177.6750  139.5530 N   0  0  0  0  0  2  0  0  0  0  0  0
  186.4950  178.5490  143.9260 N   0  0  0  0  0  2  0  0  0  0  0  0
  189.5250  177.2390  142.0180 C   0  0  0  0  0  2  0  0  0  0  0  0
  185.7130  179.0190  141.6900 C   0  0  0  0  0  2  0  0  0  0  0  0
  188.6590  177.6220  143.2070 C   0  0  0  0  0  0  0  0  0  0  0  0
  186.9840  178.3280  141.6550 N   0  0  0  0  0  0  0  0  0  0  0  0
  187.4310  178.1050  142.9650 C   0  0  0  0  0  0  0  0  0  0  0  0
  185.3580  179.1090  143.1940 C   0  0  1  0  0  3  0  0  0  0  0  0
  187.8380  178.2480  140.5470 N   0  0  0  0  0  0  0  0  0  0  0  0
  189.0400  177.7640  140.6820 C   0  0  0  0  0  0  0  0  0  0  0  0
  188.3450  177.5890  145.6900 C   0  0  0  0  0  3  0  0  0  0  0  0
  187.8000  177.6120  148.3650 Cl  0  0  0  0  0  0  0  0  0  0  0  0
  190.1720  177.0040  147.1570 C   0  0  0  0  0  3  0  0  0  0  0  0
  190.9850  176.8320  146.0360 C   0  0  0  0  0  3  0  0  0  0  0  0
  189.1860  177.4070  144.5820 C   0  0  0  0  0  0  0  0  0  0  0  0
  190.4810  177.0330  144.7890 N   0  0  0  0  0  0  0  0  0  0  0  0
  188.8430  177.3860  146.9770 C   0  0  0  0  0  0  0  0  0  0  0  0
  189.5280  178.1000  138.2130 C   0  0  0  0  0  2  0  0  0  0  0  0
  190.6910  175.0490  138.1320 O   0  0  0  0  0  0  0  0  0  0  0  0
  188.9860  176.0880  136.8760 C   0  0  0  0  0  2  0  0  0  0  0  0
  189.6430  174.7800  137.2410 C   0  0  0  0  0  2  0  0  0  0  0  0
  190.0390  177.1150  137.1720 C   0  0  2  0  0  3  0  0  0  0  0  0
  191.1780  176.3090  137.7560 C   0  0  0  0  0  2  0  0  0  0  0  0
  184.1110  178.2910  143.4930 C   0  0  0  0  0  2  0  0  0  0  0  0
  183.6680  179.0760  145.7050 O   0  0  0  0  0  1  0  0  0  0  0  0
  183.1630  179.0520  144.4050 C   0  0  0  0  0  2  0  0  0  0  0  0
  1 10  1  0  0  0  0
  3  5  1  0  0  0  0
  4  8  1  0  0  0  0
  5 15  1  0  0  0  0
  6  4  1  0  0  0  0
  6  7  1  0  0  0  0
  7  5  2  0  0  0  0
  7  2  1  0  0  0  0
  8 24  1  6  0  0  0
  8  2  1  0  0  0  0
  9 10  2  0  0  0  0
  9  6  1  0  0  0  0
 10  3  1  0  0  0  0
 11 17  1  0  0  0  0
 14 13  1  0  0  0  0
 15 16  1  0  0  0  0
 15 11  2  0  0  0  0
 16 14  2  0  0  0  0
 17 13  2  0  0  0  0
 17 12  1  0  0  0  0
 18  1  1  0  0  0  0
 20 22  1  0  0  0  0
 20 21  1  0  0  0  0
 21 19  1  0  0  0  0
 22 23  1  0  0  0  0
 22 18  1  1  0  0  0
 23 19  1  0  0  0  0
 24 26  1  0  0  0  0
 26 25  1  0  0  0  0
M  END
>  <MODEL>
4

>  <REMARK>
 VINA RESULT:      -8.0      1.651      2.016
  Name = 
  5 active torsions:
  status: ('A' for Active; 'I' for Inactive)
    1  A    between atoms: N_3  and  C_17
    2  A    between atoms: C_11  and  C_19
    3  A    between atoms: C_13  and  C_17
    4  A    between atoms: C_18  and  C_24
    5  A    between atoms: C_24  and  C_25
                            x       y       z     vdW  Elec       q    Type
                         _______ _______ _______ _____ _____    ______ ____

>  <TORSDO>
F 5

$$$$
=
 OpenBabel11042410533D

 26 29  0  0  1  0  0  0  0  0999 V2000
  183.3390  178.7190  143.1050 N   0  0  0  0  0  2  0  0  0  0  0  0
  188.3820  177.9090  145.4440 N   0  0  0  0  0  2  0  0  0  0  0  0
  185.6890  177.8460  142.7460 C   0  0  0  0  0  2  0  0  0  0  0  0
  186.4890  178.4330  146.8470 C   0  0  0  0  0  2  0  0  0  0  0  0
  187.0780  177.7820  143.3600 C   0  0  0  0  0  0  0  0  0  0  0  0
  186.0640  178.1650  145.4900 N   0  0  0  0  0  0  0  0  0  0  0  0
  187.1860  177.9050  144.6920 C   0  0  0  0  0  0  0  0  0  0  0  0
  188.0190  178.2010  146.8310 C   0  0  1  0  0  3  0  0  0  0  0  0
  184.8170  178.5010  144.9450 N   0  0  0  0  0  0  0  0  0  0  0  0
  184.6110  178.3830  143.6640 C   0  0  0  0  0  0  0  0  0  0  0  0
  188.2810  178.1050  141.1890 C   0  0  0  0  0  3  0  0  0  0  0  0
  189.4290  178.5770  138.7570 Cl  0  0  0  0  0  0  0  0  0  0  0  0
  190.4400  177.0930  140.8130 C   0  0  0  0  0  3  0  0  0  0  0  0
  190.3800  176.5450  142.0950 C   0  0  0  0  0  3  0  0  0  0  0  0
  188.2480  177.5420  142.4740 C   0  0  0  0  0  0  0  0  0  0  0  0
  189.3000  176.7790  142.8870 N   0  0  0  0  0  0  0  0  0  0  0  0
  189.3810  177.8780  140.3610 C   0  0  0  0  0  0  0  0  0  0  0  0
  182.2170  179.1930  143.9050 C   0  0  0  0  0  2  0  0  0  0  0  0
  180.0560  180.7740  142.0350 O   0  0  0  0  0  0  0  0  0  0  0  0
  181.1280  178.6940  141.7380 C   0  0  0  0  0  2  0  0  0  0  0  0
  180.2860  179.7660  141.0900 C   0  0  0  0  0  2  0  0  0  0  0  0
  180.8980  178.8940  143.2070 C   0  0  2  0  0  3  0  0  0  0  0  0
  180.0060  180.1140  143.2710 C   0  0  0  0  0  2  0  0  0  0  0  0
  188.3830  177.0140  147.7100 C   0  0  0  0  0  2  0  0  0  0  0  0
  190.7690  177.1330  147.7210 O   0  0  0  0  0  1  0  0  0  0  0  0
  189.6890  176.3800  147.2590 C   0  0  0  0  0  2  0  0  0  0  0  0
  1 10  1  0  0  0  0
  1 18  1  0  0  0  0
  2  8  1  0  0  0  0
  3  5  1  0  0  0  0
  3 10  1  0  0  0  0
  5  7  2  0  0  0  0
  6  4  1  0  0  0  0
  7  2  1  0  0  0  0
  7  6  1  0  0  0  0
  8  4  1  0  0  0  0
  8 24  1  1  0  0  0
  9  6  1  0  0  0  0
 10  9  2  0  0  0  0
 11 15  1  0  0  0  0
 12 17  1  0  0  0  0
 13 14  2  0  0  0  0
 14 16  1  0  0  0  0
 15 16  2  0  0  0  0
 15  5  1  0  0  0  0
 17 13  1  0  0  0  0
 17 11  2  0  0  0  0
 19 23  1  0  0  0  0
 20 22  1  0  0  0  0
 21 20  1  0  0  0  0
 21 19  1  0  0  0  0
 22 23  1  0  0  0  0
 22 18  1  1  0  0  0
 26 24  1  0  0  0  0
 26 25  1  0  0  0  0
M  END
>  <MODEL>
5

>  <REMARK>
 VINA RESULT:      -8.0      3.111      7.266
  Name = 
  5 active torsions:
  status: ('A' for Active; 'I' for Inactive)
    1  A    between atoms: N_3  and  C_17
    2  A    between atoms: C_11  and  C_19
    3  A    between atoms: C_13  and  C_17
    4  A    between atoms: C_18  and  C_24
    5  A    between atoms: C_24  and  C_25
                            x       y       z     vdW  Elec       q    Type
                         _______ _______ _______ _____ _____    ______ ____

>  <TORSDO>
F 5

$$$$
=
 OpenBabel11042410533D

 26 29  0  0  1  0  0  0  0  0999 V2000
  187.5890  177.9910  144.6970 N   0  0  0  0  0  2  0  0  0  0  0  0
  187.3710  178.4660  139.1030 N   0  0  0  0  0  2  0  0  0  0  0  0
  186.0750  178.0980  142.6700 C   0  0  0  0  0  2  0  0  0  0  0  0
  189.4750  177.9590  140.1740 C   0  0  0  0  0  2  0  0  0  0  0  0
  186.0470  178.3800  141.1770 C   0  0  0  0  0  0  0  0  0  0  0  0
  188.3840  177.8830  141.1230 N   0  0  0  0  0  0  0  0  0  0  0  0
  187.1840  178.2210  140.4820 C   0  0  0  0  0  0  0  0  0  0  0  0
  188.7960  178.2830  138.8220 C   0  0  1  0  0  3  0  0  0  0  0  0
  188.5150  177.8800  142.5180 N   0  0  0  0  0  0  0  0  0  0  0  0
  187.4610  177.9990  143.2730 C   0  0  0  0  0  0  0  0  0  0  0  0
  183.5620  178.1750  140.9540 C   0  0  0  0  0  3  0  0  0  0  0  0
  180.8580  177.8060  140.8660 Cl  0  0  0  0  0  0  0  0  0  0  0  0
  182.3530  179.5130  139.3490 C   0  0  0  0  0  3  0  0  0  0  0  0
  183.5610  180.0910  138.9560 C   0  0  0  0  0  3  0  0  0  0  0  0
  184.7610  178.7750  140.5410 C   0  0  0  0  0  0  0  0  0  0  0  0
  184.7240  179.7150  139.5540 N   0  0  0  0  0  0  0  0  0  0  0  0
  182.3590  178.5480  140.3550 C   0  0  0  0  0  0  0  0  0  0  0  0
  188.8680  177.8470  145.3810 C   0  0  0  0  0  2  0  0  0  0  0  0
  189.5370  178.2710  148.5490 O   0  0  0  0  0  0  0  0  0  0  0  0
  187.5420  177.6390  147.4610 C   0  0  0  0  0  2  0  0  0  0  0  0
  188.1650  178.0850  148.7610 C   0  0  0  0  0  2  0  0  0  0  0  0
  188.6950  177.0780  146.6830 C   0  0  2  0  0  3  0  0  0  0  0  0
  189.8900  177.3250  147.5760 C   0  0  0  0  0  2  0  0  0  0  0  0
  188.9760  177.1270  137.8500 C   0  0  0  0  0  2  0  0  0  0  0  0
  190.4890  175.3140  138.2110 O   0  0  0  0  0  1  0  0  0  0  0  0
  190.4210  176.6530  137.8260 C   0  0  0  0  0  2  0  0  0  0  0  0
  1 18  1  0  0  0  0
  2  7  1  0  0  0  0
  3 10  1  0  0  0  0
  4  6  1  0  0  0  0
  5  3  1  0  0  0  0
  6  9  1  0  0  0  0
  7  6  1  0  0  0  0
  7  5  2  0  0  0  0
  8 24  1  6  0  0  0
  8  2  1  0  0  0  0
  8  4  1  0  0  0  0
  9 10  2  0  0  0  0
 10  1  1  0  0  0  0
 13 17  1  0  0  0  0
 14 13  2  0  0  0  0
 14 16  1  0  0  0  0
 15 11  1  0  0  0  0
 15  5  1  0  0  0  0
 16 15  2  0  0  0  0
 17 12  1  0  0  0  0
 17 11  2  0  0  0  0
 19 21  1  0  0  0  0
 20 21  1  0  0  0  0
 22 18  1  6  0  0  0
 22 20  1  0  0  0  0
 22 23  1  0  0  0  0
 23 19  1  0  0  0  0
 26 24  1  0  0  0  0
 26 25  1  0  0  0  0
M  END
>  <MODEL>
6

>  <REMARK>
 VINA RESULT:      -7.9      3.679      8.083
  Name = 
  5 active torsions:
  status: ('A' for Active; 'I' for Inactive)
    1  A    between atoms: N_3  and  C_17
    2  A    between atoms: C_11  and  C_19
    3  A    between atoms: C_13  and  C_17
    4  A    between atoms: C_18  and  C_24
    5  A    between atoms: C_24  and  C_25
                            x       y       z     vdW  Elec       q    Type
                         _______ _______ _______ _____ _____    ______ ____

>  <TORSDO>
F 5

$$$$
=
 OpenBabel11042410533D

 26 29  0  0  1  0  0  0  0  0999 V2000
  187.6100  178.4030  138.4970 N   0  0  0  0  0  2  0  0  0  0  0  0
  188.7360  176.9060  143.7940 N   0  0  0  0  0  2  0  0  0  0  0  0
  186.9320  178.6510  140.9240 C   0  0  0  0  0  2  0  0  0  0  0  0
  190.3650  176.4800  142.0640 C   0  0  0  0  0  2  0  0  0  0  0  0
  187.1690  178.1080  142.3240 C   0  0  0  0  0  0  0  0  0  0  0  0
  189.2900  177.3090  141.5640 N   0  0  0  0  0  0  0  0  0  0  0  0
  188.3410  177.5050  142.5770 C   0  0  0  0  0  0  0  0  0  0  0  0
  190.0300  176.2650  143.5600 C   0  0  1  0  0  3  0  0  0  0  0  0
  189.0040  177.5460  140.2130 N   0  0  0  0  0  0  0  0  0  0  0  0
  187.9030  178.1530  139.8740 C   0  0  0  0  0  0  0  0  0  0  0  0
  186.4810  178.3790  144.7150 C   0  0  0  0  0  3  0  0  0  0  0  0
  185.9350  178.6590  147.3760 Cl  0  0  0  0  0  0  0  0  0  0  0  0
  184.1570  178.6640  145.3040 C   0  0  0  0  0  3  0  0  0  0  0  0
  183.8280  178.5820  143.9510 C   0  0  0  0  0  3  0  0  0  0  0  0
  186.1210  178.3020  143.3610 C   0  0  0  0  0  0  0  0  0  0  0  0
  184.8040  178.4060  143.0200 N   0  0  0  0  0  0  0  0  0  0  0  0
  185.4940  178.5610  145.6840 C   0  0  0  0  0  0  0  0  0  0  0  0
  188.5010  178.0140  137.4110 C   0  0  0  0  0  2  0  0  0  0  0  0
  186.9930  175.1190  137.3370 O   0  0  0  0  0  0  0  0  0  0  0  0
  186.2830  177.2510  136.6200 C   0  0  0  0  0  2  0  0  0  0  0  0
  185.8650  175.8300  136.9060 C   0  0  0  0  0  2  0  0  0  0  0  0
  187.7630  177.1530  136.3960 C   0  0  2  0  0  3  0  0  0  0  0  0
  188.0730  175.6950  136.6530 C   0  0  0  0  0  2  0  0  0  0  0  0
  191.0860  176.9210  144.4370 C   0  0  0  0  0  2  0  0  0  0  0  0
  191.7720  176.9190  146.7260 O   0  0  0  0  0  1  0  0  0  0  0  0
  190.6520  176.9390  145.8950 C   0  0  0  0  0  2  0  0  0  0  0  0
  1 10  1  0  0  0  0
  3  5  1  0  0  0  0
  4  8  1  0  0  0  0
  5  7  2  0  0  0  0
  5 15  1  0  0  0  0
  6  4  1  0  0  0  0
  6  7  1  0  0  0  0
  7  2  1  0  0  0  0
  8  2  1  0  0  0  0
  8 24  1  1  0  0  0
  9  6  1  0  0  0  0
 10  9  2  0  0  0  0
 10  3  1  0  0  0  0
 11 17  1  0  0  0  0
 13 17  2  0  0  0  0
 14 13  1  0  0  0  0
 15 11  2  0  0  0  0
 16 15  1  0  0  0  0
 16 14  2  0  0  0  0
 17 12  1  0  0  0  0
 18  1  1  0  0  0  0
 20 21  1  0  0  0  0
 21 19  1  0  0  0  0
 22 20  1  0  0  0  0
 22 23  1  0  0  0  0
 22 18  1  1  0  0  0
 23 19  1  0  0  0  0
 24 26  1  0  0  0  0
 26 25  1  0  0  0  0
M  END
>  <MODEL>
7

>  <REMARK>
 VINA RESULT:      -7.9      2.989      5.111
  Name = 
  5 active torsions:
  status: ('A' for Active; 'I' for Inactive)
    1  A    between atoms: N_3  and  C_17
    2  A    between atoms: C_11  and  C_19
    3  A    between atoms: C_13  and  C_17
    4  A    between atoms: C_18  and  C_24
    5  A    between atoms: C_24  and  C_25
                            x       y       z     vdW  Elec       q    Type
                         _______ _______ _______ _____ _____    ______ ____

>  <TORSDO>
F 5

$$$$
=
 OpenBabel11042410533D

 26 29  0  0  1  0  0  0  0  0999 V2000
  184.6130  179.4200  140.4570 N   0  0  0  0  0  2  0  0  0  0  0  0
  189.5110  177.0540  141.8630 N   0  0  0  0  0  2  0  0  0  0  0  0
  186.2210  178.9170  142.3480 C   0  0  0  0  0  2  0  0  0  0  0  0
  189.0100  177.4620  139.5370 C   0  0  0  0  0  2  0  0  0  0  0  0
  187.4730  178.1380  142.7160 C   0  0  0  0  0  0  0  0  0  0  0  0
  188.0270  178.0920  140.3920 N   0  0  0  0  0  0  0  0  0  0  0  0
  188.3210  177.8040  141.7320 C   0  0  0  0  0  0  0  0  0  0  0  0
  190.0300  176.8280  140.5130 C   0  0  1  0  0  3  0  0  0  0  0  0
  186.7710  178.5600  139.9830 N   0  0  0  0  0  0  0  0  0  0  0  0
  185.8940  178.9360  140.8690 C   0  0  0  0  0  0  0  0  0  0  0  0
  189.0330  177.5310  144.5770 C   0  0  0  0  0  3  0  0  0  0  0  0
  190.8930  176.8730  146.4650 Cl  0  0  0  0  0  0  0  0  0  0  0  0
  188.2090  177.2150  146.8240 C   0  0  0  0  0  3  0  0  0  0  0  0
  186.9220  177.5020  146.3670 C   0  0  0  0  0  3  0  0  0  0  0  0
  187.7290  177.8170  144.1460 C   0  0  0  0  0  0  0  0  0  0  0  0
  186.7130  177.7940  145.0550 N   0  0  0  0  0  0  0  0  0  0  0  0
  189.2680  177.2300  145.9190 C   0  0  0  0  0  0  0  0  0  0  0  0
  184.2160  179.5310  139.0590 C   0  0  0  0  0  2  0  0  0  0  0  0
  183.4460  176.3790  138.6860 O   0  0  0  0  0  0  0  0  0  0  0  0
  182.5020  178.0500  140.0580 C   0  0  0  0  0  2  0  0  0  0  0  0
  182.5570  176.5730  139.7520 C   0  0  0  0  0  2  0  0  0  0  0  0
  182.9720  178.6980  138.7890 C   0  0  2  0  0  3  0  0  0  0  0  0
  183.3290  177.5310  137.8960 C   0  0  0  0  0  2  0  0  0  0  0  0
  191.3860  177.5010  140.3720 C   0  0  0  0  0  2  0  0  0  0  0  0
  193.5460  177.1240  139.4230 O   0  0  0  0  0  1  0  0  0  0  0  0
  192.1840  176.8900  139.2310 C   0  0  0  0  0  2  0  0  0  0  0  0
  1 10  1  0  0  0  0
  3  5  1  0  0  0  0
  4  6  1  0  0  0  0
  4  8  1  0  0  0  0
  5 15  1  0  0  0  0
  6  7  1  0  0  0  0
  7  2  1  0  0  0  0
  7  5  2  0  0  0  0
  8 24  1  1  0  0  0
  8  2  1  0  0  0  0
  9  6  1  0  0  0  0
  9 10  2  0  0  0  0
 10  3  1  0  0  0  0
 11 17  1  0  0  0  0
 14 13  1  0  0  0  0
 15 11  2  0  0  0  0
 15 16  1  0  0  0  0
 16 14  2  0  0  0  0
 17 12  1  0  0  0  0
 17 13  2  0  0  0  0
 18  1  1  0  0  0  0
 19 21  1  0  0  0  0
 21 20  1  0  0  0  0
 22 18  1  1  0  0  0
 22 20  1  0  0  0  0
 23 19  1  0  0  0  0
 23 22  1  0  0  0  0
 26 25  1  0  0  0  0
 26 24  1  0  0  0  0
M  END
>  <MODEL>
8

>  <REMARK>
 VINA RESULT:      -7.6      2.630      5.900
  Name = 
  5 active torsions:
  status: ('A' for Active; 'I' for Inactive)
    1  A    between atoms: N_3  and  C_17
    2  A    between atoms: C_11  and  C_19
    3  A    between atoms: C_13  and  C_17
    4  A    between atoms: C_18  and  C_24
    5  A    between atoms: C_24  and  C_25
                            x       y       z     vdW  Elec       q    Type
                         _______ _______ _______ _____ _____    ______ ____

>  <TORSDO>
F 5

$$$$
=
 OpenBabel11042410533D

 26 29  0  0  1  0  0  0  0  0999 V2000
  189.4960  178.1500  139.3500 N   0  0  0  0  0  2  0  0  0  0  0  0
  185.6810  178.7340  143.4330 N   0  0  0  0  0  2  0  0  0  0  0  0
  188.9040  177.5900  141.7480 C   0  0  0  0  0  2  0  0  0  0  0  0
  185.0870  179.2910  141.1600 C   0  0  0  0  0  2  0  0  0  0  0  0
  187.9260  177.8950  142.8710 C   0  0  0  0  0  0  0  0  0  0  0  0
  186.3760  178.6330  141.2080 N   0  0  0  0  0  0  0  0  0  0  0  0
  186.7110  178.3590  142.5410 C   0  0  0  0  0  0  0  0  0  0  0  0
  184.5980  179.3010  142.6290 C   0  0  1  0  0  3  0  0  0  0  0  0
  187.3260  178.6260  140.1790 N   0  0  0  0  0  0  0  0  0  0  0  0
  188.5240  178.1650  140.3990 C   0  0  0  0  0  0  0  0  0  0  0  0
  189.6550  177.2490  144.5620 C   0  0  0  0  0  3  0  0  0  0  0  0
  191.6790  176.5280  146.2460 Cl  0  0  0  0  0  0  0  0  0  0  0  0
  189.0990  177.1250  146.9080 C   0  0  0  0  0  3  0  0  0  0  0  0
  187.7920  177.5020  146.5940 C   0  0  0  0  0  3  0  0  0  0  0  0
  188.3340  177.6280  144.2760 C   0  0  0  0  0  0  0  0  0  0  0  0
  187.4430  177.7420  145.3020 N   0  0  0  0  0  0  0  0  0  0  0  0
  190.0330  176.9990  145.8810 C   0  0  0  0  0  0  0  0  0  0  0  0
  189.2190  178.6280  138.0010 C   0  0  0  0  0  2  0  0  0  0  0  0
  187.8070  175.7220  137.5270 O   0  0  0  0  0  0  0  0  0  0  0  0
  188.1320  177.5420  136.0610 C   0  0  0  0  0  2  0  0  0  0  0  0
  187.4340  176.2200  136.2710 C   0  0  0  0  0  2  0  0  0  0  0  0
  189.3010  177.4850  137.0010 C   0  0  2  0  0  3  0  0  0  0  0  0
  189.1220  176.1690  137.7230 C   0  0  0  0  0  2  0  0  0  0  0  0
  183.3530  178.4400  142.7770 C   0  0  0  0  0  2  0  0  0  0  0  0
  181.1320  178.6910  141.9340 O   0  0  0  0  0  1  0  0  0  0  0  0
  182.4640  178.5480  141.5480 C   0  0  0  0  0  2  0  0  0  0  0  0
  1 10  1  0  0  0  0
  3  5  1  0  0  0  0
  4  6  1  0  0  0  0
  4  8  1  0  0  0  0
  5 15  1  0  0  0  0
  6  7  1  0  0  0  0
  7  5  2  0  0  0  0
  7  2  1  0  0  0  0
  8 24  1  6  0  0  0
  8  2  1  0  0  0  0
  9 10  2  0  0  0  0
  9  6  1  0  0  0  0
 10  3  1  0  0  0  0
 11 17  1  0  0  0  0
 14 13  1  0  0  0  0
 15 11  2  0  0  0  0
 15 16  1  0  0  0  0
 16 14  2  0  0  0  0
 17 12  1  0  0  0  0
 17 13  2  0  0  0  0
 18  1  1  0  0  0  0
 19 23  1  0  0  0  0
 20 21  1  0  0  0  0
 20 22  1  0  0  0  0
 21 19  1  0  0  0  0
 22 23  1  0  0  0  0
 22 18  1  1  0  0  0
 26 25  1  0  0  0  0
 26 24  1  0  0  0  0
M  END
>  <MODEL>
9

>  <REMARK>
 VINA RESULT:      -7.5      1.464      1.815
  Name = 
  5 active torsions:
  status: ('A' for Active; 'I' for Inactive)
    1  A    between atoms: N_3  and  C_17
    2  A    between atoms: C_11  and  C_19
    3  A    between atoms: C_13  and  C_17
    4  A    between atoms: C_18  and  C_24
    5  A    between atoms: C_24  and  C_25
                            x       y       z     vdW  Elec       q    Type
                         _______ _______ _______ _____ _____    ______ ____

>  <TORSDO>
F 5

$$$$
