=
 OpenBabel11042412063D

 70 74  0  0  1  0  0  0  0  0999 V2000
  184.9810  176.4490  137.8210 C   0  0  0  0  0  2  0  0  0  0  0  0
  183.5040  175.7350  135.8830 C   0  0  2  0  0  3  0  0  0  0  0  0
  183.4880  174.6940  134.9370 O   0  0  0  0  0  0  0  0  0  0  0  0
  184.2650  175.2930  137.1160 C   0  0  1  0  0  3  0  0  0  0  0  0
  184.4990  173.7850  135.3100 C   0  0  0  0  0  2  0  0  0  0  0  0
  185.2220  174.3100  136.5320 C   0  0  2  0  0  3  0  0  0  0  0  0
  182.1730  176.1390  136.2130 O   0  0  0  0  0  0  0  0  0  0  0  0
  180.6940  178.4150  136.0140 S   0  0  0  0  0  0  0  0  0  0  0  0
  182.3790  178.0200  137.8390 C   0  0  0  0  0  3  0  0  0  0  0  0
  180.8770  179.6600  137.1320 C   0  0  0  0  0  0  0  0  0  0  0  0
  181.8360  179.2920  138.0720 C   0  0  0  0  0  3  0  0  0  0  0  0
  181.8370  177.4030  136.7150 C   0  0  0  0  0  0  0  0  0  0  0  0
  179.7400  181.5320  138.3440 N   0  0  0  0  0  1  0  0  0  0  0  0
  180.1430  180.9320  137.1240 C   0  0  0  0  0  0  0  0  0  0  0  0
  179.8560  181.4890  136.0350 O   0  0  0  0  0  0  0  0  0  0  0  0
  185.6110  173.1890  137.4930 C   0  0  0  0  0  2  0  0  0  0  0  0
  186.1020  172.0670  136.8120 O   0  0  0  0  0  0  0  0  0  0  0  0
  187.4160  172.4110  136.4700 C   0  0  2  0  0  3  0  0  0  0  0  0
  186.9850  170.9450  134.5940 O   0  0  0  0  0  1  0  0  0  0  0  0
  189.5620  174.1150  135.3290 O   0  0  0  0  0  0  0  0  0  0  0  0
  187.6050  173.9100  136.7070 C   0  0  0  0  0  2  0  0  0  0  0  0
  190.1380  172.8390  135.3490 C   0  0  1  0  0  3  0  0  0  0  0  0
  187.7080  172.0710  134.9960 C   0  0  2  0  0  3  0  0  0  0  0  0
  189.1940  171.8070  134.7240 C   0  0  0  0  0  2  0  0  0  0  0  0
  189.0760  174.3090  136.6270 C   0  0  0  0  0  2  0  0  0  0  0  0
  191.4640  172.8820  134.5940 C   0  0  0  0  0  2  0  0  0  0  0  0
  192.6280  172.4250  135.4650 C   0  0  0  0  0  2  0  0  0  0  0  0
  194.8220  173.3170  136.5360 C   0  0  1  0  0  3  0  0  0  0  0  0
  193.4600  173.5970  135.9720 C   0  0  2  0  0  0  0  0  0  0  0  0
  192.7790  174.9450  136.1740 C   0  0  0  0  0  1  0  0  0  0  0  0
  194.6270  173.7500  135.1940 O   0  0  0  0  0  0  0  0  0  0  0  0
  195.3700  174.4500  137.4240 C   0  0  0  0  0  2  0  0  0  0  0  0
  196.8670  174.4770  137.5260 C   0  0  0  0  0  0  0  0  0  0  0  0
  197.6310  175.3930  136.7360 N   0  0  0  0  0  1  0  0  0  0  0  0
  197.4420  173.7200  138.3540 O   0  0  0  0  0  0  0  0  0  0  0  0
  185.7400  177.3660  136.8720 C   0  0  0  0  0  2  0  0  0  0  0  0
  187.1760  177.5400  137.3380 C   0  0  0  0  0  2  0  0  0  0  0  0
  187.3930  178.8810  137.6480 O   0  0  0  0  0  0  0  0  0  0  0  0
  188.4220  177.6740  139.4280 C   0  0  0  0  0  2  0  0  0  0  0  0
  187.6020  178.9080  139.0300 C   0  0  2  0  0  3  0  0  0  0  0  0
  189.0680  177.7310  140.7900 C   0  0  0  0  0  0  0  0  0  0  0  0
  186.0430  178.0890  140.9630 C   0  0  0  0  0  2  0  0  0  0  0  0
  188.4060  178.0450  141.9210 C   0  0  0  0  0  3  0  0  0  0  0  0
  186.9890  178.5460  142.0680 C   0  0  0  0  0  2  0  0  0  0  0  0
  185.4020  179.6970  139.3730 O   0  0  0  0  0  0  0  0  0  0  0  0
  186.2810  178.9340  139.7500 C   0  0  0  0  0  0  0  0  0  0  0  0
  191.3280  177.7650  140.0550 O   0  0  0  0  0  0  0  0  0  0  0  0
  190.4880  177.3060  140.8810 C   0  0  0  0  0  0  0  0  0  0  0  0
  190.9430  176.4150  141.8550 O   0  0  0  0  0  0  0  0  0  0  0  0
  190.0590  175.5950  142.6030 C   0  0  0  0  0  2  0  0  0  0  0  0
  190.1200  175.9700  144.0820 C   0  0  0  0  0  2  0  0  0  0  0  0
  191.1320  177.0160  144.3160 N   0  0  0  0  0  0  0  0  0  0  0  0
  190.5020  178.2810  144.7460 C   0  0  2  0  0  3  0  0  0  0  0  0
  190.5440  180.4410  143.4790 O   0  0  0  0  0  0  0  0  0  0  0  0
  192.4270  179.7450  144.5760 O   0  0  0  0  0  1  0  0  0  0  0  0
  191.2240  179.5250  144.2640 C   0  0  0  0  0  0  0  0  0  0  0  0
  190.3350  178.3280  146.2640 C   0  0  0  0  0  2  0  0  0  0  0  0
  189.5130  177.1420  146.7390 C   0  0  0  0  0  2  0  0  0  0  0  0
  187.7850  179.0750  147.4090 O   0  0  0  0  0  0  0  0  0  0  0  0
  187.3620  176.8360  148.2980 O   0  0  0  0  0  0  0  0  0  0  0  0
  187.8230  177.6050  147.0910 S   0  0  0  0  0  0  0  0  0  0  0  0
  186.6970  177.2400  145.7460 C   0  0  0  0  0  2  0  0  0  0  0  0
  186.1620  178.5190  145.1240 C   0  0  0  0  0  2  0  0  0  0  0  0
  183.9440  178.8810  144.1450 C   0  0  0  0  0  2  0  0  0  0  0  0
  184.6720  178.5860  145.2230 C   0  0  0  0  0  0  0  0  0  0  0  0
  184.0080  178.4840  146.5520 C   0  0  0  0  0  1  0  0  0  0  0  0
  192.0820  176.5650  145.3330 C   0  0  0  0  0  2  0  0  0  0  0  0
  191.8820  175.0860  145.6420 C   0  0  0  0  0  2  0  0  0  0  0  0
  192.2370  174.7860  147.0720 C   0  0  0  0  0  3  0  0  0  0  0  0
  192.6320  175.7560  147.9080 C   0  0  0  0  0  2  0  0  0  0  0  0
  2  7  1  1  0  0  0
  2  4  1  0  0  0  0
  3  5  1  0  0  0  0
  3  2  1  0  0  0  0
  4  1  1  6  0  0  0
  5  6  1  0  0  0  0
  6  4  1  0  0  0  0
  6 16  1  1  0  0  0
  7 12  1  0  0  0  0
  8 12  1  0  0  0  0
  8 10  1  0  0  0  0
  9 11  1  0  0  0  0
 10 11  2  0  0  0  0
 12  9  2  0  0  0  0
 14 10  1  0  0  0  0
 14 13  1  0  0  0  0
 15 14  2  0  0  0  0
 17 16  1  0  0  0  0
 18 21  1  0  0  0  0
 18 17  1  6  0  0  0
 20 22  1  0  0  0  0
 20 25  1  0  0  0  0
 22 26  1  6  0  0  0
 23 19  1  1  0  0  0
 23 18  1  0  0  0  0
 24 23  1  0  0  0  0
 24 22  1  0  0  0  0
 25 21  1  0  0  0  0
 26 27  1  0  0  0  0
 27 29  1  0  0  0  0
 28 32  1  1  0  0  0
 29 30  1  1  0  0  0
 29 28  1  0  0  0  0
 31 29  1  0  0  0  0
 31 28  1  0  0  0  0
 32 33  1  0  0  0  0
 33 35  2  0  0  0  0
 34 33  1  0  0  0  0
 36 37  1  0  0  0  0
 36  1  1  0  0  0  0
 37 38  1  0  0  0  0
 39 41  1  0  0  0  0
 40 38  1  6  0  0  0
 40 39  1  0  0  0  0
 40 46  1  0  0  0  0
 41 48  1  0  0  0  0
 41 43  2  0  0  0  0
 42 44  1  0  0  0  0
 43 44  1  0  0  0  0
 45 46  2  0  0  0  0
 46 42  1  0  0  0  0
 47 48  2  0  0  0  0
 48 49  1  0  0  0  0
 49 50  1  0  0  0  0
 50 51  1  0  0  0  0
 51 52  1  0  0  0  0
 52 53  1  0  0  0  0
 52 67  1  0  0  0  0
 53 57  1  1  0  0  0
 54 56  2  0  0  0  0
 56 55  1  0  0  0  0
 56 53  1  0  0  0  0
 57 58  1  0  0  0  0
 58 61  1  0  0  0  0
 61 59  2  0  0  0  0
 61 60  2  0  0  0  0
 62 61  1  0  0  0  0
 63 65  1  0  0  0  0
 63 62  1  0  0  0  0
 64 65  2  0  0  0  0
 65 66  1  0  0  0  0
 67 68  1  0  0  0  0
 68 69  1  0  0  0  0
 69 70  2  0  0  0  0
M  END
>  <MODEL>
1

>  <REMARK>
 VINA RESULT:      -3.5      0.000      0.000
  Name = 
  32 active torsions:
  status: ('A' for Active; 'I' for Inactive)
    1  A    between atoms: C_1  and  O_49
    2  A    between atoms: C_3  and  C_51
    3  A    between atoms: C_4  and  N_22
    4  A    between atoms: C_4  and  C_41
    5  A    between atoms: C_7  and  C_51
    6  A    between atoms: C_7  and  S_58
    7  A    between atoms: C_8  and  O_34
    8  A    between atoms: O_9  and  C_63
    9  A    between atoms: O_9  and  C_70
   10  A    between atoms: C_10  and  C_47
   11  A    between atoms: C_11  and  C_26
   12  A    between atoms: C_11  and  C_42
   13  A    between atoms: C_15  and  C_41
   14  A    between atoms: O_19  and  C_24
   15  A    between atoms: O_19  and  C_60
   16  A    between atoms: N_22  and  C_46
   17  A    between atoms: N_22  and  C_69
   18  A    between atoms: C_23  and  C_37
   19  A    between atoms: C_23  and  S_58
   20  A    between atoms: C_26  and  C_60
   21  A    between atoms: C_27  and  C_69
   22  A    between atoms: C_28  and  C_40
   23  A    between atoms: C_29  and  C_47
   24  A    between atoms: C_30  and  O_49
   25  A    between atoms: C_30  and  C_65
   26  A    between atoms: C_31  and  C_63
   27  A    between atoms: C_33  and  C_61
   28  A    between atoms: O_34  and  C_68
   29  A    between atoms: C_37  and  C_69
   30  A    between atoms: C_40  and  C_55
   31  A    between atoms: C_46  and  C_70
   32  A    between atoms: C_50  and  C_55
                            x       y       z     vdW  Elec       q    Type
                         _______ _______ _______ _____ _____    ______ ____

>  <TORSDO>
F 32

$$$$
=
 OpenBabel11042412063D

 70 74  0  0  1  0  0  0  0  0999 V2000
  190.4500  175.5390  137.4320 C   0  0  0  0  0  2  0  0  0  0  0  0
  192.9640  175.4540  137.7770 C   0  0  2  0  0  3  0  0  0  0  0  0
  193.9340  176.2300  138.4390 O   0  0  0  0  0  0  0  0  0  0  0  0
  191.6110  175.6690  138.4230 C   0  0  1  0  0  3  0  0  0  0  0  0
  193.2410  177.2020  139.1890 C   0  0  0  0  0  2  0  0  0  0  0  0
  191.7540  177.0590  138.9450 C   0  0  2  0  0  3  0  0  0  0  0  0
  193.3290  174.0710  137.7880 O   0  0  0  0  0  0  0  0  0  0  0  0
  195.1510  172.0850  137.4160 S   0  0  0  0  0  0  0  0  0  0  0  0
  194.9640  174.0850  135.9040 C   0  0  0  0  0  3  0  0  0  0  0  0
  196.2400  172.1450  136.1330 C   0  0  0  0  0  0  0  0  0  0  0  0
  196.0090  173.3020  135.3940 C   0  0  0  0  0  3  0  0  0  0  0  0
  194.3840  173.5310  137.0420 C   0  0  0  0  0  0  0  0  0  0  0  0
  197.0490  169.7760  136.1560 N   0  0  0  0  0  1  0  0  0  0  0  0
  197.2680  171.1400  135.8360 C   0  0  0  0  0  0  0  0  0  0  0  0
  198.3560  171.4850  135.3090 O   0  0  0  0  0  0  0  0  0  0  0  0
  190.9380  177.3260  140.2070 C   0  0  0  0  0  2  0  0  0  0  0  0
  189.5710  177.0950  140.0010 O   0  0  0  0  0  0  0  0  0  0  0  0
  188.9950  177.2410  141.2690 C   0  0  2  0  0  3  0  0  0  0  0  0
  190.3100  175.2680  141.7540 O   0  0  0  0  0  1  0  0  0  0  0  0
  188.7010  178.3670  143.9990 O   0  0  0  0  0  0  0  0  0  0  0  0
  189.0090  178.7230  141.6440 C   0  0  0  0  0  2  0  0  0  0  0  0
  188.0340  177.1400  144.0820 C   0  0  1  0  0  3  0  0  0  0  0  0
  189.7680  176.4240  142.3220 C   0  0  2  0  0  3  0  0  0  0  0  0
  188.9010  176.0110  143.5160 C   0  0  0  0  0  2  0  0  0  0  0  0
  188.1530  178.9990  142.8770 C   0  0  0  0  0  2  0  0  0  0  0  0
  187.6800  176.8660  145.5420 C   0  0  0  0  0  2  0  0  0  0  0  0
  187.5300  178.1560  146.3400 C   0  0  0  0  0  2  0  0  0  0  0  0
  185.0740  177.9510  145.5150 C   0  0  1  0  0  3  0  0  0  0  0  0
  186.0860  178.6410  146.3820 C   0  0  2  0  0  0  0  0  0  0  0  0
  185.7810  179.9750  147.0490 C   0  0  0  0  0  1  0  0  0  0  0  0
  185.2400  177.6340  146.8940 O   0  0  0  0  0  0  0  0  0  0  0  0
  183.7980  178.7790  145.2720 C   0  0  0  0  0  2  0  0  0  0  0  0
  183.7710  179.4860  143.9500 C   0  0  0  0  0  0  0  0  0  0  0  0
  183.4760  178.7660  142.7480 N   0  0  0  0  0  1  0  0  0  0  0  0
  183.9600  180.7330  143.9130 O   0  0  0  0  0  0  0  0  0  0  0  0
  189.1420  175.1070  138.0790 C   0  0  0  0  0  2  0  0  0  0  0  0
  188.1840  174.5650  137.0300 C   0  0  0  0  0  2  0  0  0  0  0  0
  187.1960  173.8140  137.6640 O   0  0  0  0  0  0  0  0  0  0  0  0
  184.9910  173.2600  136.9490 C   0  0  0  0  0  2  0  0  0  0  0  0
  186.4900  173.1920  136.6300 C   0  0  2  0  0  3  0  0  0  0  0  0
  184.0640  172.9940  135.7880 C   0  0  0  0  0  0  0  0  0  0  0  0
  185.9640  170.6560  136.2690 C   0  0  0  0  0  2  0  0  0  0  0  0
  184.1650  171.9210  134.9790 C   0  0  0  0  0  3  0  0  0  0  0  0
  185.2560  170.8790  134.9360 C   0  0  0  0  0  2  0  0  0  0  0  0
  188.1440  171.5110  136.4780 O   0  0  0  0  0  0  0  0  0  0  0  0
  186.9460  171.7660  136.4800 C   0  0  0  0  0  0  0  0  0  0  0  0
  182.1690  173.8030  134.6020 O   0  0  0  0  0  0  0  0  0  0  0  0
  182.9190  173.9230  135.6140 C   0  0  0  0  0  0  0  0  0  0  0  0
  182.6250  174.9320  136.5340 O   0  0  0  0  0  0  0  0  0  0  0  0
  181.8830  176.0870  136.1780 C   0  0  0  0  0  2  0  0  0  0  0  0
  181.4960  176.8690  137.4310 C   0  0  0  0  0  2  0  0  0  0  0  0
  182.6370  176.9700  138.3590 N   0  0  0  0  0  0  0  0  0  0  0  0
  183.4970  178.1240  138.0240 C   0  0  2  0  0  3  0  0  0  0  0  0
  185.1430  177.2580  136.3470 O   0  0  0  0  0  0  0  0  0  0  0  0
  185.8750  177.8770  138.4240 O   0  0  0  0  0  1  0  0  0  0  0  0
  184.9100  177.7460  137.6220 C   0  0  0  0  0  0  0  0  0  0  0  0
  183.5310  179.1380  139.1660 C   0  0  0  0  0  2  0  0  0  0  0  0
  183.0700  180.4990  138.6750 C   0  0  0  0  0  2  0  0  0  0  0  0
  180.9230  180.1280  140.2310 O   0  0  0  0  0  0  0  0  0  0  0  0
  180.5890  179.9920  137.8120 O   0  0  0  0  0  0  0  0  0  0  0  0
  181.3120  180.7270  138.9080 S   0  0  0  0  0  0  0  0  0  0  0  0
  180.8090  182.4450  138.8400 C   0  0  0  0  0  2  0  0  0  0  0  0
  180.2700  182.7980  137.4650 C   0  0  0  0  0  2  0  0  0  0  0  0
  181.6910  184.7870  137.2760 C   0  0  0  0  0  2  0  0  0  0  0  0
  180.4770  184.2460  137.1570 C   0  0  0  0  0  0  0  0  0  0  0  0
  179.3080  185.1230  136.8740 C   0  0  0  0  0  1  0  0  0  0  0  0
  182.1480  177.1000  139.7310 C   0  0  0  0  0  2  0  0  0  0  0  0
  181.2290  175.9380  140.0900 C   0  0  0  0  0  2  0  0  0  0  0  0
  179.9110  176.4400  140.6100 C   0  0  0  0  0  3  0  0  0  0  0  0
  179.6670  177.7520  140.7340 C   0  0  0  0  0  2  0  0  0  0  0  0
  1 36  1  0  0  0  0
  2  7  1  1  0  0  0
  2  4  1  0  0  0  0
  2  3  1  0  0  0  0
  3  5  1  0  0  0  0
  4  1  1  6  0  0  0
  4  6  1  0  0  0  0
  6  5  1  0  0  0  0
  6 16  1  1  0  0  0
  9 12  2  0  0  0  0
 10  8  1  0  0  0  0
 11  9  1  0  0  0  0
 11 10  2  0  0  0  0
 12  8  1  0  0  0  0
 12  7  1  0  0  0  0
 14 10  1  0  0  0  0
 14 13  1  0  0  0  0
 15 14  2  0  0  0  0
 17 16  1  0  0  0  0
 18 17  1  6  0  0  0
 18 21  1  0  0  0  0
 18 23  1  0  0  0  0
 20 22  1  0  0  0  0
 21 25  1  0  0  0  0
 22 26  1  1  0  0  0
 23 19  1  6  0  0  0
 23 24  1  0  0  0  0
 24 22  1  0  0  0  0
 25 20  1  0  0  0  0
 26 27  1  0  0  0  0
 27 29  1  0  0  0  0
 28 32  1  1  0  0  0
 28 29  1  0  0  0  0
 28 31  1  0  0  0  0
 29 31  1  0  0  0  0
 29 30  1  1  0  0  0
 33 32  1  0  0  0  0
 34 33  1  0  0  0  0
 35 33  2  0  0  0  0
 37 38  1  0  0  0  0
 37 36  1  0  0  0  0
 40 39  1  0  0  0  0
 40 38  1  1  0  0  0
 41 39  1  0  0  0  0
 42 46  1  0  0  0  0
 43 41  2  0  0  0  0
 44 43  1  0  0  0  0
 44 42  1  0  0  0  0
 45 46  2  0  0  0  0
 46 40  1  0  0  0  0
 47 48  2  0  0  0  0
 48 41  1  0  0  0  0
 48 49  1  0  0  0  0
 50 49  1  0  0  0  0
 50 51  1  0  0  0  0
 51 52  1  0  0  0  0
 52 67  1  0  0  0  0
 53 52  1  0  0  0  0
 53 57  1  1  0  0  0
 54 56  2  0  0  0  0
 56 53  1  0  0  0  0
 56 55  1  0  0  0  0
 58 61  1  0  0  0  0
 58 57  1  0  0  0  0
 60 61  2  0  0  0  0
 61 59  2  0  0  0  0
 62 61  1  0  0  0  0
 63 62  1  0  0  0  0
 65 64  2  0  0  0  0
 65 63  1  0  0  0  0
 66 65  1  0  0  0  0
 67 68  1  0  0  0  0
 68 69  1  0  0  0  0
 69 70  2  0  0  0  0
M  END
>  <MODEL>
2

>  <REMARK>
 VINA RESULT:      -3.3      3.026     11.563
  Name = 
  32 active torsions:
  status: ('A' for Active; 'I' for Inactive)
    1  A    between atoms: C_1  and  O_49
    2  A    between atoms: C_3  and  C_51
    3  A    between atoms: C_4  and  N_22
    4  A    between atoms: C_4  and  C_41
    5  A    between atoms: C_7  and  C_51
    6  A    between atoms: C_7  and  S_58
    7  A    between atoms: C_8  and  O_34
    8  A    between atoms: O_9  and  C_63
    9  A    between atoms: O_9  and  C_70
   10  A    between atoms: C_10  and  C_47
   11  A    between atoms: C_11  and  C_26
   12  A    between atoms: C_11  and  C_42
   13  A    between atoms: C_15  and  C_41
   14  A    between atoms: O_19  and  C_24
   15  A    between atoms: O_19  and  C_60
   16  A    between atoms: N_22  and  C_46
   17  A    between atoms: N_22  and  C_69
   18  A    between atoms: C_23  and  C_37
   19  A    between atoms: C_23  and  S_58
   20  A    between atoms: C_26  and  C_60
   21  A    between atoms: C_27  and  C_69
   22  A    between atoms: C_28  and  C_40
   23  A    between atoms: C_29  and  C_47
   24  A    between atoms: C_30  and  O_49
   25  A    between atoms: C_30  and  C_65
   26  A    between atoms: C_31  and  C_63
   27  A    between atoms: C_33  and  C_61
   28  A    between atoms: O_34  and  C_68
   29  A    between atoms: C_37  and  C_69
   30  A    between atoms: C_40  and  C_55
   31  A    between atoms: C_46  and  C_70
   32  A    between atoms: C_50  and  C_55
                            x       y       z     vdW  Elec       q    Type
                         _______ _______ _______ _____ _____    ______ ____

>  <TORSDO>
F 32

$$$$
=
 OpenBabel11042412063D

 70 74  0  0  1  0  0  0  0  0999 V2000
  184.1890  176.2510  138.6380 C   0  0  0  0  0  2  0  0  0  0  0  0
  183.6140  176.1700  136.1660 C   0  0  2  0  0  3  0  0  0  0  0  0
  184.1090  175.5200  135.0210 O   0  0  0  0  0  0  0  0  0  0  0  0
  183.9760  175.3720  137.4020 C   0  0  1  0  0  3  0  0  0  0  0  0
  185.0780  174.5950  135.4600 C   0  0  0  0  0  2  0  0  0  0  0  0
  185.2350  174.7050  136.9610 C   0  0  2  0  0  3  0  0  0  0  0  0
  182.2000  176.3610  136.0690 O   0  0  0  0  0  0  0  0  0  0  0  0
  182.3020  179.0200  136.6400 S   0  0  0  0  0  0  0  0  0  0  0  0
  180.1810  177.6700  136.7300 C   0  0  0  0  0  3  0  0  0  0  0  0
  180.9110  179.8570  137.0890 C   0  0  0  0  0  0  0  0  0  0  0  0
  179.8310  178.9790  137.0900 C   0  0  0  0  0  3  0  0  0  0  0  0
  181.5390  177.5360  136.4490 C   0  0  0  0  0  0  0  0  0  0  0  0
  179.5880  181.9380  137.5200 N   0  0  0  0  0  1  0  0  0  0  0  0
  180.8430  181.2840  137.4250 C   0  0  0  0  0  0  0  0  0  0  0  0
  181.8980  181.9400  137.6180 O   0  0  0  0  0  0  0  0  0  0  0  0
  185.4680  173.3450  137.6150 C   0  0  0  0  0  2  0  0  0  0  0  0
  186.7610  173.2380  138.1450 O   0  0  0  0  0  0  0  0  0  0  0  0
  187.5980  173.7100  137.1270 C   0  0  2  0  0  3  0  0  0  0  0  0
  188.4310  175.1360  138.8960 O   0  0  0  0  0  1  0  0  0  0  0  0
  189.9510  173.6780  135.3190 O   0  0  0  0  0  0  0  0  0  0  0  0
  188.0990  172.5170  136.3140 C   0  0  0  0  0  2  0  0  0  0  0  0
  189.5600  175.0210  135.3160 C   0  0  1  0  0  3  0  0  0  0  0  0
  188.7930  174.4870  137.7130 C   0  0  2  0  0  3  0  0  0  0  0  0
  189.3610  175.5330  136.7460 C   0  0  0  0  0  2  0  0  0  0  0  0
  188.7840  172.9630  135.0250 C   0  0  0  0  0  2  0  0  0  0  0  0
  190.6230  175.8460  134.5940 C   0  0  0  0  0  2  0  0  0  0  0  0
  191.5320  176.5800  135.5730 C   0  0  0  0  0  2  0  0  0  0  0  0
  193.7580  175.4310  134.8780 C   0  0  1  0  0  3  0  0  0  0  0  0
  192.7570  175.7530  135.9480 C   0  0  2  0  0  0  0  0  0  0  0  0
  192.7710  175.0340  137.2900 C   0  0  0  0  0  1  0  0  0  0  0  0
  193.9350  176.5120  135.7880 O   0  0  0  0  0  0  0  0  0  0  0  0
  194.6740  174.2420  135.2240 C   0  0  0  0  0  2  0  0  0  0  0  0
  196.0040  174.6410  135.7910 C   0  0  0  0  0  0  0  0  0  0  0  0
  196.8530  173.6660  136.4060 N   0  0  0  0  0  1  0  0  0  0  0  0
  196.3920  175.8360  135.6740 O   0  0  0  0  0  0  0  0  0  0  0  0
  183.2010  175.9720  139.7630 C   0  0  0  0  0  2  0  0  0  0  0  0
  182.1340  177.0520  139.8130 C   0  0  0  0  0  2  0  0  0  0  0  0
  182.7110  178.2390  140.2580 O   0  0  0  0  0  0  0  0  0  0  0  0
  182.4530  177.9640  142.6120 C   0  0  0  0  0  2  0  0  0  0  0  0
  181.9270  178.6450  141.3420 C   0  0  2  0  0  3  0  0  0  0  0  0
  181.9910  178.5670  143.9160 C   0  0  0  0  0  0  0  0  0  0  0  0
  179.6370  177.7010  142.1800 C   0  0  0  0  0  2  0  0  0  0  0  0
  180.7010  178.8220  144.2070 C   0  0  0  0  0  3  0  0  0  0  0  0
  179.4980  178.7270  143.3000 C   0  0  0  0  0  2  0  0  0  0  0  0
  179.9810  178.5310  140.0070 O   0  0  0  0  0  0  0  0  0  0  0  0
  180.4850  178.2890  141.0960 C   0  0  0  0  0  0  0  0  0  0  0  0
  183.1540  177.9320  145.8890 O   0  0  0  0  0  0  0  0  0  0  0  0
  183.0220  178.7820  144.9610 C   0  0  0  0  0  0  0  0  0  0  0  0
  183.8680  179.8930  144.9630 O   0  0  0  0  0  0  0  0  0  0  0  0
  185.2380  179.8020  144.6090 C   0  0  0  0  0  2  0  0  0  0  0  0
  186.0440  179.2250  145.7710 C   0  0  0  0  0  2  0  0  0  0  0  0
  187.0410  178.2540  145.2850 N   0  0  0  0  0  0  0  0  0  0  0  0
  187.6140  177.4740  146.4020 C   0  0  2  0  0  3  0  0  0  0  0  0
  187.7440  177.3700  148.9000 O   0  0  0  0  0  1  0  0  0  0  0  0
  186.7470  179.1700  147.9010 O   0  0  0  0  0  0  0  0  0  0  0  0
  187.3350  178.0610  147.7720 C   0  0  0  0  0  0  0  0  0  0  0  0
  189.1160  177.2660  146.2170 C   0  0  0  0  0  2  0  0  0  0  0  0
  189.4070  176.7460  144.8210 C   0  0  0  0  0  2  0  0  0  0  0  0
  192.0520  176.6840  144.4070 O   0  0  0  0  0  0  0  0  0  0  0  0
  191.0250  178.8750  144.7570 O   0  0  0  0  0  0  0  0  0  0  0  0
  190.8460  177.5300  144.1070 S   0  0  0  0  0  0  0  0  0  0  0  0
  190.7030  177.7910  142.3400 C   0  0  0  0  0  2  0  0  0  0  0  0
  191.7510  176.9880  141.5870 C   0  0  0  0  0  2  0  0  0  0  0  0
  190.6950  177.6590  139.4790 C   0  0  0  0  0  2  0  0  0  0  0  0
  191.8170  177.3970  140.1510 C   0  0  0  0  0  0  0  0  0  0  0  0
  193.1160  177.3590  139.4240 C   0  0  0  0  0  1  0  0  0  0  0  0
  186.4180  177.3490  144.3190 C   0  0  0  0  0  2  0  0  0  0  0  0
  187.0080  177.5560  142.9280 C   0  0  0  0  0  2  0  0  0  0  0  0
  185.9640  178.0730  141.9780 C   0  0  0  0  0  3  0  0  0  0  0  0
  186.2830  178.9220  140.9900 C   0  0  0  0  0  2  0  0  0  0  0  0
  1 36  1  0  0  0  0
  2  7  1  6  0  0  0
  2  4  1  0  0  0  0
  3  5  1  0  0  0  0
  3  2  1  0  0  0  0
  4  1  1  1  0  0  0
  5  6  1  0  0  0  0
  6  4  1  0  0  0  0
  6 16  1  1  0  0  0
  7 12  1  0  0  0  0
  8 10  1  0  0  0  0
  9 11  1  0  0  0  0
 10 11  2  0  0  0  0
 10 14  1  0  0  0  0
 12  8  1  0  0  0  0
 12  9  2  0  0  0  0
 14 13  1  0  0  0  0
 14 15  2  0  0  0  0
 16 17  1  0  0  0  0
 18 23  1  0  0  0  0
 18 17  1  1  0  0  0
 21 18  1  0  0  0  0
 22 26  1  1  0  0  0
 22 20  1  0  0  0  0
 22 24  1  0  0  0  0
 23 19  1  1  0  0  0
 24 23  1  0  0  0  0
 25 20  1  0  0  0  0
 25 21  1  0  0  0  0
 26 27  1  0  0  0  0
 27 29  1  0  0  0  0
 28 32  1  1  0  0  0
 28 31  1  0  0  0  0
 28 29  1  0  0  0  0
 29 30  1  1  0  0  0
 31 29  1  0  0  0  0
 32 33  1  0  0  0  0
 33 34  1  0  0  0  0
 35 33  2  0  0  0  0
 36 37  1  0  0  0  0
 37 38  1  0  0  0  0
 39 41  1  0  0  0  0
 40 38  1  6  0  0  0
 40 39  1  0  0  0  0
 41 43  2  0  0  0  0
 41 48  1  0  0  0  0
 42 44  1  0  0  0  0
 44 43  1  0  0  0  0
 45 46  2  0  0  0  0
 46 40  1  0  0  0  0
 46 42  1  0  0  0  0
 48 49  1  0  0  0  0
 48 47  2  0  0  0  0
 50 49  1  0  0  0  0
 50 51  1  0  0  0  0
 52 51  1  0  0  0  0
 52 53  1  0  0  0  0
 53 57  1  6  0  0  0
 53 56  1  0  0  0  0
 56 55  2  0  0  0  0
 56 54  1  0  0  0  0
 58 57  1  0  0  0  0
 61 59  2  0  0  0  0
 61 60  2  0  0  0  0
 61 58  1  0  0  0  0
 62 61  1  0  0  0  0
 63 62  1  0  0  0  0
 64 65  2  0  0  0  0
 65 63  1  0  0  0  0
 66 65  1  0  0  0  0
 67 52  1  0  0  0  0
 68 67  1  0  0  0  0
 69 68  1  0  0  0  0
 70 69  2  0  0  0  0
M  END
>  <MODEL>
3

>  <REMARK>
 VINA RESULT:      -2.1      2.261      5.084
  Name = 
  32 active torsions:
  status: ('A' for Active; 'I' for Inactive)
    1  A    between atoms: C_1  and  O_49
    2  A    between atoms: C_3  and  C_51
    3  A    between atoms: C_4  and  N_22
    4  A    between atoms: C_4  and  C_41
    5  A    between atoms: C_7  and  C_51
    6  A    between atoms: C_7  and  S_58
    7  A    between atoms: C_8  and  O_34
    8  A    between atoms: O_9  and  C_63
    9  A    between atoms: O_9  and  C_70
   10  A    between atoms: C_10  and  C_47
   11  A    between atoms: C_11  and  C_26
   12  A    between atoms: C_11  and  C_42
   13  A    between atoms: C_15  and  C_41
   14  A    between atoms: O_19  and  C_24
   15  A    between atoms: O_19  and  C_60
   16  A    between atoms: N_22  and  C_46
   17  A    between atoms: N_22  and  C_69
   18  A    between atoms: C_23  and  C_37
   19  A    between atoms: C_23  and  S_58
   20  A    between atoms: C_26  and  C_60
   21  A    between atoms: C_27  and  C_69
   22  A    between atoms: C_28  and  C_40
   23  A    between atoms: C_29  and  C_47
   24  A    between atoms: C_30  and  O_49
   25  A    between atoms: C_30  and  C_65
   26  A    between atoms: C_31  and  C_63
   27  A    between atoms: C_33  and  C_61
   28  A    between atoms: O_34  and  C_68
   29  A    between atoms: C_37  and  C_69
   30  A    between atoms: C_40  and  C_55
   31  A    between atoms: C_46  and  C_70
   32  A    between atoms: C_50  and  C_55
                            x       y       z     vdW  Elec       q    Type
                         _______ _______ _______ _____ _____    ______ ____

>  <TORSDO>
F 32

$$$$
=
 OpenBabel11042412063D

 70 74  0  0  1  0  0  0  0  0999 V2000
  184.1950  176.2630  138.6170 C   0  0  0  0  0  2  0  0  0  0  0  0
  183.6550  176.2190  136.1360 C   0  0  2  0  0  3  0  0  0  0  0  0
  184.1910  175.6200  134.9820 O   0  0  0  0  0  0  0  0  0  0  0  0
  184.0370  175.4070  137.3570 C   0  0  1  0  0  3  0  0  0  0  0  0
  185.1950  174.7280  135.4100 C   0  0  0  0  0  2  0  0  0  0  0  0
  185.3290  174.8080  136.9160 C   0  0  2  0  0  3  0  0  0  0  0  0
  182.2350  176.3500  136.0260 O   0  0  0  0  0  0  0  0  0  0  0  0
  181.5050  173.7750  135.5290 S   0  0  0  0  0  0  0  0  0  0  0  0
  180.1720  175.3290  136.9900 C   0  0  0  0  0  3  0  0  0  0  0  0
  180.0980  173.1360  136.1980 C   0  0  0  0  0  0  0  0  0  0  0  0
  179.4790  174.1110  136.9750 C   0  0  0  0  0  3  0  0  0  0  0  0
  181.3320  175.2960  136.2210 C   0  0  0  0  0  0  0  0  0  0  0  0
  179.1680  171.3470  134.7150 N   0  0  0  0  0  1  0  0  0  0  0  0
  179.6000  171.7690  135.9970 C   0  0  0  0  0  0  0  0  0  0  0  0
  179.5400  170.9690  136.9650 O   0  0  0  0  0  0  0  0  0  0  0  0
  185.6150  173.4430  137.5390 C   0  0  0  0  0  2  0  0  0  0  0  0
  186.9010  173.3830  138.0920 O   0  0  0  0  0  0  0  0  0  0  0  0
  187.7410  173.8680  137.0820 C   0  0  2  0  0  3  0  0  0  0  0  0
  188.7460  175.0770  138.9210 O   0  0  0  0  0  1  0  0  0  0  0  0
  190.0230  173.7920  135.1850 O   0  0  0  0  0  0  0  0  0  0  0  0
  188.1150  172.7070  136.1600 C   0  0  0  0  0  2  0  0  0  0  0  0
  189.7440  175.1590  135.3010 C   0  0  1  0  0  3  0  0  0  0  0  0
  189.0140  174.4970  137.6780 C   0  0  2  0  0  3  0  0  0  0  0  0
  189.6340  175.5680  136.7740 C   0  0  0  0  0  2  0  0  0  0  0  0
  188.7920  173.1990  134.8840 C   0  0  0  0  0  2  0  0  0  0  0  0
  190.8470  175.9510  134.6030 C   0  0  0  0  0  2  0  0  0  0  0  0
  191.8440  176.5310  135.6000 C   0  0  0  0  0  2  0  0  0  0  0  0
  194.4290  176.3670  135.3740 C   0  0  1  0  0  3  0  0  0  0  0  0
  193.1200  175.7010  135.6830 C   0  0  2  0  0  0  0  0  0  0  0  0
  193.0020  174.1850  135.7710 C   0  0  0  0  0  1  0  0  0  0  0  0
  193.9610  176.1860  136.7070 O   0  0  0  0  0  0  0  0  0  0  0  0
  195.5610  175.3800  135.0300 C   0  0  0  0  0  2  0  0  0  0  0  0
  196.5490  175.1740  136.1400 C   0  0  0  0  0  0  0  0  0  0  0  0
  197.4180  174.0380  136.1350 N   0  0  0  0  0  1  0  0  0  0  0  0
  196.6430  176.0420  137.0500 O   0  0  0  0  0  0  0  0  0  0  0  0
  183.1370  175.9910  139.6770 C   0  0  0  0  0  2  0  0  0  0  0  0
  182.1200  177.1200  139.7140 C   0  0  0  0  0  2  0  0  0  0  0  0
  182.7150  178.2470  140.2770 O   0  0  0  0  0  0  0  0  0  0  0  0
  182.3380  177.9740  142.6150 C   0  0  0  0  0  2  0  0  0  0  0  0
  181.8610  178.6330  141.3140 C   0  0  2  0  0  3  0  0  0  0  0  0
  181.7890  178.5690  143.8880 C   0  0  0  0  0  0  0  0  0  0  0  0
  179.5590  177.6240  142.0330 C   0  0  0  0  0  2  0  0  0  0  0  0
  180.4780  178.7860  144.1080 C   0  0  0  0  0  3  0  0  0  0  0  0
  179.3290  178.6500  143.1380 C   0  0  0  0  0  2  0  0  0  0  0  0
  179.9950  178.4550  139.8770 O   0  0  0  0  0  0  0  0  0  0  0  0
  180.4470  178.2330  140.9930 C   0  0  0  0  0  0  0  0  0  0  0  0
  182.8810  177.9660  145.9110 O   0  0  0  0  0  0  0  0  0  0  0  0
  182.7560  178.8200  144.9860 C   0  0  0  0  0  0  0  0  0  0  0  0
  183.5460  179.9700  145.0420 O   0  0  0  0  0  0  0  0  0  0  0  0
  184.7840  180.0700  144.3560 C   0  0  0  0  0  2  0  0  0  0  0  0
  185.9250  179.6100  145.2610 C   0  0  0  0  0  2  0  0  0  0  0  0
  186.7070  178.5420  144.6130 N   0  0  0  0  0  0  0  0  0  0  0  0
  187.1500  177.5320  145.5970 C   0  0  2  0  0  3  0  0  0  0  0  0
  187.4490  177.1550  148.0540 O   0  0  0  0  0  1  0  0  0  0  0  0
  187.0930  179.2770  147.2790 O   0  0  0  0  0  0  0  0  0  0  0  0
  187.2230  178.0490  147.0210 C   0  0  0  0  0  0  0  0  0  0  0  0
  188.4890  176.9170  145.1940 C   0  0  0  0  0  2  0  0  0  0  0  0
  189.6090  177.9230  145.3870 C   0  0  0  0  0  2  0  0  0  0  0  0
  191.3380  176.3940  146.7450 O   0  0  0  0  0  0  0  0  0  0  0  0
  192.2700  178.1970  145.3800 O   0  0  0  0  0  0  0  0  0  0  0  0
  191.2110  177.1300  145.4400 S   0  0  0  0  0  0  0  0  0  0  0  0
  191.4870  176.0070  144.0720 C   0  0  0  0  0  2  0  0  0  0  0  0
  191.6730  176.7710  142.7720 C   0  0  0  0  0  2  0  0  0  0  0  0
  190.2130  177.7650  141.0710 C   0  0  0  0  0  2  0  0  0  0  0  0
  190.4050  176.8090  141.9810 C   0  0  0  0  0  0  0  0  0  0  0  0
  189.2890  175.8800  142.3150 C   0  0  0  0  0  1  0  0  0  0  0  0
  185.9020  177.9000  143.5740 C   0  0  0  0  0  2  0  0  0  0  0  0
  186.7870  177.3870  142.4440 C   0  0  0  0  0  2  0  0  0  0  0  0
  186.5750  178.1930  141.1920 C   0  0  0  0  0  3  0  0  0  0  0  0
  185.8530  179.3220  141.2060 C   0  0  0  0  0  2  0  0  0  0  0  0
  1 36  1  0  0  0  0
  2  7  1  6  0  0  0
  2  4  1  0  0  0  0
  3  5  1  0  0  0  0
  3  2  1  0  0  0  0
  4  1  1  1  0  0  0
  5  6  1  0  0  0  0
  6  4  1  0  0  0  0
  6 16  1  1  0  0  0
  7 12  1  0  0  0  0
  8 10  1  0  0  0  0
  8 12  1  0  0  0  0
 10 11  2  0  0  0  0
 11  9  1  0  0  0  0
 12  9  2  0  0  0  0
 13 14  1  0  0  0  0
 14 10  1  0  0  0  0
 14 15  2  0  0  0  0
 16 17  1  0  0  0  0
 18 23  1  0  0  0  0
 18 17  1  1  0  0  0
 20 22  1  0  0  0  0
 21 18  1  0  0  0  0
 22 26  1  1  0  0  0
 22 24  1  0  0  0  0
 23 19  1  1  0  0  0
 24 23  1  0  0  0  0
 25 20  1  0  0  0  0
 25 21  1  0  0  0  0
 26 27  1  0  0  0  0
 27 29  1  0  0  0  0
 28 32  1  1  0  0  0
 28 29  1  0  0  0  0
 28 31  1  0  0  0  0
 29 30  1  6  0  0  0
 29 31  1  0  0  0  0
 32 33  1  0  0  0  0
 33 35  2  0  0  0  0
 34 33  1  0  0  0  0
 36 37  1  0  0  0  0
 37 38  1  0  0  0  0
 39 41  1  0  0  0  0
 40 38  1  6  0  0  0
 40 39  1  0  0  0  0
 41 43  2  0  0  0  0
 41 48  1  0  0  0  0
 42 44  1  0  0  0  0
 44 43  1  0  0  0  0
 45 46  2  0  0  0  0
 46 40  1  0  0  0  0
 46 42  1  0  0  0  0
 48 49  1  0  0  0  0
 48 47  2  0  0  0  0
 50 49  1  0  0  0  0
 50 51  1  0  0  0  0
 52 51  1  0  0  0  0
 52 53  1  0  0  0  0
 53 57  1  6  0  0  0
 53 56  1  0  0  0  0
 56 55  2  0  0  0  0
 56 54  1  0  0  0  0
 57 58  1  0  0  0  0
 58 61  1  0  0  0  0
 60 61  2  0  0  0  0
 61 59  2  0  0  0  0
 62 61  1  0  0  0  0
 63 62  1  0  0  0  0
 64 65  2  0  0  0  0
 65 66  1  0  0  0  0
 65 63  1  0  0  0  0
 67 52  1  0  0  0  0
 68 67  1  0  0  0  0
 69 70  2  0  0  0  0
 69 68  1  0  0  0  0
M  END
>  <MODEL>
4

>  <REMARK>
 VINA RESULT:      -1.6      2.928      5.486
  Name = 
  32 active torsions:
  status: ('A' for Active; 'I' for Inactive)
    1  A    between atoms: C_1  and  O_49
    2  A    between atoms: C_3  and  C_51
    3  A    between atoms: C_4  and  N_22
    4  A    between atoms: C_4  and  C_41
    5  A    between atoms: C_7  and  C_51
    6  A    between atoms: C_7  and  S_58
    7  A    between atoms: C_8  and  O_34
    8  A    between atoms: O_9  and  C_63
    9  A    between atoms: O_9  and  C_70
   10  A    between atoms: C_10  and  C_47
   11  A    between atoms: C_11  and  C_26
   12  A    between atoms: C_11  and  C_42
   13  A    between atoms: C_15  and  C_41
   14  A    between atoms: O_19  and  C_24
   15  A    between atoms: O_19  and  C_60
   16  A    between atoms: N_22  and  C_46
   17  A    between atoms: N_22  and  C_69
   18  A    between atoms: C_23  and  C_37
   19  A    between atoms: C_23  and  S_58
   20  A    between atoms: C_26  and  C_60
   21  A    between atoms: C_27  and  C_69
   22  A    between atoms: C_28  and  C_40
   23  A    between atoms: C_29  and  C_47
   24  A    between atoms: C_30  and  O_49
   25  A    between atoms: C_30  and  C_65
   26  A    between atoms: C_31  and  C_63
   27  A    between atoms: C_33  and  C_61
   28  A    between atoms: O_34  and  C_68
   29  A    between atoms: C_37  and  C_69
   30  A    between atoms: C_40  and  C_55
   31  A    between atoms: C_46  and  C_70
   32  A    between atoms: C_50  and  C_55
                            x       y       z     vdW  Elec       q    Type
                         _______ _______ _______ _____ _____    ______ ____

>  <TORSDO>
F 32

$$$$
