=
 OpenBabel11042410133D

 65 71  0  0  1  0  0  0  0  0999 V2000
  188.8560  176.7000  134.9700 S   0  0  0  0  0  0  0  0  0  0  0  0
  191.2240  177.8390  141.9610 N   0  0  0  0  0  0  0  0  0  0  0  0
  187.1570  177.7980  139.0450 O   0  0  0  0  0  0  0  0  0  0  0  0
  189.9350  177.6660  139.9240 C   0  0  0  0  0  0  0  0  0  0  0  0
  188.8600  176.8800  144.4660 C   0  0  0  0  0  0  0  0  0  0  0  0
  188.7480  177.1340  145.7750 N   0  0  0  0  0  0  0  0  0  0  0  0
  187.4960  176.8510  140.0180 C   0  0  0  0  0  2  0  0  0  0  0  0
  189.8880  177.9790  138.4570 C   0  0  0  0  0  2  0  0  0  0  0  0
  188.8050  177.2090  140.6580 C   0  0  0  0  0  0  0  0  0  0  0  0
  186.2960  177.1740  138.1990 N   0  0  2  0  0  0  0  0  0  0  0  0
  189.4710  176.7760  137.6310 C   0  0  2  0  0  3  0  0  0  0  0  0
  188.9510  177.0660  142.0410 C   0  0  0  0  0  0  0  0  0  0  0  0
  189.9540  177.6130  146.0990 N   0  0  0  0  0  0  0  0  0  0  0  0
  190.0900  175.5590  135.6390 C   0  0  2  0  0  3  0  0  0  0  0  0
  187.0410  176.4600  137.1280 C   0  0  2  0  0  3  0  0  0  0  0  0
  191.1260  177.9830  140.6080 C   0  0  0  0  0  3  0  0  0  0  0  0
  190.6560  176.2420  136.8520 C   0  0  0  0  0  2  0  0  0  0  0  0
  187.7500  176.6850  143.2120 S   0  0  0  0  0  0  0  0  0  0  0  0
  190.0640  177.2510  144.0320 C   0  0  0  0  0  0  0  0  0  0  0  0
  190.1640  177.3730  142.6600 C   0  0  0  0  0  0  0  0  0  0  0  0
  190.7800  177.7360  145.0530 N   0  0  0  0  0  0  0  0  0  0  0  0
  188.3430  177.1600  136.6700 C   0  0  2  0  0  3  0  0  0  0  0  0
  185.4470  178.2230  137.6360 C   0  0  2  0  0  3  0  0  0  0  0  0
  184.0320  177.9810  138.0080 C   0  0  2  0  0  3  0  0  0  0  0  0
  184.5310  177.6400  136.7390 O   0  0  0  0  0  0  0  0  0  0  0  0
  183.2090  179.2480  137.8840 C   0  0  2  0  0  3  0  0  0  0  0  0
  183.3630  180.0910  139.1340 C   0  0  0  0  0  1  0  0  0  0  0  0
  181.7430  178.8670  137.7110 C   0  0  0  0  0  2  0  0  0  0  0  0
  180.8410  179.5020  138.7690 C   0  0  1  0  0  3  0  0  0  0  0  0
  179.9770  180.4350  138.1860 O   0  0  0  0  0  0  0  0  0  0  0  0
  179.2930  179.7190  137.1940 C   0  0  0  0  0  1  0  0  0  0  0  0
  180.0500  178.4400  139.5200 C   0  0  0  0  0  2  0  0  0  0  0  0
  180.2750  178.5860  141.0100 C   0  0  0  0  0  2  0  0  0  0  0  0
  179.8700  179.9160  141.4310 N   0  0  0  0  0  1  0  0  0  0  0  0
  186.1150  176.0180  135.9890 C   0  0  0  0  0  2  0  0  0  0  0  0
  185.8090  174.6600  136.1020 O   0  0  0  0  0  0  0  0  0  0  0  0
  185.4550  172.4220  134.8380 O   0  0  0  0  0  1  0  0  0  0  0  0
  183.7440  173.3880  136.2420 C   0  0  1  0  0  0  0  0  0  0  0  0
  184.2990  173.2110  134.8330 C   0  0  1  0  0  3  0  0  0  0  0  0
  184.4270  172.6530  137.3950 C   0  0  0  0  0  1  0  0  0  0  0  0
  184.5070  174.5370  135.5920 C   0  0  2  0  0  3  0  0  0  0  0  0
  182.2430  173.6310  136.3280 C   0  0  0  0  0  2  0  0  0  0  0  0
  181.8300  174.9140  135.6120 C   0  0  0  0  0  2  0  0  0  0  0  0
  180.8700  175.3560  137.7490 F   0  0  0  0  0  0  0  0  0  0  0  0
  180.7910  175.6900  136.4080 C   0  0  0  0  0  2  0  0  0  0  0  0
  191.0990  175.3270  134.7030 O   0  0  0  0  0  0  0  0  0  0  0  0
  192.1430  174.7710  135.4460 C   0  0  0  0  0  2  0  0  0  0  0  0
  193.6190  176.6250  135.1810 O   0  0  0  0  0  1  0  0  0  0  0  0
  193.4910  175.2610  134.9290 C   0  0  1  0  0  3  0  0  0  0  0  0
  195.1460  173.5310  134.6180 O   0  0  0  0  0  1  0  0  0  0  0  0
  194.6910  174.5070  135.5120 C   0  0  2  0  0  3  0  0  0  0  0  0
  194.1100  172.5560  136.8140 O   0  0  0  0  0  1  0  0  0  0  0  0
  194.4310  173.9170  136.9020 C   0  0  1  0  0  3  0  0  0  0  0  0
  195.9000  174.1230  137.9530 P   0  0  0  0  0  0  0  0  0  0  0  0
  197.1370  174.8690  137.0700 O   0  0  0  0  0  0  0  0  0  0  0  0
  195.5060  175.0810  139.2920 O   0  0  0  0  0  1  0  0  0  0  0  0
  196.3760  172.7680  138.4270 O   0  0  0  0  0  1  0  0  0  0  0  0
  190.2840  178.0740  147.4410 C   0  0  2  0  0  3  0  0  0  0  0  0
  191.5960  177.5670  147.8290 N   0  0  0  0  0  2  0  0  0  0  0  0
  191.8830  176.1720  147.9250 C   0  0  0  0  0  0  0  0  0  0  0  0
  191.0220  175.3150  147.5900 O   0  0  0  0  0  0  0  0  0  0  0  0
  193.3670  176.0460  149.8820 C   0  0  0  0  0  1  0  0  0  0  0  0
  193.2180  175.7260  148.4100 C   0  0  0  0  0  2  0  0  0  0  0  0
  188.0140  178.5160  148.3710 C   0  0  0  0  0  1  0  0  0  0  0  0
  189.2250  177.6070  148.4240 C   0  0  0  0  0  2  0  0  0  0  0  0
  1 14  1  0  0  0  0
  2 20  1  0  0  0  0
  3  7  1  0  0  0  0
  4 16  1  0  0  0  0
  4  9  2  0  0  0  0
  5  6  2  0  0  0  0
  6 13  1  0  0  0  0
  7  9  1  0  0  0  0
  8  4  1  0  0  0  0
  9 12  1  0  0  0  0
 10  3  1  1  0  0  0
 11 17  1  6  0  0  0
 11  8  1  0  0  0  0
 12 20  2  0  0  0  0
 12 18  1  0  0  0  0
 13 58  1  0  0  0  0
 14 46  1  6  0  0  0
 14 17  1  0  0  0  0
 15 35  1  6  0  0  0
 15 10  1  0  0  0  0
 16  2  2  0  0  0  0
 18  5  1  0  0  0  0
 19  5  1  0  0  0  0
 19 21  2  0  0  0  0
 20 19  1  0  0  0  0
 21 13  1  0  0  0  0
 22  1  1  6  0  0  0
 22 15  1  0  0  0  0
 22 11  1  0  0  0  0
 23 25  1  6  0  0  0
 23 24  1  0  0  0  0
 23 10  1  0  0  0  0
 24 26  1  6  0  0  0
 25 24  1  0  0  0  0
 26 27  1  1  0  0  0
 28 26  1  0  0  0  0
 29 28  1  6  0  0  0
 29 32  1  0  0  0  0
 30 29  1  0  0  0  0
 31 30  1  0  0  0  0
 32 33  1  0  0  0  0
 33 34  1  0  0  0  0
 35 36  1  0  0  0  0
 38 42  1  0  0  0  0
 38 40  1  1  0  0  0
 39 37  1  1  0  0  0
 39 41  1  0  0  0  0
 39 38  1  0  0  0  0
 41 36  1  1  0  0  0
 41 38  1  0  0  0  0
 43 42  1  0  0  0  0
 43 45  1  0  0  0  0
 45 44  1  0  0  0  0
 46 47  1  0  0  0  0
 49 48  1  1  0  0  0
 49 47  1  0  0  0  0
 49 51  1  0  0  0  0
 51 50  1  6  0  0  0
 51 53  1  0  0  0  0
 53 52  1  6  0  0  0
 53 54  1  0  0  0  0
 54 57  1  0  0  0  0
 54 56  1  0  0  0  0
 55 54  2  0  0  0  0
 58 59  1  0  0  0  0
 58 65  1  1  0  0  0
 59 60  1  0  0  0  0
 60 63  1  0  0  0  0
 61 60  2  0  0  0  0
 63 62  1  0  0  0  0
 64 65  1  0  0  0  0
M  END
>  <MODEL>
1

>  <REMARK>
 VINA RESULT:      -4.2      0.000      0.000
  Name = 
  23 active torsions:
  status: ('A' for Active; 'I' for Inactive)
    1  A    between atoms: C_1  and  C_58
    2  A    between atoms: C_4  and  C_5
    3  A    between atoms: C_4  and  C_41
    4  A    between atoms: C_5  and  C_32
    5  A    between atoms: C_8  and  O_10
    6  A    between atoms: C_8  and  C_45
    7  A    between atoms: O_10  and  C_65
    8  A    between atoms: P_11  and  C_55
    9  A    between atoms: C_13  and  C_60
   10  A    between atoms: N_15  and  C_44
   11  A    between atoms: C_17  and  N_36
   12  A    between atoms: O_19  and  C_41
   13  A    between atoms: C_22  and  O_24
   14  A    between atoms: C_22  and  C_54
   15  A    between atoms: O_24  and  C_43
   16  A    between atoms: C_27  and  C_52
   17  A    between atoms: C_29  and  C_54
   18  A    between atoms: C_29  and  C_55
   19  A    between atoms: C_37  and  C_51
   20  A    between atoms: C_37  and  C_60
   21  A    between atoms: C_41  and  C_58
   22  A    between atoms: N_42  and  C_44
   23  A    between atoms: C_44  and  C_49
                            x       y       z     vdW  Elec       q    Type
                         _______ _______ _______ _____ _____    ______ ____

>  <TORSDO>
F 23

$$$$
=
 OpenBabel11042410133D

 65 71  0  0  1  0  0  0  0  0999 V2000
  184.4910  178.5770  141.2720 S   0  0  0  0  0  0  0  0  0  0  0  0
  191.3370  176.5620  139.0710 N   0  0  0  0  0  0  0  0  0  0  0  0
  186.5080  176.5030  137.7610 O   0  0  0  0  0  0  0  0  0  0  0  0
  188.9550  176.9010  139.2950 C   0  0  0  0  0  0  0  0  0  0  0  0
  191.8110  176.6680  135.5280 C   0  0  0  0  0  0  0  0  0  0  0  0
  192.7370  176.1640  134.7050 N   0  0  0  0  0  0  0  0  0  0  0  0
  187.5140  177.2970  137.2010 C   0  0  0  0  0  2  0  0  0  0  0  0
  187.7800  176.8590  140.2290 C   0  0  0  0  0  2  0  0  0  0  0  0
  188.8240  177.0360  137.8850 C   0  0  0  0  0  0  0  0  0  0  0  0
  185.3350  177.1290  137.4780 N   0  0  2  0  0  0  0  0  0  0  0  0
  186.9310  178.1130  140.1330 C   0  0  2  0  0  3  0  0  0  0  0  0
  189.9890  176.9450  137.1190 C   0  0  0  0  0  0  0  0  0  0  0  0
  193.7320  175.8280  135.5330 N   0  0  0  0  0  0  0  0  0  0  0  0
  185.8400  179.7550  141.5280 C   0  0  2  0  0  3  0  0  0  0  0  0
  185.0140  178.1340  138.5260 C   0  0  2  0  0  3  0  0  0  0  0  0
  190.2250  176.6550  139.8550 C   0  0  0  0  0  3  0  0  0  0  0  0
  187.1060  178.9580  141.3780 C   0  0  0  0  0  2  0  0  0  0  0  0
  190.1470  176.9130  135.4060 S   0  0  0  0  0  0  0  0  0  0  0  0
  192.2240  176.5740  136.7910 C   0  0  0  0  0  0  0  0  0  0  0  0
  191.2240  176.7220  137.7320 C   0  0  0  0  0  0  0  0  0  0  0  0
  193.4450  176.0270  136.8250 N   0  0  0  0  0  0  0  0  0  0  0  0
  185.4570  177.7400  139.9560 C   0  0  2  0  0  3  0  0  0  0  0  0
  184.3170  176.0820  137.4270 C   0  0  2  0  0  3  0  0  0  0  0  0
  184.7780  174.9720  136.5560 C   0  0  2  0  0  3  0  0  0  0  0  0
  183.8680  175.9420  136.0980 O   0  0  0  0  0  0  0  0  0  0  0  0
  184.0180  173.6930  136.8510 C   0  0  2  0  0  3  0  0  0  0  0  0
  184.9200  172.7100  137.5720 C   0  0  0  0  0  1  0  0  0  0  0  0
  183.5560  173.0810  135.5340 C   0  0  0  0  0  2  0  0  0  0  0  0
  182.1000  172.6210  135.5770 C   0  0  1  0  0  3  0  0  0  0  0  0
  182.0230  171.2510  135.8550 O   0  0  0  0  0  0  0  0  0  0  0  0
  180.6580  170.9440  135.7670 C   0  0  0  0  0  1  0  0  0  0  0  0
  181.3060  173.4180  136.6030 C   0  0  0  0  0  2  0  0  0  0  0  0
  180.3090  174.3150  135.9010 C   0  0  0  0  0  2  0  0  0  0  0  0
  180.8870  174.7990  134.6580 N   0  0  0  0  0  1  0  0  0  0  0  0
  183.5660  178.6270  138.4160 C   0  0  0  0  0  2  0  0  0  0  0  0
  182.6820  177.6770  138.9320 O   0  0  0  0  0  0  0  0  0  0  0  0
  180.9160  175.8150  139.3140 O   0  0  0  0  0  1  0  0  0  0  0  0
  180.3580  178.1600  139.4520 C   0  0  1  0  0  0  0  0  0  0  0  0
  180.3860  176.8950  138.6020 C   0  0  1  0  0  3  0  0  0  0  0  0
  180.8020  178.0690  140.9120 C   0  0  0  0  0  1  0  0  0  0  0  0
  181.4330  178.0050  138.3810 C   0  0  2  0  0  3  0  0  0  0  0  0
  179.2810  179.1720  139.0860 C   0  0  0  0  0  2  0  0  0  0  0  0
  179.8190  180.2790  138.1840 C   0  0  0  0  0  2  0  0  0  0  0  0
  179.0850  182.2700  137.0970 F   0  0  0  0  0  0  0  0  0  0  0  0
  178.9600  181.5320  138.2620 C   0  0  0  0  0  2  0  0  0  0  0  0
  185.7700  180.3080  142.8070 O   0  0  0  0  0  0  0  0  0  0  0  0
  184.9600  179.4260  143.5260 C   0  0  0  0  0  2  0  0  0  0  0  0
  184.5350  179.0370  145.8410 O   0  0  0  0  0  1  0  0  0  0  0  0
  185.5580  179.1470  144.9010 C   0  0  1  0  0  3  0  0  0  0  0  0
  185.8510  176.8950  145.7200 O   0  0  0  0  0  1  0  0  0  0  0  0
  186.4480  177.9010  144.9500 C   0  0  2  0  0  3  0  0  0  0  0  0
  188.0680  177.7750  146.7390 O   0  0  0  0  0  1  0  0  0  0  0  0
  187.8810  178.1850  145.4130 C   0  0  1  0  0  3  0  0  0  0  0  0
  189.0670  177.3170  144.3410 P   0  0  0  0  0  0  0  0  0  0  0  0
  190.3090  176.6530  145.2800 O   0  0  0  0  0  1  0  0  0  0  0  0
  188.2700  176.0820  143.5030 O   0  0  0  0  0  1  0  0  0  0  0  0
  189.6600  178.2940  143.3520 O   0  0  0  0  0  0  0  0  0  0  0  0
  194.9570  175.1860  135.0730 C   0  0  2  0  0  3  0  0  0  0  0  0
  195.2480  174.0220  135.9030 N   0  0  0  0  0  2  0  0  0  0  0  0
  194.6010  172.7630  135.7140 C   0  0  0  0  0  0  0  0  0  0  0  0
  193.8050  172.5890  134.7520 O   0  0  0  0  0  0  0  0  0  0  0  0
  195.4950  172.1780  137.9290 C   0  0  0  0  0  1  0  0  0  0  0  0
  194.8830  171.6420  136.6510 C   0  0  0  0  0  2  0  0  0  0  0  0
  197.4330  175.4530  134.9680 C   0  0  0  0  0  1  0  0  0  0  0  0
  196.1100  176.1740  135.1250 C   0  0  0  0  0  2  0  0  0  0  0  0
  1 14  1  0  0  0  0
  2 16  1  0  0  0  0
  4 16  2  0  0  0  0
  4  8  1  0  0  0  0
  5 19  1  0  0  0  0
  6  5  2  0  0  0  0
  6 13  1  0  0  0  0
  7  3  1  0  0  0  0
  7  9  1  0  0  0  0
  9  4  1  0  0  0  0
 10  3  1  1  0  0  0
 10 15  1  0  0  0  0
 11  8  1  1  0  0  0
 11 17  1  0  0  0  0
 12 20  1  0  0  0  0
 12  9  2  0  0  0  0
 13 21  1  0  0  0  0
 14 46  1  1  0  0  0
 15 35  1  1  0  0  0
 15 22  1  0  0  0  0
 17 14  1  0  0  0  0
 18  5  1  0  0  0  0
 18 12  1  0  0  0  0
 19 21  2  0  0  0  0
 19 20  1  0  0  0  0
 20  2  2  0  0  0  0
 22 11  1  0  0  0  0
 22  1  1  1  0  0  0
 23 25  1  6  0  0  0
 23 10  1  0  0  0  0
 24 26  1  1  0  0  0
 24 23  1  0  0  0  0
 25 24  1  0  0  0  0
 26 27  1  6  0  0  0
 28 26  1  0  0  0  0
 29 28  1  1  0  0  0
 29 30  1  0  0  0  0
 29 32  1  0  0  0  0
 31 30  1  0  0  0  0
 33 32  1  0  0  0  0
 34 33  1  0  0  0  0
 35 36  1  0  0  0  0
 38 40  1  1  0  0  0
 39 37  1  1  0  0  0
 39 38  1  0  0  0  0
 41 39  1  0  0  0  0
 41 36  1  1  0  0  0
 41 38  1  0  0  0  0
 42 38  1  0  0  0  0
 43 45  1  0  0  0  0
 43 42  1  0  0  0  0
 44 45  1  0  0  0  0
 46 47  1  0  0  0  0
 47 49  1  0  0  0  0
 49 51  1  0  0  0  0
 49 48  1  1  0  0  0
 51 53  1  0  0  0  0
 51 50  1  1  0  0  0
 53 52  1  1  0  0  0
 54 55  1  0  0  0  0
 54 53  1  0  0  0  0
 56 54  1  0  0  0  0
 57 54  2  0  0  0  0
 58 65  1  1  0  0  0
 58 13  1  0  0  0  0
 58 59  1  0  0  0  0
 60 59  1  0  0  0  0
 60 63  1  0  0  0  0
 61 60  2  0  0  0  0
 63 62  1  0  0  0  0
 64 65  1  0  0  0  0
M  END
>  <MODEL>
2

>  <REMARK>
 VINA RESULT:      -4.2      3.596      8.852
  Name = 
  23 active torsions:
  status: ('A' for Active; 'I' for Inactive)
    1  A    between atoms: C_1  and  C_58
    2  A    between atoms: C_4  and  C_5
    3  A    between atoms: C_4  and  C_41
    4  A    between atoms: C_5  and  C_32
    5  A    between atoms: C_8  and  O_10
    6  A    between atoms: C_8  and  C_45
    7  A    between atoms: O_10  and  C_65
    8  A    between atoms: P_11  and  C_55
    9  A    between atoms: C_13  and  C_60
   10  A    between atoms: N_15  and  C_44
   11  A    between atoms: C_17  and  N_36
   12  A    between atoms: O_19  and  C_41
   13  A    between atoms: C_22  and  O_24
   14  A    between atoms: C_22  and  C_54
   15  A    between atoms: O_24  and  C_43
   16  A    between atoms: C_27  and  C_52
   17  A    between atoms: C_29  and  C_54
   18  A    between atoms: C_29  and  C_55
   19  A    between atoms: C_37  and  C_51
   20  A    between atoms: C_37  and  C_60
   21  A    between atoms: C_41  and  C_58
   22  A    between atoms: N_42  and  C_44
   23  A    between atoms: C_44  and  C_49
                            x       y       z     vdW  Elec       q    Type
                         _______ _______ _______ _____ _____    ______ ____

>  <TORSDO>
F 23

$$$$
=
 OpenBabel11042410133D

 65 71  0  0  1  0  0  0  0  0999 V2000
  184.4030  178.4610  140.9390 S   0  0  0  0  0  0  0  0  0  0  0  0
  191.3170  176.4850  138.9210 N   0  0  0  0  0  0  0  0  0  0  0  0
  186.5310  176.4420  137.4600 O   0  0  0  0  0  0  0  0  0  0  0  0
  188.9280  176.8190  139.0770 C   0  0  0  0  0  0  0  0  0  0  0  0
  191.9000  176.6450  135.3970 C   0  0  0  0  0  0  0  0  0  0  0  0
  192.8530  176.1540  134.5960 N   0  0  0  0  0  0  0  0  0  0  0  0
  187.5530  177.2450  136.9440 C   0  0  0  0  0  2  0  0  0  0  0  0
  187.7250  176.7610  139.9720 C   0  0  0  0  0  2  0  0  0  0  0  0
  188.8410  176.9740  137.6660 C   0  0  0  0  0  0  0  0  0  0  0  0
  185.3670  177.0720  137.1500 N   0  0  2  0  0  0  0  0  0  0  0  0
  186.8770  178.0160  139.8690 C   0  0  2  0  0  3  0  0  0  0  0  0
  190.0300  176.8960  136.9350 C   0  0  0  0  0  0  0  0  0  0  0  0
  193.8220  175.8060  135.4500 N   0  0  0  0  0  0  0  0  0  0  0  0
  185.7420  179.6350  141.2550 C   0  0  2  0  0  3  0  0  0  0  0  0
  185.0120  178.0600  138.2040 C   0  0  2  0  0  3  0  0  0  0  0  0
  190.1810  176.5640  139.6720 C   0  0  0  0  0  3  0  0  0  0  0  0
  187.0130  178.8420  141.1320 C   0  0  0  0  0  2  0  0  0  0  0  0
  190.2410  176.8910  135.2280 S   0  0  0  0  0  0  0  0  0  0  0  0
  192.2740  176.5320  136.6720 C   0  0  0  0  0  0  0  0  0  0  0  0
  191.2450  176.6640  137.5830 C   0  0  0  0  0  0  0  0  0  0  0  0
  193.4940  175.9860  136.7350 N   0  0  0  0  0  0  0  0  0  0  0  0
  185.4100  177.6450  139.6400 C   0  0  2  0  0  3  0  0  0  0  0  0
  184.3510  176.0240  137.0520 C   0  0  2  0  0  3  0  0  0  0  0  0
  184.8610  174.9050  136.2210 C   0  0  2  0  0  3  0  0  0  0  0  0
  183.9810  175.8710  135.7010 O   0  0  0  0  0  0  0  0  0  0  0  0
  184.0840  173.6300  136.4860 C   0  0  2  0  0  3  0  0  0  0  0  0
  184.8960  172.7020  137.3680 C   0  0  0  0  0  1  0  0  0  0  0  0
  183.8020  172.9420  135.1550 C   0  0  0  0  0  2  0  0  0  0  0  0
  182.9820  171.6620  135.3160 C   0  0  1  0  0  3  0  0  0  0  0  0
  183.7920  170.6090  135.7560 O   0  0  0  0  0  0  0  0  0  0  0  0
  184.4140  170.1270  134.5970 C   0  0  0  0  0  1  0  0  0  0  0  0
  181.8200  171.8770  136.2760 C   0  0  0  0  0  2  0  0  0  0  0  0
  180.5700  172.2380  135.5000 C   0  0  0  0  0  2  0  0  0  0  0  0
  180.2680  173.6450  135.7010 N   0  0  0  0  0  1  0  0  0  0  0  0
  183.5680  178.5540  138.0550 C   0  0  0  0  0  2  0  0  0  0  0  0
  182.6740  177.4810  138.0980 O   0  0  0  0  0  0  0  0  0  0  0  0
  180.4610  176.6280  137.0470 O   0  0  0  0  0  1  0  0  0  0  0  0
  180.7390  176.8660  139.4330 C   0  0  1  0  0  0  0  0  0  0  0  0
  180.2260  177.4760  138.1330 C   0  0  1  0  0  3  0  0  0  0  0  0
  181.3260  175.4550  139.3970 C   0  0  0  0  0  1  0  0  0  0  0  0
  181.5410  177.9770  138.7630 C   0  0  2  0  0  3  0  0  0  0  0  0
  180.0190  177.3190  140.6970 C   0  0  0  0  0  2  0  0  0  0  0  0
  180.5430  178.6600  141.2040 C   0  0  0  0  0  2  0  0  0  0  0  0
  179.8880  180.7700  142.0980 F   0  0  0  0  0  0  0  0  0  0  0  0
  179.4370  179.4870  141.8430 C   0  0  0  0  0  2  0  0  0  0  0  0
  185.6310  180.1690  142.5390 O   0  0  0  0  0  0  0  0  0  0  0  0
  185.0810  179.1360  143.3010 C   0  0  0  0  0  2  0  0  0  0  0  0
  184.7670  179.2520  145.6630 O   0  0  0  0  0  1  0  0  0  0  0  0
  185.7360  179.0750  144.6770 C   0  0  1  0  0  3  0  0  0  0  0  0
  185.8330  176.9650  145.8450 O   0  0  0  0  0  1  0  0  0  0  0  0
  186.5150  177.7820  144.9370 C   0  0  2  0  0  3  0  0  0  0  0  0
  188.2010  177.4660  146.6400 O   0  0  0  0  0  1  0  0  0  0  0  0
  187.9670  178.0140  145.3720 C   0  0  1  0  0  3  0  0  0  0  0  0
  189.1070  177.2640  144.1700 P   0  0  0  0  0  0  0  0  0  0  0  0
  190.4700  176.6620  144.9720 O   0  0  0  0  0  1  0  0  0  0  0  0
  188.3230  176.0000  143.3630 O   0  0  0  0  0  1  0  0  0  0  0  0
  189.5410  178.3080  143.1670 O   0  0  0  0  0  0  0  0  0  0  0  0
  195.0610  175.1720  135.0190 C   0  0  2  0  0  3  0  0  0  0  0  0
  195.4130  174.0970  135.9390 N   0  0  0  0  0  2  0  0  0  0  0  0
  195.0230  172.7400  135.7210 C   0  0  0  0  0  0  0  0  0  0  0  0
  194.4240  172.4070  134.6640 O   0  0  0  0  0  0  0  0  0  0  0  0
  196.5240  172.1570  137.5800 C   0  0  0  0  0  1  0  0  0  0  0  0
  195.3430  171.7080  136.7450 C   0  0  0  0  0  2  0  0  0  0  0  0
  197.4430  175.6510  135.5800 C   0  0  0  0  0  1  0  0  0  0  0  0
  196.1760  176.2030  134.9580 C   0  0  0  0  0  2  0  0  0  0  0  0
  1 14  1  0  0  0  0
  2 16  1  0  0  0  0
  4 16  2  0  0  0  0
  4  8  1  0  0  0  0
  5 19  1  0  0  0  0
  6  5  2  0  0  0  0
  6 13  1  0  0  0  0
  7  3  1  0  0  0  0
  7  9  1  0  0  0  0
  9  4  1  0  0  0  0
 10  3  1  1  0  0  0
 10 15  1  0  0  0  0
 11  8  1  1  0  0  0
 11 17  1  0  0  0  0
 12 20  1  0  0  0  0
 12  9  2  0  0  0  0
 13 21  1  0  0  0  0
 14 46  1  1  0  0  0
 15 35  1  1  0  0  0
 15 22  1  0  0  0  0
 17 14  1  0  0  0  0
 18  5  1  0  0  0  0
 18 12  1  0  0  0  0
 19 21  2  0  0  0  0
 19 20  1  0  0  0  0
 20  2  2  0  0  0  0
 22 11  1  0  0  0  0
 22  1  1  1  0  0  0
 23 25  1  6  0  0  0
 23 10  1  0  0  0  0
 24 26  1  1  0  0  0
 24 23  1  0  0  0  0
 25 24  1  0  0  0  0
 26 27  1  1  0  0  0
 28 26  1  0  0  0  0
 29 28  1  1  0  0  0
 29 30  1  0  0  0  0
 29 32  1  0  0  0  0
 31 30  1  0  0  0  0
 33 34  1  0  0  0  0
 33 32  1  0  0  0  0
 35 36  1  0  0  0  0
 38 40  1  6  0  0  0
 38 42  1  0  0  0  0
 39 37  1  6  0  0  0
 39 41  1  0  0  0  0
 39 38  1  0  0  0  0
 41 36  1  6  0  0  0
 41 38  1  0  0  0  0
 42 43  1  0  0  0  0
 43 45  1  0  0  0  0
 45 44  1  0  0  0  0
 46 47  1  0  0  0  0
 47 49  1  0  0  0  0
 49 51  1  0  0  0  0
 49 48  1  1  0  0  0
 51 53  1  0  0  0  0
 51 50  1  1  0  0  0
 53 52  1  1  0  0  0
 54 55  1  0  0  0  0
 54 53  1  0  0  0  0
 56 54  1  0  0  0  0
 57 54  2  0  0  0  0
 58 65  1  1  0  0  0
 58 13  1  0  0  0  0
 58 59  1  0  0  0  0
 60 59  1  0  0  0  0
 60 63  1  0  0  0  0
 61 60  2  0  0  0  0
 63 62  1  0  0  0  0
 65 64  1  0  0  0  0
M  END
>  <MODEL>
3

>  <REMARK>
 VINA RESULT:      -4.0      3.648      8.910
  Name = 
  23 active torsions:
  status: ('A' for Active; 'I' for Inactive)
    1  A    between atoms: C_1  and  C_58
    2  A    between atoms: C_4  and  C_5
    3  A    between atoms: C_4  and  C_41
    4  A    between atoms: C_5  and  C_32
    5  A    between atoms: C_8  and  O_10
    6  A    between atoms: C_8  and  C_45
    7  A    between atoms: O_10  and  C_65
    8  A    between atoms: P_11  and  C_55
    9  A    between atoms: C_13  and  C_60
   10  A    between atoms: N_15  and  C_44
   11  A    between atoms: C_17  and  N_36
   12  A    between atoms: O_19  and  C_41
   13  A    between atoms: C_22  and  O_24
   14  A    between atoms: C_22  and  C_54
   15  A    between atoms: O_24  and  C_43
   16  A    between atoms: C_27  and  C_52
   17  A    between atoms: C_29  and  C_54
   18  A    between atoms: C_29  and  C_55
   19  A    between atoms: C_37  and  C_51
   20  A    between atoms: C_37  and  C_60
   21  A    between atoms: C_41  and  C_58
   22  A    between atoms: N_42  and  C_44
   23  A    between atoms: C_44  and  C_49
                            x       y       z     vdW  Elec       q    Type
                         _______ _______ _______ _____ _____    ______ ____

>  <TORSDO>
F 23

$$$$
=
 OpenBabel11042410133D

 65 71  0  0  1  0  0  0  0  0999 V2000
  184.9760  179.1620  141.1160 S   0  0  0  0  0  0  0  0  0  0  0  0
  190.3450  177.7250  136.1270 N   0  0  0  0  0  0  0  0  0  0  0  0
  189.2280  177.5460  141.0020 O   0  0  0  0  0  0  0  0  0  0  0  0
  189.0420  178.0520  138.1360 C   0  0  0  0  0  0  0  0  0  0  0  0
  192.4030  174.9270  136.9780 C   0  0  0  0  0  0  0  0  0  0  0  0
  193.5890  174.4880  136.5420 N   0  0  0  0  0  0  0  0  0  0  0  0
  189.3430  176.4560  140.1320 C   0  0  0  0  0  2  0  0  0  0  0  0
  188.1010  178.9650  138.8680 C   0  0  0  0  0  2  0  0  0  0  0  0
  189.6690  176.9300  138.7460 C   0  0  0  0  0  0  0  0  0  0  0  0
  188.4650  177.1160  142.0420 N   0  0  2  0  0  0  0  0  0  0  0  0
  186.8980  178.2210  139.4170 C   0  0  2  0  0  3  0  0  0  0  0  0
  190.6120  176.2300  137.9890 C   0  0  0  0  0  0  0  0  0  0  0  0
  193.7690  175.1680  135.4050 N   0  0  0  0  0  0  0  0  0  0  0  0
  184.4930  178.3830  139.5570 C   0  0  2  0  0  3  0  0  0  0  0  0
  187.0210  177.3070  141.7420 C   0  0  2  0  0  3  0  0  0  0  0  0
  189.4120  178.4290  136.8290 C   0  0  0  0  0  3  0  0  0  0  0  0
  185.6560  178.5830  138.6270 C   0  0  0  0  0  2  0  0  0  0  0  0
  191.6410  174.9420  138.4810 S   0  0  0  0  0  0  0  0  0  0  0  0
  191.9380  175.8690  136.1580 C   0  0  0  0  0  0  0  0  0  0  0  0
  190.9210  176.6380  136.6890 C   0  0  0  0  0  0  0  0  0  0  0  0
  192.7980  176.0530  135.1500 N   0  0  0  0  0  0  0  0  0  0  0  0
  186.6960  178.5610  140.8950 C   0  0  2  0  0  3  0  0  0  0  0  0
  188.8690  177.9120  143.1990 C   0  0  2  0  0  3  0  0  0  0  0  0
  190.0800  177.3210  143.8200 C   0  0  2  0  0  3  0  0  0  0  0  0
  188.7970  177.1100  144.3550 O   0  0  0  0  0  0  0  0  0  0  0  0
  190.8060  178.3380  144.6790 C   0  0  2  0  0  3  0  0  0  0  0  0
  191.6330  179.2600  143.8050 C   0  0  0  0  0  1  0  0  0  0  0  0
  191.7260  177.5980  145.6440 C   0  0  0  0  0  2  0  0  0  0  0  0
  190.9660  176.9420  146.7960 C   0  0  1  0  0  3  0  0  0  0  0  0
  191.7250  176.9750  147.9710 O   0  0  0  0  0  0  0  0  0  0  0  0
  192.3900  175.7420  148.0040 C   0  0  0  0  0  1  0  0  0  0  0  0
  189.6180  177.6150  147.0130 C   0  0  0  0  0  2  0  0  0  0  0  0
  189.4530  177.9790  148.4740 C   0  0  0  0  0  2  0  0  0  0  0  0
  188.0710  177.7670  148.8710 N   0  0  0  0  0  1  0  0  0  0  0  0
  186.1530  177.1350  142.9950 C   0  0  0  0  0  2  0  0  0  0  0  0
  185.7860  178.3800  143.5130 O   0  0  0  0  0  0  0  0  0  0  0  0
  185.8350  178.9880  146.0350 O   0  0  0  0  0  1  0  0  0  0  0  0
  183.9240  179.4620  144.6370 C   0  0  1  0  0  0  0  0  0  0  0  0
  184.5800  178.5170  145.6380 C   0  0  1  0  0  3  0  0  0  0  0  0
  184.6390  180.7660  144.2870 C   0  0  0  0  0  1  0  0  0  0  0  0
  184.5480  178.1630  144.1380 C   0  0  2  0  0  3  0  0  0  0  0  0
  182.4010  179.4450  144.6220 C   0  0  0  0  0  2  0  0  0  0  0  0
  181.8490  178.7100  143.4040 C   0  0  0  0  0  2  0  0  0  0  0  0
  180.1070  178.7330  141.7780 F   0  0  0  0  0  0  0  0  0  0  0  0
  180.7710  179.5210  142.7020 C   0  0  0  0  0  2  0  0  0  0  0  0
  183.3520  178.9970  139.0380 O   0  0  0  0  0  0  0  0  0  0  0  0
  182.4470  177.9500  138.8510 C   0  0  0  0  0  2  0  0  0  0  0  0
  181.4930  179.2390  137.0840 O   0  0  0  0  0  1  0  0  0  0  0  0
  181.9090  177.9530  137.4230 C   0  0  1  0  0  3  0  0  0  0  0  0
  182.3520  177.4750  135.0990 O   0  0  0  0  0  1  0  0  0  0  0  0
  182.9080  177.4360  136.3830 C   0  0  2  0  0  3  0  0  0  0  0  0
  182.5790  175.0430  136.3220 O   0  0  0  0  0  1  0  0  0  0  0  0
  183.4740  176.0490  136.7070 C   0  0  1  0  0  3  0  0  0  0  0  0
  185.0600  175.8060  135.8530 P   0  0  0  0  0  0  0  0  0  0  0  0
  184.9030  174.5870  134.6890 O   0  0  0  0  0  0  0  0  0  0  0  0
  185.5220  177.2490  135.1000 O   0  0  0  0  0  1  0  0  0  0  0  0
  186.1160  175.4010  136.8560 O   0  0  0  0  0  1  0  0  0  0  0  0
  194.9740  175.0420  134.5940 C   0  0  2  0  0  3  0  0  0  0  0  0
  195.6100  173.7540  134.8490 N   0  0  0  0  0  2  0  0  0  0  0  0
  196.6720  173.5960  135.7910 C   0  0  0  0  0  0  0  0  0  0  0  0
  197.0440  174.5640  136.5070 O   0  0  0  0  0  0  0  0  0  0  0  0
  197.1280  171.4470  134.6850 C   0  0  0  0  0  1  0  0  0  0  0  0
  197.3320  172.2710  135.9390 C   0  0  0  0  0  2  0  0  0  0  0  0
  195.1650  177.4410  135.2440 C   0  0  0  0  0  1  0  0  0  0  0  0
  195.9320  176.1780  134.9090 C   0  0  0  0  0  2  0  0  0  0  0  0
  2 20  2  0  0  0  0
  2 16  1  0  0  0  0
  4  9  1  0  0  0  0
  4  8  1  0  0  0  0
  5 18  1  0  0  0  0
  6  5  2  0  0  0  0
  7  3  1  0  0  0  0
  8 11  1  0  0  0  0
  9  7  1  0  0  0  0
 10  3  1  6  0  0  0
 10 23  1  0  0  0  0
 11 17  1  6  0  0  0
 11 22  1  0  0  0  0
 12 18  1  0  0  0  0
 12  9  2  0  0  0  0
 13  6  1  0  0  0  0
 14 46  1  6  0  0  0
 14  1  1  0  0  0  0
 15 10  1  0  0  0  0
 15 35  1  1  0  0  0
 16  4  2  0  0  0  0
 17 14  1  0  0  0  0
 19 20  1  0  0  0  0
 19  5  1  0  0  0  0
 20 12  1  0  0  0  0
 21 13  1  0  0  0  0
 21 19  2  0  0  0  0
 22  1  1  6  0  0  0
 22 15  1  0  0  0  0
 23 24  1  0  0  0  0
 23 25  1  1  0  0  0
 24 25  1  0  0  0  0
 24 26  1  1  0  0  0
 26 27  1  6  0  0  0
 26 28  1  0  0  0  0
 29 28  1  6  0  0  0
 29 32  1  0  0  0  0
 29 30  1  0  0  0  0
 30 31  1  0  0  0  0
 32 33  1  0  0  0  0
 33 34  1  0  0  0  0
 35 36  1  0  0  0  0
 38 40  1  6  0  0  0
 38 39  1  0  0  0  0
 39 37  1  6  0  0  0
 41 36  1  6  0  0  0
 41 38  1  0  0  0  0
 41 39  1  0  0  0  0
 42 38  1  0  0  0  0
 43 42  1  0  0  0  0
 44 45  1  0  0  0  0
 45 43  1  0  0  0  0
 47 46  1  0  0  0  0
 49 48  1  6  0  0  0
 49 47  1  0  0  0  0
 51 50  1  6  0  0  0
 51 53  1  0  0  0  0
 51 49  1  0  0  0  0
 53 52  1  6  0  0  0
 54 53  1  0  0  0  0
 54 57  1  0  0  0  0
 55 54  2  0  0  0  0
 56 54  1  0  0  0  0
 58 59  1  0  0  0  0
 58 65  1  1  0  0  0
 58 13  1  0  0  0  0
 59 60  1  0  0  0  0
 60 63  1  0  0  0  0
 60 61  2  0  0  0  0
 62 63  1  0  0  0  0
 65 64  1  0  0  0  0
M  END
>  <MODEL>
4

>  <REMARK>
 VINA RESULT:      -3.4      3.625     10.258
  Name = 
  23 active torsions:
  status: ('A' for Active; 'I' for Inactive)
    1  A    between atoms: C_1  and  C_58
    2  A    between atoms: C_4  and  C_5
    3  A    between atoms: C_4  and  C_41
    4  A    between atoms: C_5  and  C_32
    5  A    between atoms: C_8  and  O_10
    6  A    between atoms: C_8  and  C_45
    7  A    between atoms: O_10  and  C_65
    8  A    between atoms: P_11  and  C_55
    9  A    between atoms: C_13  and  C_60
   10  A    between atoms: N_15  and  C_44
   11  A    between atoms: C_17  and  N_36
   12  A    between atoms: O_19  and  C_41
   13  A    between atoms: C_22  and  O_24
   14  A    between atoms: C_22  and  C_54
   15  A    between atoms: O_24  and  C_43
   16  A    between atoms: C_27  and  C_52
   17  A    between atoms: C_29  and  C_54
   18  A    between atoms: C_29  and  C_55
   19  A    between atoms: C_37  and  C_51
   20  A    between atoms: C_37  and  C_60
   21  A    between atoms: C_41  and  C_58
   22  A    between atoms: N_42  and  C_44
   23  A    between atoms: C_44  and  C_49
                            x       y       z     vdW  Elec       q    Type
                         _______ _______ _______ _____ _____    ______ ____

>  <TORSDO>
F 23

$$$$
=
 OpenBabel11042410133D

 65 71  0  0  1  0  0  0  0  0999 V2000
  184.1320  178.5460  141.4870 S   0  0  0  0  0  0  0  0  0  0  0  0
  190.9650  176.6920  139.1090 N   0  0  0  0  0  0  0  0  0  0  0  0
  186.1070  176.5220  137.9220 O   0  0  0  0  0  0  0  0  0  0  0  0
  188.5820  176.9760  139.3950 C   0  0  0  0  0  0  0  0  0  0  0  0
  191.3460  176.8120  135.5560 C   0  0  0  0  0  0  0  0  0  0  0  0
  192.2630  176.3310  134.7100 N   0  0  0  0  0  0  0  0  0  0  0  0
  187.0800  177.3400  137.3380 C   0  0  0  0  0  2  0  0  0  0  0  0
  187.4320  176.9050  140.3580 C   0  0  0  0  0  2  0  0  0  0  0  0
  188.4120  177.1090  137.9890 C   0  0  0  0  0  0  0  0  0  0  0  0
  184.9130  177.1210  137.6700 N   0  0  2  0  0  0  0  0  0  0  0  0
  186.5520  178.1390  140.2850 C   0  0  2  0  0  3  0  0  0  0  0  0
  189.5590  177.0450  137.1930 C   0  0  0  0  0  0  0  0  0  0  0  0
  193.2860  176.0160  135.5110 N   0  0  0  0  0  0  0  0  0  0  0  0
  185.4600  179.7540  141.7110 C   0  0  2  0  0  3  0  0  0  0  0  0
  184.5950  178.1170  138.7270 C   0  0  2  0  0  3  0  0  0  0  0  0
  189.8720  176.7580  139.9220 C   0  0  0  0  0  3  0  0  0  0  0  0
  186.7390  178.9870  141.5270 C   0  0  0  0  0  2  0  0  0  0  0  0
  189.6740  177.0190  135.4770 S   0  0  0  0  0  0  0  0  0  0  0  0
  191.7930  176.7260  136.8090 C   0  0  0  0  0  0  0  0  0  0  0  0
  190.8140  176.8500  137.7750 C   0  0  0  0  0  0  0  0  0  0  0  0
  193.0270  176.2080  136.8100 N   0  0  0  0  0  0  0  0  0  0  0  0
  185.0830  177.7330  140.1450 C   0  0  2  0  0  3  0  0  0  0  0  0
  183.9180  176.0510  137.6430 C   0  0  2  0  0  3  0  0  0  0  0  0
  183.8130  175.4950  136.2710 C   0  0  2  0  0  3  0  0  0  0  0  0
  182.8750  176.4160  136.7690 O   0  0  0  0  0  0  0  0  0  0  0  0
  183.1930  174.1110  136.2880 C   0  0  2  0  0  3  0  0  0  0  0  0
  181.7870  174.1800  136.8510 C   0  0  0  0  0  1  0  0  0  0  0  0
  184.0440  173.2020  137.1670 C   0  0  0  0  0  2  0  0  0  0  0  0
  184.4350  171.9020  136.4660 C   0  0  1  0  0  3  0  0  0  0  0  0
  183.6530  171.7030  135.3230 O   0  0  0  0  0  0  0  0  0  0  0  0
  183.0970  170.4270  135.4870 C   0  0  0  0  0  1  0  0  0  0  0  0
  185.9140  171.9000  136.1050 C   0  0  0  0  0  2  0  0  0  0  0  0
  186.6260  173.0180  136.8370 C   0  0  0  0  0  2  0  0  0  0  0  0
  187.9940  172.6170  137.1180 N   0  0  0  0  0  1  0  0  0  0  0  0
  183.1340  178.5770  138.6540 C   0  0  0  0  0  2  0  0  0  0  0  0
  183.0520  179.9700  138.7350 O   0  0  0  0  0  0  0  0  0  0  0  0
  182.1310  182.2690  137.9650 O   0  0  0  0  0  1  0  0  0  0  0  0
  180.7220  180.3170  138.1420 C   0  0  1  0  0  0  0  0  0  0  0  0
  181.2270  181.5990  138.7950 C   0  0  1  0  0  3  0  0  0  0  0  0
  181.1720  179.9950  136.7170 C   0  0  0  0  0  1  0  0  0  0  0  0
  181.7700  180.2290  139.2460 C   0  0  2  0  0  3  0  0  0  0  0  0
  179.3380  179.8580  138.5850 C   0  0  0  0  0  2  0  0  0  0  0  0
  179.4030  178.6080  139.4570 C   0  0  0  0  0  2  0  0  0  0  0  0
  180.3380  176.4620  139.0040 F   0  0  0  0  0  0  0  0  0  0  0  0
  179.3360  177.3390  138.6220 C   0  0  0  0  0  2  0  0  0  0  0  0
  185.4090  180.3040  142.9920 O   0  0  0  0  0  0  0  0  0  0  0  0
  184.7480  179.3430  143.7590 C   0  0  0  0  0  2  0  0  0  0  0  0
  184.2160  179.0100  146.0610 O   0  0  0  0  0  1  0  0  0  0  0  0
  185.2520  179.3650  145.1990 C   0  0  1  0  0  3  0  0  0  0  0  0
  186.3070  177.2290  144.8080 O   0  0  0  0  0  1  0  0  0  0  0  0
  186.4670  178.4650  145.4440 C   0  0  2  0  0  3  0  0  0  0  0  0
  186.0030  177.3180  147.5210 O   0  0  0  0  0  1  0  0  0  0  0  0
  186.8160  178.2920  146.9270 C   0  0  1  0  0  3  0  0  0  0  0  0
  188.5610  177.8120  147.1060 P   0  0  0  0  0  0  0  0  0  0  0  0
  189.4210  178.2460  145.7150 O   0  0  0  0  0  0  0  0  0  0  0  0
  189.2270  178.5980  148.4490 O   0  0  0  0  0  1  0  0  0  0  0  0
  188.6540  176.3160  147.3010 O   0  0  0  0  0  1  0  0  0  0  0  0
  194.5130  175.4040  135.0200 C   0  0  2  0  0  3  0  0  0  0  0  0
  194.6850  174.0870  135.6240 N   0  0  0  0  0  2  0  0  0  0  0  0
  195.8060  173.2500  135.3350 C   0  0  0  0  0  0  0  0  0  0  0  0
  196.7430  173.6630  134.6010 O   0  0  0  0  0  0  0  0  0  0  0  0
  195.8630  170.8470  134.8170 C   0  0  0  0  0  1  0  0  0  0  0  0
  195.8740  171.8830  135.9200 C   0  0  0  0  0  2  0  0  0  0  0  0
  195.4970  177.6810  134.7690 C   0  0  0  0  0  1  0  0  0  0  0  0
  195.7020  176.2930  135.3430 C   0  0  0  0  0  2  0  0  0  0  0  0
  1 14  1  0  0  0  0
  2 16  1  0  0  0  0
  4 16  2  0  0  0  0
  4  8  1  0  0  0  0
  5 19  1  0  0  0  0
  6 13  1  0  0  0  0
  6  5  2  0  0  0  0
  7  3  1  0  0  0  0
  7  9  1  0  0  0  0
  9  4  1  0  0  0  0
 10  3  1  1  0  0  0
 10 15  1  0  0  0  0
 11  8  1  1  0  0  0
 11 17  1  0  0  0  0
 12 20  1  0  0  0  0
 12  9  2  0  0  0  0
 13 21  1  0  0  0  0
 14 46  1  1  0  0  0
 15 35  1  1  0  0  0
 15 22  1  0  0  0  0
 17 14  1  0  0  0  0
 18  5  1  0  0  0  0
 18 12  1  0  0  0  0
 19 21  2  0  0  0  0
 19 20  1  0  0  0  0
 20  2  2  0  0  0  0
 22 11  1  0  0  0  0
 22  1  1  1  0  0  0
 23 25  1  6  0  0  0
 23 10  1  0  0  0  0
 24 26  1  1  0  0  0
 24 25  1  0  0  0  0
 24 23  1  0  0  0  0
 26 27  1  1  0  0  0
 26 28  1  0  0  0  0
 29 32  1  6  0  0  0
 29 28  1  0  0  0  0
 30 31  1  0  0  0  0
 30 29  1  0  0  0  0
 32 33  1  0  0  0  0
 33 34  1  0  0  0  0
 35 36  1  0  0  0  0
 38 40  1  6  0  0  0
 38 42  1  0  0  0  0
 38 39  1  0  0  0  0
 38 41  1  0  0  0  0
 39 37  1  6  0  0  0
 39 41  1  0  0  0  0
 41 36  1  6  0  0  0
 42 43  1  0  0  0  0
 45 44  1  0  0  0  0
 45 43  1  0  0  0  0
 46 47  1  0  0  0  0
 47 49  1  0  0  0  0
 49 51  1  0  0  0  0
 49 48  1  1  0  0  0
 51 50  1  1  0  0  0
 51 53  1  0  0  0  0
 53 54  1  0  0  0  0
 53 52  1  6  0  0  0
 54 57  1  0  0  0  0
 54 56  1  0  0  0  0
 55 54  2  0  0  0  0
 58 65  1  1  0  0  0
 58 13  1  0  0  0  0
 58 59  1  0  0  0  0
 60 59  1  0  0  0  0
 60 63  1  0  0  0  0
 61 60  2  0  0  0  0
 62 63  1  0  0  0  0
 64 65  1  0  0  0  0
M  END
>  <MODEL>
5

>  <REMARK>
 VINA RESULT:      -3.2      3.642      9.449
  Name = 
  23 active torsions:
  status: ('A' for Active; 'I' for Inactive)
    1  A    between atoms: C_1  and  C_58
    2  A    between atoms: C_4  and  C_5
    3  A    between atoms: C_4  and  C_41
    4  A    between atoms: C_5  and  C_32
    5  A    between atoms: C_8  and  O_10
    6  A    between atoms: C_8  and  C_45
    7  A    between atoms: O_10  and  C_65
    8  A    between atoms: P_11  and  C_55
    9  A    between atoms: C_13  and  C_60
   10  A    between atoms: N_15  and  C_44
   11  A    between atoms: C_17  and  N_36
   12  A    between atoms: O_19  and  C_41
   13  A    between atoms: C_22  and  O_24
   14  A    between atoms: C_22  and  C_54
   15  A    between atoms: O_24  and  C_43
   16  A    between atoms: C_27  and  C_52
   17  A    between atoms: C_29  and  C_54
   18  A    between atoms: C_29  and  C_55
   19  A    between atoms: C_37  and  C_51
   20  A    between atoms: C_37  and  C_60
   21  A    between atoms: C_41  and  C_58
   22  A    between atoms: N_42  and  C_44
   23  A    between atoms: C_44  and  C_49
                            x       y       z     vdW  Elec       q    Type
                         _______ _______ _______ _____ _____    ______ ____

>  <TORSDO>
F 23

$$$$
=
 OpenBabel11042410133D

 65 71  0  0  1  0  0  0  0  0999 V2000
  189.7290  176.6230  135.2050 S   0  0  0  0  0  0  0  0  0  0  0  0
  191.3680  178.0610  142.3480 N   0  0  0  0  0  0  0  0  0  0  0  0
  187.5920  177.6420  139.0910 O   0  0  0  0  0  0  0  0  0  0  0  0
  190.2820  177.7520  140.2120 C   0  0  0  0  0  0  0  0  0  0  0  0
  188.8750  176.9510  144.6590 C   0  0  0  0  0  0  0  0  0  0  0  0
  188.6270  177.2160  145.9470 N   0  0  0  0  0  0  0  0  0  0  0  0
  187.9180  176.7410  140.1100 C   0  0  0  0  0  2  0  0  0  0  0  0
  190.3410  178.0370  138.7390 C   0  0  0  0  0  2  0  0  0  0  0  0
  189.1320  177.2150  140.8550 C   0  0  0  0  0  0  0  0  0  0  0  0
  186.8620  176.9360  138.1870 N   0  0  2  0  0  0  0  0  0  0  0  0
  190.0970  176.7910  137.9080 C   0  0  2  0  0  3  0  0  0  0  0  0
  189.1660  177.1060  142.2470 C   0  0  0  0  0  0  0  0  0  0  0  0
  189.7570  177.7970  146.3640 N   0  0  0  0  0  0  0  0  0  0  0  0
  190.9860  175.5980  136.0050 C   0  0  2  0  0  3  0  0  0  0  0  0
  187.7550  176.2690  137.2020 C   0  0  2  0  0  3  0  0  0  0  0  0
  191.3790  178.1750  140.9900 C   0  0  0  0  0  3  0  0  0  0  0  0
  191.3860  176.3430  137.2470 C   0  0  0  0  0  2  0  0  0  0  0  0
  187.9000  176.6470  143.3180 S   0  0  0  0  0  0  0  0  0  0  0  0
  190.0790  177.4130  144.3230 C   0  0  0  0  0  0  0  0  0  0  0  0
  190.2900  177.5210  142.9630 C   0  0  0  0  0  0  0  0  0  0  0  0
  190.6600  177.9710  145.3920 N   0  0  0  0  0  0  0  0  0  0  0  0
  189.0320  177.0660  136.8430 C   0  0  2  0  0  3  0  0  0  0  0  0
  185.9860  177.9040  137.5280 C   0  0  2  0  0  3  0  0  0  0  0  0
  184.5890  177.4040  137.5340 C   0  0  2  0  0  3  0  0  0  0  0  0
  185.4060  177.3000  136.3950 O   0  0  0  0  0  0  0  0  0  0  0  0
  183.6020  178.5360  137.3250 C   0  0  2  0  0  3  0  0  0  0  0  0
  183.7530  179.5660  138.4260 C   0  0  0  0  0  1  0  0  0  0  0  0
  182.1880  177.9670  137.3570 C   0  0  0  0  0  2  0  0  0  0  0  0
  181.2270  178.7250  136.4420 C   0  0  1  0  0  3  0  0  0  0  0  0
  180.2970  177.8510  135.8690 O   0  0  0  0  0  0  0  0  0  0  0  0
  180.9230  177.3690  134.7120 C   0  0  0  0  0  1  0  0  0  0  0  0
  180.5170  179.8390  137.1990 C   0  0  0  0  0  2  0  0  0  0  0  0
  181.2690  181.1420  137.0270 C   0  0  0  0  0  2  0  0  0  0  0  0
  180.8470  181.7830  135.7930 N   0  0  0  0  0  1  0  0  0  0  0  0
  186.9720  175.7350  135.9970 C   0  0  0  0  0  2  0  0  0  0  0  0
  187.0110  174.3390  135.9630 O   0  0  0  0  0  0  0  0  0  0  0  0
  186.6600  171.7700  135.8780 O   0  0  0  0  0  1  0  0  0  0  0  0
  184.8150  173.3220  135.7550 C   0  0  1  0  0  0  0  0  0  0  0  0
  185.8030  172.4410  134.9990 C   0  0  1  0  0  3  0  0  0  0  0  0
  184.8270  173.2910  137.2830 C   0  0  0  0  0  1  0  0  0  0  0  0
  186.0060  173.9690  135.0560 C   0  0  2  0  0  3  0  0  0  0  0  0
  183.4890  173.5740  135.0470 C   0  0  0  0  0  2  0  0  0  0  0  0
  182.3300  172.8590  135.7340 C   0  0  0  0  0  2  0  0  0  0  0  0
  179.9960  172.7270  135.2630 F   0  0  0  0  0  0  0  0  0  0  0  0
  181.2500  172.4610  134.7390 C   0  0  0  0  0  2  0  0  0  0  0  0
  192.0890  175.4340  135.1670 O   0  0  0  0  0  0  0  0  0  0  0  0
  193.0450  174.8050  135.9670 C   0  0  0  0  0  2  0  0  0  0  0  0
  194.8610  176.3520  135.9340 O   0  0  0  0  0  1  0  0  0  0  0  0
  194.4520  175.1060  135.4610 C   0  0  1  0  0  3  0  0  0  0  0  0
  195.1120  172.7880  135.3360 O   0  0  0  0  0  1  0  0  0  0  0  0
  195.4880  174.0400  135.8330 C   0  0  2  0  0  3  0  0  0  0  0  0
  195.7490  172.6570  137.7980 O   0  0  0  0  0  1  0  0  0  0  0  0
  195.7960  173.9780  137.3340 C   0  0  1  0  0  3  0  0  0  0  0  0
  197.4420  174.6750  137.6630 P   0  0  0  0  0  0  0  0  0  0  0  0
  198.6080  173.4510  137.5930 O   0  0  0  0  0  1  0  0  0  0  0  0
  197.7960  175.8580  136.5050 O   0  0  0  0  0  0  0  0  0  0  0  0
  197.4600  175.2990  139.0400 O   0  0  0  0  0  1  0  0  0  0  0  0
  189.9290  178.3040  147.7190 C   0  0  2  0  0  3  0  0  0  0  0  0
  191.2400  177.9180  148.2290 N   0  0  0  0  0  2  0  0  0  0  0  0
  191.7700  176.6020  148.0680 C   0  0  0  0  0  0  0  0  0  0  0  0
  191.1480  175.7380  147.3930 O   0  0  0  0  0  0  0  0  0  0  0  0
  193.0720  176.6350  150.1530 C   0  0  0  0  0  1  0  0  0  0  0  0
  193.0770  176.2530  148.6880 C   0  0  0  0  0  2  0  0  0  0  0  0
  187.6130  178.6630  148.5690 C   0  0  0  0  0  1  0  0  0  0  0  0
  188.8310  177.7620  148.6180 C   0  0  0  0  0  2  0  0  0  0  0  0
  1 14  1  0  0  0  0
  2 20  1  0  0  0  0
  3  7  1  0  0  0  0
  4  9  2  0  0  0  0
  4 16  1  0  0  0  0
  5  6  2  0  0  0  0
  6 13  1  0  0  0  0
  7  9  1  0  0  0  0
  8  4  1  0  0  0  0
  9 12  1  0  0  0  0
 10  3  1  1  0  0  0
 11 17  1  6  0  0  0
 11  8  1  0  0  0  0
 12 20  2  0  0  0  0
 12 18  1  0  0  0  0
 13 58  1  0  0  0  0
 14 46  1  6  0  0  0
 14 17  1  0  0  0  0
 15 35  1  6  0  0  0
 15 10  1  0  0  0  0
 16  2  2  0  0  0  0
 18  5  1  0  0  0  0
 19  5  1  0  0  0  0
 19 21  2  0  0  0  0
 20 19  1  0  0  0  0
 21 13  1  0  0  0  0
 22  1  1  6  0  0  0
 22 15  1  0  0  0  0
 22 11  1  0  0  0  0
 23 25  1  6  0  0  0
 23 24  1  0  0  0  0
 23 10  1  0  0  0  0
 24 26  1  6  0  0  0
 25 24  1  0  0  0  0
 26 28  1  0  0  0  0
 26 27  1  1  0  0  0
 29 32  1  1  0  0  0
 29 28  1  0  0  0  0
 30 29  1  0  0  0  0
 31 30  1  0  0  0  0
 33 32  1  0  0  0  0
 34 33  1  0  0  0  0
 36 35  1  0  0  0  0
 38 40  1  1  0  0  0
 39 41  1  0  0  0  0
 39 38  1  0  0  0  0
 39 37  1  1  0  0  0
 41 38  1  0  0  0  0
 41 36  1  1  0  0  0
 42 43  1  0  0  0  0
 42 38  1  0  0  0  0
 45 44  1  0  0  0  0
 45 43  1  0  0  0  0
 46 47  1  0  0  0  0
 49 51  1  0  0  0  0
 49 48  1  1  0  0  0
 49 47  1  0  0  0  0
 51 50  1  1  0  0  0
 51 53  1  0  0  0  0
 53 54  1  0  0  0  0
 53 52  1  6  0  0  0
 54 57  1  0  0  0  0
 55 54  1  0  0  0  0
 56 54  2  0  0  0  0
 58 59  1  0  0  0  0
 58 65  1  1  0  0  0
 60 59  1  0  0  0  0
 60 63  1  0  0  0  0
 61 60  2  0  0  0  0
 63 62  1  0  0  0  0
 64 65  1  0  0  0  0
M  END
>  <MODEL>
6

>  <REMARK>
 VINA RESULT:      -3.1      1.503      1.774
  Name = 
  23 active torsions:
  status: ('A' for Active; 'I' for Inactive)
    1  A    between atoms: C_1  and  C_58
    2  A    between atoms: C_4  and  C_5
    3  A    between atoms: C_4  and  C_41
    4  A    between atoms: C_5  and  C_32
    5  A    between atoms: C_8  and  O_10
    6  A    between atoms: C_8  and  C_45
    7  A    between atoms: O_10  and  C_65
    8  A    between atoms: P_11  and  C_55
    9  A    between atoms: C_13  and  C_60
   10  A    between atoms: N_15  and  C_44
   11  A    between atoms: C_17  and  N_36
   12  A    between atoms: O_19  and  C_41
   13  A    between atoms: C_22  and  O_24
   14  A    between atoms: C_22  and  C_54
   15  A    between atoms: O_24  and  C_43
   16  A    between atoms: C_27  and  C_52
   17  A    between atoms: C_29  and  C_54
   18  A    between atoms: C_29  and  C_55
   19  A    between atoms: C_37  and  C_51
   20  A    between atoms: C_37  and  C_60
   21  A    between atoms: C_41  and  C_58
   22  A    between atoms: N_42  and  C_44
   23  A    between atoms: C_44  and  C_49
                            x       y       z     vdW  Elec       q    Type
                         _______ _______ _______ _____ _____    ______ ____

>  <TORSDO>
F 23

$$$$
=
 OpenBabel11042410133D

 65 71  0  0  1  0  0  0  0  0999 V2000
  187.8510  177.3330  134.9260 S   0  0  0  0  0  0  0  0  0  0  0  0
  190.2690  178.3510  141.9180 N   0  0  0  0  0  0  0  0  0  0  0  0
  186.1810  178.3630  139.0310 O   0  0  0  0  0  0  0  0  0  0  0  0
  188.9650  178.2140  139.8880 C   0  0  0  0  0  0  0  0  0  0  0  0
  187.9220  177.3510  144.4240 C   0  0  0  0  0  0  0  0  0  0  0  0
  187.8190  177.5830  145.7370 N   0  0  0  0  0  0  0  0  0  0  0  0
  186.5260  177.3990  139.9850 C   0  0  0  0  0  2  0  0  0  0  0  0
  188.9080  178.5520  138.4260 C   0  0  0  0  0  2  0  0  0  0  0  0
  187.8400  177.7450  140.6220 C   0  0  0  0  0  0  0  0  0  0  0  0
  185.3130  177.7540  138.1800 N   0  0  2  0  0  0  0  0  0  0  0  0
  188.4840  177.3630  137.5840 C   0  0  2  0  0  3  0  0  0  0  0  0
  187.9950  177.5780  142.0010 C   0  0  0  0  0  0  0  0  0  0  0  0
  189.0280  178.0560  146.0610 N   0  0  0  0  0  0  0  0  0  0  0  0
  189.0880  176.1800  135.5670 C   0  0  2  0  0  3  0  0  0  0  0  0
  186.0510  177.0580  137.0930 C   0  0  2  0  0  3  0  0  0  0  0  0
  190.1610  178.5180  140.5690 C   0  0  0  0  0  3  0  0  0  0  0  0
  189.6630  176.8420  136.7870 C   0  0  0  0  0  2  0  0  0  0  0  0
  186.8030  177.1790  143.1740 S   0  0  0  0  0  0  0  0  0  0  0  0
  189.1230  177.7290  143.9870 C   0  0  0  0  0  0  0  0  0  0  0  0
  189.2130  177.8740  142.6170 C   0  0  0  0  0  0  0  0  0  0  0  0
  189.8460  178.1960  145.0110 N   0  0  0  0  0  0  0  0  0  0  0  0
  187.3500  177.7640  136.6370 C   0  0  2  0  0  3  0  0  0  0  0  0
  184.4620  178.8130  137.6410 C   0  0  2  0  0  3  0  0  0  0  0  0
  183.2180  178.9170  138.4440 C   0  0  2  0  0  3  0  0  0  0  0  0
  183.2460  178.2490  137.2080 O   0  0  0  0  0  0  0  0  0  0  0  0
  182.5550  180.2680  138.2520 C   0  0  2  0  0  3  0  0  0  0  0  0
  182.6140  181.0620  139.5420 C   0  0  0  0  0  1  0  0  0  0  0  0
  181.0980  180.0490  137.8600 C   0  0  0  0  0  2  0  0  0  0  0  0
  180.6120  181.0530  136.8160 C   0  0  1  0  0  3  0  0  0  0  0  0
  180.2690  180.4020  135.6260 O   0  0  0  0  0  0  0  0  0  0  0  0
  180.7060  181.2610  134.6090 C   0  0  0  0  0  1  0  0  0  0  0  0
  179.4310  181.8580  137.3420 C   0  0  0  0  0  2  0  0  0  0  0  0
  179.9250  183.1230  138.0100 C   0  0  0  0  0  2  0  0  0  0  0  0
  180.3930  184.0530  136.9960 N   0  0  0  0  0  1  0  0  0  0  0  0
  185.1160  176.6360  135.9530 C   0  0  0  0  0  2  0  0  0  0  0  0
  184.6990  175.3130  136.1220 O   0  0  0  0  0  0  0  0  0  0  0  0
  183.8010  172.9070  135.7540 O   0  0  0  0  0  1  0  0  0  0  0  0
  182.4520  174.6410  136.7550 C   0  0  1  0  0  0  0  0  0  0  0  0
  182.8240  173.8720  135.4920 C   0  0  1  0  0  3  0  0  0  0  0  0
  183.0900  174.2230  138.0800 C   0  0  0  0  0  1  0  0  0  0  0  0
  183.3540  175.3020  135.7190 C   0  0  2  0  0  3  0  0  0  0  0  0
  181.0410  175.2140  136.7810 C   0  0  0  0  0  2  0  0  0  0  0  0
  179.9790  174.1260  136.6510 C   0  0  0  0  0  2  0  0  0  0  0  0
  179.1790  172.3760  138.0590 F   0  0  0  0  0  0  0  0  0  0  0  0
  179.4030  173.7410  138.0060 C   0  0  0  0  0  2  0  0  0  0  0  0
  190.0900  175.9630  134.6200 O   0  0  0  0  0  0  0  0  0  0  0  0
  191.0210  175.1550  135.2770 C   0  0  0  0  0  2  0  0  0  0  0  0
  192.8240  176.5620  134.5970 O   0  0  0  0  0  1  0  0  0  0  0  0
  192.3830  175.2400  134.5940 C   0  0  1  0  0  3  0  0  0  0  0  0
  193.2340  172.9970  134.8560 O   0  0  0  0  0  1  0  0  0  0  0  0
  193.4480  174.3320  135.2170 C   0  0  2  0  0  3  0  0  0  0  0  0
  192.9640  173.4210  137.4030 O   0  0  0  0  0  1  0  0  0  0  0  0
  193.5790  174.4890  136.7360 C   0  0  1  0  0  3  0  0  0  0  0  0
  195.3330  174.5640  137.2070 P   0  0  0  0  0  0  0  0  0  0  0  0
  195.4740  175.0620  138.8180 O   0  0  0  0  0  1  0  0  0  0  0  0
  196.0310  173.0320  137.0270 O   0  0  0  0  0  1  0  0  0  0  0  0
  196.0530  175.5520  136.3180 O   0  0  0  0  0  0  0  0  0  0  0  0
  189.3680  178.4930  147.4080 C   0  0  2  0  0  3  0  0  0  0  0  0
  190.1670  177.4710  148.0740 N   0  0  0  0  0  2  0  0  0  0  0  0
  191.0800  176.6300  147.3680 C   0  0  0  0  0  0  0  0  0  0  0  0
  191.2920  176.8030  146.1370 O   0  0  0  0  0  0  0  0  0  0  0  0
  192.9900  176.1280  148.8340 C   0  0  0  0  0  1  0  0  0  0  0  0
  191.8010  175.5500  148.0960 C   0  0  0  0  0  2  0  0  0  0  0  0
  187.7750  177.6030  149.1060 C   0  0  0  0  0  1  0  0  0  0  0  0
  188.1000  178.7710  148.1980 C   0  0  0  0  0  2  0  0  0  0  0  0
  1 14  1  0  0  0  0
  2 20  1  0  0  0  0
  3  7  1  0  0  0  0
  4 16  1  0  0  0  0
  4  9  2  0  0  0  0
  5  6  2  0  0  0  0
  6 13  1  0  0  0  0
  7  9  1  0  0  0  0
  8  4  1  0  0  0  0
  9 12  1  0  0  0  0
 10  3  1  1  0  0  0
 11 17  1  6  0  0  0
 11  8  1  0  0  0  0
 12 20  2  0  0  0  0
 12 18  1  0  0  0  0
 13 58  1  0  0  0  0
 14 46  1  6  0  0  0
 14 17  1  0  0  0  0
 15 35  1  6  0  0  0
 15 10  1  0  0  0  0
 16  2  2  0  0  0  0
 18  5  1  0  0  0  0
 19  5  1  0  0  0  0
 19 21  2  0  0  0  0
 20 19  1  0  0  0  0
 21 13  1  0  0  0  0
 22  1  1  6  0  0  0
 22 15  1  0  0  0  0
 22 11  1  0  0  0  0
 23 25  1  6  0  0  0
 23 10  1  0  0  0  0
 23 24  1  0  0  0  0
 24 26  1  6  0  0  0
 25 24  1  0  0  0  0
 26 27  1  1  0  0  0
 28 26  1  0  0  0  0
 29 32  1  1  0  0  0
 29 28  1  0  0  0  0
 30 29  1  0  0  0  0
 31 30  1  0  0  0  0
 32 33  1  0  0  0  0
 34 33  1  0  0  0  0
 35 36  1  0  0  0  0
 38 42  1  0  0  0  0
 38 40  1  1  0  0  0
 39 41  1  0  0  0  0
 39 37  1  1  0  0  0
 39 38  1  0  0  0  0
 41 36  1  1  0  0  0
 41 38  1  0  0  0  0
 43 42  1  0  0  0  0
 43 45  1  0  0  0  0
 45 44  1  0  0  0  0
 46 47  1  0  0  0  0
 49 48  1  1  0  0  0
 49 51  1  0  0  0  0
 49 47  1  0  0  0  0
 51 50  1  1  0  0  0
 51 53  1  0  0  0  0
 53 54  1  0  0  0  0
 53 52  1  1  0  0  0
 54 55  1  0  0  0  0
 56 54  1  0  0  0  0
 57 54  2  0  0  0  0
 58 59  1  0  0  0  0
 58 65  1  1  0  0  0
 60 59  1  0  0  0  0
 60 63  1  0  0  0  0
 61 60  2  0  0  0  0
 63 62  1  0  0  0  0
 65 64  1  0  0  0  0
M  END
>  <MODEL>
7

>  <REMARK>
 VINA RESULT:      -3.0      1.655      1.976
  Name = 
  23 active torsions:
  status: ('A' for Active; 'I' for Inactive)
    1  A    between atoms: C_1  and  C_58
    2  A    between atoms: C_4  and  C_5
    3  A    between atoms: C_4  and  C_41
    4  A    between atoms: C_5  and  C_32
    5  A    between atoms: C_8  and  O_10
    6  A    between atoms: C_8  and  C_45
    7  A    between atoms: O_10  and  C_65
    8  A    between atoms: P_11  and  C_55
    9  A    between atoms: C_13  and  C_60
   10  A    between atoms: N_15  and  C_44
   11  A    between atoms: C_17  and  N_36
   12  A    between atoms: O_19  and  C_41
   13  A    between atoms: C_22  and  O_24
   14  A    between atoms: C_22  and  C_54
   15  A    between atoms: O_24  and  C_43
   16  A    between atoms: C_27  and  C_52
   17  A    between atoms: C_29  and  C_54
   18  A    between atoms: C_29  and  C_55
   19  A    between atoms: C_37  and  C_51
   20  A    between atoms: C_37  and  C_60
   21  A    between atoms: C_41  and  C_58
   22  A    between atoms: N_42  and  C_44
   23  A    between atoms: C_44  and  C_49
                            x       y       z     vdW  Elec       q    Type
                         _______ _______ _______ _____ _____    ______ ____

>  <TORSDO>
F 23

$$$$
=
 OpenBabel11042410133D

 65 71  0  0  1  0  0  0  0  0999 V2000
  187.8380  177.3760  134.9120 S   0  0  0  0  0  0  0  0  0  0  0  0
  190.2120  178.2690  141.9370 N   0  0  0  0  0  0  0  0  0  0  0  0
  186.1410  178.3200  139.0270 O   0  0  0  0  0  0  0  0  0  0  0  0
  188.9200  178.1660  139.8970 C   0  0  0  0  0  0  0  0  0  0  0  0
  187.8550  177.2120  144.4090 C   0  0  0  0  0  0  0  0  0  0  0  0
  187.7440  177.4190  145.7260 N   0  0  0  0  0  0  0  0  0  0  0  0
  186.4840  177.3400  139.9640 C   0  0  0  0  0  2  0  0  0  0  0  0
  188.8700  178.5320  138.4420 C   0  0  0  0  0  2  0  0  0  0  0  0
  187.7930  177.6790  140.6160 C   0  0  0  0  0  0  0  0  0  0  0  0
  185.2800  177.7240  138.1600 N   0  0  2  0  0  0  0  0  0  0  0  0
  188.4560  177.3580  137.5740 C   0  0  2  0  0  3  0  0  0  0  0  0
  187.9410  177.4860  141.9920 C   0  0  0  0  0  0  0  0  0  0  0  0
  188.9480  177.8900  146.0660 N   0  0  0  0  0  0  0  0  0  0  0  0
  189.0760  176.2160  135.5380 C   0  0  2  0  0  3  0  0  0  0  0  0
  186.0270  177.0520  137.0630 C   0  0  2  0  0  3  0  0  0  0  0  0
  190.1110  178.4620  140.5900 C   0  0  0  0  0  3  0  0  0  0  0  0
  189.6420  176.8560  136.7740 C   0  0  0  0  0  2  0  0  0  0  0  0
  186.7440  177.0590  143.1500 S   0  0  0  0  0  0  0  0  0  0  0  0
  189.0570  177.6030  143.9870 C   0  0  0  0  0  0  0  0  0  0  0  0
  189.1540  177.7750  142.6200 C   0  0  0  0  0  0  0  0  0  0  0  0
  189.7720  178.0540  145.0240 N   0  0  0  0  0  0  0  0  0  0  0  0
  187.3260  177.7720  136.6290 C   0  0  2  0  0  3  0  0  0  0  0  0
  184.4280  178.7900  137.6360 C   0  0  2  0  0  3  0  0  0  0  0  0
  183.0770  178.6980  138.2430 C   0  0  2  0  0  3  0  0  0  0  0  0
  183.3400  178.2120  136.9510 O   0  0  0  0  0  0  0  0  0  0  0  0
  182.3350  180.0160  138.1260 C   0  0  2  0  0  3  0  0  0  0  0  0
  181.6360  180.3350  139.4330 C   0  0  0  0  0  1  0  0  0  0  0  0
  181.2970  179.8980  137.0160 C   0  0  0  0  0  2  0  0  0  0  0  0
  180.0530  179.1260  137.4530 C   0  0  1  0  0  3  0  0  0  0  0  0
  179.0990  179.1050  136.4280 O   0  0  0  0  0  0  0  0  0  0  0  0
  179.8290  178.8210  135.2660 C   0  0  0  0  0  1  0  0  0  0  0  0
  180.4100  177.7090  137.8760 C   0  0  0  0  0  2  0  0  0  0  0  0
  179.2320  177.0670  138.5790 C   0  0  0  0  0  2  0  0  0  0  0  0
  179.7160  176.0850  139.5340 N   0  0  0  0  0  1  0  0  0  0  0  0
  185.1010  176.6480  135.9100 C   0  0  0  0  0  2  0  0  0  0  0  0
  184.3570  175.5150  136.2490 O   0  0  0  0  0  0  0  0  0  0  0  0
  183.6750  173.5590  137.8110 O   0  0  0  0  0  1  0  0  0  0  0  0
  184.6480  173.1830  135.6340 C   0  0  1  0  0  0  0  0  0  0  0  0
  184.8720  173.2930  137.1380 C   0  0  1  0  0  3  0  0  0  0  0  0
  183.2200  173.2810  135.0980 C   0  0  0  0  0  1  0  0  0  0  0  0
  185.2730  174.4520  136.2030 C   0  0  2  0  0  3  0  0  0  0  0  0
  185.6420  172.3020  134.8870 C   0  0  0  0  0  2  0  0  0  0  0  0
  186.0030  171.0490  135.6790 C   0  0  0  0  0  2  0  0  0  0  0  0
  188.0870  172.0160  136.3170 F   0  0  0  0  0  0  0  0  0  0  0  0
  187.5100  170.8730  135.7910 C   0  0  0  0  0  2  0  0  0  0  0  0
  190.0850  176.0210  134.5940 O   0  0  0  0  0  0  0  0  0  0  0  0
  190.7400  174.8620  135.0160 C   0  0  0  0  0  2  0  0  0  0  0  0
  192.4640  176.5080  135.1180 O   0  0  0  0  0  1  0  0  0  0  0  0
  192.2070  175.1530  135.3160 C   0  0  1  0  0  3  0  0  0  0  0  0
  192.7900  175.8590  137.5490 O   0  0  0  0  0  1  0  0  0  0  0  0
  192.6470  174.7380  136.7230 C   0  0  2  0  0  3  0  0  0  0  0  0
  194.3970  173.6660  135.4460 O   0  0  0  0  0  1  0  0  0  0  0  0
  193.9050  173.8620  136.7430 C   0  0  1  0  0  3  0  0  0  0  0  0
  195.1920  174.6400  137.7650 P   0  0  0  0  0  0  0  0  0  0  0  0
  196.2170  173.4520  138.3990 O   0  0  0  0  0  1  0  0  0  0  0  0
  196.0910  175.7150  136.8170 O   0  0  0  0  0  0  0  0  0  0  0  0
  194.5440  175.3950  138.9040 O   0  0  0  0  0  1  0  0  0  0  0  0
  189.2790  178.3030  147.4230 C   0  0  2  0  0  3  0  0  0  0  0  0
  189.9980  177.2320  148.1050 N   0  0  0  0  0  2  0  0  0  0  0  0
  191.1580  176.6110  147.5500 C   0  0  0  0  0  0  0  0  0  0  0  0
  191.6570  177.0320  146.4720 O   0  0  0  0  0  0  0  0  0  0  0  0
  193.2090  175.8230  148.6530 C   0  0  0  0  0  1  0  0  0  0  0  0
  191.7910  175.4670  148.2600 C   0  0  0  0  0  2  0  0  0  0  0  0
  187.5930  177.5070  149.0780 C   0  0  0  0  0  1  0  0  0  0  0  0
  188.0100  178.6550  148.1810 C   0  0  0  0  0  2  0  0  0  0  0  0
  1 14  1  0  0  0  0
  2 20  1  0  0  0  0
  3  7  1  0  0  0  0
  4 16  1  0  0  0  0
  4  9  2  0  0  0  0
  5  6  2  0  0  0  0
  6 13  1  0  0  0  0
  7  9  1  0  0  0  0
  8  4  1  0  0  0  0
  9 12  1  0  0  0  0
 10  3  1  1  0  0  0
 11 17  1  6  0  0  0
 11  8  1  0  0  0  0
 12 20  2  0  0  0  0
 12 18  1  0  0  0  0
 13 58  1  0  0  0  0
 14 46  1  6  0  0  0
 14 17  1  0  0  0  0
 15 35  1  6  0  0  0
 15 10  1  0  0  0  0
 16  2  2  0  0  0  0
 18  5  1  0  0  0  0
 19  5  1  0  0  0  0
 19 21  2  0  0  0  0
 20 19  1  0  0  0  0
 21 13  1  0  0  0  0
 22  1  1  6  0  0  0
 22 15  1  0  0  0  0
 22 11  1  0  0  0  0
 23 25  1  6  0  0  0
 23 10  1  0  0  0  0
 23 24  1  0  0  0  0
 24 26  1  6  0  0  0
 25 24  1  0  0  0  0
 26 27  1  1  0  0  0
 28 26  1  0  0  0  0
 29 28  1  6  0  0  0
 29 32  1  0  0  0  0
 30 29  1  0  0  0  0
 31 30  1  0  0  0  0
 32 33  1  0  0  0  0
 33 34  1  0  0  0  0
 35 36  1  0  0  0  0
 38 40  1  6  0  0  0
 38 41  1  0  0  0  0
 38 39  1  0  0  0  0
 39 37  1  1  0  0  0
 41 36  1  1  0  0  0
 41 39  1  0  0  0  0
 42 38  1  0  0  0  0
 42 43  1  0  0  0  0
 43 45  1  0  0  0  0
 45 44  1  0  0  0  0
 46 47  1  0  0  0  0
 47 49  1  0  0  0  0
 49 48  1  1  0  0  0
 49 51  1  0  0  0  0
 51 53  1  0  0  0  0
 51 50  1  1  0  0  0
 53 52  1  6  0  0  0
 53 54  1  0  0  0  0
 54 55  1  0  0  0  0
 54 57  1  0  0  0  0
 56 54  2  0  0  0  0
 58 59  1  0  0  0  0
 58 65  1  1  0  0  0
 60 59  1  0  0  0  0
 60 63  1  0  0  0  0
 61 60  2  0  0  0  0
 63 62  1  0  0  0  0
 65 64  1  0  0  0  0
M  END
>  <MODEL>
8

>  <REMARK>
 VINA RESULT:      -2.6      1.791      2.395
  Name = 
  23 active torsions:
  status: ('A' for Active; 'I' for Inactive)
    1  A    between atoms: C_1  and  C_58
    2  A    between atoms: C_4  and  C_5
    3  A    between atoms: C_4  and  C_41
    4  A    between atoms: C_5  and  C_32
    5  A    between atoms: C_8  and  O_10
    6  A    between atoms: C_8  and  C_45
    7  A    between atoms: O_10  and  C_65
    8  A    between atoms: P_11  and  C_55
    9  A    between atoms: C_13  and  C_60
   10  A    between atoms: N_15  and  C_44
   11  A    between atoms: C_17  and  N_36
   12  A    between atoms: O_19  and  C_41
   13  A    between atoms: C_22  and  O_24
   14  A    between atoms: C_22  and  C_54
   15  A    between atoms: O_24  and  C_43
   16  A    between atoms: C_27  and  C_52
   17  A    between atoms: C_29  and  C_54
   18  A    between atoms: C_29  and  C_55
   19  A    between atoms: C_37  and  C_51
   20  A    between atoms: C_37  and  C_60
   21  A    between atoms: C_41  and  C_58
   22  A    between atoms: N_42  and  C_44
   23  A    between atoms: C_44  and  C_49
                            x       y       z     vdW  Elec       q    Type
                         _______ _______ _______ _____ _____    ______ ____

>  <TORSDO>
F 23

$$$$
=
 OpenBabel11042410133D

 65 71  0  0  1  0  0  0  0  0999 V2000
  184.0880  178.8500  142.4980 S   0  0  0  0  0  0  0  0  0  0  0  0
  190.7320  176.3250  140.2040 N   0  0  0  0  0  0  0  0  0  0  0  0
  186.0830  177.3800  138.6820 O   0  0  0  0  0  0  0  0  0  0  0  0
  188.4150  176.9880  140.3880 C   0  0  0  0  0  0  0  0  0  0  0  0
  191.5300  177.2020  136.8310 C   0  0  0  0  0  0  0  0  0  0  0  0
  192.4420  176.7660  135.9550 N   0  0  0  0  0  0  0  0  0  0  0  0
  187.2410  178.1080  138.3910 C   0  0  0  0  0  2  0  0  0  0  0  0
  187.1680  176.9160  141.2210 C   0  0  0  0  0  2  0  0  0  0  0  0
  188.4320  177.4780  139.0520 C   0  0  0  0  0  0  0  0  0  0  0  0
  185.0450  178.2410  138.5080 N   0  0  2  0  0  0  0  0  0  0  0  0
  186.5250  178.2790  141.4010 C   0  0  2  0  0  3  0  0  0  0  0  0
  189.6340  177.3840  138.3470 C   0  0  0  0  0  0  0  0  0  0  0  0
  193.2990  176.0810  136.7200 N   0  0  0  0  0  0  0  0  0  0  0  0
  185.5670  179.6920  143.1100 C   0  0  2  0  0  3  0  0  0  0  0  0
  184.7830  179.0020  139.7580 C   0  0  2  0  0  3  0  0  0  0  0  0
  189.5800  176.4080  140.9300 C   0  0  0  0  0  3  0  0  0  0  0  0
  186.7100  178.7580  142.8270 C   0  0  0  0  0  2  0  0  0  0  0  0
  189.9380  177.7400  136.6920 S   0  0  0  0  0  0  0  0  0  0  0  0
  191.8100  176.7400  138.0490 C   0  0  0  0  0  0  0  0  0  0  0  0
  190.7630  176.8190  138.9450 C   0  0  0  0  0  0  0  0  0  0  0  0
  192.9300  176.0080  138.0040 N   0  0  0  0  0  0  0  0  0  0  0  0
  185.0340  178.2080  141.0630 C   0  0  2  0  0  3  0  0  0  0  0  0
  183.8920  177.4190  138.1440 C   0  0  2  0  0  3  0  0  0  0  0  0
  184.2960  176.3960  137.1480 C   0  0  2  0  0  3  0  0  0  0  0  0
  183.6330  177.5760  136.7680 O   0  0  0  0  0  0  0  0  0  0  0  0
  183.3070  175.2470  137.1110 C   0  0  2  0  0  3  0  0  0  0  0  0
  183.3250  174.5050  138.4330 C   0  0  0  0  0  1  0  0  0  0  0  0
  183.7050  174.2920  135.9910 C   0  0  0  0  0  2  0  0  0  0  0  0
  183.7750  172.8380  136.4550 C   0  0  1  0  0  3  0  0  0  0  0  0
  182.6610  172.1210  136.0040 O   0  0  0  0  0  0  0  0  0  0  0  0
  182.9470  170.7840  136.3120 C   0  0  0  0  0  1  0  0  0  0  0  0
  185.0620  172.1760  135.9830 C   0  0  0  0  0  2  0  0  0  0  0  0
  186.2570  172.9880  136.4370 C   0  0  0  0  0  2  0  0  0  0  0  0
  186.8610  173.6410  135.2880 N   0  0  0  0  0  1  0  0  0  0  0  0
  183.4390  179.7390  139.7040 C   0  0  0  0  0  2  0  0  0  0  0  0
  182.4120  178.8630  139.3450 O   0  0  0  0  0  0  0  0  0  0  0  0
  180.3390  178.8170  137.7850 O   0  0  0  0  0  1  0  0  0  0  0  0
  180.1840  178.3110  140.1400 C   0  0  1  0  0  0  0  0  0  0  0  0
  180.0340  179.3550  139.0390 C   0  0  1  0  0  3  0  0  0  0  0  0
  180.5390  176.8780  139.7460 C   0  0  0  0  0  1  0  0  0  0  0  0
  181.2630  179.3740  139.9690 C   0  0  2  0  0  3  0  0  0  0  0  0
  179.3120  178.5280  141.3710 C   0  0  0  0  0  2  0  0  0  0  0  0
  180.1450  178.7380  142.6310 C   0  0  0  0  0  2  0  0  0  0  0  0
  180.5520  177.8690  144.8130 F   0  0  0  0  0  0  0  0  0  0  0  0
  179.6140  177.9170  143.7970 C   0  0  0  0  0  2  0  0  0  0  0  0
  185.4650  179.9250  144.4820 O   0  0  0  0  0  0  0  0  0  0  0  0
  185.9050  178.7380  145.0720 C   0  0  0  0  0  2  0  0  0  0  0  0
  185.2690  179.3170  147.2970 O   0  0  0  0  0  1  0  0  0  0  0  0
  186.3670  178.9880  146.5040 C   0  0  1  0  0  3  0  0  0  0  0  0
  186.4410  177.3090  148.2360 O   0  0  0  0  0  1  0  0  0  0  0  0
  187.1270  177.8120  147.1250 C   0  0  2  0  0  3  0  0  0  0  0  0
  188.9240  177.6400  148.7330 O   0  0  0  0  0  1  0  0  0  0  0  0
  188.5870  178.1330  147.4650 C   0  0  1  0  0  3  0  0  0  0  0  0
  189.6940  177.4020  146.2210 P   0  0  0  0  0  0  0  0  0  0  0  0
  190.6430  178.6130  145.5160 O   0  0  0  0  0  1  0  0  0  0  0  0
  190.6970  176.2580  146.9610 O   0  0  0  0  0  1  0  0  0  0  0  0
  188.8700  176.7290  145.1470 O   0  0  0  0  0  0  0  0  0  0  0  0
  194.4520  175.3760  136.1750 C   0  0  2  0  0  3  0  0  0  0  0  0
  195.5950  175.5340  137.0670 N   0  0  0  0  0  2  0  0  0  0  0  0
  196.0660  174.4780  137.9060 C   0  0  0  0  0  0  0  0  0  0  0  0
  195.5540  173.3280  137.8390 O   0  0  0  0  0  0  0  0  0  0  0  0
  198.4840  174.2200  138.2720 C   0  0  0  0  0  1  0  0  0  0  0  0
  197.1840  174.7340  138.8540 C   0  0  0  0  0  2  0  0  0  0  0  0
  195.8070  177.0250  134.8870 C   0  0  0  0  0  1  0  0  0  0  0  0
  194.7820  175.9130  134.7930 C   0  0  0  0  0  2  0  0  0  0  0  0
  1 14  1  0  0  0  0
  2 16  1  0  0  0  0
  4 16  2  0  0  0  0
  4  8  1  0  0  0  0
  5 19  1  0  0  0  0
  6 13  1  0  0  0  0
  6  5  2  0  0  0  0
  7  3  1  0  0  0  0
  7  9  1  0  0  0  0
  9  4  1  0  0  0  0
 10  3  1  1  0  0  0
 10 15  1  0  0  0  0
 11  8  1  1  0  0  0
 11 17  1  0  0  0  0
 12 20  1  0  0  0  0
 12  9  2  0  0  0  0
 13 21  1  0  0  0  0
 14 46  1  1  0  0  0
 15 35  1  6  0  0  0
 15 22  1  0  0  0  0
 17 14  1  0  0  0  0
 18  5  1  0  0  0  0
 18 12  1  0  0  0  0
 19 20  1  0  0  0  0
 20  2  2  0  0  0  0
 21 19  2  0  0  0  0
 22 11  1  0  0  0  0
 22  1  1  1  0  0  0
 23 25  1  6  0  0  0
 23 10  1  0  0  0  0
 24 26  1  1  0  0  0
 24 23  1  0  0  0  0
 25 24  1  0  0  0  0
 26 27  1  1  0  0  0
 28 29  1  0  0  0  0
 28 26  1  0  0  0  0
 29 32  1  6  0  0  0
 30 31  1  0  0  0  0
 30 29  1  0  0  0  0
 32 33  1  0  0  0  0
 34 33  1  0  0  0  0
 36 35  1  0  0  0  0
 38 40  1  6  0  0  0
 38 42  1  0  0  0  0
 39 37  1  6  0  0  0
 39 41  1  0  0  0  0
 39 38  1  0  0  0  0
 41 36  1  6  0  0  0
 41 38  1  0  0  0  0
 42 43  1  0  0  0  0
 43 45  1  0  0  0  0
 45 44  1  0  0  0  0
 46 47  1  0  0  0  0
 47 49  1  0  0  0  0
 49 51  1  0  0  0  0
 49 48  1  1  0  0  0
 51 53  1  0  0  0  0
 51 50  1  1  0  0  0
 53 52  1  1  0  0  0
 54 56  1  0  0  0  0
 54 53  1  0  0  0  0
 55 54  1  0  0  0  0
 57 54  2  0  0  0  0
 58 65  1  6  0  0  0
 58 13  1  0  0  0  0
 58 59  1  0  0  0  0
 59 60  1  0  0  0  0
 60 63  1  0  0  0  0
 61 60  2  0  0  0  0
 62 63  1  0  0  0  0
 65 64  1  0  0  0  0
M  END
>  <MODEL>
9

>  <REMARK>
 VINA RESULT:      -2.6      3.344      9.017
  Name = 
  23 active torsions:
  status: ('A' for Active; 'I' for Inactive)
    1  A    between atoms: C_1  and  C_58
    2  A    between atoms: C_4  and  C_5
    3  A    between atoms: C_4  and  C_41
    4  A    between atoms: C_5  and  C_32
    5  A    between atoms: C_8  and  O_10
    6  A    between atoms: C_8  and  C_45
    7  A    between atoms: O_10  and  C_65
    8  A    between atoms: P_11  and  C_55
    9  A    between atoms: C_13  and  C_60
   10  A    between atoms: N_15  and  C_44
   11  A    between atoms: C_17  and  N_36
   12  A    between atoms: O_19  and  C_41
   13  A    between atoms: C_22  and  O_24
   14  A    between atoms: C_22  and  C_54
   15  A    between atoms: O_24  and  C_43
   16  A    between atoms: C_27  and  C_52
   17  A    between atoms: C_29  and  C_54
   18  A    between atoms: C_29  and  C_55
   19  A    between atoms: C_37  and  C_51
   20  A    between atoms: C_37  and  C_60
   21  A    between atoms: C_41  and  C_58
   22  A    between atoms: N_42  and  C_44
   23  A    between atoms: C_44  and  C_49
                            x       y       z     vdW  Elec       q    Type
                         _______ _______ _______ _____ _____    ______ ____

>  <TORSDO>
F 23

$$$$
