=
 OpenBabel11032420083D

 28 32  0  0  1  0  0  0  0  0999 V2000
  190.1740  176.4840  143.7830 C   0  0  0  0  0  0  0  0  0  0  0  0
  185.3210  177.8920  143.2050 C   0  0  0  0  0  3  0  0  0  0  0  0
  188.8730  178.0790  148.2680 N   0  0  0  0  0  1  0  0  0  0  0  0
  184.5730  178.2890  145.6250 C   0  0  2  0  0  3  0  0  0  0  0  0
  186.9250  177.7680  145.0600 C   0  0  0  0  0  0  0  0  0  0  0  0
  183.2260  179.0740  143.7020 C   0  0  0  0  0  0  0  0  0  0  0  0
  185.6810  178.0070  144.6290 C   0  0  1  0  0  3  0  0  0  0  0  0
  186.2680  178.7280  147.3080 C   0  0  0  0  0  3  0  0  0  0  0  0
  183.4490  179.0850  145.0220 C   0  0  0  0  0  3  0  0  0  0  0  0
  189.5300  177.2270  145.9990 C   0  0  0  0  0  0  0  0  0  0  0  0
  187.9110  177.2910  144.1890 O   0  0  0  0  0  0  0  0  0  0  0  0
  185.0490  178.8820  146.8790 N   0  0  0  0  0  0  0  0  0  0  0  0
  191.7400  176.4400  145.6200 C   0  0  0  0  0  3  0  0  0  0  0  0
  188.5140  177.7880  146.9180 C   0  0  0  0  0  0  0  0  0  0  0  0
  190.7850  176.9450  146.4460 N   0  0  0  0  0  0  0  0  0  0  0  0
  182.1610  179.7470  143.1990 F   0  0  0  0  0  0  0  0  0  0  0  0
  184.1550  178.3870  142.7750 C   0  0  0  0  0  3  0  0  0  0  0  0
  187.2720  178.0440  146.4730 C   0  0  0  0  0  0  0  0  0  0  0  0
  191.4500  176.2000  144.2760 C   0  0  0  0  0  3  0  0  0  0  0  0
  189.1990  176.9990  144.6510 C   0  0  1  0  0  3  0  0  0  0  0  0
  189.8620  176.2290  142.3290 C   0  0  0  0  0  2  0  0  0  0  0  0
  190.1180  177.3760  141.4410 N   0  0  0  0  0  0  0  0  0  0  0  0
  190.1200  177.4370  139.0230 C   0  0  1  0  0  3  0  0  0  0  0  0
  188.8590  177.9620  140.9900 C   0  0  0  0  0  2  0  0  0  0  0  0
  192.2520  177.5760  140.2860 C   0  0  0  0  0  1  0  0  0  0  0  0
  190.8670  176.9610  140.2540 C   0  0  1  0  0  3  0  0  0  0  0  0
  189.5200  176.2960  138.3530 N   0  0  0  0  0  1  0  0  0  0  0  0
  189.0330  178.3460  139.5410 C   0  0  0  0  0  2  0  0  0  0  0  0
  1 19  2  0  0  0  0
  4  9  1  6  0  0  0
  4 12  1  0  0  0  0
  5 18  2  0  0  0  0
  6  9  2  0  0  0  0
  7  2  1  1  0  0  0
  7  5  1  0  0  0  0
  7  4  1  0  0  0  0
 10 15  1  0  0  0  0
 10 14  2  0  0  0  0
 11 20  1  0  0  0  0
 11  5  1  0  0  0  0
 12  8  2  0  0  0  0
 13 15  2  0  0  0  0
 14  3  1  0  0  0  0
 16  6  1  0  0  0  0
 17  2  2  0  0  0  0
 17  6  1  0  0  0  0
 18 14  1  0  0  0  0
 18  8  1  0  0  0  0
 19 13  1  0  0  0  0
 20  1  1  6  0  0  0
 20 10  1  0  0  0  0
 21  1  1  0  0  0  0
 22 21  1  0  0  0  0
 23 27  1  1  0  0  0
 23 28  1  0  0  0  0
 23 26  1  0  0  0  0
 24 22  1  0  0  0  0
 26 25  1  1  0  0  0
 26 22  1  0  0  0  0
 28 24  1  0  0  0  0
M  END
>  <MODEL>
1

>  <REMARK>
 VINA RESULT:     -11.1      0.000      0.000
  Name = 
  2 active torsions:
  status: ('A' for Active; 'I' for Inactive)
    1  A    between atoms: C_1  and  C_2
    2  A    between atoms: C_2  and  N_3
                            x       y       z     vdW  Elec       q    Type
                         _______ _______ _______ _____ _____    ______ ____

>  <TORSDO>
F 2

$$$$
=
 OpenBabel11032420083D

 28 32  0  0  1  0  0  0  0  0999 V2000
  189.3640  176.7830  143.4700 C   0  0  0  0  0  0  0  0  0  0  0  0
  184.5680  178.0010  142.2940 C   0  0  0  0  0  3  0  0  0  0  0  0
  187.4780  178.3810  147.7420 N   0  0  0  0  0  1  0  0  0  0  0  0
  183.5210  178.3980  144.6000 C   0  0  2  0  0  3  0  0  0  0  0  0
  185.9420  177.9590  144.3290 C   0  0  0  0  0  0  0  0  0  0  0  0
  182.3870  179.1090  142.5170 C   0  0  0  0  0  0  0  0  0  0  0  0
  184.7500  178.1460  143.7490 C   0  0  1  0  0  3  0  0  0  0  0  0
  184.9850  178.9200  146.4660 C   0  0  0  0  0  3  0  0  0  0  0  0
  182.4500  179.1450  143.8550 C   0  0  0  0  0  3  0  0  0  0  0  0
  188.4330  177.5270  145.5810 C   0  0  0  0  0  0  0  0  0  0  0  0
  187.0410  177.5090  143.5900 O   0  0  0  0  0  0  0  0  0  0  0  0
  183.8220  179.0230  145.8930 N   0  0  0  0  0  0  0  0  0  0  0  0
  190.6990  176.8190  145.4810 C   0  0  0  0  0  3  0  0  0  0  0  0
  187.2940  178.0600  146.3620 C   0  0  0  0  0  0  0  0  0  0  0  0
  189.6350  177.2980  146.1790 N   0  0  0  0  0  0  0  0  0  0  0  0
  181.3680  179.7360  141.8800 F   0  0  0  0  0  0  0  0  0  0  0  0
  183.4450  178.4470  141.7200 C   0  0  0  0  0  3  0  0  0  0  0  0
  186.1070  178.2650  145.7680 C   0  0  0  0  0  0  0  0  0  0  0  0
  190.5820  176.5530  144.1160 C   0  0  0  0  0  3  0  0  0  0  0  0
  188.2750  177.2710  144.2070 C   0  0  1  0  0  3  0  0  0  0  0  0
  189.2390  176.4990  141.9940 C   0  0  0  0  0  2  0  0  0  0  0  0
  189.7710  177.5600  141.1220 N   0  0  0  0  0  0  0  0  0  0  0  0
  190.3190  177.4430  138.7690 C   0  0  1  0  0  3  0  0  0  0  0  0
  188.6930  178.1850  140.3620 C   0  0  0  0  0  2  0  0  0  0  0  0
  192.1190  177.5490  140.4760 C   0  0  0  0  0  1  0  0  0  0  0  0
  190.7340  177.0150  140.1650 C   0  0  1  0  0  3  0  0  0  0  0  0
  189.8020  176.2920  138.0480 N   0  0  0  0  0  1  0  0  0  0  0  0
  189.2150  178.4500  138.9700 C   0  0  0  0  0  2  0  0  0  0  0  0
  1 19  2  0  0  0  0
  4  9  1  6  0  0  0
  4 12  1  0  0  0  0
  5 18  2  0  0  0  0
  6  9  2  0  0  0  0
  7  2  1  1  0  0  0
  7  5  1  0  0  0  0
  7  4  1  0  0  0  0
 10 15  1  0  0  0  0
 10 14  2  0  0  0  0
 11 20  1  0  0  0  0
 11  5  1  0  0  0  0
 12  8  2  0  0  0  0
 13 15  2  0  0  0  0
 14  3  1  0  0  0  0
 16  6  1  0  0  0  0
 17  2  2  0  0  0  0
 17  6  1  0  0  0  0
 18 14  1  0  0  0  0
 18  8  1  0  0  0  0
 19 13  1  0  0  0  0
 20  1  1  6  0  0  0
 20 10  1  0  0  0  0
 21  1  1  0  0  0  0
 22 21  1  0  0  0  0
 23 27  1  6  0  0  0
 23 28  1  0  0  0  0
 23 26  1  0  0  0  0
 24 22  1  0  0  0  0
 26 25  1  1  0  0  0
 26 22  1  0  0  0  0
 28 24  1  0  0  0  0
M  END
>  <MODEL>
2

>  <REMARK>
 VINA RESULT:     -10.0      0.974      1.142
  Name = 
  2 active torsions:
  status: ('A' for Active; 'I' for Inactive)
    1  A    between atoms: C_1  and  C_2
    2  A    between atoms: C_2  and  N_3
                            x       y       z     vdW  Elec       q    Type
                         _______ _______ _______ _____ _____    ______ ____

>  <TORSDO>
F 2

$$$$
=
 OpenBabel11032420083D

 28 32  0  0  1  0  0  0  0  0999 V2000
  189.9510  177.5210  140.7640 C   0  0  0  0  0  0  0  0  0  0  0  0
  185.5950  178.1390  143.3140 C   0  0  0  0  0  3  0  0  0  0  0  0
  191.3200  177.2820  145.4990 N   0  0  0  0  0  1  0  0  0  0  0  0
  186.2810  177.5720  145.7180 C   0  0  2  0  0  3  0  0  0  0  0  0
  187.9420  177.7020  143.8880 C   0  0  0  0  0  0  0  0  0  0  0  0
  184.1320  178.6910  145.2090 C   0  0  0  0  0  0  0  0  0  0  0  0
  186.6690  177.8400  144.2770 C   0  0  1  0  0  3  0  0  0  0  0  0
  188.6280  177.7290  146.3240 C   0  0  0  0  0  3  0  0  0  0  0  0
  185.0330  178.3060  146.1230 C   0  0  0  0  0  3  0  0  0  0  0  0
  190.6260  177.3610  143.0860 C   0  0  0  0  0  0  0  0  0  0  0  0
  188.2890  177.7250  142.5330 O   0  0  0  0  0  0  0  0  0  0  0  0
  187.3760  177.7930  146.6700 N   0  0  0  0  0  0  0  0  0  0  0  0
  192.2590  177.1570  141.3730 C   0  0  0  0  0  3  0  0  0  0  0  0
  190.2810  177.3930  144.5260 C   0  0  0  0  0  0  0  0  0  0  0  0
  191.9150  177.1790  142.6890 N   0  0  0  0  0  0  0  0  0  0  0  0
  182.9840  179.2890  145.6140 F   0  0  0  0  0  0  0  0  0  0  0  0
  184.3960  178.5290  143.7610 C   0  0  0  0  0  3  0  0  0  0  0  0
  189.0040  177.5540  144.9090 C   0  0  0  0  0  0  0  0  0  0  0  0
  191.2840  177.3260  140.3890 C   0  0  0  0  0  3  0  0  0  0  0  0
  189.6140  177.5350  142.1250 C   0  0  1  0  0  3  0  0  0  0  0  0
  188.8980  177.7080  139.7000 C   0  0  0  0  0  2  0  0  0  0  0  0
  189.3890  177.5430  138.3210 N   0  0  0  0  0  0  0  0  0  0  0  0
  188.1950  176.7160  136.3870 C   0  0  1  0  0  3  0  0  0  0  0  0
  188.9910  178.6820  137.4990 C   0  0  0  0  0  2  0  0  0  0  0  0
  189.9400  175.3270  137.4770 C   0  0  0  0  0  1  0  0  0  0  0  0
  188.8330  176.3360  137.7100 C   0  0  1  0  0  3  0  0  0  0  0  0
  186.7500  176.6410  136.5110 N   0  0  0  0  0  1  0  0  0  0  0  0
  188.6070  178.1460  136.1410 C   0  0  0  0  0  2  0  0  0  0  0  0
  2 17  2  0  0  0  0
  4  9  1  1  0  0  0
  4 12  1  0  0  0  0
  5  7  1  0  0  0  0
  5 18  2  0  0  0  0
  6 16  1  0  0  0  0
  6  9  2  0  0  0  0
  7  2  1  6  0  0  0
  7  4  1  0  0  0  0
  8 12  2  0  0  0  0
 10 14  2  0  0  0  0
 11  5  1  0  0  0  0
 13 15  2  0  0  0  0
 14 18  1  0  0  0  0
 14  3  1  0  0  0  0
 15 10  1  0  0  0  0
 17  6  1  0  0  0  0
 18  8  1  0  0  0  0
 19  1  2  0  0  0  0
 19 13  1  0  0  0  0
 20  1  1  1  0  0  0
 20 11  1  0  0  0  0
 20 10  1  0  0  0  0
 21  1  1  0  0  0  0
 22 21  1  0  0  0  0
 23 27  1  1  0  0  0
 23 26  1  0  0  0  0
 24 22  1  0  0  0  0
 26 25  1  6  0  0  0
 26 22  1  0  0  0  0
 28 23  1  0  0  0  0
 28 24  1  0  0  0  0
M  END
>  <MODEL>
3

>  <REMARK>
 VINA RESULT:      -9.8      1.760      2.944
  Name = 
  2 active torsions:
  status: ('A' for Active; 'I' for Inactive)
    1  A    between atoms: C_1  and  C_2
    2  A    between atoms: C_2  and  N_3
                            x       y       z     vdW  Elec       q    Type
                         _______ _______ _______ _____ _____    ______ ____

>  <TORSDO>
F 2

$$$$
=
 OpenBabel11032420083D

 28 32  0  0  1  0  0  0  0  0999 V2000
  184.1450  178.4200  142.6060 C   0  0  0  0  0  0  0  0  0  0  0  0
  189.0140  176.9660  142.7990 C   0  0  0  0  0  3  0  0  0  0  0  0
  185.2870  178.7790  147.3940 N   0  0  0  0  0  1  0  0  0  0  0  0
  189.6770  177.5850  145.1970 C   0  0  2  0  0  3  0  0  0  0  0  0
  187.3460  177.8020  144.3960 C   0  0  0  0  0  0  0  0  0  0  0  0
  191.0910  176.1120  143.7960 C   0  0  0  0  0  0  0  0  0  0  0  0
  188.6050  177.4280  144.1370 C   0  0  1  0  0  3  0  0  0  0  0  0
  187.9240  177.8350  146.8590 C   0  0  0  0  0  3  0  0  0  0  0  0
  190.8210  176.6290  145.0020 C   0  0  0  0  0  3  0  0  0  0  0  0
  184.7090  178.6390  144.9530 C   0  0  0  0  0  0  0  0  0  0  0  0
  186.3920  177.8760  143.3750 O   0  0  0  0  0  0  0  0  0  0  0  0
  189.1570  177.5390  146.5680 N   0  0  0  0  0  0  0  0  0  0  0  0
  182.5150  179.1770  144.2190 C   0  0  0  0  0  3  0  0  0  0  0  0
  185.6930  178.5080  146.0520 C   0  0  0  0  0  0  0  0  0  0  0  0
  183.4400  179.0590  145.2090 N   0  0  0  0  0  0  0  0  0  0  0  0
  192.1720  175.3080  143.6410 F   0  0  0  0  0  0  0  0  0  0  0  0
  190.1940  176.3560  142.6430 C   0  0  0  0  0  3  0  0  0  0  0  0
  186.9490  178.1120  145.7880 C   0  0  0  0  0  0  0  0  0  0  0  0
  182.8520  178.8610  142.9010 C   0  0  0  0  0  3  0  0  0  0  0  0
  185.0880  178.3110  143.6380 C   0  0  1  0  0  3  0  0  0  0  0  0
  184.5070  178.0750  141.1830 C   0  0  0  0  0  2  0  0  0  0  0  0
  183.3770  178.1150  140.2400 N   0  0  0  0  0  0  0  0  0  0  0  0
  183.4190  177.9170  137.8290 C   0  0  1  0  0  3  0  0  0  0  0  0
  182.9660  176.7620  139.8770 C   0  0  0  0  0  2  0  0  0  0  0  0
  182.9700  180.1100  138.9040 C   0  0  0  0  0  1  0  0  0  0  0  0
  183.7480  178.8130  139.0080 C   0  0  1  0  0  3  0  0  0  0  0  0
  184.6510  177.4120  137.2500 N   0  0  0  0  0  1  0  0  0  0  0  0
  182.6260  176.7710  138.4070 C   0  0  0  0  0  2  0  0  0  0  0  0
  1 19  2  0  0  0  0
  4  9  1  1  0  0  0
  4 12  1  0  0  0  0
  5 18  2  0  0  0  0
  6  9  2  0  0  0  0
  7  2  1  6  0  0  0
  7  5  1  0  0  0  0
  7  4  1  0  0  0  0
 10 15  1  0  0  0  0
 10 14  2  0  0  0  0
 11 20  1  0  0  0  0
 11  5  1  0  0  0  0
 12  8  2  0  0  0  0
 13 15  2  0  0  0  0
 14  3  1  0  0  0  0
 16  6  1  0  0  0  0
 17  2  2  0  0  0  0
 17  6  1  0  0  0  0
 18 14  1  0  0  0  0
 18  8  1  0  0  0  0
 19 13  1  0  0  0  0
 20  1  1  1  0  0  0
 20 10  1  0  0  0  0
 21  1  1  0  0  0  0
 22 21  1  0  0  0  0
 23 27  1  1  0  0  0
 23 28  1  0  0  0  0
 23 26  1  0  0  0  0
 24 22  1  0  0  0  0
 26 25  1  6  0  0  0
 26 22  1  0  0  0  0
 28 24  1  0  0  0  0
M  END
>  <MODEL>
4

>  <REMARK>
 VINA RESULT:      -9.6      3.337      6.278
  Name = 
  2 active torsions:
  status: ('A' for Active; 'I' for Inactive)
    1  A    between atoms: C_1  and  C_2
    2  A    between atoms: C_2  and  N_3
                            x       y       z     vdW  Elec       q    Type
                         _______ _______ _______ _____ _____    ______ ____

>  <TORSDO>
F 2

$$$$
=
 OpenBabel11032420083D

 28 32  0  0  1  0  0  0  0  0999 V2000
  186.7520  178.6290  141.4750 C   0  0  0  0  0  0  0  0  0  0  0  0
  190.5880  177.3150  144.5450 C   0  0  0  0  0  3  0  0  0  0  0  0
  184.6250  178.2480  145.9120 N   0  0  0  0  0  1  0  0  0  0  0  0
  189.5380  177.5610  146.8710 C   0  0  2  0  0  3  0  0  0  0  0  0
  188.2010  177.8310  144.8060 C   0  0  0  0  0  0  0  0  0  0  0  0
  191.6860  176.3780  146.5320 C   0  0  0  0  0  0  0  0  0  0  0  0
  189.3830  177.5430  145.3630 C   0  0  1  0  0  3  0  0  0  0  0  0
  187.1180  177.4860  147.0670 C   0  0  0  0  0  3  0  0  0  0  0  0
  190.6650  176.6850  147.3430 C   0  0  0  0  0  3  0  0  0  0  0  0
  185.7070  178.4840  143.6580 C   0  0  0  0  0  0  0  0  0  0  0  0
  188.0840  178.0390  143.4270 O   0  0  0  0  0  0  0  0  0  0  0  0
  188.2910  177.2790  147.5910 N   0  0  0  0  0  0  0  0  0  0  0  0
  184.3940  179.0640  141.7650 C   0  0  0  0  0  3  0  0  0  0  0  0
  185.8050  178.2100  145.1090 C   0  0  0  0  0  0  0  0  0  0  0  0
  184.5120  178.8180  143.0970 N   0  0  0  0  0  0  0  0  0  0  0  0
  192.7210  175.6440  147.0110 F   0  0  0  0  0  0  0  0  0  0  0  0
  191.6750  176.7760  145.1060 C   0  0  0  0  0  3  0  0  0  0  0  0
  186.9920  177.9000  145.6580 C   0  0  0  0  0  0  0  0  0  0  0  0
  185.5110  178.9750  140.9320 C   0  0  0  0  0  3  0  0  0  0  0  0
  186.8570  178.3840  142.8520 C   0  0  1  0  0  3  0  0  0  0  0  0
  187.9570  178.5280  140.5740 C   0  0  0  0  0  2  0  0  0  0  0  0
  187.8710  177.4650  139.5580 N   0  0  0  0  0  0  0  0  0  0  0  0
  188.5650  177.5360  137.2420 C   0  0  1  0  0  3  0  0  0  0  0  0
  189.1500  176.7730  139.4340 C   0  0  0  0  0  2  0  0  0  0  0  0
  186.1540  177.5580  137.8340 C   0  0  0  0  0  1  0  0  0  0  0  0
  187.5370  178.0220  138.2470 C   0  0  1  0  0  3  0  0  0  0  0  0
  189.4300  178.6420  136.8670 N   0  0  0  0  0  1  0  0  0  0  0  0
  189.3720  176.4890  137.9690 C   0  0  0  0  0  2  0  0  0  0  0  0
  2 17  2  0  0  0  0
  4  9  1  6  0  0  0
  4 12  1  0  0  0  0
  5  7  1  0  0  0  0
  5 18  2  0  0  0  0
  6 16  1  0  0  0  0
  6  9  2  0  0  0  0
  7  2  1  6  0  0  0
  7  4  1  0  0  0  0
  8 12  2  0  0  0  0
 10 14  2  0  0  0  0
 11  5  1  0  0  0  0
 13 15  2  0  0  0  0
 14 18  1  0  0  0  0
 14  3  1  0  0  0  0
 15 10  1  0  0  0  0
 17  6  1  0  0  0  0
 18  8  1  0  0  0  0
 19  1  2  0  0  0  0
 19 13  1  0  0  0  0
 20  1  1  6  0  0  0
 20 11  1  0  0  0  0
 20 10  1  0  0  0  0
 21  1  1  0  0  0  0
 22 21  1  0  0  0  0
 23 27  1  1  0  0  0
 23 28  1  0  0  0  0
 23 26  1  0  0  0  0
 24 22  1  0  0  0  0
 26 25  1  6  0  0  0
 26 22  1  0  0  0  0
 28 24  1  0  0  0  0
M  END
>  <MODEL>
5

>  <REMARK>
 VINA RESULT:      -9.4      2.853      5.424
  Name = 
  2 active torsions:
  status: ('A' for Active; 'I' for Inactive)
    1  A    between atoms: C_1  and  C_2
    2  A    between atoms: C_2  and  N_3
                            x       y       z     vdW  Elec       q    Type
                         _______ _______ _______ _____ _____    ______ ____

>  <TORSDO>
F 2

$$$$
=
 OpenBabel11032420083D

 28 32  0  0  1  0  0  0  0  0999 V2000
  186.4110  177.7370  142.7340 C   0  0  0  0  0  0  0  0  0  0  0  0
  190.6510  176.5670  145.2870 C   0  0  0  0  0  3  0  0  0  0  0  0
  185.4050  179.1040  147.3680 N   0  0  0  0  0  1  0  0  0  0  0  0
  190.2500  177.6850  147.5590 C   0  0  2  0  0  3  0  0  0  0  0  0
  188.5010  177.6340  145.8080 C   0  0  0  0  0  0  0  0  0  0  0  0
  192.0550  176.0230  147.2280 C   0  0  0  0  0  0  0  0  0  0  0  0
  189.7300  177.2700  146.1960 C   0  0  1  0  0  3  0  0  0  0  0  0
  187.9680  178.1890  148.2190 C   0  0  0  0  0  3  0  0  0  0  0  0
  191.3200  176.7600  148.0700 C   0  0  0  0  0  3  0  0  0  0  0  0
  185.9240  178.4500  145.0000 C   0  0  0  0  0  0  0  0  0  0  0  0
  188.0820  177.4590  144.4850 O   0  0  0  0  0  0  0  0  0  0  0  0
  189.1900  177.8940  148.5520 N   0  0  0  0  0  0  0  0  0  0  0  0
  184.2850  178.7320  143.3030 C   0  0  0  0  0  3  0  0  0  0  0  0
  186.3340  178.5870  146.4160 C   0  0  0  0  0  0  0  0  0  0  0  0
  184.6890  178.8570  144.5950 N   0  0  0  0  0  0  0  0  0  0  0  0
  193.0580  175.2530  147.7160 F   0  0  0  0  0  0  0  0  0  0  0  0
  191.7530  175.9900  145.7780 C   0  0  0  0  0  3  0  0  0  0  0  0
  187.5610  178.2010  146.8020 C   0  0  0  0  0  0  0  0  0  0  0  0
  185.1390  178.1720  142.3510 C   0  0  0  0  0  3  0  0  0  0  0  0
  186.8140  177.8800  144.0700 C   0  0  1  0  0  3  0  0  0  0  0  0
  187.3310  177.1280  141.7060 C   0  0  0  0  0  2  0  0  0  0  0  0
  188.3490  178.0510  141.1770 N   0  0  0  0  0  0  0  0  0  0  0  0
  190.3440  177.5280  139.9130 C   0  0  1  0  0  3  0  0  0  0  0  0
  188.0950  178.3370  139.7680 C   0  0  0  0  0  2  0  0  0  0  0  0
  190.5090  178.2530  142.2820 C   0  0  0  0  0  1  0  0  0  0  0  0
  189.6870  177.4670  141.2790 C   0  0  1  0  0  3  0  0  0  0  0  0
  190.4150  176.1890  139.3530 N   0  0  0  0  0  1  0  0  0  0  0  0
  189.4310  178.3810  139.0670 C   0  0  0  0  0  2  0  0  0  0  0  0
  2 17  2  0  0  0  0
  4  9  1  1  0  0  0
  4 12  1  0  0  0  0
  5  7  1  0  0  0  0
  5 18  2  0  0  0  0
  6 16  1  0  0  0  0
  6  9  2  0  0  0  0
  7  2  1  6  0  0  0
  7  4  1  0  0  0  0
  8 12  2  0  0  0  0
 10 14  2  0  0  0  0
 11  5  1  0  0  0  0
 13 15  2  0  0  0  0
 14 18  1  0  0  0  0
 14  3  1  0  0  0  0
 15 10  1  0  0  0  0
 17  6  1  0  0  0  0
 18  8  1  0  0  0  0
 19  1  2  0  0  0  0
 19 13  1  0  0  0  0
 20  1  1  1  0  0  0
 20 11  1  0  0  0  0
 20 10  1  0  0  0  0
 21  1  1  0  0  0  0
 22 26  1  0  0  0  0
 22 21  1  0  0  0  0
 23 27  1  6  0  0  0
 23 26  1  0  0  0  0
 24 22  1  0  0  0  0
 26 25  1  1  0  0  0
 28 24  1  0  0  0  0
 28 23  1  0  0  0  0
M  END
>  <MODEL>
6

>  <REMARK>
 VINA RESULT:      -9.0      2.702      5.244
  Name = 
  2 active torsions:
  status: ('A' for Active; 'I' for Inactive)
    1  A    between atoms: C_1  and  C_2
    2  A    between atoms: C_2  and  N_3
                            x       y       z     vdW  Elec       q    Type
                         _______ _______ _______ _____ _____    ______ ____

>  <TORSDO>
F 2

$$$$
=
 OpenBabel11032420083D

 28 32  0  0  1  0  0  0  0  0999 V2000
  186.7130  178.3580  140.2690 C   0  0  0  0  0  0  0  0  0  0  0  0
  186.8630  177.8960  145.3310 C   0  0  0  0  0  3  0  0  0  0  0  0
  191.4620  177.4070  141.2200 N   0  0  0  0  0  1  0  0  0  0  0  0
  189.2240  176.9790  145.7290 C   0  0  2  0  0  3  0  0  0  0  0  0
  188.4610  177.6730  143.4800 C   0  0  0  0  0  0  0  0  0  0  0  0
  187.8490  177.8790  147.5810 C   0  0  0  0  0  0  0  0  0  0  0  0
  188.1910  177.5650  144.7860 C   0  0  1  0  0  3  0  0  0  0  0  0
  190.9100  177.3280  144.0160 C   0  0  0  0  0  3  0  0  0  0  0  0
  189.0410  177.4500  147.1450 C   0  0  0  0  0  3  0  0  0  0  0  0
  189.0400  177.8500  140.7240 C   0  0  0  0  0  0  0  0  0  0  0  0
  187.4570  177.9990  142.5610 O   0  0  0  0  0  0  0  0  0  0  0  0
  190.6050  177.1580  145.2700 N   0  0  0  0  0  0  0  0  0  0  0  0
  188.3300  178.1930  138.4820 C   0  0  0  0  0  3  0  0  0  0  0  0
  190.1230  177.5620  141.6910 C   0  0  0  0  0  0  0  0  0  0  0  0
  189.3050  177.9200  139.3900 N   0  0  0  0  0  2  0  0  0  0  0  0
  187.7020  178.2310  148.8820 F   0  0  0  0  0  0  0  0  0  0  0  0
  186.7050  178.0310  146.6530 C   0  0  0  0  0  3  0  0  0  0  0  0
  189.8480  177.4750  143.0030 C   0  0  0  0  0  0  0  0  0  0  0  0
  187.0180  178.4150  138.9060 C   0  0  0  0  0  3  0  0  0  0  0  0
  187.7300  178.0680  141.1910 C   0  0  0  0  0  0  0  0  0  0  0  0
  185.2970  178.6020  140.7260 C   0  0  0  0  0  2  0  0  0  0  0  0
  184.2810  178.4510  139.6710 N   0  0  0  0  0  0  0  0  0  0  0  0
  181.8720  178.5100  139.8790 C   0  0  1  0  0  3  0  0  0  0  0  0
  183.8080  179.7580  139.2260 C   0  0  0  0  0  2  0  0  0  0  0  0
  183.0460  176.3640  139.4530 C   0  0  0  0  0  1  0  0  0  0  0  0
  183.1250  177.7010  140.1630 C   0  0  1  0  0  3  0  0  0  0  0  0
  181.3500  179.0410  141.1270 N   0  0  0  0  0  1  0  0  0  0  0  0
  182.3210  179.6470  138.9950 C   0  0  0  0  0  2  0  0  0  0  0  0
  1 21  1  0  0  0  0
  1 20  2  0  0  0  0
  2 17  2  0  0  0  0
  3 14  1  0  0  0  0
  4  9  1  1  0  0  0
  5  7  1  0  0  0  0
  6 16  1  0  0  0  0
  7  2  1  6  0  0  0
  7  4  1  0  0  0  0
  8 12  2  0  0  0  0
  9  6  2  0  0  0  0
 10 20  1  0  0  0  0
 10 14  2  0  0  0  0
 11  5  1  0  0  0  0
 12  4  1  0  0  0  0
 13 19  2  0  0  0  0
 13 15  1  0  0  0  0
 14 18  1  0  0  0  0
 15 10  1  0  0  0  0
 17  6  1  0  0  0  0
 18  5  2  0  0  0  0
 18  8  1  0  0  0  0
 19  1  1  0  0  0  0
 20 11  1  0  0  0  0
 22 26  1  0  0  0  0
 22 21  1  0  0  0  0
 23 26  1  0  0  0  0
 23 27  1  1  0  0  0
 24 22  1  0  0  0  0
 26 25  1  6  0  0  0
 28 24  1  0  0  0  0
 28 23  1  0  0  0  0
M  END
>  <MODEL>
7

>  <REMARK>
 VINA RESULT:      -8.8      3.035      6.193
  Name = 
  2 active torsions:
  status: ('A' for Active; 'I' for Inactive)
    1  A    between atoms: C_1  and  C_2
    2  A    between atoms: C_2  and  N_3
                            x       y       z     vdW  Elec       q    Type
                         _______ _______ _______ _____ _____    ______ ____

>  <TORSDO>
F 2

$$$$
=
 OpenBabel11032420083D

 28 32  0  0  1  0  0  0  0  0999 V2000
  190.3670  178.1110  143.0840 C   0  0  0  0  0  0  0  0  0  0  0  0
  185.3680  178.9840  142.7410 C   0  0  0  0  0  3  0  0  0  0  0  0
  189.3730  177.3780  138.3060 N   0  0  0  0  0  1  0  0  0  0  0  0
  184.9910  179.0250  140.2060 C   0  0  2  0  0  3  0  0  0  0  0  0
  187.1860  178.4340  141.1840 C   0  0  0  0  0  0  0  0  0  0  0  0
  183.1030  178.8660  141.7990 C   0  0  0  0  0  0  0  0  0  0  0  0
  185.9040  178.7600  141.3870 C   0  0  1  0  0  3  0  0  0  0  0  0
  186.6140  177.9250  138.7710 C   0  0  0  0  0  3  0  0  0  0  0  0
  183.5430  178.7930  140.5360 C   0  0  0  0  0  3  0  0  0  0  0  0
  189.8950  177.7900  140.7280 C   0  0  0  0  0  0  0  0  0  0  0  0
  188.0990  178.4020  142.2440 O   0  0  0  0  0  0  0  0  0  0  0  0
  185.3920  178.3160  138.9850 N   0  0  0  0  0  0  0  0  0  0  0  0
  192.1140  177.5060  141.5310 C   0  0  0  0  0  3  0  0  0  0  0  0
  188.9290  177.7620  139.6070 C   0  0  0  0  0  0  0  0  0  0  0  0
  191.2080  177.4980  140.5160 N   0  0  0  0  0  2  0  0  0  0  0  0
  181.7790  178.7210  142.0540 F   0  0  0  0  0  0  0  0  0  0  0  0
  184.0450  179.0450  142.9270 C   0  0  0  0  0  3  0  0  0  0  0  0
  187.6390  178.0700  139.8220 C   0  0  0  0  0  0  0  0  0  0  0  0
  191.7090  177.8130  142.8310 C   0  0  0  0  0  3  0  0  0  0  0  0
  189.4480  178.1050  142.0250 C   0  0  0  0  0  0  0  0  0  0  0  0
  189.9290  178.4390  144.4900 C   0  0  0  0  0  2  0  0  0  0  0  0
  189.6690  177.2630  145.3370 N   0  0  0  0  0  0  0  0  0  0  0  0
  189.4730  177.1540  147.7450 C   0  0  1  0  0  3  0  0  0  0  0  0
  188.2530  177.1890  145.6860 C   0  0  0  0  0  2  0  0  0  0  0  0
  191.4800  176.2420  146.6030 C   0  0  0  0  0  1  0  0  0  0  0  0
  190.4320  177.3360  146.5830 C   0  0  1  0  0  3  0  0  0  0  0  0
  189.3030  178.4230  148.4310 N   0  0  0  0  0  1  0  0  0  0  0  0
  188.1640  176.7370  147.1230 C   0  0  0  0  0  2  0  0  0  0  0  0
  1 21  1  0  0  0  0
  2 17  2  0  0  0  0
  3 14  1  0  0  0  0
  4  9  1  1  0  0  0
  4  7  1  0  0  0  0
  5  7  1  0  0  0  0
  5 11  1  0  0  0  0
  6 16  1  0  0  0  0
  6 17  1  0  0  0  0
  7  2  1  1  0  0  0
  8 12  2  0  0  0  0
  8 18  1  0  0  0  0
  9  6  2  0  0  0  0
 10 20  1  0  0  0  0
 12  4  1  0  0  0  0
 13 19  2  0  0  0  0
 14 18  1  0  0  0  0
 14 10  2  0  0  0  0
 15 10  1  0  0  0  0
 15 13  1  0  0  0  0
 18  5  2  0  0  0  0
 19  1  1  0  0  0  0
 20 11  1  0  0  0  0
 20  1  2  0  0  0  0
 21 22  1  0  0  0  0
 22 24  1  0  0  0  0
 22 26  1  0  0  0  0
 23 27  1  6  0  0  0
 24 28  1  0  0  0  0
 26 25  1  6  0  0  0
 26 23  1  0  0  0  0
 28 23  1  0  0  0  0
M  END
>  <MODEL>
8

>  <REMARK>
 VINA RESULT:      -8.7      1.808      5.659
  Name = 
  2 active torsions:
  status: ('A' for Active; 'I' for Inactive)
    1  A    between atoms: C_1  and  C_2
    2  A    between atoms: C_2  and  N_3
                            x       y       z     vdW  Elec       q    Type
                         _______ _______ _______ _____ _____    ______ ____

>  <TORSDO>
F 2

$$$$
=
 OpenBabel11032420083D

 28 32  0  0  1  0  0  0  0  0999 V2000
  184.1640  178.6860  140.5170 C   0  0  0  0  0  0  0  0  0  0  0  0
  185.8190  177.9200  145.2650 C   0  0  0  0  0  3  0  0  0  0  0  0
  189.0540  178.2580  140.0010 N   0  0  0  0  0  1  0  0  0  0  0  0
  188.2710  177.2720  144.8930 C   0  0  2  0  0  3  0  0  0  0  0  0
  186.8250  178.0120  143.0270 C   0  0  0  0  0  0  0  0  0  0  0  0
  187.4110  177.8780  147.1350 C   0  0  0  0  0  0  0  0  0  0  0  0
  186.9580  177.7880  144.3390 C   0  0  1  0  0  3  0  0  0  0  0  0
  189.3460  177.9320  142.8180 C   0  0  0  0  0  3  0  0  0  0  0  0
  188.4610  177.6250  146.3430 C   0  0  0  0  0  3  0  0  0  0  0  0
  186.5600  178.4360  140.2490 C   0  0  0  0  0  0  0  0  0  0  0  0
  185.5710  178.2730  142.4620 O   0  0  0  0  0  0  0  0  0  0  0  0
  189.4360  177.6460  144.0840 N   0  0  0  0  0  0  0  0  0  0  0  0
  185.2020  178.8350  138.3420 C   0  0  0  0  0  3  0  0  0  0  0  0
  187.9000  178.2190  140.8410 C   0  0  0  0  0  0  0  0  0  0  0  0
  186.4200  178.6230  138.9080 N   0  0  0  0  0  2  0  0  0  0  0  0
  187.6140  178.1240  148.4530 F   0  0  0  0  0  0  0  0  0  0  0  0
  186.0380  177.9500  146.5840 C   0  0  0  0  0  3  0  0  0  0  0  0
  188.0280  178.0160  142.1630 C   0  0  0  0  0  0  0  0  0  0  0  0
  184.0540  178.8690  139.1360 C   0  0  0  0  0  3  0  0  0  0  0  0
  185.4280  178.4630  141.0840 C   0  0  0  0  0  0  0  0  0  0  0  0
  182.9240  178.7280  141.3750 C   0  0  0  0  0  2  0  0  0  0  0  0
  181.6600  178.6810  140.6210 N   0  0  0  0  0  0  0  0  0  0  0  0
  179.4740  177.9890  141.3890 C   0  0  1  0  0  3  0  0  0  0  0  0
  180.8620  179.8740  140.8900 C   0  0  0  0  0  2  0  0  0  0  0  0
  180.7780  176.5500  139.8430 C   0  0  0  0  0  1  0  0  0  0  0  0
  180.8640  177.5160  141.0080 C   0  0  1  0  0  3  0  0  0  0  0  0
  179.3060  177.8780  142.8280 N   0  0  0  0  0  1  0  0  0  0  0  0
  179.4190  179.4410  140.9860 C   0  0  0  0  0  2  0  0  0  0  0  0
  1 20  2  0  0  0  0
  1 21  1  0  0  0  0
  2 17  2  0  0  0  0
  3 14  1  0  0  0  0
  4  9  1  1  0  0  0
  5  7  1  0  0  0  0
  6 16  1  0  0  0  0
  7  4  1  0  0  0  0
  7  2  1  6  0  0  0
  8 12  2  0  0  0  0
  9  6  2  0  0  0  0
 10 14  2  0  0  0  0
 10 20  1  0  0  0  0
 11  5  1  0  0  0  0
 12  4  1  0  0  0  0
 13 15  1  0  0  0  0
 13 19  2  0  0  0  0
 14 18  1  0  0  0  0
 15 10  1  0  0  0  0
 17  6  1  0  0  0  0
 18  8  1  0  0  0  0
 18  5  2  0  0  0  0
 19  1  1  0  0  0  0
 20 11  1  0  0  0  0
 22 24  1  0  0  0  0
 22 26  1  0  0  0  0
 22 21  1  0  0  0  0
 23 27  1  1  0  0  0
 24 28  1  0  0  0  0
 26 25  1  6  0  0  0
 26 23  1  0  0  0  0
 28 23  1  0  0  0  0
M  END
>  <MODEL>
9

>  <REMARK>
 VINA RESULT:      -8.6      3.556      7.373
  Name = 
  2 active torsions:
  status: ('A' for Active; 'I' for Inactive)
    1  A    between atoms: C_1  and  C_2
    2  A    between atoms: C_2  and  N_3
                            x       y       z     vdW  Elec       q    Type
                         _______ _______ _______ _____ _____    ______ ____

>  <TORSDO>
F 2

$$$$
