=
 OpenBabel11042412123D

 37 42  0  0  1  0  0  0  0  0999 V2000
  184.8320  178.4350  140.9950 C   0  0  0  0  0  0  0  0  0  0  0  0
  186.8550  178.1740  142.4510 C   0  0  0  0  0  0  0  0  0  0  0  0
  189.6440  177.9510  140.1370 N   0  0  0  0  0  0  0  0  0  0  0  0
  184.8460  178.3800  143.3890 N   0  0  0  0  0  0  0  0  0  0  0  0
  182.7170  178.7010  142.3560 C   0  0  0  0  0  3  0  0  0  0  0  0
  185.8130  178.3780  139.5880 S   0  0  0  0  0  0  0  0  0  0  0  0
  189.9890  177.8400  142.5560 N   0  0  0  0  0  1  0  0  0  0  0  0
  187.7960  178.1000  141.4170 C   0  0  0  0  0  0  0  0  0  0  0  0
  187.4390  178.1900  140.0290 C   0  0  0  0  0  0  0  0  0  0  0  0
  189.1620  177.9550  141.4050 C   0  0  0  0  0  0  0  0  0  0  0  0
  185.7740  178.2650  144.3630 C   0  0  0  0  0  0  0  0  0  0  0  0
  183.3170  178.5330  140.9500 C   0  0  2  0  0  0  0  0  0  0  0  0
  187.0540  178.1220  143.8260 C   0  0  0  0  0  3  0  0  0  0  0  0
  188.5940  178.0930  139.2850 C   0  0  0  0  0  3  0  0  0  0  0  0
  183.4380  178.6070  143.4840 C   0  0  0  0  0  3  0  0  0  0  0  0
  182.8050  177.2180  140.3670 C   0  0  0  0  0  1  0  0  0  0  0  0
  185.4930  178.3260  142.2270 C   0  0  0  0  0  0  0  0  0  0  0  0
  182.9830  179.6300  140.1130 O   0  0  0  0  0  0  0  0  0  0  0  0
  181.8490  179.3320  139.3290 C   0  0  1  0  0  3  0  0  0  0  0  0
  179.8520  182.4660  138.5990 C   0  0  0  0  0  3  0  0  0  0  0  0
  180.8410  180.4280  139.4640 C   0  0  0  0  0  0  0  0  0  0  0  0
  178.9310  182.4690  139.6530 C   0  0  0  0  0  3  0  0  0  0  0  0
  179.9100  180.4270  140.5150 C   0  0  0  0  0  3  0  0  0  0  0  0
  178.9610  181.4490  140.6100 C   0  0  0  0  0  3  0  0  0  0  0  0
  180.8040  181.4460  138.5050 C   0  0  0  0  0  3  0  0  0  0  0  0
  181.5540  178.2940  137.0310 C   0  0  0  0  0  0  0  0  0  0  0  0
  181.9270  178.2380  135.7970 N   0  0  0  0  0  2  0  0  0  0  0  0
  182.2450  179.1610  137.9330 N   0  0  0  0  0  2  0  0  0  0  0  0
  180.4320  177.4290  137.4970 C   0  0  0  0  0  1  0  0  0  0  0  0
  185.4610  178.2420  145.8240 C   0  0  0  0  0  2  0  0  0  0  0  0
  186.8530  178.6300  147.7920 N   0  0  0  0  0  0  0  0  0  0  0  0
  186.7160  178.1190  146.6150 C   0  0  0  0  0  0  0  0  0  0  0  0
  188.7330  177.4300  147.2040 C   0  0  0  0  0  0  0  0  0  0  0  0
  187.8710  177.3420  146.2020 C   0  0  0  0  0  3  0  0  0  0  0  0
  188.1650  178.2660  148.3070 C   0  0  0  0  0  2  0  0  0  0  0  0
  190.0680  176.7490  147.1970 C   0  0  0  0  0  2  0  0  0  0  0  0
  190.8560  177.0470  145.9330 C   0  0  0  0  0  1  0  0  0  0  0  0
  1 17  2  0  0  0  0
  2 13  1  0  0  0  0
  3 10  2  0  0  0  0
  4 15  1  0  0  0  0
  4 11  1  0  0  0  0
  5 15  2  0  0  0  0
  6  9  1  0  0  0  0
  6  1  1  0  0  0  0
  8  2  2  0  0  0  0
  9  8  1  0  0  0  0
 10  8  1  0  0  0  0
 10  7  1  0  0  0  0
 11 30  1  0  0  0  0
 12 16  1  6  0  0  0
 12  1  1  0  0  0  0
 12  5  1  0  0  0  0
 13 11  2  0  0  0  0
 14  9  2  0  0  0  0
 14  3  1  0  0  0  0
 17  2  1  0  0  0  0
 17  4  1  0  0  0  0
 18 12  1  0  0  0  0
 19 28  1  6  0  0  0
 19 21  1  0  0  0  0
 19 18  1  0  0  0  0
 20 22  1  0  0  0  0
 21 23  2  0  0  0  0
 22 24  2  0  0  0  0
 23 24  1  0  0  0  0
 25 20  2  0  0  0  0
 25 21  1  0  0  0  0
 26 29  1  0  0  0  0
 26 28  1  0  0  0  0
 27 26  2  0  0  0  0
 30 32  1  0  0  0  0
 31 35  1  0  0  0  0
 32 31  2  0  0  0  0
 33 35  1  0  0  0  0
 34 32  1  0  0  0  0
 34 33  2  0  0  0  0
 36 33  1  0  0  0  0
 37 36  1  0  0  0  0
M  END
>  <MODEL>
1

>  <REMARK>
 VINA RESULT:      -8.4      0.000      0.000
  Name = 
  7 active torsions:
  status: ('A' for Active; 'I' for Inactive)
    1  A    between atoms: C_5  and  C_6
    2  A    between atoms: C_6  and  O_19
    3  A    between atoms: C_6  and  N_36
    4  A    between atoms: C_8  and  C_13
    5  A    between atoms: C_11  and  C_22
    6  A    between atoms: O_19  and  C_28
    7  A    between atoms: C_22  and  C_27
                            x       y       z     vdW  Elec       q    Type
                         _______ _______ _______ _____ _____    ______ ____

>  <TORSDO>
F 7

$$$$
=
 OpenBabel11042412123D

 37 42  0  0  1  0  0  0  0  0999 V2000
  187.9030  177.8440  140.0030 C   0  0  0  0  0  0  0  0  0  0  0  0
  187.7660  177.7940  142.5060 C   0  0  0  0  0  0  0  0  0  0  0  0
  184.3810  178.8580  143.2730 N   0  0  0  0  0  0  0  0  0  0  0  0
  189.6590  177.1970  141.4970 N   0  0  0  0  0  0  0  0  0  0  0  0
  190.1570  177.0600  139.1650 C   0  0  0  0  0  3  0  0  0  0  0  0
  186.2730  178.3710  139.9040 S   0  0  0  0  0  0  0  0  0  0  0  0
  185.9630  178.2770  145.0460 N   0  0  0  0  0  1  0  0  0  0  0  0
  186.4390  178.2250  142.6080 C   0  0  0  0  0  0  0  0  0  0  0  0
  185.6240  178.5240  141.4630 C   0  0  0  0  0  0  0  0  0  0  0  0
  185.6090  178.4520  143.6800 C   0  0  0  0  0  0  0  0  0  0  0  0
  189.8200  177.0800  142.8330 C   0  0  0  0  0  0  0  0  0  0  0  0
  188.7970  177.6690  138.7870 C   0  0  2  0  0  0  0  0  0  0  0  0
  188.6610  177.4530  143.5140 C   0  0  0  0  0  3  0  0  0  0  0  0
  184.3800  178.9060  141.9140 C   0  0  0  0  0  3  0  0  0  0  0  0
  190.5540  176.8640  140.4330 C   0  0  0  0  0  3  0  0  0  0  0  0
  189.0420  179.0630  138.2130 C   0  0  0  0  0  1  0  0  0  0  0  0
  188.4180  177.6290  141.2900 C   0  0  0  0  0  0  0  0  0  0  0  0
  188.1030  176.8470  137.8610 O   0  0  0  0  0  0  0  0  0  0  0  0
  188.9580  175.8550  137.3380 C   0  0  1  0  0  3  0  0  0  0  0  0
  186.0470  173.4660  136.9340 C   0  0  0  0  0  3  0  0  0  0  0  0
  188.1860  174.5950  137.1070 C   0  0  0  0  0  0  0  0  0  0  0  0
  186.7020  172.2680  136.6260 C   0  0  0  0  0  3  0  0  0  0  0  0
  188.8410  173.3960  136.7870 C   0  0  0  0  0  3  0  0  0  0  0  0
  188.0980  172.2340  136.5520 C   0  0  0  0  0  3  0  0  0  0  0  0
  186.7880  174.6270  137.1730 C   0  0  0  0  0  3  0  0  0  0  0  0
  190.9180  176.0540  135.7350 C   0  0  0  0  0  0  0  0  0  0  0  0
  191.3650  176.4570  134.5940 N   0  0  0  0  0  2  0  0  0  0  0  0
  189.5620  176.3280  136.0940 N   0  0  0  0  0  2  0  0  0  0  0  0
  191.8340  175.3390  136.6690 C   0  0  0  0  0  1  0  0  0  0  0  0
  191.0900  176.6540  143.4940 C   0  0  0  0  0  2  0  0  0  0  0  0
  191.7540  176.1040  145.7780 N   0  0  0  0  0  0  0  0  0  0  0  0
  190.9390  176.7000  144.9740 C   0  0  0  0  0  0  0  0  0  0  0  0
  190.1830  177.3120  146.9600 C   0  0  0  0  0  0  0  0  0  0  0  0
  189.9360  177.4860  145.6700 C   0  0  0  0  0  3  0  0  0  0  0  0
  191.3610  176.4090  147.1460 C   0  0  0  0  0  2  0  0  0  0  0  0
  189.3820  177.9690  148.0420 C   0  0  0  0  0  2  0  0  0  0  0  0
  187.9600  177.4380  148.1050 C   0  0  0  0  0  1  0  0  0  0  0  0
  1 17  2  0  0  0  0
  2  8  2  0  0  0  0
  2 13  1  0  0  0  0
  3 10  2  0  0  0  0
  4 11  1  0  0  0  0
  5 15  2  0  0  0  0
  6  1  1  0  0  0  0
  6  9  1  0  0  0  0
  8 10  1  0  0  0  0
  9 14  2  0  0  0  0
  9  8  1  0  0  0  0
 10  7  1  0  0  0  0
 11 30  1  0  0  0  0
 11 13  2  0  0  0  0
 12 16  1  6  0  0  0
 12  5  1  0  0  0  0
 12  1  1  0  0  0  0
 14  3  1  0  0  0  0
 15  4  1  0  0  0  0
 17  4  1  0  0  0  0
 17  2  1  0  0  0  0
 18 12  1  0  0  0  0
 19 28  1  6  0  0  0
 19 18  1  0  0  0  0
 20 25  1  0  0  0  0
 21 25  2  0  0  0  0
 21 19  1  0  0  0  0
 22 20  2  0  0  0  0
 23 21  1  0  0  0  0
 24 22  1  0  0  0  0
 24 23  2  0  0  0  0
 26 28  1  0  0  0  0
 26 29  1  0  0  0  0
 27 26  2  0  0  0  0
 30 32  1  0  0  0  0
 31 35  1  0  0  0  0
 32 34  1  0  0  0  0
 32 31  2  0  0  0  0
 33 35  1  0  0  0  0
 33 36  1  0  0  0  0
 34 33  2  0  0  0  0
 36 37  1  0  0  0  0
M  END
>  <MODEL>
2

>  <REMARK>
 VINA RESULT:      -8.4      3.580      7.032
  Name = 
  7 active torsions:
  status: ('A' for Active; 'I' for Inactive)
    1  A    between atoms: C_5  and  C_6
    2  A    between atoms: C_6  and  O_19
    3  A    between atoms: C_6  and  N_36
    4  A    between atoms: C_8  and  C_13
    5  A    between atoms: C_11  and  C_22
    6  A    between atoms: O_19  and  C_28
    7  A    between atoms: C_22  and  C_27
                            x       y       z     vdW  Elec       q    Type
                         _______ _______ _______ _____ _____    ______ ____

>  <TORSDO>
F 7

$$$$
=
 OpenBabel11042412123D

 37 42  0  0  1  0  0  0  0  0999 V2000
  188.8560  177.5480  140.3160 C   0  0  0  0  0  0  0  0  0  0  0  0
  189.0170  177.1870  137.8410 C   0  0  0  0  0  0  0  0  0  0  0  0
  192.3650  175.8880  137.3070 N   0  0  0  0  0  0  0  0  0  0  0  0
  187.1240  177.9660  138.7160 N   0  0  0  0  0  0  0  0  0  0  0  0
  186.5690  178.3840  141.0010 C   0  0  0  0  0  3  0  0  0  0  0  0
  190.4610  176.9790  140.5240 S   0  0  0  0  0  0  0  0  0  0  0  0
  190.8210  176.2260  135.4400 N   0  0  0  0  0  1  0  0  0  0  0  0
  190.3320  176.7080  137.8280 C   0  0  0  0  0  0  0  0  0  0  0  0
  191.1190  176.5550  139.0200 C   0  0  0  0  0  0  0  0  0  0  0  0
  191.1610  176.2790  136.8200 C   0  0  0  0  0  0  0  0  0  0  0  0
  186.9700  177.8450  137.3800 C   0  0  0  0  0  0  0  0  0  0  0  0
  188.0030  178.0700  141.4600 C   0  0  2  0  0  0  0  0  0  0  0  0
  188.1370  177.3680  136.7800 C   0  0  0  0  0  3  0  0  0  0  0  0
  192.3500  176.0540  138.6560 C   0  0  0  0  0  3  0  0  0  0  0  0
  186.1780  178.3510  139.7170 C   0  0  0  0  0  3  0  0  0  0  0  0
  188.6470  179.3710  141.9340 C   0  0  0  0  0  1  0  0  0  0  0  0
  188.3610  177.5690  139.0040 C   0  0  0  0  0  0  0  0  0  0  0  0
  188.0130  177.0890  142.4850 O   0  0  0  0  0  0  0  0  0  0  0  0
  188.6150  177.5960  143.6540 C   0  0  1  0  0  3  0  0  0  0  0  0
  186.9860  178.0150  147.0490 C   0  0  0  0  0  3  0  0  0  0  0  0
  187.5720  177.8140  144.7040 C   0  0  0  0  0  0  0  0  0  0  0  0
  185.6570  178.2710  146.6970 C   0  0  0  0  0  3  0  0  0  0  0  0
  186.2390  178.0810  144.3520 C   0  0  0  0  0  3  0  0  0  0  0  0
  185.2840  178.3050  145.3490 C   0  0  0  0  0  3  0  0  0  0  0  0
  187.9420  177.7880  146.0530 C   0  0  0  0  0  3  0  0  0  0  0  0
  190.9990  177.0510  144.3380 C   0  0  0  0  0  0  0  0  0  0  0  0
  191.8340  176.1890  144.8110 N   0  0  0  0  0  2  0  0  0  0  0  0
  189.6390  176.6660  144.1280 N   0  0  0  0  0  2  0  0  0  0  0  0
  191.4780  178.4190  143.9900 C   0  0  0  0  0  1  0  0  0  0  0  0
  185.7290  178.2220  136.6380 C   0  0  0  0  0  2  0  0  0  0  0  0
  184.3860  176.8070  135.1700 N   0  0  0  0  0  0  0  0  0  0  0  0
  184.9320  177.0050  136.3230 C   0  0  1  0  0  3  0  0  0  0  0  0
  184.0570  174.9870  136.5490 C   0  0  0  0  0  0  0  0  0  0  0  0
  184.7630  175.8810  137.2260 C   0  0  0  0  0  3  0  0  0  0  0  0
  183.7460  175.4990  135.1780 C   0  0  0  0  0  3  0  0  0  0  0  0
  183.6700  173.6530  137.1120 C   0  0  0  0  0  2  0  0  0  0  0  0
  184.8710  172.8800  137.6300 C   0  0  0  0  0  1  0  0  0  0  0  0
  1  6  1  0  0  0  0
  1 12  1  0  0  0  0
  2 17  1  0  0  0  0
  3 14  1  0  0  0  0
  4 17  1  0  0  0  0
  4 15  1  0  0  0  0
  5 12  1  0  0  0  0
  7 10  1  0  0  0  0
  8  2  2  0  0  0  0
  8  9  1  0  0  0  0
  9  6  1  0  0  0  0
 10  3  2  0  0  0  0
 10  8  1  0  0  0  0
 11  4  1  0  0  0  0
 12 16  1  1  0  0  0
 12 18  1  0  0  0  0
 13 11  2  0  0  0  0
 13  2  1  0  0  0  0
 14  9  2  0  0  0  0
 15  5  2  0  0  0  0
 17  1  2  0  0  0  0
 19 18  1  6  0  0  0
 19 28  1  0  0  0  0
 19 21  1  0  0  0  0
 21 25  1  0  0  0  0
 22 20  1  0  0  0  0
 23 21  2  0  0  0  0
 23 24  1  0  0  0  0
 24 22  2  0  0  0  0
 25 20  2  0  0  0  0
 26 27  2  0  0  0  0
 28 26  1  0  0  0  0
 29 26  1  0  0  0  0
 30 11  1  0  0  0  0
 31 35  2  0  0  0  0
 31 32  1  0  0  0  0
 32 30  1  6  0  0  0
 32 34  1  0  0  0  0
 33 36  1  0  0  0  0
 33 34  2  0  0  0  0
 35 33  1  0  0  0  0
 36 37  1  0  0  0  0
M  END
>  <MODEL>
3

>  <REMARK>
 VINA RESULT:      -8.4      3.968      8.752
  Name = 
  7 active torsions:
  status: ('A' for Active; 'I' for Inactive)
    1  A    between atoms: C_5  and  C_6
    2  A    between atoms: C_6  and  O_19
    3  A    between atoms: C_6  and  N_36
    4  A    between atoms: C_8  and  C_13
    5  A    between atoms: C_11  and  C_22
    6  A    between atoms: O_19  and  C_28
    7  A    between atoms: C_22  and  C_27
                            x       y       z     vdW  Elec       q    Type
                         _______ _______ _______ _____ _____    ______ ____

>  <TORSDO>
F 7

$$$$
=
 OpenBabel11042412123D

 37 42  0  0  1  0  0  0  0  0999 V2000
  187.8710  177.8030  140.6190 C   0  0  0  0  0  0  0  0  0  0  0  0
  187.0350  177.8500  138.2570 C   0  0  0  0  0  0  0  0  0  0  0  0
  189.7030  176.3590  136.2960 N   0  0  0  0  0  0  0  0  0  0  0  0
  185.7490  178.6420  139.8930 N   0  0  0  0  0  0  0  0  0  0  0  0
  186.1610  178.7180  142.2440 C   0  0  0  0  0  3  0  0  0  0  0  0
  189.3320  177.0630  140.1090 S   0  0  0  0  0  0  0  0  0  0  0  0
  187.6400  177.1460  135.2440 N   0  0  0  0  0  1  0  0  0  0  0  0
  188.1610  177.2620  137.6700 C   0  0  0  0  0  0  0  0  0  0  0  0
  189.3060  176.8390  138.4280 C   0  0  0  0  0  0  0  0  0  0  0  0
  188.4770  176.9350  136.3730 C   0  0  0  0  0  0  0  0  0  0  0  0
  185.0880  178.7610  138.7210 C   0  0  0  0  0  0  0  0  0  0  0  0
  187.5980  178.2020  142.0600 C   0  0  2  0  0  0  0  0  0  0  0  0
  185.8590  178.2870  137.6580 C   0  0  0  0  0  3  0  0  0  0  0  0
  190.2200  176.2970  137.5530 C   0  0  0  0  0  3  0  0  0  0  0  0
  185.3180  178.9380  141.2230 C   0  0  0  0  0  3  0  0  0  0  0  0
  188.5600  179.3400  142.3940 C   0  0  0  0  0  1  0  0  0  0  0  0
  186.9290  178.0900  139.6200 C   0  0  0  0  0  0  0  0  0  0  0  0
  187.8460  177.0650  142.8730 O   0  0  0  0  0  0  0  0  0  0  0  0
  188.8580  177.3380  143.8160 C   0  0  1  0  0  3  0  0  0  0  0  0
  188.5240  177.9090  147.5460 C   0  0  0  0  0  3  0  0  0  0  0  0
  188.2450  177.5600  145.1620 C   0  0  0  0  0  0  0  0  0  0  0  0
  187.1380  178.0300  147.6930 C   0  0  0  0  0  3  0  0  0  0  0  0
  186.8550  177.6910  145.3100 C   0  0  0  0  0  3  0  0  0  0  0  0
  186.3040  177.9210  146.5750 C   0  0  0  0  0  3  0  0  0  0  0  0
  189.0760  177.6760  146.2820 C   0  0  0  0  0  3  0  0  0  0  0  0
  191.2210  176.4120  143.7480 C   0  0  0  0  0  0  0  0  0  0  0  0
  192.0020  175.3900  143.8480 N   0  0  0  0  0  2  0  0  0  0  0  0
  189.8080  176.2280  143.8560 N   0  0  0  0  0  2  0  0  0  0  0  0
  191.8070  177.7580  143.4870 C   0  0  0  0  0  1  0  0  0  0  0  0
  183.7310  179.3690  138.5780 C   0  0  0  0  0  2  0  0  0  0  0  0
  182.6300  177.2160  138.9120 N   0  0  0  0  0  0  0  0  0  0  0  0
  182.7040  178.4760  139.1810 C   0  0  0  0  0  0  0  0  0  0  0  0
  181.0730  177.7990  140.5110 C   0  0  0  0  0  0  0  0  0  0  0  0
  181.7500  178.8920  140.1930 C   0  0  0  0  0  3  0  0  0  0  0  0
  181.5680  176.6310  139.7180 C   0  0  0  0  0  2  0  0  0  0  0  0
  179.9890  177.7800  141.5450 C   0  0  0  0  0  2  0  0  0  0  0  0
  180.3960  178.5090  142.8150 C   0  0  0  0  0  1  0  0  0  0  0  0
  1 12  1  0  0  0  0
  2 17  1  0  0  0  0
  3 10  2  0  0  0  0
  3 14  1  0  0  0  0
  4 15  1  0  0  0  0
  6  1  1  0  0  0  0
  7 10  1  0  0  0  0
  8  2  2  0  0  0  0
  8  9  1  0  0  0  0
  9  6  1  0  0  0  0
 10  8  1  0  0  0  0
 11  4  1  0  0  0  0
 12  5  1  0  0  0  0
 12 16  1  1  0  0  0
 12 18  1  0  0  0  0
 13  2  1  0  0  0  0
 13 11  2  0  0  0  0
 14  9  2  0  0  0  0
 15  5  2  0  0  0  0
 17  4  1  0  0  0  0
 17  1  2  0  0  0  0
 19 18  1  6  0  0  0
 19 28  1  0  0  0  0
 19 21  1  0  0  0  0
 20 22  1  0  0  0  0
 21 23  2  0  0  0  0
 21 25  1  0  0  0  0
 23 24  1  0  0  0  0
 24 22  2  0  0  0  0
 25 20  2  0  0  0  0
 26 27  2  0  0  0  0
 26 28  1  0  0  0  0
 29 26  1  0  0  0  0
 30 11  1  0  0  0  0
 30 32  1  0  0  0  0
 31 32  2  0  0  0  0
 31 35  1  0  0  0  0
 32 34  1  0  0  0  0
 33 36  1  0  0  0  0
 34 33  2  0  0  0  0
 35 33  1  0  0  0  0
 36 37  1  0  0  0  0
M  END
>  <MODEL>
4

>  <REMARK>
 VINA RESULT:      -8.3      2.662      8.345
  Name = 
  7 active torsions:
  status: ('A' for Active; 'I' for Inactive)
    1  A    between atoms: C_5  and  C_6
    2  A    between atoms: C_6  and  O_19
    3  A    between atoms: C_6  and  N_36
    4  A    between atoms: C_8  and  C_13
    5  A    between atoms: C_11  and  C_22
    6  A    between atoms: O_19  and  C_28
    7  A    between atoms: C_22  and  C_27
                            x       y       z     vdW  Elec       q    Type
                         _______ _______ _______ _____ _____    ______ ____

>  <TORSDO>
F 7

$$$$
=
 OpenBabel11042412123D

 37 42  0  0  1  0  0  0  0  0999 V2000
  184.2480  178.2500  139.0880 C   0  0  0  0  0  0  0  0  0  0  0  0
  185.8500  178.5160  140.9960 C   0  0  0  0  0  0  0  0  0  0  0  0
  189.1430  178.3000  139.4820 N   0  0  0  0  0  0  0  0  0  0  0  0
  183.6590  178.5950  141.3830 N   0  0  0  0  0  0  0  0  0  0  0  0
  181.8410  178.4430  139.8430 C   0  0  0  0  0  3  0  0  0  0  0  0
  185.5530  178.0960  137.9850 S   0  0  0  0  0  0  0  0  0  0  0  0
  188.8720  178.6400  141.8890 N   0  0  0  0  0  1  0  0  0  0  0  0
  187.0250  178.4020  140.2440 C   0  0  0  0  0  0  0  0  0  0  0  0
  187.0250  178.2100  138.8200 C   0  0  0  0  0  0  0  0  0  0  0  0
  188.3570  178.4480  140.5770 C   0  0  0  0  0  0  0  0  0  0  0  0
  184.3160  178.7720  142.5500 C   0  0  0  0  0  0  0  0  0  0  0  0
  182.7900  178.1290  138.6750 C   0  0  2  0  0  0  0  0  0  0  0  0
  185.6980  178.7200  142.3630 C   0  0  0  0  0  3  0  0  0  0  0  0
  188.3350  178.1520  138.3980 C   0  0  0  0  0  3  0  0  0  0  0  0
  182.2580  178.6380  141.1030 C   0  0  0  0  0  3  0  0  0  0  0  0
  182.5680  176.6760  138.2570 C   0  0  0  0  0  1  0  0  0  0  0  0
  184.5820  178.4390  140.4370 C   0  0  0  0  0  0  0  0  0  0  0  0
  182.5790  179.0140  137.5860 O   0  0  0  0  0  0  0  0  0  0  0  0
  181.2130  179.3460  137.4710 C   0  0  1  0  0  3  0  0  0  0  0  0
  181.3560  183.1040  137.9240 C   0  0  0  0  0  3  0  0  0  0  0  0
  181.0720  180.8090  137.1940 C   0  0  0  0  0  0  0  0  0  0  0  0
  180.8730  183.5580  136.6920 C   0  0  0  0  0  3  0  0  0  0  0  0
  180.5970  181.2660  135.9550 C   0  0  0  0  0  3  0  0  0  0  0  0
  180.4940  182.6390  135.7070 C   0  0  0  0  0  3  0  0  0  0  0  0
  181.4560  181.7320  138.1730 C   0  0  0  0  0  3  0  0  0  0  0  0
  179.4820  177.6930  136.6240 C   0  0  0  0  0  0  0  0  0  0  0  0
  178.9580  177.0690  135.6240 N   0  0  0  0  0  2  0  0  0  0  0  0
  180.6000  178.5560  136.4060 N   0  0  0  0  0  2  0  0  0  0  0  0
  178.9310  177.4740  137.9930 C   0  0  0  0  0  1  0  0  0  0  0  0
  183.6470  178.9490  143.8740 C   0  0  0  0  0  2  0  0  0  0  0  0
  184.3570  179.0040  146.2090 N   0  0  0  0  0  0  0  0  0  0  0  0
  184.6240  178.7340  144.9750 C   0  0  0  0  0  0  0  0  0  0  0  0
  186.4470  178.0460  146.0210 C   0  0  0  0  0  0  0  0  0  0  0  0
  185.9270  178.1170  144.8040 C   0  0  0  0  0  3  0  0  0  0  0  0
  185.4960  178.6130  147.0270 C   0  0  0  0  0  2  0  0  0  0  0  0
  187.7940  177.4510  146.3010 C   0  0  0  0  0  2  0  0  0  0  0  0
  188.5870  177.2030  145.0290 C   0  0  0  0  0  1  0  0  0  0  0  0
  1 17  2  0  0  0  0
  2 13  1  0  0  0  0
  3 10  2  0  0  0  0
  4 11  1  0  0  0  0
  5 15  2  0  0  0  0
  6  9  1  0  0  0  0
  6  1  1  0  0  0  0
  8 10  1  0  0  0  0
  8  2  2  0  0  0  0
  9  8  1  0  0  0  0
 10  7  1  0  0  0  0
 11 30  1  0  0  0  0
 12 16  1  6  0  0  0
 12  1  1  0  0  0  0
 12  5  1  0  0  0  0
 13 11  2  0  0  0  0
 14  9  2  0  0  0  0
 14  3  1  0  0  0  0
 15  4  1  0  0  0  0
 17  2  1  0  0  0  0
 17  4  1  0  0  0  0
 18 12  1  0  0  0  0
 19 28  1  6  0  0  0
 19 18  1  0  0  0  0
 20 25  1  0  0  0  0
 21 19  1  0  0  0  0
 21 25  2  0  0  0  0
 22 20  2  0  0  0  0
 23 21  1  0  0  0  0
 24 23  2  0  0  0  0
 24 22  1  0  0  0  0
 26 29  1  0  0  0  0
 27 26  2  0  0  0  0
 28 26  1  0  0  0  0
 30 32  1  0  0  0  0
 31 35  1  0  0  0  0
 32 31  2  0  0  0  0
 33 36  1  0  0  0  0
 33 35  1  0  0  0  0
 34 32  1  0  0  0  0
 34 33  2  0  0  0  0
 37 36  1  0  0  0  0
M  END
>  <MODEL>
5

>  <REMARK>
 VINA RESULT:      -8.3      1.731      2.484
  Name = 
  7 active torsions:
  status: ('A' for Active; 'I' for Inactive)
    1  A    between atoms: C_5  and  C_6
    2  A    between atoms: C_6  and  O_19
    3  A    between atoms: C_6  and  N_36
    4  A    between atoms: C_8  and  C_13
    5  A    between atoms: C_11  and  C_22
    6  A    between atoms: O_19  and  C_28
    7  A    between atoms: C_22  and  C_27
                            x       y       z     vdW  Elec       q    Type
                         _______ _______ _______ _____ _____    ______ ____

>  <TORSDO>
F 7

$$$$
=
 OpenBabel11042412123D

 37 42  0  0  1  0  0  0  0  0999 V2000
  187.5480  178.1630  138.5820 C   0  0  0  0  0  0  0  0  0  0  0  0
  186.7030  178.3460  140.9350 C   0  0  0  0  0  0  0  0  0  0  0  0
  183.1660  179.0970  140.5950 N   0  0  0  0  0  0  0  0  0  0  0  0
  188.8470  177.8670  140.5730 N   0  0  0  0  0  0  0  0  0  0  0  0
  190.0030  177.5550  138.5070 C   0  0  0  0  0  3  0  0  0  0  0  0
  185.9790  178.4920  137.9710 S   0  0  0  0  0  0  0  0  0  0  0  0
  184.2130  178.8750  142.7950 N   0  0  0  0  0  1  0  0  0  0  0  0
  185.3720  178.6350  140.6110 C   0  0  0  0  0  0  0  0  0  0  0  0
  184.9000  178.7250  139.2570 C   0  0  0  0  0  0  0  0  0  0  0  0
  184.2540  178.8730  141.3740 C   0  0  0  0  0  0  0  0  0  0  0  0
  188.6250  177.9020  141.9050 C   0  0  0  0  0  0  0  0  0  0  0  0
  188.7650  177.9680  137.6930 C   0  0  2  0  0  0  0  0  0  0  0  0
  187.2930  178.2100  142.1860 C   0  0  0  0  0  3  0  0  0  0  0  0
  183.5520  179.0090  139.2940 C   0  0  0  0  0  3  0  0  0  0  0  0
  190.0330  177.5320  139.8480 C   0  0  0  0  0  3  0  0  0  0  0  0
  189.0540  179.3170  137.0370 C   0  0  0  0  0  1  0  0  0  0  0  0
  187.6870  178.1350  139.9780 C   0  0  0  0  0  0  0  0  0  0  0  0
  188.4340  176.9860  136.7230 O   0  0  0  0  0  0  0  0  0  0  0  0
  189.1590  175.7980  136.9500 C   0  0  1  0  0  3  0  0  0  0  0  0
  185.9510  173.8020  137.2160 C   0  0  0  0  0  3  0  0  0  0  0  0
  188.2180  174.6370  137.0080 C   0  0  0  0  0  0  0  0  0  0  0  0
  186.4170  172.4910  137.0660 C   0  0  0  0  0  3  0  0  0  0  0  0
  188.6830  173.3220  136.8470 C   0  0  0  0  0  3  0  0  0  0  0  0
  187.7830  172.2520  136.8800 C   0  0  0  0  0  3  0  0  0  0  0  0
  186.8500  174.8720  137.1850 C   0  0  0  0  0  3  0  0  0  0  0  0
  191.4690  175.1280  136.1370 C   0  0  0  0  0  0  0  0  0  0  0  0
  192.2690  174.9350  135.1420 N   0  0  0  0  0  2  0  0  0  0  0  0
  190.1470  175.6110  135.8900 N   0  0  0  0  0  2  0  0  0  0  0  0
  191.9520  174.8730  137.5240 C   0  0  0  0  0  1  0  0  0  0  0  0
  189.6820  177.6880  142.9390 C   0  0  0  0  0  2  0  0  0  0  0  0
  187.8440  177.3420  144.5080 N   0  0  0  0  0  0  0  0  0  0  0  0
  189.0730  177.6740  144.2980 C   0  0  0  0  0  0  0  0  0  0  0  0
  188.9290  177.7500  146.5030 C   0  0  0  0  0  0  0  0  0  0  0  0
  189.8050  177.9290  145.5250 C   0  0  0  0  0  3  0  0  0  0  0  0
  187.5960  177.3660  145.9430 C   0  0  0  0  0  2  0  0  0  0  0  0
  189.2790  177.8980  147.9520 C   0  0  0  0  0  2  0  0  0  0  0  0
  188.0490  177.8770  148.8440 C   0  0  0  0  0  1  0  0  0  0  0  0
  1 17  2  0  0  0  0
  2 13  1  0  0  0  0
  3 10  2  0  0  0  0
  4 11  1  0  0  0  0
  5 15  2  0  0  0  0
  6  1  1  0  0  0  0
  6  9  1  0  0  0  0
  8  2  2  0  0  0  0
  8 10  1  0  0  0  0
  9 14  2  0  0  0  0
  9  8  1  0  0  0  0
 10  7  1  0  0  0  0
 11 13  2  0  0  0  0
 11 30  1  0  0  0  0
 12 16  1  6  0  0  0
 12  5  1  0  0  0  0
 12  1  1  0  0  0  0
 14  3  1  0  0  0  0
 15  4  1  0  0  0  0
 17  4  1  0  0  0  0
 17  2  1  0  0  0  0
 18 19  1  0  0  0  0
 18 12  1  0  0  0  0
 19 28  1  6  0  0  0
 19 21  1  0  0  0  0
 21 25  2  0  0  0  0
 22 20  2  0  0  0  0
 23 24  2  0  0  0  0
 23 21  1  0  0  0  0
 24 22  1  0  0  0  0
 25 20  1  0  0  0  0
 26 29  1  0  0  0  0
 27 26  2  0  0  0  0
 28 26  1  0  0  0  0
 30 32  1  0  0  0  0
 31 35  1  0  0  0  0
 32 31  2  0  0  0  0
 32 34  1  0  0  0  0
 33 36  1  0  0  0  0
 34 33  2  0  0  0  0
 35 33  1  0  0  0  0
 36 37  1  0  0  0  0
M  END
>  <MODEL>
6

>  <REMARK>
 VINA RESULT:      -8.3      3.325      7.076
  Name = 
  7 active torsions:
  status: ('A' for Active; 'I' for Inactive)
    1  A    between atoms: C_5  and  C_6
    2  A    between atoms: C_6  and  O_19
    3  A    between atoms: C_6  and  N_36
    4  A    between atoms: C_8  and  C_13
    5  A    between atoms: C_11  and  C_22
    6  A    between atoms: O_19  and  C_28
    7  A    between atoms: C_22  and  C_27
                            x       y       z     vdW  Elec       q    Type
                         _______ _______ _______ _____ _____    ______ ____

>  <TORSDO>
F 7

$$$$
=
 OpenBabel11042412123D

 37 42  0  0  1  0  0  0  0  0999 V2000
  187.8950  177.8610  140.6200 C   0  0  0  0  0  0  0  0  0  0  0  0
  187.1300  177.8760  138.2330 C   0  0  0  0  0  0  0  0  0  0  0  0
  189.9070  176.4750  136.3590 N   0  0  0  0  0  0  0  0  0  0  0  0
  185.7680  178.6250  139.8270 N   0  0  0  0  0  0  0  0  0  0  0  0
  186.1060  178.7190  142.1890 C   0  0  0  0  0  3  0  0  0  0  0  0
  189.3960  177.1710  140.1570 S   0  0  0  0  0  0  0  0  0  0  0  0
  187.8520  177.1890  135.2420 N   0  0  0  0  0  1  0  0  0  0  0  0
  188.2940  177.3260  137.6830 C   0  0  0  0  0  0  0  0  0  0  0  0
  189.4280  176.9440  138.4770 C   0  0  0  0  0  0  0  0  0  0  0  0
  188.6610  177.0080  136.3970 C   0  0  0  0  0  0  0  0  0  0  0  0
  185.1410  178.7200  138.6350 C   0  0  0  0  0  0  0  0  0  0  0  0
  187.5640  178.2520  142.0500 C   0  0  2  0  0  0  0  0  0  0  0  0
  185.9590  178.2710  137.5970 C   0  0  0  0  0  3  0  0  0  0  0  0
  190.3870  176.4320  137.6310 C   0  0  0  0  0  3  0  0  0  0  0  0
  185.2860  178.9080  141.1430 C   0  0  0  0  0  3  0  0  0  0  0  0
  188.4760  179.4230  142.4110 C   0  0  0  0  0  1  0  0  0  0  0  0
  186.9750  178.1140  139.5920 C   0  0  0  0  0  0  0  0  0  0  0  0
  187.8250  177.1250  142.8740 O   0  0  0  0  0  0  0  0  0  0  0  0
  188.8340  177.4190  143.8140 C   0  0  1  0  0  3  0  0  0  0  0  0
  188.5120  177.8730  147.5610 C   0  0  0  0  0  3  0  0  0  0  0  0
  188.2250  177.5900  145.1690 C   0  0  0  0  0  0  0  0  0  0  0  0
  187.1240  177.9650  147.7180 C   0  0  0  0  0  3  0  0  0  0  0  0
  186.8340  177.6930  145.3270 C   0  0  0  0  0  3  0  0  0  0  0  0
  186.2860  177.8760  146.6010 C   0  0  0  0  0  3  0  0  0  0  0  0
  189.0600  177.6870  146.2880 C   0  0  0  0  0  3  0  0  0  0  0  0
  191.2340  176.5910  143.7660 C   0  0  0  0  0  0  0  0  0  0  0  0
  192.0530  175.5960  143.8360 N   0  0  0  0  0  2  0  0  0  0  0  0
  189.8280  176.3460  143.8250 N   0  0  0  0  0  2  0  0  0  0  0  0
  191.7720  177.9700  143.5920 C   0  0  0  0  0  1  0  0  0  0  0  0
  183.7680  179.2810  138.4490 C   0  0  0  0  0  2  0  0  0  0  0  0
  182.3530  177.7520  137.1770 N   0  0  0  0  0  0  0  0  0  0  0  0
  182.7770  178.1780  138.3190 C   0  0  1  0  0  3  0  0  0  0  0  0
  181.4740  176.4870  138.8950 C   0  0  0  0  0  0  0  0  0  0  0  0
  182.2610  177.4060  139.4350 C   0  0  0  0  0  3  0  0  0  0  0  0
  181.4550  176.6290  137.4050 C   0  0  0  0  0  3  0  0  0  0  0  0
  180.7450  175.4570  139.7030 C   0  0  0  0  0  2  0  0  0  0  0  0
  179.6810  176.0750  140.5930 C   0  0  0  0  0  1  0  0  0  0  0  0
  1 12  1  0  0  0  0
  2 17  1  0  0  0  0
  3 10  2  0  0  0  0
  3 14  1  0  0  0  0
  4 15  1  0  0  0  0
  6  1  1  0  0  0  0
  7 10  1  0  0  0  0
  8  2  2  0  0  0  0
  8  9  1  0  0  0  0
  9  6  1  0  0  0  0
 10  8  1  0  0  0  0
 11  4  1  0  0  0  0
 12  5  1  0  0  0  0
 12 16  1  1  0  0  0
 12 18  1  0  0  0  0
 13  2  1  0  0  0  0
 13 11  2  0  0  0  0
 14  9  2  0  0  0  0
 15  5  2  0  0  0  0
 17  4  1  0  0  0  0
 17  1  2  0  0  0  0
 19 18  1  6  0  0  0
 19 28  1  0  0  0  0
 19 21  1  0  0  0  0
 20 22  1  0  0  0  0
 21 23  2  0  0  0  0
 21 25  1  0  0  0  0
 23 24  1  0  0  0  0
 24 22  2  0  0  0  0
 25 20  2  0  0  0  0
 26 28  1  0  0  0  0
 26 27  2  0  0  0  0
 29 26  1  0  0  0  0
 30 11  1  0  0  0  0
 31 35  2  0  0  0  0
 31 32  1  0  0  0  0
 32 30  1  6  0  0  0
 32 34  1  0  0  0  0
 33 34  2  0  0  0  0
 33 36  1  0  0  0  0
 35 33  1  0  0  0  0
 36 37  1  0  0  0  0
M  END
>  <MODEL>
7

>  <REMARK>
 VINA RESULT:      -8.2      2.851      8.596
  Name = 
  7 active torsions:
  status: ('A' for Active; 'I' for Inactive)
    1  A    between atoms: C_5  and  C_6
    2  A    between atoms: C_6  and  O_19
    3  A    between atoms: C_6  and  N_36
    4  A    between atoms: C_8  and  C_13
    5  A    between atoms: C_11  and  C_22
    6  A    between atoms: O_19  and  C_28
    7  A    between atoms: C_22  and  C_27
                            x       y       z     vdW  Elec       q    Type
                         _______ _______ _______ _____ _____    ______ ____

>  <TORSDO>
F 7

$$$$
=
 OpenBabel11042412123D

 37 42  0  0  1  0  0  0  0  0999 V2000
  184.4940  178.6080  140.9220 C   0  0  0  0  0  0  0  0  0  0  0  0
  186.0590  178.4960  142.8770 C   0  0  0  0  0  0  0  0  0  0  0  0
  183.9380  178.9280  145.7920 N   0  0  0  0  0  0  0  0  0  0  0  0
  186.8600  178.2610  140.8130 N   0  0  0  0  0  0  0  0  0  0  0  0
  185.6980  178.2510  138.7270 C   0  0  0  0  0  3  0  0  0  0  0  0
  183.1600  178.8380  141.9770 S   0  0  0  0  0  0  0  0  0  0  0  0
  186.3540  178.6120  146.0140 N   0  0  0  0  0  1  0  0  0  0  0  0
  185.0940  178.6830  143.8730 C   0  0  0  0  0  0  0  0  0  0  0  0
  183.6960  178.8490  143.5850 C   0  0  0  0  0  0  0  0  0  0  0  0
  185.1650  178.7420  145.2440 C   0  0  0  0  0  0  0  0  0  0  0  0
  187.8800  178.1540  141.6930 C   0  0  0  0  0  0  0  0  0  0  0  0
  184.3680  178.6140  139.4080 C   0  0  2  0  0  0  0  0  0  0  0  0
  187.4300  178.3050  143.0050 C   0  0  0  0  0  3  0  0  0  0  0  0
  183.0300  178.9960  144.7820 C   0  0  0  0  0  3  0  0  0  0  0  0
  186.8560  178.1100  139.3910 C   0  0  0  0  0  3  0  0  0  0  0  0
  183.9960  180.0380  139.0000 C   0  0  0  0  0  1  0  0  0  0  0  0
  185.7540  178.4680  141.5220 C   0  0  0  0  0  0  0  0  0  0  0  0
  183.3430  177.6950  139.0600 O   0  0  0  0  0  0  0  0  0  0  0  0
  182.5210  178.2280  138.0460 C   0  0  1  0  0  3  0  0  0  0  0  0
  181.6530  175.1120  136.0760 C   0  0  0  0  0  3  0  0  0  0  0  0
  182.4190  177.2540  136.9160 C   0  0  0  0  0  0  0  0  0  0  0  0
  182.1610  175.4250  134.8100 C   0  0  0  0  0  3  0  0  0  0  0  0
  182.9190  177.5700  135.6440 C   0  0  0  0  0  3  0  0  0  0  0  0
  182.7930  176.6540  134.5940 C   0  0  0  0  0  3  0  0  0  0  0  0
  181.7810  176.0260  137.1260 C   0  0  0  0  0  3  0  0  0  0  0  0
  180.3740  179.5830  138.0880 C   0  0  0  0  0  0  0  0  0  0  0  0
  179.1940  179.7540  138.5810 N   0  0  0  0  0  2  0  0  0  0  0  0
  181.1980  178.5290  138.5900 N   0  0  0  0  0  2  0  0  0  0  0  0
  180.8640  180.5090  137.0270 C   0  0  0  0  0  1  0  0  0  0  0  0
  189.3080  177.9510  141.3050 C   0  0  0  0  0  2  0  0  0  0  0  0
  190.6150  178.8390  143.1670 N   0  0  0  0  0  0  0  0  0  0  0  0
  190.1560  177.8200  142.5220 C   0  0  0  0  0  0  0  0  0  0  0  0
  191.1780  176.8770  144.2410 C   0  0  0  0  0  0  0  0  0  0  0  0
  190.4740  176.5580  143.1650 C   0  0  0  0  0  3  0  0  0  0  0  0
  191.3380  178.3610  144.3360 C   0  0  0  0  0  2  0  0  0  0  0  0
  191.6980  175.8590  145.2090 C   0  0  0  0  0  2  0  0  0  0  0  0
  191.6850  176.3700  146.6400 C   0  0  0  0  0  1  0  0  0  0  0  0
  1 17  2  0  0  0  0
  1  6  1  0  0  0  0
  2 13  1  0  0  0  0
  2  8  2  0  0  0  0
  4 17  1  0  0  0  0
  4 11  1  0  0  0  0
  5 15  2  0  0  0  0
  5 12  1  0  0  0  0
  6  9  1  0  0  0  0
  8 10  1  0  0  0  0
  9  8  1  0  0  0  0
  9 14  2  0  0  0  0
 10  3  2  0  0  0  0
 10  7  1  0  0  0  0
 11 13  2  0  0  0  0
 12 16  1  6  0  0  0
 12  1  1  0  0  0  0
 14  3  1  0  0  0  0
 15  4  1  0  0  0  0
 17  2  1  0  0  0  0
 18 12  1  0  0  0  0
 19 28  1  1  0  0  0
 19 18  1  0  0  0  0
 20 25  1  0  0  0  0
 21 25  2  0  0  0  0
 21 19  1  0  0  0  0
 22 20  2  0  0  0  0
 23 21  1  0  0  0  0
 24 22  1  0  0  0  0
 24 23  2  0  0  0  0
 26 27  2  0  0  0  0
 26 28  1  0  0  0  0
 29 26  1  0  0  0  0
 30 11  1  0  0  0  0
 30 32  1  0  0  0  0
 31 35  1  0  0  0  0
 32 34  1  0  0  0  0
 32 31  2  0  0  0  0
 33 35  1  0  0  0  0
 33 36  1  0  0  0  0
 34 33  2  0  0  0  0
 36 37  1  0  0  0  0
M  END
>  <MODEL>
8

>  <REMARK>
 VINA RESULT:      -7.9      2.129      4.793
  Name = 
  7 active torsions:
  status: ('A' for Active; 'I' for Inactive)
    1  A    between atoms: C_5  and  C_6
    2  A    between atoms: C_6  and  O_19
    3  A    between atoms: C_6  and  N_36
    4  A    between atoms: C_8  and  C_13
    5  A    between atoms: C_11  and  C_22
    6  A    between atoms: O_19  and  C_28
    7  A    between atoms: C_22  and  C_27
                            x       y       z     vdW  Elec       q    Type
                         _______ _______ _______ _____ _____    ______ ____

>  <TORSDO>
F 7

$$$$
=
 OpenBabel11042412123D

 37 42  0  0  1  0  0  0  0  0999 V2000
  187.6920  178.0600  138.8530 C   0  0  0  0  0  0  0  0  0  0  0  0
  187.3570  177.9800  141.3360 C   0  0  0  0  0  0  0  0  0  0  0  0
  183.9400  179.0970  141.8480 N   0  0  0  0  0  0  0  0  0  0  0  0
  189.3140  177.3620  140.4710 N   0  0  0  0  0  0  0  0  0  0  0  0
  189.9920  177.2450  138.1850 C   0  0  0  0  0  3  0  0  0  0  0  0
  186.0850  178.6180  138.6330 S   0  0  0  0  0  0  0  0  0  0  0  0
  185.3670  178.4650  143.7320 N   0  0  0  0  0  1  0  0  0  0  0  0
  186.0330  178.4350  141.3390 C   0  0  0  0  0  0  0  0  0  0  0  0
  185.3170  178.7620  140.1380 C   0  0  0  0  0  0  0  0  0  0  0  0
  185.1260  178.6640  142.3450 C   0  0  0  0  0  0  0  0  0  0  0  0
  189.3660  177.2250  141.8140 C   0  0  0  0  0  0  0  0  0  0  0  0
  188.6770  177.8830  137.7090 C   0  0  2  0  0  0  0  0  0  0  0  0
  188.1630  177.6120  142.4070 C   0  0  0  0  0  3  0  0  0  0  0  0
  184.0480  179.1610  140.4940 C   0  0  0  0  0  3  0  0  0  0  0  0
  190.2840  177.0270  139.4770 C   0  0  0  0  0  3  0  0  0  0  0  0
  188.9900  179.2800  137.1750 C   0  0  0  0  0  1  0  0  0  0  0  0
  188.1000  177.8190  140.1740 C   0  0  0  0  0  0  0  0  0  0  0  0
  188.0450  177.0850  136.7190 O   0  0  0  0  0  0  0  0  0  0  0  0
  188.4270  175.7350  136.8500 C   0  0  1  0  0  3  0  0  0  0  0  0
  186.2400  172.7140  137.5150 C   0  0  0  0  0  3  0  0  0  0  0  0
  187.2110  174.8820  137.0230 C   0  0  0  0  0  0  0  0  0  0  0  0
  184.9570  173.2630  137.4090 C   0  0  0  0  0  3  0  0  0  0  0  0
  185.9230  175.4330  136.9280 C   0  0  0  0  0  3  0  0  0  0  0  0
  184.7990  174.6220  137.1160 C   0  0  0  0  0  3  0  0  0  0  0  0
  187.3640  173.5240  137.3240 C   0  0  0  0  0  3  0  0  0  0  0  0
  190.3430  174.4840  135.7490 C   0  0  0  0  0  0  0  0  0  0  0  0
  190.9290  174.1120  134.6610 N   0  0  0  0  0  2  0  0  0  0  0  0
  189.1870  175.3200  135.6720 N   0  0  0  0  0  2  0  0  0  0  0  0
  190.9040  174.0590  137.0640 C   0  0  0  0  0  1  0  0  0  0  0  0
  190.5720  176.7680  142.5670 C   0  0  0  0  0  2  0  0  0  0  0  0
  189.2150  177.2580  144.5370 N   0  0  0  0  0  0  0  0  0  0  0  0
  190.3590  176.9410  144.0300 C   0  0  0  0  0  0  0  0  0  0  0  0
  190.7650  176.8800  146.2030 C   0  0  0  0  0  0  0  0  0  0  0  0
  191.3680  176.6800  145.0410 C   0  0  0  0  0  3  0  0  0  0  0  0
  189.3380  177.2740  145.9870 C   0  0  0  0  0  2  0  0  0  0  0  0
  191.4510  176.7000  147.5230 C   0  0  0  0  0  2  0  0  0  0  0  0
  192.4740  175.5770  147.4880 C   0  0  0  0  0  1  0  0  0  0  0  0
  1 17  2  0  0  0  0
  2  8  2  0  0  0  0
  2 13  1  0  0  0  0
  3 10  2  0  0  0  0
  4 11  1  0  0  0  0
  5 15  2  0  0  0  0
  6  1  1  0  0  0  0
  6  9  1  0  0  0  0
  8 10  1  0  0  0  0
  9 14  2  0  0  0  0
  9  8  1  0  0  0  0
 10  7  1  0  0  0  0
 11 13  2  0  0  0  0
 11 30  1  0  0  0  0
 12 16  1  6  0  0  0
 12  5  1  0  0  0  0
 12  1  1  0  0  0  0
 14  3  1  0  0  0  0
 15  4  1  0  0  0  0
 17  4  1  0  0  0  0
 17  2  1  0  0  0  0
 18 19  1  0  0  0  0
 18 12  1  0  0  0  0
 19 28  1  6  0  0  0
 19 21  1  0  0  0  0
 21 25  1  0  0  0  0
 22 20  1  0  0  0  0
 23 21  2  0  0  0  0
 23 24  1  0  0  0  0
 24 22  2  0  0  0  0
 25 20  2  0  0  0  0
 26 29  1  0  0  0  0
 27 26  2  0  0  0  0
 28 26  1  0  0  0  0
 30 32  1  0  0  0  0
 31 35  1  0  0  0  0
 32 31  2  0  0  0  0
 32 34  1  0  0  0  0
 33 36  1  0  0  0  0
 34 33  2  0  0  0  0
 35 33  1  0  0  0  0
 37 36  1  0  0  0  0
M  END
>  <MODEL>
9

>  <REMARK>
 VINA RESULT:      -7.9      3.264      6.651
  Name = 
  7 active torsions:
  status: ('A' for Active; 'I' for Inactive)
    1  A    between atoms: C_5  and  C_6
    2  A    between atoms: C_6  and  O_19
    3  A    between atoms: C_6  and  N_36
    4  A    between atoms: C_8  and  C_13
    5  A    between atoms: C_11  and  C_22
    6  A    between atoms: O_19  and  C_28
    7  A    between atoms: C_22  and  C_27
                            x       y       z     vdW  Elec       q    Type
                         _______ _______ _______ _____ _____    ______ ____

>  <TORSDO>
F 7

$$$$
