=
 OpenBabel11042413253D

 50 55  0  0  1  0  0  0  0  0999 V2000
  186.3150  177.7700  137.9130 C   0  0  0  0  0  2  0  0  0  0  0  0
  188.4390  177.3130  138.8740 C   0  0  0  0  0  3  0  0  0  0  0  0
  187.6990  178.0840  138.1630 N   0  0  0  0  0  0  0  0  0  0  0  0
  189.8800  177.6480  139.1030 C   0  0  2  0  0  3  0  0  0  0  0  0
  190.7780  176.5950  138.5290 C   0  0  0  0  0  0  0  0  0  0  0  0
  193.0160  175.7340  138.1910 C   0  0  0  0  0  3  0  0  0  0  0  0
  193.3460  173.7090  136.9220 O   0  0  0  0  0  1  0  0  0  0  0  0
  192.4960  174.6650  137.4540 C   0  0  0  0  0  0  0  0  0  0  0  0
  192.1590  176.6970  138.7260 C   0  0  0  0  0  3  0  0  0  0  0  0
  191.1160  174.5590  137.2510 C   0  0  0  0  0  3  0  0  0  0  0  0
  190.2590  175.5220  137.7880 C   0  0  0  0  0  3  0  0  0  0  0  0
  190.1330  177.8000  140.5270 N   0  0  0  0  0  2  0  0  0  0  0  0
  189.3930  176.3390  142.3180 C   0  0  0  0  0  2  0  0  0  0  0  0
  188.2650  178.4370  141.9590 C   0  0  0  0  0  2  0  0  0  0  0  0
  188.4920  176.5970  143.5140 C   0  0  2  0  0  3  0  0  0  0  0  0
  188.9630  177.3060  141.2380 C   0  0  1  0  0  3  0  0  0  0  0  0
  187.6340  177.8060  143.1800 C   0  0  0  0  0  2  0  0  0  0  0  0
  189.7300  178.2180  147.8300 C   0  0  0  0  0  1  0  0  0  0  0  0
  190.7450  176.8270  144.7540 C   0  0  0  0  0  2  0  0  0  0  0  0
  187.5480  176.8090  146.2730 O   0  0  0  0  0  0  0  0  0  0  0  0
  189.8270  176.9190  147.0550 C   0  0  1  0  0  3  0  0  0  0  0  0
  188.7780  176.8670  146.0200 C   0  0  0  0  0  0  0  0  0  0  0  0
  191.1270  176.9080  146.2420 C   0  0  1  0  0  3  0  0  0  0  0  0
  189.2960  176.8520  144.7070 N   0  0  0  0  0  0  0  0  0  0  0  0
  192.4090  175.9750  147.9550 C   0  0  0  0  0  1  0  0  0  0  0  0
  191.9140  175.7420  146.6110 N   0  0  0  0  0  2  0  0  0  0  0  0
  186.1520  177.1800  136.5880 N   0  0  0  0  0  2  0  0  0  0  0  0
  185.6010  175.8490  136.7550 C   0  0  0  0  0  2  0  0  0  0  0  0
  184.3820  175.6490  135.8650 C   0  0  2  0  0  3  0  0  0  0  0  0
  183.9720  177.1740  135.0430 Cl  0  0  0  0  0  0  0  0  0  0  0  0
  183.1810  175.1080  136.6370 C   0  0  0  0  0  2  0  0  0  0  0  0
  181.9700  176.0290  136.5410 C   0  0  0  0  0  2  0  0  0  0  0  0
  180.0820  177.4140  139.5140 C   0  0  2  0  0  3  0  0  0  0  0  0
  183.8770  178.5170  141.8510 C   0  0  0  0  0  3  0  0  0  0  0  0
  182.5630  177.6250  139.8390 C   0  0  0  0  0  0  0  0  0  0  0  0
  181.2260  178.0510  140.1660 N   0  0  0  0  0  0  0  0  0  0  0  0
  179.5730  176.3480  140.3550 N   0  0  0  0  0  1  0  0  0  0  0  0
  183.7600  177.9370  140.6500 C   0  0  0  0  0  3  0  0  0  0  0  0
  181.4270  178.5860  142.5040 C   0  0  0  0  0  2  0  0  0  0  0  0
  180.4460  176.8710  138.2070 N   0  0  0  0  0  0  0  0  0  0  0  0
  181.6740  176.6120  137.8740 C   0  0  0  0  0  0  0  0  0  0  0  0
  180.9480  179.0700  141.1600 C   0  0  0  0  0  2  0  0  0  0  0  0
  182.8110  178.9830  142.6960 N   0  0  0  0  0  0  0  0  0  0  0  0
  182.7530  176.9510  138.7490 N   0  0  0  0  0  0  0  0  0  0  0  0
  183.9680  178.6600  144.8240 C   0  0  2  0  0  3  0  0  0  0  0  0
  184.6830  179.7540  144.0720 C   0  0  0  0  0  2  0  0  0  0  0  0
  183.1780  179.6240  143.9540 C   0  0  1  0  0  3  0  0  0  0  0  0
  183.8200  179.0370  146.1610 O   0  0  0  0  0  0  0  0  0  0  0  0
  185.5720  179.3460  147.2310 O   0  0  0  0  0  1  0  0  0  0  0  0
  184.7740  178.3960  146.8010 O   0  0  0  0  0  0  0  0  0  0  0  0
  1  3  1  0  0  0  0
  3  2  2  0  0  0  0
  4  2  1  1  0  0  0
  4 12  1  0  0  0  0
  5  9  1  0  0  0  0
  5  4  1  0  0  0  0
  6  9  2  0  0  0  0
  7  8  1  0  0  0  0
  8  6  1  0  0  0  0
 10  8  2  0  0  0  0
 10 11  1  0  0  0  0
 11  5  2  0  0  0  0
 14 17  1  0  0  0  0
 15 13  1  6  0  0  0
 15 24  1  0  0  0  0
 16 12  1  1  0  0  0
 16 14  1  0  0  0  0
 16 13  1  0  0  0  0
 17 15  1  0  0  0  0
 19 23  1  0  0  0  0
 21 18  1  6  0  0  0
 22 20  2  0  0  0  0
 22 21  1  0  0  0  0
 23 26  1  1  0  0  0
 23 21  1  0  0  0  0
 24 19  1  0  0  0  0
 24 22  1  0  0  0  0
 26 25  1  0  0  0  0
 27 28  1  0  0  0  0
 27  1  1  0  0  0  0
 29 30  1  1  0  0  0
 29 31  1  0  0  0  0
 29 28  1  0  0  0  0
 32 31  1  0  0  0  0
 32 41  1  0  0  0  0
 33 36  1  0  0  0  0
 33 37  1  1  0  0  0
 34 43  1  0  0  0  0
 35 36  1  0  0  0  0
 35 38  1  0  0  0  0
 36 42  1  0  0  0  0
 38 34  2  0  0  0  0
 39 43  1  0  0  0  0
 40 33  1  0  0  0  0
 41 40  2  0  0  0  0
 41 44  1  0  0  0  0
 42 39  1  0  0  0  0
 44 35  2  0  0  0  0
 45 48  1  1  0  0  0
 46 45  1  0  0  0  0
 47 43  1  6  0  0  0
 47 46  1  0  0  0  0
 47 45  1  0  0  0  0
 48 50  1  0  0  0  0
 50 49  1  0  0  0  0
M  END
>  <MODEL>
1

>  <REMARK>
 VINA RESULT:      -8.0      0.000      0.000
  Name = 
  16 active torsions:
  status: ('A' for Active; 'I' for Inactive)
    1  A    between atoms: C_2  and  C_43
    2  A    between atoms: C_8  and  O_44
    3  A    between atoms: N_13  and  C_32
    4  A    between atoms: N_13  and  C_38
    5  A    between atoms: N_20  and  C_39
    6  A    between atoms: C_25  and  C_35
    7  A    between atoms: C_25  and  C_38
    8  A    between atoms: C_27  and  C_43
    9  A    between atoms: C_28  and  N_42
   10  A    between atoms: C_29  and  N_46
   11  A    between atoms: C_31  and  C_50
   12  A    between atoms: C_32  and  N_48
   13  A    between atoms: C_35  and  C_50
   14  A    between atoms: N_40  and  C_41
   15  A    between atoms: C_43  and  N_46
   16  A    between atoms: O_44  and  O_49
                            x       y       z     vdW  Elec       q    Type
                         _______ _______ _______ _____ _____    ______ ____

>  <TORSDO>
F 16

$$$$
=
 OpenBabel11042413253D

 50 55  0  0  1  0  0  0  0  0999 V2000
  191.7620  176.5570  138.6240 C   0  0  0  0  0  2  0  0  0  0  0  0
  190.3610  176.6210  140.5420 C   0  0  0  0  0  3  0  0  0  0  0  0
  191.4710  176.9440  139.9810 N   0  0  0  0  0  0  0  0  0  0  0  0
  190.0880  177.0140  141.9600 C   0  0  2  0  0  3  0  0  0  0  0  0
  188.6710  177.4700  142.1320 C   0  0  0  0  0  0  0  0  0  0  0  0
  186.5310  177.2240  143.2390 C   0  0  0  0  0  3  0  0  0  0  0  0
  184.6940  178.6680  142.6370 O   0  0  0  0  0  1  0  0  0  0  0  0
  186.0110  178.2710  142.4700 C   0  0  0  0  0  0  0  0  0  0  0  0
  187.8580  176.8250  143.0690 C   0  0  0  0  0  3  0  0  0  0  0  0
  186.8190  178.9180  141.5280 C   0  0  0  0  0  3  0  0  0  0  0  0
  188.1460  178.5180  141.3600 C   0  0  0  0  0  3  0  0  0  0  0  0
  191.0050  178.0670  142.3680 N   0  0  0  0  0  2  0  0  0  0  0  0
  191.2170  178.4000  144.7620 C   0  0  0  0  0  2  0  0  0  0  0  0
  191.3450  176.1700  143.8610 C   0  0  0  0  0  2  0  0  0  0  0  0
  191.1340  177.4230  145.9220 C   0  0  2  0  0  3  0  0  0  0  0  0
  191.6950  177.6110  143.5650 C   0  0  1  0  0  3  0  0  0  0  0  0
  191.4270  176.0380  145.3660 C   0  0  0  0  0  2  0  0  0  0  0  0
  187.6820  177.1410  149.2070 C   0  0  0  0  0  1  0  0  0  0  0  0
  188.5580  177.3060  145.7960 C   0  0  0  0  0  2  0  0  0  0  0  0
  190.4430  178.2490  148.6400 O   0  0  0  0  0  0  0  0  0  0  0  0
  188.0970  178.0910  148.1020 C   0  0  1  0  0  3  0  0  0  0  0  0
  189.5370  177.9450  147.8220 C   0  0  0  0  0  0  0  0  0  0  0  0
  187.4360  177.6630  146.7870 C   0  0  1  0  0  3  0  0  0  0  0  0
  189.8030  177.4630  146.5220 N   0  0  0  0  0  0  0  0  0  0  0  0
  185.2550  178.4380  146.4870 C   0  0  0  0  0  1  0  0  0  0  0  0
  186.6500  178.7670  146.2610 N   0  0  0  0  0  2  0  0  0  0  0  0
  190.7930  175.5750  138.1480 N   0  0  0  0  0  2  0  0  0  0  0  0
  190.5540  175.8280  136.7400 C   0  0  0  0  0  2  0  0  0  0  0  0
  189.0880  176.1460  136.4850 C   0  0  2  0  0  3  0  0  0  0  0  0
  188.8290  176.4780  134.7550 Cl  0  0  0  0  0  0  0  0  0  0  0  0
  188.5860  177.3070  137.3410 C   0  0  0  0  0  2  0  0  0  0  0  0
  187.5690  178.1710  136.6040 C   0  0  0  0  0  2  0  0  0  0  0  0
  184.2160  176.4240  136.7750 C   0  0  2  0  0  3  0  0  0  0  0  0
  182.5450  179.1980  140.0280 C   0  0  0  0  0  3  0  0  0  0  0  0
  184.3040  178.3720  138.3570 C   0  0  0  0  0  0  0  0  0  0  0  0
  183.5320  177.4370  137.5780 N   0  0  0  0  0  0  0  0  0  0  0  0
  184.3070  175.1870  137.5260 N   0  0  0  0  0  1  0  0  0  0  0  0
  183.7520  179.2040  139.4480 C   0  0  0  0  0  3  0  0  0  0  0  0
  181.6000  177.0950  138.9720 C   0  0  0  0  0  2  0  0  0  0  0  0
  185.5580  176.8610  136.3930 N   0  0  0  0  0  0  0  0  0  0  0  0
  186.1940  177.8000  137.0250 C   0  0  0  0  0  0  0  0  0  0  0  0
  182.0820  177.4200  137.5820 C   0  0  0  0  0  2  0  0  0  0  0  0
  181.4430  178.3240  139.7300 N   0  0  0  0  0  0  0  0  0  0  0  0
  185.5590  178.5320  138.0750 N   0  0  0  0  0  0  0  0  0  0  0  0
  180.4470  178.3930  141.9600 C   0  0  2  0  0  3  0  0  0  0  0  0
  180.2920  179.7600  141.3430 C   0  0  0  0  0  2  0  0  0  0  0  0
  180.2000  178.5280  140.4660 C   0  0  1  0  0  3  0  0  0  0  0  0
  179.2520  178.0260  142.5820 O   0  0  0  0  0  0  0  0  0  0  0  0
  179.5040  178.8110  144.4870 O   0  0  0  0  0  1  0  0  0  0  0  0
  179.5950  177.6920  143.8060 O   0  0  0  0  0  0  0  0  0  0  0  0
  1  3  1  0  0  0  0
  3  2  2  0  0  0  0
  4  2  1  6  0  0  0
  4  5  1  0  0  0  0
  4 12  1  0  0  0  0
  5  9  1  0  0  0  0
  8  7  1  0  0  0  0
  8  6  1  0  0  0  0
  9  6  2  0  0  0  0
 10  8  2  0  0  0  0
 11 10  1  0  0  0  0
 11  5  2  0  0  0  0
 14 17  1  0  0  0  0
 15 13  1  6  0  0  0
 15 24  1  0  0  0  0
 16 12  1  6  0  0  0
 16 14  1  0  0  0  0
 16 13  1  0  0  0  0
 17 15  1  0  0  0  0
 19 24  1  0  0  0  0
 19 23  1  0  0  0  0
 21 18  1  1  0  0  0
 22 21  1  0  0  0  0
 22 20  2  0  0  0  0
 23 26  1  6  0  0  0
 23 21  1  0  0  0  0
 24 22  1  0  0  0  0
 26 25  1  0  0  0  0
 27  1  1  0  0  0  0
 28 27  1  0  0  0  0
 29 30  1  6  0  0  0
 29 28  1  0  0  0  0
 29 31  1  0  0  0  0
 32 41  1  0  0  0  0
 32 31  1  0  0  0  0
 33 37  1  1  0  0  0
 33 36  1  0  0  0  0
 35 38  1  0  0  0  0
 36 42  1  0  0  0  0
 36 35  1  0  0  0  0
 38 34  2  0  0  0  0
 39 43  1  0  0  0  0
 40 33  1  0  0  0  0
 40 41  2  0  0  0  0
 41 44  1  0  0  0  0
 42 39  1  0  0  0  0
 43 34  1  0  0  0  0
 44 35  2  0  0  0  0
 45 48  1  1  0  0  0
 46 45  1  0  0  0  0
 47 43  1  6  0  0  0
 47 46  1  0  0  0  0
 47 45  1  0  0  0  0
 48 50  1  0  0  0  0
 50 49  1  0  0  0  0
M  END
>  <MODEL>
2

>  <REMARK>
 VINA RESULT:      -7.7      2.662      5.037
  Name = 
  16 active torsions:
  status: ('A' for Active; 'I' for Inactive)
    1  A    between atoms: C_2  and  C_43
    2  A    between atoms: C_8  and  O_44
    3  A    between atoms: N_13  and  C_32
    4  A    between atoms: N_13  and  C_38
    5  A    between atoms: N_20  and  C_39
    6  A    between atoms: C_25  and  C_35
    7  A    between atoms: C_25  and  C_38
    8  A    between atoms: C_27  and  C_43
    9  A    between atoms: C_28  and  N_42
   10  A    between atoms: C_29  and  N_46
   11  A    between atoms: C_31  and  C_50
   12  A    between atoms: C_32  and  N_48
   13  A    between atoms: C_35  and  C_50
   14  A    between atoms: N_40  and  C_41
   15  A    between atoms: C_43  and  N_46
   16  A    between atoms: O_44  and  O_49
                            x       y       z     vdW  Elec       q    Type
                         _______ _______ _______ _____ _____    ______ ____

>  <TORSDO>
F 16

$$$$
=
 OpenBabel11042413253D

 50 55  0  0  1  0  0  0  0  0999 V2000
  191.6030  177.4140  142.2890 C   0  0  0  0  0  2  0  0  0  0  0  0
  190.5130  176.7660  140.2800 C   0  0  0  0  0  3  0  0  0  0  0  0
  191.5260  177.3080  140.8540 N   0  0  0  0  0  0  0  0  0  0  0  0
  190.4430  176.6870  138.7870 C   0  0  2  0  0  3  0  0  0  0  0  0
  189.0430  176.9020  138.2980 C   0  0  0  0  0  0  0  0  0  0  0  0
  187.0870  176.0420  137.1590 C   0  0  0  0  0  3  0  0  0  0  0  0
  185.1470  177.4470  136.8750 O   0  0  0  0  0  1  0  0  0  0  0  0
  186.4370  177.2660  137.3460 C   0  0  0  0  0  0  0  0  0  0  0  0
  188.3870  175.8610  137.6330 C   0  0  0  0  0  3  0  0  0  0  0  0
  187.0890  178.3120  138.0080 C   0  0  0  0  0  3  0  0  0  0  0  0
  188.3890  178.1300  138.4830 C   0  0  0  0  0  3  0  0  0  0  0  0
  190.9390  175.3970  138.3350 N   0  0  0  0  0  2  0  0  0  0  0  0
  193.0430  176.1630  137.4000 C   0  0  0  0  0  2  0  0  0  0  0  0
  191.9020  174.3020  136.3800 C   0  0  0  0  0  2  0  0  0  0  0  0
  193.9990  175.5120  136.4150 C   0  0  2  0  0  3  0  0  0  0  0  0
  191.6670  175.6150  137.0940 C   0  0  1  0  0  3  0  0  0  0  0  0
  193.2030  174.4810  135.6300 C   0  0  0  0  0  2  0  0  0  0  0  0
  197.9660  172.9750  137.1980 C   0  0  0  0  0  1  0  0  0  0  0  0
  195.0880  174.5140  138.5320 C   0  0  0  0  0  2  0  0  0  0  0  0
  196.7350  175.1270  135.4580 O   0  0  0  0  0  0  0  0  0  0  0  0
  197.3890  174.3070  137.6310 C   0  0  1  0  0  3  0  0  0  0  0  0
  196.4210  174.7910  136.6290 C   0  0  0  0  0  0  0  0  0  0  0  0
  196.5300  174.1070  138.8850 C   0  0  1  0  0  3  0  0  0  0  0  0
  195.1030  174.8750  137.1270 N   0  0  0  0  0  0  0  0  0  0  0  0
  198.4040  175.2890  139.6170 C   0  0  0  0  0  1  0  0  0  0  0  0
  197.0320  174.9560  139.9520 N   0  0  0  0  0  2  0  0  0  0  0  0
  190.4020  178.0440  142.8260 N   0  0  0  0  0  2  0  0  0  0  0  0
  189.8540  177.1700  143.8440 C   0  0  0  0  0  2  0  0  0  0  0  0
  188.5890  177.7630  144.4480 C   0  0  2  0  0  3  0  0  0  0  0  0
  188.5000  177.3700  146.1820 Cl  0  0  0  0  0  0  0  0  0  0  0  0
  187.3260  177.3040  143.7220 C   0  0  0  0  0  2  0  0  0  0  0  0
  187.1580  177.9830  142.3680 C   0  0  0  0  0  2  0  0  0  0  0  0
  183.4420  178.4130  142.9410 C   0  0  2  0  0  3  0  0  0  0  0  0
  182.6230  180.0070  138.7140 C   0  0  0  0  0  3  0  0  0  0  0  0
  184.0790  179.0610  140.6000 C   0  0  0  0  0  0  0  0  0  0  0  0
  183.0740  178.6370  141.5430 N   0  0  0  0  0  0  0  0  0  0  0  0
  183.1660  179.6080  143.7150 N   0  0  0  0  0  1  0  0  0  0  0  0
  183.7830  179.6370  139.2700 C   0  0  0  0  0  3  0  0  0  0  0  0
  181.1170  179.7860  140.7430 C   0  0  0  0  0  2  0  0  0  0  0  0
  184.8550  178.0640  143.0730 N   0  0  0  0  0  0  0  0  0  0  0  0
  185.7320  178.3360  142.1540 C   0  0  0  0  0  0  0  0  0  0  0  0
  181.6820  178.4600  141.1810 C   0  0  0  0  0  2  0  0  0  0  0  0
  181.3170  179.9500  139.3140 N   0  0  0  0  0  0  0  0  0  0  0  0
  185.3280  178.9040  140.9060 N   0  0  0  0  0  0  0  0  0  0  0  0
  180.3000  181.8470  138.1570 C   0  0  2  0  0  3  0  0  0  0  0  0
  180.6380  180.8030  137.1230 C   0  0  0  0  0  2  0  0  0  0  0  0
  180.1810  180.3710  138.5010 C   0  0  1  0  0  3  0  0  0  0  0  0
  179.0240  182.3540  137.9040 O   0  0  0  0  0  0  0  0  0  0  0  0
  179.0360  184.2600  137.0830 O   0  0  0  0  0  1  0  0  0  0  0  0
  179.0930  183.6250  138.2310 O   0  0  0  0  0  0  0  0  0  0  0  0
  1 27  1  0  0  0  0
  2  3  2  0  0  0  0
  3  1  1  0  0  0  0
  4  2  1  1  0  0  0
  5 11  1  0  0  0  0
  5  4  1  0  0  0  0
  6  8  2  0  0  0  0
  6  9  1  0  0  0  0
  7  8  1  0  0  0  0
  8 10  1  0  0  0  0
  9  5  2  0  0  0  0
 10 11  2  0  0  0  0
 12  4  1  0  0  0  0
 14 16  1  0  0  0  0
 15 17  1  1  0  0  0
 15 24  1  0  0  0  0
 15 13  1  0  0  0  0
 16 13  1  0  0  0  0
 16 12  1  1  0  0  0
 17 14  1  0  0  0  0
 19 23  1  0  0  0  0
 20 22  2  0  0  0  0
 21 18  1  6  0  0  0
 21 23  1  0  0  0  0
 22 24  1  0  0  0  0
 22 21  1  0  0  0  0
 23 26  1  1  0  0  0
 24 19  1  0  0  0  0
 25 26  1  0  0  0  0
 27 28  1  0  0  0  0
 28 29  1  0  0  0  0
 29 30  1  1  0  0  0
 31 29  1  0  0  0  0
 32 31  1  0  0  0  0
 33 40  1  0  0  0  0
 33 37  1  1  0  0  0
 34 38  2  0  0  0  0
 34 43  1  0  0  0  0
 35 44  2  0  0  0  0
 35 36  1  0  0  0  0
 36 33  1  0  0  0  0
 38 35  1  0  0  0  0
 39 42  1  0  0  0  0
 41 32  1  0  0  0  0
 41 40  2  0  0  0  0
 42 36  1  0  0  0  0
 43 39  1  0  0  0  0
 44 41  1  0  0  0  0
 45 48  1  6  0  0  0
 45 47  1  0  0  0  0
 46 45  1  0  0  0  0
 47 46  1  6  0  0  0
 47 43  1  0  0  0  0
 48 50  1  0  0  0  0
 49 50  1  0  0  0  0
M  END
>  <MODEL>
3

>  <REMARK>
 VINA RESULT:      -7.3      4.348      7.809
  Name = 
  16 active torsions:
  status: ('A' for Active; 'I' for Inactive)
    1  A    between atoms: C_2  and  C_43
    2  A    between atoms: C_8  and  O_44
    3  A    between atoms: N_13  and  C_32
    4  A    between atoms: N_13  and  C_38
    5  A    between atoms: N_20  and  C_39
    6  A    between atoms: C_25  and  C_35
    7  A    between atoms: C_25  and  C_38
    8  A    between atoms: C_27  and  C_43
    9  A    between atoms: C_28  and  N_42
   10  A    between atoms: C_29  and  N_46
   11  A    between atoms: C_31  and  C_50
   12  A    between atoms: C_32  and  N_48
   13  A    between atoms: C_35  and  C_50
   14  A    between atoms: N_40  and  C_41
   15  A    between atoms: C_43  and  N_46
   16  A    between atoms: O_44  and  O_49
                            x       y       z     vdW  Elec       q    Type
                         _______ _______ _______ _____ _____    ______ ____

>  <TORSDO>
F 16

$$$$
=
 OpenBabel11042413253D

 50 55  0  0  1  0  0  0  0  0999 V2000
  187.7420  178.7120  137.5940 C   0  0  0  0  0  2  0  0  0  0  0  0
  186.7940  178.4880  139.7610 C   0  0  0  0  0  3  0  0  0  0  0  0
  187.8150  178.3710  138.9920 N   0  0  0  0  0  0  0  0  0  0  0  0
  186.8860  178.1070  141.2050 C   0  0  2  0  0  3  0  0  0  0  0  0
  185.5900  178.3540  141.9150 C   0  0  0  0  0  0  0  0  0  0  0  0
  184.3900  178.6970  143.9900 C   0  0  0  0  0  3  0  0  0  0  0  0
  181.9980  179.0050  143.9590 O   0  0  0  0  0  1  0  0  0  0  0  0
  183.1880  178.7900  143.2830 C   0  0  0  0  0  0  0  0  0  0  0  0
  185.5880  178.4790  143.3070 C   0  0  0  0  0  3  0  0  0  0  0  0
  183.1820  178.6610  141.8900 C   0  0  0  0  0  3  0  0  0  0  0  0
  184.3800  178.4440  141.2070 C   0  0  0  0  0  3  0  0  0  0  0  0
  187.9570  178.8530  141.8470 N   0  0  0  0  0  2  0  0  0  0  0  0
  190.1020  178.4760  142.9170 C   0  0  0  0  0  2  0  0  0  0  0  0
  188.7830  176.5880  142.2130 C   0  0  0  0  0  2  0  0  0  0  0  0
  190.7130  177.2260  143.5270 C   0  0  2  0  0  3  0  0  0  0  0  0
  189.1430  178.0100  141.8450 C   0  0  1  0  0  3  0  0  0  0  0  0
  190.0060  176.0310  142.9080 C   0  0  0  0  0  2  0  0  0  0  0  0
  188.7300  177.9830  147.8030 C   0  0  0  0  0  1  0  0  0  0  0  0
  191.6120  177.1610  145.9460 C   0  0  0  0  0  2  0  0  0  0  0  0
  188.2060  176.9470  145.0060 O   0  0  0  0  0  0  0  0  0  0  0  0
  189.4300  176.8490  147.0820 C   0  0  1  0  0  3  0  0  0  0  0  0
  189.2990  177.0180  145.6230 C   0  0  0  0  0  0  0  0  0  0  0  0
  190.9420  176.9530  147.3160 C   0  0  1  0  0  3  0  0  0  0  0  0
  190.5360  177.2330  144.9770 N   0  0  0  0  0  0  0  0  0  0  0  0
  192.5460  175.2700  147.1140 C   0  0  0  0  0  1  0  0  0  0  0  0
  191.4220  175.7190  147.9150 N   0  0  0  0  0  2  0  0  0  0  0  0
  189.0310  178.5000  136.9430 N   0  0  0  0  0  2  0  0  0  0  0  0
  189.7900  177.5620  137.7470 C   0  0  0  0  0  2  0  0  0  0  0  0
  190.1100  176.3020  136.9560 C   0  0  2  0  0  3  0  0  0  0  0  0
  190.2400  176.6870  135.2230 Cl  0  0  0  0  0  0  0  0  0  0  0  0
  189.0880  175.1920  137.1900 C   0  0  0  0  0  2  0  0  0  0  0  0
  188.2520  174.9050  135.9490 C   0  0  0  0  0  2  0  0  0  0  0  0
  184.8330  173.3760  136.4920 C   0  0  2  0  0  3  0  0  0  0  0  0
  182.9280  177.2940  137.9420 C   0  0  0  0  0  3  0  0  0  0  0  0
  184.8250  175.8280  137.0340 C   0  0  0  0  0  0  0  0  0  0  0  0
  184.1060  174.6320  136.6710 N   0  0  0  0  0  0  0  0  0  0  0  0
  184.7910  172.6090  137.7230 N   0  0  0  0  0  1  0  0  0  0  0  0
  184.1910  177.0540  137.5650 C   0  0  0  0  0  3  0  0  0  0  0  0
  182.0210  174.9270  137.8360 C   0  0  0  0  0  2  0  0  0  0  0  0
  186.2250  173.6130  136.1140 N   0  0  0  0  0  0  0  0  0  0  0  0
  186.8250  174.7430  136.3280 C   0  0  0  0  0  0  0  0  0  0  0  0
  182.6650  174.6000  136.5140 C   0  0  0  0  0  2  0  0  0  0  0  0
  181.8310  176.3640  137.9400 N   0  0  0  0  0  0  0  0  0  0  0  0
  186.1080  175.8610  136.8580 N   0  0  0  0  0  0  0  0  0  0  0  0
  180.4080  176.8220  139.8720 C   0  0  2  0  0  3  0  0  0  0  0  0
  180.6670  178.1310  139.1700 C   0  0  0  0  0  2  0  0  0  0  0  0
  180.5240  176.8600  138.3570 C   0  0  1  0  0  3  0  0  0  0  0  0
  179.0570  176.7410  140.2180 O   0  0  0  0  0  0  0  0  0  0  0  0
  179.0110  175.2600  141.6720 O   0  0  0  0  0  1  0  0  0  0  0  0
  179.0500  176.5640  141.5210 O   0  0  0  0  0  0  0  0  0  0  0  0
  1  3  1  0  0  0  0
  3  2  2  0  0  0  0
  4  2  1  6  0  0  0
  4 12  1  0  0  0  0
  4  5  1  0  0  0  0
  5  9  1  0  0  0  0
  8  7  1  0  0  0  0
  8  6  1  0  0  0  0
  9  6  2  0  0  0  0
 10  8  2  0  0  0  0
 11 10  1  0  0  0  0
 11  5  2  0  0  0  0
 13 15  1  0  0  0  0
 14 17  1  0  0  0  0
 15 17  1  6  0  0  0
 15 24  1  0  0  0  0
 16 12  1  1  0  0  0
 16 14  1  0  0  0  0
 16 13  1  0  0  0  0
 19 23  1  0  0  0  0
 20 22  2  0  0  0  0
 21 23  1  0  0  0  0
 21 18  1  1  0  0  0
 22 21  1  0  0  0  0
 23 26  1  6  0  0  0
 24 22  1  0  0  0  0
 24 19  1  0  0  0  0
 25 26  1  0  0  0  0
 27  1  1  0  0  0  0
 27 28  1  0  0  0  0
 29 30  1  6  0  0  0
 29 31  1  0  0  0  0
 29 28  1  0  0  0  0
 32 41  1  0  0  0  0
 32 31  1  0  0  0  0
 33 36  1  0  0  0  0
 33 37  1  1  0  0  0
 35 38  1  0  0  0  0
 36 35  1  0  0  0  0
 38 34  2  0  0  0  0
 39 43  1  0  0  0  0
 40 41  2  0  0  0  0
 40 33  1  0  0  0  0
 41 44  1  0  0  0  0
 42 36  1  0  0  0  0
 42 39  1  0  0  0  0
 43 34  1  0  0  0  0
 44 35  2  0  0  0  0
 45 48  1  6  0  0  0
 46 45  1  0  0  0  0
 47 43  1  1  0  0  0
 47 46  1  0  0  0  0
 47 45  1  0  0  0  0
 48 50  1  0  0  0  0
 50 49  1  0  0  0  0
M  END
>  <MODEL>
4

>  <REMARK>
 VINA RESULT:      -7.3      2.662      5.833
  Name = 
  16 active torsions:
  status: ('A' for Active; 'I' for Inactive)
    1  A    between atoms: C_2  and  C_43
    2  A    between atoms: C_8  and  O_44
    3  A    between atoms: N_13  and  C_32
    4  A    between atoms: N_13  and  C_38
    5  A    between atoms: N_20  and  C_39
    6  A    between atoms: C_25  and  C_35
    7  A    between atoms: C_25  and  C_38
    8  A    between atoms: C_27  and  C_43
    9  A    between atoms: C_28  and  N_42
   10  A    between atoms: C_29  and  N_46
   11  A    between atoms: C_31  and  C_50
   12  A    between atoms: C_32  and  N_48
   13  A    between atoms: C_35  and  C_50
   14  A    between atoms: N_40  and  C_41
   15  A    between atoms: C_43  and  N_46
   16  A    between atoms: O_44  and  O_49
                            x       y       z     vdW  Elec       q    Type
                         _______ _______ _______ _____ _____    ______ ____

>  <TORSDO>
F 16

$$$$
=
 OpenBabel11042413253D

 50 55  0  0  1  0  0  0  0  0999 V2000
  189.5530  177.9110  137.6780 C   0  0  0  0  0  2  0  0  0  0  0  0
  188.2230  177.9160  139.6460 C   0  0  0  0  0  3  0  0  0  0  0  0
  189.3880  177.9540  139.1090 N   0  0  0  0  0  0  0  0  0  0  0  0
  188.0760  177.9400  141.1350 C   0  0  2  0  0  3  0  0  0  0  0  0
  186.6660  178.2500  141.5360 C   0  0  0  0  0  0  0  0  0  0  0  0
  184.9420  178.2510  143.2370 C   0  0  0  0  0  3  0  0  0  0  0  0
  182.7310  179.0590  142.7070 O   0  0  0  0  0  1  0  0  0  0  0  0
  184.0340  178.7910  142.3200 C   0  0  0  0  0  0  0  0  0  0  0  0
  186.2540  177.9810  142.8440 C   0  0  0  0  0  3  0  0  0  0  0  0
  184.4380  179.0590  141.0080 C   0  0  0  0  0  3  0  0  0  0  0  0
  185.7510  178.7890  140.6170 C   0  0  0  0  0  3  0  0  0  0  0  0
  188.9850  178.9190  141.7080 N   0  0  0  0  0  2  0  0  0  0  0  0
  190.0330  178.6600  143.8810 C   0  0  0  0  0  2  0  0  0  0  0  0
  189.6750  176.7190  142.5000 C   0  0  0  0  0  2  0  0  0  0  0  0
  190.2810  177.4280  144.7340 C   0  0  2  0  0  3  0  0  0  0  0  0
  190.0090  178.1930  142.4430 C   0  0  1  0  0  3  0  0  0  0  0  0
  190.2610  176.2250  143.8040 C   0  0  0  0  0  2  0  0  0  0  0  0
  188.0730  176.0760  148.7440 C   0  0  0  0  0  1  0  0  0  0  0  0
  187.8280  177.5120  145.5330 C   0  0  0  0  0  2  0  0  0  0  0  0
  190.6660  177.1630  147.6200 O   0  0  0  0  0  0  0  0  0  0  0  0
  188.2870  177.3580  147.9660 C   0  0  1  0  0  3  0  0  0  0  0  0
  189.5060  177.2540  147.1430 C   0  0  0  0  0  0  0  0  0  0  0  0
  187.1710  177.5150  146.9250 C   0  0  1  0  0  3  0  0  0  0  0  0
  189.2460  177.3040  145.7560 N   0  0  0  0  0  0  0  0  0  0  0  0
  185.0810  178.5510  146.8560 C   0  0  0  0  0  1  0  0  0  0  0  0
  186.4860  178.7780  147.1420 N   0  0  0  0  0  2  0  0  0  0  0  0
  190.6930  177.0750  137.3140 N   0  0  0  0  0  2  0  0  0  0  0  0
  190.5700  175.8160  138.0230 C   0  0  0  0  0  2  0  0  0  0  0  0
  190.7560  174.6380  137.0770 C   0  0  2  0  0  3  0  0  0  0  0  0
  191.5590  175.1790  135.5830 Cl  0  0  0  0  0  0  0  0  0  0  0  0
  189.4400  173.9320  136.7600 C   0  0  0  0  0  2  0  0  0  0  0  0
  188.5390  174.7660  135.8580 C   0  0  0  0  0  2  0  0  0  0  0  0
  185.1330  173.4450  136.8500 C   0  0  2  0  0  3  0  0  0  0  0  0
  183.4230  177.5930  137.8230 C   0  0  0  0  0  3  0  0  0  0  0  0
  185.2180  175.9490  137.0190 C   0  0  0  0  0  0  0  0  0  0  0  0
  184.4490  174.7370  136.8880 N   0  0  0  0  0  0  0  0  0  0  0  0
  185.1620  172.8690  138.1810 N   0  0  0  0  0  1  0  0  0  0  0  0
  184.6500  177.2590  137.4030 C   0  0  0  0  0  3  0  0  0  0  0  0
  182.4590  175.2680  138.1320 C   0  0  0  0  0  2  0  0  0  0  0  0
  186.5000  173.5790  136.3490 N   0  0  0  0  0  0  0  0  0  0  0  0
  187.1390  174.7090  136.3510 C   0  0  0  0  0  0  0  0  0  0  0  0
  183.0000  174.7290  136.8340 C   0  0  0  0  0  2  0  0  0  0  0  0
  182.3090  176.7090  138.0330 N   0  0  0  0  0  0  0  0  0  0  0  0
  186.4860  175.9140  136.7550 N   0  0  0  0  0  0  0  0  0  0  0  0
  180.8930  177.1890  139.9660 C   0  0  2  0  0  3  0  0  0  0  0  0
  181.2900  178.5050  139.3480 C   0  0  0  0  0  2  0  0  0  0  0  0
  181.0460  177.3030  138.4580 C   0  0  1  0  0  3  0  0  0  0  0  0
  179.5340  177.2170  140.2840 O   0  0  0  0  0  0  0  0  0  0  0  0
  179.1630  175.5150  141.4120 O   0  0  0  0  0  1  0  0  0  0  0  0
  179.4660  176.7870  141.5240 O   0  0  0  0  0  0  0  0  0  0  0  0
  1  3  1  0  0  0  0
  3  2  2  0  0  0  0
  4  2  1  6  0  0  0
  4  5  1  0  0  0  0
  4 12  1  0  0  0  0
  5  9  1  0  0  0  0
  8  7  1  0  0  0  0
  8  6  1  0  0  0  0
  9  6  2  0  0  0  0
 10  8  2  0  0  0  0
 11 10  1  0  0  0  0
 11  5  2  0  0  0  0
 13 15  1  0  0  0  0
 14 17  1  0  0  0  0
 15 17  1  6  0  0  0
 15 24  1  0  0  0  0
 16 12  1  6  0  0  0
 16 14  1  0  0  0  0
 16 13  1  0  0  0  0
 19 24  1  0  0  0  0
 19 23  1  0  0  0  0
 21 18  1  6  0  0  0
 22 20  2  0  0  0  0
 22 21  1  0  0  0  0
 23 26  1  1  0  0  0
 23 21  1  0  0  0  0
 24 22  1  0  0  0  0
 25 26  1  0  0  0  0
 27  1  1  0  0  0  0
 27 28  1  0  0  0  0
 29 30  1  6  0  0  0
 29 28  1  0  0  0  0
 31 29  1  0  0  0  0
 32 41  1  0  0  0  0
 32 31  1  0  0  0  0
 33 36  1  0  0  0  0
 33 37  1  1  0  0  0
 34 43  1  0  0  0  0
 35 38  1  0  0  0  0
 36 35  1  0  0  0  0
 38 34  2  0  0  0  0
 40 41  2  0  0  0  0
 40 33  1  0  0  0  0
 41 44  1  0  0  0  0
 42 36  1  0  0  0  0
 42 39  1  0  0  0  0
 43 39  1  0  0  0  0
 44 35  2  0  0  0  0
 45 48  1  6  0  0  0
 46 45  1  0  0  0  0
 47 43  1  1  0  0  0
 47 46  1  0  0  0  0
 47 45  1  0  0  0  0
 48 50  1  0  0  0  0
 49 50  1  0  0  0  0
M  END
>  <MODEL>
5

>  <REMARK>
 VINA RESULT:      -7.2      2.902      5.883
  Name = 
  16 active torsions:
  status: ('A' for Active; 'I' for Inactive)
    1  A    between atoms: C_2  and  C_43
    2  A    between atoms: C_8  and  O_44
    3  A    between atoms: N_13  and  C_32
    4  A    between atoms: N_13  and  C_38
    5  A    between atoms: N_20  and  C_39
    6  A    between atoms: C_25  and  C_35
    7  A    between atoms: C_25  and  C_38
    8  A    between atoms: C_27  and  C_43
    9  A    between atoms: C_28  and  N_42
   10  A    between atoms: C_29  and  N_46
   11  A    between atoms: C_31  and  C_50
   12  A    between atoms: C_32  and  N_48
   13  A    between atoms: C_35  and  C_50
   14  A    between atoms: N_40  and  C_41
   15  A    between atoms: C_43  and  N_46
   16  A    between atoms: O_44  and  O_49
                            x       y       z     vdW  Elec       q    Type
                         _______ _______ _______ _____ _____    ______ ____

>  <TORSDO>
F 16

$$$$
=
 OpenBabel11042413253D

 50 55  0  0  1  0  0  0  0  0999 V2000
  184.7490  178.9740  140.6230 C   0  0  0  0  0  2  0  0  0  0  0  0
  183.2010  179.3050  138.8520 C   0  0  0  0  0  3  0  0  0  0  0  0
  183.4180  178.9660  140.0710 N   0  0  0  0  0  0  0  0  0  0  0  0
  181.8130  179.2680  138.2920 C   0  0  2  0  0  3  0  0  0  0  0  0
  181.4360  180.5880  137.6930 C   0  0  0  0  0  0  0  0  0  0  0  0
  180.4470  181.8330  135.8660 C   0  0  0  0  0  3  0  0  0  0  0  0
  180.3880  184.2440  135.9470 O   0  0  0  0  0  1  0  0  0  0  0  0
  180.7350  183.0330  136.5250 C   0  0  0  0  0  0  0  0  0  0  0  0
  180.7980  180.6140  136.4490 C   0  0  0  0  0  3  0  0  0  0  0  0
  181.3770  183.0140  137.7680 C   0  0  0  0  0  3  0  0  0  0  0  0
  181.7260  181.7940  138.3510 C   0  0  0  0  0  3  0  0  0  0  0  0
  180.8680  178.9030  139.3350 N   0  0  0  0  0  2  0  0  0  0  0  0
  180.9400  177.1000  137.7130 C   0  0  0  0  0  2  0  0  0  0  0  0
  180.5650  176.5870  140.0370 C   0  0  0  0  0  2  0  0  0  0  0  0
  181.0830  175.5980  137.8890 C   0  0  2  0  0  3  0  0  0  0  0  0
  180.2820  177.6220  138.9700 C   0  0  1  0  0  3  0  0  0  0  0  0
  180.6380  175.2660  139.3050 C   0  0  0  0  0  2  0  0  0  0  0  0
  184.9520  172.8180  137.5900 C   0  0  0  0  0  1  0  0  0  0  0  0
  183.6180  176.0760  137.7800 C   0  0  0  0  0  2  0  0  0  0  0  0
  182.0420  173.0650  136.7880 O   0  0  0  0  0  0  0  0  0  0  0  0
  184.3000  173.9150  136.7730 C   0  0  1  0  0  3  0  0  0  0  0  0
  182.8570  173.9800  137.0720 C   0  0  0  0  0  0  0  0  0  0  0  0
  184.8200  175.2790  137.2440 C   0  0  1  0  0  3  0  0  0  0  0  0
  182.4710  175.1940  137.6790 N   0  0  0  0  0  0  0  0  0  0  0  0
  186.2670  177.0170  136.6690 C   0  0  0  0  0  1  0  0  0  0  0  0
  185.4120  175.9820  136.1180 N   0  0  0  0  0  2  0  0  0  0  0  0
  184.7300  178.5500  142.0200 N   0  0  0  0  0  2  0  0  0  0  0  0
  183.6730  179.2770  142.6950 C   0  0  0  0  0  2  0  0  0  0  0  0
  183.3640  178.6540  144.0490 C   0  0  2  0  0  3  0  0  0  0  0  0
  181.6030  178.6120  144.3120 Cl  0  0  0  0  0  0  0  0  0  0  0  0
  184.0660  179.3770  145.1960 C   0  0  0  0  0  2  0  0  0  0  0  0
  184.6460  178.4080  146.2200 C   0  0  0  0  0  2  0  0  0  0  0  0
  188.3980  177.9840  146.4810 C   0  0  2  0  0  3  0  0  0  0  0  0
  188.9140  176.7500  142.0900 C   0  0  0  0  0  3  0  0  0  0  0  0
  187.5940  177.5200  144.1480 C   0  0  0  0  0  0  0  0  0  0  0  0
  188.6630  177.8790  145.0470 N   0  0  0  0  0  0  0  0  0  0  0  0
  188.7400  176.7350  147.1330 N   0  0  0  0  0  1  0  0  0  0  0  0
  187.7940  177.0580  142.7580 C   0  0  0  0  0  3  0  0  0  0  0  0
  190.5640  176.8270  144.0140 C   0  0  0  0  0  2  0  0  0  0  0  0
  186.9960  178.3020  146.7450 N   0  0  0  0  0  0  0  0  0  0  0  0
  186.0560  178.0940  145.8740 C   0  0  0  0  0  0  0  0  0  0  0  0
  190.0230  178.1050  144.5990 C   0  0  0  0  0  2  0  0  0  0  0  0
  190.2600  176.7760  142.5950 N   0  0  0  0  0  0  0  0  0  0  0  0
  186.3700  177.6340  144.5580 N   0  0  0  0  0  0  0  0  0  0  0  0
  191.1360  177.1600  140.3460 C   0  0  2  0  0  3  0  0  0  0  0  0
  192.1590  177.6650  141.3320 C   0  0  0  0  0  2  0  0  0  0  0  0
  191.3350  176.4380  141.6690 C   0  0  1  0  0  3  0  0  0  0  0  0
  191.7790  176.4390  139.3380 O   0  0  0  0  0  0  0  0  0  0  0  0
  191.1010  174.8560  138.1800 O   0  0  0  0  0  1  0  0  0  0  0  0
  190.8230  176.0980  138.5020 O   0  0  0  0  0  0  0  0  0  0  0  0
  1 27  1  0  0  0  0
  2  3  2  0  0  0  0
  3  1  1  0  0  0  0
  4  2  1  1  0  0  0
  4 12  1  0  0  0  0
  5  4  1  0  0  0  0
  5 11  1  0  0  0  0
  6  9  1  0  0  0  0
  6  8  2  0  0  0  0
  7  8  1  0  0  0  0
  8 10  1  0  0  0  0
  9  5  2  0  0  0  0
 10 11  2  0  0  0  0
 13 15  1  0  0  0  0
 13 16  1  0  0  0  0
 15 24  1  1  0  0  0
 15 17  1  0  0  0  0
 16 12  1  1  0  0  0
 16 14  1  0  0  0  0
 17 14  1  0  0  0  0
 20 22  2  0  0  0  0
 21 22  1  0  0  0  0
 21 23  1  0  0  0  0
 21 18  1  1  0  0  0
 22 24  1  0  0  0  0
 23 26  1  6  0  0  0
 23 19  1  0  0  0  0
 24 19  1  0  0  0  0
 26 25  1  0  0  0  0
 27 28  1  0  0  0  0
 28 29  1  0  0  0  0
 29 30  1  1  0  0  0
 29 31  1  0  0  0  0
 31 32  1  0  0  0  0
 33 40  1  0  0  0  0
 33 37  1  1  0  0  0
 34 43  1  0  0  0  0
 34 38  2  0  0  0  0
 35 44  2  0  0  0  0
 35 36  1  0  0  0  0
 36 33  1  0  0  0  0
 38 35  1  0  0  0  0
 39 42  1  0  0  0  0
 41 32  1  0  0  0  0
 41 40  2  0  0  0  0
 42 36  1  0  0  0  0
 43 39  1  0  0  0  0
 44 41  1  0  0  0  0
 45 48  1  6  0  0  0
 45 46  1  0  0  0  0
 45 47  1  0  0  0  0
 47 46  1  1  0  0  0
 47 43  1  0  0  0  0
 49 50  1  0  0  0  0
 50 48  1  0  0  0  0
M  END
>  <MODEL>
6

>  <REMARK>
 VINA RESULT:      -7.1      3.769      9.996
  Name = 
  16 active torsions:
  status: ('A' for Active; 'I' for Inactive)
    1  A    between atoms: C_2  and  C_43
    2  A    between atoms: C_8  and  O_44
    3  A    between atoms: N_13  and  C_32
    4  A    between atoms: N_13  and  C_38
    5  A    between atoms: N_20  and  C_39
    6  A    between atoms: C_25  and  C_35
    7  A    between atoms: C_25  and  C_38
    8  A    between atoms: C_27  and  C_43
    9  A    between atoms: C_28  and  N_42
   10  A    between atoms: C_29  and  N_46
   11  A    between atoms: C_31  and  C_50
   12  A    between atoms: C_32  and  N_48
   13  A    between atoms: C_35  and  C_50
   14  A    between atoms: N_40  and  C_41
   15  A    between atoms: C_43  and  N_46
   16  A    between atoms: O_44  and  O_49
                            x       y       z     vdW  Elec       q    Type
                         _______ _______ _______ _____ _____    ______ ____

>  <TORSDO>
F 16

$$$$
=
 OpenBabel11042413253D

 50 55  0  0  1  0  0  0  0  0999 V2000
  186.7220  178.6250  139.2360 C   0  0  0  0  0  2  0  0  0  0  0  0
  185.2040  178.9720  141.0290 C   0  0  0  0  0  3  0  0  0  0  0  0
  185.9110  178.1590  140.3320 N   0  0  0  0  0  0  0  0  0  0  0  0
  184.3520  178.4630  142.1500 C   0  0  2  0  0  3  0  0  0  0  0  0
  182.9160  178.3570  141.7340 C   0  0  0  0  0  0  0  0  0  0  0  0
  181.2550  177.4720  140.2100 C   0  0  0  0  0  3  0  0  0  0  0  0
  178.9310  178.0500  140.4980 O   0  0  0  0  0  1  0  0  0  0  0  0
  180.2510  178.1510  140.9060 C   0  0  0  0  0  0  0  0  0  0  0  0
  182.5850  177.5760  140.6230 C   0  0  0  0  0  3  0  0  0  0  0  0
  180.5760  178.9370  142.0170 C   0  0  0  0  0  3  0  0  0  0  0  0
  181.9060  179.0400  142.4300 C   0  0  0  0  0  3  0  0  0  0  0  0
  184.4750  179.3400  143.3040 N   0  0  0  0  0  2  0  0  0  0  0  0
  185.8840  177.4730  143.9510 C   0  0  0  0  0  2  0  0  0  0  0  0
  185.6790  179.3690  145.4240 C   0  0  0  0  0  2  0  0  0  0  0  0
  186.9510  177.3480  145.0260 C   0  0  2  0  0  3  0  0  0  0  0  0
  184.9110  178.5270  144.4290 C   0  0  1  0  0  3  0  0  0  0  0  0
  186.6760  178.4260  146.0610 C   0  0  0  0  0  2  0  0  0  0  0  0
  191.6180  178.2950  144.6940 C   0  0  0  0  0  1  0  0  0  0  0  0
  188.5430  177.7940  143.0430 C   0  0  0  0  0  2  0  0  0  0  0  0
  189.5270  176.7990  146.2950 O   0  0  0  0  0  0  0  0  0  0  0  0
  190.6580  177.2280  144.2080 C   0  0  1  0  0  3  0  0  0  0  0  0
  189.4800  177.1640  145.0920 C   0  0  0  0  0  0  0  0  0  0  0  0
  190.0640  177.6530  142.8590 C   0  0  1  0  0  3  0  0  0  0  0  0
  188.2790  177.5220  144.4430 N   0  0  0  0  0  0  0  0  0  0  0  0
  189.8790  177.1400  140.5900 C   0  0  0  0  0  1  0  0  0  0  0  0
  190.3460  176.6300  141.8660 N   0  0  0  0  0  2  0  0  0  0  0  0
  185.9230  178.7540  138.0210 N   0  0  0  0  0  2  0  0  0  0  0  0
  186.8040  178.5720  136.8840 C   0  0  0  0  0  2  0  0  0  0  0  0
  187.9530  177.6360  137.2300 C   0  0  2  0  0  3  0  0  0  0  0  0
  189.4940  178.5280  137.2020 Cl  0  0  0  0  0  0  0  0  0  0  0  0
  188.0130  176.4210  136.3060 C   0  0  0  0  0  2  0  0  0  0  0  0
  188.3590  175.1410  137.0570 C   0  0  0  0  0  2  0  0  0  0  0  0
  191.2510  172.8970  136.0920 C   0  0  2  0  0  3  0  0  0  0  0  0
  194.3350  176.2980  136.0690 C   0  0  0  0  0  3  0  0  0  0  0  0
  192.0100  175.2710  136.4020 C   0  0  0  0  0  0  0  0  0  0  0  0
  192.3170  173.8630  136.3560 N   0  0  0  0  0  0  0  0  0  0  0  0
  191.2190  172.5810  134.6770 N   0  0  0  0  0  1  0  0  0  0  0  0
  193.0210  176.3470  136.3220 C   0  0  0  0  0  3  0  0  0  0  0  0
  194.5220  173.8600  135.3930 C   0  0  0  0  0  2  0  0  0  0  0  0
  189.9470  173.4150  136.5040 N   0  0  0  0  0  0  0  0  0  0  0  0
  189.7180  174.6810  136.6700 C   0  0  0  0  0  0  0  0  0  0  0  0
  193.6620  173.3470  136.5180 C   0  0  0  0  0  2  0  0  0  0  0  0
  195.1190  175.1280  135.7780 N   0  0  0  0  0  0  0  0  0  0  0  0
  190.7770  175.6350  136.5570 N   0  0  0  0  0  0  0  0  0  0  0  0
  197.3330  174.5600  136.6410 C   0  0  2  0  0  3  0  0  0  0  0  0
  197.2190  173.9860  135.2520 C   0  0  0  0  0  2  0  0  0  0  0  0
  196.5520  175.3080  135.5730 C   0  0  1  0  0  3  0  0  0  0  0  0
  198.5820  175.1650  136.7920 O   0  0  0  0  0  0  0  0  0  0  0  0
  198.2120  175.6370  138.7790 O   0  0  0  0  0  1  0  0  0  0  0  0
  198.9570  174.8690  138.0170 O   0  0  0  0  0  0  0  0  0  0  0  0
  1  3  1  0  0  0  0
  3  2  2  0  0  0  0
  4  2  1  6  0  0  0
  4 12  1  0  0  0  0
  5  4  1  0  0  0  0
  5 11  1  0  0  0  0
  6  9  1  0  0  0  0
  6  8  2  0  0  0  0
  7  8  1  0  0  0  0
  8 10  1  0  0  0  0
  9  5  2  0  0  0  0
 10 11  2  0  0  0  0
 13 16  1  0  0  0  0
 14 17  1  0  0  0  0
 15 13  1  6  0  0  0
 15 17  1  0  0  0  0
 16 12  1  6  0  0  0
 16 14  1  0  0  0  0
 19 24  1  0  0  0  0
 21 18  1  1  0  0  0
 21 22  1  0  0  0  0
 22 20  2  0  0  0  0
 23 26  1  6  0  0  0
 23 19  1  0  0  0  0
 23 21  1  0  0  0  0
 24 15  1  0  0  0  0
 24 22  1  0  0  0  0
 25 26  1  0  0  0  0
 27  1  1  0  0  0  0
 28 29  1  0  0  0  0
 28 27  1  0  0  0  0
 29 30  1  6  0  0  0
 31 32  1  0  0  0  0
 31 29  1  0  0  0  0
 33 37  1  6  0  0  0
 33 36  1  0  0  0  0
 33 40  1  0  0  0  0
 34 38  2  0  0  0  0
 35 44  2  0  0  0  0
 36 35  1  0  0  0  0
 36 42  1  0  0  0  0
 38 35  1  0  0  0  0
 39 43  1  0  0  0  0
 39 42  1  0  0  0  0
 40 41  2  0  0  0  0
 41 32  1  0  0  0  0
 43 34  1  0  0  0  0
 44 41  1  0  0  0  0
 45 48  1  6  0  0  0
 46 45  1  0  0  0  0
 47 46  1  6  0  0  0
 47 43  1  0  0  0  0
 47 45  1  0  0  0  0
 48 50  1  0  0  0  0
 50 49  1  0  0  0  0
M  END
>  <MODEL>
7

>  <REMARK>
 VINA RESULT:      -6.9      3.340      9.881
  Name = 
  16 active torsions:
  status: ('A' for Active; 'I' for Inactive)
    1  A    between atoms: C_2  and  C_43
    2  A    between atoms: C_8  and  O_44
    3  A    between atoms: N_13  and  C_32
    4  A    between atoms: N_13  and  C_38
    5  A    between atoms: N_20  and  C_39
    6  A    between atoms: C_25  and  C_35
    7  A    between atoms: C_25  and  C_38
    8  A    between atoms: C_27  and  C_43
    9  A    between atoms: C_28  and  N_42
   10  A    between atoms: C_29  and  N_46
   11  A    between atoms: C_31  and  C_50
   12  A    between atoms: C_32  and  N_48
   13  A    between atoms: C_35  and  C_50
   14  A    between atoms: N_40  and  C_41
   15  A    between atoms: C_43  and  N_46
   16  A    between atoms: O_44  and  O_49
                            x       y       z     vdW  Elec       q    Type
                         _______ _______ _______ _____ _____    ______ ____

>  <TORSDO>
F 16

$$$$
=
 OpenBabel11042413253D

 50 55  0  0  1  0  0  0  0  0999 V2000
  190.7620  176.7470  138.3500 C   0  0  0  0  0  2  0  0  0  0  0  0
  189.5860  176.7170  140.4140 C   0  0  0  0  0  3  0  0  0  0  0  0
  190.4510  177.2820  139.6520 N   0  0  0  0  0  0  0  0  0  0  0  0
  189.2930  177.2780  141.7700 C   0  0  2  0  0  3  0  0  0  0  0  0
  187.8710  177.7390  141.8710 C   0  0  0  0  0  0  0  0  0  0  0  0
  185.7710  177.7480  143.0750 C   0  0  0  0  0  3  0  0  0  0  0  0
  183.8830  178.9630  142.1910 O   0  0  0  0  0  1  0  0  0  0  0  0
  185.2040  178.5580  142.0860 C   0  0  0  0  0  0  0  0  0  0  0  0
  187.1010  177.3400  142.9670 C   0  0  0  0  0  3  0  0  0  0  0  0
  185.9680  178.9580  140.9840 C   0  0  0  0  0  3  0  0  0  0  0  0
  187.2990  178.5500  140.8770 C   0  0  0  0  0  3  0  0  0  0  0  0
  190.1980  178.3790  142.0580 N   0  0  0  0  0  2  0  0  0  0  0  0
  190.6090  178.7290  144.4230 C   0  0  0  0  0  2  0  0  0  0  0  0
  190.8330  176.5160  143.4980 C   0  0  0  0  0  2  0  0  0  0  0  0
  190.7160  177.7470  145.5790 C   0  0  2  0  0  3  0  0  0  0  0  0
  191.0340  177.9810  143.1800 C   0  0  1  0  0  3  0  0  0  0  0  0
  191.0690  176.3920  144.9870 C   0  0  0  0  0  2  0  0  0  0  0  0
  187.5900  176.8800  149.0800 C   0  0  0  0  0  1  0  0  0  0  0  0
  188.1380  177.6480  145.6830 C   0  0  0  0  0  2  0  0  0  0  0  0
  190.3000  178.0780  148.4540 O   0  0  0  0  0  0  0  0  0  0  0  0
  187.9110  178.0120  148.1260 C   0  0  1  0  0  3  0  0  0  0  0  0
  189.3160  177.9220  147.6860 C   0  0  0  0  0  0  0  0  0  0  0  0
  187.1210  177.8210  146.8250 C   0  0  1  0  0  3  0  0  0  0  0  0
  189.4490  177.6780  146.3020 N   0  0  0  0  0  0  0  0  0  0  0  0
  184.9430  178.5370  146.3890 C   0  0  0  0  0  1  0  0  0  0  0  0
  186.3050  178.9990  146.5810 N   0  0  0  0  0  2  0  0  0  0  0  0
  190.2030  175.4070  138.1960 N   0  0  0  0  0  2  0  0  0  0  0  0
  189.6700  175.2970  136.8520 C   0  0  0  0  0  2  0  0  0  0  0  0
  188.4070  174.4470  136.8360 C   0  0  2  0  0  3  0  0  0  0  0  0
  188.4740  173.2830  135.4910 Cl  0  0  0  0  0  0  0  0  0  0  0  0
  187.1380  175.2920  136.7590 C   0  0  0  0  0  2  0  0  0  0  0  0
  185.8970  174.5120  137.1780 C   0  0  0  0  0  2  0  0  0  0  0  0
  182.6140  175.8190  135.8230 C   0  0  2  0  0  3  0  0  0  0  0  0
  182.5910  179.5450  138.5050 C   0  0  0  0  0  3  0  0  0  0  0  0
  183.5650  177.3750  137.5490 C   0  0  0  0  0  0  0  0  0  0  0  0
  182.6960  177.1510  136.4210 N   0  0  0  0  0  0  0  0  0  0  0  0
  181.4900  175.0990  136.3880 N   0  0  0  0  0  1  0  0  0  0  0  0
  183.4890  178.5530  138.4390 C   0  0  0  0  0  3  0  0  0  0  0  0
  180.8510  178.6180  136.9090 C   0  0  0  0  0  2  0  0  0  0  0  0
  183.8410  175.0570  136.0450 N   0  0  0  0  0  0  0  0  0  0  0  0
  184.6860  175.3500  136.9860 C   0  0  0  0  0  0  0  0  0  0  0  0
  181.8490  178.1880  135.8650 C   0  0  0  0  0  2  0  0  0  0  0  0
  181.4120  179.7010  137.6970 N   0  0  0  0  0  0  0  0  0  0  0  0
  184.5020  176.5140  137.7950 N   0  0  0  0  0  0  0  0  0  0  0  0
  181.0540  182.0180  137.0090 C   0  0  2  0  0  3  0  0  0  0  0  0
  179.8080  181.2390  136.6710 C   0  0  0  0  0  2  0  0  0  0  0  0
  180.5950  180.8900  137.9180 C   0  0  1  0  0  3  0  0  0  0  0  0
  180.6960  183.2370  137.5880 O   0  0  0  0  0  0  0  0  0  0  0  0
  182.1890  184.6770  137.5080 O   0  0  0  0  0  1  0  0  0  0  0  0
  181.2150  184.1530  136.8000 O   0  0  0  0  0  0  0  0  0  0  0  0
  1  3  1  0  0  0  0
  3  2  2  0  0  0  0
  4  2  1  6  0  0  0
  4  5  1  0  0  0  0
  4 12  1  0  0  0  0
  5  9  1  0  0  0  0
  8  7  1  0  0  0  0
  8  6  1  0  0  0  0
  9  6  2  0  0  0  0
 10  8  2  0  0  0  0
 11 10  1  0  0  0  0
 11  5  2  0  0  0  0
 14 17  1  0  0  0  0
 15 13  1  6  0  0  0
 15 24  1  0  0  0  0
 16 12  1  6  0  0  0
 16 14  1  0  0  0  0
 16 13  1  0  0  0  0
 17 15  1  0  0  0  0
 19 24  1  0  0  0  0
 19 23  1  0  0  0  0
 21 18  1  1  0  0  0
 22 21  1  0  0  0  0
 22 20  2  0  0  0  0
 23 26  1  6  0  0  0
 23 21  1  0  0  0  0
 24 22  1  0  0  0  0
 25 26  1  0  0  0  0
 27  1  1  0  0  0  0
 28 27  1  0  0  0  0
 29 30  1  6  0  0  0
 29 28  1  0  0  0  0
 31 29  1  0  0  0  0
 31 32  1  0  0  0  0
 33 40  1  0  0  0  0
 33 37  1  1  0  0  0
 33 36  1  0  0  0  0
 35 44  2  0  0  0  0
 35 38  1  0  0  0  0
 36 35  1  0  0  0  0
 38 34  2  0  0  0  0
 39 43  1  0  0  0  0
 40 41  2  0  0  0  0
 41 32  1  0  0  0  0
 41 44  1  0  0  0  0
 42 36  1  0  0  0  0
 42 39  1  0  0  0  0
 43 47  1  0  0  0  0
 43 34  1  0  0  0  0
 45 48  1  1  0  0  0
 45 47  1  0  0  0  0
 46 45  1  0  0  0  0
 47 46  1  6  0  0  0
 50 49  1  0  0  0  0
 50 48  1  0  0  0  0
M  END
>  <MODEL>
8

>  <REMARK>
 VINA RESULT:      -6.9      3.508      5.772
  Name = 
  16 active torsions:
  status: ('A' for Active; 'I' for Inactive)
    1  A    between atoms: C_2  and  C_43
    2  A    between atoms: C_8  and  O_44
    3  A    between atoms: N_13  and  C_32
    4  A    between atoms: N_13  and  C_38
    5  A    between atoms: N_20  and  C_39
    6  A    between atoms: C_25  and  C_35
    7  A    between atoms: C_25  and  C_38
    8  A    between atoms: C_27  and  C_43
    9  A    between atoms: C_28  and  N_42
   10  A    between atoms: C_29  and  N_46
   11  A    between atoms: C_31  and  C_50
   12  A    between atoms: C_32  and  N_48
   13  A    between atoms: C_35  and  C_50
   14  A    between atoms: N_40  and  C_41
   15  A    between atoms: C_43  and  N_46
   16  A    between atoms: O_44  and  O_49
                            x       y       z     vdW  Elec       q    Type
                         _______ _______ _______ _____ _____    ______ ____

>  <TORSDO>
F 16

$$$$
=
 OpenBabel11042413253D

 50 55  0  0  1  0  0  0  0  0999 V2000
  190.2960  176.9160  137.0450 C   0  0  0  0  0  2  0  0  0  0  0  0
  189.0400  177.8890  138.8110 C   0  0  0  0  0  3  0  0  0  0  0  0
  189.6890  176.8810  138.3510 N   0  0  0  0  0  0  0  0  0  0  0  0
  188.4000  177.8230  140.1620 C   0  0  2  0  0  3  0  0  0  0  0  0
  186.9650  178.2530  140.1030 C   0  0  0  0  0  0  0  0  0  0  0  0
  184.9740  179.0060  141.2560 C   0  0  0  0  0  3  0  0  0  0  0  0
  182.9510  179.4270  140.0120 O   0  0  0  0  0  1  0  0  0  0  0  0
  184.2800  179.0380  140.0430 C   0  0  0  0  0  0  0  0  0  0  0  0
  186.3130  178.6130  141.2860 C   0  0  0  0  0  3  0  0  0  0  0  0
  184.9260  178.6750  138.8560 C   0  0  0  0  0  3  0  0  0  0  0  0
  186.2660  178.2840  138.8860 C   0  0  0  0  0  3  0  0  0  0  0  0
  189.1340  178.6570  141.1000 N   0  0  0  0  0  2  0  0  0  0  0  0
  190.1250  178.2860  143.2830 C   0  0  0  0  0  2  0  0  0  0  0  0
  189.4460  176.3950  141.9550 C   0  0  0  0  0  2  0  0  0  0  0  0
  190.1640  177.0530  144.1710 C   0  0  2  0  0  3  0  0  0  0  0  0
  190.0220  177.7900  141.8590 C   0  0  1  0  0  3  0  0  0  0  0  0
  189.9420  175.8460  143.2740 C   0  0  0  0  0  2  0  0  0  0  0  0
  187.9710  176.6120  148.3880 C   0  0  0  0  0  1  0  0  0  0  0  0
  187.7000  177.2140  144.9250 C   0  0  0  0  0  2  0  0  0  0  0  0
  190.5270  177.5140  147.0350 O   0  0  0  0  0  0  0  0  0  0  0  0
  188.1370  177.6760  147.3220 C   0  0  1  0  0  3  0  0  0  0  0  0
  189.3690  177.4320  146.5500 C   0  0  0  0  0  0  0  0  0  0  0  0
  187.0280  177.5230  146.2740 C   0  0  1  0  0  3  0  0  0  0  0  0
  189.1230  177.1330  145.1920 N   0  0  0  0  0  0  0  0  0  0  0  0
  185.3690  178.6280  145.0600 C   0  0  0  0  0  1  0  0  0  0  0  0
  186.2840  178.7680  146.1780 N   0  0  0  0  0  2  0  0  0  0  0  0
  190.3930  175.5720  136.4840 N   0  0  0  0  0  2  0  0  0  0  0  0
  189.4770  174.7160  137.2120 C   0  0  0  0  0  2  0  0  0  0  0  0
  188.3810  174.1880  136.2970 C   0  0  2  0  0  3  0  0  0  0  0  0
  187.7620  175.5020  135.2670 Cl  0  0  0  0  0  0  0  0  0  0  0  0
  187.2450  173.5250  137.0710 C   0  0  0  0  0  2  0  0  0  0  0  0
  186.3290  172.7070  136.1680 C   0  0  0  0  0  2  0  0  0  0  0  0
  182.5720  172.3190  136.4100 C   0  0  2  0  0  3  0  0  0  0  0  0
  182.0080  176.0480  139.0280 C   0  0  0  0  0  3  0  0  0  0  0  0
  183.3530  174.3640  137.6410 C   0  0  0  0  0  0  0  0  0  0  0  0
  182.2970  173.6370  136.9820 N   0  0  0  0  0  0  0  0  0  0  0  0
  182.2120  171.2880  137.3650 N   0  0  0  0  0  1  0  0  0  0  0  0
  183.1360  175.5210  138.5360 C   0  0  0  0  0  3  0  0  0  0  0  0
  180.3710  174.2600  138.2830 C   0  0  0  0  0  2  0  0  0  0  0  0
  183.9820  172.1770  136.0490 N   0  0  0  0  0  0  0  0  0  0  0  0
  184.9120  172.9290  136.5530 C   0  0  0  0  0  0  0  0  0  0  0  0
  180.9380  174.1340  136.8940 C   0  0  0  0  0  2  0  0  0  0  0  0
  180.6650  175.5810  138.8100 N   0  0  0  0  0  0  0  0  0  0  0  0
  184.5810  174.0160  137.4200 N   0  0  0  0  0  0  0  0  0  0  0  0
  180.1010  177.1660  140.5810 C   0  0  2  0  0  3  0  0  0  0  0  0
  179.8110  177.8300  139.2590 C   0  0  0  0  0  2  0  0  0  0  0  0
  179.5780  176.3410  139.4170 C   0  0  1  0  0  3  0  0  0  0  0  0
  179.0490  177.4140  141.4660 O   0  0  0  0  0  0  0  0  0  0  0  0
  180.4310  178.4320  142.6330 O   0  0  0  0  0  1  0  0  0  0  0  0
  179.6010  177.4150  142.6590 O   0  0  0  0  0  0  0  0  0  0  0  0
  1  3  1  0  0  0  0
  3  2  2  0  0  0  0
  4  2  1  6  0  0  0
  4 12  1  0  0  0  0
  5  4  1  0  0  0  0
  5  9  1  0  0  0  0
  6  9  2  0  0  0  0
  7  8  1  0  0  0  0
  8  6  1  0  0  0  0
 10 11  1  0  0  0  0
 10  8  2  0  0  0  0
 11  5  2  0  0  0  0
 13 15  1  0  0  0  0
 14 17  1  0  0  0  0
 15 17  1  6  0  0  0
 15 24  1  0  0  0  0
 16 12  1  6  0  0  0
 16 14  1  0  0  0  0
 16 13  1  0  0  0  0
 19 24  1  0  0  0  0
 19 23  1  0  0  0  0
 21 18  1  1  0  0  0
 22 20  2  0  0  0  0
 22 21  1  0  0  0  0
 23 26  1  6  0  0  0
 23 21  1  0  0  0  0
 24 22  1  0  0  0  0
 25 26  1  0  0  0  0
 27  1  1  0  0  0  0
 27 28  1  0  0  0  0
 29 30  1  1  0  0  0
 29 31  1  0  0  0  0
 29 28  1  0  0  0  0
 32 41  1  0  0  0  0
 32 31  1  0  0  0  0
 33 36  1  0  0  0  0
 33 37  1  1  0  0  0
 35 38  1  0  0  0  0
 36 35  1  0  0  0  0
 38 34  2  0  0  0  0
 39 43  1  0  0  0  0
 40 33  1  0  0  0  0
 40 41  2  0  0  0  0
 41 44  1  0  0  0  0
 42 36  1  0  0  0  0
 42 39  1  0  0  0  0
 43 34  1  0  0  0  0
 44 35  2  0  0  0  0
 45 48  1  1  0  0  0
 46 47  1  0  0  0  0
 46 45  1  0  0  0  0
 47 43  1  6  0  0  0
 47 45  1  0  0  0  0
 48 50  1  0  0  0  0
 49 50  1  0  0  0  0
M  END
>  <MODEL>
9

>  <REMARK>
 VINA RESULT:      -6.8      2.957      5.337
  Name = 
  16 active torsions:
  status: ('A' for Active; 'I' for Inactive)
    1  A    between atoms: C_2  and  C_43
    2  A    between atoms: C_8  and  O_44
    3  A    between atoms: N_13  and  C_32
    4  A    between atoms: N_13  and  C_38
    5  A    between atoms: N_20  and  C_39
    6  A    between atoms: C_25  and  C_35
    7  A    between atoms: C_25  and  C_38
    8  A    between atoms: C_27  and  C_43
    9  A    between atoms: C_28  and  N_42
   10  A    between atoms: C_29  and  N_46
   11  A    between atoms: C_31  and  C_50
   12  A    between atoms: C_32  and  N_48
   13  A    between atoms: C_35  and  C_50
   14  A    between atoms: N_40  and  C_41
   15  A    between atoms: C_43  and  N_46
   16  A    between atoms: O_44  and  O_49
                            x       y       z     vdW  Elec       q    Type
                         _______ _______ _______ _____ _____    ______ ____

>  <TORSDO>
F 16

$$$$
