=
 OpenBabel11032420093D

 36 39  0  0  1  0  0  0  0  0999 V2000
  190.6280  177.1580  145.5670 C   0  0  0  0  0  3  0  0  0  0  0  0
  188.7150  177.6510  140.7870 N   0  0  0  0  0  0  0  0  0  0  0  0
  190.2070  177.0480  146.8230 C   0  0  0  0  0  3  0  0  0  0  0  0
  187.9480  177.3290  148.0840 C   0  0  0  0  0  1  0  0  0  0  0  0
  189.5420  177.7160  144.6980 C   0  0  1  0  0  3  0  0  0  0  0  0
  188.8180  177.4740  146.8830 C   0  0  0  0  0  0  0  0  0  0  0  0
  187.7880  177.1770  142.9320 C   0  0  2  0  0  3  0  0  0  0  0  0
  190.5380  176.3760  139.9630 N   0  0  0  0  0  2  0  0  0  0  0  0
  186.7780  177.7480  143.8080 N   0  0  0  0  0  0  0  0  0  0  0  0
  185.9220  178.6240  143.0120 C   0  0  1  0  0  3  0  0  0  0  0  0
  190.2600  176.7090  142.4680 C   0  0  0  0  0  2  0  0  0  0  0  0
  186.1250  178.3910  145.9650 O   0  0  0  0  0  0  0  0  0  0  0  0
  187.0430  178.0060  145.1920 C   0  0  0  0  0  0  0  0  0  0  0  0
  189.7830  176.9380  141.0350 C   0  0  0  0  0  0  0  0  0  0  0  0
  189.1460  176.7780  143.5520 C   0  0  1  0  0  3  0  0  0  0  0  0
  186.5840  178.7020  141.6220 C   0  0  0  0  0  2  0  0  0  0  0  0
  188.4190  177.8120  145.6670 C   0  0  0  0  0  0  0  0  0  0  0  0
  187.9960  178.2370  141.9040 C   0  0  2  0  0  3  0  0  0  0  0  0
  183.8540  178.1600  141.8170 C   0  0  0  0  0  0  0  0  0  0  0  0
  184.5490  178.0470  142.9150 C   0  0  0  0  0  3  0  0  0  0  0  0
  183.1580  178.2730  140.7140 C   0  0  0  0  0  0  0  0  0  0  0  0
  181.6270  179.7200  139.6120 O   0  0  0  0  0  0  0  0  0  0  0  0
  179.9540  180.0830  141.8710 C   0  0  0  0  0  1  0  0  0  0  0  0
  181.9540  179.1210  140.6750 C   0  0  0  0  0  0  0  0  0  0  0  0
  181.1520  179.2620  141.8490 N   0  0  0  0  0  2  0  0  0  0  0  0
  183.5670  177.5780  139.5330 N   0  0  0  0  0  2  0  0  0  0  0  0
  184.4900  178.0930  138.6860 O   0  0  0  0  0  1  0  0  0  0  0  0
  190.1620  176.5490  138.5680 C   0  0  0  0  0  2  0  0  0  0  0  0
  191.3920  176.4740  137.6790 C   0  0  0  0  0  2  0  0  0  0  0  0
  191.4800  174.0920  137.5640 O   0  0  0  0  0  1  0  0  0  0  0  0
  192.2040  175.2170  137.9710 C   0  0  1  0  0  3  0  0  0  0  0  0
  193.5400  175.2690  137.2330 C   0  0  1  0  0  3  0  0  0  0  0  0
  193.9300  176.5960  137.0320 O   0  0  0  0  0  1  0  0  0  0  0  0
  195.2460  175.1680  138.8950 O   0  0  0  0  0  1  0  0  0  0  0  0
  194.6030  174.5560  138.0030 C   0  0  0  0  0  0  0  0  0  0  0  0
  194.8920  173.2230  137.7360 O   0  0  0  0  0  0  0  0  0  0  0  0
  1  3  2  0  0  0  0
  2 14  2  0  0  0  0
  2 18  1  0  0  0  0
  3  6  1  0  0  0  0
  5  1  1  1  0  0  0
  5 17  1  0  0  0  0
  6  4  1  0  0  0  0
  7 15  1  0  0  0  0
  7  9  1  1  0  0  0
  8 14  1  0  0  0  0
  9 13  1  0  0  0  0
 10 20  1  6  0  0  0
 10  9  1  0  0  0  0
 13 17  1  0  0  0  0
 13 12  2  0  0  0  0
 14 11  1  0  0  0  0
 15 11  1  6  0  0  0
 15  5  1  0  0  0  0
 16 10  1  0  0  0  0
 17  6  2  0  0  0  0
 18 16  1  6  0  0  0
 18  7  1  0  0  0  0
 19 20  2  0  0  0  0
 21 19  2  0  0  0  0
 22 24  2  0  0  0  0
 24 21  1  0  0  0  0
 24 25  1  0  0  0  0
 25 23  1  0  0  0  0
 26 21  1  0  0  0  0
 27 26  1  0  0  0  0
 28  8  1  0  0  0  0
 29 31  1  0  0  0  0
 29 28  1  0  0  0  0
 31 30  1  6  0  0  0
 32 33  1  1  0  0  0
 32 31  1  0  0  0  0
 32 35  1  0  0  0  0
 35 34  1  0  0  0  0
 36 35  2  0  0  0  0
M  END
>  <MODEL>
1

>  <REMARK>
 VINA RESULT:      -9.5      0.000      0.000
  Name = 
  8 active torsions:
  status: ('A' for Active; 'I' for Inactive)
    1  A    between atoms: C_6  and  C_12
    2  A    between atoms: C_12  and  C_34
    3  A    between atoms: C_13  and  N_15
    4  A    between atoms: C_13  and  C_20
    5  A    between atoms: C_17  and  C_24
    6  A    between atoms: N_19  and  C_26
    7  A    between atoms: C_20  and  C_34
    8  A    between atoms: C_22  and  C_26
                            x       y       z     vdW  Elec       q    Type
                         _______ _______ _______ _____ _____    ______ ____

>  <TORSDO>
F 8

$$$$
=
 OpenBabel11032420093D

 36 39  0  0  1  0  0  0  0  0999 V2000
  187.4140  177.9300  147.9000 C   0  0  0  0  0  3  0  0  0  0  0  0
  186.4360  177.3380  142.8560 N   0  0  0  0  0  0  0  0  0  0  0  0
  188.4470  178.0750  148.7240 C   0  0  0  0  0  3  0  0  0  0  0  0
  191.0350  177.8470  148.5590 C   0  0  0  0  0  1  0  0  0  0  0  0
  187.8660  177.3610  146.5890 C   0  0  1  0  0  3  0  0  0  0  0  0
  189.6550  177.6640  148.0260 C   0  0  0  0  0  0  0  0  0  0  0  0
  188.3680  177.8730  144.1460 C   0  0  2  0  0  3  0  0  0  0  0  0
  184.4300  178.5750  143.1350 N   0  0  0  0  0  2  0  0  0  0  0  0
  189.7040  177.3330  144.3410 N   0  0  0  0  0  0  0  0  0  0  0  0
  190.0090  176.4460  143.2210 C   0  0  1  0  0  3  0  0  0  0  0  0
  186.0310  178.3070  145.0910 C   0  0  0  0  0  2  0  0  0  0  0  0
  191.4370  176.7500  145.8060 O   0  0  0  0  0  0  0  0  0  0  0  0
  190.2380  177.1070  145.6510 C   0  0  0  0  0  0  0  0  0  0  0  0
  185.6590  178.0460  143.6330 C   0  0  0  0  0  0  0  0  0  0  0  0
  187.5570  178.2750  145.3980 C   0  0  1  0  0  3  0  0  0  0  0  0
  188.7000  176.3280  142.4150 C   0  0  0  0  0  2  0  0  0  0  0  0
  189.3380  177.3000  146.7940 C   0  0  0  0  0  0  0  0  0  0  0  0
  187.6580  176.7860  143.4120 C   0  0  2  0  0  3  0  0  0  0  0  0
  190.9640  177.1320  141.0920 C   0  0  0  0  0  0  0  0  0  0  0  0
  191.0970  177.0340  142.3860 C   0  0  0  0  0  3  0  0  0  0  0  0
  190.8280  177.2310  139.7930 C   0  0  0  0  0  0  0  0  0  0  0  0
  192.8500  176.7310  138.6470 O   0  0  0  0  0  0  0  0  0  0  0  0
  191.8580  174.3890  137.3960 C   0  0  0  0  0  1  0  0  0  0  0  0
  191.6540  176.4090  138.8910 C   0  0  0  0  0  0  0  0  0  0  0  0
  191.0930  175.2390  138.2930 N   0  0  0  0  0  2  0  0  0  0  0  0
  189.8710  178.1380  139.2390 N   0  0  0  0  0  2  0  0  0  0  0  0
  189.6660  178.2290  137.9030 O   0  0  0  0  0  1  0  0  0  0  0  0
  183.9920  178.3710  141.7620 C   0  0  0  0  0  2  0  0  0  0  0  0
  184.8920  179.1360  140.8050 C   0  0  0  0  0  2  0  0  0  0  0  0
  183.9900  180.5470  139.1060 O   0  0  0  0  0  1  0  0  0  0  0  0
  184.2730  179.2140  139.4140 C   0  0  1  0  0  3  0  0  0  0  0  0
  185.2310  178.6330  138.3770 C   0  0  1  0  0  3  0  0  0  0  0  0
  186.4370  178.2700  138.9830 O   0  0  0  0  0  1  0  0  0  0  0  0
  183.9220  176.6400  138.3770 O   0  0  0  0  0  1  0  0  0  0  0  0
  184.6360  177.4350  137.7110 C   0  0  0  0  0  0  0  0  0  0  0  0
  184.8720  177.1880  136.3640 O   0  0  0  0  0  0  0  0  0  0  0  0
  1  3  2  0  0  0  0
  2 18  1  0  0  0  0
  2 14  2  0  0  0  0
  5 17  1  0  0  0  0
  5  1  1  1  0  0  0
  6  4  1  0  0  0  0
  6  3  1  0  0  0  0
  7  9  1  1  0  0  0
  7 15  1  0  0  0  0
  8 14  1  0  0  0  0
  9 13  1  0  0  0  0
 10 20  1  6  0  0  0
 10  9  1  0  0  0  0
 13 12  2  0  0  0  0
 13 17  1  0  0  0  0
 14 11  1  0  0  0  0
 15 11  1  6  0  0  0
 15  5  1  0  0  0  0
 16 10  1  0  0  0  0
 17  6  2  0  0  0  0
 18 16  1  6  0  0  0
 18  7  1  0  0  0  0
 19 20  2  0  0  0  0
 21 19  2  0  0  0  0
 22 24  2  0  0  0  0
 23 25  1  0  0  0  0
 24 21  1  0  0  0  0
 25 24  1  0  0  0  0
 26 21  1  0  0  0  0
 27 26  1  0  0  0  0
 28  8  1  0  0  0  0
 29 28  1  0  0  0  0
 31 30  1  6  0  0  0
 31 29  1  0  0  0  0
 32 33  1  1  0  0  0
 32 31  1  0  0  0  0
 35 34  1  0  0  0  0
 35 32  1  0  0  0  0
 36 35  2  0  0  0  0
M  END
>  <MODEL>
2

>  <REMARK>
 VINA RESULT:      -9.3      2.230      7.143
  Name = 
  8 active torsions:
  status: ('A' for Active; 'I' for Inactive)
    1  A    between atoms: C_6  and  C_12
    2  A    between atoms: C_12  and  C_34
    3  A    between atoms: C_13  and  N_15
    4  A    between atoms: C_13  and  C_20
    5  A    between atoms: C_17  and  C_24
    6  A    between atoms: N_19  and  C_26
    7  A    between atoms: C_20  and  C_34
    8  A    between atoms: C_22  and  C_26
                            x       y       z     vdW  Elec       q    Type
                         _______ _______ _______ _____ _____    ______ ____

>  <TORSDO>
F 8

$$$$
=
 OpenBabel11032420093D

 36 39  0  0  1  0  0  0  0  0999 V2000
  184.5700  178.5730  142.8890 C   0  0  0  0  0  3  0  0  0  0  0  0
  188.8150  177.4760  140.1460 N   0  0  0  0  0  0  0  0  0  0  0  0
  184.2070  178.8210  144.1440 C   0  0  0  0  0  3  0  0  0  0  0  0
  185.3100  178.6390  146.4940 C   0  0  0  0  0  1  0  0  0  0  0  0
  185.9040  177.8910  142.8540 C   0  0  1  0  0  3  0  0  0  0  0  0
  185.2710  178.3730  145.0280 C   0  0  0  0  0  0  0  0  0  0  0  0
  188.3900  178.1770  142.3840 C   0  0  2  0  0  3  0  0  0  0  0  0
  187.9060  178.6860  138.3190 N   0  0  0  0  0  2  0  0  0  0  0  0
  188.6670  177.6910  143.7260 N   0  0  0  0  0  0  0  0  0  0  0  0
  189.7440  176.7070  143.6450 C   0  0  1  0  0  3  0  0  0  0  0  0
  186.6760  178.6450  140.5440 C   0  0  0  0  0  2  0  0  0  0  0  0
  187.9150  177.2920  145.9090 O   0  0  0  0  0  0  0  0  0  0  0  0
  187.6380  177.6050  144.7200 C   0  0  0  0  0  0  0  0  0  0  0  0
  187.8630  178.2370  139.6730 C   0  0  0  0  0  0  0  0  0  0  0  0
  186.9620  178.6790  142.0730 C   0  0  1  0  0  3  0  0  0  0  0  0
  189.9890  176.4820  142.1400 C   0  0  0  0  0  2  0  0  0  0  0  0
  186.2610  177.8850  144.2980 C   0  0  0  0  0  0  0  0  0  0  0  0
  188.7150  177.0090  141.5170 C   0  0  2  0  0  3  0  0  0  0  0  0
  191.5070  176.6080  145.3180 C   0  0  0  0  0  0  0  0  0  0  0  0
  190.9700  177.2370  144.3090 C   0  0  0  0  0  3  0  0  0  0  0  0
  192.0450  175.9740  146.3300 C   0  0  0  0  0  0  0  0  0  0  0  0
  190.9990  177.2040  148.0750 O   0  0  0  0  0  0  0  0  0  0  0  0
  193.1600  176.9530  149.8910 C   0  0  0  0  0  1  0  0  0  0  0  0
  192.0120  176.5610  147.6810 C   0  0  0  0  0  0  0  0  0  0  0  0
  193.1360  176.3980  148.5480 N   0  0  0  0  0  2  0  0  0  0  0  0
  192.6660  174.7010  146.1310 N   0  0  0  0  0  2  0  0  0  0  0  0
  192.5050  174.0010  144.9820 O   0  0  0  0  0  1  0  0  0  0  0  0
  188.9940  178.3410  137.4160 C   0  0  0  0  0  2  0  0  0  0  0  0
  188.4400  177.7770  136.1180 C   0  0  0  0  0  2  0  0  0  0  0  0
  190.3140  176.4470  135.4770 O   0  0  0  0  0  1  0  0  0  0  0  0
  188.9720  176.3720  135.8590 C   0  0  1  0  0  3  0  0  0  0  0  0
  188.8380  175.5180  137.1180 C   0  0  1  0  0  3  0  0  0  0  0  0
  187.5230  175.0660  137.2580 O   0  0  0  0  0  1  0  0  0  0  0  0
  189.4990  173.3790  136.2990 O   0  0  0  0  0  0  0  0  0  0  0  0
  189.7580  174.3420  137.0660 C   0  0  0  0  0  0  0  0  0  0  0  0
  190.8950  174.3010  137.8650 O   0  0  0  0  0  1  0  0  0  0  0  0
  1  3  2  0  0  0  0
  2 18  1  0  0  0  0
  3  6  1  0  0  0  0
  5  1  1  1  0  0  0
  5 17  1  0  0  0  0
  6  4  1  0  0  0  0
  7  9  1  1  0  0  0
  8 14  1  0  0  0  0
  9 13  1  0  0  0  0
 10  9  1  0  0  0  0
 10 20  1  6  0  0  0
 13 12  2  0  0  0  0
 14  2  2  0  0  0  0
 14 11  1  0  0  0  0
 15 11  1  6  0  0  0
 15  7  1  0  0  0  0
 15  5  1  0  0  0  0
 16 10  1  0  0  0  0
 17 13  1  0  0  0  0
 17  6  2  0  0  0  0
 18 16  1  1  0  0  0
 18  7  1  0  0  0  0
 19 21  2  0  0  0  0
 20 19  2  0  0  0  0
 21 24  1  0  0  0  0
 24 22  2  0  0  0  0
 24 25  1  0  0  0  0
 25 23  1  0  0  0  0
 26 21  1  0  0  0  0
 27 26  1  0  0  0  0
 28  8  1  0  0  0  0
 29 28  1  0  0  0  0
 31 30  1  1  0  0  0
 31 29  1  0  0  0  0
 31 32  1  0  0  0  0
 32 33  1  6  0  0  0
 34 35  2  0  0  0  0
 35 32  1  0  0  0  0
 35 36  1  0  0  0  0
M  END
>  <MODEL>
3

>  <REMARK>
 VINA RESULT:      -8.9      3.187      6.866
  Name = 
  8 active torsions:
  status: ('A' for Active; 'I' for Inactive)
    1  A    between atoms: C_6  and  C_12
    2  A    between atoms: C_12  and  C_34
    3  A    between atoms: C_13  and  N_15
    4  A    between atoms: C_13  and  C_20
    5  A    between atoms: C_17  and  C_24
    6  A    between atoms: N_19  and  C_26
    7  A    between atoms: C_20  and  C_34
    8  A    between atoms: C_22  and  C_26
                            x       y       z     vdW  Elec       q    Type
                         _______ _______ _______ _____ _____    ______ ____

>  <TORSDO>
F 8

$$$$
=
 OpenBabel11032420093D

 36 39  0  0  1  0  0  0  0  0999 V2000
  191.0900  177.1110  145.0410 C   0  0  0  0  0  3  0  0  0  0  0  0
  188.8650  177.7580  140.4180 N   0  0  0  0  0  0  0  0  0  0  0  0
  190.7530  176.9280  146.3140 C   0  0  0  0  0  3  0  0  0  0  0  0
  188.5700  177.0730  147.7230 C   0  0  0  0  0  1  0  0  0  0  0  0
  189.9350  177.6710  144.2680 C   0  0  1  0  0  3  0  0  0  0  0  0
  189.3580  177.3030  146.4790 C   0  0  0  0  0  0  0  0  0  0  0  0
  188.0910  177.1540  142.5900 C   0  0  2  0  0  3  0  0  0  0  0  0
  190.6720  176.5860  139.4220 N   0  0  0  0  0  2  0  0  0  0  0  0
  187.1200  177.6490  143.5530 N   0  0  0  0  0  0  0  0  0  0  0  0
  186.1890  178.5310  142.8540 C   0  0  1  0  0  3  0  0  0  0  0  0
  190.5420  176.7930  141.9520 C   0  0  0  0  0  2  0  0  0  0  0  0
  186.5850  178.1690  145.7740 O   0  0  0  0  0  0  0  0  0  0  0  0
  187.4640  177.8510  144.9290 C   0  0  0  0  0  0  0  0  0  0  0  0
  189.9680  177.0720  140.5640 C   0  0  0  0  0  0  0  0  0  0  0  0
  189.4970  176.7730  143.1050 C   0  0  1  0  0  3  0  0  0  0  0  0
  186.7590  178.6950  141.4310 C   0  0  0  0  0  2  0  0  0  0  0  0
  188.8720  177.6830  145.3080 C   0  0  0  0  0  0  0  0  0  0  0  0
  188.2000  178.2670  141.6030 C   0  0  2  0  0  3  0  0  0  0  0  0
  184.0660  178.0500  141.7670 C   0  0  0  0  0  0  0  0  0  0  0  0
  184.8320  177.9120  142.8140 C   0  0  0  0  0  3  0  0  0  0  0  0
  183.2990  178.1900  140.7150 C   0  0  0  0  0  0  0  0  0  0  0  0
  181.6580  179.6340  139.7800 O   0  0  0  0  0  0  0  0  0  0  0  0
  180.1160  179.8320  142.1490 C   0  0  0  0  0  1  0  0  0  0  0  0
  182.0680  178.9960  140.7900 C   0  0  0  0  0  0  0  0  0  0  0  0
  181.3360  179.0540  142.0160 N   0  0  0  0  0  2  0  0  0  0  0  0
  183.6550  177.5630  139.4800 N   0  0  0  0  0  2  0  0  0  0  0  0
  183.0110  176.4590  139.0290 O   0  0  0  0  0  1  0  0  0  0  0  0
  190.2030  176.8100  138.0620 C   0  0  0  0  0  2  0  0  0  0  0  0
  189.4690  175.5820  137.5510 C   0  0  0  0  0  2  0  0  0  0  0  0
  189.3660  176.2190  135.2540 O   0  0  0  0  0  1  0  0  0  0  0  0
  188.5730  175.9310  136.3680 C   0  0  1  0  0  3  0  0  0  0  0  0
  187.6380  174.7660  136.0530 C   0  0  1  0  0  3  0  0  0  0  0  0
  188.3110  173.5510  136.2050 O   0  0  0  0  0  1  0  0  0  0  0  0
  186.0850  173.7250  137.5320 O   0  0  0  0  0  1  0  0  0  0  0  0
  186.4440  174.7810  136.9500 C   0  0  0  0  0  0  0  0  0  0  0  0
  185.7210  175.9530  137.1410 O   0  0  0  0  0  0  0  0  0  0  0  0
  1  3  2  0  0  0  0
  2 14  2  0  0  0  0
  2 18  1  0  0  0  0
  3  6  1  0  0  0  0
  5  1  1  1  0  0  0
  5 17  1  0  0  0  0
  6  4  1  0  0  0  0
  7 15  1  0  0  0  0
  7  9  1  1  0  0  0
  8 14  1  0  0  0  0
  9 13  1  0  0  0  0
 10 20  1  6  0  0  0
 10  9  1  0  0  0  0
 13 17  1  0  0  0  0
 13 12  2  0  0  0  0
 14 11  1  0  0  0  0
 15 11  1  6  0  0  0
 15  5  1  0  0  0  0
 16 10  1  0  0  0  0
 17  6  2  0  0  0  0
 18 16  1  6  0  0  0
 18  7  1  0  0  0  0
 19 20  2  0  0  0  0
 21 24  1  0  0  0  0
 21 19  2  0  0  0  0
 22 24  2  0  0  0  0
 24 25  1  0  0  0  0
 25 23  1  0  0  0  0
 26 21  1  0  0  0  0
 27 26  1  0  0  0  0
 28  8  1  0  0  0  0
 29 28  1  0  0  0  0
 31 30  1  6  0  0  0
 31 29  1  0  0  0  0
 32 33  1  1  0  0  0
 32 31  1  0  0  0  0
 32 35  1  0  0  0  0
 35 36  2  0  0  0  0
 35 34  1  0  0  0  0
M  END
>  <MODEL>
4

>  <REMARK>
 VINA RESULT:      -8.8      2.293      3.215
  Name = 
  8 active torsions:
  status: ('A' for Active; 'I' for Inactive)
    1  A    between atoms: C_6  and  C_12
    2  A    between atoms: C_12  and  C_34
    3  A    between atoms: C_13  and  N_15
    4  A    between atoms: C_13  and  C_20
    5  A    between atoms: C_17  and  C_24
    6  A    between atoms: N_19  and  C_26
    7  A    between atoms: C_20  and  C_34
    8  A    between atoms: C_22  and  C_26
                            x       y       z     vdW  Elec       q    Type
                         _______ _______ _______ _____ _____    ______ ____

>  <TORSDO>
F 8

$$$$
=
 OpenBabel11032420093D

 36 39  0  0  1  0  0  0  0  0999 V2000
  187.5820  177.7890  148.2850 C   0  0  0  0  0  3  0  0  0  0  0  0
  185.4580  177.9120  143.5710 N   0  0  0  0  0  0  0  0  0  0  0  0
  188.7820  177.7810  148.8590 C   0  0  0  0  0  3  0  0  0  0  0  0
  191.2430  177.4720  148.0740 C   0  0  0  0  0  1  0  0  0  0  0  0
  187.6870  177.3810  146.8470 C   0  0  1  0  0  3  0  0  0  0  0  0
  189.7700  177.4180  147.8560 C   0  0  0  0  0  0  0  0  0  0  0  0
  187.6630  178.1920  144.4330 C   0  0  2  0  0  3  0  0  0  0  0  0
  183.6580  179.1820  144.4530 N   0  0  0  0  0  2  0  0  0  0  0  0
  188.9680  177.5780  144.2480 N   0  0  0  0  0  0  0  0  0  0  0  0
  188.9510  176.8360  142.9900 C   0  0  1  0  0  3  0  0  0  0  0  0
  185.6340  178.5910  145.9390 C   0  0  0  0  0  2  0  0  0  0  0  0
  190.9400  176.7350  145.1910 O   0  0  0  0  0  0  0  0  0  0  0  0
  189.7650  177.1580  145.3620 C   0  0  0  0  0  0  0  0  0  0  0  0
  184.9270  178.5420  144.5860 C   0  0  0  0  0  0  0  0  0  0  0  0
  187.1830  178.4570  145.8780 C   0  0  1  0  0  3  0  0  0  0  0  0
  187.4900  176.8790  142.5000 C   0  0  0  0  0  2  0  0  0  0  0  0
  189.1590  177.2340  146.6970 C   0  0  0  0  0  0  0  0  0  0  0  0
  186.7320  177.2420  143.7580 C   0  0  2  0  0  3  0  0  0  0  0  0
  189.5080  177.6130  140.7530 C   0  0  0  0  0  0  0  0  0  0  0  0
  189.8620  177.4850  142.0020 C   0  0  0  0  0  3  0  0  0  0  0  0
  189.1500  177.7420  139.5000 C   0  0  0  0  0  0  0  0  0  0  0  0
  189.5320  177.1440  137.2310 O   0  0  0  0  0  0  0  0  0  0  0  0
  191.5610  175.2500  137.8080 C   0  0  0  0  0  1  0  0  0  0  0  0
  189.8350  176.9750  138.4450 C   0  0  0  0  0  0  0  0  0  0  0  0
  190.8510  176.0350  138.8030 N   0  0  0  0  0  2  0  0  0  0  0  0
  188.0850  178.6280  139.1450 N   0  0  0  0  0  2  0  0  0  0  0  0
  186.8960  178.1660  138.6890 O   0  0  0  0  0  1  0  0  0  0  0  0
  182.9100  179.1800  143.2040 C   0  0  0  0  0  2  0  0  0  0  0  0
  181.4180  179.2400  143.4860 C   0  0  0  0  0  2  0  0  0  0  0  0
  179.6960  177.7180  142.8450 O   0  0  0  0  0  1  0  0  0  0  0  0
  180.6180  178.6370  142.3370 C   0  0  1  0  0  3  0  0  0  0  0  0
  179.8870  179.7360  141.5690 C   0  0  1  0  0  3  0  0  0  0  0  0
  179.7560  180.8770  142.3660 O   0  0  0  0  0  1  0  0  0  0  0  0
  180.3180  181.1430  139.6940 O   0  0  0  0  0  0  0  0  0  0  0  0
  180.6210  180.0930  140.3180 C   0  0  0  0  0  0  0  0  0  0  0  0
  181.6300  179.2690  139.8340 O   0  0  0  0  0  1  0  0  0  0  0  0
  1  3  2  0  0  0  0
  2 18  1  0  0  0  0
  2 14  2  0  0  0  0
  5  1  1  1  0  0  0
  6  4  1  0  0  0  0
  6  3  1  0  0  0  0
  7  9  1  1  0  0  0
  7 15  1  0  0  0  0
  8 14  1  0  0  0  0
  9 13  1  0  0  0  0
 10 20  1  6  0  0  0
 10  9  1  0  0  0  0
 12 13  2  0  0  0  0
 13 17  1  0  0  0  0
 14 11  1  0  0  0  0
 15 11  1  6  0  0  0
 15  5  1  0  0  0  0
 16 10  1  0  0  0  0
 17  5  1  0  0  0  0
 17  6  2  0  0  0  0
 18 16  1  6  0  0  0
 18  7  1  0  0  0  0
 19 20  2  0  0  0  0
 21 19  2  0  0  0  0
 22 24  2  0  0  0  0
 23 25  1  0  0  0  0
 24 25  1  0  0  0  0
 24 21  1  0  0  0  0
 26 21  1  0  0  0  0
 27 26  1  0  0  0  0
 28 29  1  0  0  0  0
 28  8  1  0  0  0  0
 31 30  1  1  0  0  0
 31 29  1  0  0  0  0
 32 31  1  0  0  0  0
 32 33  1  1  0  0  0
 34 35  2  0  0  0  0
 35 32  1  0  0  0  0
 36 35  1  0  0  0  0
M  END
>  <MODEL>
5

>  <REMARK>
 VINA RESULT:      -8.8      2.592      8.506
  Name = 
  8 active torsions:
  status: ('A' for Active; 'I' for Inactive)
    1  A    between atoms: C_6  and  C_12
    2  A    between atoms: C_12  and  C_34
    3  A    between atoms: C_13  and  N_15
    4  A    between atoms: C_13  and  C_20
    5  A    between atoms: C_17  and  C_24
    6  A    between atoms: N_19  and  C_26
    7  A    between atoms: C_20  and  C_34
    8  A    between atoms: C_22  and  C_26
                            x       y       z     vdW  Elec       q    Type
                         _______ _______ _______ _____ _____    ______ ____

>  <TORSDO>
F 8

$$$$
=
 OpenBabel11032420093D

 36 39  0  0  1  0  0  0  0  0999 V2000
  183.4150  178.9040  144.7870 C   0  0  0  0  0  3  0  0  0  0  0  0
  188.5320  178.1800  144.9970 N   0  0  0  0  0  0  0  0  0  0  0  0
  182.4160  178.8450  143.9120 C   0  0  0  0  0  3  0  0  0  0  0  0
  182.1860  178.6260  141.3290 C   0  0  0  0  0  1  0  0  0  0  0  0
  184.7300  179.0030  144.0750 C   0  0  1  0  0  3  0  0  0  0  0  0
  182.9780  178.8550  142.5700 C   0  0  0  0  0  0  0  0  0  0  0  0
  186.8350  177.7490  143.3800 C   0  0  2  0  0  3  0  0  0  0  0  0
  188.2940  177.3890  147.2220 N   0  0  0  0  0  2  0  0  0  0  0  0
  186.5580  178.1150  142.0000 N   0  0  0  0  0  0  0  0  0  0  0  0
  187.7980  178.5920  141.3940 C   0  0  1  0  0  3  0  0  0  0  0  0
  186.2270  177.9580  145.8560 C   0  0  0  0  0  2  0  0  0  0  0  0
  185.0160  178.8230  140.3840 O   0  0  0  0  0  0  0  0  0  0  0  0
  185.2780  178.6210  141.6000 C   0  0  0  0  0  0  0  0  0  0  0  0
  187.7450  177.8470  145.9860 C   0  0  0  0  0  0  0  0  0  0  0  0
  185.6810  177.8460  144.4030 C   0  0  1  0  0  3  0  0  0  0  0  0
  188.8210  178.6710  142.5440 C   0  0  0  0  0  2  0  0  0  0  0  0
  184.2970  178.8980  142.6560 C   0  0  0  0  0  0  0  0  0  0  0  0
  187.9350  178.6770  143.7710 C   0  0  2  0  0  3  0  0  0  0  0  0
  187.8720  177.7730  139.1040 C   0  0  0  0  0  0  0  0  0  0  0  0
  188.2540  177.6350  140.3430 C   0  0  0  0  0  3  0  0  0  0  0  0
  187.4880  177.9150  137.8600 C   0  0  0  0  0  0  0  0  0  0  0  0
  185.4730  177.3090  136.7520 O   0  0  0  0  0  0  0  0  0  0  0  0
  186.0850  174.5450  136.6100 C   0  0  0  0  0  1  0  0  0  0  0  0
  186.5750  176.9350  137.2440 C   0  0  0  0  0  0  0  0  0  0  0  0
  186.9440  175.5550  137.2050 N   0  0  0  0  0  2  0  0  0  0  0  0
  187.9490  179.0270  137.0890 N   0  0  0  0  0  2  0  0  0  0  0  0
  188.9790  179.8030  137.5020 O   0  0  0  0  0  1  0  0  0  0  0  0
  189.7270  177.2580  147.4380 C   0  0  0  0  0  2  0  0  0  0  0  0
  190.2730  176.0830  146.6440 C   0  0  0  0  0  2  0  0  0  0  0  0
  192.6110  175.6130  146.5750 O   0  0  0  0  0  1  0  0  0  0  0  0
  191.6190  176.4230  146.0150 C   0  0  1  0  0  3  0  0  0  0  0  0
  191.5650  176.2070  144.5040 C   0  0  1  0  0  3  0  0  0  0  0  0
  190.3130  175.7110  144.1310 O   0  0  0  0  0  1  0  0  0  0  0  0
  192.0360  177.4620  142.5330 O   0  0  0  0  0  0  0  0  0  0  0  0
  191.8250  177.4840  143.7730 C   0  0  0  0  0  0  0  0  0  0  0  0
  191.8440  178.6950  144.4550 O   0  0  0  0  0  1  0  0  0  0  0  0
  2 14  2  0  0  0  0
  3  1  2  0  0  0  0
  4  6  1  0  0  0  0
  5 15  1  0  0  0  0
  5  1  1  1  0  0  0
  6 17  2  0  0  0  0
  6  3  1  0  0  0  0
  7  9  1  6  0  0  0
  7 18  1  0  0  0  0
  7 15  1  0  0  0  0
  8 28  1  0  0  0  0
 10 20  1  6  0  0  0
 10  9  1  0  0  0  0
 10 16  1  0  0  0  0
 11 14  1  0  0  0  0
 12 13  2  0  0  0  0
 13  9  1  0  0  0  0
 13 17  1  0  0  0  0
 14  8  1  0  0  0  0
 15 11  1  1  0  0  0
 17  5  1  0  0  0  0
 18 16  1  6  0  0  0
 18  2  1  0  0  0  0
 19 20  2  0  0  0  0
 21 19  2  0  0  0  0
 22 24  2  0  0  0  0
 23 25  1  0  0  0  0
 24 21  1  0  0  0  0
 25 24  1  0  0  0  0
 26 27  1  0  0  0  0
 26 21  1  0  0  0  0
 29 28  1  0  0  0  0
 31 30  1  1  0  0  0
 31 29  1  0  0  0  0
 32 33  1  1  0  0  0
 32 31  1  0  0  0  0
 34 35  2  0  0  0  0
 35 36  1  0  0  0  0
 35 32  1  0  0  0  0
M  END
>  <MODEL>
6

>  <REMARK>
 VINA RESULT:      -8.6      3.553      6.425
  Name = 
  8 active torsions:
  status: ('A' for Active; 'I' for Inactive)
    1  A    between atoms: C_6  and  C_12
    2  A    between atoms: C_12  and  C_34
    3  A    between atoms: C_13  and  N_15
    4  A    between atoms: C_13  and  C_20
    5  A    between atoms: C_17  and  C_24
    6  A    between atoms: N_19  and  C_26
    7  A    between atoms: C_20  and  C_34
    8  A    between atoms: C_22  and  C_26
                            x       y       z     vdW  Elec       q    Type
                         _______ _______ _______ _____ _____    ______ ____

>  <TORSDO>
F 8

$$$$
=
 OpenBabel11032420093D

 36 39  0  0  1  0  0  0  0  0999 V2000
  190.0190  177.2950  138.0820 C   0  0  0  0  0  3  0  0  0  0  0  0
  189.3470  177.6820  143.1960 N   0  0  0  0  0  0  0  0  0  0  0  0
  189.3960  177.6060  136.9490 C   0  0  0  0  0  3  0  0  0  0  0  0
  187.0220  178.4270  136.2700 C   0  0  0  0  0  1  0  0  0  0  0  0
  189.0520  177.2940  139.2280 C   0  0  1  0  0  3  0  0  0  0  0  0
  187.9990  177.8770  137.2510 C   0  0  0  0  0  0  0  0  0  0  0  0
  188.2360  178.5630  141.2800 C   0  0  2  0  0  3  0  0  0  0  0  0
  191.6920  177.9500  143.4490 N   0  0  0  0  0  2  0  0  0  0  0  0
  186.8940  178.5410  140.7190 N   0  0  0  0  0  0  0  0  0  0  0  0
  185.9630  178.1520  141.7750 C   0  0  1  0  0  3  0  0  0  0  0  0
  190.6790  177.8210  141.1210 C   0  0  0  0  0  2  0  0  0  0  0  0
  185.5070  178.3060  138.8460 O   0  0  0  0  0  0  0  0  0  0  0  0
  186.6600  178.2090  139.3450 C   0  0  0  0  0  0  0  0  0  0  0  0
  190.5230  177.8190  142.6400 C   0  0  0  0  0  0  0  0  0  0  0  0
  189.4250  178.2930  140.3300 C   0  0  1  0  0  3  0  0  0  0  0  0
  186.8400  177.7560  142.9800 C   0  0  0  0  0  2  0  0  0  0  0  0
  187.8070  177.7470  138.5540 C   0  0  0  0  0  0  0  0  0  0  0  0
  188.1880  177.5140  142.3390 C   0  0  2  0  0  3  0  0  0  0  0  0
  184.1380  179.1730  143.0180 C   0  0  0  0  0  0  0  0  0  0  0  0
  185.0740  179.3010  142.1200 C   0  0  0  0  0  3  0  0  0  0  0  0
  183.1980  179.0430  143.9210 C   0  0  0  0  0  0  0  0  0  0  0  0
  180.8960  178.5630  144.2740 O   0  0  0  0  0  0  0  0  0  0  0  0
  180.0150  179.7690  141.8650 C   0  0  0  0  0  1  0  0  0  0  0  0
  181.7770  179.0790  143.5310 C   0  0  0  0  0  0  0  0  0  0  0  0
  181.3990  179.7030  142.3020 N   0  0  0  0  0  2  0  0  0  0  0  0
  183.5450  178.8590  145.2960 N   0  0  0  0  0  2  0  0  0  0  0  0
  184.7330  179.2780  145.7940 O   0  0  0  0  0  1  0  0  0  0  0  0
  191.6380  177.9520  144.9030 C   0  0  0  0  0  2  0  0  0  0  0  0
  191.4310  176.5400  145.4230 C   0  0  0  0  0  2  0  0  0  0  0  0
  191.6830  176.9850  147.7540 O   0  0  0  0  0  1  0  0  0  0  0  0
  190.7640  176.5520  146.7940 C   0  0  1  0  0  3  0  0  0  0  0  0
  189.5510  177.4790  146.7810 C   0  0  1  0  0  3  0  0  0  0  0  0
  188.5040  176.8960  146.0630 O   0  0  0  0  0  1  0  0  0  0  0  0
  189.6990  178.6270  148.8650 O   0  0  0  0  0  1  0  0  0  0  0  0
  189.0890  177.7730  148.1710 C   0  0  0  0  0  0  0  0  0  0  0  0
  187.9950  177.1040  148.7060 O   0  0  0  0  0  0  0  0  0  0  0  0
  3  6  1  0  0  0  0
  3  1  2  0  0  0  0
  4  6  1  0  0  0  0
  5  1  1  6  0  0  0
  5 15  1  0  0  0  0
  6 17  2  0  0  0  0
  7  9  1  6  0  0  0
  7 18  1  0  0  0  0
  8 28  1  0  0  0  0
  9 10  1  0  0  0  0
 10 20  1  1  0  0  0
 10 16  1  0  0  0  0
 11 14  1  0  0  0  0
 12 13  2  0  0  0  0
 13  9  1  0  0  0  0
 14  2  2  0  0  0  0
 14  8  1  0  0  0  0
 15 11  1  1  0  0  0
 15  7  1  0  0  0  0
 17  5  1  0  0  0  0
 17 13  1  0  0  0  0
 18 16  1  1  0  0  0
 18  2  1  0  0  0  0
 19 21  2  0  0  0  0
 20 19  2  0  0  0  0
 21 26  1  0  0  0  0
 23 25  1  0  0  0  0
 24 21  1  0  0  0  0
 24 22  2  0  0  0  0
 25 24  1  0  0  0  0
 26 27  1  0  0  0  0
 28 29  1  0  0  0  0
 29 31  1  0  0  0  0
 31 30  1  1  0  0  0
 32 33  1  6  0  0  0
 32 31  1  0  0  0  0
 32 35  1  0  0  0  0
 35 36  2  0  0  0  0
 35 34  1  0  0  0  0
M  END
>  <MODEL>
7

>  <REMARK>
 VINA RESULT:      -8.5      3.733      6.962
  Name = 
  8 active torsions:
  status: ('A' for Active; 'I' for Inactive)
    1  A    between atoms: C_6  and  C_12
    2  A    between atoms: C_12  and  C_34
    3  A    between atoms: C_13  and  N_15
    4  A    between atoms: C_13  and  C_20
    5  A    between atoms: C_17  and  C_24
    6  A    between atoms: N_19  and  C_26
    7  A    between atoms: C_20  and  C_34
    8  A    between atoms: C_22  and  C_26
                            x       y       z     vdW  Elec       q    Type
                         _______ _______ _______ _____ _____    ______ ____

>  <TORSDO>
F 8

$$$$
=
 OpenBabel11032420093D

 36 39  0  0  1  0  0  0  0  0999 V2000
  186.6160  178.0490  147.6670 C   0  0  0  0  0  3  0  0  0  0  0  0
  185.8910  177.6440  142.5620 N   0  0  0  0  0  0  0  0  0  0  0  0
  187.6060  178.1690  148.5460 C   0  0  0  0  0  3  0  0  0  0  0  0
  190.2000  177.9640  148.5000 C   0  0  0  0  0  1  0  0  0  0  0  0
  187.1360  177.5330  146.3590 C   0  0  1  0  0  3  0  0  0  0  0  0
  188.8500  177.7930  147.8920 C   0  0  0  0  0  0  0  0  0  0  0  0
  187.7530  178.1420  143.9640 C   0  0  2  0  0  3  0  0  0  0  0  0
  183.8630  178.8560  142.7880 N   0  0  0  0  0  2  0  0  0  0  0  0
  189.0820  177.6040  144.2050 N   0  0  0  0  0  0  0  0  0  0  0  0
  189.4490  176.7620  143.0690 C   0  0  1  0  0  3  0  0  0  0  0  0
  185.3690  178.5230  144.8100 C   0  0  0  0  0  2  0  0  0  0  0  0
  190.7460  176.9760  145.7300 O   0  0  0  0  0  0  0  0  0  0  0  0
  189.5540  177.3310  145.5300 C   0  0  0  0  0  0  0  0  0  0  0  0
  185.0710  178.3170  143.3260 C   0  0  0  0  0  0  0  0  0  0  0  0
  186.8780  178.4900  145.1890 C   0  0  1  0  0  3  0  0  0  0  0  0
  188.1820  176.6660  142.1950 C   0  0  0  0  0  2  0  0  0  0  0  0
  188.5960  177.4740  146.6340 C   0  0  0  0  0  0  0  0  0  0  0  0
  187.0890  177.0790  143.1560 C   0  0  2  0  0  3  0  0  0  0  0  0
  190.5790  177.3830  141.0060 C   0  0  0  0  0  0  0  0  0  0  0  0
  190.5710  177.3880  142.3100 C   0  0  0  0  0  3  0  0  0  0  0  0
  190.5850  177.3780  139.6960 C   0  0  0  0  0  0  0  0  0  0  0  0
  192.7790  176.9500  138.8860 O   0  0  0  0  0  0  0  0  0  0  0  0
  192.0970  174.5300  137.5780 C   0  0  0  0  0  1  0  0  0  0  0  0
  191.5750  176.5750  138.9570 C   0  0  0  0  0  0  0  0  0  0  0  0
  191.1660  175.3630  138.3200 N   0  0  0  0  0  2  0  0  0  0  0  0
  189.6240  178.1500  138.9710 N   0  0  0  0  0  2  0  0  0  0  0  0
  188.6340  178.8280  139.6000 O   0  0  0  0  0  1  0  0  0  0  0  0
  183.4950  178.7020  141.3890 C   0  0  0  0  0  2  0  0  0  0  0  0
  182.1190  178.0690  141.2750 C   0  0  0  0  0  2  0  0  0  0  0  0
  180.9570  179.0800  139.4520 O   0  0  0  0  0  1  0  0  0  0  0  0
  181.0760  179.0950  140.8450 C   0  0  1  0  0  3  0  0  0  0  0  0
  179.7270  178.7760  141.4850 C   0  0  1  0  0  3  0  0  0  0  0  0
  179.5440  177.3940  141.5650 O   0  0  0  0  0  1  0  0  0  0  0  0
  179.1890  178.6680  143.8050 O   0  0  0  0  0  1  0  0  0  0  0  0
  179.6350  179.3640  142.8560 C   0  0  0  0  0  0  0  0  0  0  0  0
  180.0310  180.6750  143.0880 O   0  0  0  0  0  0  0  0  0  0  0  0
  1  3  2  0  0  0  0
  2 18  1  0  0  0  0
  2 14  2  0  0  0  0
  5 17  1  0  0  0  0
  5  1  1  1  0  0  0
  6  4  1  0  0  0  0
  6  3  1  0  0  0  0
  7  9  1  1  0  0  0
  7 15  1  0  0  0  0
  8 14  1  0  0  0  0
  9 13  1  0  0  0  0
 10 20  1  6  0  0  0
 10  9  1  0  0  0  0
 13 12  2  0  0  0  0
 13 17  1  0  0  0  0
 14 11  1  0  0  0  0
 15 11  1  6  0  0  0
 15  5  1  0  0  0  0
 16 10  1  0  0  0  0
 17  6  2  0  0  0  0
 18 16  1  6  0  0  0
 18  7  1  0  0  0  0
 19 20  2  0  0  0  0
 21 19  2  0  0  0  0
 22 24  2  0  0  0  0
 23 25  1  0  0  0  0
 24 21  1  0  0  0  0
 25 24  1  0  0  0  0
 26 27  1  0  0  0  0
 26 21  1  0  0  0  0
 28  8  1  0  0  0  0
 29 28  1  0  0  0  0
 31 30  1  6  0  0  0
 31 29  1  0  0  0  0
 31 32  1  0  0  0  0
 32 33  1  1  0  0  0
 32 35  1  0  0  0  0
 35 36  2  0  0  0  0
 35 34  1  0  0  0  0
M  END
>  <MODEL>
8

>  <REMARK>
 VINA RESULT:      -8.3      2.088      8.780
  Name = 
  8 active torsions:
  status: ('A' for Active; 'I' for Inactive)
    1  A    between atoms: C_6  and  C_12
    2  A    between atoms: C_12  and  C_34
    3  A    between atoms: C_13  and  N_15
    4  A    between atoms: C_13  and  C_20
    5  A    between atoms: C_17  and  C_24
    6  A    between atoms: N_19  and  C_26
    7  A    between atoms: C_20  and  C_34
    8  A    between atoms: C_22  and  C_26
                            x       y       z     vdW  Elec       q    Type
                         _______ _______ _______ _____ _____    ______ ____

>  <TORSDO>
F 8

$$$$
=
 OpenBabel11032420093D

 36 39  0  0  1  0  0  0  0  0999 V2000
  183.1200  178.5910  140.8050 C   0  0  0  0  0  3  0  0  0  0  0  0
  188.1810  177.6910  140.2330 N   0  0  0  0  0  0  0  0  0  0  0  0
  182.2490  178.9310  141.7510 C   0  0  0  0  0  3  0  0  0  0  0  0
  182.2700  179.1340  144.3450 C   0  0  0  0  0  1  0  0  0  0  0  0
  184.3820  178.0650  141.4200 C   0  0  1  0  0  3  0  0  0  0  0  0
  182.8670  178.7070  143.0480 C   0  0  0  0  0  0  0  0  0  0  0  0
  186.8140  178.5800  141.9720 C   0  0  2  0  0  3  0  0  0  0  0  0
  188.0560  178.5830  138.0370 N   0  0  0  0  0  2  0  0  0  0  0  0
  186.5280  178.2780  143.3650 N   0  0  0  0  0  0  0  0  0  0  0  0
  187.5940  177.4200  143.8770 C   0  0  1  0  0  3  0  0  0  0  0  0
  186.0100  178.6460  139.5440 C   0  0  0  0  0  2  0  0  0  0  0  0
  184.9520  178.0370  145.0820 O   0  0  0  0  0  0  0  0  0  0  0  0
  185.1840  178.1840  143.8520 C   0  0  0  0  0  0  0  0  0  0  0  0
  187.4740  178.2830  139.3060 C   0  0  0  0  0  0  0  0  0  0  0  0
  185.6230  178.8790  141.0340 C   0  0  1  0  0  3  0  0  0  0  0  0
  188.4630  177.0610  142.6550 C   0  0  0  0  0  2  0  0  0  0  0  0
  184.0980  178.2580  142.8670 C   0  0  0  0  0  0  0  0  0  0  0  0
  187.5410  177.3680  141.4950 C   0  0  2  0  0  3  0  0  0  0  0  0
  189.6150  177.7910  145.1790 C   0  0  0  0  0  0  0  0  0  0  0  0
  188.3950  178.1560  144.8990 C   0  0  0  0  0  3  0  0  0  0  0  0
  190.8410  177.4230  145.4590 C   0  0  0  0  0  0  0  0  0  0  0  0
  190.3250  176.8780  147.7140 O   0  0  0  0  0  0  0  0  0  0  0  0
  192.8090  175.6200  148.2440 C   0  0  0  0  0  1  0  0  0  0  0  0
  191.1630  176.8360  146.7710 C   0  0  0  0  0  0  0  0  0  0  0  0
  192.4350  176.2160  146.9730 N   0  0  0  0  0  2  0  0  0  0  0  0
  191.8770  177.5850  144.4870 N   0  0  0  0  0  2  0  0  0  0  0  0
  191.6630  178.2350  143.3180 O   0  0  0  0  0  1  0  0  0  0  0  0
  189.4410  178.2680  137.7200 C   0  0  0  0  0  2  0  0  0  0  0  0
  189.5080  177.3770  136.4910 C   0  0  0  0  0  2  0  0  0  0  0  0
  191.2260  175.9440  135.6610 O   0  0  0  0  0  1  0  0  0  0  0  0
  190.3730  176.1490  136.7490 C   0  0  1  0  0  3  0  0  0  0  0  0
  191.1940  176.3410  138.0230 C   0  0  1  0  0  3  0  0  0  0  0  0
  190.6150  175.6370  139.0820 O   0  0  0  0  0  1  0  0  0  0  0  0
  192.8600  174.6410  137.8960 O   0  0  0  0  0  1  0  0  0  0  0  0
  192.5980  175.8700  137.8290 C   0  0  0  0  0  0  0  0  0  0  0  0
  193.6190  176.7800  137.5830 O   0  0  0  0  0  0  0  0  0  0  0  0
  1  3  2  0  0  0  0
  2 18  1  0  0  0  0
  3  6  1  0  0  0  0
  5  1  1  6  0  0  0
  5 17  1  0  0  0  0
  6  4  1  0  0  0  0
  7  9  1  1  0  0  0
  8 14  1  0  0  0  0
  9 13  1  0  0  0  0
  9 10  1  0  0  0  0
 10 20  1  1  0  0  0
 13 12  2  0  0  0  0
 14 11  1  0  0  0  0
 14  2  2  0  0  0  0
 15 11  1  6  0  0  0
 15  5  1  0  0  0  0
 15  7  1  0  0  0  0
 16 10  1  0  0  0  0
 17  6  2  0  0  0  0
 17 13  1  0  0  0  0
 18  7  1  0  0  0  0
 18 16  1  1  0  0  0
 19 21  2  0  0  0  0
 20 19  2  0  0  0  0
 21 24  1  0  0  0  0
 24 25  1  0  0  0  0
 24 22  2  0  0  0  0
 25 23  1  0  0  0  0
 26 21  1  0  0  0  0
 27 26  1  0  0  0  0
 28  8  1  0  0  0  0
 29 31  1  0  0  0  0
 29 28  1  0  0  0  0
 31 30  1  6  0  0  0
 31 32  1  0  0  0  0
 32 33  1  1  0  0  0
 35 34  1  0  0  0  0
 35 32  1  0  0  0  0
 36 35  2  0  0  0  0
M  END
>  <MODEL>
9

>  <REMARK>
 VINA RESULT:      -8.2      2.443      6.442
  Name = 
  8 active torsions:
  status: ('A' for Active; 'I' for Inactive)
    1  A    between atoms: C_6  and  C_12
    2  A    between atoms: C_12  and  C_34
    3  A    between atoms: C_13  and  N_15
    4  A    between atoms: C_13  and  C_20
    5  A    between atoms: C_17  and  C_24
    6  A    between atoms: N_19  and  C_26
    7  A    between atoms: C_20  and  C_34
    8  A    between atoms: C_22  and  C_26
                            x       y       z     vdW  Elec       q    Type
                         _______ _______ _______ _____ _____    ______ ____

>  <TORSDO>
F 8

$$$$
