=
 OpenBabel11042410163D

 55 61  0  0  1  0  0  0  0  0999 V2000
  187.5220  178.3580  141.8740 C   0  0  0  0  0  3  0  0  0  0  0  0
  187.4100  178.0600  146.0770 C   0  0  0  0  0  0  0  0  0  0  0  0
  188.6420  178.0970  143.9890 N   0  0  0  0  0  0  0  0  0  0  0  0
  186.2270  178.3940  143.9390 C   0  0  0  0  0  0  0  0  0  0  0  0
  184.9480  178.2090  147.4510 C   0  0  0  0  0  3  0  0  0  0  0  0
  188.6270  177.9930  145.3560 C   0  0  0  0  0  0  0  0  0  0  0  0
  186.2010  178.2660  145.3550 C   0  0  0  0  0  0  0  0  0  0  0  0
  186.3810  178.5570  141.1140 C   0  0  0  0  0  0  0  0  0  0  0  0
  185.0540  178.6160  143.1530 C   0  0  0  0  0  0  0  0  0  0  0  0
  189.7200  177.8550  145.9740 O   0  0  0  0  0  0  0  0  0  0  0  0
  185.1540  178.6880  141.7570 C   0  0  0  0  0  3  0  0  0  0  0  0
  187.4810  178.2870  143.2780 C   0  0  0  0  0  0  0  0  0  0  0  0
  188.5430  177.7100  148.3680 C   0  0  0  0  0  1  0  0  0  0  0  0
  189.9150  178.0540  143.2960 C   0  0  0  0  0  0  0  0  0  0  0  0
  190.2420  179.0030  142.5290 O   0  0  0  0  0  0  0  0  0  0  0  0
  187.3480  177.9330  147.5000 C   0  0  0  0  0  0  0  0  0  0  0  0
  186.1240  178.0100  148.1610 C   0  0  0  0  0  3  0  0  0  0  0  0
  184.9910  178.3340  146.0680 C   0  0  0  0  0  3  0  0  0  0  0  0
  186.4970  178.5790  139.6870 N   0  0  0  0  0  2  0  0  0  0  0  0
  185.4180  178.5080  138.7490 C   0  0  0  0  0  0  0  0  0  0  0  0
  184.2240  178.6360  139.1250 O   0  0  0  0  0  0  0  0  0  0  0  0
  188.9520  178.1590  135.6020 O   0  0  0  0  0  0  0  0  0  0  0  0
  184.2110  176.4520  137.2610 O   0  0  0  0  0  0  0  0  0  0  0  0
  185.7070  178.3060  137.2940 C   0  0  1  0  0  3  0  0  0  0  0  0
  187.1410  178.4730  137.0430 N   0  0  0  0  0  2  0  0  0  0  0  0
  185.9470  176.2380  135.6800 C   0  0  0  0  0  2  0  0  0  0  0  0
  187.7330  177.9550  135.8500 C   0  0  0  0  0  0  0  0  0  0  0  0
  185.2250  176.9600  136.7950 C   0  0  0  0  0  0  0  0  0  0  0  0
  186.8910  177.1590  134.9010 C   0  0  0  0  0  2  0  0  0  0  0  0
  191.0820  176.0370  142.2620 C   0  0  2  0  0  3  0  0  0  0  0  0
  190.2150  175.6700  143.3110 O   0  0  0  0  0  0  0  0  0  0  0  0
  190.8770  176.9050  143.4700 C   0  0  2  0  0  3  0  0  0  0  0  0
  190.2420  176.3780  141.0320 C   0  0  0  0  0  2  0  0  0  0  0  0
  190.3160  177.4060  138.7870 C   0  0  0  0  0  1  0  0  0  0  0  0
  191.1190  176.6470  139.8220 C   0  0  0  0  0  3  0  0  0  0  0  0
  192.3220  177.4780  140.2190 C   0  0  0  0  0  1  0  0  0  0  0  0
  183.7970  178.7740  143.7550 O   0  0  0  0  0  0  0  0  0  0  0  0
  182.6160  179.0880  143.0240 C   0  0  0  0  0  2  0  0  0  0  0  0
  181.3920  178.6580  143.8100 C   0  0  0  0  0  2  0  0  0  0  0  0
  180.1400  178.8550  142.9730 C   0  0  0  0  0  2  0  0  0  0  0  0
  179.3780  175.8000  139.0430 N   0  0  0  0  0  0  0  0  0  0  0  0
  179.7400  177.5820  142.3840 N   0  0  0  0  0  2  0  0  0  0  0  0
  179.9140  177.2630  141.0010 C   0  0  0  0  0  0  0  0  0  0  0  0
  178.9420  175.1140  141.2480 O   0  0  0  0  0  0  0  0  0  0  0  0
  180.5320  178.0870  140.1980 N   0  0  0  0  0  0  0  0  0  0  0  0
  179.3800  175.9980  140.4690 C   0  0  0  0  0  0  0  0  0  0  0  0
  179.6730  176.9440  138.1850 C   0  0  0  0  0  2  0  0  0  0  0  0
  180.8140  177.7620  138.7940 C   0  0  0  0  0  2  0  0  0  0  0  0
  180.1900  173.4780  138.8340 C   0  0  0  0  0  2  0  0  0  0  0  0
  179.1210  174.5010  138.4230 C   0  0  0  0  0  3  0  0  0  0  0  0
  179.1760  170.7090  136.1470 Cl  0  0  0  0  0  0  0  0  0  0  0  0
  180.2550  172.2770  137.8820 C   0  0  0  0  0  2  0  0  0  0  0  0
  179.0170  172.1480  137.1170 N   0  0  0  0  0  0  0  0  0  0  0  0
  178.9370  173.2720  136.1860 C   0  0  0  0  0  2  0  0  0  0  0  0
  178.9810  174.6330  136.9010 C   0  0  0  0  0  2  0  0  0  0  0  0
  1 12  1  0  0  0  0
  2 16  1  0  0  0  0
  3  6  1  0  0  0  0
  4  7  1  0  0  0  0
  5 17  1  0  0  0  0
  6 10  2  0  0  0  0
  6  2  1  0  0  0  0
  7 18  1  0  0  0  0
  7  2  2  0  0  0  0
  8 11  1  0  0  0  0
  8  1  2  0  0  0  0
  9 37  1  0  0  0  0
  9  4  1  0  0  0  0
 11  9  2  0  0  0  0
 12  4  2  0  0  0  0
 12  3  1  0  0  0  0
 14  3  1  0  0  0  0
 15 14  2  0  0  0  0
 16 17  2  0  0  0  0
 16 13  1  0  0  0  0
 18  5  2  0  0  0  0
 19  8  1  0  0  0  0
 20 21  2  0  0  0  0
 20 19  1  0  0  0  0
 22 27  2  0  0  0  0
 24 20  1  1  0  0  0
 25 24  1  0  0  0  0
 26 28  1  0  0  0  0
 27 25  1  0  0  0  0
 28 23  2  0  0  0  0
 28 24  1  0  0  0  0
 29 26  1  0  0  0  0
 29 27  1  0  0  0  0
 30 33  1  6  0  0  0
 30 31  1  0  0  0  0
 30 32  1  0  0  0  0
 31 32  1  0  0  0  0
 32 14  1  6  0  0  0
 34 35  1  0  0  0  0
 35 36  1  0  0  0  0
 35 33  1  0  0  0  0
 38 37  1  0  0  0  0
 38 39  1  0  0  0  0
 40 39  1  0  0  0  0
 41 46  1  0  0  0  0
 42 40  1  0  0  0  0
 43 42  1  0  0  0  0
 45 43  2  0  0  0  0
 46 43  1  0  0  0  0
 46 44  2  0  0  0  0
 47 48  1  0  0  0  0
 47 41  1  0  0  0  0
 48 45  1  0  0  0  0
 50 49  1  0  0  0  0
 50 41  1  0  0  0  0
 51 53  1  0  0  0  0
 52 49  1  0  0  0  0
 53 52  1  0  0  0  0
 54 55  1  0  0  0  0
 54 53  1  0  0  0  0
 55 50  1  0  0  0  0
M  END
>  <MODEL>
1

>  <REMARK>
 VINA RESULT:      -8.4      0.000      0.000
  Name = 
  11 active torsions:
  status: ('A' for Active; 'I' for Inactive)
    1  A    between atoms: C_3  and  C_23
    2  A    between atoms: C_3  and  C_37
    3  A    between atoms: N_4  and  C_21
    4  A    between atoms: C_6  and  C_25
    5  A    between atoms: C_7  and  N_17
    6  A    between atoms: C_10  and  O_35
    7  A    between atoms: C_10  and  C_52
    8  A    between atoms: N_20  and  C_36
    9  A    between atoms: C_22  and  O_35
   10  A    between atoms: C_36  and  C_52
   11  A    between atoms: C_39  and  C_51
                            x       y       z     vdW  Elec       q    Type
                         _______ _______ _______ _____ _____    ______ ____

>  <TORSDO>
F 11

$$$$
=
 OpenBabel11042410163D

 55 61  0  0  1  0  0  0  0  0999 V2000
  188.6120  176.0100  137.4060 C   0  0  0  0  0  3  0  0  0  0  0  0
  192.5660  174.8000  136.5850 C   0  0  0  0  0  0  0  0  0  0  0  0
  190.2120  174.8780  136.0070 N   0  0  0  0  0  0  0  0  0  0  0  0
  190.9740  176.0260  138.0140 C   0  0  0  0  0  0  0  0  0  0  0  0
  194.6640  175.5000  138.3400 C   0  0  0  0  0  3  0  0  0  0  0  0
  191.4900  174.4710  135.7240 C   0  0  0  0  0  0  0  0  0  0  0  0
  192.2980  175.5900  137.7380 C   0  0  0  0  0  0  0  0  0  0  0  0
  188.2860  176.7770  138.5130 C   0  0  0  0  0  0  0  0  0  0  0  0
  190.6350  176.8320  139.1460 C   0  0  0  0  0  0  0  0  0  0  0  0
  191.7060  173.8090  134.6700 O   0  0  0  0  0  0  0  0  0  0  0  0
  189.2990  177.1870  139.3740 C   0  0  0  0  0  3  0  0  0  0  0  0
  189.9370  175.6330  137.1230 C   0  0  0  0  0  0  0  0  0  0  0  0
  194.3170  173.5430  135.1670 C   0  0  0  0  0  1  0  0  0  0  0  0
  189.1480  174.5440  135.0810 C   0  0  0  0  0  0  0  0  0  0  0  0
  188.4320  175.4630  134.5940 O   0  0  0  0  0  0  0  0  0  0  0  0
  193.9090  174.3770  136.3380 C   0  0  0  0  0  0  0  0  0  0  0  0
  194.9310  174.7320  137.2160 C   0  0  0  0  0  3  0  0  0  0  0  0
  193.3640  175.9190  138.5940 C   0  0  0  0  0  3  0  0  0  0  0  0
  186.9100  177.0870  138.7550 N   0  0  0  0  0  2  0  0  0  0  0  0
  186.2130  178.2530  138.3010 C   0  0  0  0  0  0  0  0  0  0  0  0
  186.7240  179.0200  137.4440 O   0  0  0  0  0  0  0  0  0  0  0  0
  183.0150  181.7270  138.7690 O   0  0  0  0  0  0  0  0  0  0  0  0
  184.0000  176.6210  137.7220 O   0  0  0  0  0  0  0  0  0  0  0  0
  184.8440  178.5550  138.8270 C   0  0  1  0  0  3  0  0  0  0  0  0
  184.5780  179.9930  138.7290 N   0  0  0  0  0  2  0  0  0  0  0  0
  182.3770  178.3180  137.9350 C   0  0  0  0  0  2  0  0  0  0  0  0
  183.2380  180.4870  138.7840 C   0  0  0  0  0  0  0  0  0  0  0  0
  183.7690  177.7570  138.1200 C   0  0  0  0  0  0  0  0  0  0  0  0
  182.1020  179.5150  138.8520 C   0  0  0  0  0  2  0  0  0  0  0  0
  187.4650  172.6390  134.8870 C   0  0  2  0  0  3  0  0  0  0  0  0
  188.5100  172.3370  135.7840 O   0  0  0  0  0  0  0  0  0  0  0  0
  188.8710  173.1190  134.6680 C   0  0  2  0  0  3  0  0  0  0  0  0
  186.5100  173.6210  135.5630 C   0  0  0  0  0  2  0  0  0  0  0  0
  185.3030  171.4730  135.7380 C   0  0  0  0  0  1  0  0  0  0  0  0
  185.3690  172.8950  136.2540 C   0  0  0  0  0  3  0  0  0  0  0  0
  185.5980  172.8640  137.7520 C   0  0  0  0  0  1  0  0  0  0  0  0
  191.6220  177.2850  140.0330 O   0  0  0  0  0  0  0  0  0  0  0  0
  191.3300  177.7930  141.3310 C   0  0  0  0  0  2  0  0  0  0  0  0
  191.9100  176.8730  142.3880 C   0  0  0  0  0  2  0  0  0  0  0  0
  190.7970  176.2980  143.2470 C   0  0  0  0  0  2  0  0  0  0  0  0
  186.1420  177.9760  144.1790 N   0  0  0  0  0  0  0  0  0  0  0  0
  189.5170  176.8580  142.8280 N   0  0  0  0  0  2  0  0  0  0  0  0
  188.5110  177.2970  143.7440 C   0  0  0  0  0  0  0  0  0  0  0  0
  187.0280  177.9270  142.0030 O   0  0  0  0  0  0  0  0  0  0  0  0
  188.7320  177.2940  145.0310 N   0  0  0  0  0  0  0  0  0  0  0  0
  187.2040  177.7460  143.2350 C   0  0  0  0  0  0  0  0  0  0  0  0
  186.3300  177.5240  145.5560 C   0  0  0  0  0  2  0  0  0  0  0  0
  187.7630  177.8200  146.0020 C   0  0  0  0  0  2  0  0  0  0  0  0
  183.8870  178.5850  144.9770 C   0  0  0  0  0  2  0  0  0  0  0  0
  184.9010  178.6640  143.8260 C   0  0  0  0  0  3  0  0  0  0  0  0
  180.7630  179.9020  142.8720 Cl  0  0  0  0  0  0  0  0  0  0  0  0
  182.4490  178.8580  144.5160 C   0  0  0  0  0  2  0  0  0  0  0  0
  182.4350  179.5740  143.2420 N   0  0  0  0  0  0  0  0  0  0  0  0
  182.9230  178.6680  142.2040 C   0  0  0  0  0  2  0  0  0  0  0  0
  184.3360  178.1390  142.5000 C   0  0  0  0  0  2  0  0  0  0  0  0
  1  8  1  0  0  0  0
  2  7  1  0  0  0  0
  3 12  1  0  0  0  0
  4  9  2  0  0  0  0
  5 18  1  0  0  0  0
  6  3  1  0  0  0  0
  6  2  1  0  0  0  0
  7  4  1  0  0  0  0
  7 18  2  0  0  0  0
  8 19  1  0  0  0  0
  8 11  2  0  0  0  0
  9 11  1  0  0  0  0
  9 37  1  0  0  0  0
 10  6  2  0  0  0  0
 12  1  2  0  0  0  0
 12  4  1  0  0  0  0
 13 16  1  0  0  0  0
 14  3  1  0  0  0  0
 15 14  2  0  0  0  0
 16  2  2  0  0  0  0
 16 17  1  0  0  0  0
 17  5  2  0  0  0  0
 20 19  1  0  0  0  0
 21 20  2  0  0  0  0
 22 27  2  0  0  0  0
 23 28  2  0  0  0  0
 24 20  1  6  0  0  0
 25 27  1  0  0  0  0
 25 24  1  0  0  0  0
 26 28  1  0  0  0  0
 26 29  1  0  0  0  0
 27 29  1  0  0  0  0
 28 24  1  0  0  0  0
 30 33  1  1  0  0  0
 30 31  1  0  0  0  0
 32 30  1  0  0  0  0
 32 14  1  1  0  0  0
 32 31  1  0  0  0  0
 33 35  1  0  0  0  0
 34 35  1  0  0  0  0
 35 36  1  0  0  0  0
 37 38  1  0  0  0  0
 38 39  1  0  0  0  0
 39 40  1  0  0  0  0
 41 47  1  0  0  0  0
 42 40  1  0  0  0  0
 42 43  1  0  0  0  0
 43 45  2  0  0  0  0
 44 46  2  0  0  0  0
 45 48  1  0  0  0  0
 46 43  1  0  0  0  0
 46 41  1  0  0  0  0
 47 48  1  0  0  0  0
 50 41  1  0  0  0  0
 50 49  1  0  0  0  0
 51 53  1  0  0  0  0
 52 49  1  0  0  0  0
 53 52  1  0  0  0  0
 54 55  1  0  0  0  0
 54 53  1  0  0  0  0
 55 50  1  0  0  0  0
M  END
>  <MODEL>
2

>  <REMARK>
 VINA RESULT:      -8.2      3.581      8.845
  Name = 
  11 active torsions:
  status: ('A' for Active; 'I' for Inactive)
    1  A    between atoms: C_3  and  C_23
    2  A    between atoms: C_3  and  C_37
    3  A    between atoms: N_4  and  C_21
    4  A    between atoms: C_6  and  C_25
    5  A    between atoms: C_7  and  N_17
    6  A    between atoms: C_10  and  O_35
    7  A    between atoms: C_10  and  C_52
    8  A    between atoms: N_20  and  C_36
    9  A    between atoms: C_22  and  O_35
   10  A    between atoms: C_36  and  C_52
   11  A    between atoms: C_39  and  C_51
                            x       y       z     vdW  Elec       q    Type
                         _______ _______ _______ _____ _____    ______ ____

>  <TORSDO>
F 11

$$$$
=
 OpenBabel11042410163D

 55 61  0  0  1  0  0  0  0  0999 V2000
  187.7140  178.3820  140.8350 C   0  0  0  0  0  3  0  0  0  0  0  0
  191.2860  176.9170  139.1420 C   0  0  0  0  0  0  0  0  0  0  0  0
  190.0140  177.7010  141.0520 N   0  0  0  0  0  0  0  0  0  0  0  0
  188.9140  177.5430  138.8860 C   0  0  0  0  0  0  0  0  0  0  0  0
  191.4110  176.3050  136.3880 C   0  0  0  0  0  3  0  0  0  0  0  0
  191.1860  177.2300  140.5190 C   0  0  0  0  0  0  0  0  0  0  0  0
  190.1320  177.0740  138.3230 C   0  0  0  0  0  0  0  0  0  0  0  0
  186.5590  178.5590  140.0920 C   0  0  0  0  0  0  0  0  0  0  0  0
  187.7150  177.7110  138.1260 C   0  0  0  0  0  0  0  0  0  0  0  0
  192.1820  177.0580  141.2790 O   0  0  0  0  0  0  0  0  0  0  0  0
  186.5640  178.2190  138.7420 C   0  0  0  0  0  3  0  0  0  0  0  0
  188.8950  177.8670  140.2700 C   0  0  0  0  0  0  0  0  0  0  0  0
  193.7710  176.2430  139.2930 C   0  0  0  0  0  1  0  0  0  0  0  0
  189.9500  177.9780  142.4730 C   0  0  0  0  0  0  0  0  0  0  0  0
  189.0650  177.4210  143.1800 O   0  0  0  0  0  0  0  0  0  0  0  0
  192.4950  176.4450  138.5430 C   0  0  0  0  0  0  0  0  0  0  0  0
  192.5380  176.1480  137.1820 C   0  0  0  0  0  3  0  0  0  0  0  0
  190.2280  176.7630  136.9550 C   0  0  0  0  0  3  0  0  0  0  0  0
  185.4090  179.1260  140.7290 N   0  0  0  0  0  2  0  0  0  0  0  0
  184.7170  178.5850  141.8600 C   0  0  0  0  0  0  0  0  0  0  0  0
  185.2120  177.6450  142.5340 O   0  0  0  0  0  0  0  0  0  0  0  0
  180.0310  178.0960  141.2930 O   0  0  0  0  0  0  0  0  0  0  0  0
  184.0930  179.1200  144.5480 O   0  0  0  0  0  0  0  0  0  0  0  0
  183.3970  179.1610  142.2700 C   0  0  1  0  0  3  0  0  0  0  0  0
  182.3170  178.5190  141.5140 N   0  0  0  0  0  2  0  0  0  0  0  0
  181.7600  178.8780  144.3140 C   0  0  0  0  0  2  0  0  0  0  0  0
  180.9670  178.5880  141.9780 C   0  0  0  0  0  0  0  0  0  0  0  0
  183.1570  179.0420  143.7600 C   0  0  0  0  0  0  0  0  0  0  0  0
  180.6790  179.2450  143.2930 C   0  0  0  0  0  2  0  0  0  0  0  0
  191.6270  178.3680  144.3540 C   0  0  2  0  0  3  0  0  0  0  0  0
  190.5050  179.2150  144.4580 O   0  0  0  0  0  0  0  0  0  0  0  0
  190.9240  178.9150  143.1450 C   0  0  2  0  0  3  0  0  0  0  0  0
  191.2200  176.9630  144.7970 C   0  0  0  0  0  2  0  0  0  0  0  0
  189.9400  176.6140  146.8810 C   0  0  0  0  0  1  0  0  0  0  0  0
  191.3270  176.8070  146.3040 C   0  0  0  0  0  3  0  0  0  0  0  0
  192.1760  175.6000  146.6490 C   0  0  0  0  0  1  0  0  0  0  0  0
  187.6640  177.3650  136.7670 O   0  0  0  0  0  0  0  0  0  0  0  0
  186.5420  176.7270  136.1670 C   0  0  0  0  0  2  0  0  0  0  0  0
  186.3560  175.3430  136.7570 C   0  0  0  0  0  2  0  0  0  0  0  0
  184.8870  175.0930  137.0490 C   0  0  0  0  0  2  0  0  0  0  0  0
  181.1720  178.4610  136.5920 N   0  0  0  0  0  0  0  0  0  0  0  0
  184.2350  176.3520  137.3910 N   0  0  0  0  0  2  0  0  0  0  0  0
  182.9270  176.7120  136.9370 C   0  0  0  0  0  0  0  0  0  0  0  0
  182.9850  178.8060  138.0470 O   0  0  0  0  0  0  0  0  0  0  0  0
  182.2060  175.8710  136.2450 N   0  0  0  0  0  0  0  0  0  0  0  0
  182.3900  178.0490  137.2390 C   0  0  0  0  0  0  0  0  0  0  0  0
  180.6610  177.6450  135.4940 C   0  0  0  0  0  2  0  0  0  0  0  0
  180.8260  176.1630  135.8360 C   0  0  0  0  0  2  0  0  0  0  0  0
  180.7580  180.8490  136.1200 C   0  0  0  0  0  2  0  0  0  0  0  0
  180.4150  179.6420  137.0050 C   0  0  0  0  0  3  0  0  0  0  0  0
  178.9670  183.5760  138.4160 Cl  0  0  0  0  0  0  0  0  0  0  0  0
  180.3770  182.1850  136.7700 C   0  0  0  0  0  2  0  0  0  0  0  0
  179.3800  181.9910  137.8210 N   0  0  0  0  0  0  0  0  0  0  0  0
  180.0180  181.2820  138.9290 C   0  0  0  0  0  2  0  0  0  0  0  0
  180.6090  179.9280  138.5000 C   0  0  0  0  0  2  0  0  0  0  0  0
  2  6  1  0  0  0  0
  3 14  1  0  0  0  0
  4 12  2  0  0  0  0
  5 18  2  0  0  0  0
  5 17  1  0  0  0  0
  6  3  1  0  0  0  0
  6 10  2  0  0  0  0
  7  4  1  0  0  0  0
  7  2  2  0  0  0  0
  8 19  1  0  0  0  0
  8  1  2  0  0  0  0
  9 11  2  0  0  0  0
  9  4  1  0  0  0  0
 11  8  1  0  0  0  0
 12  1  1  0  0  0  0
 12  3  1  0  0  0  0
 14 15  2  0  0  0  0
 16  2  1  0  0  0  0
 16 13  1  0  0  0  0
 17 16  2  0  0  0  0
 18  7  1  0  0  0  0
 19 20  1  0  0  0  0
 20 21  2  0  0  0  0
 22 27  2  0  0  0  0
 24 20  1  1  0  0  0
 24 28  1  0  0  0  0
 25 27  1  0  0  0  0
 25 24  1  0  0  0  0
 27 29  1  0  0  0  0
 28 26  1  0  0  0  0
 28 23  2  0  0  0  0
 29 26  1  0  0  0  0
 30 31  1  0  0  0  0
 30 33  1  6  0  0  0
 32 14  1  6  0  0  0
 32 30  1  0  0  0  0
 32 31  1  0  0  0  0
 33 35  1  0  0  0  0
 35 36  1  0  0  0  0
 35 34  1  0  0  0  0
 37  9  1  0  0  0  0
 38 39  1  0  0  0  0
 38 37  1  0  0  0  0
 39 40  1  0  0  0  0
 40 42  1  0  0  0  0
 41 50  1  0  0  0  0
 41 46  1  0  0  0  0
 43 46  1  0  0  0  0
 43 42  1  0  0  0  0
 45 43  2  0  0  0  0
 46 44  2  0  0  0  0
 47 48  1  0  0  0  0
 47 41  1  0  0  0  0
 48 45  1  0  0  0  0
 49 52  1  0  0  0  0
 49 50  1  0  0  0  0
 50 55  1  0  0  0  0
 52 53  1  0  0  0  0
 53 51  1  0  0  0  0
 53 54  1  0  0  0  0
 55 54  1  0  0  0  0
M  END
>  <MODEL>
3

>  <REMARK>
 VINA RESULT:      -8.2      3.054      7.185
  Name = 
  11 active torsions:
  status: ('A' for Active; 'I' for Inactive)
    1  A    between atoms: C_3  and  C_23
    2  A    between atoms: C_3  and  C_37
    3  A    between atoms: N_4  and  C_21
    4  A    between atoms: C_6  and  C_25
    5  A    between atoms: C_7  and  N_17
    6  A    between atoms: C_10  and  O_35
    7  A    between atoms: C_10  and  C_52
    8  A    between atoms: N_20  and  C_36
    9  A    between atoms: C_22  and  O_35
   10  A    between atoms: C_36  and  C_52
   11  A    between atoms: C_39  and  C_51
                            x       y       z     vdW  Elec       q    Type
                         _______ _______ _______ _____ _____    ______ ____

>  <TORSDO>
F 11

$$$$
=
 OpenBabel11042410163D

 55 61  0  0  1  0  0  0  0  0999 V2000
  182.6040  175.9040  136.4980 C   0  0  0  0  0  3  0  0  0  0  0  0
  185.2910  172.8180  135.4850 C   0  0  0  0  0  0  0  0  0  0  0  0
  183.0310  173.6630  135.7250 N   0  0  0  0  0  0  0  0  0  0  0  0
  184.9030  175.1400  136.2180 C   0  0  0  0  0  0  0  0  0  0  0  0
  188.0770  173.2340  135.6790 C   0  0  0  0  0  3  0  0  0  0  0  0
  183.8890  172.6460  135.3950 C   0  0  0  0  0  0  0  0  0  0  0  0
  185.7970  174.0830  135.8980 C   0  0  0  0  0  0  0  0  0  0  0  0
  183.0330  177.1550  136.9100 C   0  0  0  0  0  0  0  0  0  0  0  0
  185.3410  176.4380  136.6270 C   0  0  0  0  0  0  0  0  0  0  0  0
  183.4120  171.5480  134.9880 O   0  0  0  0  0  0  0  0  0  0  0  0
  184.3980  177.4170  136.9680 C   0  0  0  0  0  3  0  0  0  0  0  0
  183.5060  174.8870  136.1350 C   0  0  0  0  0  0  0  0  0  0  0  0
  185.8140  170.4070  134.7310 C   0  0  0  0  0  1  0  0  0  0  0  0
  181.6040  173.4510  135.5870 C   0  0  0  0  0  0  0  0  0  0  0  0
  180.9200  174.2380  134.8750 O   0  0  0  0  0  0  0  0  0  0  0  0
  186.2190  171.7760  135.1720 C   0  0  0  0  0  0  0  0  0  0  0  0
  187.5900  172.0000  135.2740 C   0  0  0  0  0  3  0  0  0  0  0  0
  187.1890  174.2570  135.9870 C   0  0  0  0  0  3  0  0  0  0  0  0
  182.0550  178.1250  137.3010 N   0  0  0  0  0  2  0  0  0  0  0  0
  181.9100  178.7020  138.6040 C   0  0  0  0  0  0  0  0  0  0  0  0
  182.7980  178.5480  139.4820 O   0  0  0  0  0  0  0  0  0  0  0  0
  179.6570  180.9050  142.1510 O   0  0  0  0  0  0  0  0  0  0  0  0
  181.1810  180.9410  137.0700 O   0  0  0  0  0  0  0  0  0  0  0  0
  180.7000  179.5240  138.9240 C   0  0  1  0  0  3  0  0  0  0  0  0
  180.6030  179.7250  140.3720 N   0  0  0  0  0  2  0  0  0  0  0  0
  180.0590  182.0760  138.8050 C   0  0  0  0  0  2  0  0  0  0  0  0
  179.7950  180.7760  140.9050 C   0  0  0  0  0  0  0  0  0  0  0  0
  180.6980  180.8500  138.1930 C   0  0  0  0  0  0  0  0  0  0  0  0
  179.1220  181.7280  139.9660 C   0  0  0  0  0  2  0  0  0  0  0  0
  180.1670  172.6440  137.5330 C   0  0  2  0  0  3  0  0  0  0  0  0
  181.4520  172.0650  137.5450 O   0  0  0  0  0  0  0  0  0  0  0  0
  180.9010  172.3020  136.2680 C   0  0  2  0  0  3  0  0  0  0  0  0
  180.2790  174.0910  138.0120 C   0  0  0  0  0  2  0  0  0  0  0  0
  179.5270  173.9830  140.3630 C   0  0  0  0  0  1  0  0  0  0  0  0
  179.1540  174.4430  138.9690 C   0  0  0  0  0  3  0  0  0  0  0  0
  178.9320  175.9420  138.9890 C   0  0  0  0  0  1  0  0  0  0  0  0
  186.7050  176.7570  136.6840 O   0  0  0  0  0  0  0  0  0  0  0  0
  187.2480  177.9600  136.1490 C   0  0  0  0  0  2  0  0  0  0  0  0
  188.2330  178.5640  137.1300 C   0  0  0  0  0  2  0  0  0  0  0  0
  188.7390  177.4980  138.0860 C   0  0  0  0  0  2  0  0  0  0  0  0
  189.3130  177.3260  143.0850 N   0  0  0  0  0  0  0  0  0  0  0  0
  188.3260  177.8230  139.4460 N   0  0  0  0  0  2  0  0  0  0  0  0
  189.1240  177.5480  140.6010 C   0  0  0  0  0  0  0  0  0  0  0  0
  187.5040  178.4430  142.0840 O   0  0  0  0  0  0  0  0  0  0  0  0
  190.3270  177.0570  140.4780 N   0  0  0  0  0  0  0  0  0  0  0  0
  188.5810  177.8090  141.9440 C   0  0  0  0  0  0  0  0  0  0  0  0
  190.4190  176.4000  142.8570 C   0  0  0  0  0  2  0  0  0  0  0  0
  191.2160  176.8440  141.6290 C   0  0  0  0  0  2  0  0  0  0  0  0
  190.1500  177.3420  145.4080 C   0  0  0  0  0  2  0  0  0  0  0  0
  189.0160  177.7450  144.4540 C   0  0  0  0  0  3  0  0  0  0  0  0
  188.1530  178.0960  148.7780 Cl  0  0  0  0  0  0  0  0  0  0  0  0
  189.7080  177.3220  146.8770 C   0  0  0  0  0  2  0  0  0  0  0  0
  188.5010  178.1230  147.0710 N   0  0  0  0  0  0  0  0  0  0  0  0
  187.3900  177.4420  146.4070 C   0  0  0  0  0  2  0  0  0  0  0  0
  187.6460  177.2220  144.9070 C   0  0  0  0  0  2  0  0  0  0  0  0
  1  8  1  0  0  0  0
  2  7  1  0  0  0  0
  3 12  1  0  0  0  0
  4  9  2  0  0  0  0
  5 18  1  0  0  0  0
  6  2  1  0  0  0  0
  6  3  1  0  0  0  0
  7 18  2  0  0  0  0
  7  4  1  0  0  0  0
  8 11  2  0  0  0  0
  8 19  1  0  0  0  0
  9 37  1  0  0  0  0
  9 11  1  0  0  0  0
 10  6  2  0  0  0  0
 12  4  1  0  0  0  0
 12  1  2  0  0  0  0
 13 16  1  0  0  0  0
 14  3  1  0  0  0  0
 15 14  2  0  0  0  0
 16 17  1  0  0  0  0
 16  2  2  0  0  0  0
 17  5  2  0  0  0  0
 19 20  1  0  0  0  0
 20 21  2  0  0  0  0
 23 28  2  0  0  0  0
 24 20  1  1  0  0  0
 24 25  1  0  0  0  0
 25 27  1  0  0  0  0
 26 29  1  0  0  0  0
 27 22  2  0  0  0  0
 28 26  1  0  0  0  0
 28 24  1  0  0  0  0
 29 27  1  0  0  0  0
 30 31  1  0  0  0  0
 30 33  1  6  0  0  0
 32 14  1  6  0  0  0
 32 30  1  0  0  0  0
 32 31  1  0  0  0  0
 33 35  1  0  0  0  0
 35 36  1  0  0  0  0
 35 34  1  0  0  0  0
 38 37  1  0  0  0  0
 38 39  1  0  0  0  0
 39 40  1  0  0  0  0
 40 42  1  0  0  0  0
 41 50  1  0  0  0  0
 42 43  1  0  0  0  0
 43 46  1  0  0  0  0
 45 43  2  0  0  0  0
 45 48  1  0  0  0  0
 46 44  2  0  0  0  0
 46 41  1  0  0  0  0
 47 41  1  0  0  0  0
 48 47  1  0  0  0  0
 49 52  1  0  0  0  0
 50 55  1  0  0  0  0
 50 49  1  0  0  0  0
 52 53  1  0  0  0  0
 53 51  1  0  0  0  0
 54 53  1  0  0  0  0
 55 54  1  0  0  0  0
M  END
>  <MODEL>
4

>  <REMARK>
 VINA RESULT:      -8.1      3.696     10.802
  Name = 
  11 active torsions:
  status: ('A' for Active; 'I' for Inactive)
    1  A    between atoms: C_3  and  C_23
    2  A    between atoms: C_3  and  C_37
    3  A    between atoms: N_4  and  C_21
    4  A    between atoms: C_6  and  C_25
    5  A    between atoms: C_7  and  N_17
    6  A    between atoms: C_10  and  O_35
    7  A    between atoms: C_10  and  C_52
    8  A    between atoms: N_20  and  C_36
    9  A    between atoms: C_22  and  O_35
   10  A    between atoms: C_36  and  C_52
   11  A    between atoms: C_39  and  C_51
                            x       y       z     vdW  Elec       q    Type
                         _______ _______ _______ _____ _____    ______ ____

>  <TORSDO>
F 11

$$$$
=
 OpenBabel11042410163D

 55 61  0  0  1  0  0  0  0  0999 V2000
  185.5580  179.0320  141.8300 C   0  0  0  0  0  3  0  0  0  0  0  0
  181.4170  178.6530  142.5180 C   0  0  0  0  0  0  0  0  0  0  0  0
  183.6650  179.0910  143.3160 N   0  0  0  0  0  0  0  0  0  0  0  0
  183.3180  178.6450  140.9480 C   0  0  0  0  0  0  0  0  0  0  0  0
  179.6700  178.0310  140.3890 C   0  0  0  0  0  3  0  0  0  0  0  0
  182.3210  178.9680  143.5610 C   0  0  0  0  0  0  0  0  0  0  0  0
  181.9280  178.4950  141.1990 C   0  0  0  0  0  0  0  0  0  0  0  0
  186.1170  178.8880  140.5700 C   0  0  0  0  0  0  0  0  0  0  0  0
  183.8970  178.5130  139.6470 C   0  0  0  0  0  0  0  0  0  0  0  0
  181.8910  179.1570  144.7340 O   0  0  0  0  0  0  0  0  0  0  0  0
  185.2840  178.6330  139.4860 C   0  0  0  0  0  3  0  0  0  0  0  0
  184.1730  178.9320  142.0480 C   0  0  0  0  0  0  0  0  0  0  0  0
  179.3580  178.6290  144.0720 C   0  0  0  0  0  1  0  0  0  0  0  0
  184.5480  179.4450  144.4090 C   0  0  0  0  0  0  0  0  0  0  0  0
  185.2940  180.4590  144.3070 O   0  0  0  0  0  0  0  0  0  0  0  0
  180.0130  178.4930  142.7360 C   0  0  0  0  0  0  0  0  0  0  0  0
  179.1660  178.1860  141.6730 C   0  0  0  0  0  3  0  0  0  0  0  0
  181.0320  178.1830  140.1610 C   0  0  0  0  0  3  0  0  0  0  0  0
  187.5400  178.9650  140.4340 N   0  0  0  0  0  2  0  0  0  0  0  0
  188.4030  177.9200  139.9710 C   0  0  0  0  0  0  0  0  0  0  0  0
  187.9340  176.8850  139.4310 O   0  0  0  0  0  0  0  0  0  0  0  0
  192.0960  176.7440  142.7090 O   0  0  0  0  0  0  0  0  0  0  0  0
  190.1470  177.4290  137.8230 O   0  0  0  0  0  0  0  0  0  0  0  0
  189.8870  178.0660  140.1040 C   0  0  1  0  0  3  0  0  0  0  0  0
  190.3310  177.5060  141.3830 N   0  0  0  0  0  2  0  0  0  0  0  0
  192.0050  176.8290  139.1440 C   0  0  0  0  0  2  0  0  0  0  0  0
  191.7030  177.1600  141.5860 C   0  0  0  0  0  0  0  0  0  0  0  0
  190.6320  177.4290  138.9490 C   0  0  0  0  0  0  0  0  0  0  0  0
  192.6660  177.2890  140.4470 C   0  0  0  0  0  2  0  0  0  0  0  0
  185.9460  178.0810  146.0470 C   0  0  2  0  0  3  0  0  0  0  0  0
  184.9580  177.3010  145.4140 O   0  0  0  0  0  0  0  0  0  0  0  0
  184.6000  178.6380  145.6830 C   0  0  2  0  0  3  0  0  0  0  0  0
  187.0780  178.3360  145.0530 C   0  0  0  0  0  2  0  0  0  0  0  0
  187.6920  176.5740  143.4340 C   0  0  0  0  0  1  0  0  0  0  0  0
  187.9180  177.0890  144.8400 C   0  0  0  0  0  3  0  0  0  0  0  0
  189.3890  177.4100  145.0160 C   0  0  0  0  0  1  0  0  0  0  0  0
  183.0970  178.2750  138.5200 O   0  0  0  0  0  0  0  0  0  0  0  0
  183.6040  177.7290  137.3060 C   0  0  0  0  0  2  0  0  0  0  0  0
  183.5920  176.2140  137.3770 C   0  0  0  0  0  2  0  0  0  0  0  0
  184.2160  175.6290  136.1210 C   0  0  0  0  0  2  0  0  0  0  0  0
  189.1870  174.9580  135.6820 N   0  0  0  0  0  0  0  0  0  0  0  0
  185.4640  174.9570  136.4620 N   0  0  0  0  0  2  0  0  0  0  0  0
  186.7480  175.4040  136.0190 C   0  0  0  0  0  0  0  0  0  0  0  0
  187.8800  173.6320  137.1160 O   0  0  0  0  0  0  0  0  0  0  0  0
  186.8710  176.5130  135.3400 N   0  0  0  0  0  0  0  0  0  0  0  0
  187.9450  174.6020  136.3180 C   0  0  0  0  0  0  0  0  0  0  0  0
  189.1520  175.9320  134.5940 C   0  0  0  0  0  2  0  0  0  0  0  0
  188.1760  177.0570  134.9440 C   0  0  0  0  0  2  0  0  0  0  0  0
  191.6170  175.3820  135.7620 C   0  0  0  0  0  2  0  0  0  0  0  0
  190.4770  174.4090  136.0950 C   0  0  0  0  0  3  0  0  0  0  0  0
  194.5830  172.8010  136.4370 Cl  0  0  0  0  0  0  0  0  0  0  0  0
  192.9890  174.6960  135.7320 C   0  0  0  0  0  2  0  0  0  0  0  0
  192.9600  173.4340  136.4680 N   0  0  0  0  0  0  0  0  0  0  0  0
  192.1290  172.4900  135.7220 C   0  0  0  0  0  2  0  0  0  0  0  0
  190.6980  173.0110  135.5030 C   0  0  0  0  0  2  0  0  0  0  0  0
  1 12  1  0  0  0  0
  2 16  1  0  0  0  0
  2  6  1  0  0  0  0
  3  6  1  0  0  0  0
  3 14  1  0  0  0  0
  4  7  1  0  0  0  0
  4 12  2  0  0  0  0
  5 17  1  0  0  0  0
  6 10  2  0  0  0  0
  7  2  2  0  0  0  0
  8  1  2  0  0  0  0
  9  4  1  0  0  0  0
 11  9  2  0  0  0  0
 11  8  1  0  0  0  0
 12  3  1  0  0  0  0
 15 14  2  0  0  0  0
 16 13  1  0  0  0  0
 17 16  2  0  0  0  0
 18  5  2  0  0  0  0
 18  7  1  0  0  0  0
 19  8  1  0  0  0  0
 20 19  1  0  0  0  0
 21 20  2  0  0  0  0
 23 28  2  0  0  0  0
 24 20  1  6  0  0  0
 24 25  1  0  0  0  0
 25 27  1  0  0  0  0
 26 29  1  0  0  0  0
 27 22  2  0  0  0  0
 28 26  1  0  0  0  0
 28 24  1  0  0  0  0
 29 27  1  0  0  0  0
 30 33  1  6  0  0  0
 31 32  1  0  0  0  0
 31 30  1  0  0  0  0
 32 14  1  6  0  0  0
 32 30  1  0  0  0  0
 34 35  1  0  0  0  0
 35 36  1  0  0  0  0
 35 33  1  0  0  0  0
 37  9  1  0  0  0  0
 38 39  1  0  0  0  0
 38 37  1  0  0  0  0
 40 42  1  0  0  0  0
 40 39  1  0  0  0  0
 41 50  1  0  0  0  0
 41 46  1  0  0  0  0
 43 46  1  0  0  0  0
 43 42  1  0  0  0  0
 45 43  2  0  0  0  0
 46 44  2  0  0  0  0
 47 48  1  0  0  0  0
 47 41  1  0  0  0  0
 48 45  1  0  0  0  0
 49 50  1  0  0  0  0
 51 53  1  0  0  0  0
 52 49  1  0  0  0  0
 52 53  1  0  0  0  0
 54 53  1  0  0  0  0
 55 54  1  0  0  0  0
 55 50  1  0  0  0  0
M  END
>  <MODEL>
5

>  <REMARK>
 VINA RESULT:      -7.8      3.520      7.923
  Name = 
  11 active torsions:
  status: ('A' for Active; 'I' for Inactive)
    1  A    between atoms: C_3  and  C_23
    2  A    between atoms: C_3  and  C_37
    3  A    between atoms: N_4  and  C_21
    4  A    between atoms: C_6  and  C_25
    5  A    between atoms: C_7  and  N_17
    6  A    between atoms: C_10  and  O_35
    7  A    between atoms: C_10  and  C_52
    8  A    between atoms: N_20  and  C_36
    9  A    between atoms: C_22  and  O_35
   10  A    between atoms: C_36  and  C_52
   11  A    between atoms: C_39  and  C_51
                            x       y       z     vdW  Elec       q    Type
                         _______ _______ _______ _____ _____    ______ ____

>  <TORSDO>
F 11

$$$$
=
 OpenBabel11042410163D

 55 61  0  0  1  0  0  0  0  0999 V2000
  185.9650  178.3260  139.1700 C   0  0  0  0  0  3  0  0  0  0  0  0
  182.9340  176.9490  136.5840 C   0  0  0  0  0  0  0  0  0  0  0  0
  183.6770  178.3510  138.4180 N   0  0  0  0  0  0  0  0  0  0  0  0
  185.3000  176.9390  137.2780 C   0  0  0  0  0  0  0  0  0  0  0  0
  183.5200  175.0330  134.5950 C   0  0  0  0  0  3  0  0  0  0  0  0
  182.6770  177.9120  137.5890 C   0  0  0  0  0  0  0  0  0  0  0  0
  184.2630  176.4640  136.4300 C   0  0  0  0  0  0  0  0  0  0  0  0
  187.2760  177.8920  139.0730 C   0  0  0  0  0  0  0  0  0  0  0  0
  186.6580  176.5060  137.1710 C   0  0  0  0  0  0  0  0  0  0  0  0
  181.5150  178.3930  137.7200 O   0  0  0  0  0  0  0  0  0  0  0  0
  187.6170  176.9870  138.0730 C   0  0  0  0  0  3  0  0  0  0  0  0
  184.9640  177.8840  138.2870 C   0  0  0  0  0  0  0  0  0  0  0  0
  180.4840  176.8760  135.7790 C   0  0  0  0  0  1  0  0  0  0  0  0
  183.3730  179.3610  139.4120 C   0  0  0  0  0  0  0  0  0  0  0  0
  184.0350  180.4360  139.4340 O   0  0  0  0  0  0  0  0  0  0  0  0
  181.9150  176.4490  135.7150 C   0  0  0  0  0  0  0  0  0  0  0  0
  182.2230  175.5030  134.7390 C   0  0  0  0  0  3  0  0  0  0  0  0
  184.5220  175.5090  135.4320 C   0  0  0  0  0  3  0  0  0  0  0  0
  188.2300  178.3580  140.0340 N   0  0  0  0  0  2  0  0  0  0  0  0
  188.8560  177.5710  141.0540 C   0  0  0  0  0  0  0  0  0  0  0  0
  188.7680  176.3150  141.0490 O   0  0  0  0  0  0  0  0  0  0  0  0
  189.3040  177.9430  145.7630 O   0  0  0  0  0  0  0  0  0  0  0  0
  191.6660  177.6120  141.0250 O   0  0  0  0  0  0  0  0  0  0  0  0
  189.6520  178.2430  142.1300 C   0  0  1  0  0  3  0  0  0  0  0  0
  189.0650  177.9510  143.4410 N   0  0  0  0  0  2  0  0  0  0  0  0
  191.9360  177.7890  143.3600 C   0  0  0  0  0  2  0  0  0  0  0  0
  189.8310  178.1280  144.6340 C   0  0  0  0  0  0  0  0  0  0  0  0
  191.1130  177.8490  142.0930 C   0  0  0  0  0  0  0  0  0  0  0  0
  191.2700  178.5270  144.5260 C   0  0  0  0  0  2  0  0  0  0  0  0
  182.7230  178.8460  141.8230 C   0  0  2  0  0  3  0  0  0  0  0  0
  182.2760  177.8530  140.9280 O   0  0  0  0  0  0  0  0  0  0  0  0
  182.2730  179.1710  140.4280 C   0  0  2  0  0  3  0  0  0  0  0  0
  184.2280  178.6770  142.0290 C   0  0  0  0  0  2  0  0  0  0  0  0
  183.4680  178.8890  144.3700 C   0  0  0  0  0  1  0  0  0  0  0  0
  184.6420  179.0800  143.4330 C   0  0  0  0  0  3  0  0  0  0  0  0
  185.7960  178.2200  143.9080 C   0  0  0  0  0  1  0  0  0  0  0  0
  187.0550  175.6100  136.1680 O   0  0  0  0  0  0  0  0  0  0  0  0
  187.5480  174.3020  136.4410 C   0  0  0  0  0  2  0  0  0  0  0  0
  188.5340  173.8850  135.3670 C   0  0  0  0  0  2  0  0  0  0  0  0
  189.1770  172.5590  135.7350 C   0  0  0  0  0  2  0  0  0  0  0  0
  193.3510  174.9550  137.2140 N   0  0  0  0  0  0  0  0  0  0  0  0
  190.6250  172.7160  135.7920 N   0  0  0  0  0  2  0  0  0  0  0  0
  191.2830  173.6770  136.6210 C   0  0  0  0  0  0  0  0  0  0  0  0
  193.4390  173.0220  135.8810 O   0  0  0  0  0  0  0  0  0  0  0  0
  190.6020  174.4220  137.4490 N   0  0  0  0  0  0  0  0  0  0  0  0
  192.7430  173.8420  136.5330 C   0  0  0  0  0  0  0  0  0  0  0  0
  192.4790  175.9970  137.7510 C   0  0  0  0  0  2  0  0  0  0  0  0
  191.2430  175.3560  138.3840 C   0  0  0  0  0  2  0  0  0  0  0  0
  195.5480  174.8660  136.0930 C   0  0  0  0  0  2  0  0  0  0  0  0
  194.7940  175.0710  137.4150 C   0  0  0  0  0  3  0  0  0  0  0  0
  199.1750  174.5390  137.7230 Cl  0  0  0  0  0  0  0  0  0  0  0  0
  197.0260  174.5120  136.3040 C   0  0  0  0  0  2  0  0  0  0  0  0
  197.4740  174.9080  137.6370 N   0  0  0  0  0  0  0  0  0  0  0  0
  196.8090  174.0490  138.6160 C   0  0  0  0  0  2  0  0  0  0  0  0
  195.2760  174.1280  138.5250 C   0  0  0  0  0  2  0  0  0  0  0  0
  2  6  1  0  0  0  0
  3 14  1  0  0  0  0
  4 12  1  0  0  0  0
  5 17  2  0  0  0  0
  5 18  1  0  0  0  0
  6 10  2  0  0  0  0
  6  3  1  0  0  0  0
  7  2  1  0  0  0  0
  7  4  1  0  0  0  0
  8  1  1  0  0  0  0
  8 19  1  0  0  0  0
  9  4  2  0  0  0  0
  9 11  1  0  0  0  0
 11  8  2  0  0  0  0
 12  3  1  0  0  0  0
 12  1  2  0  0  0  0
 14 15  2  0  0  0  0
 16 13  1  0  0  0  0
 16  2  2  0  0  0  0
 17 16  1  0  0  0  0
 18  7  2  0  0  0  0
 19 20  1  0  0  0  0
 21 20  2  0  0  0  0
 23 28  2  0  0  0  0
 24 20  1  6  0  0  0
 24 25  1  0  0  0  0
 25 27  1  0  0  0  0
 26 29  1  0  0  0  0
 27 22  2  0  0  0  0
 28 24  1  0  0  0  0
 28 26  1  0  0  0  0
 29 27  1  0  0  0  0
 30 33  1  6  0  0  0
 31 30  1  0  0  0  0
 32 14  1  6  0  0  0
 32 31  1  0  0  0  0
 32 30  1  0  0  0  0
 33 35  1  0  0  0  0
 35 36  1  0  0  0  0
 35 34  1  0  0  0  0
 37 38  1  0  0  0  0
 37  9  1  0  0  0  0
 39 40  1  0  0  0  0
 39 38  1  0  0  0  0
 40 42  1  0  0  0  0
 41 50  1  0  0  0  0
 41 47  1  0  0  0  0
 42 43  1  0  0  0  0
 43 45  2  0  0  0  0
 44 46  2  0  0  0  0
 45 48  1  0  0  0  0
 46 43  1  0  0  0  0
 46 41  1  0  0  0  0
 47 48  1  0  0  0  0
 49 52  1  0  0  0  0
 49 50  1  0  0  0  0
 50 55  1  0  0  0  0
 52 53  1  0  0  0  0
 53 51  1  0  0  0  0
 53 54  1  0  0  0  0
 55 54  1  0  0  0  0
M  END
>  <MODEL>
6

>  <REMARK>
 VINA RESULT:      -7.5      4.515     11.131
  Name = 
  11 active torsions:
  status: ('A' for Active; 'I' for Inactive)
    1  A    between atoms: C_3  and  C_23
    2  A    between atoms: C_3  and  C_37
    3  A    between atoms: N_4  and  C_21
    4  A    between atoms: C_6  and  C_25
    5  A    between atoms: C_7  and  N_17
    6  A    between atoms: C_10  and  O_35
    7  A    between atoms: C_10  and  C_52
    8  A    between atoms: N_20  and  C_36
    9  A    between atoms: C_22  and  O_35
   10  A    between atoms: C_36  and  C_52
   11  A    between atoms: C_39  and  C_51
                            x       y       z     vdW  Elec       q    Type
                         _______ _______ _______ _____ _____    ______ ____

>  <TORSDO>
F 11

$$$$
=
 OpenBabel11042410163D

 55 61  0  0  1  0  0  0  0  0999 V2000
  184.3100  175.2730  136.2530 C   0  0  0  0  0  3  0  0  0  0  0  0
  187.5290  172.7140  135.3280 C   0  0  0  0  0  0  0  0  0  0  0  0
  185.1490  173.1440  135.5040 N   0  0  0  0  0  0  0  0  0  0  0  0
  186.7140  174.9300  136.0380 C   0  0  0  0  0  0  0  0  0  0  0  0
  190.1900  173.6180  135.5930 C   0  0  0  0  0  3  0  0  0  0  0  0
  186.1820  172.2950  135.2020 C   0  0  0  0  0  0  0  0  0  0  0  0
  187.7900  174.0480  135.7470 C   0  0  0  0  0  0  0  0  0  0  0  0
  184.4980  176.5810  136.6680 C   0  0  0  0  0  0  0  0  0  0  0  0
  186.9040  176.2850  136.4510 C   0  0  0  0  0  0  0  0  0  0  0  0
  185.9190  171.1290  134.7890 O   0  0  0  0  0  0  0  0  0  0  0  0
  185.7930  177.0810  136.7620 C   0  0  0  0  0  3  0  0  0  0  0  0
  185.3870  174.4330  135.9190 C   0  0  0  0  0  0  0  0  0  0  0  0
  188.4910  170.4330  134.6020 C   0  0  0  0  0  1  0  0  0  0  0  0
  183.7860  172.6810  135.3300 C   0  0  0  0  0  0  0  0  0  0  0  0
  182.9930  173.3330  134.5950 O   0  0  0  0  0  0  0  0  0  0  0  0
  188.6350  171.8520  135.0450 C   0  0  0  0  0  0  0  0  0  0  0  0
  189.9410  172.3160  135.1820 C   0  0  0  0  0  3  0  0  0  0  0  0
  189.1270  174.4670  135.8720 C   0  0  0  0  0  3  0  0  0  0  0  0
  183.3530  177.3620  137.0280 N   0  0  0  0  0  2  0  0  0  0  0  0
  182.9890  177.7680  138.3530 C   0  0  0  0  0  0  0  0  0  0  0  0
  183.7920  177.6400  139.3130 O   0  0  0  0  0  0  0  0  0  0  0  0
  179.0670  177.3550  140.9910 O   0  0  0  0  0  0  0  0  0  0  0  0
  182.6560  180.5340  138.7200 O   0  0  0  0  0  0  0  0  0  0  0  0
  181.6450  178.3800  138.6000 C   0  0  1  0  0  3  0  0  0  0  0  0
  180.8840  177.5490  139.5370 N   0  0  0  0  0  2  0  0  0  0  0  0
  180.7100  180.3760  140.0420 C   0  0  0  0  0  2  0  0  0  0  0  0
  179.7620  178.0890  140.2390 C   0  0  0  0  0  0  0  0  0  0  0  0
  181.7480  179.8040  139.1030 C   0  0  0  0  0  0  0  0  0  0  0  0
  179.4270  179.5390  140.0760 C   0  0  0  0  0  2  0  0  0  0  0  0
  182.1540  171.6150  136.9720 C   0  0  2  0  0  3  0  0  0  0  0  0
  183.4930  171.4820  137.3920 O   0  0  0  0  0  0  0  0  0  0  0  0
  183.2810  171.4260  135.9980 C   0  0  2  0  0  3  0  0  0  0  0  0
  181.7050  173.0540  137.2210 C   0  0  0  0  0  2  0  0  0  0  0  0
  179.5910  171.7950  137.0030 C   0  0  0  0  0  1  0  0  0  0  0  0
  180.1910  173.1610  137.2620 C   0  0  0  0  0  3  0  0  0  0  0  0
  179.7360  173.6490  138.6230 C   0  0  0  0  0  1  0  0  0  0  0  0
  188.1880  176.8420  136.5420 O   0  0  0  0  0  0  0  0  0  0  0  0
  188.9480  176.8560  137.7460 C   0  0  0  0  0  2  0  0  0  0  0  0
  188.9750  178.2570  138.3250 C   0  0  0  0  0  2  0  0  0  0  0  0
  188.2620  178.2810  139.6660 C   0  0  0  0  0  2  0  0  0  0  0  0
  189.6410  177.4710  144.4410 N   0  0  0  0  0  0  0  0  0  0  0  0
  189.2450  178.2690  140.7430 N   0  0  0  0  0  2  0  0  0  0  0  0
  188.9930  177.7130  142.0370 C   0  0  0  0  0  0  0  0  0  0  0  0
  191.1570  178.2670  142.8320 O   0  0  0  0  0  0  0  0  0  0  0  0
  187.8680  177.1010  142.2920 N   0  0  0  0  0  0  0  0  0  0  0  0
  190.0030  177.8440  143.0990 C   0  0  0  0  0  0  0  0  0  0  0  0
  188.2320  177.2160  144.7310 C   0  0  0  0  0  2  0  0  0  0  0  0
  187.6020  176.4380  143.5750 C   0  0  0  0  0  2  0  0  0  0  0  0
  191.5170  176.0890  145.2550 C   0  0  0  0  0  2  0  0  0  0  0  0
  190.6220  177.3100  145.5130 C   0  0  0  0  0  3  0  0  0  0  0  0
  193.1650  176.0030  148.8880 Cl  0  0  0  0  0  0  0  0  0  0  0  0
  192.2250  175.5980  146.5240 C   0  0  0  0  0  2  0  0  0  0  0  0
  192.2650  176.6470  147.5410 N   0  0  0  0  0  0  0  0  0  0  0  0
  190.9010  176.8710  148.0180 C   0  0  0  0  0  2  0  0  0  0  0  0
  189.9380  177.2650  146.8850 C   0  0  0  0  0  2  0  0  0  0  0  0
  1  8  1  0  0  0  0
  2  7  1  0  0  0  0
  3 12  1  0  0  0  0
  4  9  2  0  0  0  0
  5 18  1  0  0  0  0
  6  2  1  0  0  0  0
  6  3  1  0  0  0  0
  7 18  2  0  0  0  0
  7  4  1  0  0  0  0
  8 11  2  0  0  0  0
  8 19  1  0  0  0  0
  9 37  1  0  0  0  0
  9 11  1  0  0  0  0
 10  6  2  0  0  0  0
 12  4  1  0  0  0  0
 12  1  2  0  0  0  0
 13 16  1  0  0  0  0
 14  3  1  0  0  0  0
 15 14  2  0  0  0  0
 16 17  1  0  0  0  0
 16  2  2  0  0  0  0
 17  5  2  0  0  0  0
 19 20  1  0  0  0  0
 20 21  2  0  0  0  0
 23 28  2  0  0  0  0
 24 20  1  1  0  0  0
 24 28  1  0  0  0  0
 24 25  1  0  0  0  0
 25 27  1  0  0  0  0
 26 29  1  0  0  0  0
 27 22  2  0  0  0  0
 28 26  1  0  0  0  0
 29 27  1  0  0  0  0
 30 33  1  6  0  0  0
 30 31  1  0  0  0  0
 32 14  1  6  0  0  0
 32 30  1  0  0  0  0
 32 31  1  0  0  0  0
 33 35  1  0  0  0  0
 34 35  1  0  0  0  0
 35 36  1  0  0  0  0
 37 38  1  0  0  0  0
 38 39  1  0  0  0  0
 39 40  1  0  0  0  0
 40 42  1  0  0  0  0
 41 47  1  0  0  0  0
 41 50  1  0  0  0  0
 42 43  1  0  0  0  0
 43 45  2  0  0  0  0
 43 46  1  0  0  0  0
 44 46  2  0  0  0  0
 45 48  1  0  0  0  0
 46 41  1  0  0  0  0
 48 47  1  0  0  0  0
 49 50  1  0  0  0  0
 49 52  1  0  0  0  0
 50 55  1  0  0  0  0
 52 53  1  0  0  0  0
 53 54  1  0  0  0  0
 53 51  1  0  0  0  0
 55 54  1  0  0  0  0
M  END
>  <MODEL>
7

>  <REMARK>
 VINA RESULT:      -7.3      4.014     10.997
  Name = 
  11 active torsions:
  status: ('A' for Active; 'I' for Inactive)
    1  A    between atoms: C_3  and  C_23
    2  A    between atoms: C_3  and  C_37
    3  A    between atoms: N_4  and  C_21
    4  A    between atoms: C_6  and  C_25
    5  A    between atoms: C_7  and  N_17
    6  A    between atoms: C_10  and  O_35
    7  A    between atoms: C_10  and  C_52
    8  A    between atoms: N_20  and  C_36
    9  A    between atoms: C_22  and  O_35
   10  A    between atoms: C_36  and  C_52
   11  A    between atoms: C_39  and  C_51
                            x       y       z     vdW  Elec       q    Type
                         _______ _______ _______ _____ _____    ______ ____

>  <TORSDO>
F 11

$$$$
=
 OpenBabel11042410163D

 55 61  0  0  1  0  0  0  0  0999 V2000
  185.3180  178.6340  142.0650 C   0  0  0  0  0  3  0  0  0  0  0  0
  189.3360  177.8790  143.0920 C   0  0  0  0  0  0  0  0  0  0  0  0
  187.0290  178.2830  143.7220 N   0  0  0  0  0  0  0  0  0  0  0  0
  187.6050  178.1690  141.3600 C   0  0  0  0  0  0  0  0  0  0  0  0
  191.2850  177.5540  141.0760 C   0  0  0  0  0  3  0  0  0  0  0  0
  188.3310  178.0420  144.0770 C   0  0  0  0  0  0  0  0  0  0  0  0
  188.9610  177.9400  141.7210 C   0  0  0  0  0  0  0  0  0  0  0  0
  184.8900  178.7080  140.7490 C   0  0  0  0  0  0  0  0  0  0  0  0
  187.1570  178.2300  140.0040 C   0  0  0  0  0  0  0  0  0  0  0  0
  188.6270  177.9480  145.3020 O   0  0  0  0  0  0  0  0  0  0  0  0
  185.8100  178.5020  139.7260 C   0  0  0  0  0  3  0  0  0  0  0  0
  186.6550  178.3540  142.4010 C   0  0  0  0  0  0  0  0  0  0  0  0
  191.2270  177.5670  144.8190 C   0  0  0  0  0  1  0  0  0  0  0  0
  186.0300  178.4120  144.7650 C   0  0  0  0  0  0  0  0  0  0  0  0
  185.0120  177.6660  144.7500 O   0  0  0  0  0  0  0  0  0  0  0  0
  190.7090  177.6490  143.4200 C   0  0  0  0  0  0  0  0  0  0  0  0
  191.6560  177.4910  142.4110 C   0  0  0  0  0  3  0  0  0  0  0  0
  189.9560  177.7770  140.7410 C   0  0  0  0  0  3  0  0  0  0  0  0
  183.5210  179.0360  140.4870 N   0  0  0  0  0  2  0  0  0  0  0  0
  182.5140  178.1390  140.0060 C   0  0  0  0  0  0  0  0  0  0  0  0
  182.7140  176.8970  139.9760 O   0  0  0  0  0  0  0  0  0  0  0  0
  179.2210  181.4090  140.9940 O   0  0  0  0  0  0  0  0  0  0  0  0
  182.0010  178.7810  137.3190 O   0  0  0  0  0  0  0  0  0  0  0  0
  181.1910  178.6770  139.5570 C   0  0  1  0  0  3  0  0  0  0  0  0
  180.7020  179.6670  140.5200 N   0  0  0  0  0  2  0  0  0  0  0  0
  180.3660  180.4200  137.7630 C   0  0  0  0  0  2  0  0  0  0  0  0
  179.6890  180.6030  140.1460 C   0  0  0  0  0  0  0  0  0  0  0  0
  181.2540  179.2640  138.1630 C   0  0  0  0  0  0  0  0  0  0  0  0
  179.1960  180.6210  138.7320 C   0  0  0  0  0  2  0  0  0  0  0  0
  186.6690  178.8660  147.1900 C   0  0  2  0  0  3  0  0  0  0  0  0
  185.3010  179.1040  146.9480 O   0  0  0  0  0  0  0  0  0  0  0  0
  186.1730  179.4140  145.8830 C   0  0  2  0  0  3  0  0  0  0  0  0
  186.8990  177.3570  147.2500 C   0  0  0  0  0  2  0  0  0  0  0  0
  189.1030  176.2990  147.6040 C   0  0  0  0  0  1  0  0  0  0  0  0
  187.9480  176.9990  148.2880 C   0  0  0  0  0  3  0  0  0  0  0  0
  188.4640  178.2510  148.9670 C   0  0  0  0  0  1  0  0  0  0  0  0
  188.0410  178.0100  138.9380 O   0  0  0  0  0  0  0  0  0  0  0  0
  187.6920  177.2650  137.7760 C   0  0  0  0  0  2  0  0  0  0  0  0
  188.6300  177.6140  136.6360 C   0  0  0  0  0  2  0  0  0  0  0  0
  187.9730  177.2940  135.3040 C   0  0  0  0  0  2  0  0  0  0  0  0
  183.7720  174.5250  135.4780 N   0  0  0  0  0  0  0  0  0  0  0  0
  187.2670  176.0220  135.3990 N   0  0  0  0  0  2  0  0  0  0  0  0
  185.8540  175.8890  135.2250 C   0  0  0  0  0  0  0  0  0  0  0  0
  185.9050  173.5480  135.6030 O   0  0  0  0  0  0  0  0  0  0  0  0
  185.1240  176.9150  134.8830 N   0  0  0  0  0  0  0  0  0  0  0  0
  185.2090  174.5840  135.4480 C   0  0  0  0  0  0  0  0  0  0  0  0
  183.0280  175.7810  135.5320 C   0  0  0  0  0  2  0  0  0  0  0  0
  183.6850  176.8060  134.6060 C   0  0  0  0  0  2  0  0  0  0  0  0
  181.7340  173.4290  134.6170 C   0  0  0  0  0  2  0  0  0  0  0  0
  183.0270  173.2670  135.4300 C   0  0  0  0  0  3  0  0  0  0  0  0
  180.1120  169.9540  135.7160 Cl  0  0  0  0  0  0  0  0  0  0  0  0
  180.7090  172.3270  134.9140 C   0  0  0  0  0  2  0  0  0  0  0  0
  181.3530  171.1590  135.5100 N   0  0  0  0  0  0  0  0  0  0  0  0
  181.8080  171.5240  136.8510 C   0  0  0  0  0  2  0  0  0  0  0  0
  182.7770  172.7180  136.8400 C   0  0  0  0  0  2  0  0  0  0  0  0
  1 12  1  0  0  0  0
  2 16  1  0  0  0  0
  2  6  1  0  0  0  0
  3  6  1  0  0  0  0
  3 14  1  0  0  0  0
  4  7  1  0  0  0  0
  4 12  2  0  0  0  0
  5 17  1  0  0  0  0
  6 10  2  0  0  0  0
  7  2  2  0  0  0  0
  8  1  2  0  0  0  0
  9  4  1  0  0  0  0
 11  9  2  0  0  0  0
 11  8  1  0  0  0  0
 12  3  1  0  0  0  0
 15 14  2  0  0  0  0
 16 13  1  0  0  0  0
 17 16  2  0  0  0  0
 18  5  2  0  0  0  0
 18  7  1  0  0  0  0
 19  8  1  0  0  0  0
 20 19  1  0  0  0  0
 21 20  2  0  0  0  0
 23 28  2  0  0  0  0
 24 20  1  1  0  0  0
 24 25  1  0  0  0  0
 26 28  1  0  0  0  0
 26 29  1  0  0  0  0
 27 25  1  0  0  0  0
 27 22  2  0  0  0  0
 28 24  1  0  0  0  0
 29 27  1  0  0  0  0
 30 33  1  6  0  0  0
 31 30  1  0  0  0  0
 32 14  1  6  0  0  0
 32 31  1  0  0  0  0
 32 30  1  0  0  0  0
 33 35  1  0  0  0  0
 34 35  1  0  0  0  0
 35 36  1  0  0  0  0
 37  9  1  0  0  0  0
 38 37  1  0  0  0  0
 39 38  1  0  0  0  0
 40 42  1  0  0  0  0
 40 39  1  0  0  0  0
 41 47  1  0  0  0  0
 43 42  1  0  0  0  0
 43 46  1  0  0  0  0
 45 43  2  0  0  0  0
 46 41  1  0  0  0  0
 46 44  2  0  0  0  0
 48 45  1  0  0  0  0
 48 47  1  0  0  0  0
 49 52  1  0  0  0  0
 49 50  1  0  0  0  0
 50 41  1  0  0  0  0
 50 55  1  0  0  0  0
 52 53  1  0  0  0  0
 53 51  1  0  0  0  0
 53 54  1  0  0  0  0
 55 54  1  0  0  0  0
M  END
>  <MODEL>
8

>  <REMARK>
 VINA RESULT:      -7.2      2.343      6.313
  Name = 
  11 active torsions:
  status: ('A' for Active; 'I' for Inactive)
    1  A    between atoms: C_3  and  C_23
    2  A    between atoms: C_3  and  C_37
    3  A    between atoms: N_4  and  C_21
    4  A    between atoms: C_6  and  C_25
    5  A    between atoms: C_7  and  N_17
    6  A    between atoms: C_10  and  O_35
    7  A    between atoms: C_10  and  C_52
    8  A    between atoms: N_20  and  C_36
    9  A    between atoms: C_22  and  O_35
   10  A    between atoms: C_36  and  C_52
   11  A    between atoms: C_39  and  C_51
                            x       y       z     vdW  Elec       q    Type
                         _______ _______ _______ _____ _____    ______ ____

>  <TORSDO>
F 11

$$$$
=
 OpenBabel11042410163D

 55 61  0  0  1  0  0  0  0  0999 V2000
  184.9510  178.8060  141.0160 C   0  0  0  0  0  3  0  0  0  0  0  0
  188.9390  177.9120  142.0460 C   0  0  0  0  0  0  0  0  0  0  0  0
  186.6500  178.4080  142.6750 N   0  0  0  0  0  0  0  0  0  0  0  0
  187.2180  178.2480  140.3130 C   0  0  0  0  0  0  0  0  0  0  0  0
  190.8730  177.4940  140.0320 C   0  0  0  0  0  3  0  0  0  0  0  0
  187.9430  178.1220  143.0310 C   0  0  0  0  0  0  0  0  0  0  0  0
  188.5650  177.9730  140.6740 C   0  0  0  0  0  0  0  0  0  0  0  0
  184.5240  178.8820  139.7000 C   0  0  0  0  0  0  0  0  0  0  0  0
  186.7700  178.3120  138.9570 C   0  0  0  0  0  0  0  0  0  0  0  0
  188.2380  178.0300  144.2560 O   0  0  0  0  0  0  0  0  0  0  0  0
  185.4350  178.6320  138.6780 C   0  0  0  0  0  3  0  0  0  0  0  0
  186.2770  178.4800  141.3530 C   0  0  0  0  0  0  0  0  0  0  0  0
  190.8200  177.5470  143.7740 C   0  0  0  0  0  1  0  0  0  0  0  0
  185.6580  178.5850  143.7170 C   0  0  0  0  0  0  0  0  0  0  0  0
  184.6130  177.8770  143.7120 O   0  0  0  0  0  0  0  0  0  0  0  0
  190.3030  177.6340  142.3750 C   0  0  0  0  0  0  0  0  0  0  0  0
  191.2430  177.4310  141.3670 C   0  0  0  0  0  3  0  0  0  0  0  0
  189.5520  177.7630  139.6950 C   0  0  0  0  0  3  0  0  0  0  0  0
  183.1680  179.2590  139.4350 N   0  0  0  0  0  2  0  0  0  0  0  0
  182.1220  178.3900  138.9870 C   0  0  0  0  0  0  0  0  0  0  0  0
  182.2710  177.1400  138.9920 O   0  0  0  0  0  0  0  0  0  0  0  0
  179.1520  182.0300  139.6510 O   0  0  0  0  0  0  0  0  0  0  0  0
  181.4990  178.6890  136.2630 O   0  0  0  0  0  0  0  0  0  0  0  0
  180.8190  178.9680  138.5300 C   0  0  1  0  0  3  0  0  0  0  0  0
  180.4650  180.1210  139.3620 N   0  0  0  0  0  2  0  0  0  0  0  0
  180.0220  180.5060  136.5450 C   0  0  0  0  0  2  0  0  0  0  0  0
  179.5060  181.0770  138.9060 C   0  0  0  0  0  0  0  0  0  0  0  0
  180.8430  179.3470  137.0640 C   0  0  0  0  0  0  0  0  0  0  0  0
  178.9310  180.9370  137.5300 C   0  0  0  0  0  2  0  0  0  0  0  0
  186.3240  179.0410  146.1350 C   0  0  2  0  0  3  0  0  0  0  0  0
  184.9640  179.3220  145.8960 O   0  0  0  0  0  0  0  0  0  0  0  0
  185.8400  179.5930  144.8250 C   0  0  2  0  0  3  0  0  0  0  0  0
  186.5040  177.5250  146.2080 C   0  0  0  0  0  2  0  0  0  0  0  0
  188.7970  176.8200  146.7970 C   0  0  0  0  0  1  0  0  0  0  0  0
  187.4230  177.1330  147.3520 C   0  0  0  0  0  3  0  0  0  0  0  0
  187.5410  178.2710  148.3460 C   0  0  0  0  0  1  0  0  0  0  0  0
  187.6450  178.0490  137.8920 O   0  0  0  0  0  0  0  0  0  0  0  0
  187.2610  177.3200  136.7310 C   0  0  0  0  0  2  0  0  0  0  0  0
  188.0470  176.0250  136.6490 C   0  0  0  0  0  2  0  0  0  0  0  0
  189.1340  176.1410  135.5950 C   0  0  0  0  0  2  0  0  0  0  0  0
  193.6320  174.0890  136.5480 N   0  0  0  0  0  0  0  0  0  0  0  0
  190.0390  175.0030  135.6980 N   0  0  0  0  0  2  0  0  0  0  0  0
  191.3610  175.0910  136.2370 C   0  0  0  0  0  0  0  0  0  0  0  0
  191.7950  172.7870  135.8770 O   0  0  0  0  0  0  0  0  0  0  0  0
  191.7990  176.2090  136.7500 N   0  0  0  0  0  0  0  0  0  0  0  0
  192.2460  173.9160  136.2000 C   0  0  0  0  0  0  0  0  0  0  0  0
  194.1480  175.4500  136.6810 C   0  0  0  0  0  2  0  0  0  0  0  0
  193.1130  176.3220  137.3960 C   0  0  0  0  0  2  0  0  0  0  0  0
  195.4930  173.2840  137.9570 C   0  0  0  0  0  2  0  0  0  0  0  0
  194.5340  172.9660  136.8000 C   0  0  0  0  0  3  0  0  0  0  0  0
  197.9300  170.1850  137.3450 Cl  0  0  0  0  0  0  0  0  0  0  0  0
  196.7330  172.3800  137.9620 C   0  0  0  0  0  2  0  0  0  0  0  0
  196.4950  171.1610  137.1910 N   0  0  0  0  0  0  0  0  0  0  0  0
  196.3890  171.5280  135.7790 C   0  0  0  0  0  2  0  0  0  0  0  0
  195.2680  172.5490  135.5190 C   0  0  0  0  0  2  0  0  0  0  0  0
  1 12  1  0  0  0  0
  2 16  1  0  0  0  0
  2  6  1  0  0  0  0
  3  6  1  0  0  0  0
  3 14  1  0  0  0  0
  4  7  1  0  0  0  0
  4 12  2  0  0  0  0
  5 17  1  0  0  0  0
  6 10  2  0  0  0  0
  7  2  2  0  0  0  0
  8  1  2  0  0  0  0
  9  4  1  0  0  0  0
 11  9  2  0  0  0  0
 11  8  1  0  0  0  0
 12  3  1  0  0  0  0
 15 14  2  0  0  0  0
 16 13  1  0  0  0  0
 17 16  2  0  0  0  0
 18  5  2  0  0  0  0
 18  7  1  0  0  0  0
 19  8  1  0  0  0  0
 20 21  2  0  0  0  0
 20 19  1  0  0  0  0
 23 28  2  0  0  0  0
 24 20  1  1  0  0  0
 24 25  1  0  0  0  0
 26 28  1  0  0  0  0
 26 29  1  0  0  0  0
 27 25  1  0  0  0  0
 27 22  2  0  0  0  0
 28 24  1  0  0  0  0
 29 27  1  0  0  0  0
 30 33  1  6  0  0  0
 31 30  1  0  0  0  0
 32 14  1  6  0  0  0
 32 31  1  0  0  0  0
 32 30  1  0  0  0  0
 33 35  1  0  0  0  0
 34 35  1  0  0  0  0
 35 36  1  0  0  0  0
 37  9  1  0  0  0  0
 38 37  1  0  0  0  0
 39 38  1  0  0  0  0
 40 42  1  0  0  0  0
 40 39  1  0  0  0  0
 41 47  1  0  0  0  0
 41 50  1  0  0  0  0
 42 43  1  0  0  0  0
 43 45  2  0  0  0  0
 44 46  2  0  0  0  0
 45 48  1  0  0  0  0
 46 43  1  0  0  0  0
 46 41  1  0  0  0  0
 47 48  1  0  0  0  0
 49 52  1  0  0  0  0
 50 49  1  0  0  0  0
 53 51  1  0  0  0  0
 53 52  1  0  0  0  0
 54 53  1  0  0  0  0
 55 54  1  0  0  0  0
 55 50  1  0  0  0  0
M  END
>  <MODEL>
9

>  <REMARK>
 VINA RESULT:      -7.1      4.537      9.663
  Name = 
  11 active torsions:
  status: ('A' for Active; 'I' for Inactive)
    1  A    between atoms: C_3  and  C_23
    2  A    between atoms: C_3  and  C_37
    3  A    between atoms: N_4  and  C_21
    4  A    between atoms: C_6  and  C_25
    5  A    between atoms: C_7  and  N_17
    6  A    between atoms: C_10  and  O_35
    7  A    between atoms: C_10  and  C_52
    8  A    between atoms: N_20  and  C_36
    9  A    between atoms: C_22  and  O_35
   10  A    between atoms: C_36  and  C_52
   11  A    between atoms: C_39  and  C_51
                            x       y       z     vdW  Elec       q    Type
                         _______ _______ _______ _____ _____    ______ ____

>  <TORSDO>
F 11

$$$$
