=
 OpenBabel11032420093D

 36 42  0  0  1  0  0  0  0  0999 V2000
  190.1580  177.7780  140.8600 C   0  0  0  0  0  2  0  0  0  0  0  0
  184.0700  179.6300  144.0610 C   0  0  1  0  0  3  0  0  0  0  0  0
  182.3650  178.0220  139.7760 S   0  0  0  0  0  0  0  0  0  0  0  0
  189.2790  178.3200  139.7710 C   0  0  1  0  0  3  0  0  0  0  0  0
  183.8340  178.5010  144.9780 N   0  0  0  0  0  2  0  0  0  0  0  0
  186.1820  178.9910  140.3260 N   0  0  0  0  0  2  0  0  0  0  0  0
  184.5780  178.0600  138.1070 N   0  0  0  0  0  2  0  0  0  0  0  0
  188.4330  177.8370  135.1470 C   0  0  0  0  0  1  0  0  0  0  0  0
  189.6220  177.7650  138.4680 N   0  0  0  0  0  2  0  0  0  0  0  0
  187.1660  178.0850  142.4020 C   0  0  0  0  0  0  0  0  0  0  0  0
  188.9080  178.5580  137.4700 C   0  0  0  0  0  2  0  0  0  0  0  0
  188.9860  177.1630  141.6110 C   0  0  1  0  0  3  0  0  0  0  0  0
  185.9980  178.3190  143.3390 C   0  0  1  0  0  3  0  0  0  0  0  0
  184.7320  178.9060  140.3910 C   0  0  2  0  0  3  0  0  0  0  0  0
  182.6790  178.5900  141.5120 C   0  0  0  0  0  2  0  0  0  0  0  0
  184.1800  178.4910  141.7140 C   0  0  2  0  0  3  0  0  0  0  0  0
  184.9520  179.4340  145.2250 C   0  0  1  0  0  3  0  0  0  0  0  0
  187.1190  178.2130  141.0610 C   0  0  2  0  0  3  0  0  0  0  0  0
  186.5820  178.0640  136.7440 C   0  0  0  0  0  3  0  0  0  0  0  0
  188.0200  177.6730  136.5950 C   0  0  1  0  0  3  0  0  0  0  0  0
  188.4230  177.4090  142.7820 C   0  0  0  0  0  3  0  0  0  0  0  0
  185.9220  177.6640  137.8200 C   0  0  0  0  0  3  0  0  0  0  0  0
  184.1570  177.8590  139.4870 C   0  0  1  0  0  3  0  0  0  0  0  0
  186.2850  178.8450  144.7250 C   0  0  1  0  0  3  0  0  0  0  0  0
  188.2160  177.4850  140.3830 C   0  0  1  0  0  3  0  0  0  0  0  0
  184.8920  179.2240  142.8380 C   0  0  1  0  0  3  0  0  0  0  0  0
  186.0990  176.7390  145.8550 O   0  0  0  0  0  0  0  0  0  0  0  0
  186.7890  177.7720  145.6390 C   0  0  0  0  0  0  0  0  0  0  0  0
  188.0590  177.9390  146.2710 N   0  0  0  0  0  2  0  0  0  0  0  0
  188.6100  176.9600  147.1970 C   0  0  0  0  0  2  0  0  0  0  0  0
  189.7610  177.5200  147.8900 N   0  0  0  0  0  2  0  0  0  0  0  0
  192.3490  177.0450  148.2290 O   0  0  0  0  0  0  0  0  0  0  0  0
  190.9390  175.1980  147.4560 O   0  0  0  0  0  0  0  0  0  0  0  0
  191.1790  176.6770  147.3580 S   0  0  0  0  0  0  0  0  0  0  0  0
  190.8040  176.2990  144.8200 F   0  0  0  0  0  0  0  0  0  0  0  0
  191.5460  177.0970  145.6680 C   0  0  0  0  0  2  0  0  0  0  0  0
  2  5  1  1  0  0  0
  2 17  1  0  0  0  0
  3 15  1  0  0  0  0
  4 25  1  0  0  0  0
  4  1  1  1  0  0  0
  9  4  1  0  0  0  0
 10 21  2  0  0  0  0
 11  9  1  0  0  0  0
 12  1  1  6  0  0  0
 12 21  1  0  0  0  0
 13 10  1  6  0  0  0
 13 24  1  0  0  0  0
 14  6  1  1  0  0  0
 14 16  1  0  0  0  0
 16 15  1  6  0  0  0
 16 26  1  0  0  0  0
 17  5  1  1  0  0  0
 18  6  1  1  0  0  0
 18 10  1  0  0  0  0
 19 22  2  0  0  0  0
 20  8  1  6  0  0  0
 20 19  1  0  0  0  0
 20 11  1  0  0  0  0
 22  7  1  0  0  0  0
 23  7  1  6  0  0  0
 23  3  1  0  0  0  0
 23 14  1  0  0  0  0
 24 17  1  0  0  0  0
 24 28  1  1  0  0  0
 25 18  1  0  0  0  0
 25 12  1  0  0  0  0
 26 13  1  0  0  0  0
 26  2  1  0  0  0  0
 28 27  2  0  0  0  0
 28 29  1  0  0  0  0
 29 30  1  0  0  0  0
 30 31  1  0  0  0  0
 34 33  2  0  0  0  0
 34 31  1  0  0  0  0
 34 32  2  0  0  0  0
 35 36  1  0  0  0  0
 36 34  1  0  0  0  0
M  END
>  <MODEL>
1

>  <REMARK>
 VINA RESULT:      -9.0      0.000      0.000
  Name = 
  5 active torsions:
  status: ('A' for Active; 'I' for Inactive)
    1  A    between atoms: C_3  and  N_24
    2  A    between atoms: C_3  and  N_26
    3  A    between atoms: C_15  and  C_33
    4  A    between atoms: N_26  and  S_36
    5  A    between atoms: C_31  and  S_36
                            x       y       z     vdW  Elec       q    Type
                         _______ _______ _______ _____ _____    ______ ____

>  <TORSDO>
F 5

$$$$
=
 OpenBabel11032420093D

 36 42  0  0  1  0  0  0  0  0999 V2000
  183.0070  178.9210  140.7130 C   0  0  0  0  0  2  0  0  0  0  0  0
  189.3830  178.4590  137.5680 C   0  0  1  0  0  3  0  0  0  0  0  0
  190.4160  176.5670  141.9510 S   0  0  0  0  0  0  0  0  0  0  0  0
  184.0110  179.1830  141.7970 C   0  0  1  0  0  3  0  0  0  0  0  0
  189.2280  177.2760  136.7030 N   0  0  0  0  0  2  0  0  0  0  0  0
  187.1550  178.7420  141.2810 N   0  0  0  0  0  2  0  0  0  0  0  0
  188.3370  177.4260  143.5700 N   0  0  0  0  0  0  0  0  0  0  0  0
  184.6150  178.6530  146.4540 C   0  0  0  0  0  1  0  0  0  0  0  0
  183.4920  178.8360  143.1140 N   0  0  0  0  0  2  0  0  0  0  0  0
  185.9360  178.1280  139.2230 C   0  0  0  0  0  0  0  0  0  0  0  0
  184.4260  179.3860  144.0940 C   0  0  0  0  0  2  0  0  0  0  0  0
  183.9060  177.9120  140.0120 C   0  0  1  0  0  3  0  0  0  0  0  0
  187.1210  177.9110  138.3020 C   0  0  1  0  0  3  0  0  0  0  0  0
  188.4910  178.1700  141.2500 C   0  0  2  0  0  3  0  0  0  0  0  0
  190.3240  177.1280  140.1870 C   0  0  0  0  0  2  0  0  0  0  0  0
  188.8790  177.5320  139.9570 C   0  0  2  0  0  3  0  0  0  0  0  0
  188.4930  178.5200  136.3950 C   0  0  1  0  0  3  0  0  0  0  0  0
  186.0150  178.2940  140.5580 C   0  0  2  0  0  3  0  0  0  0  0  0
  186.4440  178.1690  144.8890 C   0  0  0  0  0  2  0  0  0  0  0  0
  184.9570  178.2930  145.0230 C   0  0  1  0  0  3  0  0  0  0  0  0
  184.5260  177.9000  138.8440 C   0  0  0  0  0  3  0  0  0  0  0  0
  186.9360  177.5210  143.8440 C   0  0  0  0  0  3  0  0  0  0  0  0
  188.6730  177.0320  142.2080 C   0  0  1  0  0  3  0  0  0  0  0  0
  187.0360  178.4400  136.8910 C   0  0  1  0  0  3  0  0  0  0  0  0
  184.7320  178.0110  141.2420 C   0  0  1  0  0  3  0  0  0  0  0  0
  188.4640  178.4110  138.7890 C   0  0  1  0  0  3  0  0  0  0  0  0
  185.6030  178.0380  135.0100 O   0  0  0  0  0  0  0  0  0  0  0  0
  186.2050  177.5590  136.0100 C   0  0  0  0  0  0  0  0  0  0  0  0
  186.0960  176.1690  136.3240 N   0  0  0  0  0  2  0  0  0  0  0  0
  185.2860  175.2490  135.5390 C   0  0  0  0  0  2  0  0  0  0  0  0
  185.7620  173.8850  135.7190 N   0  0  0  0  0  2  0  0  0  0  0  0
  184.3030  171.7870  136.4270 O   0  0  0  0  0  0  0  0  0  0  0  0
  185.6020  172.9170  138.1690 O   0  0  0  0  0  0  0  0  0  0  0  0
  184.7820  173.1210  136.9270 S   0  0  0  0  0  0  0  0  0  0  0  0
  183.6180  174.8320  138.4910 F   0  0  0  0  0  0  0  0  0  0  0  0
  183.3790  174.1440  137.3170 C   0  0  0  0  0  2  0  0  0  0  0  0
  2  5  1  6  0  0  0
  2 26  1  0  0  0  0
  4  1  1  6  0  0  0
  4  9  1  0  0  0  0
  7 22  2  0  0  0  0
  9 11  1  0  0  0  0
 11 20  1  0  0  0  0
 12 21  1  6  0  0  0
 12  1  1  0  0  0  0
 12 25  1  0  0  0  0
 13 26  1  0  0  0  0
 13 10  1  1  0  0  0
 14  6  1  6  0  0  0
 14 23  1  0  0  0  0
 15  3  1  0  0  0  0
 16 15  1  1  0  0  0
 16 14  1  0  0  0  0
 17  5  1  6  0  0  0
 17 24  1  0  0  0  0
 17  2  1  0  0  0  0
 18 10  1  6  0  0  0
 18 25  1  0  0  0  0
 18  6  1  0  0  0  0
 19 20  1  0  0  0  0
 20  8  1  1  0  0  0
 21 10  2  0  0  0  0
 22 19  1  0  0  0  0
 23  3  1  1  0  0  0
 23  7  1  0  0  0  0
 24 28  1  6  0  0  0
 24 13  1  0  0  0  0
 25  4  1  0  0  0  0
 26 16  1  0  0  0  0
 27 28  2  0  0  0  0
 28 29  1  0  0  0  0
 30 31  1  0  0  0  0
 30 29  1  0  0  0  0
 31 34  1  0  0  0  0
 32 34  2  0  0  0  0
 34 36  1  0  0  0  0
 34 33  2  0  0  0  0
 36 35  1  0  0  0  0
M  END
>  <MODEL>
2

>  <REMARK>
 VINA RESULT:      -7.8      4.150      8.586
  Name = 
  5 active torsions:
  status: ('A' for Active; 'I' for Inactive)
    1  A    between atoms: C_3  and  N_24
    2  A    between atoms: C_3  and  N_26
    3  A    between atoms: C_15  and  C_33
    4  A    between atoms: N_26  and  S_36
    5  A    between atoms: C_31  and  S_36
                            x       y       z     vdW  Elec       q    Type
                         _______ _______ _______ _____ _____    ______ ____

>  <TORSDO>
F 5

$$$$
=
 OpenBabel11032420093D

 36 42  0  0  1  0  0  0  0  0999 V2000
  190.3200  176.3850  141.5600 C   0  0  0  0  0  2  0  0  0  0  0  0
  183.5380  178.0800  142.9300 C   0  0  1  0  0  3  0  0  0  0  0  0
  185.6420  179.3560  147.1500 S   0  0  0  0  0  0  0  0  0  0  0  0
  190.1120  176.0720  143.0120 C   0  0  1  0  0  3  0  0  0  0  0  0
  183.3780  179.3600  142.2170 N   0  0  0  0  0  2  0  0  0  0  0  0
  187.4120  176.9520  144.5240 N   0  0  0  0  0  2  0  0  0  0  0  0
  188.0670  178.0140  147.1340 N   0  0  0  0  0  2  0  0  0  0  0  0
  192.4570  175.9180  147.1120 C   0  0  0  0  0  1  0  0  0  0  0  0
  191.3570  176.1410  143.7680 N   0  0  0  0  0  2  0  0  0  0  0  0
  187.2880  177.7410  142.1870 C   0  0  0  0  0  0  0  0  0  0  0  0
  191.0890  175.5550  145.0780 C   0  0  0  0  0  2  0  0  0  0  0  0
  189.3920  177.5910  141.6030 C   0  0  1  0  0  3  0  0  0  0  0  0
  185.8550  178.2380  142.1820 C   0  0  1  0  0  3  0  0  0  0  0  0
  186.4480  177.6730  145.3380 C   0  0  2  0  0  3  0  0  0  0  0  0
  184.5770  179.0770  145.6580 C   0  0  0  0  0  2  0  0  0  0  0  0
  185.5070  178.5490  144.5810 C   0  0  2  0  0  3  0  0  0  0  0  0
  183.5420  178.1050  141.4570 C   0  0  1  0  0  3  0  0  0  0  0  0
  187.9750  177.3740  143.2870 C   0  0  2  0  0  3  0  0  0  0  0  0
  190.1910  176.8550  146.9980 C   0  0  0  0  0  3  0  0  0  0  0  0
  191.4190  176.5390  146.2010 C   0  0  1  0  0  3  0  0  0  0  0  0
  188.2210  177.8610  141.0490 C   0  0  0  0  0  3  0  0  0  0  0  0
  189.3140  177.7140  146.5010 C   0  0  0  0  0  3  0  0  0  0  0  0
  187.0800  178.6560  146.2760 C   0  0  1  0  0  3  0  0  0  0  0  0
  184.9970  177.9350  140.9770 C   0  0  1  0  0  3  0  0  0  0  0  0
  189.4400  177.3930  143.0740 C   0  0  1  0  0  3  0  0  0  0  0  0
  184.9860  177.8260  143.3500 C   0  0  1  0  0  3  0  0  0  0  0  0
  184.9270  180.0460  139.8410 O   0  0  0  0  0  0  0  0  0  0  0  0
  185.3040  178.8420  139.8270 C   0  0  0  0  0  0  0  0  0  0  0  0
  186.0240  178.3220  138.7070 N   0  0  0  0  0  2  0  0  0  0  0  0
  186.3380  179.1270  137.5350 C   0  0  0  0  0  2  0  0  0  0  0  0
  186.9410  178.2930  136.5040 N   0  0  0  0  0  2  0  0  0  0  0  0
  189.3930  178.2580  135.4950 O   0  0  0  0  0  0  0  0  0  0  0  0
  189.0570  179.3810  137.6450 O   0  0  0  0  0  0  0  0  0  0  0  0
  188.6460  178.2100  136.7990 S   0  0  0  0  0  0  0  0  0  0  0  0
  187.8890  176.0260  137.9750 F   0  0  0  0  0  0  0  0  0  0  0  0
  189.0500  176.7030  137.6550 C   0  0  0  0  0  2  0  0  0  0  0  0
  1 12  1  0  0  0  0
  2  5  1  1  0  0  0
  2 26  1  0  0  0  0
  4  1  1  6  0  0  0
  4 25  1  0  0  0  0
  4  9  1  0  0  0  0
  9 11  1  0  0  0  0
 11 20  1  0  0  0  0
 12 21  1  6  0  0  0
 12 25  1  0  0  0  0
 13 10  1  6  0  0  0
 13 26  1  0  0  0  0
 14  6  1  6  0  0  0
 14 23  1  0  0  0  0
 15  3  1  0  0  0  0
 16 14  1  0  0  0  0
 16 15  1  1  0  0  0
 17  5  1  1  0  0  0
 17  2  1  0  0  0  0
 18 10  1  6  0  0  0
 18  6  1  0  0  0  0
 20 19  1  0  0  0  0
 20  8  1  1  0  0  0
 21 10  2  0  0  0  0
 22 19  2  0  0  0  0
 22  7  1  0  0  0  0
 23  7  1  1  0  0  0
 23  3  1  0  0  0  0
 24 28  1  6  0  0  0
 24 17  1  0  0  0  0
 24 13  1  0  0  0  0
 25 18  1  0  0  0  0
 26 16  1  0  0  0  0
 28 27  2  0  0  0  0
 29 28  1  0  0  0  0
 30 29  1  0  0  0  0
 31 34  1  0  0  0  0
 31 30  1  0  0  0  0
 32 34  2  0  0  0  0
 34 33  2  0  0  0  0
 34 36  1  0  0  0  0
 36 35  1  0  0  0  0
M  END
>  <MODEL>
3

>  <REMARK>
 VINA RESULT:      -7.4      3.750      7.249
  Name = 
  5 active torsions:
  status: ('A' for Active; 'I' for Inactive)
    1  A    between atoms: C_3  and  N_24
    2  A    between atoms: C_3  and  N_26
    3  A    between atoms: C_15  and  C_33
    4  A    between atoms: N_26  and  S_36
    5  A    between atoms: C_31  and  S_36
                            x       y       z     vdW  Elec       q    Type
                         _______ _______ _______ _____ _____    ______ ____

>  <TORSDO>
F 5

$$$$
=
 OpenBabel11032420093D

 36 42  0  0  1  0  0  0  0  0999 V2000
  183.4760  179.2400  143.6600 C   0  0  0  0  0  2  0  0  0  0  0  0
  188.1510  178.4760  138.3390 C   0  0  1  0  0  3  0  0  0  0  0  0
  190.5460  176.2270  141.9540 S   0  0  0  0  0  0  0  0  0  0  0  0
  184.8310  179.3510  144.2950 C   0  0  1  0  0  3  0  0  0  0  0  0
  187.5710  177.3680  137.5600 N   0  0  0  0  0  2  0  0  0  0  0  0
  187.5000  178.6940  142.6230 N   0  0  0  0  0  2  0  0  0  0  0  0
  189.3110  177.1430  144.2600 N   0  0  0  0  0  2  0  0  0  0  0  0
  187.0650  178.4740  148.3660 C   0  0  0  0  0  1  0  0  0  0  0  0
  184.8070  178.9610  145.7000 N   0  0  0  0  0  2  0  0  0  0  0  0
  185.5500  178.3140  141.1560 C   0  0  0  0  0  0  0  0  0  0  0  0
  186.0870  179.3700  146.2730 C   0  0  0  0  0  2  0  0  0  0  0  0
  183.9470  178.2100  142.6430 C   0  0  1  0  0  3  0  0  0  0  0  0
  186.2810  178.0640  139.8520 C   0  0  1  0  0  3  0  0  0  0  0  0
  188.6660  178.0210  142.0760 C   0  0  2  0  0  3  0  0  0  0  0  0
  189.8610  176.9070  140.3710 C   0  0  0  0  0  2  0  0  0  0  0  0
  188.4810  177.4400  140.7140 C   0  0  2  0  0  3  0  0  0  0  0  0
  186.9000  178.6840  137.5880 C   0  0  1  0  0  3  0  0  0  0  0  0
  186.1350  178.3870  142.3690 C   0  0  2  0  0  3  0  0  0  0  0  0
  188.1250  177.9470  146.2150 C   0  0  0  0  0  3  0  0  0  0  0  0
  186.8140  178.1810  146.9020 C   0  0  1  0  0  3  0  0  0  0  0  0
  184.0860  178.2250  141.3270 C   0  0  0  0  0  3  0  0  0  0  0  0
  188.1280  177.3310  145.0430 C   0  0  0  0  0  3  0  0  0  0  0  0
  189.0770  176.8130  142.8610 C   0  0  1  0  0  3  0  0  0  0  0  0
  185.7310  178.6880  138.5920 C   0  0  1  0  0  3  0  0  0  0  0  0
  185.1760  178.1630  143.4750 C   0  0  1  0  0  3  0  0  0  0  0  0
  187.7510  178.4230  139.8140 C   0  0  1  0  0  3  0  0  0  0  0  0
  183.4190  178.4880  137.9870 O   0  0  0  0  0  0  0  0  0  0  0  0
  184.5510  177.9360  138.0620 C   0  0  0  0  0  0  0  0  0  0  0  0
  184.7220  176.5780  137.6490 N   0  0  0  0  0  2  0  0  0  0  0  0
  183.6220  175.7650  137.1500 C   0  0  0  0  0  2  0  0  0  0  0  0
  183.5130  174.5400  137.9280 N   0  0  0  0  0  2  0  0  0  0  0  0
  183.4900  171.9840  137.2210 O   0  0  0  0  0  0  0  0  0  0  0  0
  184.2780  173.6180  135.5760 O   0  0  0  0  0  0  0  0  0  0  0  0
  184.2650  173.2590  137.0350 S   0  0  0  0  0  0  0  0  0  0  0  0
  186.6770  174.1620  137.3440 F   0  0  0  0  0  0  0  0  0  0  0  0
  185.9380  173.0210  137.5910 C   0  0  0  0  0  2  0  0  0  0  0  0
  2  5  1  6  0  0  0
  2 26  1  0  0  0  0
  4  1  1  6  0  0  0
  4  9  1  0  0  0  0
  7 22  1  0  0  0  0
  9 11  1  0  0  0  0
 10 21  2  0  0  0  0
 11 20  1  0  0  0  0
 12 21  1  6  0  0  0
 12 25  1  0  0  0  0
 12  1  1  0  0  0  0
 13 10  1  1  0  0  0
 14  6  1  1  0  0  0
 14 23  1  0  0  0  0
 15  3  1  0  0  0  0
 16 15  1  6  0  0  0
 16 14  1  0  0  0  0
 17  5  1  6  0  0  0
 17  2  1  0  0  0  0
 17 24  1  0  0  0  0
 18 10  1  1  0  0  0
 18  6  1  0  0  0  0
 18 25  1  0  0  0  0
 19 20  1  0  0  0  0
 20  8  1  1  0  0  0
 22 19  2  0  0  0  0
 23  3  1  6  0  0  0
 23  7  1  0  0  0  0
 24 28  1  6  0  0  0
 24 13  1  0  0  0  0
 25  4  1  0  0  0  0
 26 13  1  0  0  0  0
 26 16  1  0  0  0  0
 27 28  2  0  0  0  0
 29 28  1  0  0  0  0
 30 29  1  0  0  0  0
 30 31  1  0  0  0  0
 33 34  2  0  0  0  0
 34 32  2  0  0  0  0
 34 36  1  0  0  0  0
 34 31  1  0  0  0  0
 35 36  1  0  0  0  0
M  END
>  <MODEL>
4

>  <REMARK>
 VINA RESULT:      -7.4      4.239      8.436
  Name = 
  5 active torsions:
  status: ('A' for Active; 'I' for Inactive)
    1  A    between atoms: C_3  and  N_24
    2  A    between atoms: C_3  and  N_26
    3  A    between atoms: C_15  and  C_33
    4  A    between atoms: N_26  and  S_36
    5  A    between atoms: C_31  and  S_36
                            x       y       z     vdW  Elec       q    Type
                         _______ _______ _______ _____ _____    ______ ____

>  <TORSDO>
F 5

$$$$
=
 OpenBabel11032420093D

 36 42  0  0  1  0  0  0  0  0999 V2000
  187.1310  177.8930  147.5540 C   0  0  0  0  0  2  0  0  0  0  0  0
  187.0690  179.3720  140.5860 C   0  0  1  0  0  3  0  0  0  0  0  0
  190.8450  176.2810  140.8040 S   0  0  0  0  0  0  0  0  0  0  0  0
  188.5710  177.9100  147.1340 C   0  0  1  0  0  3  0  0  0  0  0  0
  185.9610  178.5370  140.0920 N   0  0  0  0  0  2  0  0  0  0  0  0
  189.3840  178.0940  144.0260 N   0  0  0  0  0  2  0  0  0  0  0  0
  191.5540  176.2610  143.4830 N   0  0  0  0  0  0  0  0  0  0  0  0
  192.7350  175.9410  148.1920 C   0  0  0  0  0  1  0  0  0  0  0  0
  189.4000  177.0760  147.9950 N   0  0  0  0  0  2  0  0  0  0  0  0
  186.9200  178.0450  144.1840 C   0  0  0  0  0  0  0  0  0  0  0  0
  190.7910  177.3870  147.6730 C   0  0  0  0  0  2  0  0  0  0  0  0
  186.6660  177.3070  146.2290 C   0  0  1  0  0  3  0  0  0  0  0  0
  186.5840  178.3110  142.7300 C   0  0  1  0  0  3  0  0  0  0  0  0
  189.7970  177.7510  142.6760 C   0  0  2  0  0  3  0  0  0  0  0  0
  189.4160  177.3810  140.3750 C   0  0  0  0  0  2  0  0  0  0  0  0
  188.6890  177.6410  141.6820 C   0  0  2  0  0  3  0  0  0  0  0  0
  185.6810  179.7010  140.9570 C   0  0  1  0  0  3  0  0  0  0  0  0
  188.1510  177.7650  144.6550 C   0  0  2  0  0  3  0  0  0  0  0  0
  192.0550  176.2580  145.8540 C   0  0  0  0  0  2  0  0  0  0  0  0
  191.5550  176.1290  147.2610 C   0  0  1  0  0  3  0  0  0  0  0  0
  185.9220  177.7700  145.2380 C   0  0  0  0  0  3  0  0  0  0  0  0
  191.2050  176.0690  144.8570 C   0  0  0  0  0  3  0  0  0  0  0  0
  190.4240  176.3940  142.5730 C   0  0  1  0  0  3  0  0  0  0  0  0
  185.4570  179.2640  142.4170 C   0  0  1  0  0  3  0  0  0  0  0  0
  188.1150  177.0990  145.9770 C   0  0  1  0  0  3  0  0  0  0  0  0
  187.7140  178.7950  141.8470 C   0  0  1  0  0  3  0  0  0  0  0  0
  183.8420  177.5350  142.0250 O   0  0  0  0  0  0  0  0  0  0  0  0
  184.1150  178.6260  142.5980 C   0  0  0  0  0  0  0  0  0  0  0  0
  183.1440  179.2730  143.4230 N   0  0  0  0  0  2  0  0  0  0  0  0
  181.8060  178.7360  143.6290 C   0  0  0  0  0  2  0  0  0  0  0  0
  180.8100  179.6810  143.1450 N   0  0  0  0  0  2  0  0  0  0  0  0
  179.1340  177.7480  142.4460 O   0  0  0  0  0  0  0  0  0  0  0  0
  178.9310  179.9050  141.3050 O   0  0  0  0  0  0  0  0  0  0  0  0
  179.8990  178.9150  141.8860 S   0  0  0  0  0  0  0  0  0  0  0  0
  181.8940  179.3370  140.2830 F   0  0  0  0  0  0  0  0  0  0  0  0
  180.9880  178.3430  140.5990 C   0  0  0  0  0  2  0  0  0  0  0  0
  2  5  1  6  0  0  0
  2 17  1  0  0  0  0
  2 26  1  0  0  0  0
  4  1  1  1  0  0  0
  4  9  1  0  0  0  0
  7 22  2  0  0  0  0
 10 18  1  0  0  0  0
 10 21  2  0  0  0  0
 11  9  1  0  0  0  0
 12 21  1  6  0  0  0
 12  1  1  0  0  0  0
 13 10  1  1  0  0  0
 14  6  1  1  0  0  0
 15  3  1  0  0  0  0
 16 15  1  6  0  0  0
 16 26  1  0  0  0  0
 16 14  1  0  0  0  0
 17  5  1  6  0  0  0
 17 24  1  0  0  0  0
 18  6  1  1  0  0  0
 18 25  1  0  0  0  0
 19 20  1  0  0  0  0
 20 11  1  0  0  0  0
 20  8  1  1  0  0  0
 22 19  1  0  0  0  0
 23  3  1  6  0  0  0
 23 14  1  0  0  0  0
 23  7  1  0  0  0  0
 24 28  1  6  0  0  0
 24 13  1  0  0  0  0
 25 12  1  0  0  0  0
 25  4  1  0  0  0  0
 26 13  1  0  0  0  0
 27 28  2  0  0  0  0
 28 29  1  0  0  0  0
 29 30  1  0  0  0  0
 31 30  1  0  0  0  0
 33 34  2  0  0  0  0
 34 32  2  0  0  0  0
 34 31  1  0  0  0  0
 35 36  1  0  0  0  0
 36 34  1  0  0  0  0
M  END
>  <MODEL>
5

>  <REMARK>
 VINA RESULT:      -7.3      3.834      8.159
  Name = 
  5 active torsions:
  status: ('A' for Active; 'I' for Inactive)
    1  A    between atoms: C_3  and  N_24
    2  A    between atoms: C_3  and  N_26
    3  A    between atoms: C_15  and  C_33
    4  A    between atoms: N_26  and  S_36
    5  A    between atoms: C_31  and  S_36
                            x       y       z     vdW  Elec       q    Type
                         _______ _______ _______ _____ _____    ______ ____

>  <TORSDO>
F 5

$$$$
=
 OpenBabel11032420093D

 36 42  0  0  1  0  0  0  0  0999 V2000
  188.8300  177.4630  140.0300 C   0  0  0  0  0  2  0  0  0  0  0  0
  182.3250  178.3360  142.8000 C   0  0  1  0  0  3  0  0  0  0  0  0
  185.0820  179.0460  146.7690 S   0  0  0  0  0  0  0  0  0  0  0  0
  188.9020  176.8910  141.4160 C   0  0  1  0  0  3  0  0  0  0  0  0
  181.9740  179.7000  142.3680 N   0  0  0  0  0  2  0  0  0  0  0  0
  186.4750  177.2770  143.4920 N   0  0  0  0  0  2  0  0  0  0  0  0
  187.5300  177.9310  146.1040 N   0  0  0  0  0  2  0  0  0  0  0  0
  191.9490  176.2380  144.9690 C   0  0  0  0  0  1  0  0  0  0  0  0
  190.2570  176.9340  141.9520 N   0  0  0  0  0  2  0  0  0  0  0  0
  185.8930  178.4380  141.3920 C   0  0  0  0  0  0  0  0  0  0  0  0
  190.2580  176.1130  143.1610 C   0  0  0  0  0  2  0  0  0  0  0  0
  187.8640  178.5630  140.4470 C   0  0  1  0  0  3  0  0  0  0  0  0
  184.4600  178.8090  141.7150 C   0  0  1  0  0  3  0  0  0  0  0  0
  185.6360  177.7670  144.5730 C   0  0  2  0  0  3  0  0  0  0  0  0
  183.7830  178.9380  145.4510 C   0  0  0  0  0  2  0  0  0  0  0  0
  184.5310  178.6790  144.1550 C   0  0  2  0  0  3  0  0  0  0  0  0
  182.0640  178.6100  141.3760 C   0  0  1  0  0  3  0  0  0  0  0  0
  186.7840  177.9470  142.2760 C   0  0  2  0  0  3  0  0  0  0  0  0
  189.6530  176.9910  145.4070 C   0  0  0  0  0  3  0  0  0  0  0  0
  190.7330  176.9170  144.3720 C   0  0  1  0  0  3  0  0  0  0  0  0
  186.6000  178.8250  140.1540 C   0  0  0  0  0  3  0  0  0  0  0  0
  188.6590  177.8470  145.2280 C   0  0  0  0  0  3  0  0  0  0  0  0
  186.3740  178.6250  145.5540 C   0  0  1  0  0  3  0  0  0  0  0  0
  183.4160  178.6450  140.6370 C   0  0  1  0  0  3  0  0  0  0  0  0
  188.1840  178.1230  141.8280 C   0  0  1  0  0  3  0  0  0  0  0  0
  183.8360  178.1340  142.9180 C   0  0  1  0  0  3  0  0  0  0  0  0
  184.5680  180.1390  139.1560 O   0  0  0  0  0  0  0  0  0  0  0  0
  183.4650  179.7560  139.6350 C   0  0  0  0  0  0  0  0  0  0  0  0
  182.2450  180.3840  139.2350 N   0  0  0  0  0  2  0  0  0  0  0  0
  182.2050  181.4910  138.2900 C   0  0  0  0  0  2  0  0  0  0  0  0
  180.9090  182.1510  138.3490 N   0  0  0  0  0  2  0  0  0  0  0  0
  182.2510  184.3040  137.5750 O   0  0  0  0  0  0  0  0  0  0  0  0
  180.9070  183.1300  135.8970 O   0  0  0  0  0  0  0  0  0  0  0  0
  180.9680  183.5570  137.3370 S   0  0  0  0  0  0  0  0  0  0  0  0
  180.0450  185.8120  138.2260 F   0  0  0  0  0  0  0  0  0  0  0  0
  179.5880  184.6250  137.6860 C   0  0  0  0  0  2  0  0  0  0  0  0
  2  5  1  1  0  0  0
  2 26  1  0  0  0  0
  4  1  1  6  0  0  0
  4 25  1  0  0  0  0
  4  9  1  0  0  0  0
  9 11  1  0  0  0  0
 11 20  1  0  0  0  0
 12  1  1  6  0  0  0
 12 25  1  0  0  0  0
 13 10  1  6  0  0  0
 13 26  1  0  0  0  0
 14  6  1  6  0  0  0
 14 23  1  0  0  0  0
 15  3  1  0  0  0  0
 16 14  1  0  0  0  0
 16 15  1  1  0  0  0
 17  5  1  1  0  0  0
 17  2  1  0  0  0  0
 18 10  1  6  0  0  0
 18  6  1  0  0  0  0
 20  8  1  1  0  0  0
 20 19  1  0  0  0  0
 21 12  1  0  0  0  0
 21 10  2  0  0  0  0
 22 19  2  0  0  0  0
 22  7  1  0  0  0  0
 23  7  1  1  0  0  0
 23  3  1  0  0  0  0
 24 28  1  6  0  0  0
 24 17  1  0  0  0  0
 24 13  1  0  0  0  0
 25 18  1  0  0  0  0
 26 16  1  0  0  0  0
 27 28  2  0  0  0  0
 29 28  1  0  0  0  0
 30 31  1  0  0  0  0
 30 29  1  0  0  0  0
 33 34  2  0  0  0  0
 34 32  2  0  0  0  0
 34 36  1  0  0  0  0
 34 31  1  0  0  0  0
 36 35  1  0  0  0  0
M  END
>  <MODEL>
6

>  <REMARK>
 VINA RESULT:      -7.2      4.973      8.459
  Name = 
  5 active torsions:
  status: ('A' for Active; 'I' for Inactive)
    1  A    between atoms: C_3  and  N_24
    2  A    between atoms: C_3  and  N_26
    3  A    between atoms: C_15  and  C_33
    4  A    between atoms: N_26  and  S_36
    5  A    between atoms: C_31  and  S_36
                            x       y       z     vdW  Elec       q    Type
                         _______ _______ _______ _____ _____    ______ ____

>  <TORSDO>
F 5

$$$$
=
 OpenBabel11032420093D

 36 42  0  0  1  0  0  0  0  0999 V2000
  183.5730  179.0040  143.2280 C   0  0  0  0  0  2  0  0  0  0  0  0
  188.5200  178.5540  138.1220 C   0  0  1  0  0  3  0  0  0  0  0  0
  190.8590  176.3790  141.8170 S   0  0  0  0  0  0  0  0  0  0  0  0
  184.8900  179.1740  143.9270 C   0  0  1  0  0  3  0  0  0  0  0  0
  188.0340  177.4290  137.3040 N   0  0  0  0  0  2  0  0  0  0  0  0
  187.6630  178.6780  142.3730 N   0  0  0  0  0  2  0  0  0  0  0  0
  189.4740  177.1980  144.0740 N   0  0  0  0  0  0  0  0  0  0  0  0
  186.9780  178.3550  148.0870 C   0  0  0  0  0  1  0  0  0  0  0  0
  184.8220  178.7650  145.3240 N   0  0  0  0  0  2  0  0  0  0  0  0
  185.8050  178.2200  140.8130 C   0  0  0  0  0  0  0  0  0  0  0  0
  186.0510  179.2300  145.9610 C   0  0  0  0  0  2  0  0  0  0  0  0
  184.1430  178.0140  142.2220 C   0  0  1  0  0  3  0  0  0  0  0  0
  186.6060  178.0260  139.5410 C   0  0  1  0  0  3  0  0  0  0  0  0
  188.8860  178.0730  141.8720 C   0  0  2  0  0  3  0  0  0  0  0  0
  190.2140  177.0450  140.2120 C   0  0  0  0  0  2  0  0  0  0  0  0
  188.7940  177.5020  140.4960 C   0  0  2  0  0  3  0  0  0  0  0  0
  187.2960  178.7080  137.3160 C   0  0  1  0  0  3  0  0  0  0  0  0
  186.3290  178.3050  142.0520 C   0  0  2  0  0  3  0  0  0  0  0  0
  188.1610  177.9140  145.9810 C   0  0  0  0  0  2  0  0  0  0  0  0
  186.8100  178.0710  146.6090 C   0  0  1  0  0  3  0  0  0  0  0  0
  184.3400  178.0540  140.9150 C   0  0  0  0  0  3  0  0  0  0  0  0
  188.2490  177.3150  144.8030 C   0  0  0  0  0  3  0  0  0  0  0  0
  189.3220  176.8760  142.6610 C   0  0  1  0  0  3  0  0  0  0  0  0
  186.0830  178.6390  138.2640 C   0  0  1  0  0  3  0  0  0  0  0  0
  185.3330  178.0180  143.1090 C   0  0  1  0  0  3  0  0  0  0  0  0
  188.0560  178.4600  139.5750 C   0  0  1  0  0  3  0  0  0  0  0  0
  183.8080  178.3210  137.5750 O   0  0  0  0  0  0  0  0  0  0  0  0
  184.9690  177.8350  137.6710 C   0  0  0  0  0  0  0  0  0  0  0  0
  185.2360  176.5050  137.2210 N   0  0  0  0  0  2  0  0  0  0  0  0
  184.2040  175.6450  136.6600 C   0  0  0  0  0  2  0  0  0  0  0  0
  183.6560  174.7810  137.6960 N   0  0  0  0  0  2  0  0  0  0  0  0
  181.5280  176.0820  136.7950 O   0  0  0  0  0  0  0  0  0  0  0  0
  181.1690  173.9140  137.8750 O   0  0  0  0  0  0  0  0  0  0  0  0
  181.9820  175.1770  137.9060 S   0  0  0  0  0  0  0  0  0  0  0  0
  181.2610  177.2710  139.2560 F   0  0  0  0  0  0  0  0  0  0  0  0
  181.7340  175.9910  139.4690 C   0  0  0  0  0  2  0  0  0  0  0  0
  2  5  1  6  0  0  0
  2 26  1  0  0  0  0
  4  1  1  6  0  0  0
  4  9  1  0  0  0  0
  7 22  2  0  0  0  0
  9 11  1  0  0  0  0
 10 21  2  0  0  0  0
 11 20  1  0  0  0  0
 12 21  1  6  0  0  0
 12 25  1  0  0  0  0
 12  1  1  0  0  0  0
 13 26  1  0  0  0  0
 13 10  1  1  0  0  0
 14  6  1  1  0  0  0
 14 23  1  0  0  0  0
 15  3  1  0  0  0  0
 16 15  1  6  0  0  0
 16 14  1  0  0  0  0
 17  5  1  6  0  0  0
 17  2  1  0  0  0  0
 17 24  1  0  0  0  0
 18 10  1  1  0  0  0
 18  6  1  0  0  0  0
 18 25  1  0  0  0  0
 19 20  1  0  0  0  0
 20  8  1  1  0  0  0
 22 19  1  0  0  0  0
 23  3  1  6  0  0  0
 23  7  1  0  0  0  0
 24 28  1  6  0  0  0
 24 13  1  0  0  0  0
 25  4  1  0  0  0  0
 26 16  1  0  0  0  0
 27 28  2  0  0  0  0
 29 28  1  0  0  0  0
 30 29  1  0  0  0  0
 30 31  1  0  0  0  0
 31 34  1  0  0  0  0
 32 34  2  0  0  0  0
 33 34  2  0  0  0  0
 34 36  1  0  0  0  0
 35 36  1  0  0  0  0
M  END
>  <MODEL>
7

>  <REMARK>
 VINA RESULT:      -7.1      4.323      8.625
  Name = 
  5 active torsions:
  status: ('A' for Active; 'I' for Inactive)
    1  A    between atoms: C_3  and  N_24
    2  A    between atoms: C_3  and  N_26
    3  A    between atoms: C_15  and  C_33
    4  A    between atoms: N_26  and  S_36
    5  A    between atoms: C_31  and  S_36
                            x       y       z     vdW  Elec       q    Type
                         _______ _______ _______ _____ _____    ______ ____

>  <TORSDO>
F 5

$$$$
=
 OpenBabel11032420093D

 36 42  0  0  1  0  0  0  0  0999 V2000
  187.0180  177.7150  138.7010 C   0  0  0  0  0  2  0  0  0  0  0  0
  186.9250  177.1370  145.8010 C   0  0  1  0  0  3  0  0  0  0  0  0
  191.6770  177.9790  145.0410 S   0  0  0  0  0  0  0  0  0  0  0  0
  188.3090  177.0450  139.0670 C   0  0  1  0  0  3  0  0  0  0  0  0
  186.4000  178.4480  146.2220 N   0  0  0  0  0  2  0  0  0  0  0  0
  189.2290  176.7940  142.1400 N   0  0  0  0  0  2  0  0  0  0  0  0
  192.0500  177.3920  142.3580 N   0  0  0  0  0  2  0  0  0  0  0  0
  192.7860  176.6410  137.6080 C   0  0  0  0  0  1  0  0  0  0  0  0
  189.3490  177.2850  138.0740 N   0  0  0  0  0  2  0  0  0  0  0  0
  187.0820  178.0130  142.0680 C   0  0  0  0  0  0  0  0  0  0  0  0
  190.4470  176.3740  138.3830 C   0  0  0  0  0  2  0  0  0  0  0  0
  187.0170  178.5790  139.9550 C   0  0  1  0  0  3  0  0  0  0  0  0
  186.8020  178.0860  143.5560 C   0  0  1  0  0  3  0  0  0  0  0  0
  189.8820  177.0240  143.4180 C   0  0  2  0  0  3  0  0  0  0  0  0
  189.9440  177.7540  145.6630 C   0  0  0  0  0  2  0  0  0  0  0  0
  189.0600  177.7530  144.4280 C   0  0  2  0  0  3  0  0  0  0  0  0
  185.5200  177.4860  145.5280 C   0  0  1  0  0  3  0  0  0  0  0  0
  188.2480  177.6160  141.5190 C   0  0  2  0  0  3  0  0  0  0  0  0
  192.2640  176.9210  139.9900 C   0  0  0  0  0  3  0  0  0  0  0  0
  191.7540  177.1380  138.5980 C   0  0  1  0  0  3  0  0  0  0  0  0
  186.2400  178.6320  141.0240 C   0  0  0  0  0  3  0  0  0  0  0  0
  191.7050  177.5940  140.9850 C   0  0  0  0  0  3  0  0  0  0  0  0
  191.0850  177.9110  143.3180 C   0  0  1  0  0  3  0  0  0  0  0  0
  185.3920  177.8320  144.0320 C   0  0  1  0  0  3  0  0  0  0  0  0
  188.4060  178.0830  140.1230 C   0  0  1  0  0  3  0  0  0  0  0  0
  187.6430  177.2040  144.4530 C   0  0  1  0  0  3  0  0  0  0  0  0
  184.9710  180.1890  143.8920 O   0  0  0  0  0  0  0  0  0  0  0  0
  184.5050  179.0190  143.8180 C   0  0  0  0  0  0  0  0  0  0  0  0
  183.1200  178.8080  143.5360 N   0  0  0  0  0  2  0  0  0  0  0  0
  182.1820  179.9060  143.3450 C   0  0  0  0  0  2  0  0  0  0  0  0
  180.8140  179.4170  143.4460 N   0  0  0  0  0  2  0  0  0  0  0  0
  178.9360  178.5450  141.7890 O   0  0  0  0  0  0  0  0  0  0  0  0
  179.5790  180.9040  141.6490 O   0  0  0  0  0  0  0  0  0  0  0  0
  180.0870  179.5090  141.8760 S   0  0  0  0  0  0  0  0  0  0  0  0
  180.9630  177.9040  140.0350 F   0  0  0  0  0  0  0  0  0  0  0  0
  181.2840  179.1140  140.6190 C   0  0  0  0  0  2  0  0  0  0  0  0
  2  5  1  1  0  0  0
  3 15  1  0  0  0  0
  4  1  1  6  0  0  0
  4 25  1  0  0  0  0
  9 11  1  0  0  0  0
  9  4  1  0  0  0  0
 11 20  1  0  0  0  0
 12  1  1  6  0  0  0
 12 25  1  0  0  0  0
 12 21  1  0  0  0  0
 13 10  1  6  0  0  0
 13 24  1  0  0  0  0
 13 26  1  0  0  0  0
 14  6  1  6  0  0  0
 14 16  1  0  0  0  0
 16 26  1  0  0  0  0
 16 15  1  1  0  0  0
 17  2  1  0  0  0  0
 17  5  1  1  0  0  0
 18 10  1  6  0  0  0
 18  6  1  0  0  0  0
 19 22  2  0  0  0  0
 20  8  1  6  0  0  0
 20 19  1  0  0  0  0
 21 10  2  0  0  0  0
 22  7  1  0  0  0  0
 23  7  1  6  0  0  0
 23 14  1  0  0  0  0
 23  3  1  0  0  0  0
 24 28  1  1  0  0  0
 24 17  1  0  0  0  0
 25 18  1  0  0  0  0
 26  2  1  0  0  0  0
 28 27  2  0  0  0  0
 29 28  1  0  0  0  0
 30 31  1  0  0  0  0
 30 29  1  0  0  0  0
 32 34  2  0  0  0  0
 33 34  2  0  0  0  0
 34 31  1  0  0  0  0
 35 36  1  0  0  0  0
 36 34  1  0  0  0  0
M  END
>  <MODEL>
8

>  <REMARK>
 VINA RESULT:      -7.1      3.530      6.875
  Name = 
  5 active torsions:
  status: ('A' for Active; 'I' for Inactive)
    1  A    between atoms: C_3  and  N_24
    2  A    between atoms: C_3  and  N_26
    3  A    between atoms: C_15  and  C_33
    4  A    between atoms: N_26  and  S_36
    5  A    between atoms: C_31  and  S_36
                            x       y       z     vdW  Elec       q    Type
                         _______ _______ _______ _____ _____    ______ ____

>  <TORSDO>
F 5

$$$$
=
 OpenBabel11032420093D

 36 42  0  0  1  0  0  0  0  0999 V2000
  182.2650  178.4680  137.7950 C   0  0  0  0  0  2  0  0  0  0  0  0
  189.3390  178.7310  138.5840 C   0  0  1  0  0  3  0  0  0  0  0  0
  187.9730  177.7110  143.1620 S   0  0  0  0  0  0  0  0  0  0  0  0
  182.4960  179.0630  139.1530 C   0  0  1  0  0  3  0  0  0  0  0  0
  189.7700  177.4280  138.0480 N   0  0  0  0  0  2  0  0  0  0  0  0
  185.4410  179.1340  140.4460 N   0  0  0  0  0  2  0  0  0  0  0  0
  185.2900  178.3990  143.2390 N   0  0  0  0  0  2  0  0  0  0  0  0
  180.5180  179.3290  143.4360 C   0  0  0  0  0  1  0  0  0  0  0  0
  181.3750  178.8200  140.0520 N   0  0  0  0  0  2  0  0  0  0  0  0
  185.5840  178.0170  138.2480 C   0  0  0  0  0  0  0  0  0  0  0  0
  181.5830  179.6670  141.2240 C   0  0  0  0  0  2  0  0  0  0  0  0
  183.4740  177.5500  137.9000 C   0  0  1  0  0  3  0  0  0  0  0  0
  187.0910  177.8900  138.1440 C   0  0  1  0  0  3  0  0  0  0  0  0
  186.6200  178.8170  141.2350 C   0  0  2  0  0  3  0  0  0  0  0  0
  188.8100  177.9850  141.5300 C   0  0  0  0  0  2  0  0  0  0  0  0
  187.6940  178.0820  140.5050 C   0  0  2  0  0  3  0  0  0  0  0  0
  189.2270  178.4590  137.1400 C   0  0  1  0  0  3  0  0  0  0  0  0
  184.9130  178.3860  139.3570 C   0  0  2  0  0  3  0  0  0  0  0  0
  182.9340  178.9660  143.1910 C   0  0  0  0  0  3  0  0  0  0  0  0
  181.6070  178.8350  142.5070 C   0  0  1  0  0  3  0  0  0  0  0  0
  184.6280  177.4840  137.2560 C   0  0  0  0  0  3  0  0  0  0  0  0
  183.9610  178.2750  142.7220 C   0  0  0  0  0  3  0  0  0  0  0  0
  186.3390  177.8820  142.3720 C   0  0  1  0  0  3  0  0  0  0  0  0
  187.7450  178.1860  136.8160 C   0  0  1  0  0  3  0  0  0  0  0  0
  183.4910  177.9740  139.3230 C   0  0  1  0  0  3  0  0  0  0  0  0
  187.9120  178.6920  139.1310 C   0  0  1  0  0  3  0  0  0  0  0  0
  187.5380  177.2680  134.6100 O   0  0  0  0  0  0  0  0  0  0  0  0
  187.5950  177.0510  135.8520 C   0  0  0  0  0  0  0  0  0  0  0  0
  187.5090  175.7170  136.3580 N   0  0  0  0  0  2  0  0  0  0  0  0
  187.3320  174.5600  135.4930 C   0  0  0  0  0  2  0  0  0  0  0  0
  185.9200  174.3740  135.1900 N   0  0  0  0  0  2  0  0  0  0  0  0
  184.0410  172.5110  135.3600 O   0  0  0  0  0  0  0  0  0  0  0  0
  186.3790  171.7880  135.4500 O   0  0  0  0  0  0  0  0  0  0  0  0
  185.4130  172.8610  135.8650 S   0  0  0  0  0  0  0  0  0  0  0  0
  184.6290  174.0520  138.0320 F   0  0  0  0  0  0  0  0  0  0  0  0
  185.3810  172.9600  137.6420 C   0  0  0  0  0  2  0  0  0  0  0  0
  1 12  1  0  0  0  0
  2  5  1  1  0  0  0
  2 26  1  0  0  0  0
  4  1  1  6  0  0  0
  4 25  1  0  0  0  0
  4  9  1  0  0  0  0
  9 11  1  0  0  0  0
 11 20  1  0  0  0  0
 12 21  1  6  0  0  0
 12 25  1  0  0  0  0
 13 10  1  6  0  0  0
 13 26  1  0  0  0  0
 14  6  1  6  0  0  0
 14 23  1  0  0  0  0
 15  3  1  0  0  0  0
 16 14  1  0  0  0  0
 16 15  1  1  0  0  0
 17  5  1  1  0  0  0
 17  2  1  0  0  0  0
 18 10  1  6  0  0  0
 18  6  1  0  0  0  0
 20 19  1  0  0  0  0
 20  8  1  1  0  0  0
 21 10  2  0  0  0  0
 22 19  2  0  0  0  0
 22  7  1  0  0  0  0
 23  3  1  1  0  0  0
 23  7  1  0  0  0  0
 24 28  1  6  0  0  0
 24 17  1  0  0  0  0
 24 13  1  0  0  0  0
 25 18  1  0  0  0  0
 26 16  1  0  0  0  0
 27 28  2  0  0  0  0
 28 29  1  0  0  0  0
 30 29  1  0  0  0  0
 31 30  1  0  0  0  0
 31 34  1  0  0  0  0
 32 34  2  0  0  0  0
 33 34  2  0  0  0  0
 34 36  1  0  0  0  0
 36 35  1  0  0  0  0
M  END
>  <MODEL>
9

>  <REMARK>
 VINA RESULT:      -7.1      4.865      8.595
  Name = 
  5 active torsions:
  status: ('A' for Active; 'I' for Inactive)
    1  A    between atoms: C_3  and  N_24
    2  A    between atoms: C_3  and  N_26
    3  A    between atoms: C_15  and  C_33
    4  A    between atoms: N_26  and  S_36
    5  A    between atoms: C_31  and  S_36
                            x       y       z     vdW  Elec       q    Type
                         _______ _______ _______ _____ _____    ______ ____

>  <TORSDO>
F 5

$$$$
