=
 OpenBabel11042410093D

 62 63  0  0  1  0  0  0  0  0999 V2000
  185.1130  177.5860  138.5610 C   0  0  1  0  0  3  0  0  0  0  0  0
  183.8210  177.0990  137.9250 C   0  0  0  0  0  2  0  0  0  0  0  0
  183.2400  176.1150  138.7310 O   0  0  0  0  0  1  0  0  0  0  0  0
  186.2660  177.4490  137.5610 C   0  0  2  0  0  3  0  0  0  0  0  0
  185.7190  177.1150  135.1940 N   0  0  0  0  0  1  0  0  0  0  0  0
  185.8860  176.4400  136.4700 C   0  0  1  0  0  3  0  0  0  0  0  0
  186.9060  175.3090  136.3530 C   0  0  0  0  0  2  0  0  0  0  0  0
  186.2270  173.9500  136.3340 C   0  0  0  0  0  2  0  0  0  0  0  0
  185.1140  173.9320  135.3010 C   0  0  0  0  0  2  0  0  0  0  0  0
  184.3330  172.6330  135.3980 C   0  0  0  0  0  2  0  0  0  0  0  0
  183.4630  172.5970  136.6100 C   0  0  0  0  0  0  0  0  0  0  0  0
  183.5350  171.6250  137.4110 O   0  0  0  0  0  0  0  0  0  0  0  0
  180.0950  171.4510  136.4320 C   0  0  0  0  0  1  0  0  0  0  0  0
  182.5220  173.6570  136.8190 N   0  0  0  0  0  0  0  0  0  0  0  0
  180.1260  174.3660  137.5570 C   0  0  0  0  0  2  0  0  0  0  0  0
  179.2390  173.2230  137.9200 C   0  0  0  0  0  2  0  0  0  0  0  0
  180.4000  172.3330  137.6350 C   0  0  2  0  0  3  0  0  0  0  0  0
  181.3080  173.4790  137.2370 C   0  0  0  0  0  0  0  0  0  0  0  0
  187.5020  177.0430  138.2290 N   0  0  0  0  0  2  0  0  0  0  0  0
  188.2270  178.2510  138.5990 C   0  0  0  0  0  2  0  0  0  0  0  0
  189.7140  177.9530  138.7450 C   0  0  0  0  0  2  0  0  0  0  0  0
  189.9210  177.4950  136.4370 O   0  0  0  0  0  0  0  0  0  0  0  0
  190.2360  177.1790  137.5730 C   0  0  0  0  0  0  0  0  0  0  0  0
  191.2100  176.0640  137.7830 C   0  0  0  0  0  2  0  0  0  0  0  0
  191.5040  175.3220  136.4830 C   0  0  2  0  0  3  0  0  0  0  0  0
  191.6430  172.9340  136.3610 O   0  0  0  0  0  1  0  0  0  0  0  0
  190.7500  173.9960  136.5160 C   0  0  0  0  0  2  0  0  0  0  0  0
  193.0200  175.1080  136.3150 C   0  0  2  0  0  3  0  0  0  0  0  0
  194.2400  174.0530  138.2310 O   0  0  0  0  0  1  0  0  0  0  0  0
  193.8520  176.3080  138.2000 O   0  0  0  0  0  0  0  0  0  0  0  0
  193.7220  175.1940  137.6320 C   0  0  0  0  0  0  0  0  0  0  0  0
  193.6430  176.1130  135.3510 C   0  0  0  0  0  2  0  0  0  0  0  0
  195.1000  175.7620  135.1200 C   0  0  0  0  0  2  0  0  0  0  0  0
  195.8990  176.8690  135.4080 O   0  0  0  0  0  1  0  0  0  0  0  0
  184.8800  179.3020  139.1350 S   0  0  0  0  0  0  0  0  0  0  0  0
  183.4180  178.8490  140.1140 C   0  0  0  0  0  2  0  0  0  0  0  0
  182.3090  179.5970  142.6270 O   0  0  0  0  0  0  0  0  0  0  0  0
  183.1980  178.7060  142.6250 C   0  0  0  0  0  0  0  0  0  0  0  0
  183.8330  178.3250  141.4050 N   0  0  0  0  0  2  0  0  0  0  0  0
  183.6370  178.0780  143.9030 C   0  0  0  0  0  2  0  0  0  0  0  0
  184.0380  179.0740  144.8380 O   0  0  0  0  0  0  0  0  0  0  0  0
  184.0660  178.1460  146.9550 O   0  0  0  0  0  0  0  0  0  0  0  0
  184.6820  178.7530  146.0370 C   0  0  0  0  0  0  0  0  0  0  0  0
  186.2620  179.6650  147.5500 F   0  0  0  0  0  0  0  0  0  0  0  0
  186.0950  179.1750  146.2610 C   0  0  1  0  0  3  0  0  0  0  0  0
  187.0720  178.0270  145.9770 C   0  0  1  0  0  3  0  0  0  0  0  0
  190.2220  177.8690  142.9790 C   0  0  1  0  0  3  0  0  0  0  0  0
  189.6290  177.7170  145.4950 C   0  0  0  0  0  2  0  0  0  0  0  0
  187.6800  177.8790  142.2310 C   0  0  0  0  0  2  0  0  0  0  0  0
  187.2470  178.4120  143.5540 C   0  0  0  0  0  2  0  0  0  0  0  0
  186.9820  177.5690  144.5530 C   0  0  0  0  0  2  0  0  0  0  0  0
  188.5400  178.3680  146.3750 C   0  0  2  0  0  3  0  0  0  0  0  0
  189.0140  177.0990  142.3700 C   0  0  2  0  0  3  0  0  0  0  0  0
  191.0460  179.4390  144.6160 O   0  0  0  0  0  1  0  0  0  0  0  0
  189.9630  178.6210  144.3030 C   0  0  1  0  0  3  0  0  0  0  0  0
  187.7270  177.5660  148.6240 N   0  0  0  0  0  1  0  0  0  0  0  0
  188.7960  178.0350  147.8100 C   0  0  0  0  0  0  0  0  0  0  0  0
  189.9390  178.1980  148.3110 O   0  0  0  0  0  0  0  0  0  0  0  0
  192.1440  177.2940  142.0320 C   0  0  0  0  0  1  0  0  0  0  0  0
  191.3170  177.0120  143.1190 O   0  0  0  0  0  0  0  0  0  0  0  0
  190.0080  175.1650  142.8100 C   0  0  0  0  0  1  0  0  0  0  0  0
  188.8180  175.8690  143.0150 O   0  0  0  0  0  0  0  0  0  0  0  0
  1  2  1  6  0  0  0
  1 35  1  0  0  0  0
  2  3  1  0  0  0  0
  4 19  1  1  0  0  0
  4  1  1  0  0  0  0
  6  5  1  6  0  0  0
  6  4  1  0  0  0  0
  7  6  1  0  0  0  0
  8  7  1  0  0  0  0
  9 10  1  0  0  0  0
  9  8  1  0  0  0  0
 10 11  1  0  0  0  0
 11 14  1  0  0  0  0
 11 12  2  0  0  0  0
 14 18  2  0  0  0  0
 15 16  1  0  0  0  0
 17 13  1  6  0  0  0
 17 16  1  0  0  0  0
 18 15  1  0  0  0  0
 18 17  1  0  0  0  0
 19 20  1  0  0  0  0
 20 21  1  0  0  0  0
 22 23  2  0  0  0  0
 23 24  1  0  0  0  0
 23 21  1  0  0  0  0
 25 27  1  1  0  0  0
 25 24  1  0  0  0  0
 26 27  1  0  0  0  0
 28 32  1  6  0  0  0
 28 25  1  0  0  0  0
 28 31  1  0  0  0  0
 31 30  2  0  0  0  0
 31 29  1  0  0  0  0
 33 32  1  0  0  0  0
 33 34  1  0  0  0  0
 35 36  1  0  0  0  0
 36 39  1  0  0  0  0
 38 37  2  0  0  0  0
 38 40  1  0  0  0  0
 39 38  1  0  0  0  0
 40 41  1  0  0  0  0
 41 43  1  0  0  0  0
 43 45  1  0  0  0  0
 43 42  2  0  0  0  0
 45 44  1  1  0  0  0
 46 45  1  6  0  0  0
 46 52  1  0  0  0  0
 47 60  1  1  0  0  0
 47 55  1  0  0  0  0
 48 52  1  0  0  0  0
 49 53  1  0  0  0  0
 49 50  1  0  0  0  0
 50 51  1  0  0  0  0
 51 46  1  0  0  0  0
 52 57  1  1  0  0  0
 53 47  1  0  0  0  0
 53 62  1  1  0  0  0
 55 54  1  1  0  0  0
 55 48  1  0  0  0  0
 57 58  2  0  0  0  0
 57 56  1  0  0  0  0
 59 60  1  0  0  0  0
 61 62  1  0  0  0  0
M  END
>  <MODEL>
1

>  <REMARK>
 VINA RESULT:      -5.2      0.000      0.000
  Name = 
  31 active torsions:
  status: ('A' for Active; 'I' for Inactive)
    1  A    between atoms: C_1  and  C_42
    2  A    between atoms: C_4  and  C_48
    3  A    between atoms: C_6  and  C_25
    4  A    between atoms: C_6  and  C_46
    5  A    between atoms: C_6  and  C_49
    6  A    between atoms: N_7  and  C_28
    7  A    between atoms: C_9  and  C_26
    8  A    between atoms: C_9  and  C_28
    9  A    between atoms: C_14  and  C_47
   10  A    between atoms: C_16  and  C_41
   11  A    between atoms: C_17  and  O_62
   12  A    between atoms: C_23  and  C_25
   13  A    between atoms: C_23  and  C_56
   14  A    between atoms: O_24  and  C_43
   15  A    between atoms: C_26  and  C_32
   16  A    between atoms: C_30  and  S_53
   17  A    between atoms: C_30  and  N_55
   18  A    between atoms: O_31  and  C_47
   19  A    between atoms: O_31  and  C_60
   20  A    between atoms: C_32  and  C_54
   21  A    between atoms: C_36  and  C_59
   22  A    between atoms: C_42  and  C_60
   23  A    between atoms: C_44  and  N_45
   24  A    between atoms: C_44  and  C_56
   25  A    between atoms: N_45  and  C_58
   26  A    between atoms: C_48  and  S_53
   27  A    between atoms: C_48  and  C_58
   28  A    between atoms: C_49  and  C_59
   29  A    between atoms: C_49  and  C_61
   30  A    between atoms: C_50  and  C_54
   31  A    between atoms: C_50  and  C_58
                            x       y       z     vdW  Elec       q    Type
                         _______ _______ _______ _____ _____    ______ ____

>  <TORSDO>
F 31

$$$$
=
 OpenBabel11042410093D

 62 63  0  0  1  0  0  0  0  0999 V2000
  189.8150  176.9760  141.3080 C   0  0  1  0  0  3  0  0  0  0  0  0
  189.1380  175.7940  141.9850 C   0  0  0  0  0  2  0  0  0  0  0  0
  188.2660  176.2540  142.9760 O   0  0  0  0  0  1  0  0  0  0  0  0
  191.3370  176.8250  141.4030 C   0  0  2  0  0  3  0  0  0  0  0  0
  191.2360  178.6540  143.0340 N   0  0  0  0  0  1  0  0  0  0  0  0
  191.8240  177.3550  142.7580 C   0  0  1  0  0  3  0  0  0  0  0  0
  191.5310  176.3780  143.8950 C   0  0  0  0  0  2  0  0  0  0  0  0
  191.5990  177.0660  145.2490 C   0  0  0  0  0  2  0  0  0  0  0  0
  191.8880  176.0510  146.3420 C   0  0  0  0  0  2  0  0  0  0  0  0
  190.7350  176.0050  147.3300 C   0  0  0  0  0  2  0  0  0  0  0  0
  190.5260  177.3230  147.9990 C   0  0  0  0  0  0  0  0  0  0  0  0
  191.5180  178.0290  148.3280 O   0  0  0  0  0  0  0  0  0  0  0  0
  188.7980  178.4770  145.1050 C   0  0  0  0  0  1  0  0  0  0  0  0
  189.1900  177.7410  148.3010 N   0  0  0  0  0  0  0  0  0  0  0  0
  186.7610  178.1490  147.4510 C   0  0  0  0  0  2  0  0  0  0  0  0
  186.5750  177.8860  145.9960 C   0  0  0  0  0  2  0  0  0  0  0  0
  188.0110  177.4940  145.9610 C   0  0  2  0  0  3  0  0  0  0  0  0
  188.2270  177.7810  147.4340 C   0  0  0  0  0  0  0  0  0  0  0  0
  192.0080  177.5220  140.3080 N   0  0  0  0  0  2  0  0  0  0  0  0
  193.0990  176.6760  139.8430 C   0  0  0  0  0  2  0  0  0  0  0  0
  193.2290  176.7650  138.3280 C   0  0  0  0  0  2  0  0  0  0  0  0
  191.6190  175.0550  138.0830 O   0  0  0  0  0  0  0  0  0  0  0  0
  192.6440  175.5610  137.6550 C   0  0  0  0  0  0  0  0  0  0  0  0
  193.2650  175.0210  136.4070 C   0  0  0  0  0  2  0  0  0  0  0  0
  194.0420  173.7350  136.6770 C   0  0  2  0  0  3  0  0  0  0  0  0
  195.7540  175.2970  136.0730 O   0  0  0  0  0  1  0  0  0  0  0  0
  195.5270  174.0820  136.7230 C   0  0  0  0  0  2  0  0  0  0  0  0
  193.7390  172.6860  135.5920 C   0  0  2  0  0  3  0  0  0  0  0  0
  191.5860  173.8180  134.9980 O   0  0  0  0  0  0  0  0  0  0  0  0
  191.6710  171.5460  135.2570 O   0  0  0  0  0  1  0  0  0  0  0  0
  192.2780  172.6470  135.2770 C   0  0  0  0  0  0  0  0  0  0  0  0
  194.1980  171.2870  135.9950 C   0  0  0  0  0  2  0  0  0  0  0  0
  195.4760  170.9380  135.2580 C   0  0  0  0  0  2  0  0  0  0  0  0
  196.3300  170.2350  136.1090 O   0  0  0  0  0  1  0  0  0  0  0  0
  189.2260  177.0890  139.5860 S   0  0  0  0  0  0  0  0  0  0  0  0
  188.8410  178.8570  139.7610 C   0  0  0  0  0  2  0  0  0  0  0  0
  186.1060  178.2700  140.2950 O   0  0  0  0  0  0  0  0  0  0  0  0
  186.8010  178.7230  141.2420 C   0  0  0  0  0  0  0  0  0  0  0  0
  188.1630  179.0890  141.0260 N   0  0  0  0  0  2  0  0  0  0  0  0
  186.1930  178.9340  142.5870 C   0  0  0  0  0  2  0  0  0  0  0  0
  184.9060  179.5310  142.4650 O   0  0  0  0  0  0  0  0  0  0  0  0
  184.1720  180.1460  144.5690 O   0  0  0  0  0  0  0  0  0  0  0  0
  183.9710  179.5020  143.5040 C   0  0  0  0  0  0  0  0  0  0  0  0
  181.9300  178.8140  144.4940 F   0  0  0  0  0  0  0  0  0  0  0  0
  182.7450  178.6610  143.3800 C   0  0  1  0  0  3  0  0  0  0  0  0
  181.9800  178.9780  142.0890 C   0  0  1  0  0  3  0  0  0  0  0  0
  180.3710  176.1780  139.1720 C   0  0  1  0  0  3  0  0  0  0  0  0
  179.8580  178.1100  140.8170 C   0  0  0  0  0  2  0  0  0  0  0  0
  182.9930  176.4420  139.4500 C   0  0  0  0  0  2  0  0  0  0  0  0
  182.8320  177.0690  140.7920 C   0  0  0  0  0  2  0  0  0  0  0  0
  182.6570  178.3880  140.8890 C   0  0  0  0  0  2  0  0  0  0  0  0
  180.4780  178.5620  142.1580 C   0  0  2  0  0  3  0  0  0  0  0  0
  181.7250  176.6740  138.5860 C   0  0  2  0  0  3  0  0  0  0  0  0
  178.9340  175.9160  141.0930 O   0  0  0  0  0  1  0  0  0  0  0  0
  180.0510  176.6020  140.6220 C   0  0  1  0  0  3  0  0  0  0  0  0
  179.5270  180.8960  142.0550 N   0  0  0  0  0  1  0  0  0  0  0  0
  179.6470  179.6570  142.7450 C   0  0  0  0  0  0  0  0  0  0  0  0
  179.0820  179.5050  143.8600 O   0  0  0  0  0  0  0  0  0  0  0  0
  179.4860  175.7500  137.1830 C   0  0  0  0  0  1  0  0  0  0  0  0
  179.3200  176.5350  138.3220 O   0  0  0  0  0  0  0  0  0  0  0  0
  182.7910  178.2180  137.4020 C   0  0  0  0  0  1  0  0  0  0  0  0
  181.6370  178.0080  138.1620 O   0  0  0  0  0  0  0  0  0  0  0  0
  1  4  1  0  0  0  0
  1  2  1  6  0  0  0
  2  3  1  0  0  0  0
  4 19  1  6  0  0  0
  4  6  1  0  0  0  0
  6  5  1  1  0  0  0
  6  7  1  0  0  0  0
  7  8  1  0  0  0  0
  8  9  1  0  0  0  0
  9 10  1  0  0  0  0
 10 11  1  0  0  0  0
 11 14  1  0  0  0  0
 11 12  2  0  0  0  0
 16 15  1  0  0  0  0
 17 13  1  6  0  0  0
 17 16  1  0  0  0  0
 17 18  1  0  0  0  0
 18 15  1  0  0  0  0
 18 14  2  0  0  0  0
 20 19  1  0  0  0  0
 21 20  1  0  0  0  0
 23 22  2  0  0  0  0
 23 21  1  0  0  0  0
 24 23  1  0  0  0  0
 25 24  1  6  0  0  0
 25 27  1  0  0  0  0
 26 27  1  0  0  0  0
 28 32  1  1  0  0  0
 28 25  1  0  0  0  0
 29 31  2  0  0  0  0
 30 31  1  0  0  0  0
 31 28  1  0  0  0  0
 33 32  1  0  0  0  0
 33 34  1  0  0  0  0
 35 36  1  0  0  0  0
 35  1  1  0  0  0  0
 36 39  1  0  0  0  0
 37 38  2  0  0  0  0
 38 40  1  0  0  0  0
 39 38  1  0  0  0  0
 41 40  1  0  0  0  0
 41 43  1  0  0  0  0
 43 42  2  0  0  0  0
 45 43  1  0  0  0  0
 45 44  1  1  0  0  0
 46 52  1  0  0  0  0
 46 45  1  1  0  0  0
 47 60  1  6  0  0  0
 47 55  1  0  0  0  0
 48 52  1  0  0  0  0
 49 50  1  0  0  0  0
 50 51  1  0  0  0  0
 51 46  1  0  0  0  0
 52 57  1  6  0  0  0
 53 62  1  1  0  0  0
 53 47  1  0  0  0  0
 53 49  1  0  0  0  0
 55 48  1  0  0  0  0
 55 54  1  6  0  0  0
 56 57  1  0  0  0  0
 57 58  2  0  0  0  0
 59 60  1  0  0  0  0
 61 62  1  0  0  0  0
M  END
>  <MODEL>
2

>  <REMARK>
 VINA RESULT:      -5.2      3.168      8.560
  Name = 
  31 active torsions:
  status: ('A' for Active; 'I' for Inactive)
    1  A    between atoms: C_1  and  C_42
    2  A    between atoms: C_4  and  C_48
    3  A    between atoms: C_6  and  C_25
    4  A    between atoms: C_6  and  C_46
    5  A    between atoms: C_6  and  C_49
    6  A    between atoms: N_7  and  C_28
    7  A    between atoms: C_9  and  C_26
    8  A    between atoms: C_9  and  C_28
    9  A    between atoms: C_14  and  C_47
   10  A    between atoms: C_16  and  C_41
   11  A    between atoms: C_17  and  O_62
   12  A    between atoms: C_23  and  C_25
   13  A    between atoms: C_23  and  C_56
   14  A    between atoms: O_24  and  C_43
   15  A    between atoms: C_26  and  C_32
   16  A    between atoms: C_30  and  S_53
   17  A    between atoms: C_30  and  N_55
   18  A    between atoms: O_31  and  C_47
   19  A    between atoms: O_31  and  C_60
   20  A    between atoms: C_32  and  C_54
   21  A    between atoms: C_36  and  C_59
   22  A    between atoms: C_42  and  C_60
   23  A    between atoms: C_44  and  N_45
   24  A    between atoms: C_44  and  C_56
   25  A    between atoms: N_45  and  C_58
   26  A    between atoms: C_48  and  S_53
   27  A    between atoms: C_48  and  C_58
   28  A    between atoms: C_49  and  C_59
   29  A    between atoms: C_49  and  C_61
   30  A    between atoms: C_50  and  C_54
   31  A    between atoms: C_50  and  C_58
                            x       y       z     vdW  Elec       q    Type
                         _______ _______ _______ _____ _____    ______ ____

>  <TORSDO>
F 31

$$$$
=
 OpenBabel11042410093D

 62 63  0  0  1  0  0  0  0  0999 V2000
  190.6060  175.8330  135.9800 C   0  0  1  0  0  3  0  0  0  0  0  0
  191.1500  176.5190  134.7380 C   0  0  0  0  0  2  0  0  0  0  0  0
  192.5340  176.3370  134.6660 O   0  0  0  0  0  1  0  0  0  0  0  0
  191.0770  176.5780  137.2330 C   0  0  2  0  0  3  0  0  0  0  0  0
  193.1230  177.2430  138.4100 N   0  0  0  0  0  1  0  0  0  0  0  0
  192.5570  176.2700  137.4900 C   0  0  1  0  0  3  0  0  0  0  0  0
  192.7660  174.8490  138.0120 C   0  0  0  0  0  2  0  0  0  0  0  0
  192.0310  173.8310  137.1560 C   0  0  0  0  0  2  0  0  0  0  0  0
  193.0230  172.9550  136.4100 C   0  0  0  0  0  2  0  0  0  0  0  0
  194.3870  173.6220  136.3810 C   0  0  0  0  0  2  0  0  0  0  0  0
  195.2990  173.0660  137.4240 C   0  0  0  0  0  0  0  0  0  0  0  0
  194.9240  172.0990  138.1410 O   0  0  0  0  0  0  0  0  0  0  0  0
  197.6950  171.9810  135.0210 C   0  0  0  0  0  1  0  0  0  0  0  0
  196.5780  173.6800  137.6230 N   0  0  0  0  0  0  0  0  0  0  0  0
  198.8550  174.4180  136.5940 C   0  0  0  0  0  2  0  0  0  0  0  0
  199.0170  174.0600  135.1570 C   0  0  0  0  0  2  0  0  0  0  0  0
  197.6420  173.4890  135.2240 C   0  0  2  0  0  3  0  0  0  0  0  0
  197.4700  173.8210  136.6930 C   0  0  0  0  0  0  0  0  0  0  0  0
  190.2680  176.2230  138.3980 N   0  0  0  0  0  2  0  0  0  0  0  0
  190.5670  177.1780  139.4560 C   0  0  0  0  0  2  0  0  0  0  0  0
  190.8780  176.4480  140.7560 C   0  0  0  0  0  2  0  0  0  0  0  0
  192.0940  177.4810  142.4970 O   0  0  0  0  0  0  0  0  0  0  0  0
  191.0320  177.4030  141.8990 C   0  0  0  0  0  0  0  0  0  0  0  0
  189.9140  178.3260  142.2630 C   0  0  0  0  0  2  0  0  0  0  0  0
  188.7120  177.5630  142.8140 C   0  0  2  0  0  3  0  0  0  0  0  0
  187.5280  179.1510  141.4690 O   0  0  0  0  0  1  0  0  0  0  0  0
  187.5260  177.8200  141.8900 C   0  0  0  0  0  2  0  0  0  0  0  0
  188.4110  178.0040  144.2580 C   0  0  2  0  0  3  0  0  0  0  0  0
  190.5200  178.7690  145.3710 O   0  0  0  0  0  0  0  0  0  0  0  0
  189.7320  176.6460  145.7070 O   0  0  0  0  0  1  0  0  0  0  0  0
  189.5880  177.7640  145.1490 C   0  0  0  0  0  0  0  0  0  0  0  0
  187.1930  177.2900  144.8390 C   0  0  0  0  0  2  0  0  0  0  0  0
  186.4760  178.2100  145.8080 C   0  0  0  0  0  2  0  0  0  0  0  0
  185.0970  178.0690  145.6520 O   0  0  0  0  0  1  0  0  0  0  0  0
  188.7880  175.7410  135.8580 S   0  0  0  0  0  0  0  0  0  0  0  0
  188.6430  177.5390  135.6380 C   0  0  0  0  0  2  0  0  0  0  0  0
  186.8390  176.2790  137.4450 O   0  0  0  0  0  0  0  0  0  0  0  0
  186.4370  177.3090  136.8440 C   0  0  0  0  0  0  0  0  0  0  0  0
  187.2710  177.9560  135.8840 N   0  0  0  0  0  2  0  0  0  0  0  0
  185.0620  177.8340  137.0860 C   0  0  0  0  0  2  0  0  0  0  0  0
  184.6160  177.4810  138.3910 O   0  0  0  0  0  0  0  0  0  0  0  0
  185.0700  179.5100  139.4010 O   0  0  0  0  0  0  0  0  0  0  0  0
  184.4080  178.4360  139.3900 C   0  0  0  0  0  0  0  0  0  0  0  0
  183.6990  178.9730  141.5870 F   0  0  0  0  0  0  0  0  0  0  0  0
  183.4320  178.1700  140.4860 C   0  0  1  0  0  3  0  0  0  0  0  0
  181.9870  178.3560  140.0040 C   0  0  1  0  0  3  0  0  0  0  0  0
  180.5930  180.4890  136.4780 C   0  0  1  0  0  3  0  0  0  0  0  0
  180.6530  178.2360  137.7510 C   0  0  0  0  0  2  0  0  0  0  0  0
  181.6710  181.8260  138.4960 C   0  0  0  0  0  2  0  0  0  0  0  0
  182.3110  180.5910  139.0290 C   0  0  0  0  0  2  0  0  0  0  0  0
  181.6350  179.8060  139.8700 C   0  0  0  0  0  2  0  0  0  0  0  0
  181.6820  177.5700  138.6920 C   0  0  2  0  0  3  0  0  0  0  0  0
  180.4050  181.4690  137.6720 C   0  0  2  0  0  3  0  0  0  0  0  0
  181.6480  178.5100  135.5880 O   0  0  0  0  0  1  0  0  0  0  0  0
  181.3590  179.1820  136.7730 C   0  0  1  0  0  3  0  0  0  0  0  0
  179.8940  175.7910  138.7620 N   0  0  0  0  0  1  0  0  0  0  0  0
  181.2450  176.1730  138.9950 C   0  0  0  0  0  0  0  0  0  0  0  0
  182.0540  175.3420  139.4870 O   0  0  0  0  0  0  0  0  0  0  0  0
  179.4070  180.7740  134.6240 C   0  0  0  0  0  1  0  0  0  0  0  0
  179.3560  180.2000  135.8930 O   0  0  0  0  0  0  0  0  0  0  0  0
  178.9350  182.2240  139.1520 C   0  0  0  0  0  1  0  0  0  0  0  0
  179.3550  181.0580  138.5060 O   0  0  0  0  0  0  0  0  0  0  0  0
  1  2  1  6  0  0  0
  1  4  1  0  0  0  0
  3  2  1  0  0  0  0
  4  6  1  0  0  0  0
  4 19  1  1  0  0  0
  6  7  1  0  0  0  0
  6  5  1  1  0  0  0
  8  7  1  0  0  0  0
  9  8  1  0  0  0  0
 10  9  1  0  0  0  0
 10 11  1  0  0  0  0
 11 14  1  0  0  0  0
 11 12  2  0  0  0  0
 15 18  1  0  0  0  0
 16 17  1  0  0  0  0
 16 15  1  0  0  0  0
 17 13  1  1  0  0  0
 17 18  1  0  0  0  0
 18 14  2  0  0  0  0
 19 20  1  0  0  0  0
 20 21  1  0  0  0  0
 21 23  1  0  0  0  0
 23 24  1  0  0  0  0
 23 22  2  0  0  0  0
 24 25  1  0  0  0  0
 25 27  1  6  0  0  0
 25 28  1  0  0  0  0
 26 27  1  0  0  0  0
 28 32  1  1  0  0  0
 28 31  1  0  0  0  0
 31 29  2  0  0  0  0
 31 30  1  0  0  0  0
 32 33  1  0  0  0  0
 34 33  1  0  0  0  0
 35  1  1  0  0  0  0
 36 35  1  0  0  0  0
 36 39  1  0  0  0  0
 38 40  1  0  0  0  0
 38 37  2  0  0  0  0
 39 38  1  0  0  0  0
 40 41  1  0  0  0  0
 41 43  1  0  0  0  0
 43 42  2  0  0  0  0
 43 45  1  0  0  0  0
 45 44  1  1  0  0  0
 46 45  1  6  0  0  0
 47 60  1  1  0  0  0
 47 55  1  0  0  0  0
 47 53  1  0  0  0  0
 48 52  1  0  0  0  0
 49 50  1  0  0  0  0
 50 51  1  0  0  0  0
 51 46  1  0  0  0  0
 52 57  1  1  0  0  0
 52 46  1  0  0  0  0
 53 49  1  0  0  0  0
 53 62  1  1  0  0  0
 55 54  1  6  0  0  0
 55 48  1  0  0  0  0
 56 57  1  0  0  0  0
 57 58  2  0  0  0  0
 59 60  1  0  0  0  0
 62 61  1  0  0  0  0
M  END
>  <MODEL>
3

>  <REMARK>
 VINA RESULT:      -4.1      3.390     10.336
  Name = 
  31 active torsions:
  status: ('A' for Active; 'I' for Inactive)
    1  A    between atoms: C_1  and  C_42
    2  A    between atoms: C_4  and  C_48
    3  A    between atoms: C_6  and  C_25
    4  A    between atoms: C_6  and  C_46
    5  A    between atoms: C_6  and  C_49
    6  A    between atoms: N_7  and  C_28
    7  A    between atoms: C_9  and  C_26
    8  A    between atoms: C_9  and  C_28
    9  A    between atoms: C_14  and  C_47
   10  A    between atoms: C_16  and  C_41
   11  A    between atoms: C_17  and  O_62
   12  A    between atoms: C_23  and  C_25
   13  A    between atoms: C_23  and  C_56
   14  A    between atoms: O_24  and  C_43
   15  A    between atoms: C_26  and  C_32
   16  A    between atoms: C_30  and  S_53
   17  A    between atoms: C_30  and  N_55
   18  A    between atoms: O_31  and  C_47
   19  A    between atoms: O_31  and  C_60
   20  A    between atoms: C_32  and  C_54
   21  A    between atoms: C_36  and  C_59
   22  A    between atoms: C_42  and  C_60
   23  A    between atoms: C_44  and  N_45
   24  A    between atoms: C_44  and  C_56
   25  A    between atoms: N_45  and  C_58
   26  A    between atoms: C_48  and  S_53
   27  A    between atoms: C_48  and  C_58
   28  A    between atoms: C_49  and  C_59
   29  A    between atoms: C_49  and  C_61
   30  A    between atoms: C_50  and  C_54
   31  A    between atoms: C_50  and  C_58
                            x       y       z     vdW  Elec       q    Type
                         _______ _______ _______ _____ _____    ______ ____

>  <TORSDO>
F 31

$$$$
=
 OpenBabel11042410093D

 62 63  0  0  1  0  0  0  0  0999 V2000
  183.7620  178.9970  141.2270 C   0  0  1  0  0  3  0  0  0  0  0  0
  184.0500  177.5050  141.2830 C   0  0  0  0  0  2  0  0  0  0  0  0
  185.1280  177.2650  142.1400 O   0  0  0  0  0  1  0  0  0  0  0  0
  183.1230  179.3510  139.8800 C   0  0  2  0  0  3  0  0  0  0  0  0
  180.7510  179.1720  140.4750 N   0  0  0  0  0  1  0  0  0  0  0  0
  181.8200  178.5610  139.7040 C   0  0  1  0  0  3  0  0  0  0  0  0
  181.4210  178.4320  138.2350 C   0  0  0  0  0  2  0  0  0  0  0  0
  180.0900  179.1120  137.9600 C   0  0  0  0  0  2  0  0  0  0  0  0
  179.5270  178.6490  136.6280 C   0  0  0  0  0  2  0  0  0  0  0  0
  179.0550  179.8420  135.8170 C   0  0  0  0  0  2  0  0  0  0  0  0
  180.1570  180.4300  135.0000 C   0  0  0  0  0  0  0  0  0  0  0  0
  181.1700  179.7340  134.7120 O   0  0  0  0  0  0  0  0  0  0  0  0
  180.1270  182.6540  137.7830 C   0  0  0  0  0  1  0  0  0  0  0  0
  180.0640  181.8000  134.5940 N   0  0  0  0  0  0  0  0  0  0  0  0
  180.5100  184.3040  135.1580 C   0  0  0  0  0  2  0  0  0  0  0  0
  181.1030  184.5260  136.5070 C   0  0  0  0  0  2  0  0  0  0  0  0
  181.0910  183.0450  136.6720 C   0  0  2  0  0  3  0  0  0  0  0  0
  180.4630  182.8010  135.3140 C   0  0  0  0  0  0  0  0  0  0  0  0
  184.0390  179.0850  138.7720 N   0  0  0  0  0  2  0  0  0  0  0  0
  185.3990  179.2360  139.2720 C   0  0  0  0  0  2  0  0  0  0  0  0
  186.3050  178.1690  138.6710 C   0  0  0  0  0  2  0  0  0  0  0  0
  186.9860  179.1590  136.6380 O   0  0  0  0  0  0  0  0  0  0  0  0
  186.3520  178.2660  137.1770 C   0  0  0  0  0  0  0  0  0  0  0  0
  185.6900  177.2220  136.3350 C   0  0  0  0  0  2  0  0  0  0  0  0
  185.9130  175.8210  136.8980 C   0  0  2  0  0  3  0  0  0  0  0  0
  187.2870  175.4070  134.9810 O   0  0  0  0  0  1  0  0  0  0  0  0
  187.2510  175.3100  136.3740 C   0  0  0  0  0  2  0  0  0  0  0  0
  184.7540  174.8890  136.4990 C   0  0  2  0  0  3  0  0  0  0  0  0
  182.2960  175.3580  136.4150 O   0  0  0  0  0  0  0  0  0  0  0  0
  183.4660  175.6330  138.3630 O   0  0  0  0  0  1  0  0  0  0  0  0
  183.4760  175.3160  137.1460 C   0  0  0  0  0  0  0  0  0  0  0  0
  185.0320  173.4320  136.8600 C   0  0  0  0  0  2  0  0  0  0  0  0
  185.0690  172.5930  135.5970 C   0  0  0  0  0  2  0  0  0  0  0  0
  185.6890  171.3720  135.8670 O   0  0  0  0  0  1  0  0  0  0  0  0
  182.7100  179.4520  142.6450 S   0  0  0  0  0  0  0  0  0  0  0  0
  184.1520  179.8650  143.6710 C   0  0  0  0  0  2  0  0  0  0  0  0
  185.3120  180.0750  146.2630 O   0  0  0  0  0  0  0  0  0  0  0  0
  185.0060  178.9250  145.8530 C   0  0  0  0  0  0  0  0  0  0  0  0
  184.4730  178.7450  144.5420 N   0  0  0  0  0  2  0  0  0  0  0  0
  185.2500  177.7310  146.7120 C   0  0  0  0  0  2  0  0  0  0  0  0
  186.6470  177.4910  146.8480 O   0  0  0  0  0  0  0  0  0  0  0  0
  187.0420  179.3720  148.1330 O   0  0  0  0  0  0  0  0  0  0  0  0
  187.4580  178.2720  147.6770 C   0  0  0  0  0  0  0  0  0  0  0  0
  188.8940  177.1700  149.2070 F   0  0  0  0  0  0  0  0  0  0  0  0
  188.8490  177.8330  147.9880 C   0  0  1  0  0  3  0  0  0  0  0  0
  189.4230  176.9600  146.8630 C   0  0  1  0  0  3  0  0  0  0  0  0
  191.0830  178.2490  143.0530 C   0  0  1  0  0  3  0  0  0  0  0  0
  191.4970  176.9600  145.2610 C   0  0  0  0  0  2  0  0  0  0  0  0
  188.4940  178.5390  143.5370 C   0  0  0  0  0  2  0  0  0  0  0  0
  188.7090  178.4050  145.0060 C   0  0  0  0  0  2  0  0  0  0  0  0
  188.7100  177.1950  145.5670 C   0  0  0  0  0  2  0  0  0  0  0  0
  190.9660  177.1170  146.7030 C   0  0  2  0  0  3  0  0  0  0  0  0
  189.6200  177.8110  142.7560 C   0  0  2  0  0  3  0  0  0  0  0  0
  192.7380  178.9250  144.6750 O   0  0  0  0  0  1  0  0  0  0  0  0
  191.4940  178.3130  144.5410 C   0  0  1  0  0  3  0  0  0  0  0  0
  192.7660  176.6600  148.4090 N   0  0  0  0  0  1  0  0  0  0  0  0
  191.6960  176.1760  147.6060 C   0  0  0  0  0  0  0  0  0  0  0  0
  191.3950  174.9540  147.6350 O   0  0  0  0  0  0  0  0  0  0  0  0
  191.4010  177.2760  141.0840 C   0  0  0  0  0  1  0  0  0  0  0  0
  191.9800  177.4460  142.3410 O   0  0  0  0  0  0  0  0  0  0  0  0
  188.1630  176.1670  142.4390 C   0  0  0  0  0  1  0  0  0  0  0  0
  189.4780  176.4180  142.8410 O   0  0  0  0  0  0  0  0  0  0  0  0
  1  2  1  6  0  0  0
  1 35  1  0  0  0  0
  2  3  1  0  0  0  0
  4 19  1  6  0  0  0
  4  1  1  0  0  0  0
  6  4  1  0  0  0  0
  6  5  1  1  0  0  0
  7  6  1  0  0  0  0
  8  7  1  0  0  0  0
  9  8  1  0  0  0  0
 10  9  1  0  0  0  0
 11 10  1  0  0  0  0
 12 11  2  0  0  0  0
 14 11  1  0  0  0  0
 14 18  2  0  0  0  0
 15 18  1  0  0  0  0
 15 16  1  0  0  0  0
 16 17  1  0  0  0  0
 17 13  1  1  0  0  0
 18 17  1  0  0  0  0
 19 20  1  0  0  0  0
 21 20  1  0  0  0  0
 22 23  2  0  0  0  0
 23 21  1  0  0  0  0
 24 23  1  0  0  0  0
 25 24  1  6  0  0  0
 26 27  1  0  0  0  0
 27 25  1  0  0  0  0
 28 32  1  1  0  0  0
 28 25  1  0  0  0  0
 28 31  1  0  0  0  0
 29 31  2  0  0  0  0
 31 30  1  0  0  0  0
 33 34  1  0  0  0  0
 33 32  1  0  0  0  0
 35 36  1  0  0  0  0
 36 39  1  0  0  0  0
 38 37  2  0  0  0  0
 38 40  1  0  0  0  0
 39 38  1  0  0  0  0
 40 41  1  0  0  0  0
 41 43  1  0  0  0  0
 43 45  1  0  0  0  0
 43 42  2  0  0  0  0
 45 44  1  1  0  0  0
 46 45  1  1  0  0  0
 47 60  1  6  0  0  0
 47 55  1  0  0  0  0
 48 52  1  0  0  0  0
 49 50  1  0  0  0  0
 50 51  1  0  0  0  0
 51 46  1  0  0  0  0
 52 46  1  0  0  0  0
 52 57  1  1  0  0  0
 53 62  1  1  0  0  0
 53 47  1  0  0  0  0
 53 49  1  0  0  0  0
 55 54  1  6  0  0  0
 55 48  1  0  0  0  0
 57 58  2  0  0  0  0
 57 56  1  0  0  0  0
 59 60  1  0  0  0  0
 61 62  1  0  0  0  0
M  END
>  <MODEL>
4

>  <REMARK>
 VINA RESULT:      -3.3      3.338      6.190
  Name = 
  31 active torsions:
  status: ('A' for Active; 'I' for Inactive)
    1  A    between atoms: C_1  and  C_42
    2  A    between atoms: C_4  and  C_48
    3  A    between atoms: C_6  and  C_25
    4  A    between atoms: C_6  and  C_46
    5  A    between atoms: C_6  and  C_49
    6  A    between atoms: N_7  and  C_28
    7  A    between atoms: C_9  and  C_26
    8  A    between atoms: C_9  and  C_28
    9  A    between atoms: C_14  and  C_47
   10  A    between atoms: C_16  and  C_41
   11  A    between atoms: C_17  and  O_62
   12  A    between atoms: C_23  and  C_25
   13  A    between atoms: C_23  and  C_56
   14  A    between atoms: O_24  and  C_43
   15  A    between atoms: C_26  and  C_32
   16  A    between atoms: C_30  and  S_53
   17  A    between atoms: C_30  and  N_55
   18  A    between atoms: O_31  and  C_47
   19  A    between atoms: O_31  and  C_60
   20  A    between atoms: C_32  and  C_54
   21  A    between atoms: C_36  and  C_59
   22  A    between atoms: C_42  and  C_60
   23  A    between atoms: C_44  and  N_45
   24  A    between atoms: C_44  and  C_56
   25  A    between atoms: N_45  and  C_58
   26  A    between atoms: C_48  and  S_53
   27  A    between atoms: C_48  and  C_58
   28  A    between atoms: C_49  and  C_59
   29  A    between atoms: C_49  and  C_61
   30  A    between atoms: C_50  and  C_54
   31  A    between atoms: C_50  and  C_58
                            x       y       z     vdW  Elec       q    Type
                         _______ _______ _______ _____ _____    ______ ____

>  <TORSDO>
F 31

$$$$
=
 OpenBabel11042410093D

 62 63  0  0  1  0  0  0  0  0999 V2000
  183.1790  179.2770  140.3060 C   0  0  1  0  0  3  0  0  0  0  0  0
  184.0000  179.8880  139.1820 C   0  0  0  0  0  2  0  0  0  0  0  0
  183.1790  180.1330  138.0770 O   0  0  0  0  0  1  0  0  0  0  0  0
  181.9100  178.6380  139.7330 C   0  0  2  0  0  3  0  0  0  0  0  0
  181.6250  178.3350  142.1500 N   0  0  0  0  0  1  0  0  0  0  0  0
  180.9330  178.3200  140.8720 C   0  0  1  0  0  3  0  0  0  0  0  0
  179.7430  179.2770  140.8910 C   0  0  0  0  0  2  0  0  0  0  0  0
  180.0940  180.6130  140.2570 C   0  0  0  0  0  2  0  0  0  0  0  0
  179.1120  180.9430  139.1460 C   0  0  0  0  0  2  0  0  0  0  0  0
  179.4220  180.1140  137.9120 C   0  0  0  0  0  2  0  0  0  0  0  0
  179.4560  180.9490  136.6760 C   0  0  0  0  0  0  0  0  0  0  0  0
  179.9760  180.4950  135.6200 O   0  0  0  0  0  0  0  0  0  0  0  0
  181.9350  183.3270  137.6230 C   0  0  0  0  0  1  0  0  0  0  0  0
  178.9330  182.2820  136.7270 N   0  0  0  0  0  0  0  0  0  0  0  0
  179.4010  184.8420  136.6000 C   0  0  0  0  0  2  0  0  0  0  0  0
  180.8410  185.1880  136.4290 C   0  0  0  0  0  2  0  0  0  0  0  0
  181.1110  183.7230  136.4050 C   0  0  2  0  0  3  0  0  0  0  0  0
  179.6550  183.3520  136.6060 C   0  0  0  0  0  0  0  0  0  0  0  0
  182.2220  177.4300  138.9710 N   0  0  0  0  0  2  0  0  0  0  0  0
  181.1930  177.2670  137.9530 C   0  0  0  0  0  2  0  0  0  0  0  0
  181.7860  177.4620  136.5640 C   0  0  0  0  0  2  0  0  0  0  0  0
  182.3740  175.2660  135.9270 O   0  0  0  0  0  0  0  0  0  0  0  0
  182.7670  176.3810  136.2290 C   0  0  0  0  0  0  0  0  0  0  0  0
  184.2310  176.6840  136.1820 C   0  0  0  0  0  2  0  0  0  0  0  0
  185.0680  175.4670  136.5680 C   0  0  2  0  0  3  0  0  0  0  0  0
  184.0710  173.6510  137.7690 O   0  0  0  0  0  1  0  0  0  0  0  0
  184.5590  174.9520  137.9110 C   0  0  0  0  0  2  0  0  0  0  0  0
  186.5610  175.8390  136.6320 C   0  0  2  0  0  3  0  0  0  0  0  0
  187.0570  178.2090  135.9910 O   0  0  0  0  0  0  0  0  0  0  0  0
  186.5930  177.6650  138.1650 O   0  0  0  0  0  1  0  0  0  0  0  0
  186.7390  177.2830  136.9770 C   0  0  0  0  0  0  0  0  0  0  0  0
  187.2870  175.5460  135.3220 C   0  0  0  0  0  2  0  0  0  0  0  0
  188.5800  176.3370  135.2680 C   0  0  0  0  0  2  0  0  0  0  0  0
  189.6650  175.4690  135.3980 O   0  0  0  0  0  1  0  0  0  0  0  0
  184.2170  178.0850  141.2160 S   0  0  0  0  0  0  0  0  0  0  0  0
  184.8730  179.3830  142.3060 C   0  0  0  0  0  2  0  0  0  0  0  0
  183.6990  179.9010  144.8480 O   0  0  0  0  0  0  0  0  0  0  0  0
  184.6350  179.0610  144.7980 C   0  0  0  0  0  0  0  0  0  0  0  0
  185.3030  178.7970  143.5660 N   0  0  0  0  0  2  0  0  0  0  0  0
  185.0940  178.3720  146.0390 C   0  0  0  0  0  2  0  0  0  0  0  0
  186.4340  178.7400  146.3470 O   0  0  0  0  0  0  0  0  0  0  0  0
  186.6320  177.3480  148.1830 O   0  0  0  0  0  0  0  0  0  0  0  0
  187.1930  178.0540  147.3000 C   0  0  0  0  0  0  0  0  0  0  0  0
  189.1680  178.1090  148.6090 F   0  0  0  0  0  0  0  0  0  0  0  0
  188.6780  178.1940  147.3130 C   0  0  1  0  0  3  0  0  0  0  0  0
  189.3440  177.1550  146.4010 C   0  0  1  0  0  3  0  0  0  0  0  0
  191.0370  177.7600  142.4390 C   0  0  1  0  0  3  0  0  0  0  0  0
  191.4640  176.9780  144.8700 C   0  0  0  0  0  2  0  0  0  0  0  0
  188.4210  177.9570  142.8060 C   0  0  0  0  0  2  0  0  0  0  0  0
  188.5960  178.1400  144.2740 C   0  0  0  0  0  2  0  0  0  0  0  0
  188.6590  177.0710  145.0710 C   0  0  0  0  0  2  0  0  0  0  0  0
  190.8780  177.3860  146.2400 C   0  0  2  0  0  3  0  0  0  0  0  0
  189.6160  177.1680  142.2100 C   0  0  2  0  0  3  0  0  0  0  0  0
  192.5910  178.8670  143.9180 O   0  0  0  0  0  1  0  0  0  0  0  0
  191.3950  178.1530  143.8890 C   0  0  1  0  0  3  0  0  0  0  0  0
  191.1510  176.7490  148.6650 N   0  0  0  0  0  1  0  0  0  0  0  0
  191.6390  176.7020  147.3290 C   0  0  0  0  0  0  0  0  0  0  0  0
  192.7250  176.1140  147.0800 O   0  0  0  0  0  0  0  0  0  0  0  0
  192.3710  177.4460  140.6940 C   0  0  0  0  0  1  0  0  0  0  0  0
  192.0070  176.8960  141.9220 O   0  0  0  0  0  0  0  0  0  0  0  0
  188.2190  175.5760  142.8720 C   0  0  0  0  0  1  0  0  0  0  0  0
  189.5640  175.8150  142.5760 O   0  0  0  0  0  0  0  0  0  0  0  0
  1  2  1  6  0  0  0
  1 35  1  0  0  0  0
  3  2  1  0  0  0  0
  4 19  1  1  0  0  0
  4  1  1  0  0  0  0
  4  6  1  0  0  0  0
  6  7  1  0  0  0  0
  6  5  1  1  0  0  0
  8  7  1  0  0  0  0
  9  8  1  0  0  0  0
 10  9  1  0  0  0  0
 11 14  1  0  0  0  0
 11 10  1  0  0  0  0
 12 11  2  0  0  0  0
 15 18  1  0  0  0  0
 16 15  1  0  0  0  0
 17 16  1  0  0  0  0
 17 18  1  0  0  0  0
 17 13  1  1  0  0  0
 18 14  2  0  0  0  0
 20 19  1  0  0  0  0
 21 20  1  0  0  0  0
 22 23  2  0  0  0  0
 23 21  1  0  0  0  0
 24 23  1  0  0  0  0
 25 24  1  1  0  0  0
 25 28  1  0  0  0  0
 25 27  1  0  0  0  0
 26 27  1  0  0  0  0
 28 32  1  6  0  0  0
 28 31  1  0  0  0  0
 29 31  2  0  0  0  0
 31 30  1  0  0  0  0
 33 32  1  0  0  0  0
 33 34  1  0  0  0  0
 35 36  1  0  0  0  0
 36 39  1  0  0  0  0
 38 37  2  0  0  0  0
 38 40  1  0  0  0  0
 39 38  1  0  0  0  0
 40 41  1  0  0  0  0
 41 43  1  0  0  0  0
 43 45  1  0  0  0  0
 43 42  2  0  0  0  0
 45 44  1  1  0  0  0
 46 45  1  1  0  0  0
 47 60  1  1  0  0  0
 47 55  1  0  0  0  0
 48 52  1  0  0  0  0
 49 50  1  0  0  0  0
 50 51  1  0  0  0  0
 51 46  1  0  0  0  0
 52 46  1  0  0  0  0
 52 57  1  1  0  0  0
 53 47  1  0  0  0  0
 53 62  1  1  0  0  0
 53 49  1  0  0  0  0
 55 54  1  6  0  0  0
 55 48  1  0  0  0  0
 57 56  1  0  0  0  0
 58 57  2  0  0  0  0
 59 60  1  0  0  0  0
 62 61  1  0  0  0  0
M  END
>  <MODEL>
5

>  <REMARK>
 VINA RESULT:      -3.2      3.312      6.252
  Name = 
  31 active torsions:
  status: ('A' for Active; 'I' for Inactive)
    1  A    between atoms: C_1  and  C_42
    2  A    between atoms: C_4  and  C_48
    3  A    between atoms: C_6  and  C_25
    4  A    between atoms: C_6  and  C_46
    5  A    between atoms: C_6  and  C_49
    6  A    between atoms: N_7  and  C_28
    7  A    between atoms: C_9  and  C_26
    8  A    between atoms: C_9  and  C_28
    9  A    between atoms: C_14  and  C_47
   10  A    between atoms: C_16  and  C_41
   11  A    between atoms: C_17  and  O_62
   12  A    between atoms: C_23  and  C_25
   13  A    between atoms: C_23  and  C_56
   14  A    between atoms: O_24  and  C_43
   15  A    between atoms: C_26  and  C_32
   16  A    between atoms: C_30  and  S_53
   17  A    between atoms: C_30  and  N_55
   18  A    between atoms: O_31  and  C_47
   19  A    between atoms: O_31  and  C_60
   20  A    between atoms: C_32  and  C_54
   21  A    between atoms: C_36  and  C_59
   22  A    between atoms: C_42  and  C_60
   23  A    between atoms: C_44  and  N_45
   24  A    between atoms: C_44  and  C_56
   25  A    between atoms: N_45  and  C_58
   26  A    between atoms: C_48  and  S_53
   27  A    between atoms: C_48  and  C_58
   28  A    between atoms: C_49  and  C_59
   29  A    between atoms: C_49  and  C_61
   30  A    between atoms: C_50  and  C_54
   31  A    between atoms: C_50  and  C_58
                            x       y       z     vdW  Elec       q    Type
                         _______ _______ _______ _____ _____    ______ ____

>  <TORSDO>
F 31

$$$$
=
 OpenBabel11042410093D

 62 63  0  0  1  0  0  0  0  0999 V2000
  182.7930  179.1530  140.4680 C   0  0  1  0  0  3  0  0  0  0  0  0
  183.2850  179.7350  139.1520 C   0  0  0  0  0  2  0  0  0  0  0  0
  184.6680  179.9290  139.2110 O   0  0  0  0  0  1  0  0  0  0  0  0
  181.3700  178.6100  140.2950 C   0  0  2  0  0  3  0  0  0  0  0  0
  181.7120  178.6280  142.7240 N   0  0  0  0  0  1  0  0  0  0  0  0
  180.7540  178.3320  141.6720 C   0  0  1  0  0  3  0  0  0  0  0  0
  179.4570  179.1100  141.8890 C   0  0  0  0  0  2  0  0  0  0  0  0
  179.6480  180.5930  141.6160 C   0  0  0  0  0  2  0  0  0  0  0  0
  178.9310  180.9910  140.3380 C   0  0  0  0  0  2  0  0  0  0  0  0
  179.9420  181.3400  139.2600 C   0  0  0  0  0  2  0  0  0  0  0  0
  179.5300  182.5460  138.4820 C   0  0  0  0  0  0  0  0  0  0  0  0
  178.9310  183.4950  139.0580 O   0  0  0  0  0  0  0  0  0  0  0  0
  179.3240  185.8500  137.1650 C   0  0  0  0  0  1  0  0  0  0  0  0
  179.7850  182.5810  137.0730 N   0  0  0  0  0  0  0  0  0  0  0  0
  180.5630  183.9620  135.0050 C   0  0  0  0  0  2  0  0  0  0  0  0
  180.8840  185.3850  135.3120 C   0  0  0  0  0  2  0  0  0  0  0  0
  180.5590  185.0720  136.7320 C   0  0  2  0  0  3  0  0  0  0  0  0
  180.2010  183.6300  136.4350 C   0  0  0  0  0  0  0  0  0  0  0  0
  181.3600  177.4010  139.4740 N   0  0  0  0  0  2  0  0  0  0  0  0
  180.8930  176.3010  140.3060 C   0  0  0  0  0  2  0  0  0  0  0  0
  179.6650  175.6490  139.6830 C   0  0  0  0  0  2  0  0  0  0  0  0
  179.1460  175.9340  137.3970 O   0  0  0  0  0  0  0  0  0  0  0  0
  179.8640  175.3910  138.2210 C   0  0  0  0  0  0  0  0  0  0  0  0
  180.9940  174.5290  137.7570 C   0  0  0  0  0  2  0  0  0  0  0  0
  181.6880  175.1220  136.5340 C   0  0  2  0  0  3  0  0  0  0  0  0
  180.5030  173.2560  135.6130 O   0  0  0  0  0  1  0  0  0  0  0  0
  181.0730  174.4890  135.2900 C   0  0  0  0  0  2  0  0  0  0  0  0
  183.2060  174.8760  136.6040 C   0  0  2  0  0  3  0  0  0  0  0  0
  185.3340  175.9750  135.8710 O   0  0  0  0  0  1  0  0  0  0  0  0
  183.3600  177.1340  135.8560 O   0  0  0  0  0  0  0  0  0  0  0  0
  183.9650  176.0580  136.0930 C   0  0  0  0  0  0  0  0  0  0  0  0
  183.6290  173.6360  135.8190 C   0  0  0  0  0  2  0  0  0  0  0  0
  184.7290  172.9090  136.5680 C   0  0  0  0  0  2  0  0  0  0  0  0
  184.8480  173.4390  137.8530 O   0  0  0  0  0  1  0  0  0  0  0  0
  183.9690  177.8770  141.0280 S   0  0  0  0  0  0  0  0  0  0  0  0
  184.9740  179.0980  141.9240 C   0  0  0  0  0  2  0  0  0  0  0  0
  183.9990  180.1730  144.3730 O   0  0  0  0  0  0  0  0  0  0  0  0
  184.7280  179.1490  144.4360 C   0  0  0  0  0  0  0  0  0  0  0  0
  185.2940  178.5940  143.2500 N   0  0  0  0  0  2  0  0  0  0  0  0
  185.0540  178.5370  145.7560 C   0  0  0  0  0  2  0  0  0  0  0  0
  186.4630  178.4930  145.9520 O   0  0  0  0  0  0  0  0  0  0  0  0
  186.3260  177.2160  147.8730 O   0  0  0  0  0  0  0  0  0  0  0  0
  187.0430  177.8370  147.0420 C   0  0  0  0  0  0  0  0  0  0  0  0
  188.8440  177.4950  148.5430 F   0  0  0  0  0  0  0  0  0  0  0  0
  188.5160  177.9100  147.2590 C   0  0  1  0  0  3  0  0  0  0  0  0
  189.2760  177.0940  146.2050 C   0  0  1  0  0  3  0  0  0  0  0  0
  191.3860  178.5600  142.6930 C   0  0  1  0  0  3  0  0  0  0  0  0
  191.5490  177.2250  144.9050 C   0  0  0  0  0  2  0  0  0  0  0  0
  188.7450  178.7320  142.8200 C   0  0  0  0  0  2  0  0  0  0  0  0
  188.7620  178.5640  144.3000 C   0  0  0  0  0  2  0  0  0  0  0  0
  188.7390  177.3380  144.8280 C   0  0  0  0  0  2  0  0  0  0  0  0
  190.8190  177.3180  146.2630 C   0  0  2  0  0  3  0  0  0  0  0  0
  189.9980  178.0730  142.1850 C   0  0  2  0  0  3  0  0  0  0  0  0
  192.7710  179.2540  144.5430 O   0  0  0  0  0  1  0  0  0  0  0  0
  191.5860  178.5970  144.2240 C   0  0  1  0  0  3  0  0  0  0  0  0
  192.3370  176.8920  148.2320 N   0  0  0  0  0  1  0  0  0  0  0  0
  191.4580  176.3810  147.2360 C   0  0  0  0  0  0  0  0  0  0  0  0
  191.2540  175.1410  147.1600 O   0  0  0  0  0  0  0  0  0  0  0  0
  191.7800  176.6770  141.5860 C   0  0  0  0  0  1  0  0  0  0  0  0
  192.4070  177.8150  142.0930 O   0  0  0  0  0  0  0  0  0  0  0  0
  188.8600  176.3630  141.3460 C   0  0  0  0  0  1  0  0  0  0  0  0
  189.9080  176.6730  142.2170 O   0  0  0  0  0  0  0  0  0  0  0  0
  1  2  1  6  0  0  0
  1 35  1  0  0  0  0
  2  3  1  0  0  0  0
  4 19  1  6  0  0  0
  4  1  1  0  0  0  0
  4  6  1  0  0  0  0
  6  7  1  0  0  0  0
  6  5  1  1  0  0  0
  8  7  1  0  0  0  0
  9  8  1  0  0  0  0
 10  9  1  0  0  0  0
 11 12  2  0  0  0  0
 11 10  1  0  0  0  0
 14 11  1  0  0  0  0
 15 16  1  0  0  0  0
 15 18  1  0  0  0  0
 16 17  1  0  0  0  0
 17 13  1  6  0  0  0
 18 17  1  0  0  0  0
 18 14  2  0  0  0  0
 19 20  1  0  0  0  0
 21 20  1  0  0  0  0
 22 23  2  0  0  0  0
 23 21  1  0  0  0  0
 24 23  1  0  0  0  0
 25 27  1  6  0  0  0
 25 28  1  0  0  0  0
 25 24  1  0  0  0  0
 27 26  1  0  0  0  0
 28 32  1  6  0  0  0
 29 31  1  0  0  0  0
 30 31  2  0  0  0  0
 31 28  1  0  0  0  0
 32 33  1  0  0  0  0
 33 34  1  0  0  0  0
 35 36  1  0  0  0  0
 36 39  1  0  0  0  0
 37 38  2  0  0  0  0
 38 40  1  0  0  0  0
 39 38  1  0  0  0  0
 40 41  1  0  0  0  0
 41 43  1  0  0  0  0
 43 45  1  0  0  0  0
 43 42  2  0  0  0  0
 45 44  1  1  0  0  0
 46 52  1  0  0  0  0
 46 45  1  1  0  0  0
 47 60  1  6  0  0  0
 47 55  1  0  0  0  0
 48 52  1  0  0  0  0
 49 50  1  0  0  0  0
 50 51  1  0  0  0  0
 51 46  1  0  0  0  0
 52 57  1  1  0  0  0
 53 62  1  1  0  0  0
 53 47  1  0  0  0  0
 53 49  1  0  0  0  0
 55 54  1  6  0  0  0
 55 48  1  0  0  0  0
 57 56  1  0  0  0  0
 58 57  2  0  0  0  0
 59 60  1  0  0  0  0
 61 62  1  0  0  0  0
M  END
>  <MODEL>
6

>  <REMARK>
 VINA RESULT:      -3.2      3.547      7.552
  Name = 
  31 active torsions:
  status: ('A' for Active; 'I' for Inactive)
    1  A    between atoms: C_1  and  C_42
    2  A    between atoms: C_4  and  C_48
    3  A    between atoms: C_6  and  C_25
    4  A    between atoms: C_6  and  C_46
    5  A    between atoms: C_6  and  C_49
    6  A    between atoms: N_7  and  C_28
    7  A    between atoms: C_9  and  C_26
    8  A    between atoms: C_9  and  C_28
    9  A    between atoms: C_14  and  C_47
   10  A    between atoms: C_16  and  C_41
   11  A    between atoms: C_17  and  O_62
   12  A    between atoms: C_23  and  C_25
   13  A    between atoms: C_23  and  C_56
   14  A    between atoms: O_24  and  C_43
   15  A    between atoms: C_26  and  C_32
   16  A    between atoms: C_30  and  S_53
   17  A    between atoms: C_30  and  N_55
   18  A    between atoms: O_31  and  C_47
   19  A    between atoms: O_31  and  C_60
   20  A    between atoms: C_32  and  C_54
   21  A    between atoms: C_36  and  C_59
   22  A    between atoms: C_42  and  C_60
   23  A    between atoms: C_44  and  N_45
   24  A    between atoms: C_44  and  C_56
   25  A    between atoms: N_45  and  C_58
   26  A    between atoms: C_48  and  S_53
   27  A    between atoms: C_48  and  C_58
   28  A    between atoms: C_49  and  C_59
   29  A    between atoms: C_49  and  C_61
   30  A    between atoms: C_50  and  C_54
   31  A    between atoms: C_50  and  C_58
                            x       y       z     vdW  Elec       q    Type
                         _______ _______ _______ _____ _____    ______ ____

>  <TORSDO>
F 31

$$$$
=
 OpenBabel11042410093D

 62 63  0  0  1  0  0  0  0  0999 V2000
  189.9610  177.2970  141.0010 C   0  0  1  0  0  3  0  0  0  0  0  0
  188.8300  176.3290  141.3120 C   0  0  0  0  0  2  0  0  0  0  0  0
  189.0190  175.7760  142.5820 O   0  0  0  0  0  1  0  0  0  0  0  0
  190.0380  177.5350  139.4900 C   0  0  2  0  0  3  0  0  0  0  0  0
  188.3700  179.0140  138.4670 N   0  0  0  0  0  1  0  0  0  0  0  0
  188.6220  177.6540  138.9130 C   0  0  1  0  0  3  0  0  0  0  0  0
  188.3780  176.6600  137.7790 C   0  0  0  0  0  2  0  0  0  0  0  0
  188.0360  177.3730  136.4810 C   0  0  0  0  0  2  0  0  0  0  0  0
  186.5640  177.1940  136.1540 C   0  0  0  0  0  2  0  0  0  0  0  0
  185.8100  176.7210  137.3850 C   0  0  0  0  0  2  0  0  0  0  0  0
  184.3320  176.7750  137.1850 C   0  0  0  0  0  0  0  0  0  0  0  0
  183.8570  177.0920  136.0590 O   0  0  0  0  0  0  0  0  0  0  0  0
  183.6990  179.6970  139.1220 C   0  0  0  0  0  1  0  0  0  0  0  0
  183.4720  176.5070  138.2990 N   0  0  0  0  0  0  0  0  0  0  0  0
  181.7580  177.4250  140.0340 C   0  0  0  0  0  2  0  0  0  0  0  0
  181.5100  178.8910  139.9250 C   0  0  0  0  0  2  0  0  0  0  0  0
  182.4570  178.8880  138.7750 C   0  0  2  0  0  3  0  0  0  0  0  0
  182.7430  177.4030  138.8870 C   0  0  0  0  0  0  0  0  0  0  0  0
  190.7770  176.4660  138.8210 N   0  0  0  0  0  2  0  0  0  0  0  0
  192.1500  176.5020  139.3060 C   0  0  0  0  0  2  0  0  0  0  0  0
  193.1240  176.5300  138.1350 C   0  0  0  0  0  2  0  0  0  0  0  0
  195.0210  175.3590  138.9160 O   0  0  0  0  0  0  0  0  0  0  0  0
  194.0560  175.3570  138.1680 C   0  0  0  0  0  0  0  0  0  0  0  0
  193.7650  174.1440  137.3450 C   0  0  0  0  0  2  0  0  0  0  0  0
  194.2020  174.3310  135.8950 C   0  0  2  0  0  3  0  0  0  0  0  0
  191.8120  174.2670  135.7550 O   0  0  0  0  0  1  0  0  0  0  0  0
  192.9800  174.1240  135.0040 C   0  0  0  0  0  2  0  0  0  0  0  0
  195.3330  173.3480  135.5420 C   0  0  2  0  0  3  0  0  0  0  0  0
  195.7450  171.0070  136.3310 O   0  0  0  0  0  1  0  0  0  0  0  0
  193.7450  171.5770  135.3750 O   0  0  0  0  0  0  0  0  0  0  0  0
  194.8950  171.9320  135.7400 C   0  0  0  0  0  0  0  0  0  0  0  0
  196.5950  173.5980  136.3640 C   0  0  0  0  0  2  0  0  0  0  0  0
  197.7130  172.7020  135.8680 C   0  0  0  0  0  2  0  0  0  0  0  0
  198.1110  173.1130  134.5950 O   0  0  0  0  0  1  0  0  0  0  0  0
  189.6990  178.8360  141.9430 S   0  0  0  0  0  0  0  0  0  0  0  0
  191.3390  178.7230  142.7190 C   0  0  0  0  0  2  0  0  0  0  0  0
  192.2270  176.1050  143.4010 O   0  0  0  0  0  0  0  0  0  0  0  0
  191.7350  176.8110  144.3190 C   0  0  0  0  0  0  0  0  0  0  0  0
  191.2200  178.1110  144.0320 N   0  0  0  0  0  2  0  0  0  0  0  0
  191.6330  176.2770  145.7070 C   0  0  0  0  0  2  0  0  0  0  0  0
  190.2740  176.0180  146.0440 O   0  0  0  0  0  0  0  0  0  0  0  0
  190.1830  177.4470  147.8600 O   0  0  0  0  0  0  0  0  0  0  0  0
  189.5720  176.8080  146.9600 C   0  0  0  0  0  0  0  0  0  0  0  0
  187.5470  176.7980  148.1930 F   0  0  0  0  0  0  0  0  0  0  0  0
  188.0820  176.8590  146.9130 C   0  0  1  0  0  3  0  0  0  0  0  0
  187.5910  178.1070  146.1670 C   0  0  1  0  0  3  0  0  0  0  0  0
  183.9210  178.5910  143.8790 C   0  0  1  0  0  3  0  0  0  0  0  0
  185.3550  179.4400  145.8610 C   0  0  0  0  0  2  0  0  0  0  0  0
  185.8340  176.9860  142.9930 C   0  0  0  0  0  2  0  0  0  0  0  0
  186.4550  176.9070  144.3450 C   0  0  0  0  0  2  0  0  0  0  0  0
  187.3520  177.8220  144.7160 C   0  0  0  0  0  2  0  0  0  0  0  0
  186.3400  178.7570  146.8350 C   0  0  2  0  0  3  0  0  0  0  0  0
  185.0420  178.3110  142.8360 C   0  0  2  0  0  3  0  0  0  0  0  0
  183.1760  178.4930  146.1730 O   0  0  0  0  0  1  0  0  0  0  0  0
  184.3100  178.4350  145.3660 C   0  0  1  0  0  3  0  0  0  0  0  0
  188.0520  179.6590  148.4520 N   0  0  0  0  0  1  0  0  0  0  0  0
  186.7440  179.7290  147.8950 C   0  0  0  0  0  0  0  0  0  0  0  0
  185.9280  180.5860  148.3240 O   0  0  0  0  0  0  0  0  0  0  0  0
  181.9840  179.6430  143.6240 C   0  0  0  0  0  1  0  0  0  0  0  0
  183.3620  179.8530  143.6580 O   0  0  0  0  0  0  0  0  0  0  0  0
  186.4620  179.2810  141.4360 C   0  0  0  0  0  1  0  0  0  0  0  0
  185.9060  179.4080  142.7110 O   0  0  0  0  0  0  0  0  0  0  0  0
  1  2  1  6  0  0  0
  1 35  1  0  0  0  0
  2  3  1  0  0  0  0
  4 19  1  6  0  0  0
  4  1  1  0  0  0  0
  6  5  1  6  0  0  0
  6  4  1  0  0  0  0
  7  6  1  0  0  0  0
  8  7  1  0  0  0  0
  9  8  1  0  0  0  0
  9 10  1  0  0  0  0
 11 10  1  0  0  0  0
 11 14  1  0  0  0  0
 12 11  2  0  0  0  0
 14 18  2  0  0  0  0
 16 15  1  0  0  0  0
 17 18  1  0  0  0  0
 17 13  1  1  0  0  0
 17 16  1  0  0  0  0
 18 15  1  0  0  0  0
 19 20  1  0  0  0  0
 21 23  1  0  0  0  0
 21 20  1  0  0  0  0
 23 22  2  0  0  0  0
 24 23  1  0  0  0  0
 25 27  1  6  0  0  0
 25 24  1  0  0  0  0
 27 26  1  0  0  0  0
 28 31  1  0  0  0  0
 28 25  1  0  0  0  0
 28 32  1  1  0  0  0
 30 31  2  0  0  0  0
 31 29  1  0  0  0  0
 33 32  1  0  0  0  0
 34 33  1  0  0  0  0
 35 36  1  0  0  0  0
 36 39  1  0  0  0  0
 37 38  2  0  0  0  0
 38 40  1  0  0  0  0
 39 38  1  0  0  0  0
 40 41  1  0  0  0  0
 41 43  1  0  0  0  0
 43 42  2  0  0  0  0
 45 43  1  0  0  0  0
 45 44  1  1  0  0  0
 46 52  1  0  0  0  0
 46 45  1  1  0  0  0
 47 60  1  1  0  0  0
 47 55  1  0  0  0  0
 48 52  1  0  0  0  0
 49 50  1  0  0  0  0
 50 51  1  0  0  0  0
 51 46  1  0  0  0  0
 52 57  1  1  0  0  0
 53 62  1  1  0  0  0
 53 49  1  0  0  0  0
 53 47  1  0  0  0  0
 55 48  1  0  0  0  0
 55 54  1  1  0  0  0
 57 58  2  0  0  0  0
 57 56  1  0  0  0  0
 59 60  1  0  0  0  0
 61 62  1  0  0  0  0
M  END
>  <MODEL>
7

>  <REMARK>
 VINA RESULT:      -3.2      2.760      5.353
  Name = 
  31 active torsions:
  status: ('A' for Active; 'I' for Inactive)
    1  A    between atoms: C_1  and  C_42
    2  A    between atoms: C_4  and  C_48
    3  A    between atoms: C_6  and  C_25
    4  A    between atoms: C_6  and  C_46
    5  A    between atoms: C_6  and  C_49
    6  A    between atoms: N_7  and  C_28
    7  A    between atoms: C_9  and  C_26
    8  A    between atoms: C_9  and  C_28
    9  A    between atoms: C_14  and  C_47
   10  A    between atoms: C_16  and  C_41
   11  A    between atoms: C_17  and  O_62
   12  A    between atoms: C_23  and  C_25
   13  A    between atoms: C_23  and  C_56
   14  A    between atoms: O_24  and  C_43
   15  A    between atoms: C_26  and  C_32
   16  A    between atoms: C_30  and  S_53
   17  A    between atoms: C_30  and  N_55
   18  A    between atoms: O_31  and  C_47
   19  A    between atoms: O_31  and  C_60
   20  A    between atoms: C_32  and  C_54
   21  A    between atoms: C_36  and  C_59
   22  A    between atoms: C_42  and  C_60
   23  A    between atoms: C_44  and  N_45
   24  A    between atoms: C_44  and  C_56
   25  A    between atoms: N_45  and  C_58
   26  A    between atoms: C_48  and  S_53
   27  A    between atoms: C_48  and  C_58
   28  A    between atoms: C_49  and  C_59
   29  A    between atoms: C_49  and  C_61
   30  A    between atoms: C_50  and  C_54
   31  A    between atoms: C_50  and  C_58
                            x       y       z     vdW  Elec       q    Type
                         _______ _______ _______ _____ _____    ______ ____

>  <TORSDO>
F 31

$$$$
=
 OpenBabel11042410093D

 62 63  0  0  1  0  0  0  0  0999 V2000
  188.9880  178.0770  139.4400 C   0  0  1  0  0  3  0  0  0  0  0  0
  188.8130  178.6290  138.0340 C   0  0  0  0  0  2  0  0  0  0  0  0
  189.8440  179.5290  137.7490 O   0  0  0  0  0  1  0  0  0  0  0  0
  190.2480  177.2080  139.5020 C   0  0  2  0  0  3  0  0  0  0  0  0
  188.7260  175.7930  138.1990 N   0  0  0  0  0  1  0  0  0  0  0  0
  190.1240  176.0460  138.5070 C   0  0  1  0  0  3  0  0  0  0  0  0
  190.9220  176.2970  137.2290 C   0  0  0  0  0  2  0  0  0  0  0  0
  191.2310  174.9970  136.5050 C   0  0  0  0  0  2  0  0  0  0  0  0
  192.7330  174.7960  136.4000 C   0  0  0  0  0  2  0  0  0  0  0  0
  193.3140  174.4850  137.7680 C   0  0  0  0  0  2  0  0  0  0  0  0
  194.7610  174.8410  137.8500 C   0  0  0  0  0  0  0  0  0  0  0  0
  195.3900  174.6820  138.9320 O   0  0  0  0  0  0  0  0  0  0  0  0
  198.3050  174.9350  138.2020 C   0  0  0  0  0  1  0  0  0  0  0  0
  195.4020  175.4040  136.6990 N   0  0  0  0  0  0  0  0  0  0  0  0
  197.5530  175.5860  135.2400 C   0  0  0  0  0  2  0  0  0  0  0  0
  198.7140  174.8170  135.7720 C   0  0  0  0  0  2  0  0  0  0  0  0
  197.8170  174.3720  136.8740 C   0  0  2  0  0  3  0  0  0  0  0  0
  196.6320  175.1690  136.3640 C   0  0  0  0  0  0  0  0  0  0  0  0
  190.4790  176.7030  140.8540 N   0  0  0  0  0  2  0  0  0  0  0  0
  189.1980  176.6830  141.5470 C   0  0  0  0  0  2  0  0  0  0  0  0
  189.3570  176.0800  142.9370 C   0  0  0  0  0  2  0  0  0  0  0  0
  189.5390  178.2110  143.9390 O   0  0  0  0  0  0  0  0  0  0  0  0
  189.0680  177.0870  144.0080 C   0  0  0  0  0  0  0  0  0  0  0  0
  188.1360  176.7470  145.1270 C   0  0  0  0  0  2  0  0  0  0  0  0
  187.7740  177.9800  145.9500 C   0  0  2  0  0  3  0  0  0  0  0  0
  188.9140  178.0830  148.0540 O   0  0  0  0  0  1  0  0  0  0  0  0
  187.7750  177.5800  147.4230 C   0  0  0  0  0  2  0  0  0  0  0  0
  186.4050  178.5350  145.5150 C   0  0  2  0  0  3  0  0  0  0  0  0
  184.2990  178.3150  146.8510 O   0  0  0  0  0  0  0  0  0  0  0  0
  186.0000  179.6650  147.5750 O   0  0  0  0  0  1  0  0  0  0  0  0
  185.5620  178.8740  146.7020 C   0  0  0  0  0  0  0  0  0  0  0  0
  185.6420  177.5600  144.6230 C   0  0  0  0  0  2  0  0  0  0  0  0
  184.7340  178.3310  143.6840 C   0  0  0  0  0  2  0  0  0  0  0  0
  185.2490  179.6130  143.4850 O   0  0  0  0  0  1  0  0  0  0  0  0
  189.0330  179.4660  140.6210 S   0  0  0  0  0  0  0  0  0  0  0  0
  187.2210  179.5110  140.7440 C   0  0  0  0  0  2  0  0  0  0  0  0
  184.6330  179.4530  139.5580 O   0  0  0  0  0  0  0  0  0  0  0  0
  185.3650  178.4400  139.4090 C   0  0  0  0  0  0  0  0  0  0  0  0
  186.6500  178.3830  140.0250 N   0  0  0  0  0  2  0  0  0  0  0  0
  184.8740  177.2650  138.6330 C   0  0  0  0  0  2  0  0  0  0  0  0
  184.8810  177.5490  137.2380 O   0  0  0  0  0  0  0  0  0  0  0  0
  182.8450  178.6380  137.1130 O   0  0  0  0  0  0  0  0  0  0  0  0
  183.7240  177.9290  136.5500 C   0  0  0  0  0  0  0  0  0  0  0  0
  184.6440  176.8640  134.6430 F   0  0  0  0  0  0  0  0  0  0  0  0
  183.4950  177.4510  135.1560 C   0  0  1  0  0  3  0  0  0  0  0  0
  182.3030  176.4870  135.0860 C   0  0  1  0  0  3  0  0  0  0  0  0
  180.8000  173.8540  138.2070 C   0  0  1  0  0  3  0  0  0  0  0  0
  180.2640  175.7960  136.5810 C   0  0  0  0  0  2  0  0  0  0  0  0
  183.1610  173.3840  137.1000 C   0  0  0  0  0  2  0  0  0  0  0  0
  183.2460  174.7790  136.5850 C   0  0  0  0  0  2  0  0  0  0  0  0
  182.7150  175.0810  135.3990 C   0  0  0  0  0  2  0  0  0  0  0  0
  181.1040  176.9410  135.9740 C   0  0  2  0  0  3  0  0  0  0  0  0
  181.6780  172.9620  137.2820 C   0  0  2  0  0  3  0  0  0  0  0  0
  180.1940  176.0650  138.9610 O   0  0  0  0  0  1  0  0  0  0  0  0
  180.8380  175.3740  137.9370 C   0  0  1  0  0  3  0  0  0  0  0  0
  180.4670  179.2710  135.2460 N   0  0  0  0  0  1  0  0  0  0  0  0
  180.2060  177.8720  135.2240 C   0  0  0  0  0  0  0  0  0  0  0  0
  179.2030  177.4320  134.6020 O   0  0  0  0  0  0  0  0  0  0  0  0
  179.0390  173.5280  139.5170 C   0  0  0  0  0  1  0  0  0  0  0  0
  179.4780  173.3980  138.2000 O   0  0  0  0  0  0  0  0  0  0  0  0
  181.5960  171.5430  135.5790 C   0  0  0  0  0  1  0  0  0  0  0  0
  181.0560  172.7450  136.0440 O   0  0  0  0  0  0  0  0  0  0  0  0
  1  2  1  6  0  0  0
  1  4  1  0  0  0  0
  1 35  1  0  0  0  0
  3  2  1  0  0  0  0
  4 19  1  1  0  0  0
  6  5  1  6  0  0  0
  6  4  1  0  0  0  0
  7  6  1  0  0  0  0
  8  7  1  0  0  0  0
  9  8  1  0  0  0  0
  9 10  1  0  0  0  0
 10 11  1  0  0  0  0
 11 12  2  0  0  0  0
 14 11  1  0  0  0  0
 15 16  1  0  0  0  0
 15 18  1  0  0  0  0
 16 17  1  0  0  0  0
 17 13  1  1  0  0  0
 18 14  2  0  0  0  0
 18 17  1  0  0  0  0
 19 20  1  0  0  0  0
 20 21  1  0  0  0  0
 21 23  1  0  0  0  0
 22 23  2  0  0  0  0
 23 24  1  0  0  0  0
 25 24  1  6  0  0  0
 25 27  1  0  0  0  0
 27 26  1  0  0  0  0
 28 32  1  6  0  0  0
 28 25  1  0  0  0  0
 28 31  1  0  0  0  0
 31 29  2  0  0  0  0
 31 30  1  0  0  0  0
 33 32  1  0  0  0  0
 34 33  1  0  0  0  0
 35 36  1  0  0  0  0
 38 37  2  0  0  0  0
 38 39  1  0  0  0  0
 39 36  1  0  0  0  0
 40 38  1  0  0  0  0
 41 40  1  0  0  0  0
 43 42  2  0  0  0  0
 43 41  1  0  0  0  0
 45 44  1  1  0  0  0
 45 43  1  0  0  0  0
 46 45  1  1  0  0  0
 46 51  1  0  0  0  0
 46 52  1  0  0  0  0
 47 60  1  6  0  0  0
 48 55  1  0  0  0  0
 49 53  1  0  0  0  0
 50 49  1  0  0  0  0
 51 50  1  0  0  0  0
 52 57  1  6  0  0  0
 52 48  1  0  0  0  0
 53 62  1  6  0  0  0
 53 47  1  0  0  0  0
 55 47  1  0  0  0  0
 55 54  1  1  0  0  0
 57 56  1  0  0  0  0
 58 57  2  0  0  0  0
 60 59  1  0  0  0  0
 61 62  1  0  0  0  0
M  END
>  <MODEL>
8

>  <REMARK>
 VINA RESULT:      -2.6      3.131     11.020
  Name = 
  31 active torsions:
  status: ('A' for Active; 'I' for Inactive)
    1  A    between atoms: C_1  and  C_42
    2  A    between atoms: C_4  and  C_48
    3  A    between atoms: C_6  and  C_25
    4  A    between atoms: C_6  and  C_46
    5  A    between atoms: C_6  and  C_49
    6  A    between atoms: N_7  and  C_28
    7  A    between atoms: C_9  and  C_26
    8  A    between atoms: C_9  and  C_28
    9  A    between atoms: C_14  and  C_47
   10  A    between atoms: C_16  and  C_41
   11  A    between atoms: C_17  and  O_62
   12  A    between atoms: C_23  and  C_25
   13  A    between atoms: C_23  and  C_56
   14  A    between atoms: O_24  and  C_43
   15  A    between atoms: C_26  and  C_32
   16  A    between atoms: C_30  and  S_53
   17  A    between atoms: C_30  and  N_55
   18  A    between atoms: O_31  and  C_47
   19  A    between atoms: O_31  and  C_60
   20  A    between atoms: C_32  and  C_54
   21  A    between atoms: C_36  and  C_59
   22  A    between atoms: C_42  and  C_60
   23  A    between atoms: C_44  and  N_45
   24  A    between atoms: C_44  and  C_56
   25  A    between atoms: N_45  and  C_58
   26  A    between atoms: C_48  and  S_53
   27  A    between atoms: C_48  and  C_58
   28  A    between atoms: C_49  and  C_59
   29  A    between atoms: C_49  and  C_61
   30  A    between atoms: C_50  and  C_54
   31  A    between atoms: C_50  and  C_58
                            x       y       z     vdW  Elec       q    Type
                         _______ _______ _______ _____ _____    ______ ____

>  <TORSDO>
F 31

$$$$
=
 OpenBabel11042410093D

 62 63  0  0  1  0  0  0  0  0999 V2000
  189.6750  176.8100  141.7640 C   0  0  1  0  0  3  0  0  0  0  0  0
  189.0120  175.7450  142.6220 C   0  0  0  0  0  2  0  0  0  0  0  0
  187.8290  176.2490  143.1700 O   0  0  0  0  0  1  0  0  0  0  0  0
  191.1990  176.6840  141.8660 C   0  0  2  0  0  3  0  0  0  0  0  0
  191.2940  178.7660  143.1590 N   0  0  0  0  0  1  0  0  0  0  0  0
  191.6880  177.3680  143.1500 C   0  0  1  0  0  3  0  0  0  0  0  0
  191.1860  176.6580  144.4050 C   0  0  0  0  0  2  0  0  0  0  0  0
  191.0070  177.6310  145.5590 C   0  0  0  0  0  2  0  0  0  0  0  0
  190.5980  176.8860  146.8180 C   0  0  0  0  0  2  0  0  0  0  0  0
  189.0970  176.6500  146.8200 C   0  0  0  0  0  2  0  0  0  0  0  0
  188.3950  177.5510  147.7800 C   0  0  0  0  0  0  0  0  0  0  0  0
  189.0090  178.5260  148.2960 O   0  0  0  0  0  0  0  0  0  0  0  0
  186.1430  180.0630  146.6350 C   0  0  0  0  0  1  0  0  0  0  0  0
  187.0380  177.2610  148.1370 N   0  0  0  0  0  0  0  0  0  0  0  0
  184.5050  177.5950  147.6290 C   0  0  0  0  0  2  0  0  0  0  0  0
  184.2300  178.5120  146.4860 C   0  0  0  0  0  2  0  0  0  0  0  0
  185.7070  178.6360  146.3310 C   0  0  2  0  0  3  0  0  0  0  0  0
  186.0060  177.7280  147.5070 C   0  0  0  0  0  0  0  0  0  0  0  0
  191.8580  177.2590  140.6950 N   0  0  0  0  0  2  0  0  0  0  0  0
  193.2530  176.8380  140.7180 C   0  0  0  0  0  2  0  0  0  0  0  0
  194.0000  177.4170  139.5230 C   0  0  0  0  0  2  0  0  0  0  0  0
  193.3970  176.7160  137.3500 O   0  0  0  0  0  0  0  0  0  0  0  0
  194.0160  176.4600  138.3700 C   0  0  0  0  0  0  0  0  0  0  0  0
  194.8570  175.2250  138.4310 C   0  0  0  0  0  2  0  0  0  0  0  0
  194.7310  174.3960  137.1550 C   0  0  2  0  0  3  0  0  0  0  0  0
  192.4870  173.5740  137.0020 O   0  0  0  0  0  1  0  0  0  0  0  0
  193.7720  173.2430  137.4350 C   0  0  0  0  0  2  0  0  0  0  0  0
  196.1130  173.8890  136.7040 C   0  0  2  0  0  3  0  0  0  0  0  0
  197.9250  175.5360  137.2250 O   0  0  0  0  0  1  0  0  0  0  0  0
  196.9220  175.5220  135.1680 O   0  0  0  0  0  0  0  0  0  0  0  0
  197.0030  175.0270  136.3200 C   0  0  0  0  0  0  0  0  0  0  0  0
  196.0170  172.9130  135.5340 C   0  0  0  0  0  2  0  0  0  0  0  0
  197.3520  172.2220  135.3360 C   0  0  0  0  0  2  0  0  0  0  0  0
  197.9900  172.0770  136.5690 O   0  0  0  0  0  1  0  0  0  0  0  0
  189.0700  176.6520  140.0510 S   0  0  0  0  0  0  0  0  0  0  0  0
  189.1220  178.4500  139.7920 C   0  0  0  0  0  2  0  0  0  0  0  0
  186.5450  177.6060  140.6620 O   0  0  0  0  0  0  0  0  0  0  0  0
  187.0520  178.6080  141.2300 C   0  0  0  0  0  0  0  0  0  0  0  0
  188.3160  179.1150  140.8030 N   0  0  0  0  0  2  0  0  0  0  0  0
  186.3140  179.3110  142.3170 C   0  0  0  0  0  2  0  0  0  0  0  0
  184.9920  179.6330  141.8960 O   0  0  0  0  0  0  0  0  0  0  0  0
  183.8250  180.5470  143.6700 O   0  0  0  0  0  0  0  0  0  0  0  0
  183.9120  179.6530  142.7840 C   0  0  0  0  0  0  0  0  0  0  0  0
  182.2360  178.4480  143.9490 F   0  0  0  0  0  0  0  0  0  0  0  0
  182.8770  178.5810  142.7240 C   0  0  1  0  0  3  0  0  0  0  0  0
  181.8680  178.8430  141.5980 C   0  0  1  0  0  3  0  0  0  0  0  0
  181.0810  176.4020  138.0830 C   0  0  1  0  0  3  0  0  0  0  0  0
  180.0970  177.4940  140.2150 C   0  0  0  0  0  2  0  0  0  0  0  0
  183.3970  177.6650  138.3280 C   0  0  0  0  0  2  0  0  0  0  0  0
  183.2020  177.8320  139.7960 C   0  0  0  0  0  2  0  0  0  0  0  0
  182.5390  178.8920  140.2590 C   0  0  0  0  0  2  0  0  0  0  0  0
  180.6790  177.8340  141.6050 C   0  0  2  0  0  3  0  0  0  0  0  0
  182.0280  177.5420  137.6090 C   0  0  2  0  0  3  0  0  0  0  0  0
  180.1620  175.1180  139.9090 O   0  0  0  0  0  1  0  0  0  0  0  0
  180.8360  176.2990  139.6050 C   0  0  1  0  0  3  0  0  0  0  0  0
  179.2710  179.6960  142.5600 N   0  0  0  0  0  1  0  0  0  0  0  0
  179.5800  178.3080  142.5000 C   0  0  0  0  0  0  0  0  0  0  0  0
  178.9500  177.4960  143.2270 O   0  0  0  0  0  0  0  0  0  0  0  0
  179.5980  175.1740  136.9810 C   0  0  0  0  0  1  0  0  0  0  0  0
  179.8610  176.4760  137.4040 O   0  0  0  0  0  0  0  0  0  0  0  0
  180.6440  178.7580  136.3720 C   0  0  0  0  0  1  0  0  0  0  0  0
  181.3610  178.7760  137.5720 O   0  0  0  0  0  0  0  0  0  0  0  0
  1  4  1  0  0  0  0
  1  2  1  1  0  0  0
  2  3  1  0  0  0  0
  4 19  1  6  0  0  0
  4  6  1  0  0  0  0
  6  5  1  1  0  0  0
  6  7  1  0  0  0  0
  7  8  1  0  0  0  0
  8  9  1  0  0  0  0
  9 10  1  0  0  0  0
 10 11  1  0  0  0  0
 11 14  1  0  0  0  0
 11 12  2  0  0  0  0
 16 15  1  0  0  0  0
 17 16  1  0  0  0  0
 17 13  1  1  0  0  0
 17 18  1  0  0  0  0
 18 15  1  0  0  0  0
 18 14  2  0  0  0  0
 19 20  1  0  0  0  0
 21 20  1  0  0  0  0
 22 23  2  0  0  0  0
 23 24  1  0  0  0  0
 23 21  1  0  0  0  0
 25 27  1  1  0  0  0
 25 24  1  0  0  0  0
 26 27  1  0  0  0  0
 28 32  1  6  0  0  0
 28 25  1  0  0  0  0
 30 31  2  0  0  0  0
 31 28  1  0  0  0  0
 31 29  1  0  0  0  0
 33 32  1  0  0  0  0
 33 34  1  0  0  0  0
 35  1  1  0  0  0  0
 36 35  1  0  0  0  0
 36 39  1  0  0  0  0
 37 38  2  0  0  0  0
 38 40  1  0  0  0  0
 39 38  1  0  0  0  0
 41 40  1  0  0  0  0
 41 43  1  0  0  0  0
 43 42  2  0  0  0  0
 45 43  1  0  0  0  0
 45 44  1  1  0  0  0
 46 52  1  0  0  0  0
 46 45  1  1  0  0  0
 47 60  1  6  0  0  0
 47 55  1  0  0  0  0
 48 52  1  0  0  0  0
 49 50  1  0  0  0  0
 50 51  1  0  0  0  0
 51 46  1  0  0  0  0
 52 57  1  1  0  0  0
 53 62  1  1  0  0  0
 53 47  1  0  0  0  0
 53 49  1  0  0  0  0
 55 54  1  6  0  0  0
 55 48  1  0  0  0  0
 57 56  1  0  0  0  0
 57 58  2  0  0  0  0
 59 60  1  0  0  0  0
 61 62  1  0  0  0  0
M  END
>  <MODEL>
9

>  <REMARK>
 VINA RESULT:      -2.4      3.143      8.463
  Name = 
  31 active torsions:
  status: ('A' for Active; 'I' for Inactive)
    1  A    between atoms: C_1  and  C_42
    2  A    between atoms: C_4  and  C_48
    3  A    between atoms: C_6  and  C_25
    4  A    between atoms: C_6  and  C_46
    5  A    between atoms: C_6  and  C_49
    6  A    between atoms: N_7  and  C_28
    7  A    between atoms: C_9  and  C_26
    8  A    between atoms: C_9  and  C_28
    9  A    between atoms: C_14  and  C_47
   10  A    between atoms: C_16  and  C_41
   11  A    between atoms: C_17  and  O_62
   12  A    between atoms: C_23  and  C_25
   13  A    between atoms: C_23  and  C_56
   14  A    between atoms: O_24  and  C_43
   15  A    between atoms: C_26  and  C_32
   16  A    between atoms: C_30  and  S_53
   17  A    between atoms: C_30  and  N_55
   18  A    between atoms: O_31  and  C_47
   19  A    between atoms: O_31  and  C_60
   20  A    between atoms: C_32  and  C_54
   21  A    between atoms: C_36  and  C_59
   22  A    between atoms: C_42  and  C_60
   23  A    between atoms: C_44  and  N_45
   24  A    between atoms: C_44  and  C_56
   25  A    between atoms: N_45  and  C_58
   26  A    between atoms: C_48  and  S_53
   27  A    between atoms: C_48  and  C_58
   28  A    between atoms: C_49  and  C_59
   29  A    between atoms: C_49  and  C_61
   30  A    between atoms: C_50  and  C_54
   31  A    between atoms: C_50  and  C_58
                            x       y       z     vdW  Elec       q    Type
                         _______ _______ _______ _____ _____    ______ ____

>  <TORSDO>
F 31

$$$$
