=
 OpenBabel11032421053D

 59 64  0  0  1  0  0  0  0  0999 V2000
  186.3930  177.1320  137.8840 C   0  0  1  0  0  3  0  0  0  0  0  0
  187.0580  176.0920  136.9450 C   0  0  2  0  0  3  0  0  0  0  0  0
  189.7970  178.2610  141.9350 C   0  0  2  0  0  3  0  0  0  0  0  0
  189.1110  179.6750  137.6180 C   0  0  0  0  0  1  0  0  0  0  0  0
  190.4180  175.8210  138.5060 C   0  0  0  0  0  0  0  0  0  0  0  0
  188.1510  175.3510  137.5710 N   0  0  0  0  0  2  0  0  0  0  0  0
  190.5540  176.2780  140.8570 O   0  0  0  0  0  0  0  0  0  0  0  0
  189.9140  176.7950  141.9540 N   0  0  0  0  0  0  0  0  0  0  0  0
  189.9720  175.7800  136.1730 O   0  0  0  0  0  0  0  0  0  0  0  0
  189.1360  178.7610  140.6540 C   0  0  0  0  0  2  0  0  0  0  0  0
  187.2430  178.2430  138.5350 C   0  0  2  0  0  3  0  0  0  0  0  0
  186.3900  178.5400  137.3190 C   0  0  0  0  0  2  0  0  0  0  0  0
  189.7940  176.5240  139.6870 C   0  0  1  0  0  3  0  0  0  0  0  0
  188.7430  178.3150  138.1900 C   0  0  2  0  0  3  0  0  0  0  0  0
  189.5400  175.6020  137.3440 C   0  0  0  0  0  0  0  0  0  0  0  0
  189.6480  178.0290  139.4110 C   0  0  1  0  0  3  0  0  0  0  0  0
  191.7430  175.6010  138.4920 C   0  0  0  0  0  3  0  0  0  0  0  0
  192.4510  171.7870  135.8260 O   0  0  0  0  0  0  0  0  0  0  0  0
  194.3080  174.9540  135.7660 C   0  0  0  0  0  0  0  0  0  0  0  0
  193.6030  175.5760  136.7130 C   0  0  0  0  0  3  0  0  0  0  0  0
  194.0730  173.4950  135.4440 C   0  0  0  0  0  2  0  0  0  0  0  0
  192.8630  172.9350  136.1330 C   0  0  0  0  0  0  0  0  0  0  0  0
  192.5340  174.8920  137.4690 C   0  0  0  0  0  0  0  0  0  0  0  0
  192.1860  173.6840  137.1500 N   0  0  0  0  0  0  0  0  0  0  0  0
  195.3310  175.6840  135.0880 N   0  0  0  0  0  2  0  0  0  0  0  0
  196.8000  175.1520  136.8160 O   0  0  0  0  0  1  0  0  0  0  0  0
  197.6360  175.1180  134.5950 C   0  0  0  0  0  1  0  0  0  0  0  0
  196.6970  175.7850  135.5780 C   0  0  1  0  0  3  0  0  0  0  0  0
  187.2940  175.0610  134.6750 C   0  0  0  0  0  1  0  0  0  0  0  0
  187.2090  176.3750  135.4380 C   0  0  1  0  0  3  0  0  0  0  0  0
  186.1030  177.0860  134.9650 O   0  0  0  0  0  0  0  0  0  0  0  0
  185.1680  176.1090  134.6120 C   0  0  0  0  0  2  0  0  0  0  0  0
  183.1770  177.5430  135.0080 C   0  0  0  0  0  3  0  0  0  0  0  0
  181.9790  177.8410  135.6600 C   0  0  0  0  0  3  0  0  0  0  0  0
  183.3870  175.4980  136.3070 C   0  0  0  0  0  0  0  0  0  0  0  0
  182.1680  175.7960  136.9510 C   0  0  0  0  0  0  0  0  0  0  0  0
  181.4770  176.9680  136.6260 C   0  0  0  0  0  3  0  0  0  0  0  0
  183.8790  176.3730  135.3170 C   0  0  0  0  0  0  0  0  0  0  0  0
  181.5980  174.9000  138.0040 C   0  0  0  0  0  2  0  0  0  0  0  0
  181.1080  175.7220  139.1800 C   0  0  0  0  0  1  0  0  0  0  0  0
  184.1320  174.2390  136.6390 C   0  0  0  0  0  2  0  0  0  0  0  0
  183.6260  173.1800  135.8850 O   0  0  0  0  0  1  0  0  0  0  0  0
  191.0630  178.8350  142.0740 O   0  0  0  0  0  0  0  0  0  0  0  0
  191.3510  178.7420  143.4370 C   0  0  0  0  0  2  0  0  0  0  0  0
  191.6370  177.4170  143.7690 O   0  0  0  0  0  0  0  0  0  0  0  0
  191.7430  177.4230  145.1590 C   0  0  0  0  0  2  0  0  0  0  0  0
  190.5470  176.7150  145.7730 C   0  0  0  0  0  2  0  0  0  0  0  0
  189.4510  178.6140  146.3860 O   0  0  0  0  0  0  0  0  0  0  0  0
  188.6220  177.5950  146.7250 C   0  0  1  0  0  3  0  0  0  0  0  0
  190.0470  177.4750  146.9050 N   0  0  0  0  0  0  0  0  0  0  0  0
  187.9630  177.8960  148.0560 C   0  0  0  0  0  2  0  0  0  0  0  0
  186.5910  178.0720  147.8730 O   0  0  0  0  0  0  0  0  0  0  0  0
  186.4400  178.2880  146.5040 C   0  0  0  0  0  2  0  0  0  0  0  0
  184.9570  179.2690  144.9440 F   0  0  0  0  0  0  0  0  0  0  0  0
  185.0200  178.7210  146.2110 C   0  0  0  0  0  2  0  0  0  0  0  0
  188.7200  176.0350  142.3630 C   0  0  0  0  0  2  0  0  0  0  0  0
  186.7260  177.5080  142.4350 C   0  0  0  0  0  1  0  0  0  0  0  0
  187.0890  175.8550  144.2340 C   0  0  0  0  0  1  0  0  0  0  0  0
  187.7710  176.8060  143.2720 C   0  0  0  0  0  3  0  0  0  0  0  0
  1 12  1  6  0  0  0
  1 11  1  0  0  0  0
  2 30  1  6  0  0  0
  2  6  1  0  0  0  0
  2  1  1  0  0  0  0
  3  8  1  0  0  0  0
  3 43  1  6  0  0  0
  7  8  1  0  0  0  0
  8 56  1  0  0  0  0
  9 15  2  0  0  0  0
 10  3  1  0  0  0  0
 11 12  1  6  0  0  0
 13  5  1  6  0  0  0
 13  7  1  0  0  0  0
 14  4  1  1  0  0  0
 14 11  1  0  0  0  0
 14 16  1  0  0  0  0
 15  6  1  0  0  0  0
 15  5  1  0  0  0  0
 16 13  1  0  0  0  0
 16 10  1  1  0  0  0
 17  5  2  0  0  0  0
 18 22  2  0  0  0  0
 19 20  2  0  0  0  0
 20 23  1  0  0  0  0
 21 19  1  0  0  0  0
 21 22  1  0  0  0  0
 22 24  1  0  0  0  0
 23 17  1  0  0  0  0
 24 23  2  0  0  0  0
 25 28  1  0  0  0  0
 25 19  1  0  0  0  0
 28 27  1  6  0  0  0
 28 26  1  0  0  0  0
 30 29  1  6  0  0  0
 31 30  1  0  0  0  0
 32 31  1  0  0  0  0
 32 38  1  0  0  0  0
 33 38  2  0  0  0  0
 33 34  1  0  0  0  0
 34 37  2  0  0  0  0
 35 41  1  0  0  0  0
 35 36  2  0  0  0  0
 36 39  1  0  0  0  0
 37 36  1  0  0  0  0
 38 35  1  0  0  0  0
 39 40  1  0  0  0  0
 42 41  1  0  0  0  0
 43 44  1  0  0  0  0
 44 45  1  0  0  0  0
 45 46  1  0  0  0  0
 46 47  1  0  0  0  0
 47 50  1  0  0  0  0
 48 49  1  0  0  0  0
 48 50  1  0  0  0  0
 49 50  1  0  0  0  0
 49 51  1  1  0  0  0
 52 51  1  0  0  0  0
 53 52  1  0  0  0  0
 54 55  1  0  0  0  0
 55 53  1  0  0  0  0
 56 59  1  0  0  0  0
 57 59  1  0  0  0  0
 59 58  1  0  0  0  0
M  END
>  <MODEL>
1

>  <REMARK>
 VINA RESULT:      -4.4      0.000      0.000
  Name = 
  21 active torsions:
  status: ('A' for Active; 'I' for Inactive)
    1  A    between atoms: C_4  and  C_9
    2  A    between atoms: O_5  and  C_25
    3  A    between atoms: O_5  and  C_41
    4  A    between atoms: C_9  and  O_17
    5  A    between atoms: O_11  and  C_15
    6  A    between atoms: O_11  and  C_26
    7  A    between atoms: C_12  and  C_48
    8  A    between atoms: O_17  and  C_24
    9  A    between atoms: C_18  and  N_38
   10  A    between atoms: C_21  and  C_47
   11  A    between atoms: C_23  and  O_29
   12  A    between atoms: C_23  and  C_56
   13  A    between atoms: C_24  and  C_52
   14  A    between atoms: C_25  and  C_39
   15  A    between atoms: C_26  and  O_29
   16  A    between atoms: N_32  and  C_48
   17  A    between atoms: C_35  and  C_36
   18  A    between atoms: N_38  and  C_58
   19  A    between atoms: C_41  and  C_42
   20  A    between atoms: C_45  and  C_57
   21  A    between atoms: N_50  and  C_56
                            x       y       z     vdW  Elec       q    Type
                         _______ _______ _______ _____ _____    ______ ____

>  <TORSDO>
F 21

$$$$
=
 OpenBabel11032421053D

 59 64  0  0  1  0  0  0  0  0999 V2000
  190.8260  175.3050  135.4090 C   0  0  1  0  0  3  0  0  0  0  0  0
  191.4940  175.2760  136.8090 C   0  0  2  0  0  3  0  0  0  0  0  0
  185.6160  176.6470  135.9890 C   0  0  2  0  0  3  0  0  0  0  0  0
  189.6390  178.8370  135.6310 C   0  0  0  0  0  1  0  0  0  0  0  0
  188.6880  176.4730  138.9260 C   0  0  0  0  0  0  0  0  0  0  0  0
  190.5430  175.1480  137.9110 N   0  0  0  0  0  2  0  0  0  0  0  0
  186.4700  176.0350  138.1250 O   0  0  0  0  0  0  0  0  0  0  0  0
  185.7020  175.6420  137.0580 N   0  0  0  0  0  0  0  0  0  0  0  0
  190.9780  177.0270  139.2270 O   0  0  0  0  0  0  0  0  0  0  0  0
  186.9960  177.0890  135.5120 C   0  0  0  0  0  2  0  0  0  0  0  0
  189.7620  176.3740  135.0820 C   0  0  2  0  0  3  0  0  0  0  0  0
  191.1870  176.5320  134.5940 C   0  0  0  0  0  2  0  0  0  0  0  0
  187.8190  176.1940  137.7240 C   0  0  1  0  0  3  0  0  0  0  0  0
  189.4250  177.4250  136.1560 C   0  0  2  0  0  3  0  0  0  0  0  0
  190.1290  176.2220  138.7580 C   0  0  0  0  0  0  0  0  0  0  0  0
  187.9720  177.3040  136.6710 C   0  0  1  0  0  3  0  0  0  0  0  0
  188.1580  177.0910  139.9960 C   0  0  0  0  0  3  0  0  0  0  0  0
  192.0830  177.9490  142.4470 O   0  0  0  0  0  0  0  0  0  0  0  0
  188.6120  178.0820  143.6350 C   0  0  0  0  0  0  0  0  0  0  0  0
  188.0290  177.7690  142.4750 C   0  0  0  0  0  3  0  0  0  0  0  0
  190.1150  178.0430  143.7930 C   0  0  0  0  0  2  0  0  0  0  0  0
  190.8320  177.8340  142.4910 C   0  0  0  0  0  0  0  0  0  0  0  0
  188.8140  177.4060  141.2780 C   0  0  0  0  0  0  0  0  0  0  0  0
  190.1090  177.4850  141.3040 N   0  0  0  0  0  0  0  0  0  0  0  0
  187.7800  178.4120  144.7470 N   0  0  0  0  0  2  0  0  0  0  0  0
  188.3150  177.0960  146.5930 O   0  0  0  0  0  1  0  0  0  0  0  0
  186.1260  178.0040  146.4710 C   0  0  0  0  0  1  0  0  0  0  0  0
  187.2960  177.4270  145.7010 C   0  0  1  0  0  3  0  0  0  0  0  0
  193.4960  175.5330  138.2920 C   0  0  0  0  0  1  0  0  0  0  0  0
  192.7540  176.1150  137.0970 C   0  0  1  0  0  3  0  0  0  0  0  0
  193.6140  176.0930  135.9950 O   0  0  0  0  0  0  0  0  0  0  0  0
  194.8740  175.7980  136.5240 C   0  0  0  0  0  2  0  0  0  0  0  0
  194.5370  173.8050  135.0770 C   0  0  0  0  0  3  0  0  0  0  0  0
  194.9110  172.5470  134.6000 C   0  0  0  0  0  3  0  0  0  0  0  0
  196.4920  173.8490  136.5220 C   0  0  0  0  0  0  0  0  0  0  0  0
  196.8730  172.5850  136.0260 C   0  0  0  0  0  0  0  0  0  0  0  0
  196.0750  171.9420  135.0730 C   0  0  0  0  0  3  0  0  0  0  0  0
  195.3250  174.4650  136.0250 C   0  0  0  0  0  0  0  0  0  0  0  0
  198.1040  171.8900  136.5130 C   0  0  0  0  0  2  0  0  0  0  0  0
  198.0410  170.4140  136.1670 C   0  0  0  0  0  1  0  0  0  0  0  0
  197.3440  174.5540  137.5360 C   0  0  0  0  0  2  0  0  0  0  0  0
  197.9390  175.6730  136.9540 O   0  0  0  0  0  1  0  0  0  0  0  0
  184.8910  177.7530  136.4400 O   0  0  0  0  0  0  0  0  0  0  0  0
  183.7440  177.2140  137.0250 C   0  0  0  0  0  2  0  0  0  0  0  0
  182.7700  178.2050  137.1530 O   0  0  0  0  0  0  0  0  0  0  0  0
  183.3130  179.1090  138.0660 C   0  0  0  0  0  2  0  0  0  0  0  0
  183.2810  178.5160  139.4640 C   0  0  0  0  0  2  0  0  0  0  0  0
  181.0750  178.3870  140.0160 O   0  0  0  0  0  0  0  0  0  0  0  0
  181.7490  178.1330  141.1650 C   0  0  1  0  0  3  0  0  0  0  0  0
  182.2210  179.1340  140.2410 N   0  0  0  0  0  0  0  0  0  0  0  0
  181.0420  178.8040  142.3270 C   0  0  0  0  0  2  0  0  0  0  0  0
  181.6920  178.4870  143.5200 O   0  0  0  0  0  0  0  0  0  0  0  0
  182.5900  179.5330  143.7240 C   0  0  0  0  0  2  0  0  0  0  0  0
  184.1370  177.8520  143.1090 F   0  0  0  0  0  0  0  0  0  0  0  0
  183.9870  178.9760  143.9000 C   0  0  0  0  0  2  0  0  0  0  0  0
  185.9240  174.2440  136.6460 C   0  0  0  0  0  2  0  0  0  0  0  0
  184.5340  173.0430  134.9790 C   0  0  0  0  0  1  0  0  0  0  0  0
  184.6550  172.2050  137.3000 C   0  0  0  0  0  1  0  0  0  0  0  0
  184.6420  173.4470  136.4320 C   0  0  0  0  0  3  0  0  0  0  0  0
  1 12  1  6  0  0  0
  1  2  1  0  0  0  0
  2 30  1  1  0  0  0
  2  6  1  0  0  0  0
  3 43  1  1  0  0  0
  3  8  1  0  0  0  0
  5 17  2  0  0  0  0
  6 15  1  0  0  0  0
  8  7  1  0  0  0  0
 10  3  1  0  0  0  0
 11 12  1  6  0  0  0
 11  1  1  0  0  0  0
 11 14  1  0  0  0  0
 13  7  1  1  0  0  0
 13  5  1  0  0  0  0
 14  4  1  6  0  0  0
 14 16  1  0  0  0  0
 15  5  1  0  0  0  0
 15  9  2  0  0  0  0
 16 10  1  6  0  0  0
 16 13  1  0  0  0  0
 17 23  1  0  0  0  0
 18 22  2  0  0  0  0
 19 21  1  0  0  0  0
 19 25  1  0  0  0  0
 20 19  2  0  0  0  0
 22 21  1  0  0  0  0
 23 24  2  0  0  0  0
 23 20  1  0  0  0  0
 24 22  1  0  0  0  0
 25 28  1  0  0  0  0
 28 27  1  1  0  0  0
 28 26  1  0  0  0  0
 30 29  1  1  0  0  0
 31 32  1  0  0  0  0
 31 30  1  0  0  0  0
 33 38  1  0  0  0  0
 34 37  1  0  0  0  0
 34 33  2  0  0  0  0
 35 41  1  0  0  0  0
 36 39  1  0  0  0  0
 36 35  1  0  0  0  0
 37 36  2  0  0  0  0
 38 35  2  0  0  0  0
 38 32  1  0  0  0  0
 40 39  1  0  0  0  0
 42 41  1  0  0  0  0
 43 44  1  0  0  0  0
 44 45  1  0  0  0  0
 45 46  1  0  0  0  0
 46 47  1  0  0  0  0
 47 50  1  0  0  0  0
 48 50  1  0  0  0  0
 48 49  1  0  0  0  0
 49 51  1  1  0  0  0
 50 49  1  0  0  0  0
 51 52  1  0  0  0  0
 52 53  1  0  0  0  0
 53 55  1  0  0  0  0
 54 55  1  0  0  0  0
 56  8  1  0  0  0  0
 57 59  1  0  0  0  0
 59 56  1  0  0  0  0
 59 58  1  0  0  0  0
M  END
>  <MODEL>
2

>  <REMARK>
 VINA RESULT:      -3.7      2.773      9.411
  Name = 
  21 active torsions:
  status: ('A' for Active; 'I' for Inactive)
    1  A    between atoms: C_4  and  C_9
    2  A    between atoms: O_5  and  C_25
    3  A    between atoms: O_5  and  C_41
    4  A    between atoms: C_9  and  O_17
    5  A    between atoms: O_11  and  C_15
    6  A    between atoms: O_11  and  C_26
    7  A    between atoms: C_12  and  C_48
    8  A    between atoms: O_17  and  C_24
    9  A    between atoms: C_18  and  N_38
   10  A    between atoms: C_21  and  C_47
   11  A    between atoms: C_23  and  O_29
   12  A    between atoms: C_23  and  C_56
   13  A    between atoms: C_24  and  C_52
   14  A    between atoms: C_25  and  C_39
   15  A    between atoms: C_26  and  O_29
   16  A    between atoms: N_32  and  C_48
   17  A    between atoms: C_35  and  C_36
   18  A    between atoms: N_38  and  C_58
   19  A    between atoms: C_41  and  C_42
   20  A    between atoms: C_45  and  C_57
   21  A    between atoms: N_50  and  C_56
                            x       y       z     vdW  Elec       q    Type
                         _______ _______ _______ _____ _____    ______ ____

>  <TORSDO>
F 21

$$$$
=
 OpenBabel11032421053D

 59 64  0  0  1  0  0  0  0  0999 V2000
  187.1710  177.1610  141.5410 C   0  0  1  0  0  3  0  0  0  0  0  0
  185.8500  177.7810  142.0680 C   0  0  2  0  0  3  0  0  0  0  0  0
  186.7190  176.3500  136.2110 C   0  0  2  0  0  3  0  0  0  0  0  0
  187.8490  179.8160  139.0070 C   0  0  0  0  0  1  0  0  0  0  0  0
  183.9970  178.2360  138.8810 C   0  0  0  0  0  0  0  0  0  0  0  0
  184.7090  177.5710  141.1800 N   0  0  0  0  0  2  0  0  0  0  0  0
  184.5420  176.7320  137.0940 O   0  0  0  0  0  0  0  0  0  0  0  0
  185.4240  175.7920  136.6270 N   0  0  0  0  0  0  0  0  0  0  0  0
  183.9690  179.7380  140.7210 O   0  0  0  0  0  0  0  0  0  0  0  0
  187.3640  177.1750  137.3200 C   0  0  0  0  0  2  0  0  0  0  0  0
  187.7210  177.5710  140.1590 C   0  0  2  0  0  3  0  0  0  0  0  0
  188.3030  178.1650  141.4250 C   0  0  0  0  0  2  0  0  0  0  0  0
  185.0360  177.3180  138.2840 C   0  0  1  0  0  3  0  0  0  0  0  0
  186.9540  178.6360  139.3510 C   0  0  2  0  0  3  0  0  0  0  0  0
  184.1620  178.5640  140.3080 C   0  0  0  0  0  0  0  0  0  0  0  0
  186.3540  178.0700  138.0430 C   0  0  1  0  0  3  0  0  0  0  0  0
  183.1090  178.8420  138.0750 C   0  0  0  0  0  3  0  0  0  0  0  0
  179.2430  179.6240  140.6440 O   0  0  0  0  0  0  0  0  0  0  0  0
  180.9440  181.9490  138.3680 C   0  0  0  0  0  0  0  0  0  0  0  0
  181.9350  181.1310  138.0080 C   0  0  0  0  0  3  0  0  0  0  0  0
  179.8010  181.4630  139.2310 C   0  0  0  0  0  2  0  0  0  0  0  0
  180.0290  180.0850  139.7780 C   0  0  0  0  0  0  0  0  0  0  0  0
  181.9920  179.7260  138.4580 C   0  0  0  0  0  0  0  0  0  0  0  0
  181.1190  179.2820  139.3090 N   0  0  0  0  0  0  0  0  0  0  0  0
  180.9580  183.2910  137.8820 N   0  0  0  0  0  2  0  0  0  0  0  0
  179.0470  184.3730  137.1060 O   0  0  0  0  0  1  0  0  0  0  0  0
  181.0650  184.6750  135.8950 C   0  0  0  0  0  1  0  0  0  0  0  0
  180.2140  183.7230  136.7090 C   0  0  1  0  0  3  0  0  0  0  0  0
  184.4920  179.3430  143.4770 C   0  0  0  0  0  1  0  0  0  0  0  0
  185.8600  179.1060  142.8540 C   0  0  1  0  0  3  0  0  0  0  0  0
  186.8060  179.0540  143.8810 O   0  0  0  0  0  0  0  0  0  0  0  0
  186.3710  178.0260  144.7230 C   0  0  0  0  0  2  0  0  0  0  0  0
  186.9750  178.4000  147.1050 C   0  0  0  0  0  3  0  0  0  0  0  0
  187.8490  178.2970  148.1880 C   0  0  0  0  0  3  0  0  0  0  0  0
  188.5810  177.2510  145.6870 C   0  0  0  0  0  0  0  0  0  0  0  0
  189.4540  177.1360  146.7890 C   0  0  0  0  0  0  0  0  0  0  0  0
  189.0830  177.6650  148.0290 C   0  0  0  0  0  3  0  0  0  0  0  0
  187.3270  177.8710  145.8590 C   0  0  0  0  0  0  0  0  0  0  0  0
  190.7930  176.4820  146.6640 C   0  0  0  0  0  2  0  0  0  0  0  0
  191.6420  176.7940  147.8820 C   0  0  0  0  0  1  0  0  0  0  0  0
  188.9630  176.6770  144.3540 C   0  0  0  0  0  2  0  0  0  0  0  0
  190.2740  177.0400  144.0440 O   0  0  0  0  0  1  0  0  0  0  0  0
  186.5460  177.1370  135.0700 O   0  0  0  0  0  0  0  0  0  0  0  0
  187.8400  177.4640  134.6610 C   0  0  0  0  0  2  0  0  0  0  0  0
  188.6200  176.3080  134.5940 O   0  0  0  0  0  0  0  0  0  0  0  0
  189.9020  176.7340  134.9390 C   0  0  0  0  0  2  0  0  0  0  0  0
  190.6670  175.5970  135.5930 C   0  0  0  0  0  2  0  0  0  0  0  0
  191.9350  176.3950  137.3080 O   0  0  0  0  0  0  0  0  0  0  0  0
  192.4440  175.1700  137.0240 C   0  0  1  0  0  3  0  0  0  0  0  0
  191.9970  176.0430  135.9690 N   0  0  0  0  0  0  0  0  0  0  0  0
  193.9560  175.2140  137.1180 C   0  0  0  0  0  2  0  0  0  0  0  0
  194.3720  174.6160  138.3080 O   0  0  0  0  0  0  0  0  0  0  0  0
  195.0630  173.4730  137.9080 C   0  0  0  0  0  2  0  0  0  0  0  0
  197.0200  174.3700  138.8880 F   0  0  0  0  0  0  0  0  0  0  0  0
  196.5290  173.8040  137.7270 C   0  0  0  0  0  2  0  0  0  0  0  0
  185.4550  174.5530  137.4260 C   0  0  0  0  0  2  0  0  0  0  0  0
  183.6980  173.8790  135.8100 C   0  0  0  0  0  1  0  0  0  0  0  0
  184.7120  172.1820  137.2930 C   0  0  0  0  0  1  0  0  0  0  0  0
  184.2680  173.6270  137.1880 C   0  0  0  0  0  3  0  0  0  0  0  0
  1 12  1  1  0  0  0
  1  2  1  0  0  0  0
  2 30  1  6  0  0  0
  3 43  1  6  0  0  0
  3  8  1  0  0  0  0
  3 10  1  0  0  0  0
  5 15  1  0  0  0  0
  6  2  1  0  0  0  0
  8  7  1  0  0  0  0
  8 56  1  0  0  0  0
 11 12  1  1  0  0  0
 11  1  1  0  0  0  0
 13  7  1  6  0  0  0
 13  5  1  0  0  0  0
 14  4  1  6  0  0  0
 14 11  1  0  0  0  0
 15  9  2  0  0  0  0
 15  6  1  0  0  0  0
 16 10  1  1  0  0  0
 16 13  1  0  0  0  0
 16 14  1  0  0  0  0
 17 23  1  0  0  0  0
 17  5  2  0  0  0  0
 19 21  1  0  0  0  0
 20 19  2  0  0  0  0
 20 23  1  0  0  0  0
 21 22  1  0  0  0  0
 22 18  2  0  0  0  0
 23 24  2  0  0  0  0
 24 22  1  0  0  0  0
 25 19  1  0  0  0  0
 28 27  1  1  0  0  0
 28 26  1  0  0  0  0
 28 25  1  0  0  0  0
 30 29  1  1  0  0  0
 30 31  1  0  0  0  0
 31 32  1  0  0  0  0
 32 38  1  0  0  0  0
 33 34  1  0  0  0  0
 35 38  1  0  0  0  0
 35 36  2  0  0  0  0
 36 37  1  0  0  0  0
 37 34  2  0  0  0  0
 38 33  2  0  0  0  0
 39 36  1  0  0  0  0
 39 40  1  0  0  0  0
 41 35  1  0  0  0  0
 42 41  1  0  0  0  0
 44 43  1  0  0  0  0
 45 44  1  0  0  0  0
 45 46  1  0  0  0  0
 46 47  1  0  0  0  0
 47 50  1  0  0  0  0
 49 51  1  6  0  0  0
 49 48  1  0  0  0  0
 50 49  1  0  0  0  0
 50 48  1  0  0  0  0
 51 52  1  0  0  0  0
 53 52  1  0  0  0  0
 55 53  1  0  0  0  0
 55 54  1  0  0  0  0
 57 59  1  0  0  0  0
 59 58  1  0  0  0  0
 59 56  1  0  0  0  0
M  END
>  <MODEL>
3

>  <REMARK>
 VINA RESULT:      -3.0      4.142     11.069
  Name = 
  21 active torsions:
  status: ('A' for Active; 'I' for Inactive)
    1  A    between atoms: C_4  and  C_9
    2  A    between atoms: O_5  and  C_25
    3  A    between atoms: O_5  and  C_41
    4  A    between atoms: C_9  and  O_17
    5  A    between atoms: O_11  and  C_15
    6  A    between atoms: O_11  and  C_26
    7  A    between atoms: C_12  and  C_48
    8  A    between atoms: O_17  and  C_24
    9  A    between atoms: C_18  and  N_38
   10  A    between atoms: C_21  and  C_47
   11  A    between atoms: C_23  and  O_29
   12  A    between atoms: C_23  and  C_56
   13  A    between atoms: C_24  and  C_52
   14  A    between atoms: C_25  and  C_39
   15  A    between atoms: C_26  and  O_29
   16  A    between atoms: N_32  and  C_48
   17  A    between atoms: C_35  and  C_36
   18  A    between atoms: N_38  and  C_58
   19  A    between atoms: C_41  and  C_42
   20  A    between atoms: C_45  and  C_57
   21  A    between atoms: N_50  and  C_56
                            x       y       z     vdW  Elec       q    Type
                         _______ _______ _______ _____ _____    ______ ____

>  <TORSDO>
F 21

$$$$
=
 OpenBabel11032421053D

 59 64  0  0  1  0  0  0  0  0999 V2000
  186.6050  177.2790  141.1860 C   0  0  1  0  0  3  0  0  0  0  0  0
  185.2150  177.8740  141.5270 C   0  0  2  0  0  3  0  0  0  0  0  0
  186.5720  175.5920  136.0450 C   0  0  2  0  0  3  0  0  0  0  0  0
  187.2820  179.5360  138.2910 C   0  0  0  0  0  1  0  0  0  0  0  0
  183.5580  177.6730  138.2090 C   0  0  0  0  0  0  0  0  0  0  0  0
  184.1520  177.4400  140.6220 N   0  0  0  0  0  2  0  0  0  0  0  0
  184.3200  175.9460  136.7280 O   0  0  0  0  0  0  0  0  0  0  0  0
  185.2910  175.0120  136.4730 N   0  0  0  0  0  0  0  0  0  0  0  0
  183.3070  179.4440  139.7720 O   0  0  0  0  0  0  0  0  0  0  0  0
  187.0860  176.6300  137.0380 C   0  0  0  0  0  2  0  0  0  0  0  0
  187.2210  177.5020  139.7880 C   0  0  2  0  0  3  0  0  0  0  0  0
  187.6760  178.3330  140.9710 C   0  0  0  0  0  2  0  0  0  0  0  0
  184.6930  176.7510  137.8310 C   0  0  1  0  0  3  0  0  0  0  0  0
  186.4440  178.3630  138.7740 C   0  0  2  0  0  3  0  0  0  0  0  0
  183.6040  178.2360  139.5690 C   0  0  0  0  0  0  0  0  0  0  0  0
  185.9730  177.5510  137.5450 C   0  0  1  0  0  3  0  0  0  0  0  0
  182.6900  178.0720  137.2640 C   0  0  0  0  0  3  0  0  0  0  0  0
  178.9310  179.3400  139.7990 O   0  0  0  0  0  0  0  0  0  0  0  0
  180.1610  180.8480  136.6860 C   0  0  0  0  0  0  0  0  0  0  0  0
  181.2250  180.0570  136.5290 C   0  0  0  0  0  3  0  0  0  0  0  0
  179.1500  180.5950  137.7810 C   0  0  0  0  0  2  0  0  0  0  0  0
  179.5920  179.5340  138.7470 C   0  0  0  0  0  0  0  0  0  0  0  0
  181.4950  178.9200  137.4330 C   0  0  0  0  0  0  0  0  0  0  0  0
  180.7450  178.7280  138.4740 N   0  0  0  0  0  0  0  0  0  0  0  0
  179.9680  181.9200  135.7630 N   0  0  0  0  0  2  0  0  0  0  0  0
  180.3100  183.9680  136.8190 O   0  0  0  0  0  1  0  0  0  0  0  0
  178.9360  183.9300  134.8850 C   0  0  0  0  0  1  0  0  0  0  0  0
  179.3740  183.1940  136.1340 C   0  0  1  0  0  3  0  0  0  0  0  0
  183.6500  179.5570  142.5230 C   0  0  0  0  0  1  0  0  0  0  0  0
  185.0850  179.3060  142.0830 C   0  0  1  0  0  3  0  0  0  0  0  0
  185.9190  179.4720  143.1930 O   0  0  0  0  0  0  0  0  0  0  0  0
  185.5740  178.4360  144.0650 C   0  0  0  0  0  2  0  0  0  0  0  0
  187.9030  177.5690  144.1150 C   0  0  0  0  0  3  0  0  0  0  0  0
  189.0450  177.1350  144.7900 C   0  0  0  0  0  3  0  0  0  0  0  0
  186.7910  177.9800  146.2390 C   0  0  0  0  0  0  0  0  0  0  0  0
  187.9530  177.5540  146.9160 C   0  0  0  0  0  0  0  0  0  0  0  0
  189.0680  177.1300  146.1850 C   0  0  0  0  0  3  0  0  0  0  0  0
  186.7800  178.0020  144.8290 C   0  0  0  0  0  0  0  0  0  0  0  0
  188.0220  177.5160  148.4090 C   0  0  0  0  0  2  0  0  0  0  0  0
  188.9470  178.6050  148.9170 C   0  0  0  0  0  1  0  0  0  0  0  0
  185.5930  178.4480  147.0100 C   0  0  0  0  0  2  0  0  0  0  0  0
  185.6340  179.8350  147.1480 O   0  0  0  0  0  1  0  0  0  0  0  0
  186.4280  176.1710  134.7820 O   0  0  0  0  0  0  0  0  0  0  0  0
  187.5510  176.9850  134.6300 C   0  0  0  0  0  2  0  0  0  0  0  0
  188.7030  176.1970  134.5940 O   0  0  0  0  0  0  0  0  0  0  0  0
  189.7370  177.0810  134.9000 C   0  0  0  0  0  2  0  0  0  0  0  0
  190.5840  176.5170  136.0280 C   0  0  0  0  0  2  0  0  0  0  0  0
  192.5700  175.5340  136.5530 O   0  0  0  0  0  0  0  0  0  0  0  0
  191.7710  174.5250  136.1240 C   0  0  1  0  0  3  0  0  0  0  0  0
  191.7340  175.8160  135.4840 N   0  0  0  0  0  0  0  0  0  0  0  0
  192.5820  173.5610  135.2800 C   0  0  0  0  0  2  0  0  0  0  0  0
  193.4960  172.8830  136.0870 O   0  0  0  0  0  0  0  0  0  0  0  0
  194.1030  171.9590  135.2370 C   0  0  0  0  0  2  0  0  0  0  0  0
  193.2640  170.1310  136.4830 F   0  0  0  0  0  0  0  0  0  0  0  0
  194.4310  170.6990  136.0090 C   0  0  0  0  0  2  0  0  0  0  0  0
  185.3480  173.9240  137.4660 C   0  0  0  0  0  2  0  0  0  0  0  0
  183.1530  172.8100  137.1560 C   0  0  0  0  0  1  0  0  0  0  0  0
  184.9980  172.3330  135.5840 C   0  0  0  0  0  1  0  0  0  0  0  0
  184.6500  172.6420  137.0260 C   0  0  0  0  0  3  0  0  0  0  0  0
  1 12  1  1  0  0  0
  1  2  1  0  0  0  0
  2 30  1  6  0  0  0
  3 43  1  6  0  0  0
  3  8  1  0  0  0  0
  3 10  1  0  0  0  0
  5 15  1  0  0  0  0
  6  2  1  0  0  0  0
  8  7  1  0  0  0  0
  8 56  1  0  0  0  0
 11 12  1  1  0  0  0
 11  1  1  0  0  0  0
 13  7  1  6  0  0  0
 13  5  1  0  0  0  0
 14  4  1  6  0  0  0
 14 11  1  0  0  0  0
 15  9  2  0  0  0  0
 15  6  1  0  0  0  0
 16 10  1  1  0  0  0
 16 13  1  0  0  0  0
 16 14  1  0  0  0  0
 17 23  1  0  0  0  0
 17  5  2  0  0  0  0
 19 21  1  0  0  0  0
 20 19  2  0  0  0  0
 20 23  1  0  0  0  0
 21 22  1  0  0  0  0
 22 18  2  0  0  0  0
 23 24  2  0  0  0  0
 24 22  1  0  0  0  0
 25 28  1  0  0  0  0
 25 19  1  0  0  0  0
 28 27  1  6  0  0  0
 28 26  1  0  0  0  0
 30 29  1  1  0  0  0
 30 31  1  0  0  0  0
 31 32  1  0  0  0  0
 32 38  1  0  0  0  0
 33 34  2  0  0  0  0
 33 38  1  0  0  0  0
 34 37  1  0  0  0  0
 35 36  1  0  0  0  0
 35 41  1  0  0  0  0
 36 39  1  0  0  0  0
 37 36  2  0  0  0  0
 38 35  2  0  0  0  0
 39 40  1  0  0  0  0
 41 42  1  0  0  0  0
 44 43  1  0  0  0  0
 45 44  1  0  0  0  0
 45 46  1  0  0  0  0
 46 47  1  0  0  0  0
 49 51  1  6  0  0  0
 49 48  1  0  0  0  0
 50 47  1  0  0  0  0
 50 49  1  0  0  0  0
 50 48  1  0  0  0  0
 51 52  1  0  0  0  0
 53 55  1  0  0  0  0
 53 52  1  0  0  0  0
 55 54  1  0  0  0  0
 58 59  1  0  0  0  0
 59 57  1  0  0  0  0
 59 56  1  0  0  0  0
M  END
>  <MODEL>
4

>  <REMARK>
 VINA RESULT:      -2.8      4.022     11.190
  Name = 
  21 active torsions:
  status: ('A' for Active; 'I' for Inactive)
    1  A    between atoms: C_4  and  C_9
    2  A    between atoms: O_5  and  C_25
    3  A    between atoms: O_5  and  C_41
    4  A    between atoms: C_9  and  O_17
    5  A    between atoms: O_11  and  C_15
    6  A    between atoms: O_11  and  C_26
    7  A    between atoms: C_12  and  C_48
    8  A    between atoms: O_17  and  C_24
    9  A    between atoms: C_18  and  N_38
   10  A    between atoms: C_21  and  C_47
   11  A    between atoms: C_23  and  O_29
   12  A    between atoms: C_23  and  C_56
   13  A    between atoms: C_24  and  C_52
   14  A    between atoms: C_25  and  C_39
   15  A    between atoms: C_26  and  O_29
   16  A    between atoms: N_32  and  C_48
   17  A    between atoms: C_35  and  C_36
   18  A    between atoms: N_38  and  C_58
   19  A    between atoms: C_41  and  C_42
   20  A    between atoms: C_45  and  C_57
   21  A    between atoms: N_50  and  C_56
                            x       y       z     vdW  Elec       q    Type
                         _______ _______ _______ _____ _____    ______ ____

>  <TORSDO>
F 21

$$$$
=
 OpenBabel11032421053D

 59 64  0  0  1  0  0  0  0  0999 V2000
  190.8020  175.4690  135.8240 C   0  0  1  0  0  3  0  0  0  0  0  0
  191.0230  175.6350  137.3500 C   0  0  2  0  0  3  0  0  0  0  0  0
  185.5940  176.4080  134.6980 C   0  0  2  0  0  3  0  0  0  0  0  0
  189.4170  178.8900  135.2680 C   0  0  0  0  0  1  0  0  0  0  0  0
  187.6520  176.7880  138.4010 C   0  0  0  0  0  0  0  0  0  0  0  0
  189.7940  175.5340  138.1350 N   0  0  0  0  0  2  0  0  0  0  0  0
  185.8020  176.0840  137.0470 O   0  0  0  0  0  0  0  0  0  0  0  0
  185.4100  175.5240  135.8580 N   0  0  0  0  0  0  0  0  0  0  0  0
  189.7150  177.5630  139.2870 O   0  0  0  0  0  0  0  0  0  0  0  0
  187.0280  176.9180  134.5940 C   0  0  0  0  0  2  0  0  0  0  0  0
  189.8290  176.4050  135.0760 C   0  0  2  0  0  3  0  0  0  0  0  0
  191.3250  176.6370  135.0080 C   0  0  0  0  0  2  0  0  0  0  0  0
  187.1980  176.3190  137.0400 C   0  0  1  0  0  3  0  0  0  0  0  0
  189.1310  177.5240  135.8720 C   0  0  2  0  0  3  0  0  0  0  0  0
  189.0890  176.6470  138.6900 C   0  0  0  0  0  0  0  0  0  0  0  0
  187.5990  177.3290  135.9530 C   0  0  1  0  0  3  0  0  0  0  0  0
  186.7950  177.4600  139.1880 C   0  0  0  0  0  3  0  0  0  0  0  0
  185.4800  180.1890  142.7910 O   0  0  0  0  0  0  0  0  0  0  0  0
  188.2400  177.7700  142.6880 C   0  0  0  0  0  0  0  0  0  0  0  0
  188.0430  177.3490  141.4370 C   0  0  0  0  0  3  0  0  0  0  0  0
  187.4460  178.9220  143.2610 C   0  0  0  0  0  2  0  0  0  0  0  0
  186.3230  179.3580  142.3670 C   0  0  0  0  0  0  0  0  0  0  0  0
  187.0210  177.9540  140.5590 C   0  0  0  0  0  0  0  0  0  0  0  0
  186.2120  178.8540  141.0300 N   0  0  0  0  0  0  0  0  0  0  0  0
  189.2550  177.1370  143.4670 N   0  0  0  0  0  2  0  0  0  0  0  0
  190.6780  178.9690  143.2640 O   0  0  0  0  0  1  0  0  0  0  0  0
  191.2240  177.3090  144.8700 C   0  0  0  0  0  1  0  0  0  0  0  0
  190.6340  177.5970  143.5050 C   0  0  1  0  0  3  0  0  0  0  0  0
  192.4030  176.2660  139.3410 C   0  0  0  0  0  1  0  0  0  0  0  0
  192.0920  176.6040  137.8900 C   0  0  1  0  0  3  0  0  0  0  0  0
  193.2720  176.4850  137.1510 O   0  0  0  0  0  0  0  0  0  0  0  0
  193.5930  175.1250  137.1950 C   0  0  0  0  0  2  0  0  0  0  0  0
  195.1630  175.1750  135.2680 C   0  0  0  0  0  3  0  0  0  0  0  0
  196.4180  174.9700  134.6920 C   0  0  0  0  0  3  0  0  0  0  0  0
  196.0160  174.4210  137.4170 C   0  0  0  0  0  0  0  0  0  0  0  0
  197.2860  174.2310  136.8330 C   0  0  0  0  0  0  0  0  0  0  0  0
  197.4740  174.5020  135.4730 C   0  0  0  0  0  3  0  0  0  0  0  0
  194.9570  174.9140  136.6270 C   0  0  0  0  0  0  0  0  0  0  0  0
  198.4450  173.7170  137.6260 C   0  0  0  0  0  2  0  0  0  0  0  0
  198.7550  172.2860  137.2300 C   0  0  0  0  0  1  0  0  0  0  0  0
  195.8040  174.1450  138.8770 C   0  0  0  0  0  2  0  0  0  0  0  0
  196.0270  175.3090  139.6130 O   0  0  0  0  0  1  0  0  0  0  0  0
  184.7090  177.4860  134.7830 O   0  0  0  0  0  0  0  0  0  0  0  0
  183.4380  176.9110  134.7330 C   0  0  0  0  0  2  0  0  0  0  0  0
  182.4920  177.8140  135.2210 O   0  0  0  0  0  0  0  0  0  0  0  0
  182.3990  177.5170  136.5800 C   0  0  0  0  0  2  0  0  0  0  0  0
  180.9430  177.3270  136.9710 C   0  0  0  0  0  2  0  0  0  0  0  0
  181.5770  178.4600  138.8410 O   0  0  0  0  0  0  0  0  0  0  0  0
  180.2460  178.6860  138.7180 C   0  0  1  0  0  3  0  0  0  0  0  0
  180.8030  177.3920  138.4150 N   0  0  0  0  0  0  0  0  0  0  0  0
  179.5960  178.6540  140.0870 C   0  0  0  0  0  2  0  0  0  0  0  0
  180.5770  178.5160  141.0700 O   0  0  0  0  0  0  0  0  0  0  0  0
  179.8960  178.0300  142.1850 C   0  0  0  0  0  2  0  0  0  0  0  0
  180.8980  180.0240  142.9690 F   0  0  0  0  0  0  0  0  0  0  0  0
  180.1730  178.9210  143.3770 C   0  0  0  0  0  2  0  0  0  0  0  0
  185.8180  174.1160  135.6970 C   0  0  0  0  0  2  0  0  0  0  0  0
  185.3520  172.2590  137.2740 C   0  0  0  0  0  1  0  0  0  0  0  0
  183.5460  173.8330  136.6710 C   0  0  0  0  0  1  0  0  0  0  0  0
  184.7750  173.1070  136.1640 C   0  0  0  0  0  3  0  0  0  0  0  0
  1 12  1  6  0  0  0
  1  2  1  0  0  0  0
  2 30  1  6  0  0  0
  2  6  1  0  0  0  0
  3 43  1  1  0  0  0
  3  8  1  0  0  0  0
  5 15  1  0  0  0  0
  5 17  2  0  0  0  0
  6 15  1  0  0  0  0
  8  7  1  0  0  0  0
 10  3  1  0  0  0  0
 11 12  1  6  0  0  0
 11  1  1  0  0  0  0
 11 14  1  0  0  0  0
 13  7  1  1  0  0  0
 13  5  1  0  0  0  0
 14  4  1  6  0  0  0
 14 16  1  0  0  0  0
 15  9  2  0  0  0  0
 16 10  1  6  0  0  0
 16 13  1  0  0  0  0
 17 23  1  0  0  0  0
 19 21  1  0  0  0  0
 19 25  1  0  0  0  0
 20 19  2  0  0  0  0
 22 18  2  0  0  0  0
 22 21  1  0  0  0  0
 23 24  2  0  0  0  0
 23 20  1  0  0  0  0
 24 22  1  0  0  0  0
 25 28  1  0  0  0  0
 26 28  1  0  0  0  0
 28 27  1  1  0  0  0
 30 29  1  1  0  0  0
 31 32  1  0  0  0  0
 31 30  1  0  0  0  0
 33 38  1  0  0  0  0
 34 33  2  0  0  0  0
 34 37  1  0  0  0  0
 35 41  1  0  0  0  0
 36 35  1  0  0  0  0
 36 39  1  0  0  0  0
 37 36  2  0  0  0  0
 38 32  1  0  0  0  0
 38 35  2  0  0  0  0
 40 39  1  0  0  0  0
 41 42  1  0  0  0  0
 44 43  1  0  0  0  0
 44 45  1  0  0  0  0
 45 46  1  0  0  0  0
 46 47  1  0  0  0  0
 47 50  1  0  0  0  0
 49 48  1  0  0  0  0
 49 51  1  1  0  0  0
 50 49  1  0  0  0  0
 50 48  1  0  0  0  0
 51 52  1  0  0  0  0
 52 53  1  0  0  0  0
 53 55  1  0  0  0  0
 54 55  1  0  0  0  0
 56  8  1  0  0  0  0
 56 59  1  0  0  0  0
 59 58  1  0  0  0  0
 59 57  1  0  0  0  0
M  END
>  <MODEL>
5

>  <REMARK>
 VINA RESULT:      -2.4      2.883      9.731
  Name = 
  21 active torsions:
  status: ('A' for Active; 'I' for Inactive)
    1  A    between atoms: C_4  and  C_9
    2  A    between atoms: O_5  and  C_25
    3  A    between atoms: O_5  and  C_41
    4  A    between atoms: C_9  and  O_17
    5  A    between atoms: O_11  and  C_15
    6  A    between atoms: O_11  and  C_26
    7  A    between atoms: C_12  and  C_48
    8  A    between atoms: O_17  and  C_24
    9  A    between atoms: C_18  and  N_38
   10  A    between atoms: C_21  and  C_47
   11  A    between atoms: C_23  and  O_29
   12  A    between atoms: C_23  and  C_56
   13  A    between atoms: C_24  and  C_52
   14  A    between atoms: C_25  and  C_39
   15  A    between atoms: C_26  and  O_29
   16  A    between atoms: N_32  and  C_48
   17  A    between atoms: C_35  and  C_36
   18  A    between atoms: N_38  and  C_58
   19  A    between atoms: C_41  and  C_42
   20  A    between atoms: C_45  and  C_57
   21  A    between atoms: N_50  and  C_56
                            x       y       z     vdW  Elec       q    Type
                         _______ _______ _______ _____ _____    ______ ____

>  <TORSDO>
F 21

$$$$
=
 OpenBabel11032421053D

 59 64  0  0  1  0  0  0  0  0999 V2000
  186.5750  177.2430  141.4380 C   0  0  1  0  0  3  0  0  0  0  0  0
  185.2110  177.8590  141.8440 C   0  0  2  0  0  3  0  0  0  0  0  0
  186.4960  176.1620  136.1370 C   0  0  2  0  0  3  0  0  0  0  0  0
  187.3730  179.7840  138.8230 C   0  0  0  0  0  1  0  0  0  0  0  0
  183.5670  178.1170  138.5230 C   0  0  0  0  0  0  0  0  0  0  0  0
  184.1350  177.5810  140.8940 N   0  0  0  0  0  2  0  0  0  0  0  0
  184.2580  176.5390  136.8540 O   0  0  0  0  0  0  0  0  0  0  0  0
  185.1870  175.5960  136.4940 N   0  0  0  0  0  0  0  0  0  0  0  0
  183.3880  179.7060  140.2790 O   0  0  0  0  0  0  0  0  0  0  0  0
  187.0500  177.0540  137.2430 C   0  0  0  0  0  2  0  0  0  0  0  0
  187.2090  177.5970  140.0760 C   0  0  2  0  0  3  0  0  0  0  0  0
  187.6940  178.2640  141.3460 C   0  0  0  0  0  2  0  0  0  0  0  0
  184.6610  177.1930  138.0430 C   0  0  1  0  0  3  0  0  0  0  0  0
  186.4780  178.6030  139.1660 C   0  0  2  0  0  3  0  0  0  0  0  0
  183.6300  178.5170  139.9390 C   0  0  0  0  0  0  0  0  0  0  0  0
  185.9780  177.9610  137.8520 C   0  0  1  0  0  3  0  0  0  0  0  0
  182.7240  178.6620  137.6300 C   0  0  0  0  0  3  0  0  0  0  0  0
  179.1180  179.9150  140.3850 O   0  0  0  0  0  0  0  0  0  0  0  0
  180.2760  181.5500  137.3080 C   0  0  0  0  0  0  0  0  0  0  0  0
  181.3040  180.7330  137.0640 C   0  0  0  0  0  3  0  0  0  0  0  0
  179.3020  181.2710  138.4300 C   0  0  0  0  0  2  0  0  0  0  0  0
  179.7440  180.1450  139.3180 C   0  0  0  0  0  0  0  0  0  0  0  0
  181.5680  179.5400  137.8940 C   0  0  0  0  0  0  0  0  0  0  0  0
  180.8540  179.3160  138.9540 N   0  0  0  0  0  0  0  0  0  0  0  0
  180.0850  182.6770  136.4530 N   0  0  0  0  0  2  0  0  0  0  0  0
  180.8760  184.3380  135.0250 O   0  0  0  0  0  1  0  0  0  0  0  0
  181.0200  184.7200  137.3620 C   0  0  0  0  0  1  0  0  0  0  0  0
  181.0970  183.7010  136.2450 C   0  0  1  0  0  3  0  0  0  0  0  0
  183.7550  179.4220  143.1510 C   0  0  0  0  0  1  0  0  0  0  0  0
  185.1440  179.2210  142.5610 C   0  0  1  0  0  3  0  0  0  0  0  0
  186.0730  179.2670  143.6040 O   0  0  0  0  0  0  0  0  0  0  0  0
  185.7970  178.1410  144.3860 C   0  0  0  0  0  2  0  0  0  0  0  0
  188.0030  176.9960  144.3980 C   0  0  0  0  0  3  0  0  0  0  0  0
  189.1650  176.5600  145.0380 C   0  0  0  0  0  3  0  0  0  0  0  0
  187.2190  177.9860  146.4760 C   0  0  0  0  0  0  0  0  0  0  0  0
  188.4020  177.5570  147.1130 C   0  0  0  0  0  0  0  0  0  0  0  0
  189.3630  176.8420  146.3890 C   0  0  0  0  0  3  0  0  0  0  0  0
  187.0340  177.7160  145.1040 C   0  0  0  0  0  0  0  0  0  0  0  0
  188.6520  177.8220  148.5630 C   0  0  0  0  0  2  0  0  0  0  0  0
  190.0330  178.4190  148.7550 C   0  0  0  0  0  1  0  0  0  0  0  0
  186.1870  178.7630  147.2380 C   0  0  0  0  0  2  0  0  0  0  0  0
  184.9490  178.1290  147.1340 O   0  0  0  0  0  1  0  0  0  0  0  0
  186.3860  176.8880  134.9480 O   0  0  0  0  0  0  0  0  0  0  0  0
  187.5860  177.5950  134.8480 C   0  0  0  0  0  2  0  0  0  0  0  0
  188.6350  176.7110  134.5950 O   0  0  0  0  0  0  0  0  0  0  0  0
  189.7810  177.4240  134.9430 C   0  0  0  0  0  2  0  0  0  0  0  0
  190.6950  176.5550  135.7900 C   0  0  0  0  0  2  0  0  0  0  0  0
  189.9310  176.6790  137.9320 O   0  0  0  0  0  0  0  0  0  0  0  0
  191.1580  176.1070  138.0200 C   0  0  1  0  0  3  0  0  0  0  0  0
  190.9100  177.1760  137.0860 N   0  0  0  0  0  0  0  0  0  0  0  0
  191.8850  176.6490  139.2340 C   0  0  0  0  0  2  0  0  0  0  0  0
  190.9730  176.8760  140.2660 O   0  0  0  0  0  0  0  0  0  0  0  0
  191.7570  176.9830  141.4150 C   0  0  0  0  0  2  0  0  0  0  0  0
  191.2440  179.0420  142.4600 F   0  0  0  0  0  0  0  0  0  0  0  0
  190.9720  177.6880  142.5000 C   0  0  0  0  0  2  0  0  0  0  0  0
  185.1870  174.3990  137.3550 C   0  0  0  0  0  2  0  0  0  0  0  0
  183.1450  173.0580  136.9290 C   0  0  0  0  0  1  0  0  0  0  0  0
  184.8950  173.2050  135.1920 C   0  0  0  0  0  1  0  0  0  0  0  0
  184.6340  173.1480  136.6830 C   0  0  0  0  0  3  0  0  0  0  0  0
  1 12  1  1  0  0  0
  1  2  1  0  0  0  0
  2 30  1  6  0  0  0
  3 43  1  6  0  0  0
  3  8  1  0  0  0  0
  3 10  1  0  0  0  0
  5 15  1  0  0  0  0
  6  2  1  0  0  0  0
  8  7  1  0  0  0  0
  8 56  1  0  0  0  0
 11 12  1  1  0  0  0
 11  1  1  0  0  0  0
 13  7  1  6  0  0  0
 13  5  1  0  0  0  0
 14  4  1  6  0  0  0
 14 11  1  0  0  0  0
 15  9  2  0  0  0  0
 15  6  1  0  0  0  0
 16 10  1  1  0  0  0
 16 13  1  0  0  0  0
 16 14  1  0  0  0  0
 17 23  1  0  0  0  0
 17  5  2  0  0  0  0
 19 21  1  0  0  0  0
 20 19  2  0  0  0  0
 20 23  1  0  0  0  0
 21 22  1  0  0  0  0
 22 18  2  0  0  0  0
 23 24  2  0  0  0  0
 24 22  1  0  0  0  0
 25 19  1  0  0  0  0
 26 28  1  0  0  0  0
 28 25  1  0  0  0  0
 28 27  1  1  0  0  0
 30 29  1  1  0  0  0
 30 31  1  0  0  0  0
 31 32  1  0  0  0  0
 32 38  1  0  0  0  0
 33 34  2  0  0  0  0
 33 38  1  0  0  0  0
 34 37  1  0  0  0  0
 35 36  1  0  0  0  0
 35 41  1  0  0  0  0
 36 39  1  0  0  0  0
 37 36  2  0  0  0  0
 38 35  2  0  0  0  0
 39 40  1  0  0  0  0
 42 41  1  0  0  0  0
 44 43  1  0  0  0  0
 45 44  1  0  0  0  0
 45 46  1  0  0  0  0
 46 47  1  0  0  0  0
 47 50  1  0  0  0  0
 48 49  1  0  0  0  0
 49 51  1  1  0  0  0
 50 48  1  0  0  0  0
 50 49  1  0  0  0  0
 51 52  1  0  0  0  0
 52 53  1  0  0  0  0
 53 55  1  0  0  0  0
 54 55  1  0  0  0  0
 58 59  1  0  0  0  0
 59 57  1  0  0  0  0
 59 56  1  0  0  0  0
M  END
>  <MODEL>
6

>  <REMARK>
 VINA RESULT:      -2.4      3.745     10.499
  Name = 
  21 active torsions:
  status: ('A' for Active; 'I' for Inactive)
    1  A    between atoms: C_4  and  C_9
    2  A    between atoms: O_5  and  C_25
    3  A    between atoms: O_5  and  C_41
    4  A    between atoms: C_9  and  O_17
    5  A    between atoms: O_11  and  C_15
    6  A    between atoms: O_11  and  C_26
    7  A    between atoms: C_12  and  C_48
    8  A    between atoms: O_17  and  C_24
    9  A    between atoms: C_18  and  N_38
   10  A    between atoms: C_21  and  C_47
   11  A    between atoms: C_23  and  O_29
   12  A    between atoms: C_23  and  C_56
   13  A    between atoms: C_24  and  C_52
   14  A    between atoms: C_25  and  C_39
   15  A    between atoms: C_26  and  O_29
   16  A    between atoms: N_32  and  C_48
   17  A    between atoms: C_35  and  C_36
   18  A    between atoms: N_38  and  C_58
   19  A    between atoms: C_41  and  C_42
   20  A    between atoms: C_45  and  C_57
   21  A    between atoms: N_50  and  C_56
                            x       y       z     vdW  Elec       q    Type
                         _______ _______ _______ _____ _____    ______ ____

>  <TORSDO>
F 21

$$$$
=
 OpenBabel11032421053D

 59 64  0  0  1  0  0  0  0  0999 V2000
  191.3100  175.3920  135.3950 C   0  0  1  0  0  3  0  0  0  0  0  0
  191.8180  175.4090  136.8600 C   0  0  2  0  0  3  0  0  0  0  0  0
  185.9610  176.2130  135.3900 C   0  0  2  0  0  3  0  0  0  0  0  0
  189.7640  178.7880  135.4920 C   0  0  0  0  0  1  0  0  0  0  0  0
  188.6890  176.2980  138.6530 C   0  0  0  0  0  0  0  0  0  0  0  0
  190.7670  175.1730  137.8480 N   0  0  0  0  0  2  0  0  0  0  0  0
  186.6280  175.6570  137.6060 O   0  0  0  0  0  0  0  0  0  0  0  0
  186.0260  175.2060  136.4590 N   0  0  0  0  0  0  0  0  0  0  0  0
  190.8660  177.0670  139.2110 O   0  0  0  0  0  0  0  0  0  0  0  0
  187.3360  176.7930  135.0720 C   0  0  0  0  0  2  0  0  0  0  0  0
  190.1890  176.3570  134.9530 C   0  0  2  0  0  3  0  0  0  0  0  0
  191.6370  176.6600  134.6280 C   0  0  0  0  0  2  0  0  0  0  0  0
  187.9910  175.9520  137.3600 C   0  0  1  0  0  3  0  0  0  0  0  0
  189.6330  177.3550  135.9860 C   0  0  2  0  0  3  0  0  0  0  0  0
  190.1580  176.1910  138.6470 C   0  0  0  0  0  0  0  0  0  0  0  0
  188.1500  177.0860  136.3340 C   0  0  1  0  0  3  0  0  0  0  0  0
  187.9850  176.8460  139.6580 C   0  0  0  0  0  3  0  0  0  0  0  0
  191.5420  177.7710  142.5990 O   0  0  0  0  0  0  0  0  0  0  0  0
  187.9410  177.9730  143.2850 C   0  0  0  0  0  0  0  0  0  0  0  0
  187.5210  177.6200  142.0680 C   0  0  0  0  0  3  0  0  0  0  0  0
  189.4070  177.9300  143.6530 C   0  0  0  0  0  2  0  0  0  0  0  0
  190.2950  177.6670  142.4720 C   0  0  0  0  0  0  0  0  0  0  0  0
  188.4610  177.2060  141.0060 C   0  0  0  0  0  0  0  0  0  0  0  0
  189.7400  177.2770  141.2100 N   0  0  0  0  0  0  0  0  0  0  0  0
  186.9660  178.3520  144.2580 N   0  0  0  0  0  2  0  0  0  0  0  0
  184.8300  178.4680  145.1770 O   0  0  0  0  0  1  0  0  0  0  0  0
  185.2340  179.6370  143.1520 C   0  0  0  0  0  1  0  0  0  0  0  0
  185.5400  178.4060  143.9790 C   0  0  1  0  0  3  0  0  0  0  0  0
  193.1450  176.2790  138.7970 C   0  0  0  0  0  1  0  0  0  0  0  0
  192.9490  176.3620  137.2900 C   0  0  1  0  0  3  0  0  0  0  0  0
  194.1490  176.0000  136.6720 O   0  0  0  0  0  0  0  0  0  0  0  0
  194.2140  174.6090  136.7920 C   0  0  0  0  0  2  0  0  0  0  0  0
  196.2890  174.8080  135.4380 C   0  0  0  0  0  3  0  0  0  0  0  0
  197.5700  174.3900  135.0710 C   0  0  0  0  0  3  0  0  0  0  0  0
  196.1700  173.0270  137.0890 C   0  0  0  0  0  0  0  0  0  0  0  0
  197.4700  172.6180  136.7250 C   0  0  0  0  0  0  0  0  0  0  0  0
  198.1570  173.3000  135.7140 C   0  0  0  0  0  3  0  0  0  0  0  0
  195.5900  174.1420  136.4490 C   0  0  0  0  0  0  0  0  0  0  0  0
  198.1350  171.4470  137.3740 C   0  0  0  0  0  2  0  0  0  0  0  0
  198.2910  170.3150  136.3770 C   0  0  0  0  0  1  0  0  0  0  0  0
  195.4280  172.3110  138.1780 C   0  0  0  0  0  2  0  0  0  0  0  0
  195.1140  173.2060  139.2010 O   0  0  0  0  0  1  0  0  0  0  0  0
  185.0850  177.2360  135.7600 O   0  0  0  0  0  0  0  0  0  0  0  0
  183.8160  176.7590  135.4270 C   0  0  0  0  0  2  0  0  0  0  0  0
  182.8620  177.3280  136.2720 O   0  0  0  0  0  0  0  0  0  0  0  0
  183.2550  176.9370  137.5510 C   0  0  0  0  0  2  0  0  0  0  0  0
  182.4100  177.6510  138.5930 C   0  0  0  0  0  2  0  0  0  0  0  0
  180.7570  179.2040  138.7920 O   0  0  0  0  0  0  0  0  0  0  0  0
  181.9050  179.8580  139.1030 C   0  0  1  0  0  3  0  0  0  0  0  0
  181.8770  178.8840  138.0410 N   0  0  0  0  0  0  0  0  0  0  0  0
  181.8690  181.2550  138.5150 C   0  0  0  0  0  2  0  0  0  0  0  0
  180.9190  182.0240  139.1880 O   0  0  0  0  0  0  0  0  0  0  0  0
  180.4460  182.9210  138.2310 C   0  0  0  0  0  2  0  0  0  0  0  0
  180.8290  183.0630  135.9010 F   0  0  0  0  0  0  0  0  0  0  0  0
  181.4690  183.0690  137.1260 C   0  0  0  0  0  2  0  0  0  0  0  0
  186.4280  173.8420  136.0710 C   0  0  0  0  0  2  0  0  0  0  0  0
  185.0140  171.8040  136.1070 C   0  0  0  0  0  1  0  0  0  0  0  0
  186.9600  171.9690  137.6200 C   0  0  0  0  0  1  0  0  0  0  0  0
  185.8430  172.7450  136.9520 C   0  0  0  0  0  3  0  0  0  0  0  0
  1 12  1  6  0  0  0
  1  2  1  0  0  0  0
  2 30  1  1  0  0  0
  2  6  1  0  0  0  0
  3 43  1  1  0  0  0
  3  8  1  0  0  0  0
  5 17  2  0  0  0  0
  6 15  1  0  0  0  0
  8  7  1  0  0  0  0
 10  3  1  0  0  0  0
 11 12  1  6  0  0  0
 11  1  1  0  0  0  0
 11 14  1  0  0  0  0
 13  7  1  1  0  0  0
 13  5  1  0  0  0  0
 14  4  1  6  0  0  0
 14 16  1  0  0  0  0
 15  5  1  0  0  0  0
 15  9  2  0  0  0  0
 16 10  1  6  0  0  0
 16 13  1  0  0  0  0
 17 23  1  0  0  0  0
 19 21  1  0  0  0  0
 19 25  1  0  0  0  0
 20 19  2  0  0  0  0
 22 18  2  0  0  0  0
 22 21  1  0  0  0  0
 23 24  2  0  0  0  0
 23 20  1  0  0  0  0
 24 22  1  0  0  0  0
 28 27  1  6  0  0  0
 28 25  1  0  0  0  0
 28 26  1  0  0  0  0
 30 29  1  1  0  0  0
 31 32  1  0  0  0  0
 31 30  1  0  0  0  0
 33 38  1  0  0  0  0
 34 33  2  0  0  0  0
 34 37  1  0  0  0  0
 35 41  1  0  0  0  0
 36 35  1  0  0  0  0
 36 39  1  0  0  0  0
 37 36  2  0  0  0  0
 38 32  1  0  0  0  0
 38 35  2  0  0  0  0
 40 39  1  0  0  0  0
 41 42  1  0  0  0  0
 44 43  1  0  0  0  0
 44 45  1  0  0  0  0
 45 46  1  0  0  0  0
 46 47  1  0  0  0  0
 48 49  1  0  0  0  0
 49 51  1  6  0  0  0
 50 47  1  0  0  0  0
 50 48  1  0  0  0  0
 50 49  1  0  0  0  0
 51 52  1  0  0  0  0
 53 52  1  0  0  0  0
 54 55  1  0  0  0  0
 55 53  1  0  0  0  0
 56  8  1  0  0  0  0
 56 59  1  0  0  0  0
 57 59  1  0  0  0  0
 59 58  1  0  0  0  0
M  END
>  <MODEL>
7

>  <REMARK>
 VINA RESULT:      -2.3      3.354     10.061
  Name = 
  21 active torsions:
  status: ('A' for Active; 'I' for Inactive)
    1  A    between atoms: C_4  and  C_9
    2  A    between atoms: O_5  and  C_25
    3  A    between atoms: O_5  and  C_41
    4  A    between atoms: C_9  and  O_17
    5  A    between atoms: O_11  and  C_15
    6  A    between atoms: O_11  and  C_26
    7  A    between atoms: C_12  and  C_48
    8  A    between atoms: O_17  and  C_24
    9  A    between atoms: C_18  and  N_38
   10  A    between atoms: C_21  and  C_47
   11  A    between atoms: C_23  and  O_29
   12  A    between atoms: C_23  and  C_56
   13  A    between atoms: C_24  and  C_52
   14  A    between atoms: C_25  and  C_39
   15  A    between atoms: C_26  and  O_29
   16  A    between atoms: N_32  and  C_48
   17  A    between atoms: C_35  and  C_36
   18  A    between atoms: N_38  and  C_58
   19  A    between atoms: C_41  and  C_42
   20  A    between atoms: C_45  and  C_57
   21  A    between atoms: N_50  and  C_56
                            x       y       z     vdW  Elec       q    Type
                         _______ _______ _______ _____ _____    ______ ____

>  <TORSDO>
F 21

$$$$
=
 OpenBabel11032421053D

 59 64  0  0  1  0  0  0  0  0999 V2000
  187.1510  175.7690  135.9050 C   0  0  1  0  0  3  0  0  0  0  0  0
  187.1370  176.4560  137.2950 C   0  0  2  0  0  3  0  0  0  0  0  0
  182.4090  173.2800  135.1370 C   0  0  2  0  0  3  0  0  0  0  0  0
  184.1200  177.5080  134.5940 C   0  0  0  0  0  1  0  0  0  0  0  0
  183.6420  175.7770  138.3520 C   0  0  0  0  0  0  0  0  0  0  0  0
  186.1300  175.9160  138.2060 N   0  0  0  0  0  2  0  0  0  0  0  0
  182.6060  173.8120  137.4490 O   0  0  0  0  0  0  0  0  0  0  0  0
  182.6780  172.8180  136.5070 N   0  0  0  0  0  0  0  0  0  0  0  0
  184.8450  177.7840  138.7660 O   0  0  0  0  0  0  0  0  0  0  0  0
  183.3090  174.4470  134.7440 C   0  0  0  0  0  2  0  0  0  0  0  0
  185.8720  175.7440  135.0400 C   0  0  2  0  0  3  0  0  0  0  0  0
  186.9780  176.7390  134.7510 C   0  0  0  0  0  2  0  0  0  0  0  0
  183.6230  174.7710  137.2270 C   0  0  1  0  0  3  0  0  0  0  0  0
  184.6140  176.4550  135.5740 C   0  0  2  0  0  3  0  0  0  0  0  0
  184.8860  176.5500  138.5120 C   0  0  0  0  0  0  0  0  0  0  0  0
  183.4570  175.4730  135.8700 C   0  0  1  0  0  3  0  0  0  0  0  0
  182.5050  176.0480  139.0150 C   0  0  0  0  0  3  0  0  0  0  0  0
  179.6390  178.3670  141.9420 O   0  0  0  0  0  0  0  0  0  0  0  0
  183.3010  178.1480  142.0790 C   0  0  0  0  0  0  0  0  0  0  0  0
  183.4590  177.3530  141.0190 C   0  0  0  0  0  3  0  0  0  0  0  0
  181.9460  178.7120  142.4430 C   0  0  0  0  0  2  0  0  0  0  0  0
  180.8320  178.1170  141.6330 C   0  0  0  0  0  0  0  0  0  0  0  0
  182.3210  176.9510  140.1670 C   0  0  0  0  0  0  0  0  0  0  0  0
  181.1120  177.2860  140.5000 N   0  0  0  0  0  0  0  0  0  0  0  0
  184.4540  178.4970  142.8450 N   0  0  0  0  0  2  0  0  0  0  0  0
  186.3760  179.5110  142.0060 O   0  0  0  0  0  1  0  0  0  0  0  0
  186.6420  177.6770  143.4890 C   0  0  0  0  0  1  0  0  0  0  0  0
  185.8150  178.2890  142.3780 C   0  0  1  0  0  3  0  0  0  0  0  0
  187.4310  178.3530  138.9030 C   0  0  0  0  0  1  0  0  0  0  0  0
  187.4360  177.9610  137.4320 C   0  0  1  0  0  3  0  0  0  0  0  0
  188.6960  178.2560  136.9050 O   0  0  0  0  0  0  0  0  0  0  0  0
  189.6060  177.6540  137.7800 C   0  0  0  0  0  2  0  0  0  0  0  0
  190.5720  176.9520  135.6000 C   0  0  0  0  0  3  0  0  0  0  0  0
  191.5140  176.2700  134.8290 C   0  0  0  0  0  3  0  0  0  0  0  0
  191.6710  176.1950  137.6330 C   0  0  0  0  0  0  0  0  0  0  0  0
  192.6300  175.5200  136.8480 C   0  0  0  0  0  0  0  0  0  0  0  0
  192.5390  175.5590  135.4530 C   0  0  0  0  0  3  0  0  0  0  0  0
  190.6490  176.9300  136.9960 C   0  0  0  0  0  0  0  0  0  0  0  0
  193.7380  174.7320  137.4700 C   0  0  0  0  0  2  0  0  0  0  0  0
  194.5270  174.0050  136.3990 C   0  0  0  0  0  1  0  0  0  0  0  0
  191.7630  176.1710  139.1300 C   0  0  0  0  0  2  0  0  0  0  0  0
  191.9190  177.4700  139.6130 O   0  0  0  0  0  1  0  0  0  0  0  0
  181.0670  173.6520  135.0220 O   0  0  0  0  0  0  0  0  0  0  0  0
  180.5260  173.4390  136.2910 C   0  0  0  0  0  2  0  0  0  0  0  0
  179.1440  173.6330  136.2530 O   0  0  0  0  0  0  0  0  0  0  0  0
  178.9920  174.9760  135.9110 C   0  0  0  0  0  2  0  0  0  0  0  0
  179.8850  175.8380  136.7870 C   0  0  0  0  0  2  0  0  0  0  0  0
  180.0490  177.8590  137.8220 O   0  0  0  0  0  0  0  0  0  0  0  0
  180.5880  178.0410  136.5900 C   0  0  1  0  0  3  0  0  0  0  0  0
  179.4210  177.2140  136.7680 N   0  0  0  0  0  0  0  0  0  0  0  0
  180.1750  179.3960  136.0510 C   0  0  0  0  0  2  0  0  0  0  0  0
  181.2140  180.3110  136.2310 O   0  0  0  0  0  0  0  0  0  0  0  0
  181.1700  180.6350  137.5860 C   0  0  0  0  0  2  0  0  0  0  0  0
  182.9610  180.6200  139.1320 F   0  0  0  0  0  0  0  0  0  0  0  0
  182.1800  179.7980  138.3410 C   0  0  0  0  0  2  0  0  0  0  0  0
  183.8180  171.9020  136.6920 C   0  0  0  0  0  2  0  0  0  0  0  0
  185.7050  171.3710  135.1720 C   0  0  0  0  0  1  0  0  0  0  0  0
  183.9570  169.6760  135.5890 C   0  0  0  0  0  1  0  0  0  0  0  0
  184.2310  171.1570  135.4280 C   0  0  0  0  0  3  0  0  0  0  0  0
  1 12  1  6  0  0  0
  1  2  1  0  0  0  0
  2 30  1  6  0  0  0
  2  6  1  0  0  0  0
  3 43  1  1  0  0  0
  3  8  1  0  0  0  0
  5 15  1  0  0  0  0
  5 17  2  0  0  0  0
  6 15  1  0  0  0  0
  8 56  1  0  0  0  0
  8  7  1  0  0  0  0
 10  3  1  0  0  0  0
 11 12  1  6  0  0  0
 11 14  1  0  0  0  0
 11  1  1  0  0  0  0
 13  7  1  1  0  0  0
 13  5  1  0  0  0  0
 14  4  1  6  0  0  0
 14 16  1  0  0  0  0
 15  9  2  0  0  0  0
 16 10  1  6  0  0  0
 16 13  1  0  0  0  0
 17 23  1  0  0  0  0
 19 21  1  0  0  0  0
 19 25  1  0  0  0  0
 20 19  2  0  0  0  0
 22 18  2  0  0  0  0
 22 21  1  0  0  0  0
 23 24  2  0  0  0  0
 23 20  1  0  0  0  0
 24 22  1  0  0  0  0
 26 28  1  0  0  0  0
 28 25  1  0  0  0  0
 28 27  1  1  0  0  0
 30 29  1  1  0  0  0
 31 30  1  0  0  0  0
 31 32  1  0  0  0  0
 33 38  1  0  0  0  0
 34 37  1  0  0  0  0
 34 33  2  0  0  0  0
 35 41  1  0  0  0  0
 36 39  1  0  0  0  0
 36 35  1  0  0  0  0
 37 36  2  0  0  0  0
 38 35  2  0  0  0  0
 38 32  1  0  0  0  0
 40 39  1  0  0  0  0
 41 42  1  0  0  0  0
 43 44  1  0  0  0  0
 45 44  1  0  0  0  0
 46 45  1  0  0  0  0
 46 47  1  0  0  0  0
 49 51  1  6  0  0  0
 49 50  1  0  0  0  0
 49 48  1  0  0  0  0
 50 47  1  0  0  0  0
 50 48  1  0  0  0  0
 51 52  1  0  0  0  0
 52 53  1  0  0  0  0
 53 55  1  0  0  0  0
 55 54  1  0  0  0  0
 57 59  1  0  0  0  0
 59 58  1  0  0  0  0
 59 56  1  0  0  0  0
M  END
>  <MODEL>
8

>  <REMARK>
 VINA RESULT:      -2.2      3.477     10.434
  Name = 
  21 active torsions:
  status: ('A' for Active; 'I' for Inactive)
    1  A    between atoms: C_4  and  C_9
    2  A    between atoms: O_5  and  C_25
    3  A    between atoms: O_5  and  C_41
    4  A    between atoms: C_9  and  O_17
    5  A    between atoms: O_11  and  C_15
    6  A    between atoms: O_11  and  C_26
    7  A    between atoms: C_12  and  C_48
    8  A    between atoms: O_17  and  C_24
    9  A    between atoms: C_18  and  N_38
   10  A    between atoms: C_21  and  C_47
   11  A    between atoms: C_23  and  O_29
   12  A    between atoms: C_23  and  C_56
   13  A    between atoms: C_24  and  C_52
   14  A    between atoms: C_25  and  C_39
   15  A    between atoms: C_26  and  O_29
   16  A    between atoms: N_32  and  C_48
   17  A    between atoms: C_35  and  C_36
   18  A    between atoms: N_38  and  C_58
   19  A    between atoms: C_41  and  C_42
   20  A    between atoms: C_45  and  C_57
   21  A    between atoms: N_50  and  C_56
                            x       y       z     vdW  Elec       q    Type
                         _______ _______ _______ _____ _____    ______ ____

>  <TORSDO>
F 21

$$$$
=
 OpenBabel11032421053D

 59 64  0  0  1  0  0  0  0  0999 V2000
  187.9920  176.6840  142.0860 C   0  0  1  0  0  3  0  0  0  0  0  0
  186.5990  177.1850  142.5480 C   0  0  2  0  0  3  0  0  0  0  0  0
  188.2020  176.8430  136.6820 C   0  0  2  0  0  3  0  0  0  0  0  0
  188.8800  179.7590  140.1660 C   0  0  0  0  0  1  0  0  0  0  0  0
  185.1230  178.1880  139.2910 C   0  0  0  0  0  0  0  0  0  0  0  0
  185.5780  177.1270  141.5040 N   0  0  0  0  0  2  0  0  0  0  0  0
  185.9240  177.0370  137.3450 O   0  0  0  0  0  0  0  0  0  0  0  0
  186.8850  176.2050  136.8300 N   0  0  0  0  0  0  0  0  0  0  0  0
  184.8280  179.3330  141.3510 O   0  0  0  0  0  0  0  0  0  0  0  0
  188.6840  177.4610  137.9900 C   0  0  0  0  0  2  0  0  0  0  0  0
  188.6890  177.3430  140.8760 C   0  0  2  0  0  3  0  0  0  0  0  0
  189.0970  177.7040  142.2900 C   0  0  0  0  0  2  0  0  0  0  0  0
  186.2540  177.4030  138.6720 C   0  0  1  0  0  3  0  0  0  0  0  0
  187.9890  178.5270  140.1830 C   0  0  2  0  0  3  0  0  0  0  0  0
  185.1070  178.2550  140.7620 C   0  0  0  0  0  0  0  0  0  0  0  0
  187.5670  178.2010  138.7310 C   0  0  1  0  0  3  0  0  0  0  0  0
  184.3170  178.9200  138.5020 C   0  0  0  0  0  3  0  0  0  0  0  0
  181.8830  182.9460  138.3490 O   0  0  0  0  0  0  0  0  0  0  0  0
  180.9050  179.7810  139.9320 C   0  0  0  0  0  0  0  0  0  0  0  0
  181.9920  179.0840  139.5930 C   0  0  0  0  0  3  0  0  0  0  0  0
  180.8060  181.2640  139.6530 C   0  0  0  0  0  2  0  0  0  0  0  0
  181.9290  181.7720  138.7980 C   0  0  0  0  0  0  0  0  0  0  0  0
  183.1350  179.7080  138.8970 C   0  0  0  0  0  0  0  0  0  0  0  0
  183.0600  180.9430  138.5050 N   0  0  0  0  0  0  0  0  0  0  0  0
  179.8470  179.1040  140.6110 N   0  0  0  0  0  2  0  0  0  0  0  0
  179.6330  178.4480  142.8350 O   0  0  0  0  0  1  0  0  0  0  0  0
  179.3000  176.8070  141.1550 C   0  0  0  0  0  1  0  0  0  0  0  0
  180.0710  178.0400  141.5760 C   0  0  1  0  0  3  0  0  0  0  0  0
  185.0420  178.8660  143.5600 C   0  0  0  0  0  1  0  0  0  0  0  0
  186.4730  178.3470  143.5530 C   0  0  1  0  0  3  0  0  0  0  0  0
  186.7860  177.9090  144.8420 O   0  0  0  0  0  0  0  0  0  0  0  0
  187.6640  178.8720  145.3490 C   0  0  0  0  0  2  0  0  0  0  0  0
  190.0210  178.6250  144.5970 C   0  0  0  0  0  3  0  0  0  0  0  0
  191.2980  178.0730  144.6990 C   0  0  0  0  0  3  0  0  0  0  0  0
  189.2980  177.3400  146.5300 C   0  0  0  0  0  0  0  0  0  0  0  0
  190.5960  176.7960  146.6380 C   0  0  0  0  0  0  0  0  0  0  0  0
  191.5830  177.1630  145.7180 C   0  0  0  0  0  3  0  0  0  0  0  0
  189.0220  178.2740  145.5120 C   0  0  0  0  0  0  0  0  0  0  0  0
  190.9450  175.8060  147.7030 C   0  0  0  0  0  2  0  0  0  0  0  0
  192.4460  175.5930  147.7470 C   0  0  0  0  0  1  0  0  0  0  0  0
  188.2340  176.9630  147.5180 C   0  0  0  0  0  2  0  0  0  0  0  0
  188.3100  177.7970  148.6330 O   0  0  0  0  0  1  0  0  0  0  0  0
  188.1410  177.8210  135.6860 O   0  0  0  0  0  0  0  0  0  0  0  0
  189.2150  177.5400  134.8410 C   0  0  0  0  0  2  0  0  0  0  0  0
  189.3250  176.1600  134.6610 O   0  0  0  0  0  0  0  0  0  0  0  0
  190.6980  175.9170  134.6770 C   0  0  0  0  0  2  0  0  0  0  0  0
  191.0340  174.9220  135.7750 C   0  0  0  0  0  2  0  0  0  0  0  0
  191.6060  174.8700  137.9790 O   0  0  0  0  0  0  0  0  0  0  0  0
  192.7440  174.5700  137.3040 C   0  0  1  0  0  3  0  0  0  0  0  0
  191.8330  175.5680  136.8020 N   0  0  0  0  0  0  0  0  0  0  0  0
  193.9240  175.2480  137.9730 C   0  0  0  0  0  2  0  0  0  0  0  0
  195.1070  174.6050  137.6060 O   0  0  0  0  0  0  0  0  0  0  0  0
  195.4550  173.8400  138.7190 C   0  0  0  0  0  2  0  0  0  0  0  0
  196.0770  175.1740  140.5720 F   0  0  0  0  0  0  0  0  0  0  0  0
  196.5840  174.5180  139.4660 C   0  0  0  0  0  2  0  0  0  0  0  0
  186.8620  174.8430  137.3940 C   0  0  0  0  0  2  0  0  0  0  0  0
  184.9190  173.3020  137.3530 C   0  0  0  0  0  1  0  0  0  0  0  0
  185.5720  174.4990  135.2940 C   0  0  0  0  0  1  0  0  0  0  0  0
  186.0870  173.8350  136.5550 C   0  0  0  0  0  3  0  0  0  0  0  0
  1 12  1  1  0  0  0
  1  2  1  0  0  0  0
  2 30  1  6  0  0  0
  3 43  1  6  0  0  0
  3  8  1  0  0  0  0
  3 10  1  0  0  0  0
  5 15  1  0  0  0  0
  6  2  1  0  0  0  0
  8  7  1  0  0  0  0
  8 56  1  0  0  0  0
 11  1  1  0  0  0  0
 11 12  1  1  0  0  0
 13  7  1  6  0  0  0
 13 16  1  0  0  0  0
 13  5  1  0  0  0  0
 14  4  1  6  0  0  0
 14 11  1  0  0  0  0
 15  9  2  0  0  0  0
 15  6  1  0  0  0  0
 16 10  1  1  0  0  0
 16 14  1  0  0  0  0
 17 23  1  0  0  0  0
 17  5  2  0  0  0  0
 18 22  2  0  0  0  0
 19 25  1  0  0  0  0
 20 19  2  0  0  0  0
 21 19  1  0  0  0  0
 22 21  1  0  0  0  0
 23 20  1  0  0  0  0
 24 22  1  0  0  0  0
 24 23  2  0  0  0  0
 25 28  1  0  0  0  0
 28 27  1  6  0  0  0
 28 26  1  0  0  0  0
 30 29  1  1  0  0  0
 30 31  1  0  0  0  0
 31 32  1  0  0  0  0
 32 38  1  0  0  0  0
 33 34  2  0  0  0  0
 33 38  1  0  0  0  0
 34 37  1  0  0  0  0
 35 36  1  0  0  0  0
 35 41  1  0  0  0  0
 36 39  1  0  0  0  0
 37 36  2  0  0  0  0
 38 35  2  0  0  0  0
 39 40  1  0  0  0  0
 41 42  1  0  0  0  0
 44 43  1  0  0  0  0
 45 46  1  0  0  0  0
 45 44  1  0  0  0  0
 46 47  1  0  0  0  0
 47 50  1  0  0  0  0
 49 51  1  1  0  0  0
 49 48  1  0  0  0  0
 50 49  1  0  0  0  0
 50 48  1  0  0  0  0
 52 51  1  0  0  0  0
 52 53  1  0  0  0  0
 53 55  1  0  0  0  0
 55 54  1  0  0  0  0
 58 59  1  0  0  0  0
 59 57  1  0  0  0  0
 59 56  1  0  0  0  0
M  END
>  <MODEL>
9

>  <REMARK>
 VINA RESULT:      -2.1      3.655     10.894
  Name = 
  21 active torsions:
  status: ('A' for Active; 'I' for Inactive)
    1  A    between atoms: C_4  and  C_9
    2  A    between atoms: O_5  and  C_25
    3  A    between atoms: O_5  and  C_41
    4  A    between atoms: C_9  and  O_17
    5  A    between atoms: O_11  and  C_15
    6  A    between atoms: O_11  and  C_26
    7  A    between atoms: C_12  and  C_48
    8  A    between atoms: O_17  and  C_24
    9  A    between atoms: C_18  and  N_38
   10  A    between atoms: C_21  and  C_47
   11  A    between atoms: C_23  and  O_29
   12  A    between atoms: C_23  and  C_56
   13  A    between atoms: C_24  and  C_52
   14  A    between atoms: C_25  and  C_39
   15  A    between atoms: C_26  and  O_29
   16  A    between atoms: N_32  and  C_48
   17  A    between atoms: C_35  and  C_36
   18  A    between atoms: N_38  and  C_58
   19  A    between atoms: C_41  and  C_42
   20  A    between atoms: C_45  and  C_57
   21  A    between atoms: N_50  and  C_56
                            x       y       z     vdW  Elec       q    Type
                         _______ _______ _______ _____ _____    ______ ____

>  <TORSDO>
F 21

$$$$
