=
 OpenBabel11032420053D

 46 48  0  0  1  0  0  0  0  0999 V2000
  184.1500  178.5090  140.5900 C   0  0  0  0  0  0  0  0  0  0  0  0
  187.8870  173.7090  135.7740 C   0  0  2  0  0  3  0  0  0  0  0  0
  183.3600  175.6080  136.0800 C   0  0  0  0  0  2  0  0  0  0  0  0
  186.0260  172.2270  135.5560 O   0  0  0  0  0  0  0  0  0  0  0  0
  185.5020  174.4780  135.9030 N   0  0  0  0  0  2  0  0  0  0  0  0
  184.8460  178.2570  141.7750 O   0  0  0  0  0  0  0  0  0  0  0  0
  183.1060  177.9360  137.4760 S   0  0  0  0  0  0  0  0  0  0  0  0
  184.0630  174.2680  135.9510 C   0  0  0  0  0  2  0  0  0  0  0  0
  187.0800  178.5480  139.9850 N   0  0  0  0  0  0  0  0  0  0  0  0
  183.1320  177.5880  140.1790 N   0  0  0  0  0  2  0  0  0  0  0  0
  184.3760  179.5540  139.9170 O   0  0  0  0  0  0  0  0  0  0  0  0
  182.2060  177.8060  139.0650 C   0  0  1  0  0  3  0  0  0  0  0  0
  190.0260  176.9650  138.8350 C   0  0  2  0  0  3  0  0  0  0  0  0
  190.6510  173.0740  135.8120 N   0  0  0  0  0  0  0  0  0  0  0  0
  186.0470  178.8790  142.1450 C   0  0  0  0  0  2  0  0  0  0  0  0
  186.4290  173.4080  135.7280 C   0  0  0  0  0  0  0  0  0  0  0  0
  188.2250  178.4900  139.2610 O   0  0  0  0  0  0  0  0  0  0  0  0
  183.5660  176.1790  137.4710 C   0  0  0  0  0  2  0  0  0  0  0  0
  188.5880  177.1420  139.2950 C   0  0  0  0  0  2  0  0  0  0  0  0
  190.0170  173.5560  137.0500 C   0  0  2  0  0  3  0  0  0  0  0  0
  190.2730  175.5580  138.5620 N   0  0  0  0  0  2  0  0  0  0  0  0
  189.9970  172.8840  134.7020 C   0  0  0  0  0  3  0  0  0  0  0  0
  188.5850  173.1160  134.6350 N   0  0  0  0  0  2  0  0  0  0  0  0
  187.0940  179.0270  141.3300 C   0  0  0  0  0  3  0  0  0  0  0  0
  188.5170  173.2310  137.0760 C   0  0  0  0  0  2  0  0  0  0  0  0
  190.2320  175.0280  137.2370 C   0  0  0  0  0  0  0  0  0  0  0  0
  190.3020  175.7990  136.2400 O   0  0  0  0  0  0  0  0  0  0  0  0
  181.2820  178.9730  139.3260 C   0  0  0  0  0  0  0  0  0  0  0  0
  180.4510  179.3580  141.7050 O   0  0  0  0  0  0  0  0  0  0  0  0
  180.8550  179.1710  140.5470 C   0  0  0  0  0  0  0  0  0  0  0  0
  180.4690  179.5530  138.2000 C   0  0  0  0  0  2  0  0  0  0  0  0
  179.9980  182.0090  138.5230 C   0  0  0  0  0  1  0  0  0  0  0  0
  180.7360  181.1900  136.3030 C   0  0  0  0  0  1  0  0  0  0  0  0
  182.1770  181.1880  138.1610 F   0  0  0  0  0  0  0  0  0  0  0  0
  180.8580  180.9840  137.8020 C   0  0  0  0  0  0  0  0  0  0  0  0
  191.2100  177.5900  140.0810 S   0  0  0  0  0  0  0  0  0  0  0  0
  190.6780  177.2760  142.7360 C   0  0  0  0  0  3  0  0  0  0  0  0
  190.3600  176.8910  141.5030 C   0  0  0  0  0  3  0  0  0  0  0  0
  189.9700  176.7050  143.9270 C   0  0  1  0  0  3  0  0  0  0  0  0
  191.7330  176.6520  145.7770 C   0  0  0  0  0  2  0  0  0  0  0  0
  190.5010  177.3500  145.2280 C   0  0  0  0  0  3  0  0  0  0  0  0
  190.3800  176.4380  146.4370 C   0  0  0  0  0  2  0  0  0  0  0  0
  188.4510  176.7630  143.7250 C   0  0  0  0  0  2  0  0  0  0  0  0
  187.7800  177.6430  144.7680 C   0  0  0  0  0  2  0  0  0  0  0  0
  186.5610  177.0920  145.1570 O   0  0  0  0  0  0  0  0  0  0  0  0
  185.8920  178.1440  145.7870 C   0  0  0  0  0  1  0  0  0  0  0  0
  1  6  1  0  0  0  0
  2 25  1  1  0  0  0
  3 18  1  0  0  0  0
  4 16  2  0  0  0  0
  5  8  1  0  0  0  0
  6 15  1  0  0  0  0
  7 12  1  0  0  0  0
  8  3  1  0  0  0  0
  9 24  2  0  0  0  0
 10  1  1  0  0  0  0
 11  1  2  0  0  0  0
 12 28  1  1  0  0  0
 12 10  1  0  0  0  0
 13 19  1  0  0  0  0
 13 36  1  1  0  0  0
 14 20  1  0  0  0  0
 16  2  1  0  0  0  0
 16  5  1  0  0  0  0
 17 19  1  0  0  0  0
 17  9  1  0  0  0  0
 18  7  1  0  0  0  0
 20 25  1  6  0  0  0
 20 26  1  0  0  0  0
 21 13  1  0  0  0  0
 22 14  2  0  0  0  0
 23 22  1  0  0  0  0
 23  2  1  0  0  0  0
 24 15  1  0  0  0  0
 26 21  1  0  0  0  0
 27 26  2  0  0  0  0
 28 30  2  0  0  0  0
 30 29  2  0  0  0  0
 31 28  1  0  0  0  0
 33 35  1  0  0  0  0
 35 34  1  0  0  0  0
 35 31  1  0  0  0  0
 35 32  1  0  0  0  0
 36 38  1  0  0  0  0
 38 37  2  0  0  0  0
 39 37  1  6  0  0  0
 39 41  1  0  0  0  0
 40 42  1  0  0  0  0
 41 40  1  0  0  0  0
 41 42  1  0  0  0  0
 43 39  1  0  0  0  0
 43 44  1  0  0  0  0
 44 45  1  0  0  0  0
 45 46  1  0  0  0  0
M  END
>  <MODEL>
1

>  <REMARK>
 VINA RESULT:      -7.8      0.000      0.000
  Name = 
  10 active torsions:
  status: ('A' for Active; 'I' for Inactive)
    1  A    between atoms: C_4  and  C_32
    2  A    between atoms: O_11  and  C_26
    3  A    between atoms: C_13  and  C_32
    4  A    between atoms: C_14  and  S_16
    5  A    between atoms: S_16  and  C_23
    6  A    between atoms: C_19  and  C_20
    7  A    between atoms: C_19  and  C_25
    8  A    between atoms: C_25  and  C_38
    9  A    between atoms: C_26  and  C_36
   10  A    between atoms: C_32  and  C_36
                            x       y       z     vdW  Elec       q    Type
                         _______ _______ _______ _____ _____    ______ ____

>  <TORSDO>
F 10

$$$$
=
 OpenBabel11032420053D

 46 48  0  0  1  0  0  0  0  0999 V2000
  183.9890  178.6430  140.6660 C   0  0  0  0  0  0  0  0  0  0  0  0
  186.8830  173.2970  135.8450 C   0  0  2  0  0  3  0  0  0  0  0  0
  182.5140  175.4420  136.5480 C   0  0  0  0  0  2  0  0  0  0  0  0
  184.9510  171.8990  135.9850 O   0  0  0  0  0  0  0  0  0  0  0  0
  184.5670  174.1940  136.2040 N   0  0  0  0  0  2  0  0  0  0  0  0
  184.8200  178.4490  141.7730 O   0  0  0  0  0  0  0  0  0  0  0  0
  182.5350  177.8820  137.7640 S   0  0  0  0  0  0  0  0  0  0  0  0
  183.1390  174.0620  136.4470 C   0  0  0  0  0  2  0  0  0  0  0  0
  186.8170  178.4850  139.7020 N   0  0  0  0  0  0  0  0  0  0  0  0
  182.8910  177.7460  140.4620 N   0  0  0  0  0  2  0  0  0  0  0  0
  184.1700  179.6190  139.8850 O   0  0  0  0  0  0  0  0  0  0  0  0
  181.8400  177.9230  139.4570 C   0  0  1  0  0  3  0  0  0  0  0  0
  189.5260  176.6690  138.3340 C   0  0  2  0  0  3  0  0  0  0  0  0
  189.6010  172.5270  135.5950 N   0  0  0  0  0  0  0  0  0  0  0  0
  186.0820  179.0370  141.9380 C   0  0  0  0  0  2  0  0  0  0  0  0
  185.4210  173.0680  136.0060 C   0  0  0  0  0  0  0  0  0  0  0  0
  187.8570  178.3120  138.8500 O   0  0  0  0  0  0  0  0  0  0  0  0
  182.9190  176.1090  137.8500 C   0  0  0  0  0  2  0  0  0  0  0  0
  188.1670  176.9540  138.9520 C   0  0  0  0  0  2  0  0  0  0  0  0
  189.1510  173.1350  136.8560 C   0  0  2  0  0  3  0  0  0  0  0  0
  189.6790  175.2340  138.1520 N   0  0  0  0  0  2  0  0  0  0  0  0
  188.8050  172.2840  134.5940 C   0  0  0  0  0  3  0  0  0  0  0  0
  187.4060  172.5820  134.6830 N   0  0  0  0  0  2  0  0  0  0  0  0
  187.0220  179.0670  140.9900 C   0  0  0  0  0  3  0  0  0  0  0  0
  187.6540  172.8910  137.0960 C   0  0  0  0  0  2  0  0  0  0  0  0
  189.4470  174.6040  136.8920 C   0  0  0  0  0  0  0  0  0  0  0  0
  189.4220  175.2910  135.8320 O   0  0  0  0  0  0  0  0  0  0  0  0
  181.0050  179.1520  139.7320 C   0  0  0  0  0  0  0  0  0  0  0  0
  180.7040  180.8610  137.8640 O   0  0  0  0  0  0  0  0  0  0  0  0
  180.8510  180.0300  138.7730 C   0  0  0  0  0  0  0  0  0  0  0  0
  180.8060  179.6230  141.1470 C   0  0  0  0  0  2  0  0  0  0  0  0
  178.9310  177.9410  141.0610 C   0  0  0  0  0  1  0  0  0  0  0  0
  178.9310  179.6760  142.8300 C   0  0  0  0  0  1  0  0  0  0  0  0
  180.5270  177.9490  142.7940 F   0  0  0  0  0  0  0  0  0  0  0  0
  179.8080  178.7900  141.9650 C   0  0  0  0  0  0  0  0  0  0  0  0
  190.8830  177.3280  139.3670 S   0  0  0  0  0  0  0  0  0  0  0  0
  190.7930  177.1100  142.0830 C   0  0  0  0  0  3  0  0  0  0  0  0
  190.1670  176.8360  140.9400 C   0  0  0  0  0  3  0  0  0  0  0  0
  190.1990  176.7110  143.4000 C   0  0  1  0  0  3  0  0  0  0  0  0
  190.5680  179.0280  144.4150 C   0  0  0  0  0  2  0  0  0  0  0  0
  190.8290  177.5370  144.5450 C   0  0  0  0  0  3  0  0  0  0  0  0
  191.9360  178.4630  144.0710 C   0  0  0  0  0  2  0  0  0  0  0  0
  188.6680  176.7320  143.3260 C   0  0  0  0  0  2  0  0  0  0  0  0
  188.0530  177.3060  144.5930 C   0  0  0  0  0  2  0  0  0  0  0  0
  186.7190  176.9180  144.7050 O   0  0  0  0  0  0  0  0  0  0  0  0
  186.2900  177.5000  145.8990 C   0  0  0  0  0  1  0  0  0  0  0  0
  1  6  1  0  0  0  0
  2 16  1  0  0  0  0
  2 25  1  1  0  0  0
  3 18  1  0  0  0  0
  4 16  2  0  0  0  0
  5  8  1  0  0  0  0
  6 15  1  0  0  0  0
  7 18  1  0  0  0  0
  7 12  1  0  0  0  0
  8  3  1  0  0  0  0
  9 24  2  0  0  0  0
 10  1  1  0  0  0  0
 11  1  2  0  0  0  0
 12 28  1  1  0  0  0
 12 10  1  0  0  0  0
 13 19  1  0  0  0  0
 13 36  1  1  0  0  0
 14 20  1  0  0  0  0
 16  5  1  0  0  0  0
 17 19  1  0  0  0  0
 17  9  1  0  0  0  0
 20 26  1  0  0  0  0
 20 25  1  6  0  0  0
 21 13  1  0  0  0  0
 22 23  1  0  0  0  0
 22 14  2  0  0  0  0
 23  2  1  0  0  0  0
 24 15  1  0  0  0  0
 26 21  1  0  0  0  0
 27 26  2  0  0  0  0
 28 31  1  0  0  0  0
 29 30  2  0  0  0  0
 30 28  2  0  0  0  0
 31 35  1  0  0  0  0
 32 35  1  0  0  0  0
 35 34  1  0  0  0  0
 35 33  1  0  0  0  0
 36 38  1  0  0  0  0
 38 37  2  0  0  0  0
 39 37  1  6  0  0  0
 39 41  1  0  0  0  0
 40 41  1  0  0  0  0
 42 40  1  0  0  0  0
 42 41  1  0  0  0  0
 43 39  1  0  0  0  0
 43 44  1  0  0  0  0
 44 45  1  0  0  0  0
 45 46  1  0  0  0  0
M  END
>  <MODEL>
2

>  <REMARK>
 VINA RESULT:      -7.0      1.483      2.109
  Name = 
  10 active torsions:
  status: ('A' for Active; 'I' for Inactive)
    1  A    between atoms: C_4  and  C_32
    2  A    between atoms: O_11  and  C_26
    3  A    between atoms: C_13  and  C_32
    4  A    between atoms: C_14  and  S_16
    5  A    between atoms: S_16  and  C_23
    6  A    between atoms: C_19  and  C_20
    7  A    between atoms: C_19  and  C_25
    8  A    between atoms: C_25  and  C_38
    9  A    between atoms: C_26  and  C_36
   10  A    between atoms: C_32  and  C_36
                            x       y       z     vdW  Elec       q    Type
                         _______ _______ _______ _____ _____    ______ ____

>  <TORSDO>
F 10

$$$$
=
 OpenBabel11032420053D

 46 48  0  0  1  0  0  0  0  0999 V2000
  184.2790  178.6890  140.5240 C   0  0  0  0  0  0  0  0  0  0  0  0
  187.5620  173.4920  135.7900 C   0  0  2  0  0  3  0  0  0  0  0  0
  183.1170  175.5420  136.2680 C   0  0  0  0  0  2  0  0  0  0  0  0
  185.6520  172.0560  135.7880 O   0  0  0  0  0  0  0  0  0  0  0  0
  185.2110  174.3380  136.0250 N   0  0  0  0  0  2  0  0  0  0  0  0
  185.0460  178.4900  141.6760 O   0  0  0  0  0  0  0  0  0  0  0  0
  183.0170  177.9580  137.5270 S   0  0  0  0  0  0  0  0  0  0  0  0
  183.7740  174.1760  136.1790 C   0  0  0  0  0  2  0  0  0  0  0  0
  187.1630  178.6030  139.7290 N   0  0  0  0  0  0  0  0  0  0  0  0
  183.2130  177.7760  140.2390 N   0  0  0  0  0  2  0  0  0  0  0  0
  184.4880  179.6840  139.7730 O   0  0  0  0  0  0  0  0  0  0  0  0
  182.2210  177.9530  139.1760 C   0  0  1  0  0  3  0  0  0  0  0  0
  189.9840  176.8640  138.4940 C   0  0  2  0  0  3  0  0  0  0  0  0
  190.3050  172.7770  135.6900 N   0  0  0  0  0  0  0  0  0  0  0  0
  186.2850  179.0980  141.9270 C   0  0  0  0  0  2  0  0  0  0  0  0
  186.0970  173.2330  135.8590 C   0  0  0  0  0  0  0  0  0  0  0  0
  188.2550  178.4660  138.9380 O   0  0  0  0  0  0  0  0  0  0  0  0
  183.4300  176.1910  137.6030 C   0  0  0  0  0  2  0  0  0  0  0  0
  188.5850  177.1120  139.0340 C   0  0  0  0  0  2  0  0  0  0  0  0
  189.7680  173.3530  136.9330 C   0  0  2  0  0  3  0  0  0  0  0  0
  190.1760  175.4360  138.2950 N   0  0  0  0  0  2  0  0  0  0  0  0
  189.5740  172.5390  134.6390 C   0  0  0  0  0  3  0  0  0  0  0  0
  188.1670  172.8090  134.6490 N   0  0  0  0  0  2  0  0  0  0  0  0
  187.2790  179.1640  141.0380 C   0  0  0  0  0  3  0  0  0  0  0  0
  188.2650  173.0760  137.0770 C   0  0  0  0  0  2  0  0  0  0  0  0
  190.0320  174.8260  137.0130 C   0  0  0  0  0  0  0  0  0  0  0  0
  190.0570  175.5320  135.9660 O   0  0  0  0  0  0  0  0  0  0  0  0
  181.3480  179.1610  139.4220 C   0  0  0  0  0  0  0  0  0  0  0  0
  180.5380  179.6150  141.7960 O   0  0  0  0  0  0  0  0  0  0  0  0
  180.9310  179.3940  140.6400 C   0  0  0  0  0  0  0  0  0  0  0  0
  180.5570  179.7590  138.2880 C   0  0  0  0  0  2  0  0  0  0  0  0
  180.0180  182.1770  138.7540 C   0  0  0  0  0  1  0  0  0  0  0  0
  180.7620  181.5080  136.4860 C   0  0  0  0  0  1  0  0  0  0  0  0
  182.2160  181.4430  138.3330 F   0  0  0  0  0  0  0  0  0  0  0  0
  180.9010  181.2210  137.9700 C   0  0  0  0  0  0  0  0  0  0  0  0
  191.2640  177.5290  139.6190 S   0  0  0  0  0  0  0  0  0  0  0  0
  190.7840  177.7450  142.2940 C   0  0  0  0  0  3  0  0  0  0  0  0
  190.2910  177.3540  141.1210 C   0  0  0  0  0  3  0  0  0  0  0  0
  189.9780  177.6110  143.5500 C   0  0  1  0  0  3  0  0  0  0  0  0
  187.6880  176.9050  144.4400 C   0  0  0  0  0  2  0  0  0  0  0  0
  188.5140  177.2460  143.2110 C   0  0  0  0  0  3  0  0  0  0  0  0
  188.1750  175.7980  143.5190 C   0  0  0  0  0  2  0  0  0  0  0  0
  190.6850  176.6820  144.5440 C   0  0  0  0  0  2  0  0  0  0  0  0
  191.6900  177.4370  145.4000 C   0  0  0  0  0  2  0  0  0  0  0  0
  191.8600  176.7970  146.6260 O   0  0  0  0  0  0  0  0  0  0  0  0
  192.0910  175.4620  146.2890 C   0  0  0  0  0  1  0  0  0  0  0  0
  1  6  1  0  0  0  0
  2 16  1  0  0  0  0
  2 25  1  1  0  0  0
  3 18  1  0  0  0  0
  4 16  2  0  0  0  0
  5  8  1  0  0  0  0
  6 15  1  0  0  0  0
  7 18  1  0  0  0  0
  7 12  1  0  0  0  0
  8  3  1  0  0  0  0
  9 24  2  0  0  0  0
 10  1  1  0  0  0  0
 11  1  2  0  0  0  0
 12 28  1  1  0  0  0
 12 10  1  0  0  0  0
 13 19  1  0  0  0  0
 13 36  1  1  0  0  0
 14 20  1  0  0  0  0
 16  5  1  0  0  0  0
 17 19  1  0  0  0  0
 17  9  1  0  0  0  0
 20 26  1  0  0  0  0
 20 25  1  6  0  0  0
 21 13  1  0  0  0  0
 22 23  1  0  0  0  0
 22 14  2  0  0  0  0
 23  2  1  0  0  0  0
 24 15  1  0  0  0  0
 26 21  1  0  0  0  0
 27 26  2  0  0  0  0
 28 30  2  0  0  0  0
 30 29  2  0  0  0  0
 31 28  1  0  0  0  0
 33 35  1  0  0  0  0
 35 31  1  0  0  0  0
 35 34  1  0  0  0  0
 35 32  1  0  0  0  0
 36 38  1  0  0  0  0
 38 37  2  0  0  0  0
 39 37  1  6  0  0  0
 39 43  1  0  0  0  0
 41 42  1  0  0  0  0
 41 39  1  0  0  0  0
 41 40  1  0  0  0  0
 42 40  1  0  0  0  0
 43 44  1  0  0  0  0
 44 45  1  0  0  0  0
 46 45  1  0  0  0  0
M  END
>  <MODEL>
3

>  <REMARK>
 VINA RESULT:      -6.9      0.955      1.767
  Name = 
  10 active torsions:
  status: ('A' for Active; 'I' for Inactive)
    1  A    between atoms: C_4  and  C_32
    2  A    between atoms: O_11  and  C_26
    3  A    between atoms: C_13  and  C_32
    4  A    between atoms: C_14  and  S_16
    5  A    between atoms: S_16  and  C_23
    6  A    between atoms: C_19  and  C_20
    7  A    between atoms: C_19  and  C_25
    8  A    between atoms: C_25  and  C_38
    9  A    between atoms: C_26  and  C_36
   10  A    between atoms: C_32  and  C_36
                            x       y       z     vdW  Elec       q    Type
                         _______ _______ _______ _____ _____    ______ ____

>  <TORSDO>
F 10

$$$$
=
 OpenBabel11032420053D

 46 48  0  0  1  0  0  0  0  0999 V2000
  188.8560  176.3750  137.6940 C   0  0  0  0  0  0  0  0  0  0  0  0
  187.2200  178.1380  145.0700 C   0  0  2  0  0  3  0  0  0  0  0  0
  191.2770  177.1190  142.4840 C   0  0  0  0  0  2  0  0  0  0  0  0
  188.7470  176.5290  145.9570 O   0  0  0  0  0  0  0  0  0  0  0  0
  189.3420  177.4770  143.9050 N   0  0  0  0  0  2  0  0  0  0  0  0
  187.6560  175.7630  137.3160 O   0  0  0  0  0  0  0  0  0  0  0  0
  191.1540  177.5600  139.7970 S   0  0  0  0  0  0  0  0  0  0  0  0
  190.5460  176.6780  143.7400 C   0  0  0  0  0  2  0  0  0  0  0  0
  186.5890  178.0870  138.6360 N   0  0  0  0  0  2  0  0  0  0  0  0
  189.8130  175.6140  138.4390 N   0  0  0  0  0  2  0  0  0  0  0  0
  189.1150  177.5600  137.3410 O   0  0  0  0  0  0  0  0  0  0  0  0
  191.1740  176.0570  138.7520 C   0  0  1  0  0  3  0  0  0  0  0  0
  184.3500  179.1460  141.1590 C   0  0  2  0  0  3  0  0  0  0  0  0
  184.7060  178.9420  146.1090 N   0  0  0  0  0  0  0  0  0  0  0  0
  186.5190  176.4450  136.8630 C   0  0  0  0  0  3  0  0  0  0  0  0
  188.4720  177.3340  145.0270 C   0  0  0  0  0  0  0  0  0  0  0  0
  185.9240  179.0240  139.3550 O   0  0  0  0  0  0  0  0  0  0  0  0
  190.5200  176.6720  141.2480 C   0  0  0  0  0  2  0  0  0  0  0  0
  185.4110  178.3220  140.4480 C   0  0  0  0  0  2  0  0  0  0  0  0
  184.7410  178.1640  144.8600 C   0  0  2  0  0  3  0  0  0  0  0  0
  184.0740  178.5530  142.4590 N   0  0  0  0  0  2  0  0  0  0  0  0
  185.7730  179.2480  146.7900 C   0  0  0  0  0  3  0  0  0  0  0  0
  187.0670  178.8100  146.3580 N   0  0  0  0  0  2  0  0  0  0  0  0
  186.0090  177.5270  137.4580 C   0  0  0  0  0  3  0  0  0  0  0  0
  185.9930  177.2800  144.7830 C   0  0  0  0  0  2  0  0  0  0  0  0
  184.6630  179.0570  143.6580 C   0  0  0  0  0  0  0  0  0  0  0  0
  185.1730  180.2110  143.6800 O   0  0  0  0  0  0  0  0  0  0  0  0
  192.0130  176.2070  137.5040 C   0  0  0  0  0  0  0  0  0  0  0  0
  191.0270  175.4560  135.2770 O   0  0  0  0  0  0  0  0  0  0  0  0
  191.5080  175.8210  136.3600 C   0  0  0  0  0  0  0  0  0  0  0  0
  193.5120  176.2850  137.6130 C   0  0  0  0  0  2  0  0  0  0  0  0
  195.1630  174.7740  138.7740 C   0  0  0  0  0  1  0  0  0  0  0  0
  195.0120  174.7430  136.3000 C   0  0  0  0  0  1  0  0  0  0  0  0
  193.2680  173.9340  137.6530 F   0  0  0  0  0  0  0  0  0  0  0  0
  194.2270  174.9270  137.5860 C   0  0  0  0  0  0  0  0  0  0  0  0
  182.8150  179.2580  140.1720 S   0  0  0  0  0  0  0  0  0  0  0  0
  181.6580  176.9660  139.2550 C   0  0  0  0  0  3  0  0  0  0  0  0
  182.4780  177.4920  140.1610 C   0  0  0  0  0  3  0  0  0  0  0  0
  181.3780  175.4940  139.2330 C   0  0  1  0  0  3  0  0  0  0  0  0
  179.6560  174.1440  140.5540 C   0  0  0  0  0  2  0  0  0  0  0  0
  179.8810  175.2280  139.5140 C   0  0  0  0  0  3  0  0  0  0  0  0
  179.4310  173.8430  139.0820 C   0  0  0  0  0  2  0  0  0  0  0  0
  181.9390  174.8600  137.9540 C   0  0  0  0  0  2  0  0  0  0  0  0
  183.4570  174.7700  137.9940 C   0  0  0  0  0  2  0  0  0  0  0  0
  183.9170  173.8910  137.0150 O   0  0  0  0  0  0  0  0  0  0  0  0
  184.8520  173.0950  137.6800 C   0  0  0  0  0  1  0  0  0  0  0  0
  1 10  1  0  0  0  0
  2 25  1  1  0  0  0
  2 23  1  0  0  0  0
  3  8  1  0  0  0  0
  5 16  1  0  0  0  0
  6  1  1  0  0  0  0
  7 18  1  0  0  0  0
  8  5  1  0  0  0  0
  9 17  1  0  0  0  0
 10 12  1  0  0  0  0
 11  1  2  0  0  0  0
 12 28  1  6  0  0  0
 12  7  1  0  0  0  0
 13 36  1  6  0  0  0
 13 21  1  0  0  0  0
 14 22  2  0  0  0  0
 15  6  1  0  0  0  0
 15 24  2  0  0  0  0
 16  2  1  0  0  0  0
 16  4  2  0  0  0  0
 17 19  1  0  0  0  0
 18  3  1  0  0  0  0
 19 13  1  0  0  0  0
 20 25  1  6  0  0  0
 20 14  1  0  0  0  0
 21 26  1  0  0  0  0
 23 22  1  0  0  0  0
 24  9  1  0  0  0  0
 26 27  2  0  0  0  0
 26 20  1  0  0  0  0
 28 31  1  0  0  0  0
 29 30  2  0  0  0  0
 30 28  2  0  0  0  0
 33 35  1  0  0  0  0
 35 31  1  0  0  0  0
 35 34  1  0  0  0  0
 35 32  1  0  0  0  0
 37 38  2  0  0  0  0
 38 36  1  0  0  0  0
 39 43  1  6  0  0  0
 39 37  1  0  0  0  0
 39 41  1  0  0  0  0
 41 40  1  0  0  0  0
 42 41  1  0  0  0  0
 42 40  1  0  0  0  0
 43 44  1  0  0  0  0
 45 46  1  0  0  0  0
 45 44  1  0  0  0  0
M  END
>  <MODEL>
4

>  <REMARK>
 VINA RESULT:      -6.9      3.424     10.252
  Name = 
  10 active torsions:
  status: ('A' for Active; 'I' for Inactive)
    1  A    between atoms: C_4  and  C_32
    2  A    between atoms: O_11  and  C_26
    3  A    between atoms: C_13  and  C_32
    4  A    between atoms: C_14  and  S_16
    5  A    between atoms: S_16  and  C_23
    6  A    between atoms: C_19  and  C_20
    7  A    between atoms: C_19  and  C_25
    8  A    between atoms: C_25  and  C_38
    9  A    between atoms: C_26  and  C_36
   10  A    between atoms: C_32  and  C_36
                            x       y       z     vdW  Elec       q    Type
                         _______ _______ _______ _____ _____    ______ ____

>  <TORSDO>
F 10

$$$$
=
 OpenBabel11032420053D

 46 48  0  0  1  0  0  0  0  0999 V2000
  186.3720  178.4940  144.9710 C   0  0  0  0  0  0  0  0  0  0  0  0
  187.9380  177.2150  137.4800 C   0  0  2  0  0  3  0  0  0  0  0  0
  190.2010  176.3840  141.7670 C   0  0  0  0  0  2  0  0  0  0  0  0
  190.2300  177.8580  137.6890 O   0  0  0  0  0  0  0  0  0  0  0  0
  189.2690  176.8810  139.5810 N   0  0  0  0  0  2  0  0  0  0  0  0
  185.5510  179.6190  144.8600 O   0  0  0  0  0  0  0  0  0  0  0  0
  188.6110  176.2330  143.9770 S   0  0  0  0  0  0  0  0  0  0  0  0
  190.4500  177.0320  140.4170 C   0  0  0  0  0  2  0  0  0  0  0  0
  184.3640  177.9830  142.8120 N   0  0  0  0  0  0  0  0  0  0  0  0
  187.7920  178.6650  144.8920 N   0  0  0  0  0  2  0  0  0  0  0  0
  185.8770  177.3510  145.1870 O   0  0  0  0  0  0  0  0  0  0  0  0
  188.7790  177.6170  145.1630 C   0  0  1  0  0  3  0  0  0  0  0  0
  183.4280  177.9310  139.4020 C   0  0  2  0  0  3  0  0  0  0  0  0
  186.1880  177.6140  135.2850 N   0  0  0  0  0  0  0  0  0  0  0  0
  184.1710  179.5810  144.6160 C   0  0  0  0  0  2  0  0  0  0  0  0
  189.2180  177.3400  138.2320 C   0  0  0  0  0  0  0  0  0  0  0  0
  183.7980  177.4210  141.7160 O   0  0  0  0  0  0  0  0  0  0  0  0
  189.2250  177.2160  142.5790 C   0  0  0  0  0  2  0  0  0  0  0  0
  184.2470  178.2070  140.6530 C   0  0  0  0  0  2  0  0  0  0  0  0
  185.9490  178.3660  136.5270 C   0  0  2  0  0  3  0  0  0  0  0  0
  184.1100  178.4960  138.2470 N   0  0  0  0  0  2  0  0  0  0  0  0
  187.1900  176.7990  135.1240 C   0  0  0  0  0  3  0  0  0  0  0  0
  188.1520  176.6080  136.1690 N   0  0  0  0  0  2  0  0  0  0  0  0
  183.5990  178.8280  143.6730 C   0  0  0  0  0  3  0  0  0  0  0  0
  187.2470  178.5640  137.3220 C   0  0  0  0  0  2  0  0  0  0  0  0
  184.9160  177.6960  137.3820 C   0  0  0  0  0  0  0  0  0  0  0  0
  184.8060  176.4390  137.3920 O   0  0  0  0  0  0  0  0  0  0  0  0
  188.7420  177.1750  146.6070 C   0  0  0  0  0  0  0  0  0  0  0  0
  187.7160  178.7430  148.3350 O   0  0  0  0  0  0  0  0  0  0  0  0
  188.2160  177.9800  147.4940 C   0  0  0  0  0  0  0  0  0  0  0  0
  189.7140  176.1360  147.0980 C   0  0  0  0  0  2  0  0  0  0  0  0
  191.6930  176.9770  145.7820 C   0  0  0  0  0  1  0  0  0  0  0  0
  192.0700  175.5360  147.7630 C   0  0  0  0  0  1  0  0  0  0  0  0
  191.2330  177.7240  147.9690 F   0  0  0  0  0  0  0  0  0  0  0  0
  191.1750  176.6040  147.1610 C   0  0  0  0  0  0  0  0  0  0  0  0
  181.7390  178.6170  139.5430 S   0  0  0  0  0  0  0  0  0  0  0  0
  180.7800  180.1440  137.4980 C   0  0  0  0  0  3  0  0  0  0  0  0
  181.8730  179.7160  138.1260 C   0  0  0  0  0  3  0  0  0  0  0  0
  180.8810  181.0660  136.3210 C   0  0  1  0  0  3  0  0  0  0  0  0
  179.5310  179.1050  135.3920 C   0  0  0  0  0  2  0  0  0  0  0  0
  180.1630  180.4540  135.0960 C   0  0  0  0  0  3  0  0  0  0  0  0
  180.8220  179.1810  134.5940 C   0  0  0  0  0  2  0  0  0  0  0  0
  180.4450  182.4830  136.7110 C   0  0  0  0  0  2  0  0  0  0  0  0
  180.7640  183.4890  135.6160 C   0  0  0  0  0  2  0  0  0  0  0  0
  181.5280  184.5370  136.1260 O   0  0  0  0  0  0  0  0  0  0  0  0
  180.9990  184.7610  137.3990 C   0  0  0  0  0  1  0  0  0  0  0  0
  1 11  2  0  0  0  0
  2 25  1  6  0  0  0
  2 16  1  0  0  0  0
  3 18  1  0  0  0  0
  4 16  2  0  0  0  0
  5  8  1  0  0  0  0
  6  1  1  0  0  0  0
  7 12  1  0  0  0  0
  8  3  1  0  0  0  0
  9 24  2  0  0  0  0
 10  1  1  0  0  0  0
 10 12  1  0  0  0  0
 12 28  1  1  0  0  0
 13 36  1  1  0  0  0
 13 19  1  0  0  0  0
 14 20  1  0  0  0  0
 15  6  1  0  0  0  0
 16  5  1  0  0  0  0
 17  9  1  0  0  0  0
 18  7  1  0  0  0  0
 19 17  1  0  0  0  0
 20 25  1  1  0  0  0
 20 26  1  0  0  0  0
 21 13  1  0  0  0  0
 22 14  2  0  0  0  0
 22 23  1  0  0  0  0
 23  2  1  0  0  0  0
 24 15  1  0  0  0  0
 26 27  2  0  0  0  0
 26 21  1  0  0  0  0
 28 31  1  0  0  0  0
 28 30  2  0  0  0  0
 30 29  2  0  0  0  0
 31 35  1  0  0  0  0
 32 35  1  0  0  0  0
 35 33  1  0  0  0  0
 35 34  1  0  0  0  0
 37 38  2  0  0  0  0
 38 36  1  0  0  0  0
 39 43  1  1  0  0  0
 39 37  1  0  0  0  0
 41 40  1  0  0  0  0
 41 39  1  0  0  0  0
 42 41  1  0  0  0  0
 42 40  1  0  0  0  0
 44 45  1  0  0  0  0
 44 43  1  0  0  0  0
 45 46  1  0  0  0  0
M  END
>  <MODEL>
5

>  <REMARK>
 VINA RESULT:      -6.6      3.308      9.579
  Name = 
  10 active torsions:
  status: ('A' for Active; 'I' for Inactive)
    1  A    between atoms: C_4  and  C_32
    2  A    between atoms: O_11  and  C_26
    3  A    between atoms: C_13  and  C_32
    4  A    between atoms: C_14  and  S_16
    5  A    between atoms: S_16  and  C_23
    6  A    between atoms: C_19  and  C_20
    7  A    between atoms: C_19  and  C_25
    8  A    between atoms: C_25  and  C_38
    9  A    between atoms: C_26  and  C_36
   10  A    between atoms: C_32  and  C_36
                            x       y       z     vdW  Elec       q    Type
                         _______ _______ _______ _____ _____    ______ ____

>  <TORSDO>
F 10

$$$$
=
 OpenBabel11032420053D

 46 48  0  0  1  0  0  0  0  0999 V2000
  188.5440  176.9190  144.0230 C   0  0  0  0  0  0  0  0  0  0  0  0
  181.8210  179.3180  140.9810 C   0  0  2  0  0  3  0  0  0  0  0  0
  183.7610  179.0030  145.4890 C   0  0  0  0  0  2  0  0  0  0  0  0
  180.5050  178.3200  142.7070 O   0  0  0  0  0  0  0  0  0  0  0  0
  182.6280  179.0600  143.3430 N   0  0  0  0  0  2  0  0  0  0  0  0
  188.9160  175.9650  143.0710 O   0  0  0  0  0  0  0  0  0  0  0  0
  186.4820  178.9730  145.6470 S   0  0  0  0  0  0  0  0  0  0  0  0
  182.5230  178.5860  144.7140 C   0  0  0  0  0  2  0  0  0  0  0  0
  188.1640  178.1070  141.3020 N   0  0  0  0  0  0  0  0  0  0  0  0
  187.5790  176.5590  145.0180 N   0  0  0  0  0  2  0  0  0  0  0  0
  189.0830  178.0610  144.0380 O   0  0  0  0  0  0  0  0  0  0  0  0
  187.2220  177.3840  146.1750 C   0  0  1  0  0  3  0  0  0  0  0  0
  186.1140  178.9230  138.5390 C   0  0  2  0  0  3  0  0  0  0  0  0
  181.2030  179.5900  138.2270 N   0  0  0  0  0  0  0  0  0  0  0  0
  189.5980  176.2480  141.8790 C   0  0  0  0  0  2  0  0  0  0  0  0
  181.5910  178.8710  142.3830 C   0  0  0  0  0  0  0  0  0  0  0  0
  187.7010  178.9370  140.3370 O   0  0  0  0  0  0  0  0  0  0  0  0
  184.9610  178.1870  145.0450 C   0  0  0  0  0  2  0  0  0  0  0  0
  186.5530  178.3050  139.8560 C   0  0  0  0  0  2  0  0  0  0  0  0
  182.2750  178.6650  138.6230 C   0  0  2  0  0  3  0  0  0  0  0  0
  184.7610  178.4890  138.2310 N   0  0  0  0  0  2  0  0  0  0  0  0
  180.4890  180.2660  139.0810 C   0  0  0  0  0  3  0  0  0  0  0  0
  180.7030  180.1180  140.4900 N   0  0  0  0  0  2  0  0  0  0  0  0
  189.2680  177.2380  141.0460 C   0  0  0  0  0  3  0  0  0  0  0  0
  182.0630  178.1360  140.0490 C   0  0  0  0  0  2  0  0  0  0  0  0
  183.6240  179.3080  138.5050 C   0  0  0  0  0  0  0  0  0  0  0  0
  183.7670  180.5450  138.7160 O   0  0  0  0  0  0  0  0  0  0  0  0
  188.3880  177.5520  147.1220 C   0  0  0  0  0  0  0  0  0  0  0  0
  187.9140  178.2830  149.5170 O   0  0  0  0  0  0  0  0  0  0  0  0
  188.1450  177.9280  148.3520 C   0  0  0  0  0  0  0  0  0  0  0  0
  189.7680  177.8020  146.5760 C   0  0  0  0  0  2  0  0  0  0  0  0
  191.6800  177.1810  148.0990 C   0  0  0  0  0  1  0  0  0  0  0  0
  191.6820  176.3850  145.7510 C   0  0  0  0  0  1  0  0  0  0  0  0
  190.1260  175.5880  147.3250 F   0  0  0  0  0  0  0  0  0  0  0  0
  190.8040  176.7300  146.9420 C   0  0  0  0  0  0  0  0  0  0  0  0
  187.2510  178.4770  137.1780 S   0  0  0  0  0  0  0  0  0  0  0  0
  187.2570  175.8370  136.4980 C   0  0  0  0  0  3  0  0  0  0  0  0
  187.2360  176.7090  137.5030 C   0  0  0  0  0  3  0  0  0  0  0  0
  187.2530  174.3610  136.7600 C   0  0  1  0  0  3  0  0  0  0  0  0
  185.2850  172.9780  137.6250 C   0  0  0  0  0  2  0  0  0  0  0  0
  185.8570  173.7670  136.4600 C   0  0  0  0  0  3  0  0  0  0  0  0
  185.8530  172.2480  136.4190 C   0  0  0  0  0  2  0  0  0  0  0  0
  188.4320  173.6870  136.0490 C   0  0  0  0  0  2  0  0  0  0  0  0
  189.7360  174.4290  136.2990 C   0  0  0  0  0  2  0  0  0  0  0  0
  190.1960  174.1800  137.5900 O   0  0  0  0  0  0  0  0  0  0  0  0
  190.6990  175.4100  138.0200 C   0  0  0  0  0  1  0  0  0  0  0  0
  1 11  2  0  0  0  0
  1 10  1  0  0  0  0
  2 25  1  6  0  0  0
  2 16  1  0  0  0  0
  5  8  1  0  0  0  0
  6  1  1  0  0  0  0
  7 12  1  0  0  0  0
  8  3  1  0  0  0  0
 10 12  1  0  0  0  0
 12 28  1  6  0  0  0
 13 36  1  6  0  0  0
 13 19  1  0  0  0  0
 14 20  1  0  0  0  0
 14 22  2  0  0  0  0
 15  6  1  0  0  0  0
 16  4  2  0  0  0  0
 16  5  1  0  0  0  0
 17  9  1  0  0  0  0
 18  3  1  0  0  0  0
 18  7  1  0  0  0  0
 19 17  1  0  0  0  0
 20 25  1  1  0  0  0
 21 26  1  0  0  0  0
 21 13  1  0  0  0  0
 22 23  1  0  0  0  0
 23  2  1  0  0  0  0
 24  9  2  0  0  0  0
 24 15  1  0  0  0  0
 26 20  1  0  0  0  0
 26 27  2  0  0  0  0
 28 30  2  0  0  0  0
 30 29  2  0  0  0  0
 31 35  1  0  0  0  0
 31 28  1  0  0  0  0
 33 35  1  0  0  0  0
 35 34  1  0  0  0  0
 35 32  1  0  0  0  0
 36 38  1  0  0  0  0
 37 39  1  0  0  0  0
 37 38  2  0  0  0  0
 39 43  1  6  0  0  0
 41 39  1  0  0  0  0
 41 40  1  0  0  0  0
 42 41  1  0  0  0  0
 42 40  1  0  0  0  0
 43 44  1  0  0  0  0
 44 45  1  0  0  0  0
 45 46  1  0  0  0  0
M  END
>  <MODEL>
6

>  <REMARK>
 VINA RESULT:      -6.5      3.397      9.359
  Name = 
  10 active torsions:
  status: ('A' for Active; 'I' for Inactive)
    1  A    between atoms: C_4  and  C_32
    2  A    between atoms: O_11  and  C_26
    3  A    between atoms: C_13  and  C_32
    4  A    between atoms: C_14  and  S_16
    5  A    between atoms: S_16  and  C_23
    6  A    between atoms: C_19  and  C_20
    7  A    between atoms: C_19  and  C_25
    8  A    between atoms: C_25  and  C_38
    9  A    between atoms: C_26  and  C_36
   10  A    between atoms: C_32  and  C_36
                            x       y       z     vdW  Elec       q    Type
                         _______ _______ _______ _____ _____    ______ ____

>  <TORSDO>
F 10

$$$$
=
 OpenBabel11032420053D

 46 48  0  0  1  0  0  0  0  0999 V2000
  188.5940  176.8800  144.0820 C   0  0  0  0  0  0  0  0  0  0  0  0
  181.9430  179.2040  140.8330 C   0  0  2  0  0  3  0  0  0  0  0  0
  183.7730  178.9800  145.3930 C   0  0  0  0  0  2  0  0  0  0  0  0
  180.5870  178.2360  142.5460 O   0  0  0  0  0  0  0  0  0  0  0  0
  182.6930  178.9930  143.2190 N   0  0  0  0  0  2  0  0  0  0  0  0
  188.9920  175.9090  143.1580 O   0  0  0  0  0  0  0  0  0  0  0  0
  186.4900  178.9600  145.6170 S   0  0  0  0  0  0  0  0  0  0  0  0
  182.5560  178.5460  144.5960 C   0  0  0  0  0  2  0  0  0  0  0  0
  188.2780  178.0150  141.3310 N   0  0  0  0  0  0  0  0  0  0  0  0
  187.6070  176.5370  145.0600 N   0  0  0  0  0  2  0  0  0  0  0  0
  189.1310  178.0240  144.0890 O   0  0  0  0  0  0  0  0  0  0  0  0
  187.2200  177.3830  146.1920 C   0  0  1  0  0  3  0  0  0  0  0  0
  186.2950  178.7750  138.5040 C   0  0  2  0  0  3  0  0  0  0  0  0
  181.3910  179.4240  138.0600 N   0  0  0  0  0  0  0  0  0  0  0  0
  189.7020  176.1710  141.9780 C   0  0  0  0  0  2  0  0  0  0  0  0
  181.6800  178.7840  142.2370 C   0  0  0  0  0  0  0  0  0  0  0  0
  187.8380  178.8270  140.3390 O   0  0  0  0  0  0  0  0  0  0  0  0
  184.9850  178.1580  144.9930 C   0  0  0  0  0  2  0  0  0  0  0  0
  186.7020  178.1820  139.8430 C   0  0  0  0  0  2  0  0  0  0  0  0
  182.4560  178.5080  138.5000 C   0  0  2  0  0  3  0  0  0  0  0  0
  184.9500  178.3310  138.1720 N   0  0  0  0  0  2  0  0  0  0  0  0
  180.6560  180.1140  138.8840 C   0  0  0  0  0  3  0  0  0  0  0  0
  180.8350  179.9930  140.3010 N   0  0  0  0  0  2  0  0  0  0  0  0
  189.3900  177.1450  141.1180 C   0  0  0  0  0  3  0  0  0  0  0  0
  182.2100  178.0060  139.9300 C   0  0  0  0  0  2  0  0  0  0  0  0
  183.8060  179.1530  138.4030 C   0  0  0  0  0  0  0  0  0  0  0  0
  183.9410  180.3930  138.5940 O   0  0  0  0  0  0  0  0  0  0  0  0
  188.3620  177.5710  147.1640 C   0  0  0  0  0  0  0  0  0  0  0  0
  187.8250  178.3130  149.5430 O   0  0  0  0  0  0  0  0  0  0  0  0
  188.0870  177.9530  148.3850 C   0  0  0  0  0  0  0  0  0  0  0  0
  189.7510  177.8350  146.6480 C   0  0  0  0  0  2  0  0  0  0  0  0
  191.6550  177.1900  148.1700 C   0  0  0  0  0  1  0  0  0  0  0  0
  191.6620  176.4180  145.8140 C   0  0  0  0  0  1  0  0  0  0  0  0
  190.0970  175.6120  147.3750 F   0  0  0  0  0  0  0  0  0  0  0  0
  190.7820  176.7540  147.0050 C   0  0  0  0  0  0  0  0  0  0  0  0
  187.4660  178.3050  137.1800 S   0  0  0  0  0  0  0  0  0  0  0  0
  187.0060  175.6450  136.7980 C   0  0  0  0  0  3  0  0  0  0  0  0
  186.5330  176.8760  136.6140 C   0  0  0  0  0  3  0  0  0  0  0  0
  186.2320  174.4480  136.3370 C   0  0  1  0  0  3  0  0  0  0  0  0
  188.1710  172.9300  137.0200 C   0  0  0  0  0  2  0  0  0  0  0  0
  186.6780  173.1880  137.1160 C   0  0  0  0  0  3  0  0  0  0  0  0
  187.2000  172.0840  136.2120 C   0  0  0  0  0  2  0  0  0  0  0  0
  184.7280  174.7440  136.3510 C   0  0  0  0  0  2  0  0  0  0  0  0
  184.0430  174.1070  137.5500 C   0  0  0  0  0  2  0  0  0  0  0  0
  183.2520  175.0440  138.2120 O   0  0  0  0  0  0  0  0  0  0  0  0
  181.9510  174.7480  137.8020 C   0  0  0  0  0  1  0  0  0  0  0  0
  1 11  2  0  0  0  0
  1 10  1  0  0  0  0
  2 25  1  6  0  0  0
  2 16  1  0  0  0  0
  5  8  1  0  0  0  0
  6  1  1  0  0  0  0
  7 12  1  0  0  0  0
  8  3  1  0  0  0  0
 10 12  1  0  0  0  0
 12 28  1  6  0  0  0
 13 36  1  6  0  0  0
 13 19  1  0  0  0  0
 14 20  1  0  0  0  0
 14 22  2  0  0  0  0
 15  6  1  0  0  0  0
 16  4  2  0  0  0  0
 16  5  1  0  0  0  0
 17  9  1  0  0  0  0
 18  3  1  0  0  0  0
 18  7  1  0  0  0  0
 19 17  1  0  0  0  0
 20 25  1  1  0  0  0
 21 26  1  0  0  0  0
 21 13  1  0  0  0  0
 22 23  1  0  0  0  0
 23  2  1  0  0  0  0
 24  9  2  0  0  0  0
 24 15  1  0  0  0  0
 26 20  1  0  0  0  0
 26 27  2  0  0  0  0
 28 30  2  0  0  0  0
 30 29  2  0  0  0  0
 31 35  1  0  0  0  0
 31 28  1  0  0  0  0
 33 35  1  0  0  0  0
 35 34  1  0  0  0  0
 35 32  1  0  0  0  0
 38 37  2  0  0  0  0
 38 36  1  0  0  0  0
 39 43  1  1  0  0  0
 39 37  1  0  0  0  0
 39 41  1  0  0  0  0
 40 41  1  0  0  0  0
 42 40  1  0  0  0  0
 42 41  1  0  0  0  0
 43 44  1  0  0  0  0
 44 45  1  0  0  0  0
 46 45  1  0  0  0  0
M  END
>  <MODEL>
7

>  <REMARK>
 VINA RESULT:      -6.4      3.464      9.256
  Name = 
  10 active torsions:
  status: ('A' for Active; 'I' for Inactive)
    1  A    between atoms: C_4  and  C_32
    2  A    between atoms: O_11  and  C_26
    3  A    between atoms: C_13  and  C_32
    4  A    between atoms: C_14  and  S_16
    5  A    between atoms: S_16  and  C_23
    6  A    between atoms: C_19  and  C_20
    7  A    between atoms: C_19  and  C_25
    8  A    between atoms: C_25  and  C_38
    9  A    between atoms: C_26  and  C_36
   10  A    between atoms: C_32  and  C_36
                            x       y       z     vdW  Elec       q    Type
                         _______ _______ _______ _____ _____    ______ ____

>  <TORSDO>
F 10

$$$$
=
 OpenBabel11032420053D

 46 48  0  0  1  0  0  0  0  0999 V2000
  188.5880  176.9280  143.5750 C   0  0  0  0  0  0  0  0  0  0  0  0
  184.0460  177.4090  137.3030 C   0  0  2  0  0  3  0  0  0  0  0  0
  183.5990  178.4410  142.0900 C   0  0  0  0  0  2  0  0  0  0  0  0
  182.1100  176.6110  138.4520 O   0  0  0  0  0  0  0  0  0  0  0  0
  183.6330  177.8250  139.7430 N   0  0  0  0  0  2  0  0  0  0  0  0
  189.4130  175.8640  143.1990 O   0  0  0  0  0  0  0  0  0  0  0  0
  185.9110  178.9110  143.4580 S   0  0  0  0  0  0  0  0  0  0  0  0
  182.9050  177.6570  140.9910 C   0  0  0  0  0  2  0  0  0  0  0  0
  189.5060  177.3980  140.7660 N   0  0  0  0  0  0  0  0  0  0  0  0
  187.2810  176.6410  144.0850 N   0  0  0  0  0  2  0  0  0  0  0  0
  189.0020  178.1200  143.5150 O   0  0  0  0  0  0  0  0  0  0  0  0
  186.3770  177.6290  144.6790 C   0  0  1  0  0  3  0  0  0  0  0  0
  188.9970  177.2180  137.2710 C   0  0  2  0  0  3  0  0  0  0  0  0
  184.8120  176.9520  134.6100 N   0  0  0  0  0  0  0  0  0  0  0  0
  190.5690  175.9870  142.4160 C   0  0  0  0  0  2  0  0  0  0  0  0
  183.1920  177.2530  138.5120 C   0  0  0  0  0  0  0  0  0  0  0  0
  189.5260  177.9020  139.5080 O   0  0  0  0  0  0  0  0  0  0  0  0
  184.9000  177.7630  142.4790 C   0  0  0  0  0  2  0  0  0  0  0  0
  188.7780  176.9920  138.7580 C   0  0  0  0  0  2  0  0  0  0  0  0
  185.6030  176.3350  135.6860 C   0  0  2  0  0  3  0  0  0  0  0  0
  187.9770  176.5020  136.5200 N   0  0  0  0  0  2  0  0  0  0  0  0
  183.7470  177.6690  134.8280 C   0  0  0  0  0  3  0  0  0  0  0  0
  183.2650  177.8780  136.1610 N   0  0  0  0  0  2  0  0  0  0  0  0
  190.6350  176.6960  141.2860 C   0  0  0  0  0  3  0  0  0  0  0  0
  184.7580  176.1090  136.9470 C   0  0  0  0  0  2  0  0  0  0  0  0
  186.8140  177.1560  136.0150 C   0  0  0  0  0  0  0  0  0  0  0  0
  186.7830  178.4140  135.9170 O   0  0  0  0  0  0  0  0  0  0  0  0
  186.9370  178.2000  145.9610 C   0  0  0  0  0  0  0  0  0  0  0  0
  185.4700  179.7630  147.3400 O   0  0  0  0  0  0  0  0  0  0  0  0
  186.1850  179.0030  146.6690 C   0  0  0  0  0  0  0  0  0  0  0  0
  188.4270  178.2890  146.1550 C   0  0  0  0  0  2  0  0  0  0  0  0
  189.0090  178.4600  148.6020 C   0  0  0  0  0  1  0  0  0  0  0  0
  190.3390  176.9700  147.1330 C   0  0  0  0  0  1  0  0  0  0  0  0
  188.0970  176.5000  147.6650 F   0  0  0  0  0  0  0  0  0  0  0  0
  188.9570  177.5460  147.3890 C   0  0  0  0  0  0  0  0  0  0  0  0
  190.6660  176.6810  136.7510 S   0  0  0  0  0  0  0  0  0  0  0  0
  190.3810  174.2680  135.5150 C   0  0  0  0  0  3  0  0  0  0  0  0
  190.2720  174.9290  136.6650 C   0  0  0  0  0  3  0  0  0  0  0  0
  190.0630  172.8050  135.4350 C   0  0  1  0  0  3  0  0  0  0  0  0
  187.6430  172.4530  136.1800 C   0  0  0  0  0  2  0  0  0  0  0  0
  188.5920  172.5990  135.0030 C   0  0  0  0  0  3  0  0  0  0  0  0
  188.0490  171.2300  135.3740 C   0  0  0  0  0  2  0  0  0  0  0  0
  191.1140  172.0730  134.5940 C   0  0  0  0  0  2  0  0  0  0  0  0
  192.4790  172.7350  134.7020 C   0  0  0  0  0  2  0  0  0  0  0  0
  193.4800  171.7700  134.8010 O   0  0  0  0  0  0  0  0  0  0  0  0
  193.9230  171.8680  136.1220 C   0  0  0  0  0  1  0  0  0  0  0  0
  1 10  1  0  0  0  0
  2 25  1  6  0  0  0
  2 16  1  0  0  0  0
  3 18  1  0  0  0  0
  4 16  2  0  0  0  0
  5  8  1  0  0  0  0
  6  1  1  0  0  0  0
  7 12  1  0  0  0  0
  8  3  1  0  0  0  0
  9 24  2  0  0  0  0
 10 12  1  0  0  0  0
 11  1  2  0  0  0  0
 12 28  1  1  0  0  0
 13 36  1  6  0  0  0
 13 19  1  0  0  0  0
 14 22  2  0  0  0  0
 14 20  1  0  0  0  0
 15  6  1  0  0  0  0
 16  5  1  0  0  0  0
 17  9  1  0  0  0  0
 18  7  1  0  0  0  0
 19 17  1  0  0  0  0
 20 26  1  0  0  0  0
 20 25  1  1  0  0  0
 21 13  1  0  0  0  0
 22 23  1  0  0  0  0
 23  2  1  0  0  0  0
 24 15  1  0  0  0  0
 26 21  1  0  0  0  0
 27 26  2  0  0  0  0
 28 31  1  0  0  0  0
 28 30  2  0  0  0  0
 30 29  2  0  0  0  0
 31 35  1  0  0  0  0
 33 35  1  0  0  0  0
 35 34  1  0  0  0  0
 35 32  1  0  0  0  0
 37 38  2  0  0  0  0
 38 36  1  0  0  0  0
 39 43  1  6  0  0  0
 39 37  1  0  0  0  0
 41 42  1  0  0  0  0
 41 39  1  0  0  0  0
 41 40  1  0  0  0  0
 42 40  1  0  0  0  0
 43 44  1  0  0  0  0
 44 45  1  0  0  0  0
 45 46  1  0  0  0  0
M  END
>  <MODEL>
8

>  <REMARK>
 VINA RESULT:      -6.3      3.433      8.215
  Name = 
  10 active torsions:
  status: ('A' for Active; 'I' for Inactive)
    1  A    between atoms: C_4  and  C_32
    2  A    between atoms: O_11  and  C_26
    3  A    between atoms: C_13  and  C_32
    4  A    between atoms: C_14  and  S_16
    5  A    between atoms: S_16  and  C_23
    6  A    between atoms: C_19  and  C_20
    7  A    between atoms: C_19  and  C_25
    8  A    between atoms: C_25  and  C_38
    9  A    between atoms: C_26  and  C_36
   10  A    between atoms: C_32  and  C_36
                            x       y       z     vdW  Elec       q    Type
                         _______ _______ _______ _____ _____    ______ ____

>  <TORSDO>
F 10

$$$$
=
 OpenBabel11032420053D

 46 48  0  0  1  0  0  0  0  0999 V2000
  186.4320  178.4890  145.0580 C   0  0  0  0  0  0  0  0  0  0  0  0
  188.0940  177.2670  137.5790 C   0  0  2  0  0  3  0  0  0  0  0  0
  190.2790  176.3590  141.8900 C   0  0  0  0  0  2  0  0  0  0  0  0
  190.3900  177.8750  137.8290 O   0  0  0  0  0  0  0  0  0  0  0  0
  189.3870  176.8920  139.6960 N   0  0  0  0  0  2  0  0  0  0  0  0
  185.6280  179.6280  144.9470 O   0  0  0  0  0  0  0  0  0  0  0  0
  188.6530  176.2070  144.0740 S   0  0  0  0  0  0  0  0  0  0  0  0
  190.5580  177.0180  140.5510 C   0  0  0  0  0  2  0  0  0  0  0  0
  184.4490  178.0310  142.8640 N   0  0  0  0  0  0  0  0  0  0  0  0
  187.8550  178.6420  145.0030 N   0  0  0  0  0  2  0  0  0  0  0  0
  185.9180  177.3520  145.2540 O   0  0  0  0  0  0  0  0  0  0  0  0
  188.8230  177.5770  145.2770 C   0  0  1  0  0  3  0  0  0  0  0  0
  183.5650  178.0280  139.4400 C   0  0  2  0  0  3  0  0  0  0  0  0
  186.3820  177.7150  135.3620 N   0  0  0  0  0  0  0  0  0  0  0  0
  184.2520  179.6120  144.6820 C   0  0  0  0  0  2  0  0  0  0  0  0
  189.3630  177.3660  138.3510 C   0  0  0  0  0  0  0  0  0  0  0  0
  183.8920  177.4890  141.7540 O   0  0  0  0  0  0  0  0  0  0  0  0
  189.3020  177.1960  142.6960 C   0  0  0  0  0  2  0  0  0  0  0  0
  184.3690  178.2790  140.7060 C   0  0  0  0  0  2  0  0  0  0  0  0
  186.1360  178.4570  136.6080 C   0  0  2  0  0  3  0  0  0  0  0  0
  184.2720  178.5950  138.3020 N   0  0  0  0  0  2  0  0  0  0  0  0
  187.3760  176.8870  135.2070 C   0  0  0  0  0  3  0  0  0  0  0  0
  188.3190  176.6710  136.2640 N   0  0  0  0  0  2  0  0  0  0  0  0
  183.6840  178.8770  143.7230 C   0  0  0  0  0  3  0  0  0  0  0  0
  187.4240  178.6280  137.4250 C   0  0  0  0  0  2  0  0  0  0  0  0
  185.0800  177.7930  137.4400 C   0  0  0  0  0  0  0  0  0  0  0  0
  184.9520  176.5370  137.4350 O   0  0  0  0  0  0  0  0  0  0  0  0
  188.7580  177.1200  146.7160 C   0  0  0  0  0  0  0  0  0  0  0  0
  187.6210  178.6330  148.4230 O   0  0  0  0  0  0  0  0  0  0  0  0
  188.1750  177.8970  147.5930 C   0  0  0  0  0  0  0  0  0  0  0  0
  189.7520  176.1120  147.2280 C   0  0  0  0  0  2  0  0  0  0  0  0
  191.6440  177.0990  145.8850 C   0  0  0  0  0  1  0  0  0  0  0  0
  192.1490  175.5090  147.7180 C   0  0  0  0  0  1  0  0  0  0  0  0
  191.2900  177.6550  148.1470 F   0  0  0  0  0  0  0  0  0  0  0  0
  191.2060  176.6040  147.2540 C   0  0  0  0  0  0  0  0  0  0  0  0
  181.8840  178.7370  139.5630 S   0  0  0  0  0  0  0  0  0  0  0  0
  181.1660  176.8530  137.7270 C   0  0  0  0  0  3  0  0  0  0  0  0
  181.0270  177.2660  138.9850 C   0  0  0  0  0  3  0  0  0  0  0  0
  180.4620  175.6230  137.2390 C   0  0  1  0  0  3  0  0  0  0  0  0
  181.8230  175.0650  135.1490 C   0  0  0  0  0  2  0  0  0  0  0  0
  180.4960  175.5630  135.6940 C   0  0  0  0  0  3  0  0  0  0  0  0
  181.4810  176.5440  135.0820 C   0  0  0  0  0  2  0  0  0  0  0  0
  180.9870  174.3800  137.9680 C   0  0  0  0  0  2  0  0  0  0  0  0
  179.8560  173.4450  138.3670 C   0  0  0  0  0  2  0  0  0  0  0  0
  178.9330  174.1140  139.1680 O   0  0  0  0  0  0  0  0  0  0  0  0
  179.5190  174.1240  140.4350 C   0  0  0  0  0  1  0  0  0  0  0  0
  1 11  2  0  0  0  0
  2 25  1  6  0  0  0
  2 16  1  0  0  0  0
  3 18  1  0  0  0  0
  4 16  2  0  0  0  0
  5  8  1  0  0  0  0
  6  1  1  0  0  0  0
  7 12  1  0  0  0  0
  8  3  1  0  0  0  0
  9 24  2  0  0  0  0
 10  1  1  0  0  0  0
 10 12  1  0  0  0  0
 12 28  1  1  0  0  0
 13 36  1  1  0  0  0
 13 19  1  0  0  0  0
 14 20  1  0  0  0  0
 15  6  1  0  0  0  0
 16  5  1  0  0  0  0
 17  9  1  0  0  0  0
 18  7  1  0  0  0  0
 19 17  1  0  0  0  0
 20 25  1  1  0  0  0
 20 26  1  0  0  0  0
 21 13  1  0  0  0  0
 22 14  2  0  0  0  0
 22 23  1  0  0  0  0
 23  2  1  0  0  0  0
 24 15  1  0  0  0  0
 26 21  1  0  0  0  0
 27 26  2  0  0  0  0
 28 31  1  0  0  0  0
 28 30  2  0  0  0  0
 30 29  2  0  0  0  0
 31 35  1  0  0  0  0
 32 35  1  0  0  0  0
 35 33  1  0  0  0  0
 35 34  1  0  0  0  0
 37 38  2  0  0  0  0
 38 36  1  0  0  0  0
 39 37  1  1  0  0  0
 39 43  1  0  0  0  0
 40 41  1  0  0  0  0
 41 39  1  0  0  0  0
 42 40  1  0  0  0  0
 42 41  1  0  0  0  0
 43 44  1  0  0  0  0
 44 45  1  0  0  0  0
 45 46  1  0  0  0  0
M  END
>  <MODEL>
9

>  <REMARK>
 VINA RESULT:      -6.0      3.488      9.198
  Name = 
  10 active torsions:
  status: ('A' for Active; 'I' for Inactive)
    1  A    between atoms: C_4  and  C_32
    2  A    between atoms: O_11  and  C_26
    3  A    between atoms: C_13  and  C_32
    4  A    between atoms: C_14  and  S_16
    5  A    between atoms: S_16  and  C_23
    6  A    between atoms: C_19  and  C_20
    7  A    between atoms: C_19  and  C_25
    8  A    between atoms: C_25  and  C_38
    9  A    between atoms: C_26  and  C_36
   10  A    between atoms: C_32  and  C_36
                            x       y       z     vdW  Elec       q    Type
                         _______ _______ _______ _____ _____    ______ ____

>  <TORSDO>
F 10

$$$$
