=
 OpenBabel11042412173D

 34 38  0  0  1  0  0  0  0  0999 V2000
  190.1850  177.4110  143.4710 N   0  0  0  0  0  0  0  0  0  0  0  0
  191.6440  177.5750  143.5380 C   0  0  2  0  0  3  0  0  0  0  0  0
  190.9730  176.5690  144.3890 C   0  0  1  0  0  3  0  0  0  0  0  0
  190.7090  176.9680  145.8230 C   0  0  0  0  0  0  0  0  0  0  0  0
  191.6510  176.9270  146.6580 O   0  0  0  0  0  0  0  0  0  0  0  0
  185.9500  178.2170  145.1890 N   0  0  0  0  0  0  0  0  0  0  0  0
  185.0780  178.6240  146.1400 C   0  0  0  0  0  0  0  0  0  0  0  0
  187.0990  178.0560  145.8640 C   0  0  0  0  0  0  0  0  0  0  0  0
  188.3870  177.5880  145.3700 C   0  0  0  0  0  3  0  0  0  0  0  0
  185.6350  178.7250  147.3330 O   0  0  0  0  0  0  0  0  0  0  0  0
  189.1900  177.7680  147.6250 O   0  0  0  0  0  0  0  0  0  0  0  0
  186.8900  178.3700  147.1710 C   0  0  0  0  0  0  0  0  0  0  0  0
  187.9730  178.2960  148.1940 C   0  0  1  0  0  3  0  0  0  0  0  0
  183.8640  178.8730  145.9160 O   0  0  0  0  0  0  0  0  0  0  0  0
  189.3870  177.4570  146.2550 C   0  0  0  0  0  0  0  0  0  0  0  0
  187.5700  177.4950  149.2440 F   0  0  0  0  0  0  0  0  0  0  0  0
  185.6840  177.9320  143.7860 C   0  0  0  0  0  2  0  0  0  0  0  0
  185.4200  178.9960  141.2940 S   0  0  0  0  0  1  0  0  0  0  0  0
  185.2130  179.1900  143.0840 C   0  0  0  0  0  2  0  0  0  0  0  0
  191.9670  178.9120  144.2000 C   0  0  0  0  0  2  0  0  0  0  0  0
  190.9510  179.8250  143.9240 O   0  0  0  0  0  1  0  0  0  0  0  0
  189.9050  176.5960  142.3020 C   0  0  0  0  0  2  0  0  0  0  0  0
  188.8430  177.2670  141.4510 C   0  0  0  0  0  2  0  0  0  0  0  0
  189.4240  177.7120  140.1970 N   0  0  0  0  0  2  0  0  0  0  0  0
  190.6050  176.8980  139.9680 C   0  0  0  0  0  2  0  0  0  0  0  0
  190.9030  176.8290  138.4810 C   0  0  1  0  0  3  0  0  0  0  0  0
  192.9630  173.2050  136.5200 C   0  0  0  0  0  1  0  0  0  0  0  0
  189.8960  173.4850  136.7420 N   0  0  0  0  0  1  0  0  0  0  0  0
  192.2920  176.5190  138.2770 N   0  0  0  0  0  0  0  0  0  0  0  0
  190.1420  175.6190  137.8570 C   0  0  0  0  0  3  0  0  0  0  0  0
  190.7370  174.5070  137.2640 C   0  0  0  0  0  0  0  0  0  0  0  0
  192.2420  174.3460  137.1470 C   0  0  0  0  0  0  0  0  0  0  0  0
  193.6810  176.3770  138.1620 N   0  0  0  0  0  2  0  0  0  0  0  0
  192.8170  175.3820  137.6700 C   0  0  0  0  0  0  0  0  0  0  0  0
  1  2  1  0  0  0  0
  1  3  1  0  0  0  0
  2 20  1  1  0  0  0
  2  3  1  0  0  0  0
  3  4  1  1  0  0  0
  4 15  1  0  0  0  0
  4  5  2  0  0  0  0
  6  8  1  0  0  0  0
  6  7  1  0  0  0  0
  7 10  1  0  0  0  0
  8 12  2  0  0  0  0
  9  8  1  0  0  0  0
  9 15  2  0  0  0  0
 11 13  1  0  0  0  0
 12 10  1  0  0  0  0
 12 13  1  0  0  0  0
 13 16  1  1  0  0  0
 14  7  2  0  0  0  0
 15 11  1  0  0  0  0
 17  6  1  0  0  0  0
 18 19  1  0  0  0  0
 19 17  1  0  0  0  0
 21 20  1  0  0  0  0
 22  1  1  0  0  0  0
 23 22  1  0  0  0  0
 24 23  1  0  0  0  0
 25 24  1  0  0  0  0
 26 25  1  1  0  0  0
 27 32  1  0  0  0  0
 28 31  1  0  0  0  0
 29 26  1  0  0  0  0
 30 26  1  0  0  0  0
 31 30  2  0  0  0  0
 32 31  1  0  0  0  0
 32 34  2  0  0  0  0
 33 29  1  0  0  0  0
 34 33  1  0  0  0  0
 34 29  1  0  0  0  0
M  END
>  <MODEL>
1

>  <REMARK>
 VINA RESULT:      -8.7      0.000      0.000
  Name = 
  10 active torsions:
  status: ('A' for Active; 'I' for Inactive)
    1  A    between atoms: C_1  and  C_30
    2  A    between atoms: C_2  and  C_13
    3  A    between atoms: C_2  and  C_28
    4  A    between atoms: N_3  and  C_25
    5  A    between atoms: N_4  and  C_19
    6  A    between atoms: C_9  and  C_12
    7  A    between atoms: N_16  and  C_30
    8  A    between atoms: N_16  and  C_34
    9  A    between atoms: C_19  and  C_34
   10  A    between atoms: C_25  and  C_32
                            x       y       z     vdW  Elec       q    Type
                         _______ _______ _______ _____ _____    ______ ____

>  <TORSDO>
F 10

$$$$
=
 OpenBabel11042412173D

 34 38  0  0  1  0  0  0  0  0999 V2000
  189.0190  178.1230  142.4270 N   0  0  0  0  0  0  0  0  0  0  0  0
  190.3800  177.9150  142.9420 C   0  0  2  0  0  3  0  0  0  0  0  0
  189.2990  176.9710  143.3030 C   0  0  1  0  0  3  0  0  0  0  0  0
  188.6550  177.1720  144.6540 C   0  0  0  0  0  0  0  0  0  0  0  0
  189.2930  176.8630  145.6950 O   0  0  0  0  0  0  0  0  0  0  0  0
  184.1490  178.5050  143.0630 N   0  0  0  0  0  0  0  0  0  0  0  0
  183.1630  179.0810  143.7880 C   0  0  0  0  0  0  0  0  0  0  0  0
  185.1620  178.3980  143.9370 C   0  0  0  0  0  0  0  0  0  0  0  0
  186.4810  177.8120  143.7360 C   0  0  0  0  0  3  0  0  0  0  0  0
  183.5260  179.3330  145.0320 O   0  0  0  0  0  0  0  0  0  0  0  0
  186.9190  178.2870  146.0480 O   0  0  0  0  0  0  0  0  0  0  0  0
  184.7650  178.9070  145.1340 C   0  0  0  0  0  0  0  0  0  0  0  0
  185.6620  178.9410  146.3250 C   0  0  1  0  0  3  0  0  0  0  0  0
  182.0190  179.3440  143.3300 O   0  0  0  0  0  0  0  0  0  0  0  0
  187.3140  177.7710  144.7870 C   0  0  0  0  0  0  0  0  0  0  0  0
  185.0460  178.3180  147.3920 F   0  0  0  0  0  0  0  0  0  0  0  0
  184.0950  178.0290  141.6870 C   0  0  0  0  0  2  0  0  0  0  0  0
  183.8480  179.3110  139.2980 S   0  0  0  0  0  1  0  0  0  0  0  0
  184.8400  178.9890  140.7800 C   0  0  0  0  0  2  0  0  0  0  0  0
  190.6980  179.0000  143.9670 C   0  0  0  0  0  2  0  0  0  0  0  0
  192.0390  178.9100  144.3380 O   0  0  0  0  0  1  0  0  0  0  0  0
  188.9990  177.6130  141.0670 C   0  0  0  0  0  2  0  0  0  0  0  0
  190.3930  177.1620  140.6690 C   0  0  0  0  0  2  0  0  0  0  0  0
  190.3080  176.2140  139.5710 N   0  0  0  0  0  2  0  0  0  0  0  0
  191.1690  176.7150  138.5150 C   0  0  0  0  0  2  0  0  0  0  0  0
  190.3990  176.7780  137.2090 C   0  0  1  0  0  3  0  0  0  0  0  0
  185.8050  176.4850  137.0110 C   0  0  0  0  0  1  0  0  0  0  0  0
  187.3160  179.1690  137.2160 N   0  0  0  0  0  1  0  0  0  0  0  0
  189.5200  175.6440  137.1070 N   0  0  0  0  0  0  0  0  0  0  0  0
  189.4390  178.0070  137.2330 C   0  0  0  0  0  3  0  0  0  0  0  0
  188.0470  177.9490  137.1820 C   0  0  0  0  0  0  0  0  0  0  0  0
  187.2830  176.6410  137.0850 C   0  0  0  0  0  0  0  0  0  0  0  0
  188.8180  174.4360  137.0090 N   0  0  0  0  0  2  0  0  0  0  0  0
  188.1290  175.6610  137.0580 C   0  0  0  0  0  0  0  0  0  0  0  0
  1  2  1  0  0  0  0
  1  3  1  0  0  0  0
  2  3  1  0  0  0  0
  2 20  1  1  0  0  0
  3  4  1  1  0  0  0
  4 15  1  0  0  0  0
  4  5  2  0  0  0  0
  6  7  1  0  0  0  0
  6  8  1  0  0  0  0
  7 10  1  0  0  0  0
  8 12  2  0  0  0  0
  9  8  1  0  0  0  0
  9 15  2  0  0  0  0
 10 12  1  0  0  0  0
 11 13  1  0  0  0  0
 12 13  1  0  0  0  0
 13 16  1  1  0  0  0
 14  7  2  0  0  0  0
 15 11  1  0  0  0  0
 17  6  1  0  0  0  0
 18 19  1  0  0  0  0
 19 17  1  0  0  0  0
 20 21  1  0  0  0  0
 22  1  1  0  0  0  0
 23 22  1  0  0  0  0
 24 23  1  0  0  0  0
 25 24  1  0  0  0  0
 26 30  1  0  0  0  0
 26 25  1  1  0  0  0
 27 32  1  0  0  0  0
 29 26  1  0  0  0  0
 31 28  1  0  0  0  0
 31 30  2  0  0  0  0
 32 31  1  0  0  0  0
 33 34  1  0  0  0  0
 33 29  1  0  0  0  0
 34 32  2  0  0  0  0
 34 29  1  0  0  0  0
M  END
>  <MODEL>
2

>  <REMARK>
 VINA RESULT:      -8.7      2.123      3.303
  Name = 
  10 active torsions:
  status: ('A' for Active; 'I' for Inactive)
    1  A    between atoms: C_1  and  C_30
    2  A    between atoms: C_2  and  C_13
    3  A    between atoms: C_2  and  C_28
    4  A    between atoms: N_3  and  C_25
    5  A    between atoms: N_4  and  C_19
    6  A    between atoms: C_9  and  C_12
    7  A    between atoms: N_16  and  C_30
    8  A    between atoms: N_16  and  C_34
    9  A    between atoms: C_19  and  C_34
   10  A    between atoms: C_25  and  C_32
                            x       y       z     vdW  Elec       q    Type
                         _______ _______ _______ _____ _____    ______ ____

>  <TORSDO>
F 10

$$$$
=
 OpenBabel11042412173D

 34 38  0  0  1  0  0  0  0  0999 V2000
  190.2200  177.4080  143.4940 N   0  0  0  0  0  0  0  0  0  0  0  0
  191.6690  177.6460  143.5670 C   0  0  2  0  0  3  0  0  0  0  0  0
  191.0480  176.5950  144.4030 C   0  0  1  0  0  3  0  0  0  0  0  0
  190.7620  176.9620  145.8410 C   0  0  0  0  0  0  0  0  0  0  0  0
  191.6890  176.8960  146.6900 O   0  0  0  0  0  0  0  0  0  0  0  0
  186.0070  178.2040  145.1660 N   0  0  0  0  0  0  0  0  0  0  0  0
  185.1260  178.6060  146.1110 C   0  0  0  0  0  0  0  0  0  0  0  0
  187.1500  178.0430  145.8510 C   0  0  0  0  0  0  0  0  0  0  0  0
  188.4440  177.5790  145.3680 C   0  0  0  0  0  3  0  0  0  0  0  0
  185.6710  178.7030  147.3090 O   0  0  0  0  0  0  0  0  0  0  0  0
  189.2240  177.7510  147.6310 O   0  0  0  0  0  0  0  0  0  0  0  0
  186.9280  178.3500  147.1580 C   0  0  0  0  0  0  0  0  0  0  0  0
  188.0010  178.2750  148.1900 C   0  0  1  0  0  3  0  0  0  0  0  0
  183.9130  178.8540  145.8760 O   0  0  0  0  0  0  0  0  0  0  0  0
  189.4350  177.4460  146.2620 C   0  0  0  0  0  0  0  0  0  0  0  0
  187.5900  177.4680  149.2330 F   0  0  0  0  0  0  0  0  0  0  0  0
  185.7560  177.9250  143.7590 C   0  0  0  0  0  2  0  0  0  0  0  0
  185.4390  178.9840  141.2710 S   0  0  0  0  0  1  0  0  0  0  0  0
  185.2620  179.1780  143.0640 C   0  0  0  0  0  2  0  0  0  0  0  0
  191.9220  178.9880  144.2470 C   0  0  0  0  0  2  0  0  0  0  0  0
  190.9300  179.8930  143.8740 O   0  0  0  0  0  1  0  0  0  0  0  0
  189.9840  176.5960  142.3130 C   0  0  0  0  0  2  0  0  0  0  0  0
  188.8220  177.1660  141.5220 C   0  0  0  0  0  2  0  0  0  0  0  0
  189.2990  177.6930  140.2550 N   0  0  0  0  0  2  0  0  0  0  0  0
  190.5630  177.0360  139.9750 C   0  0  0  0  0  2  0  0  0  0  0  0
  190.7690  176.9330  138.4750 C   0  0  1  0  0  3  0  0  0  0  0  0
  187.6090  175.1320  135.6470 C   0  0  0  0  0  1  0  0  0  0  0  0
  187.7640  178.1450  136.3030 N   0  0  0  0  0  1  0  0  0  0  0  0
  190.5370  175.5810  138.0440 N   0  0  0  0  0  0  0  0  0  0  0  0
  189.6700  177.7640  137.7440 C   0  0  0  0  0  3  0  0  0  0  0  0
  188.6980  177.2470  136.8890 C   0  0  0  0  0  0  0  0  0  0  0  0
  188.6010  175.7690  136.5550 C   0  0  0  0  0  0  0  0  0  0  0  0
  190.4550  174.2180  137.7310 N   0  0  0  0  0  2  0  0  0  0  0  0
  189.5410  175.1350  137.1800 C   0  0  0  0  0  0  0  0  0  0  0  0
  1  2  1  0  0  0  0
  1  3  1  0  0  0  0
  2 20  1  1  0  0  0
  2  3  1  0  0  0  0
  3  4  1  1  0  0  0
  4 15  1  0  0  0  0
  4  5  2  0  0  0  0
  6  8  1  0  0  0  0
  6  7  1  0  0  0  0
  7 10  1  0  0  0  0
  8 12  2  0  0  0  0
  9  8  1  0  0  0  0
  9 15  2  0  0  0  0
 11 13  1  0  0  0  0
 12 10  1  0  0  0  0
 12 13  1  0  0  0  0
 13 16  1  1  0  0  0
 14  7  2  0  0  0  0
 15 11  1  0  0  0  0
 17  6  1  0  0  0  0
 18 19  1  0  0  0  0
 19 17  1  0  0  0  0
 21 20  1  0  0  0  0
 22  1  1  0  0  0  0
 23 22  1  0  0  0  0
 24 23  1  0  0  0  0
 25 24  1  0  0  0  0
 26 25  1  1  0  0  0
 27 32  1  0  0  0  0
 28 31  1  0  0  0  0
 29 26  1  0  0  0  0
 30 26  1  0  0  0  0
 31 30  2  0  0  0  0
 32 31  1  0  0  0  0
 32 34  2  0  0  0  0
 33 29  1  0  0  0  0
 34 33  1  0  0  0  0
 34 29  1  0  0  0  0
M  END
>  <MODEL>
3

>  <REMARK>
 VINA RESULT:      -8.6      1.218      1.897
  Name = 
  10 active torsions:
  status: ('A' for Active; 'I' for Inactive)
    1  A    between atoms: C_1  and  C_30
    2  A    between atoms: C_2  and  C_13
    3  A    between atoms: C_2  and  C_28
    4  A    between atoms: N_3  and  C_25
    5  A    between atoms: N_4  and  C_19
    6  A    between atoms: C_9  and  C_12
    7  A    between atoms: N_16  and  C_30
    8  A    between atoms: N_16  and  C_34
    9  A    between atoms: C_19  and  C_34
   10  A    between atoms: C_25  and  C_32
                            x       y       z     vdW  Elec       q    Type
                         _______ _______ _______ _____ _____    ______ ____

>  <TORSDO>
F 10

$$$$
=
 OpenBabel11042412173D

 34 38  0  0  1  0  0  0  0  0999 V2000
  184.2990  179.4330  142.2290 N   0  0  0  0  0  0  0  0  0  0  0  0
  184.2750  177.9690  142.0910 C   0  0  2  0  0  3  0  0  0  0  0  0
  185.4910  178.7280  141.7220 C   0  0  1  0  0  3  0  0  0  0  0  0
  185.6830  179.0160  140.2510 C   0  0  0  0  0  0  0  0  0  0  0  0
  184.8260  179.7080  139.6400 O   0  0  0  0  0  0  0  0  0  0  0  0
  190.1750  176.9500  139.8450 N   0  0  0  0  0  0  0  0  0  0  0  0
  190.8630  176.7070  138.7060 C   0  0  0  0  0  0  0  0  0  0  0  0
  189.0580  177.5570  139.4150 C   0  0  0  0  0  0  0  0  0  0  0  0
  187.9140  178.0170  140.1910 C   0  0  0  0  0  3  0  0  0  0  0  0
  190.2330  177.1380  137.6280 O   0  0  0  0  0  0  0  0  0  0  0  0
  186.9050  178.6630  138.1120 O   0  0  0  0  0  0  0  0  0  0  0  0
  189.1090  177.6630  138.0600 C   0  0  0  0  0  0  0  0  0  0  0  0
  188.0150  178.2940  137.2660 C   0  0  1  0  0  3  0  0  0  0  0  0
  191.9810  176.1270  138.6740 O   0  0  0  0  0  0  0  0  0  0  0  0
  186.8790  178.5500  139.5250 C   0  0  0  0  0  0  0  0  0  0  0  0
  187.5800  177.4180  136.2910 F   0  0  0  0  0  0  0  0  0  0  0  0
  190.5200  176.5630  141.2070 C   0  0  0  0  0  2  0  0  0  0  0  0
  190.9720  178.5990  142.9570 S   0  0  0  0  0  1  0  0  0  0  0  0
  191.6370  177.4470  141.7260 C   0  0  0  0  0  2  0  0  0  0  0  0
  183.3430  177.5900  140.9440 C   0  0  0  0  0  2  0  0  0  0  0  0
  182.1230  178.2460  141.1000 O   0  0  0  0  0  1  0  0  0  0  0  0
  184.5550  179.7210  143.6300 C   0  0  0  0  0  2  0  0  0  0  0  0
  183.6170  178.9040  144.5000 C   0  0  0  0  0  2  0  0  0  0  0  0
  184.0630  178.9500  145.8820 N   0  0  0  0  0  2  0  0  0  0  0  0
  185.5090  179.0820  145.8540 C   0  0  0  0  0  2  0  0  0  0  0  0
  186.1540  177.7760  146.2790 C   0  0  1  0  0  3  0  0  0  0  0  0
  190.7060  177.0820  146.1300 C   0  0  0  0  0  1  0  0  0  0  0  0
  189.2430  178.1430  148.6330 N   0  0  0  0  0  1  0  0  0  0  0  0
  187.0090  177.2910  145.2300 N   0  0  0  0  0  0  0  0  0  0  0  0
  187.1220  178.0420  147.4730 C   0  0  0  0  0  3  0  0  0  0  0  0
  188.5020  177.8490  147.4550 C   0  0  0  0  0  0  0  0  0  0  0  0
  189.2430  177.3320  146.2350 C   0  0  0  0  0  0  0  0  0  0  0  0
  187.6890  176.8060  144.1060 N   0  0  0  0  0  2  0  0  0  0  0  0
  188.3890  177.1190  145.2840 C   0  0  0  0  0  0  0  0  0  0  0  0
  1 22  1  0  0  0  0
  2 20  1  6  0  0  0
  2  1  1  0  0  0  0
  3  4  1  6  0  0  0
  3  2  1  0  0  0  0
  3  1  1  0  0  0  0
  5  4  2  0  0  0  0
  6 17  1  0  0  0  0
  7  6  1  0  0  0  0
  8  6  1  0  0  0  0
  8  9  1  0  0  0  0
 10 12  1  0  0  0  0
 10  7  1  0  0  0  0
 11 15  1  0  0  0  0
 12  8  2  0  0  0  0
 13 16  1  6  0  0  0
 13 12  1  0  0  0  0
 13 11  1  0  0  0  0
 14  7  2  0  0  0  0
 15  9  2  0  0  0  0
 15  4  1  0  0  0  0
 17 19  1  0  0  0  0
 19 18  1  0  0  0  0
 20 21  1  0  0  0  0
 22 23  1  0  0  0  0
 23 24  1  0  0  0  0
 25 24  1  0  0  0  0
 26 25  1  6  0  0  0
 26 30  1  0  0  0  0
 27 32  1  0  0  0  0
 29 34  1  0  0  0  0
 29 26  1  0  0  0  0
 31 30  2  0  0  0  0
 31 28  1  0  0  0  0
 32 31  1  0  0  0  0
 33 29  1  0  0  0  0
 33 34  1  0  0  0  0
 34 32  2  0  0  0  0
M  END
>  <MODEL>
4

>  <REMARK>
 VINA RESULT:      -8.6      4.218      8.905
  Name = 
  10 active torsions:
  status: ('A' for Active; 'I' for Inactive)
    1  A    between atoms: C_1  and  C_30
    2  A    between atoms: C_2  and  C_13
    3  A    between atoms: C_2  and  C_28
    4  A    between atoms: N_3  and  C_25
    5  A    between atoms: N_4  and  C_19
    6  A    between atoms: C_9  and  C_12
    7  A    between atoms: N_16  and  C_30
    8  A    between atoms: N_16  and  C_34
    9  A    between atoms: C_19  and  C_34
   10  A    between atoms: C_25  and  C_32
                            x       y       z     vdW  Elec       q    Type
                         _______ _______ _______ _____ _____    ______ ____

>  <TORSDO>
F 10

$$$$
=
 OpenBabel11042412173D

 34 38  0  0  1  0  0  0  0  0999 V2000
  189.4210  177.9270  142.6730 N   0  0  0  0  0  0  0  0  0  0  0  0
  190.6320  177.3050  143.2290 C   0  0  2  0  0  3  0  0  0  0  0  0
  189.3040  176.7080  143.4930 C   0  0  1  0  0  3  0  0  0  0  0  0
  188.6740  177.0340  144.8280 C   0  0  0  0  0  0  0  0  0  0  0  0
  189.3170  176.8040  145.8860 O   0  0  0  0  0  0  0  0  0  0  0  0
  184.2490  178.4630  143.0980 N   0  0  0  0  0  0  0  0  0  0  0  0
  183.2560  179.0630  143.7920 C   0  0  0  0  0  0  0  0  0  0  0  0
  185.2330  178.3360  144.0020 C   0  0  0  0  0  0  0  0  0  0  0  0
  186.5440  177.7200  143.8430 C   0  0  0  0  0  3  0  0  0  0  0  0
  183.5870  179.3110  145.0460 O   0  0  0  0  0  0  0  0  0  0  0  0
  186.9230  178.1920  146.1650 O   0  0  0  0  0  0  0  0  0  0  0  0
  184.8120  178.8580  145.1860 C   0  0  0  0  0  0  0  0  0  0  0  0
  185.6740  178.8750  146.4030 C   0  0  1  0  0  3  0  0  0  0  0  0
  182.1320  179.3500  143.2990 O   0  0  0  0  0  0  0  0  0  0  0  0
  187.3440  177.6630  144.9180 C   0  0  0  0  0  0  0  0  0  0  0  0
  185.0120  178.2700  147.4530 F   0  0  0  0  0  0  0  0  0  0  0  0
  184.2260  177.9830  141.7220 C   0  0  0  0  0  2  0  0  0  0  0  0
  184.5820  178.4950  139.0720 S   0  0  0  0  0  1  0  0  0  0  0  0
  184.5900  179.1110  140.7770 C   0  0  0  0  0  2  0  0  0  0  0  0
  191.1980  178.2040  144.3240 C   0  0  0  0  0  2  0  0  0  0  0  0
  191.0320  179.5390  143.9630 O   0  0  0  0  0  1  0  0  0  0  0  0
  189.3270  177.5020  141.2870 C   0  0  0  0  0  2  0  0  0  0  0  0
  188.2040  178.2530  140.5960 C   0  0  0  0  0  2  0  0  0  0  0  0
  188.6780  178.8000  139.3370 N   0  0  0  0  0  2  0  0  0  0  0  0
  188.2790  177.8700  138.2960 C   0  0  0  0  0  2  0  0  0  0  0  0
  189.4050  177.7070  137.2910 C   0  0  1  0  0  3  0  0  0  0  0  0
  191.6220  173.7170  136.6630 C   0  0  0  0  0  1  0  0  0  0  0  0
  189.1490  174.5500  135.0130 N   0  0  0  0  0  1  0  0  0  0  0  0
  190.5590  177.1460  137.9410 N   0  0  0  0  0  0  0  0  0  0  0  0
  189.0010  176.6350  136.2320 C   0  0  0  0  0  3  0  0  0  0  0  0
  189.6470  175.4180  136.0230 C   0  0  0  0  0  0  0  0  0  0  0  0
  190.8620  174.9860  136.8250 C   0  0  0  0  0  0  0  0  0  0  0  0
  191.6850  176.7540  138.6750 N   0  0  0  0  0  2  0  0  0  0  0  0
  191.1560  175.9160  137.6770 C   0  0  0  0  0  0  0  0  0  0  0  0
  1  2  1  0  0  0  0
  1  3  1  0  0  0  0
  2  3  1  0  0  0  0
  2 20  1  1  0  0  0
  3  4  1  1  0  0  0
  4 15  1  0  0  0  0
  4  5  2  0  0  0  0
  6  7  1  0  0  0  0
  6  8  1  0  0  0  0
  7 10  1  0  0  0  0
  8 12  2  0  0  0  0
  9  8  1  0  0  0  0
  9 15  2  0  0  0  0
 10 12  1  0  0  0  0
 11 13  1  0  0  0  0
 12 13  1  0  0  0  0
 13 16  1  1  0  0  0
 14  7  2  0  0  0  0
 15 11  1  0  0  0  0
 17  6  1  0  0  0  0
 18 19  1  0  0  0  0
 19 17  1  0  0  0  0
 21 20  1  0  0  0  0
 22  1  1  0  0  0  0
 23 22  1  0  0  0  0
 24 23  1  0  0  0  0
 25 24  1  0  0  0  0
 26 29  1  0  0  0  0
 26 25  1  1  0  0  0
 27 32  1  0  0  0  0
 28 31  1  0  0  0  0
 29 33  1  0  0  0  0
 30 26  1  0  0  0  0
 31 30  2  0  0  0  0
 31 32  1  0  0  0  0
 32 34  2  0  0  0  0
 34 29  1  0  0  0  0
 34 33  1  0  0  0  0
M  END
>  <MODEL>
5

>  <REMARK>
 VINA RESULT:      -8.4      1.747      2.274
  Name = 
  10 active torsions:
  status: ('A' for Active; 'I' for Inactive)
    1  A    between atoms: C_1  and  C_30
    2  A    between atoms: C_2  and  C_13
    3  A    between atoms: C_2  and  C_28
    4  A    between atoms: N_3  and  C_25
    5  A    between atoms: N_4  and  C_19
    6  A    between atoms: C_9  and  C_12
    7  A    between atoms: N_16  and  C_30
    8  A    between atoms: N_16  and  C_34
    9  A    between atoms: C_19  and  C_34
   10  A    between atoms: C_25  and  C_32
                            x       y       z     vdW  Elec       q    Type
                         _______ _______ _______ _____ _____    ______ ____

>  <TORSDO>
F 10

$$$$
=
 OpenBabel11042412173D

 34 38  0  0  1  0  0  0  0  0999 V2000
  184.8100  178.3450  143.1790 N   0  0  0  0  0  0  0  0  0  0  0  0
  183.8130  179.3670  143.5300 C   0  0  2  0  0  3  0  0  0  0  0  0
  185.1480  179.3840  144.1680 C   0  0  1  0  0  3  0  0  0  0  0  0
  185.2400  178.7800  145.5500 C   0  0  0  0  0  0  0  0  0  0  0  0
  184.1970  178.6720  146.2470 O   0  0  0  0  0  0  0  0  0  0  0  0
  190.0000  177.4070  145.2760 N   0  0  0  0  0  0  0  0  0  0  0  0
  190.7890  176.9900  146.2910 C   0  0  0  0  0  0  0  0  0  0  0  0
  188.8090  177.6040  145.8630 C   0  0  0  0  0  0  0  0  0  0  0  0
  187.5720  178.0970  145.2730 C   0  0  0  0  0  3  0  0  0  0  0  0
  190.1460  176.9180  147.4420 O   0  0  0  0  0  0  0  0  0  0  0  0
  186.6050  177.9650  147.4660 O   0  0  0  0  0  0  0  0  0  0  0  0
  188.9160  177.3020  147.1850 C   0  0  0  0  0  0  0  0  0  0  0  0
  187.7640  177.4140  148.1260 C   0  0  1  0  0  3  0  0  0  0  0  0
  192.0100  176.7080  146.1580 O   0  0  0  0  0  0  0  0  0  0  0  0
  186.5150  178.2640  146.0820 C   0  0  0  0  0  0  0  0  0  0  0  0
  188.1100  178.2180  149.1950 F   0  0  0  0  0  0  0  0  0  0  0  0
  190.3720  177.6680  143.8920 C   0  0  0  0  0  2  0  0  0  0  0  0
  190.5030  176.7320  141.3380 S   0  0  0  0  0  1  0  0  0  0  0  0
  190.4020  176.3690  143.1110 C   0  0  0  0  0  2  0  0  0  0  0  0
  182.6900  178.7160  144.3310 C   0  0  0  0  0  2  0  0  0  0  0  0
  181.4640  179.0110  143.7380 O   0  0  0  0  0  1  0  0  0  0  0  0
  185.4140  178.7580  141.9240 C   0  0  0  0  0  2  0  0  0  0  0  0
  184.3340  178.9670  140.8780 C   0  0  0  0  0  2  0  0  0  0  0  0
  184.9380  179.3480  139.6140 N   0  0  0  0  0  2  0  0  0  0  0  0
  184.8790  178.1830  138.7500 C   0  0  0  0  0  2  0  0  0  0  0  0
  185.9770  178.2600  137.7050 C   0  0  1  0  0  3  0  0  0  0  0  0
  189.6960  175.5420  137.7950 C   0  0  0  0  0  1  0  0  0  0  0  0
  187.1220  174.8280  136.2470 N   0  0  0  0  0  1  0  0  0  0  0  0
  187.2530  178.4140  138.3500 N   0  0  0  0  0  0  0  0  0  0  0  0
  186.0820  176.8920  136.9640 C   0  0  0  0  0  3  0  0  0  0  0  0
  187.1900  176.0460  136.9780 C   0  0  0  0  0  0  0  0  0  0  0  0
  188.4650  176.3750  137.7350 C   0  0  0  0  0  0  0  0  0  0  0  0
  188.4310  178.7240  139.0420 N   0  0  0  0  0  2  0  0  0  0  0  0
  188.3220  177.5220  138.3180 C   0  0  0  0  0  0  0  0  0  0  0  0
  1  2  1  0  0  0  0
  1  3  1  0  0  0  0
  2  3  1  0  0  0  0
  2 20  1  1  0  0  0
  3  4  1  1  0  0  0
  4 15  1  0  0  0  0
  4  5  2  0  0  0  0
  6  8  1  0  0  0  0
  6  7  1  0  0  0  0
  7 10  1  0  0  0  0
  8 12  2  0  0  0  0
  9  8  1  0  0  0  0
  9 15  2  0  0  0  0
 11 13  1  0  0  0  0
 12 10  1  0  0  0  0
 12 13  1  0  0  0  0
 13 16  1  1  0  0  0
 14  7  2  0  0  0  0
 15 11  1  0  0  0  0
 17  6  1  0  0  0  0
 18 19  1  0  0  0  0
 19 17  1  0  0  0  0
 21 20  1  0  0  0  0
 22  1  1  0  0  0  0
 23 22  1  0  0  0  0
 24 23  1  0  0  0  0
 25 24  1  0  0  0  0
 26 29  1  0  0  0  0
 26 25  1  1  0  0  0
 28 31  1  0  0  0  0
 29 33  1  0  0  0  0
 30 31  2  0  0  0  0
 30 26  1  0  0  0  0
 31 32  1  0  0  0  0
 32 27  1  0  0  0  0
 32 34  2  0  0  0  0
 34 29  1  0  0  0  0
 34 33  1  0  0  0  0
M  END
>  <MODEL>
6

>  <REMARK>
 VINA RESULT:      -8.3      2.471      5.340
  Name = 
  10 active torsions:
  status: ('A' for Active; 'I' for Inactive)
    1  A    between atoms: C_1  and  C_30
    2  A    between atoms: C_2  and  C_13
    3  A    between atoms: C_2  and  C_28
    4  A    between atoms: N_3  and  C_25
    5  A    between atoms: N_4  and  C_19
    6  A    between atoms: C_9  and  C_12
    7  A    between atoms: N_16  and  C_30
    8  A    between atoms: N_16  and  C_34
    9  A    between atoms: C_19  and  C_34
   10  A    between atoms: C_25  and  C_32
                            x       y       z     vdW  Elec       q    Type
                         _______ _______ _______ _____ _____    ______ ____

>  <TORSDO>
F 10

$$$$
=
 OpenBabel11042412173D

 34 38  0  0  1  0  0  0  0  0999 V2000
  189.2520  177.9350  141.0600 N   0  0  0  0  0  0  0  0  0  0  0  0
  190.4210  177.2540  140.4840 C   0  0  2  0  0  3  0  0  0  0  0  0
  189.3610  176.4680  141.1520 C   0  0  1  0  0  3  0  0  0  0  0  0
  189.6320  176.0520  142.5800 C   0  0  0  0  0  0  0  0  0  0  0  0
  190.5250  175.1960  142.8150 O   0  0  0  0  0  0  0  0  0  0  0  0
  185.7420  178.1720  144.8130 N   0  0  0  0  0  0  0  0  0  0  0  0
  185.6440  178.5360  146.1120 C   0  0  0  0  0  0  0  0  0  0  0  0
  186.9950  177.7000  144.7120 C   0  0  0  0  0  0  0  0  0  0  0  0
  187.6600  177.1240  143.5510 C   0  0  0  0  0  3  0  0  0  0  0  0
  186.7570  178.3200  146.7880 O   0  0  0  0  0  0  0  0  0  0  0  0
  189.5600  176.7470  144.9690 O   0  0  0  0  0  0  0  0  0  0  0  0
  187.6000  177.7970  145.9260 C   0  0  0  0  0  0  0  0  0  0  0  0
  189.0070  177.3560  146.1550 C   0  0  1  0  0  3  0  0  0  0  0  0
  184.6010  179.0210  146.6260 O   0  0  0  0  0  0  0  0  0  0  0  0
  188.9110  176.6660  143.7100 C   0  0  0  0  0  0  0  0  0  0  0  0
  189.0490  176.4530  147.1990 F   0  0  0  0  0  0  0  0  0  0  0  0
  184.7070  178.2000  143.7880 C   0  0  0  0  0  2  0  0  0  0  0  0
  184.7960  178.8770  141.1520 S   0  0  0  0  0  1  0  0  0  0  0  0
  184.9080  179.4000  142.8840 C   0  0  0  0  0  2  0  0  0  0  0  0
  191.6530  177.5780  141.3230 C   0  0  0  0  0  2  0  0  0  0  0  0
  192.7960  177.4650  140.5340 O   0  0  0  0  0  1  0  0  0  0  0  0
  188.3420  178.2120  139.9620 C   0  0  0  0  0  2  0  0  0  0  0  0
  189.1300  178.6390  138.7370 C   0  0  0  0  0  2  0  0  0  0  0  0
  188.6300  177.9450  137.5640 N   0  0  0  0  0  2  0  0  0  0  0  0
  187.1800  177.9760  137.6410 C   0  0  0  0  0  2  0  0  0  0  0  0
  186.5890  177.0350  136.6070 C   0  0  1  0  0  3  0  0  0  0  0  0
  185.0150  172.8380  137.6700 C   0  0  0  0  0  1  0  0  0  0  0  0
  183.2220  175.3510  137.6310 N   0  0  0  0  0  1  0  0  0  0  0  0
  187.2490  175.7600  136.6750 N   0  0  0  0  0  0  0  0  0  0  0  0
  185.1070  176.7220  136.9810 C   0  0  0  0  0  3  0  0  0  0  0  0
  184.6040  175.4660  137.3130 C   0  0  0  0  0  0  0  0  0  0  0  0
  185.4670  174.2170  137.3420 C   0  0  0  0  0  0  0  0  0  0  0  0
  188.0460  174.6080  136.6920 N   0  0  0  0  0  2  0  0  0  0  0  0
  186.6780  174.5360  137.0140 C   0  0  0  0  0  0  0  0  0  0  0  0
  1  3  1  0  0  0  0
  2  1  1  0  0  0  0
  2  3  1  0  0  0  0
  2 20  1  1  0  0  0
  3  4  1  1  0  0  0
  4  5  2  0  0  0  0
  4 15  1  0  0  0  0
  6  7  1  0  0  0  0
  7 14  2  0  0  0  0
  7 10  1  0  0  0  0
  8  6  1  0  0  0  0
  8 12  2  0  0  0  0
  9 15  2  0  0  0  0
  9  8  1  0  0  0  0
 11 13  1  0  0  0  0
 12 13  1  0  0  0  0
 12 10  1  0  0  0  0
 13 16  1  1  0  0  0
 15 11  1  0  0  0  0
 17  6  1  0  0  0  0
 18 19  1  0  0  0  0
 19 17  1  0  0  0  0
 21 20  1  0  0  0  0
 22  1  1  0  0  0  0
 23 22  1  0  0  0  0
 24 25  1  0  0  0  0
 24 23  1  0  0  0  0
 26 29  1  0  0  0  0
 26 30  1  0  0  0  0
 26 25  1  1  0  0  0
 29 33  1  0  0  0  0
 29 34  1  0  0  0  0
 30 31  2  0  0  0  0
 31 32  1  0  0  0  0
 31 28  1  0  0  0  0
 32 27  1  0  0  0  0
 33 34  1  0  0  0  0
 34 32  2  0  0  0  0
M  END
>  <MODEL>
7

>  <REMARK>
 VINA RESULT:      -8.3      3.060      3.959
  Name = 
  10 active torsions:
  status: ('A' for Active; 'I' for Inactive)
    1  A    between atoms: C_1  and  C_30
    2  A    between atoms: C_2  and  C_13
    3  A    between atoms: C_2  and  C_28
    4  A    between atoms: N_3  and  C_25
    5  A    between atoms: N_4  and  C_19
    6  A    between atoms: C_9  and  C_12
    7  A    between atoms: N_16  and  C_30
    8  A    between atoms: N_16  and  C_34
    9  A    between atoms: C_19  and  C_34
   10  A    between atoms: C_25  and  C_32
                            x       y       z     vdW  Elec       q    Type
                         _______ _______ _______ _____ _____    ______ ____

>  <TORSDO>
F 10

$$$$
=
 OpenBabel11042412173D

 34 38  0  0  1  0  0  0  0  0999 V2000
  184.1070  179.3220  141.8960 N   0  0  0  0  0  0  0  0  0  0  0  0
  183.9820  177.8800  141.6390 C   0  0  2  0  0  3  0  0  0  0  0  0
  185.1630  178.6210  141.1440 C   0  0  1  0  0  3  0  0  0  0  0  0
  185.1360  179.0380  139.6920 C   0  0  0  0  0  0  0  0  0  0  0  0
  184.5610  180.1110  139.3680 O   0  0  0  0  0  0  0  0  0  0  0  0
  189.0570  177.0630  137.3810 N   0  0  0  0  0  0  0  0  0  0  0  0
  189.0430  176.2330  136.3140 C   0  0  0  0  0  0  0  0  0  0  0  0
  187.7580  177.3410  137.5800 C   0  0  0  0  0  0  0  0  0  0  0  0
  187.1510  178.1580  138.6230 C   0  0  0  0  0  3  0  0  0  0  0  0
  187.8240  176.0050  135.8600 O   0  0  0  0  0  0  0  0  0  0  0  0
  185.0210  177.5630  137.6900 O   0  0  0  0  0  0  0  0  0  0  0  0
  187.0200  176.6860  136.6440 C   0  0  0  0  0  0  0  0  0  0  0  0
  185.5330  176.7850  136.5870 C   0  0  1  0  0  3  0  0  0  0  0  0
  190.0790  175.7230  135.8100 O   0  0  0  0  0  0  0  0  0  0  0  0
  185.8120  178.2440  138.6500 C   0  0  0  0  0  0  0  0  0  0  0  0
  184.9790  175.5200  136.6210 F   0  0  0  0  0  0  0  0  0  0  0  0
  190.1990  177.4850  138.1810 C   0  0  0  0  0  2  0  0  0  0  0  0
  190.3950  177.0910  140.8680 S   0  0  0  0  0  1  0  0  0  0  0  0
  190.5430  176.4110  139.1940 C   0  0  0  0  0  2  0  0  0  0  0  0
  182.8610  177.6470  140.6310 C   0  0  0  0  0  2  0  0  0  0  0  0
  181.7380  178.3850  141.0040 O   0  0  0  0  0  1  0  0  0  0  0  0
  184.5960  179.4670  143.2570 C   0  0  0  0  0  2  0  0  0  0  0  0
  183.4720  179.1900  144.2380 C   0  0  0  0  0  2  0  0  0  0  0  0
  184.0160  179.0060  145.5720 N   0  0  0  0  0  2  0  0  0  0  0  0
  185.4610  179.0960  145.4530 C   0  0  0  0  0  2  0  0  0  0  0  0
  186.0980  177.7990  145.9170 C   0  0  1  0  0  3  0  0  0  0  0  0
  190.6590  177.1470  145.9710 C   0  0  0  0  0  1  0  0  0  0  0  0
  189.0790  178.2140  148.4000 N   0  0  0  0  0  1  0  0  0  0  0  0
  187.0030  177.3140  144.9100 N   0  0  0  0  0  0  0  0  0  0  0  0
  187.0110  178.0850  147.1500 C   0  0  0  0  0  3  0  0  0  0  0  0
  188.3930  177.9040  147.1930 C   0  0  0  0  0  0  0  0  0  0  0  0
  189.1900  177.3840  146.0110 C   0  0  0  0  0  0  0  0  0  0  0  0
  187.7350  176.8250  143.8210 N   0  0  0  0  0  2  0  0  0  0  0  0
  188.3810  177.1550  145.0260 C   0  0  0  0  0  0  0  0  0  0  0  0
  1 22  1  0  0  0  0
  2 20  1  6  0  0  0
  2  1  1  0  0  0  0
  3  4  1  6  0  0  0
  3  2  1  0  0  0  0
  3  1  1  0  0  0  0
  5  4  2  0  0  0  0
  6  8  1  0  0  0  0
  6 17  1  0  0  0  0
  7  6  1  0  0  0  0
  8  9  1  0  0  0  0
  9 15  2  0  0  0  0
 10  7  1  0  0  0  0
 10 12  1  0  0  0  0
 11 15  1  0  0  0  0
 12  8  2  0  0  0  0
 13 16  1  1  0  0  0
 13 12  1  0  0  0  0
 13 11  1  0  0  0  0
 14  7  2  0  0  0  0
 15  4  1  0  0  0  0
 17 19  1  0  0  0  0
 19 18  1  0  0  0  0
 20 21  1  0  0  0  0
 22 23  1  0  0  0  0
 23 24  1  0  0  0  0
 25 24  1  0  0  0  0
 26 25  1  6  0  0  0
 26 30  1  0  0  0  0
 27 32  1  0  0  0  0
 29 34  1  0  0  0  0
 29 26  1  0  0  0  0
 30 31  2  0  0  0  0
 31 28  1  0  0  0  0
 32 31  1  0  0  0  0
 33 29  1  0  0  0  0
 33 34  1  0  0  0  0
 34 32  2  0  0  0  0
M  END
>  <MODEL>
8

>  <REMARK>
 VINA RESULT:      -8.3      4.592      9.330
  Name = 
  10 active torsions:
  status: ('A' for Active; 'I' for Inactive)
    1  A    between atoms: C_1  and  C_30
    2  A    between atoms: C_2  and  C_13
    3  A    between atoms: C_2  and  C_28
    4  A    between atoms: N_3  and  C_25
    5  A    between atoms: N_4  and  C_19
    6  A    between atoms: C_9  and  C_12
    7  A    between atoms: N_16  and  C_30
    8  A    between atoms: N_16  and  C_34
    9  A    between atoms: C_19  and  C_34
   10  A    between atoms: C_25  and  C_32
                            x       y       z     vdW  Elec       q    Type
                         _______ _______ _______ _____ _____    ______ ____

>  <TORSDO>
F 10

$$$$
=
 OpenBabel11042412173D

 34 38  0  0  1  0  0  0  0  0999 V2000
  185.2430  178.2120  143.3610 N   0  0  0  0  0  0  0  0  0  0  0  0
  184.2310  179.2480  143.6140 C   0  0  2  0  0  3  0  0  0  0  0  0
  185.5450  179.3160  144.2910 C   0  0  1  0  0  3  0  0  0  0  0  0
  185.5960  178.8040  145.7110 C   0  0  0  0  0  0  0  0  0  0  0  0
  184.5530  178.8330  146.4160 O   0  0  0  0  0  0  0  0  0  0  0  0
  190.1180  176.7750  145.4990 N   0  0  0  0  0  0  0  0  0  0  0  0
  190.9130  176.4380  146.5400 C   0  0  0  0  0  0  0  0  0  0  0  0
  189.0020  177.2300  146.0880 C   0  0  0  0  0  0  0  0  0  0  0  0
  187.8010  177.7750  145.4690 C   0  0  0  0  0  3  0  0  0  0  0  0
  190.3390  176.6550  147.7100 O   0  0  0  0  0  0  0  0  0  0  0  0
  186.9670  178.1580  147.6860 O   0  0  0  0  0  0  0  0  0  0  0  0
  189.1530  177.1510  147.4380 C   0  0  0  0  0  0  0  0  0  0  0  0
  188.0870  177.5790  148.3890 C   0  0  1  0  0  3  0  0  0  0  0  0
  192.0770  175.9750  146.4110 O   0  0  0  0  0  0  0  0  0  0  0  0
  186.8270  178.2220  146.2760 C   0  0  0  0  0  0  0  0  0  0  0  0
  188.5990  178.5030  149.2790 F   0  0  0  0  0  0  0  0  0  0  0  0
  190.4320  176.7380  144.0760 C   0  0  0  0  0  2  0  0  0  0  0  0
  191.0790  179.3810  143.9780 S   0  0  0  0  0  1  0  0  0  0  0  0
  191.6020  177.6570  143.7830 C   0  0  0  0  0  2  0  0  0  0  0  0
  183.0860  178.6420  144.4200 C   0  0  0  0  0  2  0  0  0  0  0  0
  181.8690  179.0210  143.8580 O   0  0  0  0  0  1  0  0  0  0  0  0
  185.8850  178.5470  142.1010 C   0  0  0  0  0  2  0  0  0  0  0  0
  187.3430  178.1280  142.1410 C   0  0  0  0  0  2  0  0  0  0  0  0
  187.9360  178.2840  140.8240 N   0  0  0  0  0  2  0  0  0  0  0  0
  189.1790  177.5350  140.8310 C   0  0  0  0  0  2  0  0  0  0  0  0
  189.9540  177.8100  139.5550 C   0  0  1  0  0  3  0  0  0  0  0  0
  188.5870  176.2720  135.4320 C   0  0  0  0  0  1  0  0  0  0  0  0
  187.8010  179.0430  136.5430 N   0  0  0  0  0  1  0  0  0  0  0  0
  190.2120  176.5750  138.8660 N   0  0  0  0  0  0  0  0  0  0  0  0
  189.0550  178.6200  138.5690 C   0  0  0  0  0  3  0  0  0  0  0  0
  188.6210  178.1790  137.3210 C   0  0  0  0  0  0  0  0  0  0  0  0
  188.9920  176.8190  136.7550 C   0  0  0  0  0  0  0  0  0  0  0  0
  190.5630  175.3240  138.3430 N   0  0  0  0  0  2  0  0  0  0  0  0
  189.7440  176.2010  137.6090 C   0  0  0  0  0  0  0  0  0  0  0  0
  1  2  1  0  0  0  0
  1  3  1  0  0  0  0
  2  3  1  0  0  0  0
  2 20  1  1  0  0  0
  3  4  1  1  0  0  0
  4 15  1  0  0  0  0
  4  5  2  0  0  0  0
  6  8  1  0  0  0  0
  6  7  1  0  0  0  0
  7 10  1  0  0  0  0
  8 12  2  0  0  0  0
  9  8  1  0  0  0  0
  9 15  2  0  0  0  0
 11 13  1  0  0  0  0
 12 10  1  0  0  0  0
 12 13  1  0  0  0  0
 13 16  1  1  0  0  0
 14  7  2  0  0  0  0
 15 11  1  0  0  0  0
 17  6  1  0  0  0  0
 19 18  1  0  0  0  0
 19 17  1  0  0  0  0
 21 20  1  0  0  0  0
 22 23  1  0  0  0  0
 22  1  1  0  0  0  0
 24 25  1  0  0  0  0
 24 23  1  0  0  0  0
 26 25  1  1  0  0  0
 27 32  1  0  0  0  0
 28 31  1  0  0  0  0
 29 26  1  0  0  0  0
 30 26  1  0  0  0  0
 31 30  2  0  0  0  0
 32 31  1  0  0  0  0
 32 34  2  0  0  0  0
 33 29  1  0  0  0  0
 34 33  1  0  0  0  0
 34 29  1  0  0  0  0
M  END
>  <MODEL>
9

>  <REMARK>
 VINA RESULT:      -8.3      2.207      4.938
  Name = 
  10 active torsions:
  status: ('A' for Active; 'I' for Inactive)
    1  A    between atoms: C_1  and  C_30
    2  A    between atoms: C_2  and  C_13
    3  A    between atoms: C_2  and  C_28
    4  A    between atoms: N_3  and  C_25
    5  A    between atoms: N_4  and  C_19
    6  A    between atoms: C_9  and  C_12
    7  A    between atoms: N_16  and  C_30
    8  A    between atoms: N_16  and  C_34
    9  A    between atoms: C_19  and  C_34
   10  A    between atoms: C_25  and  C_32
                            x       y       z     vdW  Elec       q    Type
                         _______ _______ _______ _____ _____    ______ ____

>  <TORSDO>
F 10

$$$$
