=
 OpenBabel11042411153D

 54 58  0  0  1  0  0  0  0  0999 V2000
  186.5720  178.6230  139.0200 O   0  0  0  0  0  0  0  0  0  0  0  0
  189.5610  176.6100  139.3490 C   0  0  1  0  0  3  0  0  0  0  0  0
  188.1440  178.0570  140.6720 N   0  0  0  0  0  0  0  0  0  0  0  0
  187.6310  178.0310  139.3550 C   0  0  0  0  0  0  0  0  0  0  0  0
  189.3120  177.2530  140.6780 C   0  0  0  0  0  0  0  0  0  0  0  0
  190.5150  176.5760  142.8160 O   0  0  0  0  0  0  0  0  0  0  0  0
  189.9300  176.9050  141.7760 C   0  0  0  0  0  0  0  0  0  0  0  0
  188.4390  177.1820  138.4310 C   0  0  1  0  0  3  0  0  0  0  0  0
  188.9260  178.0190  137.2480 C   0  0  0  0  0  2  0  0  0  0  0  0
  188.6830  177.3290  136.0250 O   0  0  0  0  0  0  0  0  0  0  0  0
  188.7230  174.4440  136.4190 N   0  0  0  0  0  0  0  0  0  0  0  0
  187.6160  175.0860  135.9540 C   0  0  0  0  0  0  0  0  0  0  0  0
  185.2770  176.3050  135.0740 C   0  0  0  0  0  3  0  0  0  0  0  0
  186.3990  177.0880  135.3500 C   0  0  0  0  0  3  0  0  0  0  0  0
  186.4720  172.9510  135.8270 C   0  0  0  0  0  3  0  0  0  0  0  0
  187.6280  172.3240  136.2930 C   0  0  0  0  0  3  0  0  0  0  0  0
  187.5850  176.4890  135.7820 C   0  0  0  0  0  0  0  0  0  0  0  0
  188.7530  173.0950  136.5890 C   0  0  0  0  0  3  0  0  0  0  0  0
  185.3270  174.9580  135.2280 N   0  0  0  0  0  0  0  0  0  0  0  0
  186.4550  174.3360  135.6600 C   0  0  0  0  0  0  0  0  0  0  0  0
  190.9940  176.8790  138.8810 C   0  0  0  0  0  2  0  0  0  0  0  0
  191.5730  175.6640  138.1770 C   0  0  0  0  0  2  0  0  0  0  0  0
  192.1430  176.0580  136.8250 C   0  0  0  0  0  2  0  0  0  0  0  0
  193.5970  175.6310  136.7110 C   0  0  0  0  0  2  0  0  0  0  0  0
  195.5940  175.0180  138.9260 O   0  0  0  0  0  0  0  0  0  0  0  0
  191.8800  172.0450  135.3550 O   0  0  0  0  0  0  0  0  0  0  0  0
  195.2550  172.5650  136.3900 C   0  0  0  0  0  0  0  0  0  0  0  0
  197.0480  171.0440  136.0130 N   0  0  0  0  0  0  0  0  0  0  0  0
  195.2210  174.2650  137.9890 C   0  0  0  0  0  0  0  0  0  0  0  0
  193.9270  173.1740  136.3550 C   0  0  0  0  0  0  0  0  0  0  0  0
  197.5280  169.8470  135.3510 C   0  0  0  0  0  1  0  0  0  0  0  0
  197.9850  171.8050  136.8630 C   0  0  0  0  0  2  0  0  0  0  0  0
  196.0520  173.2470  137.3700 C   0  0  0  0  0  0  0  0  0  0  0  0
  195.7080  171.4920  135.7470 C   0  0  0  0  0  3  0  0  0  0  0  0
  192.8750  172.5940  135.8410 C   0  0  0  0  0  0  0  0  0  0  0  0
  193.8440  174.2820  137.3820 C   0  0  2  0  0  3  0  0  0  0  0  0
  197.3090  172.9060  137.6520 C   0  0  0  0  0  3  0  0  0  0  0  0
  187.6710  178.9150  141.7500 C   0  0  0  0  0  2  0  0  0  0  0  0
  186.5480  178.2240  142.5060 C   0  0  0  0  0  2  0  0  0  0  0  0
  185.2320  178.9560  142.2990 C   0  0  1  0  0  3  0  0  0  0  0  0
  184.2330  178.0400  141.7670 N   0  0  0  0  0  2  0  0  0  0  0  0
  183.5210  178.7560  140.7230 C   0  0  0  0  0  2  0  0  0  0  0  0
  182.0500  178.4030  140.7790 C   0  0  0  0  0  2  0  0  0  0  0  0
  181.4800  178.8370  142.1130 C   0  0  0  0  0  1  0  0  0  0  0  0
  184.7760  179.4750  143.5790 N   0  0  0  0  0  2  0  0  0  0  0  0
  185.1990  178.5410  144.6130 C   0  0  0  0  0  2  0  0  0  0  0  0
  184.6050  178.9040  145.8930 N   0  0  0  0  0  2  0  0  0  0  0  0
  185.6550  179.2650  146.7520 N   0  0  0  0  0  2  0  0  0  0  0  0
  186.6870  178.2450  146.6260 C   0  0  0  0  0  2  0  0  0  0  0  0
  187.4560  178.0950  147.9340 C   0  0  0  0  0  2  0  0  0  0  0  0
  189.6220  177.5930  146.9890 N   0  0  0  0  0  0  0  0  0  0  0  0
  188.6620  177.2280  147.7570 C   0  0  0  0  0  3  0  0  0  0  0  0
  190.7830  176.7590  146.8190 C   0  0  0  0  0  2  0  0  0  0  0  0
  191.6570  177.3390  145.9000 O   0  0  0  0  0  1  0  0  0  0  0  0
  1  4  2  0  0  0  0
  2 21  1  6  0  0  0
  2  5  1  0  0  0  0
  3  5  1  0  0  0  0
  3 38  1  0  0  0  0
  4  3  1  0  0  0  0
  5  7  2  0  0  0  0
  7  6  2  0  0  0  0
  8  9  1  6  0  0  0
  8  2  1  0  0  0  0
  8  4  1  0  0  0  0
 10  9  1  0  0  0  0
 11 18  1  0  0  0  0
 12 11  2  0  0  0  0
 13 19  2  0  0  0  0
 13 14  1  0  0  0  0
 14 17  2  0  0  0  0
 15 16  1  0  0  0  0
 16 18  2  0  0  0  0
 17 12  1  0  0  0  0
 17 10  1  0  0  0  0
 19 20  1  0  0  0  0
 20 15  2  0  0  0  0
 20 12  1  0  0  0  0
 22 21  1  0  0  0  0
 23 22  1  0  0  0  0
 24 23  1  0  0  0  0
 26 35  2  0  0  0  0
 27 33  1  0  0  0  0
 28 32  1  0  0  0  0
 29 25  2  0  0  0  0
 30 27  1  0  0  0  0
 30 36  1  0  0  0  0
 31 28  1  0  0  0  0
 32 37  1  0  0  0  0
 33 37  2  0  0  0  0
 33 29  1  0  0  0  0
 34 28  1  0  0  0  0
 34 27  2  0  0  0  0
 35 30  2  0  0  0  0
 36 24  1  6  0  0  0
 36 29  1  0  0  0  0
 38 39  1  0  0  0  0
 40 39  1  1  0  0  0
 40 45  1  0  0  0  0
 41 40  1  0  0  0  0
 42 43  1  0  0  0  0
 42 41  1  0  0  0  0
 43 44  1  0  0  0  0
 45 46  1  0  0  0  0
 46 47  1  0  0  0  0
 47 48  1  0  0  0  0
 49 48  1  0  0  0  0
 49 50  1  0  0  0  0
 51 52  2  0  0  0  0
 52 50  1  0  0  0  0
 53 51  1  0  0  0  0
 54 53  1  0  0  0  0
M  END
>  <MODEL>
1

>  <REMARK>
 VINA RESULT:      -6.9      0.000      0.000
  Name = 
  22 active torsions:
  status: ('A' for Active; 'I' for Inactive)
    1  A    between atoms: C_1  and  C_12
    2  A    between atoms: N_2  and  C_17
    3  A    between atoms: N_2  and  C_46
    4  A    between atoms: O_5  and  C_23
    5  A    between atoms: O_5  and  C_36
    6  A    between atoms: C_7  and  C_15
    7  A    between atoms: C_7  and  N_21
    8  A    between atoms: C_8  and  C_35
    9  A    between atoms: C_12  and  N_30
   10  A    between atoms: C_15  and  C_17
   11  A    between atoms: C_17  and  N_30
   12  A    between atoms: C_19  and  N_47
   13  A    between atoms: C_19  and  C_52
   14  A    between atoms: C_23  and  C_53
   15  A    between atoms: N_24  and  C_41
   16  A    between atoms: N_26  and  C_46
   17  A    between atoms: N_26  and  N_47
   18  A    between atoms: C_28  and  C_34
   19  A    between atoms: C_28  and  C_40
   20  A    between atoms: C_34  and  C_35
   21  A    between atoms: C_40  and  C_49
   22  A    between atoms: C_44  and  C_52
                            x       y       z     vdW  Elec       q    Type
                         _______ _______ _______ _____ _____    ______ ____

>  <TORSDO>
F 22

$$$$
=
 OpenBabel11042411153D

 54 58  0  0  1  0  0  0  0  0999 V2000
  191.8610  176.9840  141.4600 O   0  0  0  0  0  0  0  0  0  0  0  0
  189.0150  176.8520  139.2290 C   0  0  1  0  0  3  0  0  0  0  0  0
  191.4280  177.0110  139.1510 N   0  0  0  0  0  0  0  0  0  0  0  0
  191.0360  176.9920  140.5090 C   0  0  0  0  0  0  0  0  0  0  0  0
  190.2410  176.9710  138.3770 C   0  0  0  0  0  0  0  0  0  0  0  0
  190.2430  176.6080  135.8580 O   0  0  0  0  0  0  0  0  0  0  0  0
  190.2420  176.7850  137.0830 C   0  0  0  0  0  0  0  0  0  0  0  0
  189.5570  176.9170  140.6890 C   0  0  1  0  0  3  0  0  0  0  0  0
  189.0720  178.1100  141.5130 C   0  0  0  0  0  2  0  0  0  0  0  0
  188.2800  177.6610  142.6080 O   0  0  0  0  0  0  0  0  0  0  0  0
  186.6230  178.2220  144.9370 N   0  0  0  0  0  0  0  0  0  0  0  0
  187.9270  177.8520  145.0610 C   0  0  0  0  0  0  0  0  0  0  0  0
  190.5580  177.0310  145.4320 C   0  0  0  0  0  3  0  0  0  0  0  0
  190.0450  177.1360  144.1380 C   0  0  0  0  0  3  0  0  0  0  0  0
  187.7100  178.0190  147.4710 C   0  0  0  0  0  3  0  0  0  0  0  0
  186.3800  178.4070  147.3070 C   0  0  0  0  0  3  0  0  0  0  0  0
  188.7290  177.5580  143.9350 C   0  0  0  0  0  0  0  0  0  0  0  0
  185.8490  178.5010  146.0200 C   0  0  0  0  0  3  0  0  0  0  0  0
  189.7810  177.3330  146.5020 N   0  0  0  0  0  0  0  0  0  0  0  0
  188.4920  177.7330  146.3510 C   0  0  0  0  0  0  0  0  0  0  0  0
  187.9960  177.9330  138.8570 C   0  0  0  0  0  2  0  0  0  0  0  0
  187.0010  177.4130  137.8330 C   0  0  0  0  0  2  0  0  0  0  0  0
  185.7920  178.3300  137.7560 C   0  0  0  0  0  2  0  0  0  0  0  0
  184.6980  177.8520  138.6970 C   0  0  0  0  0  2  0  0  0  0  0  0
  185.7790  179.4220  141.0720 O   0  0  0  0  0  0  0  0  0  0  0  0
  180.7430  179.0420  137.9270 O   0  0  0  0  0  0  0  0  0  0  0  0
  182.3100  178.6940  141.1140 C   0  0  0  0  0  0  0  0  0  0  0  0
  181.1650  178.6670  143.2010 N   0  0  0  0  0  0  0  0  0  0  0  0
  184.5800  179.1430  140.8070 C   0  0  0  0  0  0  0  0  0  0  0  0
  182.5620  178.7210  139.6750 C   0  0  0  0  0  0  0  0  0  0  0  0
  179.9040  178.6030  143.9130 C   0  0  0  0  0  1  0  0  0  0  0  0
  182.4150  178.7150  143.9850 C   0  0  0  0  0  2  0  0  0  0  0  0
  183.5470  178.9270  141.8060 C   0  0  0  0  0  0  0  0  0  0  0  0
  181.1550  178.5910  141.7660 C   0  0  0  0  0  3  0  0  0  0  0  0
  181.6280  178.8860  138.7760 C   0  0  0  0  0  0  0  0  0  0  0  0
  184.0230  179.0180  139.4150 C   0  0  2  0  0  3  0  0  0  0  0  0
  183.6380  178.9850  143.1330 C   0  0  0  0  0  3  0  0  0  0  0  0
  192.7810  177.2390  138.6610 C   0  0  0  0  0  2  0  0  0  0  0  0
  193.5480  175.9270  138.6310 C   0  0  0  0  0  2  0  0  0  0  0  0
  193.7700  175.4680  137.1990 C   0  0  1  0  0  3  0  0  0  0  0  0
  195.1730  175.6180  136.8420 N   0  0  0  0  0  2  0  0  0  0  0  0
  195.2440  175.5870  135.3920 C   0  0  0  0  0  2  0  0  0  0  0  0
  196.4330  174.7560  134.9600 C   0  0  0  0  0  2  0  0  0  0  0  0
  197.0260  174.0610  136.1680 C   0  0  0  0  0  1  0  0  0  0  0  0
  193.3910  174.0690  137.0900 N   0  0  0  0  0  2  0  0  0  0  0  0
  192.4100  173.9570  136.0190 C   0  0  0  0  0  2  0  0  0  0  0  0
  191.1900  173.3350  136.5170 N   0  0  0  0  0  2  0  0  0  0  0  0
  190.4880  172.8460  135.4060 N   0  0  0  0  0  2  0  0  0  0  0  0
  189.1350  173.3790  135.4800 C   0  0  0  0  0  2  0  0  0  0  0  0
  188.6650  173.4540  136.9290 C   0  0  0  0  0  2  0  0  0  0  0  0
  186.3210  173.5930  137.4920 N   0  0  0  0  0  0  0  0  0  0  0  0
  187.2980  172.8680  137.0870 C   0  0  0  0  0  3  0  0  0  0  0  0
  185.0040  173.0290  137.6440 C   0  0  0  0  0  2  0  0  0  0  0  0
  184.0710  174.0460  137.8480 O   0  0  0  0  0  1  0  0  0  0  0  0
  2 21  1  6  0  0  0
  2  8  1  0  0  0  0
  3  4  1  0  0  0  0
  4  8  1  0  0  0  0
  4  1  2  0  0  0  0
  5  3  1  0  0  0  0
  5  2  1  0  0  0  0
  6  7  2  0  0  0  0
  7  5  2  0  0  0  0
  8  9  1  6  0  0  0
  9 10  1  0  0  0  0
 10 17  1  0  0  0  0
 11 12  2  0  0  0  0
 11 18  1  0  0  0  0
 12 20  1  0  0  0  0
 13 19  2  0  0  0  0
 14 13  1  0  0  0  0
 16 15  1  0  0  0  0
 17 14  2  0  0  0  0
 17 12  1  0  0  0  0
 18 16  2  0  0  0  0
 20 19  1  0  0  0  0
 20 15  2  0  0  0  0
 22 21  1  0  0  0  0
 23 22  1  0  0  0  0
 23 24  1  0  0  0  0
 26 35  2  0  0  0  0
 27 34  2  0  0  0  0
 27 33  1  0  0  0  0
 28 31  1  0  0  0  0
 28 32  1  0  0  0  0
 29 25  2  0  0  0  0
 29 33  1  0  0  0  0
 30 27  1  0  0  0  0
 33 37  2  0  0  0  0
 34 28  1  0  0  0  0
 35 30  2  0  0  0  0
 36 24  1  1  0  0  0
 36 30  1  0  0  0  0
 36 29  1  0  0  0  0
 37 32  1  0  0  0  0
 38  3  1  0  0  0  0
 39 38  1  0  0  0  0
 40 39  1  1  0  0  0
 41 40  1  0  0  0  0
 42 41  1  0  0  0  0
 43 42  1  0  0  0  0
 43 44  1  0  0  0  0
 45 40  1  0  0  0  0
 46 47  1  0  0  0  0
 46 45  1  0  0  0  0
 48 49  1  0  0  0  0
 48 47  1  0  0  0  0
 49 50  1  0  0  0  0
 50 52  1  0  0  0  0
 51 53  1  0  0  0  0
 52 51  2  0  0  0  0
 53 54  1  0  0  0  0
M  END
>  <MODEL>
2

>  <REMARK>
 VINA RESULT:      -6.8      2.323     11.558
  Name = 
  22 active torsions:
  status: ('A' for Active; 'I' for Inactive)
    1  A    between atoms: C_1  and  C_12
    2  A    between atoms: N_2  and  C_17
    3  A    between atoms: N_2  and  C_46
    4  A    between atoms: O_5  and  C_23
    5  A    between atoms: O_5  and  C_36
    6  A    between atoms: C_7  and  C_15
    7  A    between atoms: C_7  and  N_21
    8  A    between atoms: C_8  and  C_35
    9  A    between atoms: C_12  and  N_30
   10  A    between atoms: C_15  and  C_17
   11  A    between atoms: C_17  and  N_30
   12  A    between atoms: C_19  and  N_47
   13  A    between atoms: C_19  and  C_52
   14  A    between atoms: C_23  and  C_53
   15  A    between atoms: N_24  and  C_41
   16  A    between atoms: N_26  and  C_46
   17  A    between atoms: N_26  and  N_47
   18  A    between atoms: C_28  and  C_34
   19  A    between atoms: C_28  and  C_40
   20  A    between atoms: C_34  and  C_35
   21  A    between atoms: C_40  and  C_49
   22  A    between atoms: C_44  and  C_52
                            x       y       z     vdW  Elec       q    Type
                         _______ _______ _______ _____ _____    ______ ____

>  <TORSDO>
F 22

$$$$
=
 OpenBabel11042411153D

 54 58  0  0  1  0  0  0  0  0999 V2000
  181.8910  178.6780  144.1210 O   0  0  0  0  0  0  0  0  0  0  0  0
  183.2970  178.5620  140.7880 C   0  0  1  0  0  3  0  0  0  0  0  0
  183.9640  179.0140  143.0690 N   0  0  0  0  0  0  0  0  0  0  0  0
  182.5780  178.7370  143.0670 C   0  0  0  0  0  0  0  0  0  0  0  0
  184.4000  178.9560  141.7210 C   0  0  0  0  0  0  0  0  0  0  0  0
  186.8570  178.9930  141.0570 O   0  0  0  0  0  0  0  0  0  0  0  0
  185.6620  178.9750  141.3800 C   0  0  0  0  0  0  0  0  0  0  0  0
  182.0390  178.4610  141.7040 C   0  0  1  0  0  3  0  0  0  0  0  0
  180.9150  179.4460  141.3800 C   0  0  0  0  0  2  0  0  0  0  0  0
  179.7480  178.7410  140.9690 O   0  0  0  0  0  0  0  0  0  0  0  0
  179.3270  175.8660  141.1640 N   0  0  0  0  0  0  0  0  0  0  0  0
  179.4960  176.4820  139.9630 C   0  0  0  0  0  0  0  0  0  0  0  0
  179.7540  177.6500  137.4520 C   0  0  0  0  0  3  0  0  0  0  0  0
  179.7960  178.4530  138.5920 C   0  0  0  0  0  3  0  0  0  0  0  0
  179.2800  174.3300  138.8660 C   0  0  0  0  0  3  0  0  0  0  0  0
  179.1220  173.7290  140.1150 C   0  0  0  0  0  3  0  0  0  0  0  0
  179.6790  177.8800  139.8610 C   0  0  0  0  0  0  0  0  0  0  0  0
  179.1460  174.5220  141.2640 C   0  0  0  0  0  3  0  0  0  0  0  0
  179.5940  176.3070  137.5660 N   0  0  0  0  0  0  0  0  0  0  0  0
  179.4620  175.7110  138.7790 C   0  0  0  0  0  0  0  0  0  0  0  0
  183.1890  179.5600  139.6320 C   0  0  0  0  0  2  0  0  0  0  0  0
  183.2790  178.8510  138.2910 C   0  0  0  0  0  2  0  0  0  0  0  0
  184.2110  177.6550  138.3870 C   0  0  0  0  0  2  0  0  0  0  0  0
  183.5990  176.4430  137.7020 C   0  0  0  0  0  2  0  0  0  0  0  0
  183.4960  173.7140  136.3560 O   0  0  0  0  0  0  0  0  0  0  0  0
  186.8710  178.6120  136.2030 O   0  0  0  0  0  0  0  0  0  0  0  0
  186.7200  175.1050  136.8490 C   0  0  0  0  0  0  0  0  0  0  0  0
  188.6020  173.6490  136.9240 N   0  0  0  0  0  0  0  0  0  0  0  0
  184.5000  174.4530  136.5370 C   0  0  0  0  0  0  0  0  0  0  0  0
  185.9130  176.3200  136.7520 C   0  0  0  0  0  0  0  0  0  0  0  0
  190.0440  173.5020  136.9450 C   0  0  0  0  0  1  0  0  0  0  0  0
  187.7670  172.4350  137.0080 C   0  0  0  0  0  2  0  0  0  0  0  0
  185.8530  173.9650  136.7420 C   0  0  0  0  0  0  0  0  0  0  0  0
  188.0420  174.9730  136.9130 C   0  0  0  0  0  3  0  0  0  0  0  0
  186.4050  177.4980  136.4700 C   0  0  0  0  0  0  0  0  0  0  0  0
  184.4600  175.9570  136.5400 C   0  0  2  0  0  3  0  0  0  0  0  0
  186.2970  172.7090  136.7710 C   0  0  0  0  0  3  0  0  0  0  0  0
  184.7370  179.4730  144.2150 C   0  0  0  0  0  2  0  0  0  0  0  0
  185.2810  178.2790  144.9840 C   0  0  0  0  0  2  0  0  0  0  0  0
  186.7970  178.2250  144.8890 C   0  0  1  0  0  3  0  0  0  0  0  0
  187.3880  178.5810  146.1700 N   0  0  0  0  0  2  0  0  0  0  0  0
  187.3720  177.3810  146.9880 C   0  0  0  0  0  2  0  0  0  0  0  0
  188.5950  177.3590  147.8790 C   0  0  0  0  0  2  0  0  0  0  0  0
  189.8130  177.0010  147.0520 C   0  0  0  0  0  1  0  0  0  0  0  0
  187.1970  176.8740  144.5320 N   0  0  0  0  0  2  0  0  0  0  0  0
  188.2090  176.9710  143.4890 C   0  0  0  0  0  2  0  0  0  0  0  0
  188.5870  175.6410  143.0280 N   0  0  0  0  0  2  0  0  0  0  0  0
  189.9450  175.6910  142.6800 N   0  0  0  0  0  2  0  0  0  0  0  0
  190.4120  177.0440  142.9500 C   0  0  0  0  0  2  0  0  0  0  0  0
  191.5850  177.3980  142.0430 C   0  0  0  0  0  2  0  0  0  0  0  0
  190.0920  177.7350  140.1740 N   0  0  0  0  0  0  0  0  0  0  0  0
  191.2110  177.2760  140.5990 C   0  0  0  0  0  3  0  0  0  0  0  0
  189.7320  177.6190  138.7850 C   0  0  0  0  0  2  0  0  0  0  0  0
  190.7990  177.0920  138.0570 O   0  0  0  0  0  1  0  0  0  0  0  0
  2 21  1  6  0  0  0
  2  8  1  0  0  0  0
  2  5  1  0  0  0  0
  3 38  1  0  0  0  0
  4  3  1  0  0  0  0
  4  1  2  0  0  0  0
  5  3  1  0  0  0  0
  6  7  2  0  0  0  0
  7  5  2  0  0  0  0
  8  9  1  6  0  0  0
  8  4  1  0  0  0  0
 10  9  1  0  0  0  0
 11 18  1  0  0  0  0
 12 11  2  0  0  0  0
 13 19  2  0  0  0  0
 13 14  1  0  0  0  0
 14 17  2  0  0  0  0
 15 16  1  0  0  0  0
 16 18  2  0  0  0  0
 17 12  1  0  0  0  0
 17 10  1  0  0  0  0
 19 20  1  0  0  0  0
 20 15  2  0  0  0  0
 20 12  1  0  0  0  0
 22 23  1  0  0  0  0
 22 21  1  0  0  0  0
 24 23  1  0  0  0  0
 25 29  2  0  0  0  0
 26 35  2  0  0  0  0
 27 34  2  0  0  0  0
 28 31  1  0  0  0  0
 28 32  1  0  0  0  0
 29 36  1  0  0  0  0
 29 33  1  0  0  0  0
 30 27  1  0  0  0  0
 33 37  2  0  0  0  0
 33 27  1  0  0  0  0
 34 28  1  0  0  0  0
 35 30  2  0  0  0  0
 36 30  1  0  0  0  0
 36 24  1  1  0  0  0
 37 32  1  0  0  0  0
 38 39  1  0  0  0  0
 40 39  1  1  0  0  0
 40 41  1  0  0  0  0
 41 42  1  0  0  0  0
 42 43  1  0  0  0  0
 44 43  1  0  0  0  0
 45 40  1  0  0  0  0
 46 45  1  0  0  0  0
 47 46  1  0  0  0  0
 48 49  1  0  0  0  0
 48 47  1  0  0  0  0
 50 49  1  0  0  0  0
 51 52  2  0  0  0  0
 52 50  1  0  0  0  0
 53 51  1  0  0  0  0
 54 53  1  0  0  0  0
M  END
>  <MODEL>
3

>  <REMARK>
 VINA RESULT:      -6.7      3.623      8.017
  Name = 
  22 active torsions:
  status: ('A' for Active; 'I' for Inactive)
    1  A    between atoms: C_1  and  C_12
    2  A    between atoms: N_2  and  C_17
    3  A    between atoms: N_2  and  C_46
    4  A    between atoms: O_5  and  C_23
    5  A    between atoms: O_5  and  C_36
    6  A    between atoms: C_7  and  C_15
    7  A    between atoms: C_7  and  N_21
    8  A    between atoms: C_8  and  C_35
    9  A    between atoms: C_12  and  N_30
   10  A    between atoms: C_15  and  C_17
   11  A    between atoms: C_17  and  N_30
   12  A    between atoms: C_19  and  N_47
   13  A    between atoms: C_19  and  C_52
   14  A    between atoms: C_23  and  C_53
   15  A    between atoms: N_24  and  C_41
   16  A    between atoms: N_26  and  C_46
   17  A    between atoms: N_26  and  N_47
   18  A    between atoms: C_28  and  C_34
   19  A    between atoms: C_28  and  C_40
   20  A    between atoms: C_34  and  C_35
   21  A    between atoms: C_40  and  C_49
   22  A    between atoms: C_44  and  C_52
                            x       y       z     vdW  Elec       q    Type
                         _______ _______ _______ _____ _____    ______ ____

>  <TORSDO>
F 22

$$$$
=
 OpenBabel11042411153D

 54 58  0  0  1  0  0  0  0  0999 V2000
  182.6090  178.9890  143.9290 O   0  0  0  0  0  0  0  0  0  0  0  0
  185.7600  179.0570  142.1490 C   0  0  1  0  0  3  0  0  0  0  0  0
  183.4030  178.6950  141.7380 N   0  0  0  0  0  0  0  0  0  0  0  0
  183.5740  178.9240  143.1220 C   0  0  0  0  0  0  0  0  0  0  0  0
  184.6930  178.7300  141.1500 C   0  0  0  0  0  0  0  0  0  0  0  0
  185.0680  178.7580  138.6330 O   0  0  0  0  0  0  0  0  0  0  0  0
  184.8860  178.7440  139.8570 C   0  0  0  0  0  0  0  0  0  0  0  0
  184.9990  179.1410  143.5070 C   0  0  1  0  0  3  0  0  0  0  0  0
  185.4170  178.1090  144.5550 C   0  0  0  0  0  2  0  0  0  0  0  0
  186.8380  178.0460  144.6420 O   0  0  0  0  0  0  0  0  0  0  0  0
  189.6150  177.1770  144.7630 N   0  0  0  0  0  0  0  0  0  0  0  0
  188.9040  177.4550  145.8900 C   0  0  0  0  0  0  0  0  0  0  0  0
  187.5690  178.0690  148.2510 C   0  0  0  0  0  3  0  0  0  0  0  0
  186.9090  178.2130  147.0290 C   0  0  0  0  0  3  0  0  0  0  0  0
  190.8530  176.8890  147.2180 C   0  0  0  0  0  3  0  0  0  0  0  0
  191.5480  176.6010  146.0430 C   0  0  0  0  0  3  0  0  0  0  0  0
  187.5630  177.8970  145.8350 C   0  0  0  0  0  0  0  0  0  0  0  0
  190.9070  176.7560  144.8130 C   0  0  0  0  0  3  0  0  0  0  0  0
  188.8510  177.6270  148.2880 N   0  0  0  0  0  0  0  0  0  0  0  0
  189.5290  177.3230  147.1510 C   0  0  0  0  0  0  0  0  0  0  0  0
  186.8870  178.0230  142.0900 C   0  0  0  0  0  2  0  0  0  0  0  0
  188.1020  178.5840  141.3700 C   0  0  0  0  0  2  0  0  0  0  0  0
  188.3290  177.8460  140.0620 C   0  0  0  0  0  2  0  0  0  0  0  0
  189.2780  178.6240  139.1650 C   0  0  0  0  0  2  0  0  0  0  0  0
  187.7660  179.5160  136.6770 O   0  0  0  0  0  0  0  0  0  0  0  0
  191.3450  175.0620  138.3360 O   0  0  0  0  0  0  0  0  0  0  0  0
  188.1240  176.0180  137.1330 C   0  0  0  0  0  0  0  0  0  0  0  0
  186.5740  174.5550  136.0720 N   0  0  0  0  0  0  0  0  0  0  0  0
  188.1150  178.3480  136.9960 C   0  0  0  0  0  0  0  0  0  0  0  0
  189.3120  176.5050  137.8320 C   0  0  0  0  0  0  0  0  0  0  0  0
  186.2060  173.1980  135.7190 C   0  0  0  0  0  1  0  0  0  0  0  0
  185.6620  175.6530  135.6990 C   0  0  0  0  0  2  0  0  0  0  0  0
  187.3810  177.1450  136.6440 C   0  0  0  0  0  0  0  0  0  0  0  0
  187.7650  174.7690  136.8480 C   0  0  0  0  0  3  0  0  0  0  0  0
  190.3560  175.7640  138.0910 C   0  0  0  0  0  0  0  0  0  0  0  0
  189.3620  178.0150  137.7680 C   0  0  2  0  0  3  0  0  0  0  0  0
  186.2560  177.0250  135.9410 C   0  0  0  0  0  3  0  0  0  0  0  0
  182.1610  178.2960  141.0890 C   0  0  0  0  0  2  0  0  0  0  0  0
  181.7110  179.3810  140.1240 C   0  0  0  0  0  2  0  0  0  0  0  0
  180.5190  178.9110  139.3060 C   0  0  1  0  0  3  0  0  0  0  0  0
  179.3170  179.6110  139.7330 N   0  0  0  0  0  2  0  0  0  0  0  0
  179.7240  180.9510  140.1160 C   0  0  0  0  0  2  0  0  0  0  0  0
  178.9340  181.3930  141.3290 C   0  0  0  0  0  2  0  0  0  0  0  0
  179.2630  180.4900  142.5000 C   0  0  0  0  0  1  0  0  0  0  0  0
  180.7700  179.1960  137.9030 N   0  0  0  0  0  2  0  0  0  0  0  0
  181.7380  178.2220  137.4180 C   0  0  0  0  0  2  0  0  0  0  0  0
  181.7160  178.1720  135.9610 N   0  0  0  0  0  2  0  0  0  0  0  0
  180.6320  177.3620  135.5890 N   0  0  0  0  0  2  0  0  0  0  0  0
  180.9060  176.0200  136.0830 C   0  0  0  0  0  2  0  0  0  0  0  0
  182.0130  175.3620  135.2670 C   0  0  0  0  0  2  0  0  0  0  0  0
  181.5150  173.4040  136.5910 N   0  0  0  0  0  0  0  0  0  0  0  0
  182.1230  173.9030  135.5780 C   0  0  0  0  0  3  0  0  0  0  0  0
  181.6190  171.9990  136.8910 C   0  0  0  0  0  2  0  0  0  0  0  0
  180.5650  171.6080  137.7170 O   0  0  0  0  0  1  0  0  0  0  0  0
  2 21  1  1  0  0  0
  2  8  1  0  0  0  0
  3  4  1  0  0  0  0
  4  8  1  0  0  0  0
  4  1  2  0  0  0  0
  5  3  1  0  0  0  0
  5  2  1  0  0  0  0
  6  7  2  0  0  0  0
  7  5  2  0  0  0  0
  8  9  1  1  0  0  0
  9 10  1  0  0  0  0
 10 17  1  0  0  0  0
 11 18  2  0  0  0  0
 11 12  1  0  0  0  0
 12 20  1  0  0  0  0
 13 19  1  0  0  0  0
 14 13  2  0  0  0  0
 16 15  2  0  0  0  0
 17 12  2  0  0  0  0
 17 14  1  0  0  0  0
 18 16  1  0  0  0  0
 20 15  1  0  0  0  0
 20 19  2  0  0  0  0
 22 21  1  0  0  0  0
 23 22  1  0  0  0  0
 24 23  1  0  0  0  0
 25 29  2  0  0  0  0
 27 30  1  0  0  0  0
 28 34  1  0  0  0  0
 29 36  1  0  0  0  0
 30 35  2  0  0  0  0
 31 28  1  0  0  0  0
 32 37  1  0  0  0  0
 32 28  1  0  0  0  0
 33 29  1  0  0  0  0
 33 27  1  0  0  0  0
 34 27  2  0  0  0  0
 35 26  2  0  0  0  0
 36 30  1  0  0  0  0
 36 24  1  1  0  0  0
 37 33  2  0  0  0  0
 38  3  1  0  0  0  0
 39 38  1  0  0  0  0
 40 41  1  0  0  0  0
 40 39  1  1  0  0  0
 41 42  1  0  0  0  0
 42 43  1  0  0  0  0
 43 44  1  0  0  0  0
 45 40  1  0  0  0  0
 46 45  1  0  0  0  0
 47 46  1  0  0  0  0
 48 47  1  0  0  0  0
 48 49  1  0  0  0  0
 50 52  1  0  0  0  0
 50 49  1  0  0  0  0
 51 53  1  0  0  0  0
 52 51  2  0  0  0  0
 53 54  1  0  0  0  0
M  END
>  <MODEL>
4

>  <REMARK>
 VINA RESULT:      -6.7      3.786      9.270
  Name = 
  22 active torsions:
  status: ('A' for Active; 'I' for Inactive)
    1  A    between atoms: C_1  and  C_12
    2  A    between atoms: N_2  and  C_17
    3  A    between atoms: N_2  and  C_46
    4  A    between atoms: O_5  and  C_23
    5  A    between atoms: O_5  and  C_36
    6  A    between atoms: C_7  and  C_15
    7  A    between atoms: C_7  and  N_21
    8  A    between atoms: C_8  and  C_35
    9  A    between atoms: C_12  and  N_30
   10  A    between atoms: C_15  and  C_17
   11  A    between atoms: C_17  and  N_30
   12  A    between atoms: C_19  and  N_47
   13  A    between atoms: C_19  and  C_52
   14  A    between atoms: C_23  and  C_53
   15  A    between atoms: N_24  and  C_41
   16  A    between atoms: N_26  and  C_46
   17  A    between atoms: N_26  and  N_47
   18  A    between atoms: C_28  and  C_34
   19  A    between atoms: C_28  and  C_40
   20  A    between atoms: C_34  and  C_35
   21  A    between atoms: C_40  and  C_49
   22  A    between atoms: C_44  and  C_52
                            x       y       z     vdW  Elec       q    Type
                         _______ _______ _______ _____ _____    ______ ____

>  <TORSDO>
F 22

$$$$
=
 OpenBabel11042411153D

 54 58  0  0  1  0  0  0  0  0999 V2000
  193.8190  177.0190  140.1390 O   0  0  0  0  0  0  0  0  0  0  0  0
  190.7710  176.9260  138.1900 C   0  0  1  0  0  3  0  0  0  0  0  0
  191.5120  177.3290  140.4570 N   0  0  0  0  0  0  0  0  0  0  0  0
  192.6470  177.0050  139.6790 C   0  0  0  0  0  0  0  0  0  0  0  0
  190.3850  177.2460  139.6010 C   0  0  0  0  0  0  0  0  0  0  0  0
  188.0720  178.0660  140.2740 O   0  0  0  0  0  0  0  0  0  0  0  0
  189.1970  177.6670  139.9470 C   0  0  0  0  0  0  0  0  0  0  0  0
  192.3140  176.7120  138.2550 C   0  0  1  0  0  3  0  0  0  0  0  0
  192.7950  175.3080  137.8860 C   0  0  0  0  0  2  0  0  0  0  0  0
  193.3330  175.3030  136.5680 O   0  0  0  0  0  0  0  0  0  0  0  0
  195.6000  173.6390  137.3270 N   0  0  0  0  0  0  0  0  0  0  0  0
  195.7660  174.7990  136.6340 C   0  0  0  0  0  0  0  0  0  0  0  0
  196.2130  177.1100  135.1530 C   0  0  0  0  0  3  0  0  0  0  0  0
  194.9070  176.7510  135.4920 C   0  0  0  0  0  3  0  0  0  0  0  0
  198.1620  174.4240  136.6470 C   0  0  0  0  0  3  0  0  0  0  0  0
  197.9560  173.2470  137.3670 C   0  0  0  0  0  3  0  0  0  0  0  0
  194.6670  175.5990  136.2450 C   0  0  0  0  0  0  0  0  0  0  0  0
  196.6550  172.8660  137.6990 C   0  0  0  0  0  3  0  0  0  0  0  0
  197.2590  176.3410  135.5490 N   0  0  0  0  0  0  0  0  0  0  0  0
  197.0700  175.2060  136.2700 C   0  0  0  0  0  0  0  0  0  0  0  0
  189.9640  175.7340  137.6690 C   0  0  0  0  0  2  0  0  0  0  0  0
  189.7900  175.8110  136.1620 C   0  0  0  0  0  2  0  0  0  0  0  0
  188.3340  175.5960  135.7850 C   0  0  0  0  0  2  0  0  0  0  0  0
  187.4260  175.8930  136.9670 C   0  0  0  0  0  2  0  0  0  0  0  0
  187.0470  178.8930  137.3260 O   0  0  0  0  0  0  0  0  0  0  0  0
  183.8450  174.1960  135.5700 O   0  0  0  0  0  0  0  0  0  0  0  0
  184.1980  176.8660  137.9120 C   0  0  0  0  0  0  0  0  0  0  0  0
  182.4530  177.7060  139.2960 N   0  0  0  0  0  0  0  0  0  0  0  0
  186.1700  177.9900  137.3670 C   0  0  0  0  0  0  0  0  0  0  0  0
  184.9250  176.0380  136.9510 C   0  0  0  0  0  0  0  0  0  0  0  0
  181.1070  177.5500  139.8100 C   0  0  0  0  0  1  0  0  0  0  0  0
  183.2610  178.8470  139.7680 C   0  0  0  0  0  2  0  0  0  0  0  0
  184.9700  178.0460  138.1840 C   0  0  0  0  0  0  0  0  0  0  0  0
  182.9790  176.6970  138.4170 C   0  0  0  0  0  3  0  0  0  0  0  0
  184.3710  175.0920  136.2410 C   0  0  0  0  0  0  0  0  0  0  0  0
  186.2140  176.7240  136.5540 C   0  0  2  0  0  3  0  0  0  0  0  0
  184.5590  179.0100  139.0060 C   0  0  0  0  0  3  0  0  0  0  0  0
  191.4960  177.5050  141.9030 C   0  0  0  0  0  2  0  0  0  0  0  0
  190.8810  176.2830  142.5660 C   0  0  0  0  0  2  0  0  0  0  0  0
  190.4630  176.6000  143.9920 C   0  0  1  0  0  3  0  0  0  0  0  0
  191.6380  176.6850  144.8470 N   0  0  0  0  0  2  0  0  0  0  0  0
  191.2260  177.3650  146.0620 C   0  0  0  0  0  2  0  0  0  0  0  0
  191.1230  176.3630  147.1930 C   0  0  0  0  0  2  0  0  0  0  0  0
  192.3810  175.5200  147.2330 C   0  0  0  0  0  1  0  0  0  0  0  0
  189.7630  177.8740  144.0060 N   0  0  0  0  0  2  0  0  0  0  0  0
  188.3870  177.6220  144.4100 C   0  0  0  0  0  2  0  0  0  0  0  0
  187.4640  178.1730  143.4250 N   0  0  0  0  0  2  0  0  0  0  0  0
  186.3200  177.3610  143.4280 N   0  0  0  0  0  2  0  0  0  0  0  0
  185.2120  178.1750  142.9470 C   0  0  0  0  0  2  0  0  0  0  0  0
  184.7790  179.1770  144.0110 C   0  0  0  0  0  2  0  0  0  0  0  0
  182.4110  178.9790  143.5770 N   0  0  0  0  0  0  0  0  0  0  0  0
  183.3640  178.9420  144.4350 C   0  0  0  0  0  3  0  0  0  0  0  0
  181.0490  178.7510  143.9840 C   0  0  0  0  0  2  0  0  0  0  0  0
  180.2220  178.6800  142.8620 O   0  0  0  0  0  1  0  0  0  0  0  0
  2 21  1  1  0  0  0
  2  8  1  0  0  0  0
  2  5  1  0  0  0  0
  3 38  1  0  0  0  0
  4  1  2  0  0  0  0
  4  3  1  0  0  0  0
  5  7  2  0  0  0  0
  5  3  1  0  0  0  0
  7  6  2  0  0  0  0
  8  9  1  1  0  0  0
  8  4  1  0  0  0  0
 10  9  1  0  0  0  0
 11 18  1  0  0  0  0
 12 11  2  0  0  0  0
 13 14  1  0  0  0  0
 13 19  2  0  0  0  0
 14 17  2  0  0  0  0
 15 16  1  0  0  0  0
 16 18  2  0  0  0  0
 17 10  1  0  0  0  0
 17 12  1  0  0  0  0
 19 20  1  0  0  0  0
 20 12  1  0  0  0  0
 20 15  2  0  0  0  0
 22 21  1  0  0  0  0
 23 22  1  0  0  0  0
 23 24  1  0  0  0  0
 25 29  2  0  0  0  0
 26 35  2  0  0  0  0
 27 33  1  0  0  0  0
 27 34  2  0  0  0  0
 28 32  1  0  0  0  0
 28 31  1  0  0  0  0
 29 33  1  0  0  0  0
 30 27  1  0  0  0  0
 33 37  2  0  0  0  0
 34 28  1  0  0  0  0
 35 30  2  0  0  0  0
 36 30  1  0  0  0  0
 36 24  1  1  0  0  0
 36 29  1  0  0  0  0
 37 32  1  0  0  0  0
 38 39  1  0  0  0  0
 40 39  1  6  0  0  0
 40 45  1  0  0  0  0
 40 41  1  0  0  0  0
 41 42  1  0  0  0  0
 42 43  1  0  0  0  0
 43 44  1  0  0  0  0
 45 46  1  0  0  0  0
 47 48  1  0  0  0  0
 47 46  1  0  0  0  0
 49 48  1  0  0  0  0
 49 50  1  0  0  0  0
 50 52  1  0  0  0  0
 51 53  1  0  0  0  0
 51 52  2  0  0  0  0
 54 53  1  0  0  0  0
M  END
>  <MODEL>
5

>  <REMARK>
 VINA RESULT:      -6.7      2.640      8.846
  Name = 
  22 active torsions:
  status: ('A' for Active; 'I' for Inactive)
    1  A    between atoms: C_1  and  C_12
    2  A    between atoms: N_2  and  C_17
    3  A    between atoms: N_2  and  C_46
    4  A    between atoms: O_5  and  C_23
    5  A    between atoms: O_5  and  C_36
    6  A    between atoms: C_7  and  C_15
    7  A    between atoms: C_7  and  N_21
    8  A    between atoms: C_8  and  C_35
    9  A    between atoms: C_12  and  N_30
   10  A    between atoms: C_15  and  C_17
   11  A    between atoms: C_17  and  N_30
   12  A    between atoms: C_19  and  N_47
   13  A    between atoms: C_19  and  C_52
   14  A    between atoms: C_23  and  C_53
   15  A    between atoms: N_24  and  C_41
   16  A    between atoms: N_26  and  C_46
   17  A    between atoms: N_26  and  N_47
   18  A    between atoms: C_28  and  C_34
   19  A    between atoms: C_28  and  C_40
   20  A    between atoms: C_34  and  C_35
   21  A    between atoms: C_40  and  C_49
   22  A    between atoms: C_44  and  C_52
                            x       y       z     vdW  Elec       q    Type
                         _______ _______ _______ _____ _____    ______ ____

>  <TORSDO>
F 22

$$$$
=
 OpenBabel11042411153D

 54 58  0  0  1  0  0  0  0  0999 V2000
  191.2130  176.1590  142.0670 O   0  0  0  0  0  0  0  0  0  0  0  0
  188.3120  177.5370  140.3990 C   0  0  1  0  0  3  0  0  0  0  0  0
  190.6990  177.3030  140.0810 N   0  0  0  0  0  0  0  0  0  0  0  0
  190.3690  176.7370  141.3330 C   0  0  0  0  0  0  0  0  0  0  0  0
  189.4990  177.8200  139.5310 C   0  0  0  0  0  0  0  0  0  0  0  0
  189.3190  178.6450  137.1300 O   0  0  0  0  0  0  0  0  0  0  0  0
  189.4070  178.2440  138.2970 C   0  0  0  0  0  0  0  0  0  0  0  0
  188.9160  176.8390  141.6560 C   0  0  1  0  0  3  0  0  0  0  0  0
  188.7270  177.5910  142.9740 C   0  0  0  0  0  2  0  0  0  0  0  0
  187.6990  176.9790  143.7460 O   0  0  0  0  0  0  0  0  0  0  0  0
  188.9530  177.2230  146.3640 N   0  0  0  0  0  0  0  0  0  0  0  0
  187.6840  177.6590  146.1360 C   0  0  0  0  0  0  0  0  0  0  0  0
  185.1140  178.6530  145.7630 C   0  0  0  0  0  3  0  0  0  0  0  0
  185.7910  178.0770  144.6880 C   0  0  0  0  0  3  0  0  0  0  0  0
  187.5430  178.3520  148.4560 C   0  0  0  0  0  3  0  0  0  0  0  0
  188.8420  177.8830  148.6570 C   0  0  0  0  0  3  0  0  0  0  0  0
  187.0790  177.5630  144.8630 C   0  0  0  0  0  0  0  0  0  0  0  0
  189.5380  177.3190  147.5870 C   0  0  0  0  0  3  0  0  0  0  0  0
  185.7010  178.7240  146.9850 N   0  0  0  0  0  0  0  0  0  0  0  0
  186.9560  178.2490  147.1950 C   0  0  0  0  0  0  0  0  0  0  0  0
  187.5280  178.8230  140.6740 C   0  0  0  0  0  2  0  0  0  0  0  0
  186.1030  178.7120  140.1580 C   0  0  0  0  0  2  0  0  0  0  0  0
  185.1130  179.0040  141.2730 C   0  0  0  0  0  2  0  0  0  0  0  0
  184.0480  177.9230  141.3400 C   0  0  0  0  0  2  0  0  0  0  0  0
  181.2140  178.9770  141.6960 O   0  0  0  0  0  0  0  0  0  0  0  0
  184.5290  176.5250  137.4080 O   0  0  0  0  0  0  0  0  0  0  0  0
  181.6130  176.2640  139.4480 C   0  0  0  0  0  0  0  0  0  0  0  0
  179.7390  174.8730  138.9790 N   0  0  0  0  0  0  0  0  0  0  0  0
  181.6210  178.1070  140.8810 C   0  0  0  0  0  0  0  0  0  0  0  0
  182.9290  176.8930  139.3500 C   0  0  0  0  0  0  0  0  0  0  0  0
  179.1640  173.8130  138.1760 C   0  0  0  0  0  1  0  0  0  0  0  0
  178.9310  175.4490  140.0720 C   0  0  0  0  0  2  0  0  0  0  0  0
  180.8230  176.9920  140.4020 C   0  0  0  0  0  0  0  0  0  0  0  0
  181.1030  175.2610  138.7400 C   0  0  0  0  0  3  0  0  0  0  0  0
  183.7520  176.7040  138.3520 C   0  0  0  0  0  0  0  0  0  0  0  0
  182.9890  178.1030  140.2550 C   0  0  2  0  0  3  0  0  0  0  0  0
  179.5630  176.6760  140.6940 C   0  0  0  0  0  3  0  0  0  0  0  0
  192.0480  177.4970  139.5660 C   0  0  0  0  0  2  0  0  0  0  0  0
  192.5440  176.2120  138.9220 C   0  0  0  0  0  2  0  0  0  0  0  0
  192.5330  176.3310  137.4070 C   0  0  1  0  0  3  0  0  0  0  0  0
  193.8650  176.6640  136.9250 N   0  0  0  0  0  2  0  0  0  0  0  0
  194.5830  175.4110  136.7760 C   0  0  0  0  0  2  0  0  0  0  0  0
  195.3710  175.4280  135.4830 C   0  0  0  0  0  2  0  0  0  0  0  0
  196.7710  175.9380  135.7540 C   0  0  0  0  0  1  0  0  0  0  0  0
  192.1180  175.0590  136.8390 N   0  0  0  0  0  2  0  0  0  0  0  0
  190.8610  175.2750  136.1360 C   0  0  0  0  0  2  0  0  0  0  0  0
  189.8460  174.3490  136.6230 N   0  0  0  0  0  2  0  0  0  0  0  0
  188.9450  175.0900  137.4020 N   0  0  0  0  0  2  0  0  0  0  0  0
  187.6180  174.8870  136.8390 C   0  0  0  0  0  2  0  0  0  0  0  0
  187.4080  173.4230  136.4690 C   0  0  0  0  0  2  0  0  0  0  0  0
  185.0040  173.2830  136.6550 N   0  0  0  0  0  0  0  0  0  0  0  0
  186.1500  172.8850  137.0720 C   0  0  0  0  0  3  0  0  0  0  0  0
  183.7920  172.7660  137.2350 C   0  0  0  0  0  2  0  0  0  0  0  0
  182.7560  172.8210  136.3030 O   0  0  0  0  0  1  0  0  0  0  0  0
  2 21  1  1  0  0  0
  2  8  1  0  0  0  0
  3  4  1  0  0  0  0
  4  8  1  0  0  0  0
  4  1  2  0  0  0  0
  5  3  1  0  0  0  0
  5  2  1  0  0  0  0
  6  7  2  0  0  0  0
  7  5  2  0  0  0  0
  8  9  1  1  0  0  0
  9 10  1  0  0  0  0
 10 17  1  0  0  0  0
 11 18  1  0  0  0  0
 12 11  2  0  0  0  0
 12 20  1  0  0  0  0
 13 19  2  0  0  0  0
 14 17  2  0  0  0  0
 14 13  1  0  0  0  0
 15 16  1  0  0  0  0
 17 12  1  0  0  0  0
 18 16  2  0  0  0  0
 19 20  1  0  0  0  0
 20 15  2  0  0  0  0
 22 21  1  0  0  0  0
 22 23  1  0  0  0  0
 23 24  1  0  0  0  0
 26 35  2  0  0  0  0
 27 33  1  0  0  0  0
 28 32  1  0  0  0  0
 29 25  2  0  0  0  0
 30 27  1  0  0  0  0
 30 36  1  0  0  0  0
 31 28  1  0  0  0  0
 32 37  1  0  0  0  0
 33 37  2  0  0  0  0
 33 29  1  0  0  0  0
 34 28  1  0  0  0  0
 34 27  2  0  0  0  0
 35 30  2  0  0  0  0
 36 29  1  0  0  0  0
 36 24  1  1  0  0  0
 38  3  1  0  0  0  0
 39 38  1  0  0  0  0
 40 39  1  1  0  0  0
 41 40  1  0  0  0  0
 42 41  1  0  0  0  0
 43 44  1  0  0  0  0
 43 42  1  0  0  0  0
 45 40  1  0  0  0  0
 46 47  1  0  0  0  0
 46 45  1  0  0  0  0
 47 48  1  0  0  0  0
 49 48  1  0  0  0  0
 50 49  1  0  0  0  0
 50 52  1  0  0  0  0
 51 52  2  0  0  0  0
 51 53  1  0  0  0  0
 54 53  1  0  0  0  0
M  END
>  <MODEL>
6

>  <REMARK>
 VINA RESULT:      -6.6      2.716     11.487
  Name = 
  22 active torsions:
  status: ('A' for Active; 'I' for Inactive)
    1  A    between atoms: C_1  and  C_12
    2  A    between atoms: N_2  and  C_17
    3  A    between atoms: N_2  and  C_46
    4  A    between atoms: O_5  and  C_23
    5  A    between atoms: O_5  and  C_36
    6  A    between atoms: C_7  and  C_15
    7  A    between atoms: C_7  and  N_21
    8  A    between atoms: C_8  and  C_35
    9  A    between atoms: C_12  and  N_30
   10  A    between atoms: C_15  and  C_17
   11  A    between atoms: C_17  and  N_30
   12  A    between atoms: C_19  and  N_47
   13  A    between atoms: C_19  and  C_52
   14  A    between atoms: C_23  and  C_53
   15  A    between atoms: N_24  and  C_41
   16  A    between atoms: N_26  and  C_46
   17  A    between atoms: N_26  and  N_47
   18  A    between atoms: C_28  and  C_34
   19  A    between atoms: C_28  and  C_40
   20  A    between atoms: C_34  and  C_35
   21  A    between atoms: C_40  and  C_49
   22  A    between atoms: C_44  and  C_52
                            x       y       z     vdW  Elec       q    Type
                         _______ _______ _______ _____ _____    ______ ____

>  <TORSDO>
F 22

$$$$
=
 OpenBabel11042411153D

 54 58  0  0  1  0  0  0  0  0999 V2000
  181.3240  178.6540  143.7490 O   0  0  0  0  0  0  0  0  0  0  0  0
  182.9550  178.3600  140.5320 C   0  0  1  0  0  3  0  0  0  0  0  0
  183.4340  179.0590  142.7980 N   0  0  0  0  0  0  0  0  0  0  0  0
  182.0750  178.6750  142.7380 C   0  0  0  0  0  0  0  0  0  0  0  0
  183.9620  178.9190  141.4890 C   0  0  0  0  0  0  0  0  0  0  0  0
  186.4480  179.0910  140.9730 O   0  0  0  0  0  0  0  0  0  0  0  0
  185.2390  179.0070  141.2240 C   0  0  0  0  0  0  0  0  0  0  0  0
  181.6500  178.2410  141.3760 C   0  0  1  0  0  3  0  0  0  0  0  0
  180.4810  179.1020  140.8970 C   0  0  0  0  0  2  0  0  0  0  0  0
  179.3960  178.2750  140.4880 O   0  0  0  0  0  0  0  0  0  0  0  0
  179.9340  177.5020  137.7320 N   0  0  0  0  0  0  0  0  0  0  0  0
  179.7600  176.5740  138.7130 C   0  0  0  0  0  0  0  0  0  0  0  0
  179.4960  174.5970  140.6510 C   0  0  0  0  0  3  0  0  0  0  0  0
  179.4010  175.9400  141.0190 C   0  0  0  0  0  3  0  0  0  0  0  0
  180.0850  174.8230  137.0660 C   0  0  0  0  0  3  0  0  0  0  0  0
  180.2460  175.8010  136.0840 C   0  0  0  0  0  3  0  0  0  0  0  0
  179.5200  176.9440  140.0550 C   0  0  0  0  0  0  0  0  0  0  0  0
  180.1700  177.1480  136.4410 C   0  0  0  0  0  3  0  0  0  0  0  0
  179.7100  174.2570  139.3540 N   0  0  0  0  0  0  0  0  0  0  0  0
  179.8460  175.2010  138.3880 C   0  0  0  0  0  0  0  0  0  0  0  0
  182.8520  179.2430  139.2850 C   0  0  0  0  0  2  0  0  0  0  0  0
  183.1730  178.4490  138.0290 C   0  0  0  0  0  2  0  0  0  0  0  0
  184.2380  177.4050  138.3200 C   0  0  0  0  0  2  0  0  0  0  0  0
  184.1420  176.2520  137.3360 C   0  0  0  0  0  2  0  0  0  0  0  0
  184.9460  174.0110  135.4380 O   0  0  0  0  0  0  0  0  0  0  0  0
  187.0460  179.2860  137.2160 O   0  0  0  0  0  0  0  0  0  0  0  0
  187.5940  175.7650  137.0130 C   0  0  0  0  0  0  0  0  0  0  0  0
  189.7110  174.6990  137.2320 N   0  0  0  0  0  0  0  0  0  0  0  0
  185.6940  174.8390  136.0220 C   0  0  0  0  0  0  0  0  0  0  0  0
  186.5610  176.7990  136.9890 C   0  0  0  0  0  0  0  0  0  0  0  0
  191.1140  174.8080  137.5780 C   0  0  0  0  0  1  0  0  0  0  0  0
  189.1830  173.3790  136.8350 C   0  0  0  0  0  2  0  0  0  0  0  0
  187.0560  174.5610  136.4450 C   0  0  0  0  0  0  0  0  0  0  0  0
  188.8710  175.8570  137.3740 C   0  0  0  0  0  3  0  0  0  0  0  0
  186.8100  178.0770  137.1050 C   0  0  0  0  0  0  0  0  0  0  0  0
  185.3040  176.2550  136.3460 C   0  0  2  0  0  3  0  0  0  0  0  0
  187.7650  173.4420  136.3050 C   0  0  0  0  0  3  0  0  0  0  0  0
  184.0930  179.6750  143.9410 C   0  0  0  0  0  2  0  0  0  0  0  0
  184.3560  178.6290  145.0120 C   0  0  0  0  0  2  0  0  0  0  0  0
  185.8160  178.6460  145.4320 C   0  0  1  0  0  3  0  0  0  0  0  0
  185.9180  178.8670  146.8670 N   0  0  0  0  0  2  0  0  0  0  0  0
  186.8030  177.8420  147.3890 C   0  0  0  0  0  2  0  0  0  0  0  0
  187.7440  178.4540  148.4050 C   0  0  0  0  0  2  0  0  0  0  0  0
  189.1620  178.0090  148.1100 C   0  0  0  0  0  1  0  0  0  0  0  0
  186.4160  177.3630  145.0990 N   0  0  0  0  0  2  0  0  0  0  0  0
  186.9250  177.4520  143.7370 C   0  0  0  0  0  2  0  0  0  0  0  0
  187.9280  176.4200  143.5070 N   0  0  0  0  0  2  0  0  0  0  0  0
  189.0900  176.8090  144.1910 N   0  0  0  0  0  2  0  0  0  0  0  0
  190.2100  176.1130  143.5730 C   0  0  0  0  0  2  0  0  0  0  0  0
  191.5340  176.7290  144.0110 C   0  0  0  0  0  2  0  0  0  0  0  0
  192.0420  175.8870  146.2170 N   0  0  0  0  0  0  0  0  0  0  0  0
  191.6060  176.8560  145.5000 C   0  0  0  0  0  3  0  0  0  0  0  0
  192.1130  176.0090  147.6500 C   0  0  0  0  0  2  0  0  0  0  0  0
  193.1960  175.2780  148.1390 O   0  0  0  0  0  1  0  0  0  0  0  0
  2 21  1  6  0  0  0
  2  8  1  0  0  0  0
  2  5  1  0  0  0  0
  3 38  1  0  0  0  0
  4  3  1  0  0  0  0
  4  1  2  0  0  0  0
  5  3  1  0  0  0  0
  6  7  2  0  0  0  0
  7  5  2  0  0  0  0
  8  9  1  6  0  0  0
  8  4  1  0  0  0  0
 10  9  1  0  0  0  0
 11 12  1  0  0  0  0
 12 17  1  0  0  0  0
 13 14  1  0  0  0  0
 15 20  1  0  0  0  0
 16 18  1  0  0  0  0
 16 15  2  0  0  0  0
 17 10  1  0  0  0  0
 17 14  2  0  0  0  0
 18 11  2  0  0  0  0
 19 13  2  0  0  0  0
 20 12  2  0  0  0  0
 20 19  1  0  0  0  0
 22 23  1  0  0  0  0
 22 21  1  0  0  0  0
 24 23  1  0  0  0  0
 25 29  2  0  0  0  0
 27 34  2  0  0  0  0
 28 34  1  0  0  0  0
 28 31  1  0  0  0  0
 29 36  1  0  0  0  0
 29 33  1  0  0  0  0
 30 27  1  0  0  0  0
 30 35  2  0  0  0  0
 32 28  1  0  0  0  0
 33 27  1  0  0  0  0
 35 26  2  0  0  0  0
 36 30  1  0  0  0  0
 36 24  1  1  0  0  0
 37 33  2  0  0  0  0
 37 32  1  0  0  0  0
 38 39  1  0  0  0  0
 40 39  1  1  0  0  0
 40 41  1  0  0  0  0
 41 42  1  0  0  0  0
 42 43  1  0  0  0  0
 44 43  1  0  0  0  0
 45 40  1  0  0  0  0
 46 45  1  0  0  0  0
 47 46  1  0  0  0  0
 47 48  1  0  0  0  0
 49 50  1  0  0  0  0
 49 48  1  0  0  0  0
 50 52  1  0  0  0  0
 51 53  1  0  0  0  0
 52 51  2  0  0  0  0
 53 54  1  0  0  0  0
M  END
>  <MODEL>
7

>  <REMARK>
 VINA RESULT:      -6.6      3.593      7.486
  Name = 
  22 active torsions:
  status: ('A' for Active; 'I' for Inactive)
    1  A    between atoms: C_1  and  C_12
    2  A    between atoms: N_2  and  C_17
    3  A    between atoms: N_2  and  C_46
    4  A    between atoms: O_5  and  C_23
    5  A    between atoms: O_5  and  C_36
    6  A    between atoms: C_7  and  C_15
    7  A    between atoms: C_7  and  N_21
    8  A    between atoms: C_8  and  C_35
    9  A    between atoms: C_12  and  N_30
   10  A    between atoms: C_15  and  C_17
   11  A    between atoms: C_17  and  N_30
   12  A    between atoms: C_19  and  N_47
   13  A    between atoms: C_19  and  C_52
   14  A    between atoms: C_23  and  C_53
   15  A    between atoms: N_24  and  C_41
   16  A    between atoms: N_26  and  C_46
   17  A    between atoms: N_26  and  N_47
   18  A    between atoms: C_28  and  C_34
   19  A    between atoms: C_28  and  C_40
   20  A    between atoms: C_34  and  C_35
   21  A    between atoms: C_40  and  C_49
   22  A    between atoms: C_44  and  C_52
                            x       y       z     vdW  Elec       q    Type
                         _______ _______ _______ _____ _____    ______ ____

>  <TORSDO>
F 22

$$$$
=
 OpenBabel11042411153D

 54 58  0  0  1  0  0  0  0  0999 V2000
  190.9540  175.9890  141.7410 O   0  0  0  0  0  0  0  0  0  0  0  0
  187.8970  177.8010  141.0590 C   0  0  1  0  0  3  0  0  0  0  0  0
  189.9380  177.1210  139.9510 N   0  0  0  0  0  0  0  0  0  0  0  0
  190.0010  176.6790  141.2920 C   0  0  0  0  0  0  0  0  0  0  0  0
  188.7150  177.8250  139.8050 C   0  0  0  0  0  0  0  0  0  0  0  0
  187.8060  178.5640  137.5460 O   0  0  0  0  0  0  0  0  0  0  0  0
  188.2480  178.2050  138.6440 C   0  0  0  0  0  0  0  0  0  0  0  0
  188.8000  177.0600  142.0910 C   0  0  1  0  0  3  0  0  0  0  0  0
  189.2230  177.8890  143.3030 C   0  0  0  0  0  2  0  0  0  0  0  0
  189.2100  177.0840  144.4780 O   0  0  0  0  0  0  0  0  0  0  0  0
  186.4150  177.8350  144.8040 N   0  0  0  0  0  0  0  0  0  0  0  0
  187.2840  177.8460  145.8520 C   0  0  0  0  0  0  0  0  0  0  0  0
  188.9540  177.8300  148.0750 C   0  0  0  0  0  3  0  0  0  0  0  0
  189.4600  177.4480  146.8320 C   0  0  0  0  0  3  0  0  0  0  0  0
  185.4860  178.6060  147.2910 C   0  0  0  0  0  3  0  0  0  0  0  0
  184.6260  178.5950  146.1930 C   0  0  0  0  0  3  0  0  0  0  0  0
  188.6360  177.4620  145.7030 C   0  0  0  0  0  0  0  0  0  0  0  0
  185.1130  178.2000  144.9460 C   0  0  0  0  0  3  0  0  0  0  0  0
  187.6580  178.2120  148.1990 N   0  0  0  0  0  0  0  0  0  0  0  0
  186.8190  178.2260  147.1310 C   0  0  0  0  0  0  0  0  0  0  0  0
  187.4770  179.2200  141.4530 C   0  0  0  0  0  2  0  0  0  0  0  0
  185.9990  179.2720  141.8030 C   0  0  0  0  0  2  0  0  0  0  0  0
  185.1580  178.8340  140.6160 C   0  0  0  0  0  2  0  0  0  0  0  0
  183.8900  178.1400  141.0840 C   0  0  0  0  0  2  0  0  0  0  0  0
  180.9980  179.0320  141.4130 O   0  0  0  0  0  0  0  0  0  0  0  0
  184.4030  176.4600  137.2680 O   0  0  0  0  0  0  0  0  0  0  0  0
  181.5430  176.1760  139.3840 C   0  0  0  0  0  0  0  0  0  0  0  0
  179.7600  174.6320  139.0680 N   0  0  0  0  0  0  0  0  0  0  0  0
  181.4500  178.1270  140.6630 C   0  0  0  0  0  0  0  0  0  0  0  0
  182.8120  176.8800  139.2070 C   0  0  0  0  0  0  0  0  0  0  0  0
  179.2440  173.4730  138.3650 C   0  0  0  0  0  1  0  0  0  0  0  0
  178.9310  175.2400  140.1270 C   0  0  0  0  0  2  0  0  0  0  0  0
  180.7210  176.9260  140.2920 C   0  0  0  0  0  0  0  0  0  0  0  0
  181.0900  175.0870  138.7690 C   0  0  0  0  0  3  0  0  0  0  0  0
  183.6300  176.6640  138.2110 C   0  0  0  0  0  0  0  0  0  0  0  0
  182.8050  178.1610  140.0100 C   0  0  2  0  0  3  0  0  0  0  0  0
  179.4890  176.5530  140.6350 C   0  0  0  0  0  3  0  0  0  0  0  0
  191.0190  177.0420  138.9790 C   0  0  0  0  0  2  0  0  0  0  0  0
  191.0940  175.6370  138.4030 C   0  0  0  0  0  2  0  0  0  0  0  0
  191.5360  175.6750  136.9490 C   0  0  1  0  0  3  0  0  0  0  0  0
  190.6520  176.5420  136.1840 N   0  0  0  0  0  2  0  0  0  0  0  0
  189.9630  175.6980  135.2250 C   0  0  0  0  0  2  0  0  0  0  0  0
  188.4730  175.9500  135.3060 C   0  0  0  0  0  2  0  0  0  0  0  0
  187.9020  175.2090  136.4970 C   0  0  0  0  0  1  0  0  0  0  0  0
  192.8940  176.1930  136.8840 N   0  0  0  0  0  2  0  0  0  0  0  0
  193.7520  175.1270  136.3870 C   0  0  0  0  0  2  0  0  0  0  0  0
  195.1480  175.4260  136.6810 N   0  0  0  0  0  2  0  0  0  0  0  0
  195.4190  174.9270  137.9640 N   0  0  0  0  0  2  0  0  0  0  0  0
  196.7650  174.3740  137.9390 C   0  0  0  0  0  2  0  0  0  0  0  0
  197.0590  173.7360  136.5850 C   0  0  0  0  0  2  0  0  0  0  0  0
  196.3410  171.6350  137.5370 N   0  0  0  0  0  0  0  0  0  0  0  0
  197.0790  172.2430  136.6820 C   0  0  0  0  0  3  0  0  0  0  0  0
  196.3590  170.1980  137.6300 C   0  0  0  0  0  2  0  0  0  0  0  0
  195.0560  169.7100  137.7300 O   0  0  0  0  0  1  0  0  0  0  0  0
  2 21  1  1  0  0  0
  2  8  1  0  0  0  0
  3  4  1  0  0  0  0
  4  1  2  0  0  0  0
  4  8  1  0  0  0  0
  5  3  1  0  0  0  0
  5  2  1  0  0  0  0
  6  7  2  0  0  0  0
  7  5  2  0  0  0  0
  8  9  1  1  0  0  0
  9 10  1  0  0  0  0
 10 17  1  0  0  0  0
 11 18  2  0  0  0  0
 11 12  1  0  0  0  0
 12 20  1  0  0  0  0
 13 19  1  0  0  0  0
 14 13  2  0  0  0  0
 16 15  2  0  0  0  0
 17 12  2  0  0  0  0
 17 14  1  0  0  0  0
 18 16  1  0  0  0  0
 20 15  1  0  0  0  0
 20 19  2  0  0  0  0
 21 22  1  0  0  0  0
 23 24  1  0  0  0  0
 23 22  1  0  0  0  0
 26 35  2  0  0  0  0
 27 33  1  0  0  0  0
 28 32  1  0  0  0  0
 29 25  2  0  0  0  0
 30 27  1  0  0  0  0
 30 36  1  0  0  0  0
 31 28  1  0  0  0  0
 32 37  1  0  0  0  0
 33 37  2  0  0  0  0
 33 29  1  0  0  0  0
 34 28  1  0  0  0  0
 34 27  2  0  0  0  0
 35 30  2  0  0  0  0
 36 29  1  0  0  0  0
 36 24  1  1  0  0  0
 38  3  1  0  0  0  0
 39 38  1  0  0  0  0
 40 39  1  1  0  0  0
 41 40  1  0  0  0  0
 42 43  1  0  0  0  0
 42 41  1  0  0  0  0
 43 44  1  0  0  0  0
 45 40  1  0  0  0  0
 46 47  1  0  0  0  0
 46 45  1  0  0  0  0
 47 48  1  0  0  0  0
 49 48  1  0  0  0  0
 50 52  1  0  0  0  0
 50 49  1  0  0  0  0
 51 53  1  0  0  0  0
 52 51  2  0  0  0  0
 53 54  1  0  0  0  0
M  END
>  <MODEL>
8

>  <REMARK>
 VINA RESULT:      -6.6      2.626     11.514
  Name = 
  22 active torsions:
  status: ('A' for Active; 'I' for Inactive)
    1  A    between atoms: C_1  and  C_12
    2  A    between atoms: N_2  and  C_17
    3  A    between atoms: N_2  and  C_46
    4  A    between atoms: O_5  and  C_23
    5  A    between atoms: O_5  and  C_36
    6  A    between atoms: C_7  and  C_15
    7  A    between atoms: C_7  and  N_21
    8  A    between atoms: C_8  and  C_35
    9  A    between atoms: C_12  and  N_30
   10  A    between atoms: C_15  and  C_17
   11  A    between atoms: C_17  and  N_30
   12  A    between atoms: C_19  and  N_47
   13  A    between atoms: C_19  and  C_52
   14  A    between atoms: C_23  and  C_53
   15  A    between atoms: N_24  and  C_41
   16  A    between atoms: N_26  and  C_46
   17  A    between atoms: N_26  and  N_47
   18  A    between atoms: C_28  and  C_34
   19  A    between atoms: C_28  and  C_40
   20  A    between atoms: C_34  and  C_35
   21  A    between atoms: C_40  and  C_49
   22  A    between atoms: C_44  and  C_52
                            x       y       z     vdW  Elec       q    Type
                         _______ _______ _______ _____ _____    ______ ____

>  <TORSDO>
F 22

$$$$
=
 OpenBabel11042411153D

 54 58  0  0  1  0  0  0  0  0999 V2000
  193.5610  176.9360  139.8030 O   0  0  0  0  0  0  0  0  0  0  0  0
  190.8300  176.7000  137.4400 C   0  0  1  0  0  3  0  0  0  0  0  0
  191.2310  177.2250  139.7680 N   0  0  0  0  0  0  0  0  0  0  0  0
  192.4690  176.8810  139.1800 C   0  0  0  0  0  0  0  0  0  0  0  0
  190.2410  177.0830  138.7630 C   0  0  0  0  0  0  0  0  0  0  0  0
  187.8470  177.8980  139.0510 O   0  0  0  0  0  0  0  0  0  0  0  0
  189.0110  177.5020  138.9110 C   0  0  0  0  0  0  0  0  0  0  0  0
  192.3490  176.5140  137.7390 C   0  0  1  0  0  3  0  0  0  0  0  0
  192.8900  175.1010  137.5160 C   0  0  0  0  0  2  0  0  0  0  0  0
  194.0510  175.1440  136.6920 O   0  0  0  0  0  0  0  0  0  0  0  0
  196.5850  175.6280  135.3400 N   0  0  0  0  0  0  0  0  0  0  0  0
  196.4310  174.6040  136.2240 C   0  0  0  0  0  0  0  0  0  0  0  0
  196.2500  172.5310  138.0680 C   0  0  0  0  0  3  0  0  0  0  0  0
  195.1380  173.3390  137.8300 C   0  0  0  0  0  3  0  0  0  0  0  0
  198.7410  173.9710  135.8380 C   0  0  0  0  0  3  0  0  0  0  0  0
  198.8590  175.0230  134.9290 C   0  0  0  0  0  3  0  0  0  0  0  0
  195.2100  174.3780  136.8980 C   0  0  0  0  0  0  0  0  0  0  0  0
  197.7600  175.8500  134.6940 C   0  0  0  0  0  3  0  0  0  0  0  0
  197.4110  172.7490  137.3990 N   0  0  0  0  0  0  0  0  0  0  0  0
  197.5290  173.7570  136.4960 C   0  0  0  0  0  0  0  0  0  0  0  0
  190.1170  175.4710  136.8700 C   0  0  0  0  0  2  0  0  0  0  0  0
  190.0480  175.5390  135.3530 C   0  0  0  0  0  2  0  0  0  0  0  0
  188.6120  175.3840  134.8820 C   0  0  0  0  0  2  0  0  0  0  0  0
  187.6790  175.1800  136.0640 C   0  0  0  0  0  2  0  0  0  0  0  0
  186.5410  178.0030  135.9670 O   0  0  0  0  0  0  0  0  0  0  0  0
  184.5580  172.4050  135.6090 O   0  0  0  0  0  0  0  0  0  0  0  0
  184.4460  175.5080  137.3680 C   0  0  0  0  0  0  0  0  0  0  0  0
  182.7180  176.1650  138.8670 N   0  0  0  0  0  0  0  0  0  0  0  0
  185.9560  176.9420  136.3110 C   0  0  0  0  0  0  0  0  0  0  0  0
  185.2510  174.7020  136.4520 C   0  0  0  0  0  0  0  0  0  0  0  0
  181.5380  175.7960  139.6240 C   0  0  0  0  0  1  0  0  0  0  0  0
  183.2340  177.5430  138.9930 C   0  0  0  0  0  2  0  0  0  0  0  0
  184.8930  176.8710  137.2990 C   0  0  0  0  0  0  0  0  0  0  0  0
  183.3900  175.1560  138.0950 C   0  0  0  0  0  3  0  0  0  0  0  0
  184.8950  173.5220  136.0190 C   0  0  0  0  0  0  0  0  0  0  0  0
  186.2450  175.5850  135.7300 C   0  0  2  0  0  3  0  0  0  0  0  0
  184.3370  177.8560  138.0040 C   0  0  0  0  0  3  0  0  0  0  0  0
  191.0030  177.4720  141.1860 C   0  0  0  0  0  2  0  0  0  0  0  0
  190.3370  176.2610  141.8200 C   0  0  0  0  0  2  0  0  0  0  0  0
  190.1790  176.4590  143.3190 C   0  0  1  0  0  3  0  0  0  0  0  0
  191.4840  176.6510  143.9340 N   0  0  0  0  0  2  0  0  0  0  0  0
  191.2950  177.5690  145.0430 C   0  0  0  0  0  2  0  0  0  0  0  0
  191.5250  176.8390  146.3500 C   0  0  0  0  0  2  0  0  0  0  0  0
  190.2010  176.6510  147.0610 C   0  0  0  0  0  1  0  0  0  0  0  0
  189.3580  177.6360  143.5540 N   0  0  0  0  0  2  0  0  0  0  0  0
  187.9710  177.2660  143.3130 C   0  0  0  0  0  2  0  0  0  0  0  0
  187.3260  178.2550  142.4580 N   0  0  0  0  0  2  0  0  0  0  0  0
  185.9560  177.9540  142.4330 N   0  0  0  0  0  2  0  0  0  0  0  0
  185.2410  179.1590  142.8290 C   0  0  0  0  0  2  0  0  0  0  0  0
  184.0050  178.8060  143.6490 C   0  0  0  0  0  2  0  0  0  0  0  0
  185.4050  178.5190  145.5960 N   0  0  0  0  0  0  0  0  0  0  0  0
  184.2810  178.9050  145.1160 C   0  0  0  0  0  3  0  0  0  0  0  0
  185.6720  178.6150  147.0080 C   0  0  0  0  0  2  0  0  0  0  0  0
  187.0110  178.3150  147.2620 O   0  0  0  0  0  1  0  0  0  0  0  0
  2 21  1  1  0  0  0
  2  8  1  0  0  0  0
  2  5  1  0  0  0  0
  3 38  1  0  0  0  0
  4  3  1  0  0  0  0
  4  1  2  0  0  0  0
  5  7  2  0  0  0  0
  5  3  1  0  0  0  0
  7  6  2  0  0  0  0
  8  9  1  1  0  0  0
  8  4  1  0  0  0  0
 10 17  1  0  0  0  0
 10  9  1  0  0  0  0
 11 12  1  0  0  0  0
 12 20  2  0  0  0  0
 12 17  1  0  0  0  0
 14 13  1  0  0  0  0
 15 20  1  0  0  0  0
 16 15  2  0  0  0  0
 17 14  2  0  0  0  0
 18 16  1  0  0  0  0
 18 11  2  0  0  0  0
 19 13  2  0  0  0  0
 20 19  1  0  0  0  0
 22 21  1  0  0  0  0
 23 22  1  0  0  0  0
 23 24  1  0  0  0  0
 25 29  2  0  0  0  0
 26 35  2  0  0  0  0
 27 34  2  0  0  0  0
 28 32  1  0  0  0  0
 28 31  1  0  0  0  0
 29 33  1  0  0  0  0
 30 27  1  0  0  0  0
 33 27  1  0  0  0  0
 33 37  2  0  0  0  0
 34 28  1  0  0  0  0
 35 30  2  0  0  0  0
 36 24  1  1  0  0  0
 36 29  1  0  0  0  0
 36 30  1  0  0  0  0
 37 32  1  0  0  0  0
 38 39  1  0  0  0  0
 40 39  1  6  0  0  0
 40 45  1  0  0  0  0
 40 41  1  0  0  0  0
 41 42  1  0  0  0  0
 42 43  1  0  0  0  0
 43 44  1  0  0  0  0
 46 45  1  0  0  0  0
 47 46  1  0  0  0  0
 48 47  1  0  0  0  0
 48 49  1  0  0  0  0
 49 50  1  0  0  0  0
 50 52  1  0  0  0  0
 51 53  1  0  0  0  0
 52 51  2  0  0  0  0
 53 54  1  0  0  0  0
M  END
>  <MODEL>
9

>  <REMARK>
 VINA RESULT:      -6.5      2.413      8.524
  Name = 
  22 active torsions:
  status: ('A' for Active; 'I' for Inactive)
    1  A    between atoms: C_1  and  C_12
    2  A    between atoms: N_2  and  C_17
    3  A    between atoms: N_2  and  C_46
    4  A    between atoms: O_5  and  C_23
    5  A    between atoms: O_5  and  C_36
    6  A    between atoms: C_7  and  C_15
    7  A    between atoms: C_7  and  N_21
    8  A    between atoms: C_8  and  C_35
    9  A    between atoms: C_12  and  N_30
   10  A    between atoms: C_15  and  C_17
   11  A    between atoms: C_17  and  N_30
   12  A    between atoms: C_19  and  N_47
   13  A    between atoms: C_19  and  C_52
   14  A    between atoms: C_23  and  C_53
   15  A    between atoms: N_24  and  C_41
   16  A    between atoms: N_26  and  C_46
   17  A    between atoms: N_26  and  N_47
   18  A    between atoms: C_28  and  C_34
   19  A    between atoms: C_28  and  C_40
   20  A    between atoms: C_34  and  C_35
   21  A    between atoms: C_40  and  C_49
   22  A    between atoms: C_44  and  C_52
                            x       y       z     vdW  Elec       q    Type
                         _______ _______ _______ _____ _____    ______ ____

>  <TORSDO>
F 22

$$$$
