=
 OpenBabel11042411453D

 25 29  0  0  1  0  0  0  0  0999 V2000
  187.3840  177.2110  142.9950 N   0  0  0  0  0  2  0  0  0  0  0  0
  187.2580  178.0560  147.8710 C   0  0  0  0  0  3  0  0  0  0  0  0
  187.6840  177.4870  144.3710 C   0  0  0  0  0  0  0  0  0  0  0  0
  188.5310  176.9350  142.1130 C   0  0  2  0  0  3  0  0  0  0  0  0
  189.9590  177.6320  147.0760 C   0  0  0  0  0  0  0  0  0  0  0  0
  188.9560  177.4010  144.8160 N   0  0  0  0  0  0  0  0  0  0  0  0
  186.8060  177.7520  145.4130 C   0  0  0  0  0  0  0  0  0  0  0  0
  189.5320  176.0780  142.8960 C   0  0  1  0  0  3  0  0  0  0  0  0
  187.6030  177.8430  146.5390 C   0  0  0  0  0  0  0  0  0  0  0  0
  189.6320  177.8360  148.4290 C   0  0  0  0  0  3  0  0  0  0  0  0
  189.2990  178.2390  141.9000 C   0  0  0  0  0  2  0  0  0  0  0  0
  188.2940  178.0510  148.8210 C   0  0  0  0  0  3  0  0  0  0  0  0
  188.9120  177.6330  146.1450 C   0  0  0  0  0  0  0  0  0  0  0  0
  190.5550  175.6190  142.0600 O   0  0  0  0  0  1  0  0  0  0  0  0
  190.3180  178.3200  143.0420 C   0  0  0  0  0  2  0  0  0  0  0  0
  190.0690  177.0880  143.9120 C   0  0  1  0  0  3  0  0  0  0  0  0
  185.4150  177.8860  145.3740 O   0  0  0  0  0  0  0  0  0  0  0  0
  184.7280  178.3550  144.2250 C   0  0  2  0  0  3  0  0  0  0  0  0
  184.6310  179.8660  144.2770 C   0  0  0  0  0  2  0  0  0  0  0  0
  182.4590  178.9840  143.5010 C   0  0  0  0  0  1  0  0  0  0  0  0
  183.4360  179.0170  144.6580 C   0  0  1  0  0  3  0  0  0  0  0  0
  191.2900  177.4280  146.7050 O   0  0  0  0  0  0  0  0  0  0  0  0
  192.0320  175.3020  146.1800 O   0  0  0  0  0  0  0  0  0  0  0  0
  191.9810  176.2520  147.0070 C   0  0  0  0  0  0  0  0  0  0  0  0
  192.6420  176.1300  148.2590 N   0  0  0  0  0  1  0  0  0  0  0  0
  1  3  1  0  0  0  0
  2 12  1  0  0  0  0
  3  6  1  0  0  0  0
  3  7  2  0  0  0  0
  4 11  1  1  0  0  0
  4  8  1  0  0  0  0
  4  1  1  0  0  0  0
  5 10  1  0  0  0  0
  6 13  1  0  0  0  0
  7  9  1  0  0  0  0
  8 14  1  6  0  0  0
  8 16  1  0  0  0  0
  9  2  2  0  0  0  0
 10 12  2  0  0  0  0
 11 15  1  0  0  0  0
 13  9  1  0  0  0  0
 13  5  2  0  0  0  0
 16 15  1  6  0  0  0
 16  6  1  0  0  0  0
 17  7  1  0  0  0  0
 18 19  1  0  0  0  0
 18 21  1  0  0  0  0
 18 17  1  1  0  0  0
 19 21  1  0  0  0  0
 21 20  1  6  0  0  0
 22 24  1  0  0  0  0
 22  5  1  0  0  0  0
 23 24  2  0  0  0  0
 24 25  1  0  0  0  0
M  END
>  <MODEL>
1

>  <REMARK>
 VINA RESULT:      -9.1      0.000      0.000
  Name = 
  4 active torsions:
  status: ('A' for Active; 'I' for Inactive)
    1  A    between atoms: O_4  and  C_9
    2  A    between atoms: O_4  and  C_20
    3  A    between atoms: C_7  and  O_21
    4  A    between atoms: C_16  and  O_21
                            x       y       z     vdW  Elec       q    Type
                         _______ _______ _______ _____ _____    ______ ____

>  <TORSDO>
F 4

$$$$
=
 OpenBabel11042411453D

 25 29  0  0  1  0  0  0  0  0999 V2000
  188.2520  177.8420  141.3350 N   0  0  0  0  0  2  0  0  0  0  0  0
  184.3700  179.1360  144.1210 C   0  0  0  0  0  3  0  0  0  0  0  0
  187.3340  178.1310  142.3990 C   0  0  0  0  0  0  0  0  0  0  0  0
  189.4830  177.1210  141.7060 C   0  0  2  0  0  3  0  0  0  0  0  0
  186.2630  177.7710  145.7520 C   0  0  0  0  0  0  0  0  0  0  0  0
  187.5760  177.6730  143.6460 N   0  0  0  0  0  0  0  0  0  0  0  0
  186.1020  178.7680  142.3300 C   0  0  0  0  0  0  0  0  0  0  0  0
  189.1120  176.0590  142.7470 C   0  0  1  0  0  3  0  0  0  0  0  0
  185.5900  178.6960  143.6130 C   0  0  0  0  0  0  0  0  0  0  0  0
  185.0330  178.1990  146.2830 C   0  0  0  0  0  3  0  0  0  0  0  0
  190.3780  178.0720  142.4990 C   0  0  0  0  0  2  0  0  0  0  0  0
  184.0970  178.8780  145.4750 C   0  0  0  0  0  3  0  0  0  0  0  0
  186.5140  178.0300  144.3970 C   0  0  0  0  0  0  0  0  0  0  0  0
  190.1950  175.2120  143.0020 O   0  0  0  0  0  1  0  0  0  0  0  0
  189.9610  177.9190  143.9660 C   0  0  0  0  0  2  0  0  0  0  0  0
  188.7990  176.9260  143.9680 C   0  0  1  0  0  3  0  0  0  0  0  0
  185.4760  179.3490  141.2240 O   0  0  0  0  0  0  0  0  0  0  0  0
  184.8380  178.5770  140.2190 C   0  0  2  0  0  3  0  0  0  0  0  0
  183.7240  179.3880  139.5910 C   0  0  0  0  0  2  0  0  0  0  0  0
  182.9040  177.0830  139.9230 C   0  0  0  0  0  1  0  0  0  0  0  0
  183.4010  178.3290  140.6250 C   0  0  1  0  0  3  0  0  0  0  0  0
  187.1800  177.1050  146.5670 O   0  0  0  0  0  0  0  0  0  0  0  0
  187.5650  178.6630  148.2330 O   0  0  0  0  0  0  0  0  0  0  0  0
  188.0200  177.7790  147.4580 C   0  0  0  0  0  0  0  0  0  0  0  0
  189.4040  177.4570  147.4960 N   0  0  0  0  0  1  0  0  0  0  0  0
  1  4  1  0  0  0  0
  1  3  1  0  0  0  0
  2 12  1  0  0  0  0
  3  6  1  0  0  0  0
  4 11  1  1  0  0  0
  4  8  1  0  0  0  0
  5 10  1  0  0  0  0
  5 22  1  0  0  0  0
  6 16  1  0  0  0  0
  6 13  1  0  0  0  0
  7  3  2  0  0  0  0
  7  9  1  0  0  0  0
  8 14  1  1  0  0  0
  8 16  1  0  0  0  0
  9  2  2  0  0  0  0
  9 13  1  0  0  0  0
 11 15  1  0  0  0  0
 12 10  2  0  0  0  0
 13  5  2  0  0  0  0
 16 15  1  6  0  0  0
 17  7  1  0  0  0  0
 18 21  1  0  0  0  0
 18 17  1  1  0  0  0
 19 18  1  0  0  0  0
 19 21  1  0  0  0  0
 21 20  1  6  0  0  0
 22 24  1  0  0  0  0
 24 25  1  0  0  0  0
 24 23  2  0  0  0  0
M  END
>  <MODEL>
2

>  <REMARK>
 VINA RESULT:      -8.8      2.303      3.587
  Name = 
  4 active torsions:
  status: ('A' for Active; 'I' for Inactive)
    1  A    between atoms: O_4  and  C_9
    2  A    between atoms: O_4  and  C_20
    3  A    between atoms: C_7  and  O_21
    4  A    between atoms: C_16  and  O_21
                            x       y       z     vdW  Elec       q    Type
                         _______ _______ _______ _____ _____    ______ ____

>  <TORSDO>
F 4

$$$$
=
 OpenBabel11042411453D

 25 29  0  0  1  0  0  0  0  0999 V2000
  189.8000  177.0320  140.2210 N   0  0  0  0  0  2  0  0  0  0  0  0
  186.6110  177.8110  143.9270 C   0  0  0  0  0  3  0  0  0  0  0  0
  188.6700  177.3590  141.0430 C   0  0  0  0  0  0  0  0  0  0  0  0
  189.7350  177.4600  138.8130 C   0  0  2  0  0  3  0  0  0  0  0  0
  185.5980  179.0350  141.5630 C   0  0  0  0  0  0  0  0  0  0  0  0
  187.6580  178.0980  140.5410 N   0  0  0  0  0  0  0  0  0  0  0  0
  188.4790  177.1010  142.3940 C   0  0  0  0  0  0  0  0  0  0  0  0
  189.0990  178.8540  138.7720 C   0  0  1  0  0  3  0  0  0  0  0  0
  187.2780  177.7110  142.7080 C   0  0  0  0  0  0  0  0  0  0  0  0
  184.9130  179.1560  142.7860 C   0  0  0  0  0  3  0  0  0  0  0  0
  188.6990  176.5970  138.0940 C   0  0  0  0  0  2  0  0  0  0  0  0
  185.4130  178.5460  143.9550 C   0  0  0  0  0  3  0  0  0  0  0  0
  186.7950  178.3050  141.5570 C   0  0  0  0  0  0  0  0  0  0  0  0
  189.1800  179.4020  137.4880 O   0  0  0  0  0  1  0  0  0  0  0  0
  187.3560  177.3120  138.2740 C   0  0  0  0  0  2  0  0  0  0  0  0
  187.6480  178.5370  139.1390 C   0  0  1  0  0  3  0  0  0  0  0  0
  189.3040  176.4010  143.2780 O   0  0  0  0  0  0  0  0  0  0  0  0
  190.5360  176.9260  143.7470 C   0  0  2  0  0  3  0  0  0  0  0  0
  190.4300  177.2180  145.2290 C   0  0  0  0  0  2  0  0  0  0  0  0
  191.6350  179.0900  144.1630 C   0  0  0  0  0  1  0  0  0  0  0  0
  190.3180  178.3460  144.2240 C   0  0  1  0  0  3  0  0  0  0  0  0
  185.0850  179.6400  140.4150 O   0  0  0  0  0  0  0  0  0  0  0  0
  183.8130  177.8500  139.6900 O   0  0  0  0  0  0  0  0  0  0  0  0
  184.0250  179.0920  139.6880 C   0  0  0  0  0  0  0  0  0  0  0  0
  183.1700  179.9500  138.9430 N   0  0  0  0  0  1  0  0  0  0  0  0
  1  3  1  0  0  0  0
  2 12  1  0  0  0  0
  3  7  2  0  0  0  0
  4 11  1  6  0  0  0
  4  1  1  0  0  0  0
  5 10  1  0  0  0  0
  6  3  1  0  0  0  0
  6 13  1  0  0  0  0
  7  9  1  0  0  0  0
  7 17  1  0  0  0  0
  8 14  1  6  0  0  0
  8  4  1  0  0  0  0
  8 16  1  0  0  0  0
  9  2  2  0  0  0  0
 10 12  2  0  0  0  0
 11 15  1  0  0  0  0
 13  5  2  0  0  0  0
 13  9  1  0  0  0  0
 16 15  1  6  0  0  0
 16  6  1  0  0  0  0
 18 17  1  6  0  0  0
 18 21  1  0  0  0  0
 18 19  1  0  0  0  0
 21 20  1  1  0  0  0
 21 19  1  0  0  0  0
 22  5  1  0  0  0  0
 24 23  2  0  0  0  0
 24 22  1  0  0  0  0
 25 24  1  0  0  0  0
M  END
>  <MODEL>
3

>  <REMARK>
 VINA RESULT:      -8.4      3.320      6.804
  Name = 
  4 active torsions:
  status: ('A' for Active; 'I' for Inactive)
    1  A    between atoms: O_4  and  C_9
    2  A    between atoms: O_4  and  C_20
    3  A    between atoms: C_7  and  O_21
    4  A    between atoms: C_16  and  O_21
                            x       y       z     vdW  Elec       q    Type
                         _______ _______ _______ _____ _____    ______ ____

>  <TORSDO>
F 4

$$$$
=
 OpenBabel11042411453D

 25 29  0  0  1  0  0  0  0  0999 V2000
  190.3980  177.6360  141.2330 N   0  0  0  0  0  2  0  0  0  0  0  0
  185.5920  178.8170  141.1180 C   0  0  0  0  0  3  0  0  0  0  0  0
  189.0290  177.9420  141.5370 C   0  0  0  0  0  0  0  0  0  0  0  0
  191.2110  177.0890  142.3340 C   0  0  2  0  0  3  0  0  0  0  0  0
  186.2400  177.8370  143.7110 C   0  0  0  0  0  0  0  0  0  0  0  0
  188.5240  177.6480  142.7540 N   0  0  0  0  0  0  0  0  0  0  0  0
  188.0450  178.4380  140.6930 C   0  0  0  0  0  0  0  0  0  0  0  0
  190.3340  176.1120  143.1270 C   0  0  1  0  0  3  0  0  0  0  0  0
  186.8930  178.4530  141.4580 C   0  0  0  0  0  0  0  0  0  0  0  0
  184.9180  178.1900  143.3860 C   0  0  0  0  0  3  0  0  0  0  0  0
  191.4670  178.2070  143.3440 C   0  0  0  0  0  2  0  0  0  0  0  0
  184.5990  178.6800  142.1020 C   0  0  0  0  0  3  0  0  0  0  0  0
  187.2150  177.9730  142.7140 C   0  0  0  0  0  0  0  0  0  0  0  0
  191.0950  175.4130  144.0690 O   0  0  0  0  0  1  0  0  0  0  0  0
  190.2890  178.1700  144.3230 C   0  0  0  0  0  2  0  0  0  0  0  0
  189.3590  177.0690  143.8150 C   0  0  1  0  0  3  0  0  0  0  0  0
  188.1530  178.8300  139.3560 O   0  0  0  0  0  0  0  0  0  0  0  0
  187.9930  177.9180  138.2810 C   0  0  2  0  0  3  0  0  0  0  0  0
  187.9700  178.6790  136.9720 C   0  0  0  0  0  2  0  0  0  0  0  0
  186.2230  176.9370  136.8780 C   0  0  0  0  0  1  0  0  0  0  0  0
  186.6750  178.1950  137.5900 C   0  0  1  0  0  3  0  0  0  0  0  0
  186.5400  177.3600  144.9890 O   0  0  0  0  0  0  0  0  0  0  0  0
  187.7090  178.2160  146.7900 O   0  0  0  0  0  0  0  0  0  0  0  0
  186.6580  178.2040  146.0960 C   0  0  0  0  0  0  0  0  0  0  0  0
  185.5800  179.0660  146.4380 N   0  0  0  0  0  1  0  0  0  0  0  0
  1  3  1  0  0  0  0
  1  4  1  0  0  0  0
  2  9  2  0  0  0  0
  2 12  1  0  0  0  0
  3  6  1  0  0  0  0
  4  8  1  0  0  0  0
  4 11  1  1  0  0  0
  5 22  1  0  0  0  0
  6 16  1  0  0  0  0
  7  9  1  0  0  0  0
  7  3  2  0  0  0  0
  8 16  1  0  0  0  0
  8 14  1  1  0  0  0
  9 13  1  0  0  0  0
 10  5  1  0  0  0  0
 11 15  1  0  0  0  0
 12 10  2  0  0  0  0
 13  6  1  0  0  0  0
 13  5  2  0  0  0  0
 16 15  1  6  0  0  0
 17  7  1  0  0  0  0
 18 17  1  1  0  0  0
 19 21  1  0  0  0  0
 19 18  1  0  0  0  0
 21 20  1  6  0  0  0
 21 18  1  0  0  0  0
 22 24  1  0  0  0  0
 24 25  1  0  0  0  0
 24 23  2  0  0  0  0
M  END
>  <MODEL>
4

>  <REMARK>
 VINA RESULT:      -8.4      2.864      5.378
  Name = 
  4 active torsions:
  status: ('A' for Active; 'I' for Inactive)
    1  A    between atoms: O_4  and  C_9
    2  A    between atoms: O_4  and  C_20
    3  A    between atoms: C_7  and  O_21
    4  A    between atoms: C_16  and  O_21
                            x       y       z     vdW  Elec       q    Type
                         _______ _______ _______ _____ _____    ______ ____

>  <TORSDO>
F 4

$$$$
=
 OpenBabel11042411453D

 25 29  0  0  1  0  0  0  0  0999 V2000
  189.3000  177.1220  145.4230 N   0  0  0  0  0  2  0  0  0  0  0  0
  185.1030  177.8770  142.9090 C   0  0  0  0  0  3  0  0  0  0  0  0
  188.2950  177.3770  144.4310 C   0  0  0  0  0  0  0  0  0  0  0  0
  190.6980  177.3550  145.0200 C   0  0  2  0  0  3  0  0  0  0  0  0
  187.3080  178.6270  141.2720 C   0  0  0  0  0  0  0  0  0  0  0  0
  188.6440  177.8870  143.2310 N   0  0  0  0  0  0  0  0  0  0  0  0
  186.9160  177.2660  144.5460 C   0  0  0  0  0  0  0  0  0  0  0  0
  190.7350  178.6210  144.1580 C   0  0  1  0  0  3  0  0  0  0  0  0
  186.4180  177.7250  143.3400 C   0  0  0  0  0  0  0  0  0  0  0  0
  185.9870  178.7980  140.8200 C   0  0  0  0  0  3  0  0  0  0  0  0
  191.1020  176.2620  144.0300 C   0  0  0  0  0  2  0  0  0  0  0  0
  184.8950  178.4220  141.6300 C   0  0  0  0  0  3  0  0  0  0  0  0
  187.4950  178.0900  142.5530 C   0  0  0  0  0  0  0  0  0  0  0  0
  192.0540  179.0090  143.8990 O   0  0  0  0  0  1  0  0  0  0  0  0
  190.7150  176.7850  142.6430 C   0  0  0  0  0  2  0  0  0  0  0  0
  190.0470  178.1400  142.8790 C   0  0  1  0  0  3  0  0  0  0  0  0
  186.1610  176.8140  145.6320 O   0  0  0  0  0  0  0  0  0  0  0  0
  185.9440  177.6060  146.7900 C   0  0  2  0  0  3  0  0  0  0  0  0
  184.6720  178.4090  146.6200 C   0  0  0  0  0  2  0  0  0  0  0  0
  186.3770  179.8760  147.6380 C   0  0  0  0  0  1  0  0  0  0  0  0
  186.0190  179.0690  146.4090 C   0  0  1  0  0  3  0  0  0  0  0  0
  188.3770  178.9990  140.4540 O   0  0  0  0  0  0  0  0  0  0  0  0
  188.8490  177.0430  139.3150 O   0  0  0  0  0  0  0  0  0  0  0  0
  188.7150  178.2960  139.2950 C   0  0  0  0  0  0  0  0  0  0  0  0
  188.9020  179.0040  138.0760 N   0  0  0  0  0  1  0  0  0  0  0  0
  2  9  1  0  0  0  0
  3  7  2  0  0  0  0
  3  1  1  0  0  0  0
  4 11  1  6  0  0  0
  4  1  1  0  0  0  0
  5 13  1  0  0  0  0
  6  3  1  0  0  0  0
  7 17  1  0  0  0  0
  8 14  1  6  0  0  0
  8  4  1  0  0  0  0
  9  7  1  0  0  0  0
 10  5  2  0  0  0  0
 10 12  1  0  0  0  0
 12  2  2  0  0  0  0
 13  6  1  0  0  0  0
 13  9  2  0  0  0  0
 15 11  1  0  0  0  0
 16 15  1  1  0  0  0
 16  6  1  0  0  0  0
 16  8  1  0  0  0  0
 18 17  1  6  0  0  0
 19 18  1  0  0  0  0
 21 19  1  0  0  0  0
 21 18  1  0  0  0  0
 21 20  1  1  0  0  0
 22  5  1  0  0  0  0
 24 23  2  0  0  0  0
 24 22  1  0  0  0  0
 25 24  1  0  0  0  0
M  END
>  <MODEL>
5

>  <REMARK>
 VINA RESULT:      -8.0      2.376      5.197
  Name = 
  4 active torsions:
  status: ('A' for Active; 'I' for Inactive)
    1  A    between atoms: O_4  and  C_9
    2  A    between atoms: O_4  and  C_20
    3  A    between atoms: C_7  and  O_21
    4  A    between atoms: C_16  and  O_21
                            x       y       z     vdW  Elec       q    Type
                         _______ _______ _______ _____ _____    ______ ____

>  <TORSDO>
F 4

$$$$
=
 OpenBabel11042411453D

 25 29  0  0  1  0  0  0  0  0999 V2000
  186.0600  177.8130  144.6110 N   0  0  0  0  0  2  0  0  0  0  0  0
  190.4230  176.9530  142.4360 C   0  0  0  0  0  3  0  0  0  0  0  0
  187.1920  177.7550  143.7320 C   0  0  0  0  0  0  0  0  0  0  0  0
  184.8190  178.3780  144.0510 C   0  0  2  0  0  3  0  0  0  0  0  0
  188.6400  178.0750  140.5200 C   0  0  0  0  0  0  0  0  0  0  0  0
  187.0660  178.1250  142.4400 N   0  0  0  0  0  0  0  0  0  0  0  0
  188.4610  177.2540  143.9870 C   0  0  0  0  0  0  0  0  0  0  0  0
  184.6820  177.8760  142.6090 C   0  0  1  0  0  3  0  0  0  0  0  0
  189.1310  177.3450  142.7800 C   0  0  0  0  0  0  0  0  0  0  0  0
  189.9380  177.6780  140.1490 C   0  0  0  0  0  3  0  0  0  0  0  0
  185.0170  179.8830  143.8660 C   0  0  0  0  0  2  0  0  0  0  0  0
  190.8220  177.1260  141.1000 C   0  0  0  0  0  3  0  0  0  0  0  0
  188.2580  177.8870  141.8550 C   0  0  0  0  0  0  0  0  0  0  0  0
  183.4330  178.2180  142.0800 O   0  0  0  0  0  1  0  0  0  0  0  0
  185.6170  180.0610  142.4670 C   0  0  0  0  0  2  0  0  0  0  0  0
  185.8010  178.6500  141.9090 C   0  0  1  0  0  3  0  0  0  0  0  0
  188.9790  176.7440  145.1810 O   0  0  0  0  0  0  0  0  0  0  0  0
  189.3060  177.5750  146.2840 C   0  0  2  0  0  3  0  0  0  0  0  0
  190.0140  176.7550  147.3420 C   0  0  0  0  0  2  0  0  0  0  0  0
  188.4100  178.2500  148.4760 C   0  0  0  0  0  1  0  0  0  0  0  0
  188.5470  177.0980  147.5040 C   0  0  1  0  0  3  0  0  0  0  0  0
  187.7810  178.6250  139.5670 O   0  0  0  0  0  0  0  0  0  0  0  0
  187.3790  177.1670  137.8180 O   0  0  0  0  0  0  0  0  0  0  0  0
  187.8340  178.2720  138.2160 C   0  0  0  0  0  0  0  0  0  0  0  0
  188.4020  179.1770  137.2780 N   0  0  0  0  0  1  0  0  0  0  0  0
  2  9  1  0  0  0  0
  3  7  2  0  0  0  0
  3  1  1  0  0  0  0
  4 11  1  6  0  0  0
  4  1  1  0  0  0  0
  5 13  1  0  0  0  0
  6  3  1  0  0  0  0
  7 17  1  0  0  0  0
  8 14  1  6  0  0  0
  8  4  1  0  0  0  0
  9  7  1  0  0  0  0
 10  5  2  0  0  0  0
 10 12  1  0  0  0  0
 12  2  2  0  0  0  0
 13  6  1  0  0  0  0
 13  9  2  0  0  0  0
 15 11  1  0  0  0  0
 16  6  1  0  0  0  0
 16 15  1  1  0  0  0
 16  8  1  0  0  0  0
 18 17  1  6  0  0  0
 18 19  1  0  0  0  0
 18 21  1  0  0  0  0
 19 21  1  0  0  0  0
 21 20  1  1  0  0  0
 22  5  1  0  0  0  0
 23 24  2  0  0  0  0
 24 22  1  0  0  0  0
 25 24  1  0  0  0  0
M  END
>  <MODEL>
6

>  <REMARK>
 VINA RESULT:      -7.8      2.600      6.477
  Name = 
  4 active torsions:
  status: ('A' for Active; 'I' for Inactive)
    1  A    between atoms: O_4  and  C_9
    2  A    between atoms: O_4  and  C_20
    3  A    between atoms: C_7  and  O_21
    4  A    between atoms: C_16  and  O_21
                            x       y       z     vdW  Elec       q    Type
                         _______ _______ _______ _____ _____    ______ ____

>  <TORSDO>
F 4

$$$$
=
 OpenBabel11042411453D

 25 29  0  0  1  0  0  0  0  0999 V2000
  186.7960  178.5650  138.6890 N   0  0  0  0  0  2  0  0  0  0  0  0
  186.2600  178.1680  143.5940 C   0  0  0  0  0  3  0  0  0  0  0  0
  186.9630  178.3410  140.0960 C   0  0  0  0  0  0  0  0  0  0  0  0
  187.8580  178.0460  137.8090 C   0  0  2  0  0  3  0  0  0  0  0  0
  188.6500  176.8310  142.8150 C   0  0  0  0  0  0  0  0  0  0  0  0
  188.0060  177.6120  140.5470 N   0  0  0  0  0  0  0  0  0  0  0  0
  186.1140  178.6960  141.1360 C   0  0  0  0  0  0  0  0  0  0  0  0
  188.2940  176.6800  138.3510 C   0  0  1  0  0  3  0  0  0  0  0  0
  186.6940  178.1590  142.2710 C   0  0  0  0  0  0  0  0  0  0  0  0
  188.2250  176.8210  144.1560 C   0  0  0  0  0  3  0  0  0  0  0  0
  189.1090  178.9010  138.0090 C   0  0  0  0  0  2  0  0  0  0  0  0
  187.0430  177.4870  144.5420 C   0  0  0  0  0  3  0  0  0  0  0  0
  187.8520  177.5090  141.8830 C   0  0  0  0  0  0  0  0  0  0  0  0
  189.1630  176.0440  137.4590 O   0  0  0  0  0  1  0  0  0  0  0  0
  189.8820  178.2560  139.1630 C   0  0  0  0  0  2  0  0  0  0  0  0
  189.0250  177.0800  139.6330 C   0  0  1  0  0  3  0  0  0  0  0  0
  184.9190  179.4200  141.0840 O   0  0  0  0  0  0  0  0  0  0  0  0
  183.7670  178.9380  140.4110 C   0  0  2  0  0  3  0  0  0  0  0  0
  182.6510  178.7220  141.4110 C   0  0  0  0  0  2  0  0  0  0  0  0
  182.6560  176.8150  139.8440 C   0  0  0  0  0  1  0  0  0  0  0  0
  183.4540  177.5410  140.9050 C   0  0  1  0  0  3  0  0  0  0  0  0
  189.8260  176.1720  142.4520 O   0  0  0  0  0  0  0  0  0  0  0  0
  191.6920  177.5330  142.3340 O   0  0  0  0  0  0  0  0  0  0  0  0
  191.0850  176.5830  142.8980 C   0  0  0  0  0  0  0  0  0  0  0  0
  191.6840  175.9260  144.0070 N   0  0  0  0  0  1  0  0  0  0  0  0
  1  3  1  0  0  0  0
  2 12  1  0  0  0  0
  3  6  1  0  0  0  0
  3  7  2  0  0  0  0
  4 11  1  1  0  0  0
  4  8  1  0  0  0  0
  4  1  1  0  0  0  0
  5 10  1  0  0  0  0
  6 13  1  0  0  0  0
  7  9  1  0  0  0  0
  8 14  1  6  0  0  0
  8 16  1  0  0  0  0
  9  2  2  0  0  0  0
 10 12  2  0  0  0  0
 11 15  1  0  0  0  0
 13  9  1  0  0  0  0
 13  5  2  0  0  0  0
 16 15  1  6  0  0  0
 16  6  1  0  0  0  0
 17  7  1  0  0  0  0
 18 21  1  0  0  0  0
 18 17  1  1  0  0  0
 18 19  1  0  0  0  0
 21 20  1  6  0  0  0
 21 19  1  0  0  0  0
 22  5  1  0  0  0  0
 22 24  1  0  0  0  0
 23 24  2  0  0  0  0
 24 25  1  0  0  0  0
M  END
>  <MODEL>
7

>  <REMARK>
 VINA RESULT:      -7.6      3.003      4.374
  Name = 
  4 active torsions:
  status: ('A' for Active; 'I' for Inactive)
    1  A    between atoms: O_4  and  C_9
    2  A    between atoms: O_4  and  C_20
    3  A    between atoms: C_7  and  O_21
    4  A    between atoms: C_16  and  O_21
                            x       y       z     vdW  Elec       q    Type
                         _______ _______ _______ _____ _____    ______ ____

>  <TORSDO>
F 4

$$$$
=
 OpenBabel11042411453D

 25 29  0  0  1  0  0  0  0  0999 V2000
  188.4400  178.2680  143.6890 N   0  0  0  0  0  2  0  0  0  0  0  0
  187.4210  178.2560  138.8440 C   0  0  0  0  0  3  0  0  0  0  0  0
  188.4410  178.1000  142.2640 C   0  0  0  0  0  0  0  0  0  0  0  0
  189.6940  177.9430  144.3920 C   0  0  2  0  0  3  0  0  0  0  0  0
  190.1320  177.4730  139.2200 C   0  0  0  0  0  0  0  0  0  0  0  0
  189.5770  177.7460  141.6250 N   0  0  0  0  0  0  0  0  0  0  0  0
  187.4170  178.3520  141.3610 C   0  0  0  0  0  0  0  0  0  0  0  0
  190.8590  178.4460  143.5330 C   0  0  1  0  0  3  0  0  0  0  0  0
  187.9740  178.1220  140.1160 C   0  0  0  0  0  0  0  0  0  0  0  0
  189.5960  177.6110  137.9260 C   0  0  0  0  0  3  0  0  0  0  0  0
  189.8840  176.4270  144.3620 C   0  0  0  0  0  2  0  0  0  0  0  0
  188.2520  177.9950  137.7410 C   0  0  0  0  0  3  0  0  0  0  0  0
  189.2900  177.7450  140.3070 C   0  0  0  0  0  0  0  0  0  0  0  0
  192.0690  178.3430  144.2260 O   0  0  0  0  0  1  0  0  0  0  0  0
  190.6430  176.1220  143.0660 C   0  0  0  0  0  2  0  0  0  0  0  0
  190.8180  177.4660  142.3590 C   0  0  1  0  0  3  0  0  0  0  0  0
  186.1070  178.7670  141.6150 O   0  0  0  0  0  0  0  0  0  0  0  0
  185.3270  178.2210  142.6670 C   0  0  2  0  0  3  0  0  0  0  0  0
  183.8850  178.6520  142.5020 C   0  0  0  0  0  2  0  0  0  0  0  0
  184.4680  178.8230  144.8950 C   0  0  0  0  0  1  0  0  0  0  0  0
  184.7740  179.3510  143.5100 C   0  0  1  0  0  3  0  0  0  0  0  0
  191.4640  177.0860  139.3840 O   0  0  0  0  0  0  0  0  0  0  0  0
  191.6650  175.0840  138.2460 O   0  0  0  0  0  0  0  0  0  0  0  0
  192.1150  176.2360  138.4860 C   0  0  0  0  0  0  0  0  0  0  0  0
  193.2940  176.6820  137.8300 N   0  0  0  0  0  1  0  0  0  0  0  0
  1  4  1  0  0  0  0
  2  9  1  0  0  0  0
  3  1  1  0  0  0  0
  4 11  1  6  0  0  0
  5 22  1  0  0  0  0
  5 13  1  0  0  0  0
  6  3  1  0  0  0  0
  6 16  1  0  0  0  0
  7 17  1  0  0  0  0
  7  3  2  0  0  0  0
  8 14  1  1  0  0  0
  8  4  1  0  0  0  0
  9 13  2  0  0  0  0
  9  7  1  0  0  0  0
 10  5  2  0  0  0  0
 12 10  1  0  0  0  0
 12  2  2  0  0  0  0
 13  6  1  0  0  0  0
 15 11  1  0  0  0  0
 16 15  1  1  0  0  0
 16  8  1  0  0  0  0
 18 17  1  6  0  0  0
 18 21  1  0  0  0  0
 19 18  1  0  0  0  0
 19 21  1  0  0  0  0
 21 20  1  1  0  0  0
 23 24  2  0  0  0  0
 24 22  1  0  0  0  0
 25 24  1  0  0  0  0
M  END
>  <MODEL>
8

>  <REMARK>
 VINA RESULT:      -7.6      3.000      5.890
  Name = 
  4 active torsions:
  status: ('A' for Active; 'I' for Inactive)
    1  A    between atoms: O_4  and  C_9
    2  A    between atoms: O_4  and  C_20
    3  A    between atoms: C_7  and  O_21
    4  A    between atoms: C_16  and  O_21
                            x       y       z     vdW  Elec       q    Type
                         _______ _______ _______ _____ _____    ______ ____

>  <TORSDO>
F 4

$$$$
=
 OpenBabel11042411453D

 25 29  0  0  1  0  0  0  0  0999 V2000
  189.2170  177.3430  145.0850 N   0  0  0  0  0  2  0  0  0  0  0  0
  184.4480  178.6550  145.2970 C   0  0  0  0  0  3  0  0  0  0  0  0
  187.8460  177.6670  144.8110 C   0  0  0  0  0  0  0  0  0  0  0  0
  190.0990  177.1750  143.9170 C   0  0  2  0  0  3  0  0  0  0  0  0
  185.2700  178.5980  142.5720 C   0  0  0  0  0  0  0  0  0  0  0  0
  187.4420  177.8850  143.5410 N   0  0  0  0  0  0  0  0  0  0  0  0
  186.8150  177.9030  145.7110 C   0  0  0  0  0  0  0  0  0  0  0  0
  189.7260  178.2440  142.8850 C   0  0  1  0  0  3  0  0  0  0  0  0
  185.7340  178.2680  144.9290 C   0  0  0  0  0  0  0  0  0  0  0  0
  183.9680  179.0000  142.9220 C   0  0  0  0  0  3  0  0  0  0  0  0
  189.7170  175.8750  143.2080 C   0  0  0  0  0  2  0  0  0  0  0  0
  183.5600  179.0240  144.2720 C   0  0  0  0  0  3  0  0  0  0  0  0
  186.1430  178.2410  143.6080 C   0  0  0  0  0  0  0  0  0  0  0  0
  190.6470  178.2650  141.8330 O   0  0  0  0  0  1  0  0  0  0  0  0
  188.6200  176.2490  142.2050 C   0  0  0  0  0  2  0  0  0  0  0  0
  188.3620  177.7420  142.4050 C   0  0  1  0  0  3  0  0  0  0  0  0
  186.8330  177.8180  147.1060 O   0  0  0  0  0  0  0  0  0  0  0  0
  187.9550  177.3280  147.8230 C   0  0  2  0  0  3  0  0  0  0  0  0
  187.8840  177.8060  149.2580 C   0  0  0  0  0  2  0  0  0  0  0  0
  190.2220  178.0180  148.4930 C   0  0  0  0  0  1  0  0  0  0  0  0
  188.8040  178.4980  148.2730 C   0  0  1  0  0  3  0  0  0  0  0  0
  185.6540  178.5740  141.2300 O   0  0  0  0  0  0  0  0  0  0  0  0
  183.9780  177.7320  139.8780 O   0  0  0  0  0  0  0  0  0  0  0  0
  184.7350  178.6910  140.1830 C   0  0  0  0  0  0  0  0  0  0  0  0
  184.6500  179.9120  139.4600 N   0  0  0  0  0  1  0  0  0  0  0  0
  3  1  1  0  0  0  0
  3  7  2  0  0  0  0
  4 11  1  6  0  0  0
  4  1  1  0  0  0  0
  5 10  2  0  0  0  0
  5 13  1  0  0  0  0
  6 13  1  0  0  0  0
  6  3  1  0  0  0  0
  7 17  1  0  0  0  0
  8 14  1  6  0  0  0
  8  4  1  0  0  0  0
  9  2  1  0  0  0  0
  9  7  1  0  0  0  0
 10 12  1  0  0  0  0
 12  2  2  0  0  0  0
 13  9  2  0  0  0  0
 15 11  1  0  0  0  0
 16 15  1  1  0  0  0
 16  8  1  0  0  0  0
 16  6  1  0  0  0  0
 18 17  1  6  0  0  0
 18 21  1  0  0  0  0
 18 19  1  0  0  0  0
 21 20  1  1  0  0  0
 21 19  1  0  0  0  0
 22  5  1  0  0  0  0
 23 24  2  0  0  0  0
 24 22  1  0  0  0  0
 25 24  1  0  0  0  0
M  END
>  <MODEL>
9

>  <REMARK>
 VINA RESULT:      -7.4      2.213      5.896
  Name = 
  4 active torsions:
  status: ('A' for Active; 'I' for Inactive)
    1  A    between atoms: O_4  and  C_9
    2  A    between atoms: O_4  and  C_20
    3  A    between atoms: C_7  and  O_21
    4  A    between atoms: C_16  and  O_21
                            x       y       z     vdW  Elec       q    Type
                         _______ _______ _______ _____ _____    ______ ____

>  <TORSDO>
F 4

$$$$
