=
 OpenBabel11042413103D

 32 37  0  0  1  0  0  0  0  0999 V2000
  189.3290  178.6170  148.5770 C   0  0  0  0  0  1  0  0  0  0  0  0
  189.0520  177.4180  145.4270 C   0  0  0  0  0  0  0  0  0  0  0  0
  190.8970  176.6460  141.0370 C   0  0  0  0  0  1  0  0  0  0  0  0
  185.0450  178.2180  143.5990 C   0  0  0  0  0  0  0  0  0  0  0  0
  189.8240  177.3860  146.5670 O   0  0  0  0  0  0  0  0  0  0  0  0
  186.4590  177.3750  137.7760 C   0  0  0  0  0  0  0  0  0  0  0  0
  183.7270  178.6760  143.2890 N   0  0  0  0  0  2  0  0  0  0  0  0
  188.6280  176.1620  137.4080 C   0  0  0  0  0  3  0  0  0  0  0  0
  189.5490  177.1530  140.8530 N   0  0  0  0  0  0  0  0  0  0  0  0
  186.0370  177.7990  142.5420 C   0  0  1  0  0  3  0  0  0  0  0  0
  188.5510  177.5970  143.0670 C   0  0  0  0  0  0  0  0  0  0  0  0
  187.7710  178.6620  140.9490 N   0  0  0  0  0  0  0  0  0  0  0  0
  187.0890  178.5340  138.4730 C   0  0  0  0  0  2  0  0  0  0  0  0
  189.5100  177.5250  144.1020 C   0  0  0  0  0  3  0  0  0  0  0  0
  185.4410  177.9990  144.8200 N   0  0  0  0  0  0  0  0  0  0  0  0
  187.7180  177.4540  145.7400 C   0  0  0  0  0  0  0  0  0  0  0  0
  188.8960  177.2370  139.5960 C   0  0  0  0  0  0  0  0  0  0  0  0
  187.8920  178.0930  139.6470 C   0  0  0  0  0  0  0  0  0  0  0  0
  189.3480  176.5370  138.4270 N   0  0  0  0  0  0  0  0  0  0  0  0
  186.7770  177.5300  144.7190 C   0  0  0  0  0  0  0  0  0  0  0  0
  188.9300  178.1520  141.7140 C   0  0  2  0  0  3  0  0  0  0  0  0
  186.4710  178.8250  141.5430 C   0  0  0  0  0  0  0  0  0  0  0  0
  185.6760  179.7060  141.1200 O   0  0  0  0  0  0  0  0  0  0  0  0
  187.5380  177.5230  147.2110 C   0  0  0  0  0  2  0  0  0  0  0  0
  188.9900  177.4090  147.7270 C   0  0  2  0  0  3  0  0  0  0  0  0
  187.1910  177.4890  143.4110 C   0  0  0  0  0  0  0  0  0  0  0  0
  187.1730  176.3760  137.2520 C   0  0  0  0  0  3  0  0  0  0  0  0
  185.0440  177.4090  137.5390 C   0  0  0  0  0  0  0  0  0  0  0  0
  183.9030  177.4360  137.3460 N   0  0  0  0  0  0  0  0  0  0  0  0
  182.7650  179.0470  144.3170 C   0  0  0  0  0  2  0  0  0  0  0  0
  181.4270  178.6710  143.8960 N   0  0  0  0  0  2  0  0  0  0  0  0
  181.3150  179.0340  142.4950 C   0  0  0  0  0  1  0  0  0  0  0  0
  2 16  1  0  0  0  0
  2  5  1  0  0  0  0
  4 15  2  0  0  0  0
  5 25  1  0  0  0  0
  6 13  1  0  0  0  0
  7  4  1  0  0  0  0
  7 30  1  0  0  0  0
  8 19  2  0  0  0  0
  9  3  1  0  0  0  0
  9 21  1  0  0  0  0
 10 22  1  6  0  0  0
 10 26  1  0  0  0  0
 10  4  1  0  0  0  0
 11 26  2  0  0  0  0
 11 14  1  0  0  0  0
 12 22  1  0  0  0  0
 12 21  1  0  0  0  0
 13 18  1  0  0  0  0
 14  2  2  0  0  0  0
 16 24  1  0  0  0  0
 17 18  2  0  0  0  0
 17  9  1  0  0  0  0
 18 12  1  0  0  0  0
 19 17  1  0  0  0  0
 20 15  1  0  0  0  0
 20 16  2  0  0  0  0
 21 11  1  1  0  0  0
 23 22  2  0  0  0  0
 24 25  1  0  0  0  0
 25  1  1  1  0  0  0
 26 20  1  0  0  0  0
 27  8  1  0  0  0  0
 27  6  2  0  0  0  0
 28  6  1  0  0  0  0
 29 28  3  0  0  0  0
 31 30  1  0  0  0  0
 32 31  1  0  0  0  0
M  END
>  <MODEL>
1

>  <REMARK>
 VINA RESULT:     -10.1      0.000      0.000
  Name = 
  3 active torsions:
  status: ('A' for Active; 'I' for Inactive)
    1  A    between atoms: C_4  and  C_8
    2  A    between atoms: N_7  and  C_25
    3  A    between atoms: N_9  and  C_25
                            x       y       z     vdW  Elec       q    Type
                         _______ _______ _______ _____ _____    ______ ____

>  <TORSDO>
F 3

$$$$
=
 OpenBabel11042413103D

 32 37  0  0  1  0  0  0  0  0999 V2000
  190.3250  175.9820  136.2920 C   0  0  0  0  0  1  0  0  0  0  0  0
  190.4670  176.9060  139.5420 C   0  0  0  0  0  0  0  0  0  0  0  0
  191.8390  176.0950  144.0960 C   0  0  0  0  0  1  0  0  0  0  0  0
  186.6400  178.6980  141.0180 C   0  0  0  0  0  0  0  0  0  0  0  0
  191.2250  176.5110  138.4630 O   0  0  0  0  0  0  0  0  0  0  0  0
  187.5460  178.1310  146.9740 C   0  0  0  0  0  0  0  0  0  0  0  0
  185.2960  179.1530  141.1910 N   0  0  0  0  0  2  0  0  0  0  0  0
  189.9340  177.6880  147.6150 C   0  0  0  0  0  3  0  0  0  0  0  0
  190.4570  176.5380  144.1360 N   0  0  0  0  0  0  0  0  0  0  0  0
  187.5400  178.3390  142.1750 C   0  0  1  0  0  3  0  0  0  0  0  0
  189.6790  176.9460  141.8290 C   0  0  0  0  0  0  0  0  0  0  0  0
  188.1550  176.4900  143.7520 N   0  0  0  0  0  0  0  0  0  0  0  0
  187.4020  176.8760  146.1800 C   0  0  0  0  0  2  0  0  0  0  0  0
  190.5940  176.4600  140.8690 C   0  0  0  0  0  3  0  0  0  0  0  0
  187.2320  178.6890  139.8590 N   0  0  0  0  0  0  0  0  0  0  0  0
  189.4480  177.7340  139.1480 C   0  0  0  0  0  0  0  0  0  0  0  0
  189.7450  176.8120  145.3330 C   0  0  0  0  0  0  0  0  0  0  0  0
  188.4420  176.7810  145.1180 C   0  0  0  0  0  0  0  0  0  0  0  0
  190.3850  177.0040  146.6030 N   0  0  0  0  0  0  0  0  0  0  0  0
  188.5460  178.2080  140.0950 C   0  0  0  0  0  0  0  0  0  0  0  0
  189.4640  176.2010  143.1250 C   0  0  2  0  0  3  0  0  0  0  0  0
  187.1180  177.2140  143.0670 C   0  0  0  0  0  0  0  0  0  0  0  0
  185.9050  177.0050  143.3310 O   0  0  0  0  0  0  0  0  0  0  0  0
  189.4450  177.8780  137.6720 C   0  0  0  0  0  2  0  0  0  0  0  0
  190.7060  177.0830  137.2610 C   0  0  2  0  0  3  0  0  0  0  0  0
  188.7330  177.9050  141.4200 C   0  0  0  0  0  0  0  0  0  0  0  0
  188.6540  178.4270  147.6570 C   0  0  0  0  0  3  0  0  0  0  0  0
  186.3990  178.9800  147.1210 C   0  0  0  0  0  0  0  0  0  0  0  0
  185.4730  179.6660  147.2370 N   0  0  0  0  0  0  0  0  0  0  0  0
  184.4460  179.5280  140.0700 C   0  0  0  0  0  2  0  0  0  0  0  0
  183.1170  178.9710  140.2550 N   0  0  0  0  0  2  0  0  0  0  0  0
  183.0350  178.5410  141.6390 C   0  0  0  0  0  1  0  0  0  0  0  0
  2 14  1  0  0  0  0
  3  9  1  0  0  0  0
  4  7  1  0  0  0  0
  5  2  1  0  0  0  0
  6 28  1  0  0  0  0
  6 27  2  0  0  0  0
  8 27  1  0  0  0  0
  9 17  1  0  0  0  0
 10  4  1  6  0  0  0
 10 22  1  0  0  0  0
 12 18  1  0  0  0  0
 13  6  1  0  0  0  0
 14 11  2  0  0  0  0
 15 20  1  0  0  0  0
 15  4  2  0  0  0  0
 16  2  2  0  0  0  0
 16 20  1  0  0  0  0
 17 19  1  0  0  0  0
 18 17  2  0  0  0  0
 18 13  1  0  0  0  0
 19  8  2  0  0  0  0
 20 26  2  0  0  0  0
 21 11  1  6  0  0  0
 21 12  1  0  0  0  0
 21  9  1  0  0  0  0
 22 23  2  0  0  0  0
 22 12  1  0  0  0  0
 24 16  1  0  0  0  0
 25  1  1  6  0  0  0
 25 24  1  0  0  0  0
 25  5  1  0  0  0  0
 26 11  1  0  0  0  0
 26 10  1  0  0  0  0
 28 29  3  0  0  0  0
 30 31  1  0  0  0  0
 30  7  1  0  0  0  0
 31 32  1  0  0  0  0
M  END
>  <MODEL>
2

>  <REMARK>
 VINA RESULT:      -8.5      2.428      6.661
  Name = 
  3 active torsions:
  status: ('A' for Active; 'I' for Inactive)
    1  A    between atoms: C_4  and  C_8
    2  A    between atoms: N_7  and  C_25
    3  A    between atoms: N_9  and  C_25
                            x       y       z     vdW  Elec       q    Type
                         _______ _______ _______ _____ _____    ______ ____

>  <TORSDO>
F 3

$$$$
=
 OpenBabel11042413103D

 32 37  0  0  1  0  0  0  0  0999 V2000
  190.1350  176.2630  143.6900 C   0  0  0  0  0  1  0  0  0  0  0  0
  187.2630  178.0070  143.3100 C   0  0  0  0  0  0  0  0  0  0  0  0
  182.7250  178.9880  144.6240 C   0  0  0  0  0  1  0  0  0  0  0  0
  186.1500  178.6270  139.0190 C   0  0  0  0  0  0  0  0  0  0  0  0
  188.2290  177.6390  144.2180 O   0  0  0  0  0  0  0  0  0  0  0  0
  180.3080  180.0330  139.7330 C   0  0  0  0  0  0  0  0  0  0  0  0
  186.0450  178.5970  137.5930 N   0  0  0  0  0  2  0  0  0  0  0  0
  179.6800  180.6660  142.0810 C   0  0  0  0  0  3  0  0  0  0  0  0
  182.7430  178.8980  143.1750 N   0  0  0  0  0  0  0  0  0  0  0  0
  184.9810  178.9380  139.9210 C   0  0  1  0  0  3  0  0  0  0  0  0
  185.0370  178.3690  142.4330 C   0  0  0  0  0  0  0  0  0  0  0  0
  182.9950  177.9250  141.0680 N   0  0  0  0  0  0  0  0  0  0  0  0
  180.7280  178.6470  140.0920 C   0  0  0  0  0  2  0  0  0  0  0  0
  185.8720  178.0070  143.5140 C   0  0  0  0  0  3  0  0  0  0  0  0
  187.2900  178.5230  139.6390 N   0  0  0  0  0  0  0  0  0  0  0  0
  187.8180  178.2760  142.0860 C   0  0  0  0  0  0  0  0  0  0  0  0
  181.6330  179.2050  142.3460 C   0  0  0  0  0  0  0  0  0  0  0  0
  181.7720  178.6530  141.1550 C   0  0  0  0  0  0  0  0  0  0  0  0
  180.4910  179.9460  142.8030 N   0  0  0  0  0  0  0  0  0  0  0  0
  186.9930  178.6280  141.0220 C   0  0  0  0  0  0  0  0  0  0  0  0
  183.5810  177.9700  142.4260 C   0  0  2  0  0  3  0  0  0  0  0  0
  183.8020  178.0170  139.8810 C   0  0  0  0  0  0  0  0  0  0  0  0
  183.4360  177.4650  138.8100 O   0  0  0  0  0  0  0  0  0  0  0  0
  189.2760  178.0100  142.1140 C   0  0  0  0  0  2  0  0  0  0  0  0
  189.5160  177.6430  143.5960 C   0  0  2  0  0  3  0  0  0  0  0  0
  185.6450  178.7770  141.2310 C   0  0  0  0  0  0  0  0  0  0  0  0
  179.7810  180.8780  140.6210 C   0  0  0  0  0  3  0  0  0  0  0  0
  180.3430  180.4180  138.3510 C   0  0  0  0  0  0  0  0  0  0  0  0
  180.3730  180.7290  137.2360 N   0  0  0  0  0  0  0  0  0  0  0  0
  187.1850  178.3280  136.7300 C   0  0  0  0  0  2  0  0  0  0  0  0
  187.2290  176.9140  136.4010 N   0  0  0  0  0  2  0  0  0  0  0  0
  188.4930  176.4080  136.9060 C   0  0  0  0  0  1  0  0  0  0  0  0
  2 14  1  0  0  0  0
  2  5  1  0  0  0  0
  4 15  2  0  0  0  0
  6 13  1  0  0  0  0
  6 27  2  0  0  0  0
  7  4  1  0  0  0  0
  8 19  2  0  0  0  0
  9  3  1  0  0  0  0
 10  4  1  6  0  0  0
 10 26  1  0  0  0  0
 11 14  2  0  0  0  0
 12 18  1  0  0  0  0
 12 21  1  0  0  0  0
 13 18  1  0  0  0  0
 15 20  1  0  0  0  0
 16 24  1  0  0  0  0
 16  2  2  0  0  0  0
 17 19  1  0  0  0  0
 17  9  1  0  0  0  0
 18 17  2  0  0  0  0
 20 26  2  0  0  0  0
 20 16  1  0  0  0  0
 21 11  1  6  0  0  0
 21  9  1  0  0  0  0
 22 10  1  0  0  0  0
 22 12  1  0  0  0  0
 23 22  2  0  0  0  0
 24 25  1  0  0  0  0
 25  1  1  6  0  0  0
 25  5  1  0  0  0  0
 26 11  1  0  0  0  0
 27  8  1  0  0  0  0
 28  6  1  0  0  0  0
 29 28  3  0  0  0  0
 30  7  1  0  0  0  0
 31 30  1  0  0  0  0
 31 32  1  0  0  0  0
M  END
>  <MODEL>
3

>  <REMARK>
 VINA RESULT:      -7.8      2.272      6.386
  Name = 
  3 active torsions:
  status: ('A' for Active; 'I' for Inactive)
    1  A    between atoms: C_4  and  C_8
    2  A    between atoms: N_7  and  C_25
    3  A    between atoms: N_9  and  C_25
                            x       y       z     vdW  Elec       q    Type
                         _______ _______ _______ _____ _____    ______ ____

>  <TORSDO>
F 3

$$$$
=
 OpenBabel11042413103D

 32 37  0  0  1  0  0  0  0  0999 V2000
  191.7230  177.5010  146.9500 C   0  0  0  0  0  1  0  0  0  0  0  0
  190.3510  176.6450  143.9810 C   0  0  0  0  0  0  0  0  0  0  0  0
  190.6640  176.1010  139.1970 C   0  0  0  0  0  1  0  0  0  0  0  0
  186.1210  178.0410  143.5420 C   0  0  0  0  0  0  0  0  0  0  0  0
  191.4200  176.4210  144.8190 O   0  0  0  0  0  0  0  0  0  0  0  0
  185.5830  177.6100  137.5300 C   0  0  0  0  0  0  0  0  0  0  0  0
  184.8430  178.6650  143.6850 N   0  0  0  0  0  2  0  0  0  0  0  0
  187.3600  176.2120  136.4350 C   0  0  0  0  0  3  0  0  0  0  0  0
  189.4020  176.7650  139.4720 N   0  0  0  0  0  0  0  0  0  0  0  0
  186.6820  177.6210  142.2060 C   0  0  1  0  0  3  0  0  0  0  0  0
  189.1880  177.1010  141.9090 C   0  0  0  0  0  0  0  0  0  0  0  0
  187.9510  178.4400  140.2040 N   0  0  0  0  0  0  0  0  0  0  0  0
  186.5410  178.6230  138.0610 C   0  0  0  0  0  2  0  0  0  0  0  0
  190.3970  176.8280  142.5870 C   0  0  0  0  0  3  0  0  0  0  0  0
  186.8350  177.6660  144.5640 N   0  0  0  0  0  0  0  0  0  0  0  0
  189.1910  176.7940  144.6960 C   0  0  0  0  0  0  0  0  0  0  0  0
  188.4160  177.0380  138.4880 C   0  0  0  0  0  0  0  0  0  0  0  0
  187.5960  177.9880  138.8990 C   0  0  0  0  0  0  0  0  0  0  0  0
  188.3970  176.4090  137.1980 N   0  0  0  0  0  0  0  0  0  0  0  0
  188.0030  177.0680  144.0250 C   0  0  0  0  0  0  0  0  0  0  0  0
  189.2090  177.7380  140.5400 C   0  0  2  0  0  3  0  0  0  0  0  0
  186.9240  178.6850  141.1820 C   0  0  0  0  0  0  0  0  0  0  0  0
  186.1620  179.6830  141.0800 O   0  0  0  0  0  0  0  0  0  0  0  0
  189.4740  176.7410  146.1500 C   0  0  0  0  0  2  0  0  0  0  0  0
  190.9860  176.4230  146.1800 C   0  0  2  0  0  3  0  0  0  0  0  0
  187.9940  177.1070  142.6530 C   0  0  0  0  0  0  0  0  0  0  0  0
  185.9680  176.5950  136.7530 C   0  0  0  0  0  3  0  0  0  0  0  0
  184.1800  177.8180  137.7480 C   0  0  0  0  0  0  0  0  0  0  0  0
  183.0490  177.9880  137.9240 N   0  0  0  0  0  0  0  0  0  0  0  0
  184.2940  179.0380  144.9810 C   0  0  0  0  0  2  0  0  0  0  0  0
  182.8640  178.7840  145.0010 N   0  0  0  0  0  2  0  0  0  0  0  0
  182.3700  179.0890  143.6700 C   0  0  0  0  0  1  0  0  0  0  0  0
  2 16  1  0  0  0  0
  2  5  1  0  0  0  0
  3  9  1  0  0  0  0
  4  7  1  0  0  0  0
  4 15  2  0  0  0  0
  5 25  1  0  0  0  0
  6 28  1  0  0  0  0
  6 13  1  0  0  0  0
  7 30  1  0  0  0  0
  8 27  1  0  0  0  0
  8 19  2  0  0  0  0
  9 21  1  0  0  0  0
 10 22  1  6  0  0  0
 10 26  1  0  0  0  0
 10  4  1  0  0  0  0
 11 14  1  0  0  0  0
 11 26  2  0  0  0  0
 12 21  1  0  0  0  0
 12 22  1  0  0  0  0
 13 18  1  0  0  0  0
 14  2  2  0  0  0  0
 16 24  1  0  0  0  0
 17 18  2  0  0  0  0
 17  9  1  0  0  0  0
 18 12  1  0  0  0  0
 19 17  1  0  0  0  0
 20 15  1  0  0  0  0
 20 16  2  0  0  0  0
 21 11  1  1  0  0  0
 23 22  2  0  0  0  0
 24 25  1  0  0  0  0
 25  1  1  1  0  0  0
 26 20  1  0  0  0  0
 27  6  2  0  0  0  0
 28 29  3  0  0  0  0
 30 31  1  0  0  0  0
 32 31  1  0  0  0  0
M  END
>  <MODEL>
4

>  <REMARK>
 VINA RESULT:      -7.8      1.385      1.594
  Name = 
  3 active torsions:
  status: ('A' for Active; 'I' for Inactive)
    1  A    between atoms: C_4  and  C_8
    2  A    between atoms: N_7  and  C_25
    3  A    between atoms: N_9  and  C_25
                            x       y       z     vdW  Elec       q    Type
                         _______ _______ _______ _____ _____    ______ ____

>  <TORSDO>
F 3

$$$$
=
 OpenBabel11042413103D

 32 37  0  0  1  0  0  0  0  0999 V2000
  192.0550  178.8040  143.9690 C   0  0  0  0  0  1  0  0  0  0  0  0
  189.3030  177.9150  142.2170 C   0  0  0  0  0  0  0  0  0  0  0  0
  186.6570  178.0330  138.1840 C   0  0  0  0  0  1  0  0  0  0  0  0
  185.5610  178.0180  144.6710 C   0  0  0  0  0  0  0  0  0  0  0  0
  190.6790  177.9300  142.1950 O   0  0  0  0  0  0  0  0  0  0  0  0
  181.4820  178.1260  140.2030 C   0  0  0  0  0  0  0  0  0  0  0  0
  184.5680  178.2100  145.6820 N   0  0  0  0  0  2  0  0  0  0  0  0
  182.3940  177.4590  137.9600 C   0  0  0  0  0  3  0  0  0  0  0  0
  185.7520  178.2530  139.2990 N   0  0  0  0  0  0  0  0  0  0  0  0
  185.2300  177.9390  143.2010 C   0  0  1  0  0  3  0  0  0  0  0  0
  187.0480  178.2320  141.4000 C   0  0  0  0  0  0  0  0  0  0  0  0
  184.8160  179.3220  141.1510 N   0  0  0  0  0  0  0  0  0  0  0  0
  182.3750  179.3140  140.3450 C   0  0  0  0  0  2  0  0  0  0  0  0
  188.4400  178.2590  141.1610 C   0  0  0  0  0  3  0  0  0  0  0  0
  186.8060  177.7620  144.9530 N   0  0  0  0  0  0  0  0  0  0  0  0
  188.8360  177.6280  143.4730 C   0  0  0  0  0  0  0  0  0  0  0  0
  184.3400  178.3260  139.1730 C   0  0  0  0  0  0  0  0  0  0  0  0
  183.8090  178.9340  140.2180 C   0  0  0  0  0  0  0  0  0  0  0  0
  183.6290  177.8700  138.0130 N   0  0  0  0  0  0  0  0  0  0  0  0
  187.4640  177.6070  143.7060 C   0  0  0  0  0  0  0  0  0  0  0  0
  186.1050  178.9970  140.5010 C   0  0  2  0  0  3  0  0  0  0  0  0
  184.5990  179.1350  142.5610 C   0  0  0  0  0  0  0  0  0  0  0  0
  183.7850  179.8640  143.1880 O   0  0  0  0  0  0  0  0  0  0  0  0
  189.9660  177.4990  144.4240 C   0  0  0  0  0  2  0  0  0  0  0  0
  191.1950  177.6480  143.4980 C   0  0  2  0  0  3  0  0  0  0  0  0
  186.5970  177.7960  142.6590 C   0  0  0  0  0  0  0  0  0  0  0  0
  181.4630  177.3680  139.1050 C   0  0  0  0  0  3  0  0  0  0  0  0
  180.5100  177.8780  141.2290 C   0  0  0  0  0  0  0  0  0  0  0  0
  179.7270  177.6770  142.0580 N   0  0  0  0  0  0  0  0  0  0  0  0
  184.8930  178.2530  147.1000 C   0  0  0  0  0  2  0  0  0  0  0  0
  185.7080  179.4220  147.3820 N   0  0  0  0  0  2  0  0  0  0  0  0
  186.8890  178.9470  148.0800 C   0  0  0  0  0  1  0  0  0  0  0  0
  2 16  1  0  0  0  0
  3  9  1  0  0  0  0
  4 15  2  0  0  0  0
  4  7  1  0  0  0  0
  5  2  1  0  0  0  0
  5 25  1  0  0  0  0
  6 13  1  0  0  0  0
  6 28  1  0  0  0  0
  7 30  1  0  0  0  0
  8 19  2  0  0  0  0
  8 27  1  0  0  0  0
  9 21  1  0  0  0  0
 10 22  1  6  0  0  0
 10  4  1  0  0  0  0
 11 26  2  0  0  0  0
 12 22  1  0  0  0  0
 14 11  1  0  0  0  0
 14  2  2  0  0  0  0
 16 20  2  0  0  0  0
 16 24  1  0  0  0  0
 17  9  1  0  0  0  0
 17 18  2  0  0  0  0
 18 13  1  0  0  0  0
 18 12  1  0  0  0  0
 19 17  1  0  0  0  0
 20 15  1  0  0  0  0
 21 12  1  0  0  0  0
 21 11  1  1  0  0  0
 22 23  2  0  0  0  0
 25  1  1  1  0  0  0
 25 24  1  0  0  0  0
 26 10  1  0  0  0  0
 26 20  1  0  0  0  0
 27  6  2  0  0  0  0
 28 29  3  0  0  0  0
 30 31  1  0  0  0  0
 31 32  1  0  0  0  0
M  END
>  <MODEL>
5

>  <REMARK>
 VINA RESULT:      -7.3      2.166      4.330
  Name = 
  3 active torsions:
  status: ('A' for Active; 'I' for Inactive)
    1  A    between atoms: C_4  and  C_8
    2  A    between atoms: N_7  and  C_25
    3  A    between atoms: N_9  and  C_25
                            x       y       z     vdW  Elec       q    Type
                         _______ _______ _______ _____ _____    ______ ____

>  <TORSDO>
F 3

$$$$
=
 OpenBabel11042413103D

 32 37  0  0  1  0  0  0  0  0999 V2000
  194.0220  176.4140  135.9030 C   0  0  0  0  0  1  0  0  0  0  0  0
  190.7810  176.1610  136.8340 C   0  0  0  0  0  0  0  0  0  0  0  0
  186.0810  176.7810  135.9390 C   0  0  0  0  0  1  0  0  0  0  0  0
  190.1040  177.2490  141.1230 C   0  0  0  0  0  0  0  0  0  0  0  0
  191.6830  175.8410  135.8440 O   0  0  0  0  0  0  0  0  0  0  0  0
  184.1300  178.1920  140.9470 C   0  0  0  0  0  0  0  0  0  0  0  0
  190.2120  177.7090  142.4720 N   0  0  0  0  0  2  0  0  0  0  0  0
  182.9980  177.2490  138.9120 C   0  0  0  0  0  3  0  0  0  0  0  0
  186.3260  177.2500  137.2910 N   0  0  0  0  0  0  0  0  0  0  0  0
  188.7960  177.2030  140.3740 C   0  0  1  0  0  3  0  0  0  0  0  0
  188.7260  176.9870  137.8080 C   0  0  0  0  0  0  0  0  0  0  0  0
  187.2120  178.5750  138.9970 N   0  0  0  0  0  0  0  0  0  0  0  0
  184.9950  179.1320  140.1750 C   0  0  0  0  0  2  0  0  0  0  0  0
  189.4810  176.6680  136.6570 C   0  0  0  0  0  3  0  0  0  0  0  0
  191.1030  176.7080  140.4860 N   0  0  0  0  0  0  0  0  0  0  0  0
  191.3500  176.0370  138.0750 C   0  0  0  0  0  0  0  0  0  0  0  0
  185.3050  177.6600  138.1890 C   0  0  0  0  0  0  0  0  0  0  0  0
  185.8040  178.4130  139.1520 C   0  0  0  0  0  0  0  0  0  0  0  0
  183.9170  177.3500  137.9940 N   0  0  0  0  0  0  0  0  0  0  0  0
  190.6050  176.3560  139.2050 C   0  0  0  0  0  0  0  0  0  0  0  0
  187.5480  177.9260  137.7100 C   0  0  2  0  0  3  0  0  0  0  0  0
  188.0750  178.4940  140.1450 C   0  0  0  0  0  0  0  0  0  0  0  0
  188.0960  179.4190  141.0010 O   0  0  0  0  0  0  0  0  0  0  0  0
  192.7820  175.6700  137.9480 C   0  0  0  0  0  2  0  0  0  0  0  0
  192.9410  175.4860  136.4220 C   0  0  2  0  0  3  0  0  0  0  0  0
  189.2880  176.7150  139.0690 C   0  0  0  0  0  0  0  0  0  0  0  0
  183.2060  177.4250  140.3650 C   0  0  0  0  0  3  0  0  0  0  0  0
  184.2010  178.2210  142.3790 C   0  0  0  0  0  0  0  0  0  0  0  0
  184.2560  178.2460  143.5360 N   0  0  0  0  0  0  0  0  0  0  0  0
  191.4740  177.7190  143.1980 C   0  0  0  0  0  2  0  0  0  0  0  0
  191.5870  176.5150  144.0020 N   0  0  0  0  0  2  0  0  0  0  0  0
  191.4450  176.9250  145.3880 C   0  0  0  0  0  1  0  0  0  0  0  0
  2 16  1  0  0  0  0
  3  9  1  0  0  0  0
  4  7  1  0  0  0  0
  5 25  1  0  0  0  0
  5  2  1  0  0  0  0
  6 28  1  0  0  0  0
  7 30  1  0  0  0  0
  8 27  1  0  0  0  0
  9 21  1  0  0  0  0
  9 17  1  0  0  0  0
 10 26  1  6  0  0  0
 10  4  1  0  0  0  0
 11 26  2  0  0  0  0
 12 18  1  0  0  0  0
 12 22  1  0  0  0  0
 13  6  1  0  0  0  0
 14  2  2  0  0  0  0
 14 11  1  0  0  0  0
 15  4  2  0  0  0  0
 16 20  2  0  0  0  0
 17 18  2  0  0  0  0
 18 13  1  0  0  0  0
 19 17  1  0  0  0  0
 19  8  2  0  0  0  0
 20 15  1  0  0  0  0
 21 11  1  1  0  0  0
 21 12  1  0  0  0  0
 22 10  1  0  0  0  0
 22 23  2  0  0  0  0
 24 16  1  0  0  0  0
 25  1  1  6  0  0  0
 25 24  1  0  0  0  0
 26 20  1  0  0  0  0
 27  6  2  0  0  0  0
 28 29  3  0  0  0  0
 30 31  1  0  0  0  0
 31 32  1  0  0  0  0
M  END
>  <MODEL>
6

>  <REMARK>
 VINA RESULT:      -7.3      2.796      7.131
  Name = 
  3 active torsions:
  status: ('A' for Active; 'I' for Inactive)
    1  A    between atoms: C_4  and  C_8
    2  A    between atoms: N_7  and  C_25
    3  A    between atoms: N_9  and  C_25
                            x       y       z     vdW  Elec       q    Type
                         _______ _______ _______ _____ _____    ______ ____

>  <TORSDO>
F 3

$$$$
