=
 OpenBabel11032421013D

 46 52  0  0  1  0  0  0  0  0999 V2000
  185.5700  177.6460  137.9930 N   0  0  0  0  0  2  0  0  0  0  0  0
  186.8850  177.6120  137.3730 C   0  0  1  0  0  3  0  0  0  0  0  0
  188.9000  179.5670  137.2750 O   0  0  0  0  0  1  0  0  0  0  0  0
  188.0710  177.5190  138.3820 C   0  0  2  0  0  3  0  0  0  0  0  0
  190.8070  175.9330  136.4660 C   0  0  0  0  0  2  0  0  0  0  0  0
  189.0660  178.7100  138.3700 C   0  0  1  0  0  3  0  0  0  0  0  0
  189.5180  177.3360  137.9010 C   0  0  1  0  0  0  0  0  0  0  0  0
  191.4610  175.8850  137.8540 C   0  0  2  0  0  3  0  0  0  0  0  0
  190.4240  176.5140  138.8080 C   0  0  1  0  0  3  0  0  0  0  0  0
  189.8790  177.1350  136.4450 C   0  0  0  0  0  2  0  0  0  0  0  0
  191.0280  177.3200  139.8650 N   0  0  0  0  0  1  0  0  0  0  0  0
  193.5160  176.4300  136.4800 C   0  0  0  0  0  1  0  0  0  0  0  0
  192.8300  176.5970  137.8280 C   0  0  2  0  0  3  0  0  0  0  0  0
  193.6660  176.0580  138.8080 O   0  0  0  0  0  1  0  0  0  0  0  0
  185.3000  175.1130  135.6740 C   0  0  0  0  0  0  0  0  0  0  0  0
  185.0180  172.9490  136.5200 C   0  0  0  0  0  3  0  0  0  0  0  0
  186.9650  176.6370  136.1850 C   0  0  2  0  0  3  0  0  0  0  0  0
  184.6170  173.9420  135.6730 N   0  0  0  0  0  0  0  0  0  0  0  0
  186.1350  173.1500  137.3590 C   0  0  0  0  0  3  0  0  0  0  0  0
  186.0130  177.0790  135.0880 C   0  0  0  0  0  3  0  0  0  0  0  0
  186.3670  175.3110  136.4870 C   0  0  0  0  0  0  0  0  0  0  0  0
  186.8080  174.3390  137.3250 N   0  0  0  0  0  0  0  0  0  0  0  0
  185.0840  176.2100  134.8110 N   0  0  0  0  0  0  0  0  0  0  0  0
  185.6750  178.5050  139.1620 C   0  0  0  0  0  2  0  0  0  0  0  0
  184.3810  179.2760  139.3800 C   0  0  0  0  0  2  0  0  0  0  0  0
  183.1970  178.5800  138.7270 C   0  0  0  0  0  2  0  0  0  0  0  0
  181.6050  178.7440  141.9270 C   0  0  0  0  0  3  0  0  0  0  0  0
  181.7610  178.9000  140.6440 C   0  0  0  0  0  0  0  0  0  0  0  0
  181.9380  179.0510  139.3640 C   0  0  0  0  0  3  0  0  0  0  0  0
  182.5400  179.4200  142.8710 C   0  0  0  0  0  2  0  0  0  0  0  0
  182.4380  178.7860  144.2500 C   0  0  0  0  0  2  0  0  0  0  0  0
  185.8760  178.2550  145.1370 C   0  0  0  0  0  0  0  0  0  0  0  0
  184.0020  178.8420  146.1360 N   0  0  0  0  0  0  0  0  0  0  0  0
  183.7580  178.6630  144.8480 N   0  0  0  0  0  0  0  0  0  0  0  0
  185.3050  178.5860  146.3540 C   0  0  0  0  0  3  0  0  0  0  0  0
  184.8680  178.2810  144.1970 C   0  0  0  0  0  3  0  0  0  0  0  0
  187.2700  177.7770  144.8990 C   0  0  0  0  0  2  0  0  0  0  0  0
  187.6490  177.8890  143.4220 C   0  0  1  0  0  3  0  0  0  0  0  0
  188.9160  177.2010  143.0210 C   0  0  2  0  0  3  0  0  0  0  0  0
  187.6550  176.6040  142.8450 O   0  0  0  0  0  0  0  0  0  0  0  0
  189.6710  176.4620  144.1260 C   0  0  0  0  0  2  0  0  0  0  0  0
  190.9280  177.2150  144.5380 C   0  0  0  0  0  0  0  0  0  0  0  0
  190.8810  178.6780  144.1720 C   0  0  0  0  0  2  0  0  0  0  0  0
  191.8110  177.7350  143.4250 C   0  0  0  0  0  2  0  0  0  0  0  0
  190.6310  176.7510  146.8670 O   0  0  0  0  0  1  0  0  0  0  0  0
  191.5940  176.9690  145.8790 C   0  0  0  0  0  2  0  0  0  0  0  0
  1 24  1  0  0  0  0
  2  1  1  1  0  0  0
  4  2  1  6  0  0  0
  5  8  1  0  0  0  0
  6  3  1  6  0  0  0
  6  4  1  0  0  0  0
  7 10  1  6  0  0  0
  7  6  1  0  0  0  0
  7  4  1  0  0  0  0
  7  9  1  0  0  0  0
  8 13  1  6  0  0  0
  8  9  1  0  0  0  0
  9 11  1  1  0  0  0
 10  5  1  0  0  0  0
 13 12  1  6  0  0  0
 13 14  1  0  0  0  0
 15 21  1  0  0  0  0
 16 19  2  0  0  0  0
 17 21  1  0  0  0  0
 17  2  1  1  0  0  0
 18 15  2  0  0  0  0
 18 16  1  0  0  0  0
 20 17  1  0  0  0  0
 21 22  2  0  0  0  0
 22 19  1  0  0  0  0
 23 20  2  0  0  0  0
 23 15  1  0  0  0  0
 24 25  1  0  0  0  0
 26 29  1  0  0  0  0
 26 25  1  0  0  0  0
 27 30  1  0  0  0  0
 28 27  2  0  0  0  0
 29 28  2  0  0  0  0
 30 31  1  0  0  0  0
 31 34  1  0  0  0  0
 32 35  1  0  0  0  0
 33 35  2  0  0  0  0
 34 33  1  0  0  0  0
 36 34  1  0  0  0  0
 36 32  2  0  0  0  0
 37 32  1  0  0  0  0
 38 37  1  1  0  0  0
 39 38  1  0  0  0  0
 39 41  1  1  0  0  0
 40 39  1  0  0  0  0
 40 38  1  0  0  0  0
 41 42  1  0  0  0  0
 42 46  1  0  0  0  0
 43 42  1  0  0  0  0
 44 43  1  0  0  0  0
 44 42  1  0  0  0  0
 46 45  1  0  0  0  0
M  END
>  <MODEL>
1

>  <REMARK>
 VINA RESULT:      -7.8      0.000      0.000
  Name = 
  16 active torsions:
  status: ('A' for Active; 'I' for Inactive)
    1  A    between atoms: C_1  and  C_12
    2  A    between atoms: C_3  and  C_42
    3  A    between atoms: C_6  and  C_41
    4  A    between atoms: C_7  and  C_42
    5  A    between atoms: C_9  and  C_19
    6  A    between atoms: C_9  and  C_26
    7  A    between atoms: C_10  and  C_41
    8  A    between atoms: C_12  and  C_40
    9  A    between atoms: N_15  and  C_21
   10  A    between atoms: N_15  and  C_42
   11  A    between atoms: C_21  and  C_23
   12  A    between atoms: C_23  and  C_31
   13  A    between atoms: C_25  and  C_38
   14  A    between atoms: C_26  and  C_39
   15  A    between atoms: N_27  and  C_40
   16  A    between atoms: C_28  and  C_31
                            x       y       z     vdW  Elec       q    Type
                         _______ _______ _______ _____ _____    ______ ____

>  <TORSDO>
F 16

$$$$
=
 OpenBabel11032421013D

 46 52  0  0  1  0  0  0  0  0999 V2000
  190.3810  176.4640  140.0610 N   0  0  0  0  0  2  0  0  0  0  0  0
  189.7090  177.1720  141.1390 C   0  0  1  0  0  3  0  0  0  0  0  0
  190.1140  174.9450  142.8030 O   0  0  0  0  0  1  0  0  0  0  0  0
  190.5690  177.3450  142.4300 C   0  0  2  0  0  3  0  0  0  0  0  0
  188.0990  177.7600  145.1510 C   0  0  0  0  0  2  0  0  0  0  0  0
  190.8740  176.0450  143.2190 C   0  0  1  0  0  3  0  0  0  0  0  0
  189.9730  177.1100  143.8260 C   0  0  1  0  0  0  0  0  0  0  0  0
  189.3620  178.1010  145.9530 C   0  0  2  0  0  3  0  0  0  0  0  0
  190.5230  177.9860  144.9430 C   0  0  1  0  0  3  0  0  0  0  0  0
  188.5100  176.7970  144.0500 C   0  0  0  0  0  2  0  0  0  0  0  0
  191.7440  177.4380  145.5270 N   0  0  0  0  0  1  0  0  0  0  0  0
  188.1140  176.7810  147.7160 C   0  0  0  0  0  1  0  0  0  0  0  0
  189.4830  177.1770  147.1830 C   0  0  2  0  0  3  0  0  0  0  0  0
  190.1710  177.8340  148.2060 O   0  0  0  0  0  1  0  0  0  0  0  0
  187.2440  178.4270  139.1410 C   0  0  0  0  0  0  0  0  0  0  0  0
  187.3730  178.4810  136.8050 C   0  0  0  0  0  3  0  0  0  0  0  0
  188.9870  178.4450  140.6650 C   0  0  2  0  0  3  0  0  0  0  0  0
  186.6160  178.4780  137.9410 N   0  0  0  0  0  0  0  0  0  0  0  0
  188.7810  178.4480  136.8990 C   0  0  0  0  0  3  0  0  0  0  0  0
  187.6010  178.5130  141.2820 C   0  0  0  0  0  3  0  0  0  0  0  0
  188.5960  178.3860  139.2320 C   0  0  0  0  0  0  0  0  0  0  0  0
  189.3810  178.4100  138.1260 N   0  0  0  0  0  0  0  0  0  0  0  0
  186.6320  178.5050  140.4120 N   0  0  0  0  0  0  0  0  0  0  0  0
  191.7130  177.0350  139.9450 C   0  0  0  0  0  2  0  0  0  0  0  0
  192.3930  176.5600  138.6680 C   0  0  0  0  0  2  0  0  0  0  0  0
  191.5840  175.4750  137.9740 C   0  0  0  0  0  2  0  0  0  0  0  0
  190.1030  174.2290  134.9650 C   0  0  0  0  0  3  0  0  0  0  0  0
  190.8120  175.0060  135.7340 C   0  0  0  0  0  0  0  0  0  0  0  0
  191.5110  175.7720  136.5190 C   0  0  0  0  0  3  0  0  0  0  0  0
  188.6360  174.1090  135.1900 C   0  0  0  0  0  2  0  0  0  0  0  0
  188.3600  173.7080  136.6310 C   0  0  0  0  0  2  0  0  0  0  0  0
  184.9820  174.7500  137.2630 C   0  0  0  0  0  0  0  0  0  0  0  0
  186.1880  172.9150  137.4440 N   0  0  0  0  0  0  0  0  0  0  0  0
  186.9490  173.8730  136.9400 N   0  0  0  0  0  0  0  0  0  0  0  0
  184.9630  173.4260  137.6680 C   0  0  0  0  0  3  0  0  0  0  0  0
  186.2630  175.0230  136.8310 C   0  0  0  0  0  3  0  0  0  0  0  0
  183.8920  175.7560  137.4280 C   0  0  0  0  0  2  0  0  0  0  0  0
  182.9720  175.3890  138.5930 C   0  0  1  0  0  3  0  0  0  0  0  0
  181.9900  176.4410  139.0040 C   0  0  2  0  0  3  0  0  0  0  0  0
  181.6360  175.3850  138.1460 O   0  0  0  0  0  0  0  0  0  0  0  0
  182.0160  177.7460  138.2080 C   0  0  0  0  0  2  0  0  0  0  0  0
  182.0970  178.9560  139.1290 C   0  0  0  0  0  0  0  0  0  0  0  0
  183.4280  179.6620  139.0510 C   0  0  0  0  0  2  0  0  0  0  0  0
  183.0590  178.8660  140.2940 C   0  0  0  0  0  2  0  0  0  0  0  0
  180.1060  179.5220  140.3290 O   0  0  0  0  0  1  0  0  0  0  0  0
  180.9330  179.9170  139.2760 C   0  0  0  0  0  2  0  0  0  0  0  0
  2  1  1  6  0  0  0
  4  2  1  6  0  0  0
  4  6  1  0  0  0  0
  4  7  1  0  0  0  0
  5  8  1  0  0  0  0
  6  3  1  6  0  0  0
  6  7  1  0  0  0  0
  7 10  1  1  0  0  0
  7  9  1  0  0  0  0
  8 13  1  1  0  0  0
  9 11  1  1  0  0  0
  9  8  1  0  0  0  0
 10  5  1  0  0  0  0
 13 12  1  1  0  0  0
 13 14  1  0  0  0  0
 15 21  1  0  0  0  0
 15 23  1  0  0  0  0
 16 19  2  0  0  0  0
 16 18  1  0  0  0  0
 17  2  1  1  0  0  0
 17 20  1  0  0  0  0
 18 15  2  0  0  0  0
 19 22  1  0  0  0  0
 21 17  1  0  0  0  0
 22 21  2  0  0  0  0
 23 20  2  0  0  0  0
 24  1  1  0  0  0  0
 25 24  1  0  0  0  0
 26 25  1  0  0  0  0
 27 30  1  0  0  0  0
 27 28  2  0  0  0  0
 28 29  2  0  0  0  0
 29 26  1  0  0  0  0
 30 31  1  0  0  0  0
 31 34  1  0  0  0  0
 32 37  1  0  0  0  0
 32 35  1  0  0  0  0
 33 35  2  0  0  0  0
 34 33  1  0  0  0  0
 36 34  1  0  0  0  0
 36 32  2  0  0  0  0
 38 37  1  6  0  0  0
 38 39  1  0  0  0  0
 39 41  1  6  0  0  0
 40 38  1  0  0  0  0
 40 39  1  0  0  0  0
 41 42  1  0  0  0  0
 42 46  1  0  0  0  0
 42 44  1  0  0  0  0
 43 42  1  0  0  0  0
 43 44  1  0  0  0  0
 46 45  1  0  0  0  0
M  END
>  <MODEL>
2

>  <REMARK>
 VINA RESULT:      -7.3      2.584      8.527
  Name = 
  16 active torsions:
  status: ('A' for Active; 'I' for Inactive)
    1  A    between atoms: C_1  and  C_12
    2  A    between atoms: C_3  and  C_42
    3  A    between atoms: C_6  and  C_41
    4  A    between atoms: C_7  and  C_42
    5  A    between atoms: C_9  and  C_19
    6  A    between atoms: C_9  and  C_26
    7  A    between atoms: C_10  and  C_41
    8  A    between atoms: C_12  and  C_40
    9  A    between atoms: N_15  and  C_21
   10  A    between atoms: N_15  and  C_42
   11  A    between atoms: C_21  and  C_23
   12  A    between atoms: C_23  and  C_31
   13  A    between atoms: C_25  and  C_38
   14  A    between atoms: C_26  and  C_39
   15  A    between atoms: N_27  and  C_40
   16  A    between atoms: C_28  and  C_31
                            x       y       z     vdW  Elec       q    Type
                         _______ _______ _______ _____ _____    ______ ____

>  <TORSDO>
F 16

$$$$
=
 OpenBabel11032421013D

 46 52  0  0  1  0  0  0  0  0999 V2000
  183.0470  178.9840  141.9030 N   0  0  0  0  0  2  0  0  0  0  0  0
  182.4110  178.6380  140.6420 C   0  0  1  0  0  3  0  0  0  0  0  0
  183.9900  178.7730  138.3220 O   0  0  0  0  0  1  0  0  0  0  0  0
  182.9240  177.3100  140.0040 C   0  0  2  0  0  3  0  0  0  0  0  0
  180.5670  176.6280  137.2370 C   0  0  0  0  0  2  0  0  0  0  0  0
  183.9100  177.4660  138.8160 C   0  0  1  0  0  3  0  0  0  0  0  0
  182.5200  176.8960  138.5810 C   0  0  1  0  0  0  0  0  0  0  0  0
  181.3260  175.2940  137.2060 C   0  0  2  0  0  3  0  0  0  0  0  0
  182.3720  175.4010  138.3360 C   0  0  1  0  0  3  0  0  0  0  0  0
  181.5320  177.6840  137.7480 C   0  0  0  0  0  2  0  0  0  0  0  0
  183.6440  174.7650  138.0070 N   0  0  0  0  0  1  0  0  0  0  0  0
  181.1420  175.7990  134.7330 C   0  0  0  0  0  1  0  0  0  0  0  0
  181.9160  175.0430  135.8030 C   0  0  2  0  0  3  0  0  0  0  0  0
  181.8570  173.6820  135.4980 O   0  0  0  0  0  1  0  0  0  0  0  0
  179.7660  180.0850  142.2410 C   0  0  0  0  0  0  0  0  0  0  0  0
  179.0460  179.4610  144.3780 C   0  0  0  0  0  3  0  0  0  0  0  0
  180.8800  178.7910  140.6770 C   0  0  2  0  0  3  0  0  0  0  0  0
  179.1140  180.3980  143.3870 N   0  0  0  0  0  0  0  0  0  0  0  0
  179.6360  178.1930  144.1880 C   0  0  0  0  0  3  0  0  0  0  0  0
  180.4870  180.1760  140.1940 C   0  0  0  0  0  3  0  0  0  0  0  0
  180.3410  178.8710  142.0600 C   0  0  0  0  0  0  0  0  0  0  0  0
  180.2750  177.9080  143.0140 N   0  0  0  0  0  0  0  0  0  0  0  0
  179.8600  180.8900  141.0830 N   0  0  0  0  0  0  0  0  0  0  0  0
  184.2480  178.1720  142.0080 C   0  0  0  0  0  2  0  0  0  0  0  0
  184.9450  178.4110  143.3400 C   0  0  0  0  0  2  0  0  0  0  0  0
  183.9520  178.7730  144.4340 C   0  0  0  0  0  2  0  0  0  0  0  0
  186.9200  177.5620  146.0240 C   0  0  0  0  0  3  0  0  0  0  0  0
  185.7880  178.1930  145.8930 C   0  0  0  0  0  0  0  0  0  0  0  0
  184.6580  178.8200  145.7420 C   0  0  0  0  0  3  0  0  0  0  0  0
  188.0840  177.9570  145.1840 C   0  0  0  0  0  2  0  0  0  0  0  0
  188.6460  176.7400  144.4650 C   0  0  0  0  0  2  0  0  0  0  0  0
  188.7090  177.7420  141.0170 C   0  0  0  0  0  0  0  0  0  0  0  0
  190.0270  176.6970  142.4410 N   0  0  0  0  0  0  0  0  0  0  0  0
  188.9230  177.0580  143.0730 N   0  0  0  0  0  0  0  0  0  0  0  0
  189.9240  177.0950  141.1590 C   0  0  0  0  0  3  0  0  0  0  0  0
  188.0740  177.6820  142.2390 C   0  0  0  0  0  3  0  0  0  0  0  0
  188.1030  178.2490  139.7510 C   0  0  0  0  0  2  0  0  0  0  0  0
  189.1800  178.6260  138.7340 C   0  0  1  0  0  3  0  0  0  0  0  0
  189.1910  177.8260  137.4690 C   0  0  2  0  0  3  0  0  0  0  0  0
  188.5640  179.0820  137.5520 O   0  0  0  0  0  0  0  0  0  0  0  0
  188.1230  176.7400  137.3400 C   0  0  0  0  0  2  0  0  0  0  0  0
  188.6740  175.4980  136.6530 C   0  0  0  0  0  0  0  0  0  0  0  0
  188.0480  175.2490  135.3040 C   0  0  0  0  0  2  0  0  0  0  0  0
  187.7240  174.3350  136.4750 C   0  0  0  0  0  2  0  0  0  0  0  0
  190.4740  174.4450  137.8270 O   0  0  0  0  0  1  0  0  0  0  0  0
  190.1560  175.1730  136.6790 C   0  0  0  0  0  2  0  0  0  0  0  0
  1 24  1  0  0  0  0
  2  1  1  1  0  0  0
  4  2  1  6  0  0  0
  5 10  1  0  0  0  0
  6  3  1  6  0  0  0
  6  4  1  0  0  0  0
  7 10  1  6  0  0  0
  7  6  1  0  0  0  0
  7  4  1  0  0  0  0
  8 13  1  6  0  0  0
  8  5  1  0  0  0  0
  8  9  1  0  0  0  0
  9 11  1  6  0  0  0
  9  7  1  0  0  0  0
 13 12  1  6  0  0  0
 14 13  1  0  0  0  0
 15 18  2  0  0  0  0
 17  2  1  1  0  0  0
 17 21  1  0  0  0  0
 18 16  1  0  0  0  0
 19 16  2  0  0  0  0
 20 17  1  0  0  0  0
 20 23  2  0  0  0  0
 21 15  1  0  0  0  0
 21 22  2  0  0  0  0
 22 19  1  0  0  0  0
 23 15  1  0  0  0  0
 24 25  1  0  0  0  0
 25 26  1  0  0  0  0
 26 29  1  0  0  0  0
 28 27  2  0  0  0  0
 29 28  2  0  0  0  0
 30 27  1  0  0  0  0
 31 30  1  0  0  0  0
 32 35  1  0  0  0  0
 32 36  2  0  0  0  0
 33 34  1  0  0  0  0
 34 31  1  0  0  0  0
 35 33  2  0  0  0  0
 36 34  1  0  0  0  0
 37 32  1  0  0  0  0
 38 37  1  1  0  0  0
 39 41  1  1  0  0  0
 39 40  1  0  0  0  0
 39 38  1  0  0  0  0
 40 38  1  0  0  0  0
 42 46  1  0  0  0  0
 42 41  1  0  0  0  0
 43 44  1  0  0  0  0
 43 42  1  0  0  0  0
 44 42  1  0  0  0  0
 46 45  1  0  0  0  0
M  END
>  <MODEL>
3

>  <REMARK>
 VINA RESULT:      -7.3      2.939      8.013
  Name = 
  16 active torsions:
  status: ('A' for Active; 'I' for Inactive)
    1  A    between atoms: C_1  and  C_12
    2  A    between atoms: C_3  and  C_42
    3  A    between atoms: C_6  and  C_41
    4  A    between atoms: C_7  and  C_42
    5  A    between atoms: C_9  and  C_19
    6  A    between atoms: C_9  and  C_26
    7  A    between atoms: C_10  and  C_41
    8  A    between atoms: C_12  and  C_40
    9  A    between atoms: N_15  and  C_21
   10  A    between atoms: N_15  and  C_42
   11  A    between atoms: C_21  and  C_23
   12  A    between atoms: C_23  and  C_31
   13  A    between atoms: C_25  and  C_38
   14  A    between atoms: C_26  and  C_39
   15  A    between atoms: N_27  and  C_40
   16  A    between atoms: C_28  and  C_31
                            x       y       z     vdW  Elec       q    Type
                         _______ _______ _______ _____ _____    ______ ____

>  <TORSDO>
F 16

$$$$
=
 OpenBabel11032421013D

 46 52  0  0  1  0  0  0  0  0999 V2000
  186.6290  178.1480  137.9880 N   0  0  0  0  0  2  0  0  0  0  0  0
  185.2710  177.6390  137.8780 C   0  0  1  0  0  3  0  0  0  0  0  0
  185.1340  179.0330  140.3130 O   0  0  0  0  0  1  0  0  0  0  0  0
  184.1600  178.7190  138.0630 C   0  0  2  0  0  3  0  0  0  0  0  0
  181.4930  177.0030  139.9650 C   0  0  0  0  0  2  0  0  0  0  0  0
  184.2370  179.5510  139.3710 C   0  0  1  0  0  3  0  0  0  0  0  0
  183.0850  178.5830  139.1510 C   0  0  1  0  0  0  0  0  0  0  0  0
  180.7260  178.2910  139.6320 C   0  0  2  0  0  3  0  0  0  0  0  0
  181.7120  179.1440  138.8070 C   0  0  1  0  0  3  0  0  0  0  0  0
  182.9670  177.3630  140.0390 C   0  0  0  0  0  2  0  0  0  0  0  0
  181.6110  180.5730  139.0860 N   0  0  0  0  0  1  0  0  0  0  0  0
  179.8250  177.9280  141.9700 C   0  0  0  0  0  1  0  0  0  0  0  0
  180.2170  178.9620  140.9250 C   0  0  2  0  0  3  0  0  0  0  0  0
  179.0910  179.7400  140.6450 O   0  0  0  0  0  1  0  0  0  0  0  0
  184.0730  174.6250  136.8170 C   0  0  0  0  0  0  0  0  0  0  0  0
  185.0790  172.5760  137.3370 C   0  0  0  0  0  3  0  0  0  0  0  0
  185.0740  176.7070  136.6690 C   0  0  2  0  0  3  0  0  0  0  0  0
  183.9690  173.2820  136.9700 N   0  0  0  0  0  0  0  0  0  0  0  0
  186.3050  173.2480  137.5330 C   0  0  0  0  0  3  0  0  0  0  0  0
  183.6080  176.6750  136.2740 C   0  0  0  0  0  3  0  0  0  0  0  0
  185.2480  175.2720  137.0140 C   0  0  0  0  0  0  0  0  0  0  0  0
  186.3770  174.6010  137.3580 N   0  0  0  0  0  0  0  0  0  0  0  0
  183.0600  175.4970  136.3600 N   0  0  0  0  0  0  0  0  0  0  0  0
  187.1050  178.3810  136.6340 C   0  0  0  0  0  2  0  0  0  0  0  0
  188.6200  178.2470  136.5660 C   0  0  0  0  0  2  0  0  0  0  0  0
  189.0660  177.6070  135.2600 C   0  0  0  0  0  2  0  0  0  0  0  0
  191.2020  175.0420  136.5480 C   0  0  0  0  0  3  0  0  0  0  0  0
  190.1560  175.5770  135.9860 C   0  0  0  0  0  0  0  0  0  0  0  0
  189.1190  176.1300  135.4300 C   0  0  0  0  0  3  0  0  0  0  0  0
  191.5410  175.3910  137.9560 C   0  0  0  0  0  2  0  0  0  0  0  0
  191.2890  176.8700  138.2040 C   0  0  0  0  0  2  0  0  0  0  0  0
  189.5280  177.5160  141.2650 C   0  0  0  0  0  0  0  0  0  0  0  0
  191.5970  177.1170  140.6220 N   0  0  0  0  0  0  0  0  0  0  0  0
  190.8090  177.0820  139.5600 N   0  0  0  0  0  0  0  0  0  0  0  0
  190.8380  177.3960  141.6980 C   0  0  0  0  0  3  0  0  0  0  0  0
  189.5360  177.3420  139.8980 C   0  0  0  0  0  3  0  0  0  0  0  0
  188.3480  177.9380  142.0780 C   0  0  0  0  0  2  0  0  0  0  0  0
  188.5510  177.6120  143.5580 C   0  0  1  0  0  3  0  0  0  0  0  0
  187.3120  177.5980  144.3970 C   0  0  2  0  0  3  0  0  0  0  0  0
  187.8680  176.4190  143.8680 O   0  0  0  0  0  0  0  0  0  0  0  0
  185.9970  177.8990  143.6770 C   0  0  0  0  0  2  0  0  0  0  0  0
  185.0150  178.6170  144.5920 C   0  0  0  0  0  0  0  0  0  0  0  0
  183.6170  178.6670  144.0270 C   0  0  0  0  0  2  0  0  0  0  0  0
  184.4570  179.9330  144.0980 C   0  0  0  0  0  2  0  0  0  0  0  0
  185.5040  179.5430  146.7440 O   0  0  0  0  0  1  0  0  0  0  0  0
  185.0320  178.4020  146.0940 C   0  0  0  0  0  2  0  0  0  0  0  0
  2  1  1  6  0  0  0
  4  2  1  1  0  0  0
  4  7  1  0  0  0  0
  4  6  1  0  0  0  0
  5 10  1  0  0  0  0
  6  3  1  1  0  0  0
  7  6  1  0  0  0  0
  7 10  1  1  0  0  0
  8  5  1  0  0  0  0
  8 13  1  1  0  0  0
  9 11  1  1  0  0  0
  9  7  1  0  0  0  0
  9  8  1  0  0  0  0
 13 12  1  1  0  0  0
 14 13  1  0  0  0  0
 15 18  2  0  0  0  0
 15 21  1  0  0  0  0
 16 19  2  0  0  0  0
 17 21  1  0  0  0  0
 17  2  1  1  0  0  0
 18 16  1  0  0  0  0
 20 23  2  0  0  0  0
 20 17  1  0  0  0  0
 21 22  2  0  0  0  0
 22 19  1  0  0  0  0
 23 15  1  0  0  0  0
 24  1  1  0  0  0  0
 25 24  1  0  0  0  0
 26 29  1  0  0  0  0
 26 25  1  0  0  0  0
 27 30  1  0  0  0  0
 28 27  2  0  0  0  0
 29 28  2  0  0  0  0
 30 31  1  0  0  0  0
 31 34  1  0  0  0  0
 32 35  1  0  0  0  0
 32 37  1  0  0  0  0
 33 35  2  0  0  0  0
 34 36  1  0  0  0  0
 34 33  1  0  0  0  0
 36 32  2  0  0  0  0
 38 37  1  6  0  0  0
 38 40  1  0  0  0  0
 38 39  1  0  0  0  0
 39 41  1  6  0  0  0
 40 39  1  0  0  0  0
 41 42  1  0  0  0  0
 42 46  1  0  0  0  0
 43 44  1  0  0  0  0
 43 42  1  0  0  0  0
 44 42  1  0  0  0  0
 46 45  1  0  0  0  0
M  END
>  <MODEL>
4

>  <REMARK>
 VINA RESULT:      -7.3      2.563      7.258
  Name = 
  16 active torsions:
  status: ('A' for Active; 'I' for Inactive)
    1  A    between atoms: C_1  and  C_12
    2  A    between atoms: C_3  and  C_42
    3  A    between atoms: C_6  and  C_41
    4  A    between atoms: C_7  and  C_42
    5  A    between atoms: C_9  and  C_19
    6  A    between atoms: C_9  and  C_26
    7  A    between atoms: C_10  and  C_41
    8  A    between atoms: C_12  and  C_40
    9  A    between atoms: N_15  and  C_21
   10  A    between atoms: N_15  and  C_42
   11  A    between atoms: C_21  and  C_23
   12  A    between atoms: C_23  and  C_31
   13  A    between atoms: C_25  and  C_38
   14  A    between atoms: C_26  and  C_39
   15  A    between atoms: N_27  and  C_40
   16  A    between atoms: C_28  and  C_31
                            x       y       z     vdW  Elec       q    Type
                         _______ _______ _______ _____ _____    ______ ____

>  <TORSDO>
F 16

$$$$
=
 OpenBabel11032421013D

 46 52  0  0  1  0  0  0  0  0999 V2000
  183.6060  178.2440  139.3030 N   0  0  0  0  0  2  0  0  0  0  0  0
  184.2610  177.4000  138.3160 C   0  0  1  0  0  3  0  0  0  0  0  0
  182.3350  175.6020  139.2910 O   0  0  0  0  0  1  0  0  0  0  0  0
  183.2880  176.7190  137.3040 C   0  0  2  0  0  3  0  0  0  0  0  0
  184.7520  173.3770  136.7030 C   0  0  0  0  0  2  0  0  0  0  0  0
  182.1590  175.8560  137.9250 C   0  0  1  0  0  3  0  0  0  0  0  0
  183.2650  175.1950  137.1180 C   0  0  1  0  0  0  0  0  0  0  0  0
  183.6720  173.3370  135.6120 C   0  0  2  0  0  3  0  0  0  0  0  0
  182.9500  174.6970  135.7140 C   0  0  1  0  0  3  0  0  0  0  0  0
  184.2360  174.2680  137.8180 C   0  0  0  0  0  2  0  0  0  0  0  0
  181.5140  174.6080  135.4670 N   0  0  0  0  0  1  0  0  0  0  0  0
  183.3380  171.1430  136.8290 C   0  0  0  0  0  1  0  0  0  0  0  0
  182.7610  172.1070  135.8030 C   0  0  2  0  0  3  0  0  0  0  0  0
  182.6300  171.4210  134.5940 O   0  0  0  0  0  1  0  0  0  0  0  0
  187.6300  177.1720  137.8240 C   0  0  0  0  0  0  0  0  0  0  0  0
  189.2100  177.4800  139.5230 C   0  0  0  0  0  3  0  0  0  0  0  0
  185.4970  178.0620  137.6830 C   0  0  2  0  0  3  0  0  0  0  0  0
  188.8760  176.9510  138.3090 N   0  0  0  0  0  0  0  0  0  0  0  0
  188.2680  178.2530  140.2350 C   0  0  0  0  0  3  0  0  0  0  0  0
  185.9400  177.2720  136.4640 C   0  0  0  0  0  3  0  0  0  0  0  0
  186.7210  177.9070  138.5120 C   0  0  0  0  0  0  0  0  0  0  0  0
  187.0250  178.4670  139.7100 N   0  0  0  0  0  0  0  0  0  0  0  0
  187.1420  176.7800  136.5580 N   0  0  0  0  0  0  0  0  0  0  0  0
  183.5340  179.5810  138.7350 C   0  0  0  0  0  2  0  0  0  0  0  0
  182.1330  180.1560  138.8910 C   0  0  0  0  0  2  0  0  0  0  0  0
  181.1040  179.3380  138.1280 C   0  0  0  0  0  2  0  0  0  0  0  0
  180.4400  178.4040  141.5170 C   0  0  0  0  0  3  0  0  0  0  0  0
  180.1930  178.7050  140.2740 C   0  0  0  0  0  0  0  0  0  0  0  0
  179.9670  179.0120  139.0310 C   0  0  0  0  0  3  0  0  0  0  0  0
  181.0850  179.4100  142.4060 C   0  0  0  0  0  2  0  0  0  0  0  0
  181.4510  178.7740  143.7370 C   0  0  0  0  0  2  0  0  0  0  0  0
  184.8710  178.8250  144.8300 C   0  0  0  0  0  0  0  0  0  0  0  0
  183.7610  178.8750  142.9270 N   0  0  0  0  0  0  0  0  0  0  0  0
  182.8930  178.7800  143.9210 N   0  0  0  0  0  0  0  0  0  0  0  0
  184.9990  178.9170  143.4540 C   0  0  0  0  0  3  0  0  0  0  0  0
  183.5220  178.7690  145.1080 C   0  0  0  0  0  3  0  0  0  0  0  0
  185.9590  178.9510  145.8440 C   0  0  0  0  0  2  0  0  0  0  0  0
  186.3190  177.5900  146.4410 C   0  0  1  0  0  3  0  0  0  0  0  0
  187.7150  177.1150  146.1850 C   0  0  2  0  0  3  0  0  0  0  0  0
  187.3520  177.7550  147.3840 O   0  0  0  0  0  0  0  0  0  0  0  0
  188.6140  178.0470  145.3730 C   0  0  0  0  0  2  0  0  0  0  0  0
  189.8130  177.3020  144.8020 C   0  0  0  0  0  0  0  0  0  0  0  0
  190.2080  177.7930  143.4310 C   0  0  0  0  0  2  0  0  0  0  0  0
  189.5640  176.4250  143.5960 C   0  0  0  0  0  2  0  0  0  0  0  0
  190.6950  177.1010  147.0180 O   0  0  0  0  0  1  0  0  0  0  0  0
  191.0110  176.9530  145.6660 C   0  0  0  0  0  2  0  0  0  0  0  0
  2  1  1  6  0  0  0
  4  6  1  0  0  0  0
  4  2  1  1  0  0  0
  5 10  1  0  0  0  0
  6  3  1  1  0  0  0
  7  4  1  0  0  0  0
  7 10  1  1  0  0  0
  7  6  1  0  0  0  0
  8  9  1  0  0  0  0
  8 13  1  1  0  0  0
  8  5  1  0  0  0  0
  9 11  1  1  0  0  0
  9  7  1  0  0  0  0
 13 12  1  1  0  0  0
 14 13  1  0  0  0  0
 15 18  2  0  0  0  0
 15 21  1  0  0  0  0
 16 19  2  0  0  0  0
 17  2  1  1  0  0  0
 17 21  1  0  0  0  0
 18 16  1  0  0  0  0
 20 23  2  0  0  0  0
 20 17  1  0  0  0  0
 21 22  2  0  0  0  0
 22 19  1  0  0  0  0
 23 15  1  0  0  0  0
 24 25  1  0  0  0  0
 24  1  1  0  0  0  0
 26 25  1  0  0  0  0
 26 29  1  0  0  0  0
 27 30  1  0  0  0  0
 28 27  2  0  0  0  0
 29 28  2  0  0  0  0
 30 31  1  0  0  0  0
 31 34  1  0  0  0  0
 32 36  2  0  0  0  0
 32 37  1  0  0  0  0
 33 35  2  0  0  0  0
 33 34  1  0  0  0  0
 34 36  1  0  0  0  0
 35 32  1  0  0  0  0
 38 37  1  6  0  0  0
 38 40  1  0  0  0  0
 39 41  1  6  0  0  0
 39 38  1  0  0  0  0
 39 40  1  0  0  0  0
 42 41  1  0  0  0  0
 42 46  1  0  0  0  0
 43 44  1  0  0  0  0
 43 42  1  0  0  0  0
 44 42  1  0  0  0  0
 46 45  1  0  0  0  0
M  END
>  <MODEL>
5

>  <REMARK>
 VINA RESULT:      -7.2      2.711      5.245
  Name = 
  16 active torsions:
  status: ('A' for Active; 'I' for Inactive)
    1  A    between atoms: C_1  and  C_12
    2  A    between atoms: C_3  and  C_42
    3  A    between atoms: C_6  and  C_41
    4  A    between atoms: C_7  and  C_42
    5  A    between atoms: C_9  and  C_19
    6  A    between atoms: C_9  and  C_26
    7  A    between atoms: C_10  and  C_41
    8  A    between atoms: C_12  and  C_40
    9  A    between atoms: N_15  and  C_21
   10  A    between atoms: N_15  and  C_42
   11  A    between atoms: C_21  and  C_23
   12  A    between atoms: C_23  and  C_31
   13  A    between atoms: C_25  and  C_38
   14  A    between atoms: C_26  and  C_39
   15  A    between atoms: N_27  and  C_40
   16  A    between atoms: C_28  and  C_31
                            x       y       z     vdW  Elec       q    Type
                         _______ _______ _______ _____ _____    ______ ____

>  <TORSDO>
F 16

$$$$
=
 OpenBabel11032421013D

 46 52  0  0  1  0  0  0  0  0999 V2000
  188.8120  176.6290  137.7590 N   0  0  0  0  0  2  0  0  0  0  0  0
  189.7940  176.6370  138.8320 C   0  0  1  0  0  3  0  0  0  0  0  0
  189.0550  178.8730  140.3630 O   0  0  0  0  0  1  0  0  0  0  0  0
  189.1960  176.4080  140.2540 C   0  0  2  0  0  3  0  0  0  0  0  0
  192.0390  176.9330  142.5600 C   0  0  0  0  0  2  0  0  0  0  0  0
  188.6740  177.6760  140.9810 C   0  0  1  0  0  3  0  0  0  0  0  0
  189.8960  176.9430  141.5120 C   0  0  1  0  0  0  0  0  0  0  0  0
  191.0310  176.3870  143.5820 C   0  0  2  0  0  3  0  0  0  0  0  0
  189.7530  176.0950  142.7680 C   0  0  1  0  0  3  0  0  0  0  0  0
  191.2440  177.6310  141.4710 C   0  0  0  0  0  2  0  0  0  0  0  0
  188.5240  176.3900  143.4990 N   0  0  0  0  0  1  0  0  0  0  0  0
  191.0340  178.8230  144.2690 C   0  0  0  0  0  1  0  0  0  0  0  0
  190.8450  177.3890  144.7400 C   0  0  2  0  0  3  0  0  0  0  0  0
  191.7830  177.1370  145.7430 O   0  0  0  0  0  1  0  0  0  0  0  0
  191.6700  175.2200  136.3580 C   0  0  0  0  0  0  0  0  0  0  0  0
  190.9730  173.3730  135.1010 C   0  0  0  0  0  3  0  0  0  0  0  0
  191.0430  175.7980  138.5110 C   0  0  2  0  0  3  0  0  0  0  0  0
  191.7560  174.4850  135.2220 N   0  0  0  0  0  0  0  0  0  0  0  0
  190.1120  173.0020  136.1560 C   0  0  0  0  0  3  0  0  0  0  0  0
  192.1170  176.6810  137.9010 C   0  0  0  0  0  3  0  0  0  0  0  0
  190.8360  174.8700  137.3680 C   0  0  0  0  0  0  0  0  0  0  0  0
  190.0600  173.7590  137.2930 N   0  0  0  0  0  0  0  0  0  0  0  0
  192.4610  176.3420  136.6920 N   0  0  0  0  0  0  0  0  0  0  0  0
  188.6960  177.9970  137.2810 C   0  0  0  0  0  2  0  0  0  0  0  0
  187.5460  178.1260  136.2920 C   0  0  0  0  0  2  0  0  0  0  0  0
  186.2950  177.4200  136.7930 C   0  0  0  0  0  2  0  0  0  0  0  0
  182.8610  176.7160  136.0760 C   0  0  0  0  0  3  0  0  0  0  0  0
  184.1270  176.9280  135.8490 C   0  0  0  0  0  0  0  0  0  0  0  0
  185.3920  177.1450  135.6430 C   0  0  0  0  0  3  0  0  0  0  0  0
  182.0340  177.7890  136.6940 C   0  0  0  0  0  2  0  0  0  0  0  0
  181.8000  177.4860  138.1660 C   0  0  0  0  0  2  0  0  0  0  0  0
  184.2380  178.4490  140.6210 C   0  0  0  0  0  0  0  0  0  0  0  0
  183.5930  179.0950  138.6150 N   0  0  0  0  0  0  0  0  0  0  0  0
  182.8720  178.0460  138.9740 N   0  0  0  0  0  0  0  0  0  0  0  0
  184.4440  179.3820  139.6180 C   0  0  0  0  0  3  0  0  0  0  0  0
  183.2130  177.6270  140.2030 C   0  0  0  0  0  3  0  0  0  0  0  0
  184.8630  178.4340  141.9760 C   0  0  0  0  0  2  0  0  0  0  0  0
  183.8410  178.7780  143.0600 C   0  0  1  0  0  3  0  0  0  0  0  0
  184.3160  178.6350  144.4720 C   0  0  2  0  0  3  0  0  0  0  0  0
  184.3090  179.8750  143.8100 O   0  0  0  0  0  0  0  0  0  0  0  0
  185.7610  178.1750  144.6620 C   0  0  0  0  0  2  0  0  0  0  0  0
  186.1440  178.1410  146.1350 C   0  0  0  0  0  0  0  0  0  0  0  0
  184.9510  178.2530  147.0520 C   0  0  0  0  0  2  0  0  0  0  0  0
  185.9300  179.4110  146.9280 C   0  0  0  0  0  2  0  0  0  0  0  0
  187.7610  177.6680  147.8340 O   0  0  0  0  0  1  0  0  0  0  0  0
  187.1930  177.1770  146.6570 C   0  0  0  0  0  2  0  0  0  0  0  0
  2  1  1  6  0  0  0
  4  2  1  6  0  0  0
  4  6  1  0  0  0  0
  4  7  1  0  0  0  0
  5  8  1  0  0  0  0
  6  3  1  6  0  0  0
  6  7  1  0  0  0  0
  7 10  1  6  0  0  0
  7  9  1  0  0  0  0
  8 13  1  1  0  0  0
  9 11  1  1  0  0  0
  9  8  1  0  0  0  0
 10  5  1  0  0  0  0
 13 12  1  6  0  0  0
 13 14  1  0  0  0  0
 15 23  1  0  0  0  0
 15 21  1  0  0  0  0
 16 18  1  0  0  0  0
 16 19  2  0  0  0  0
 17  2  1  6  0  0  0
 18 15  2  0  0  0  0
 19 22  1  0  0  0  0
 20 17  1  0  0  0  0
 21 17  1  0  0  0  0
 22 21  2  0  0  0  0
 23 20  2  0  0  0  0
 24  1  1  0  0  0  0
 25 26  1  0  0  0  0
 25 24  1  0  0  0  0
 27 30  1  0  0  0  0
 28 27  2  0  0  0  0
 29 28  2  0  0  0  0
 29 26  1  0  0  0  0
 30 31  1  0  0  0  0
 31 34  1  0  0  0  0
 32 37  1  0  0  0  0
 33 34  1  0  0  0  0
 33 35  2  0  0  0  0
 34 36  1  0  0  0  0
 35 32  1  0  0  0  0
 36 32  2  0  0  0  0
 38 37  1  6  0  0  0
 38 40  1  0  0  0  0
 38 39  1  0  0  0  0
 39 41  1  6  0  0  0
 40 39  1  0  0  0  0
 41 42  1  0  0  0  0
 42 46  1  0  0  0  0
 42 44  1  0  0  0  0
 42 43  1  0  0  0  0
 44 43  1  0  0  0  0
 46 45  1  0  0  0  0
M  END
>  <MODEL>
6

>  <REMARK>
 VINA RESULT:      -7.1      2.558      5.395
  Name = 
  16 active torsions:
  status: ('A' for Active; 'I' for Inactive)
    1  A    between atoms: C_1  and  C_12
    2  A    between atoms: C_3  and  C_42
    3  A    between atoms: C_6  and  C_41
    4  A    between atoms: C_7  and  C_42
    5  A    between atoms: C_9  and  C_19
    6  A    between atoms: C_9  and  C_26
    7  A    between atoms: C_10  and  C_41
    8  A    between atoms: C_12  and  C_40
    9  A    between atoms: N_15  and  C_21
   10  A    between atoms: N_15  and  C_42
   11  A    between atoms: C_21  and  C_23
   12  A    between atoms: C_23  and  C_31
   13  A    between atoms: C_25  and  C_38
   14  A    between atoms: C_26  and  C_39
   15  A    between atoms: N_27  and  C_40
   16  A    between atoms: C_28  and  C_31
                            x       y       z     vdW  Elec       q    Type
                         _______ _______ _______ _____ _____    ______ ____

>  <TORSDO>
F 16

$$$$
=
 OpenBabel11032421013D

 46 52  0  0  1  0  0  0  0  0999 V2000
  188.2850  176.4280  136.8160 N   0  0  0  0  0  2  0  0  0  0  0  0
  189.2870  176.5420  137.8650 C   0  0  1  0  0  3  0  0  0  0  0  0
  189.0290  179.1910  138.7620 O   0  0  0  0  0  1  0  0  0  0  0  0
  188.7030  176.7990  139.2880 C   0  0  2  0  0  3  0  0  0  0  0  0
  191.6670  177.3440  141.4310 C   0  0  0  0  0  2  0  0  0  0  0  0
  188.4510  178.2840  139.6580 C   0  0  1  0  0  3  0  0  0  0  0  0
  189.5310  177.4930  140.3800 C   0  0  1  0  0  0  0  0  0  0  0  0
  190.6090  177.2760  142.5410 C   0  0  2  0  0  3  0  0  0  0  0  0
  189.2730  177.0340  141.8080 C   0  0  1  0  0  3  0  0  0  0  0  0
  190.9810  177.8800  140.1870 C   0  0  0  0  0  2  0  0  0  0  0  0
  188.1450  177.7320  142.4190 N   0  0  0  0  0  1  0  0  0  0  0  0
  192.0510  178.8220  143.9330 C   0  0  0  0  0  1  0  0  0  0  0  0
  190.6500  178.5560  143.4020 C   0  0  2  0  0  3  0  0  0  0  0  0
  189.7920  178.4210  144.4960 O   0  0  0  0  0  1  0  0  0  0  0  0
  190.9170  174.3310  135.8390 C   0  0  0  0  0  0  0  0  0  0  0  0
  189.9100  172.4240  134.9290 C   0  0  0  0  0  3  0  0  0  0  0  0
  190.3600  175.4420  137.7930 C   0  0  2  0  0  3  0  0  0  0  0  0
  190.8880  173.3770  134.8770 N   0  0  0  0  0  0  0  0  0  0  0  0
  188.9690  172.4400  135.9810 C   0  0  0  0  0  3  0  0  0  0  0  0
  191.5970  175.9720  137.0890 C   0  0  0  0  0  3  0  0  0  0  0  0
  190.0070  174.3530  136.8440 C   0  0  0  0  0  0  0  0  0  0  0  0
  189.0360  173.4100  136.9410 N   0  0  0  0  0  0  0  0  0  0  0  0
  191.8980  175.3360  135.9940 N   0  0  0  0  0  0  0  0  0  0  0  0
  188.0140  177.7760  136.3430 C   0  0  0  0  0  2  0  0  0  0  0  0
  186.7070  177.8200  135.5630 C   0  0  0  0  0  2  0  0  0  0  0  0
  185.8300  176.6170  135.8740 C   0  0  0  0  0  2  0  0  0  0  0  0
  183.2880  177.0700  138.3510 C   0  0  0  0  0  3  0  0  0  0  0  0
  183.8430  177.0670  137.1730 C   0  0  0  0  0  0  0  0  0  0  0  0
  184.4160  177.0600  136.0050 C   0  0  0  0  0  3  0  0  0  0  0  0
  183.8430  177.9410  139.4250 C   0  0  0  0  0  2  0  0  0  0  0  0
  182.7210  178.4550  140.3130 C   0  0  0  0  0  2  0  0  0  0  0  0
  184.4380  178.5800  143.4640 C   0  0  0  0  0  0  0  0  0  0  0  0
  182.4190  178.9950  142.6840 N   0  0  0  0  0  0  0  0  0  0  0  0
  183.1920  178.6150  141.6800 N   0  0  0  0  0  0  0  0  0  0  0  0
  183.1560  178.9730  143.8100 C   0  0  0  0  0  3  0  0  0  0  0  0
  184.4310  178.3280  142.1090 C   0  0  0  0  0  3  0  0  0  0  0  0
  185.5720  178.2950  144.3930 C   0  0  0  0  0  2  0  0  0  0  0  0
  185.1130  178.3230  145.8510 C   0  0  1  0  0  3  0  0  0  0  0  0
  186.1500  177.9580  146.8670 C   0  0  2  0  0  3  0  0  0  0  0  0
  185.8530  179.2960  146.5520 O   0  0  0  0  0  0  0  0  0  0  0  0
  187.5390  177.6140  146.3290 C   0  0  0  0  0  2  0  0  0  0  0  0
  188.5480  177.4560  147.4590 C   0  0  0  0  0  0  0  0  0  0  0  0
  187.9090  177.5110  148.8250 C   0  0  0  0  0  2  0  0  0  0  0  0
  188.7800  178.6610  148.3430 C   0  0  0  0  0  2  0  0  0  0  0  0
  190.8920  177.0810  147.1620 O   0  0  0  0  0  1  0  0  0  0  0  0
  189.6720  176.4400  147.3790 C   0  0  0  0  0  2  0  0  0  0  0  0
  2  1  1  6  0  0  0
  4  2  1  6  0  0  0
  4  6  1  0  0  0  0
  4  7  1  0  0  0  0
  5  8  1  0  0  0  0
  6  3  1  6  0  0  0
  6  7  1  0  0  0  0
  7 10  1  6  0  0  0
  7  9  1  0  0  0  0
  8 13  1  6  0  0  0
  9 11  1  1  0  0  0
  9  8  1  0  0  0  0
 10  5  1  0  0  0  0
 13 12  1  1  0  0  0
 13 14  1  0  0  0  0
 15 23  1  0  0  0  0
 15 21  1  0  0  0  0
 16 19  2  0  0  0  0
 17  2  1  6  0  0  0
 18 16  1  0  0  0  0
 18 15  2  0  0  0  0
 19 22  1  0  0  0  0
 20 17  1  0  0  0  0
 21 22  2  0  0  0  0
 21 17  1  0  0  0  0
 23 20  2  0  0  0  0
 24  1  1  0  0  0  0
 25 26  1  0  0  0  0
 25 24  1  0  0  0  0
 26 29  1  0  0  0  0
 27 30  1  0  0  0  0
 28 27  2  0  0  0  0
 29 28  2  0  0  0  0
 30 31  1  0  0  0  0
 31 34  1  0  0  0  0
 32 35  1  0  0  0  0
 32 37  1  0  0  0  0
 33 35  2  0  0  0  0
 34 36  1  0  0  0  0
 34 33  1  0  0  0  0
 36 32  2  0  0  0  0
 38 37  1  6  0  0  0
 38 40  1  0  0  0  0
 38 39  1  0  0  0  0
 39 41  1  6  0  0  0
 40 39  1  0  0  0  0
 41 42  1  0  0  0  0
 42 44  1  0  0  0  0
 42 43  1  0  0  0  0
 44 43  1  0  0  0  0
 45 46  1  0  0  0  0
 46 42  1  0  0  0  0
M  END
>  <MODEL>
7

>  <REMARK>
 VINA RESULT:      -7.1      2.347      4.329
  Name = 
  16 active torsions:
  status: ('A' for Active; 'I' for Inactive)
    1  A    between atoms: C_1  and  C_12
    2  A    between atoms: C_3  and  C_42
    3  A    between atoms: C_6  and  C_41
    4  A    between atoms: C_7  and  C_42
    5  A    between atoms: C_9  and  C_19
    6  A    between atoms: C_9  and  C_26
    7  A    between atoms: C_10  and  C_41
    8  A    between atoms: C_12  and  C_40
    9  A    between atoms: N_15  and  C_21
   10  A    between atoms: N_15  and  C_42
   11  A    between atoms: C_21  and  C_23
   12  A    between atoms: C_23  and  C_31
   13  A    between atoms: C_25  and  C_38
   14  A    between atoms: C_26  and  C_39
   15  A    between atoms: N_27  and  C_40
   16  A    between atoms: C_28  and  C_31
                            x       y       z     vdW  Elec       q    Type
                         _______ _______ _______ _____ _____    ______ ____

>  <TORSDO>
F 16

$$$$
=
 OpenBabel11032421013D

 46 52  0  0  1  0  0  0  0  0999 V2000
  188.4080  177.8900  138.5410 N   0  0  0  0  0  2  0  0  0  0  0  0
  188.2800  176.7640  137.6300 C   0  0  1  0  0  3  0  0  0  0  0  0
  187.0310  178.6300  135.9420 O   0  0  0  0  0  1  0  0  0  0  0  0
  186.8220  176.4850  137.1520 C   0  0  2  0  0  3  0  0  0  0  0  0
  184.6950  178.4990  139.4090 C   0  0  0  0  0  2  0  0  0  0  0  0
  186.2510  177.4790  136.1060 C   0  0  1  0  0  3  0  0  0  0  0  0
  185.6670  177.4320  137.5100 C   0  0  1  0  0  0  0  0  0  0  0  0
  183.5790  177.7060  138.7140 C   0  0  2  0  0  3  0  0  0  0  0  0
  184.3070  176.7800  137.7170 C   0  0  1  0  0  3  0  0  0  0  0  0
  185.8400  178.6290  138.4200 C   0  0  0  0  0  2  0  0  0  0  0  0
  183.5820  176.5990  136.4620 N   0  0  0  0  0  1  0  0  0  0  0  0
  182.6080  180.0440  138.7190 C   0  0  0  0  0  1  0  0  0  0  0  0
  182.5570  178.6670  138.0730 C   0  0  2  0  0  3  0  0  0  0  0  0
  181.2640  178.1630  138.2350 O   0  0  0  0  0  1  0  0  0  0  0  0
  190.9220  175.0990  136.2540 C   0  0  0  0  0  0  0  0  0  0  0  0
  193.0210  174.9310  137.2750 C   0  0  0  0  0  3  0  0  0  0  0  0
  189.3390  176.7690  136.5140 C   0  0  2  0  0  3  0  0  0  0  0  0
  192.0990  174.4420  136.3940 N   0  0  0  0  0  0  0  0  0  0  0  0
  192.7410  176.1080  138.0040 C   0  0  0  0  0  3  0  0  0  0  0  0
  188.9950  175.7220  135.4690 C   0  0  0  0  0  3  0  0  0  0  0  0
  190.6480  176.2230  136.9600 C   0  0  0  0  0  0  0  0  0  0  0  0
  191.5490  176.7510  137.8280 N   0  0  0  0  0  0  0  0  0  0  0  0
  189.8950  174.7910  135.3330 N   0  0  0  0  0  0  0  0  0  0  0  0
  188.7560  177.3440  139.8430 C   0  0  0  0  0  2  0  0  0  0  0  0
  188.6630  178.4170  140.9190 C   0  0  0  0  0  2  0  0  0  0  0  0
  187.8300  177.9510  142.1030 C   0  0  0  0  0  2  0  0  0  0  0  0
  190.2800  177.1580  144.5860 C   0  0  0  0  0  3  0  0  0  0  0  0
  189.3870  176.9580  143.6600 C   0  0  0  0  0  0  0  0  0  0  0  0
  188.4890  176.7780  142.7360 C   0  0  0  0  0  3  0  0  0  0  0  0
  189.8910  177.8420  145.8500 C   0  0  0  0  0  2  0  0  0  0  0  0
  188.8600  177.0100  146.5980 C   0  0  0  0  0  2  0  0  0  0  0  0
  185.6620  178.5570  146.0770 C   0  0  0  0  0  0  0  0  0  0  0  0
  187.1770  178.4320  147.6720 N   0  0  0  0  0  0  0  0  0  0  0  0
  187.5840  177.7070  146.6430 N   0  0  0  0  0  0  0  0  0  0  0  0
  185.9920  178.9840  147.3520 C   0  0  0  0  0  3  0  0  0  0  0  0
  186.7020  177.7700  145.6320 C   0  0  0  0  0  3  0  0  0  0  0  0
  184.4990  179.0030  145.2540 C   0  0  0  0  0  2  0  0  0  0  0  0
  184.5270  178.3630  143.8660 C   0  0  1  0  0  3  0  0  0  0  0  0
  183.3130  178.5890  143.0200 C   0  0  2  0  0  3  0  0  0  0  0  0
  184.4720  179.3740  142.8870 O   0  0  0  0  0  0  0  0  0  0  0  0
  182.2010  179.4370  143.6360 C   0  0  0  0  0  2  0  0  0  0  0  0
  180.8420  179.0820  143.0480 C   0  0  0  0  0  0  0  0  0  0  0  0
  180.9470  178.2530  141.7920 C   0  0  0  0  0  2  0  0  0  0  0  0
  180.4910  179.7020  141.7140 C   0  0  0  0  0  2  0  0  0  0  0  0
  179.7100  177.2810  144.1430 O   0  0  0  0  0  1  0  0  0  0  0  0
  179.6840  178.6610  143.9320 C   0  0  0  0  0  2  0  0  0  0  0  0
  1 24  1  0  0  0  0
  2  1  1  6  0  0  0
  4  7  1  0  0  0  0
  4  2  1  1  0  0  0
  6  3  1  1  0  0  0
  6  4  1  0  0  0  0
  6  7  1  0  0  0  0
  7  9  1  0  0  0  0
  7 10  1  1  0  0  0
  8 13  1  6  0  0  0
  8  5  1  0  0  0  0
  9 11  1  6  0  0  0
  9  8  1  0  0  0  0
 10  5  1  0  0  0  0
 13 14  1  0  0  0  0
 13 12  1  1  0  0  0
 15 18  2  0  0  0  0
 15 21  1  0  0  0  0
 16 19  2  0  0  0  0
 17 21  1  0  0  0  0
 17  2  1  1  0  0  0
 18 16  1  0  0  0  0
 20 17  1  0  0  0  0
 21 22  2  0  0  0  0
 22 19  1  0  0  0  0
 23 20  2  0  0  0  0
 23 15  1  0  0  0  0
 24 25  1  0  0  0  0
 25 26  1  0  0  0  0
 26 29  1  0  0  0  0
 27 30  1  0  0  0  0
 28 27  2  0  0  0  0
 29 28  2  0  0  0  0
 30 31  1  0  0  0  0
 31 34  1  0  0  0  0
 32 35  1  0  0  0  0
 34 33  1  0  0  0  0
 35 33  2  0  0  0  0
 36 32  2  0  0  0  0
 36 34  1  0  0  0  0
 37 32  1  0  0  0  0
 38 37  1  1  0  0  0
 39 41  1  1  0  0  0
 39 38  1  0  0  0  0
 40 39  1  0  0  0  0
 40 38  1  0  0  0  0
 42 41  1  0  0  0  0
 42 46  1  0  0  0  0
 43 42  1  0  0  0  0
 44 43  1  0  0  0  0
 44 42  1  0  0  0  0
 46 45  1  0  0  0  0
M  END
>  <MODEL>
8

>  <REMARK>
 VINA RESULT:      -7.1      2.533      6.913
  Name = 
  16 active torsions:
  status: ('A' for Active; 'I' for Inactive)
    1  A    between atoms: C_1  and  C_12
    2  A    between atoms: C_3  and  C_42
    3  A    between atoms: C_6  and  C_41
    4  A    between atoms: C_7  and  C_42
    5  A    between atoms: C_9  and  C_19
    6  A    between atoms: C_9  and  C_26
    7  A    between atoms: C_10  and  C_41
    8  A    between atoms: C_12  and  C_40
    9  A    between atoms: N_15  and  C_21
   10  A    between atoms: N_15  and  C_42
   11  A    between atoms: C_21  and  C_23
   12  A    between atoms: C_23  and  C_31
   13  A    between atoms: C_25  and  C_38
   14  A    between atoms: C_26  and  C_39
   15  A    between atoms: N_27  and  C_40
   16  A    between atoms: C_28  and  C_31
                            x       y       z     vdW  Elec       q    Type
                         _______ _______ _______ _____ _____    ______ ____

>  <TORSDO>
F 16

$$$$
=
 OpenBabel11032421013D

 46 52  0  0  1  0  0  0  0  0999 V2000
  185.9160  178.8430  137.9900 N   0  0  0  0  0  2  0  0  0  0  0  0
  185.0950  177.6770  138.2710 C   0  0  1  0  0  3  0  0  0  0  0  0
  184.5530  180.3160  139.0660 O   0  0  0  0  0  1  0  0  0  0  0  0
  183.9390  177.9320  139.2870 C   0  0  2  0  0  3  0  0  0  0  0  0
  185.6290  178.2810  142.5580 C   0  0  0  0  0  2  0  0  0  0  0  0
  183.6000  179.4200  139.5660 C   0  0  1  0  0  3  0  0  0  0  0  0
  184.2070  178.5600  140.6630 C   0  0  1  0  0  0  0  0  0  0  0  0
  184.1810  178.2420  143.0670 C   0  0  2  0  0  3  0  0  0  0  0  0
  183.3140  178.0840  141.8000 C   0  0  1  0  0  3  0  0  0  0  0  0
  185.6010  178.8770  141.1620 C   0  0  0  0  0  2  0  0  0  0  0  0
  182.0570  178.8250  141.8650 N   0  0  0  0  0  1  0  0  0  0  0  0
  185.1450  180.2610  144.2510 C   0  0  0  0  0  1  0  0  0  0  0  0
  183.8730  179.5000  143.9070 C   0  0  2  0  0  3  0  0  0  0  0  0
  183.2530  179.1330  145.1030 O   0  0  0  0  0  1  0  0  0  0  0  0
  183.6110  174.8580  137.0460 C   0  0  0  0  0  0  0  0  0  0  0  0
  184.5750  172.7290  137.1700 C   0  0  0  0  0  3  0  0  0  0  0  0
  184.6850  176.9090  137.0020 C   0  0  2  0  0  3  0  0  0  0  0  0
  183.4620  173.5110  137.0520 N   0  0  0  0  0  0  0  0  0  0  0  0
  185.8490  173.3310  137.2640 C   0  0  0  0  0  3  0  0  0  0  0  0
  183.1790  176.9750  136.8210 C   0  0  0  0  0  3  0  0  0  0  0  0
  184.8330  175.4370  137.1460 C   0  0  0  0  0  0  0  0  0  0  0  0
  185.9630  174.6920  137.2420 N   0  0  0  0  0  0  0  0  0  0  0  0
  182.5900  175.8140  136.8460 N   0  0  0  0  0  0  0  0  0  0  0  0
  186.7690  178.4990  136.8630 C   0  0  0  0  0  2  0  0  0  0  0  0
  188.1190  177.9880  137.3470 C   0  0  0  0  0  2  0  0  0  0  0  0
  189.2060  178.2080  136.3060 C   0  0  0  0  0  2  0  0  0  0  0  0
  191.7760  175.7310  136.5450 C   0  0  0  0  0  3  0  0  0  0  0  0
  190.6860  176.3080  136.1250 C   0  0  0  0  0  0  0  0  0  0  0  0
  189.5990  176.8980  135.7220 C   0  0  0  0  0  3  0  0  0  0  0  0
  191.8930  175.3270  137.9740 C   0  0  0  0  0  2  0  0  0  0  0  0
  192.2760  176.5260  138.8270 C   0  0  0  0  0  2  0  0  0  0  0  0
  190.1200  177.5840  141.4960 C   0  0  0  0  0  0  0  0  0  0  0  0
  189.9740  176.3800  139.6560 N   0  0  0  0  0  0  0  0  0  0  0  0
  191.2090  176.8410  139.7640 N   0  0  0  0  0  0  0  0  0  0  0  0
  189.2720  176.8110  140.7210 C   0  0  0  0  0  3  0  0  0  0  0  0
  191.3560  177.5650  140.8860 C   0  0  0  0  0  3  0  0  0  0  0  0
  189.8230  178.1750  142.8350 C   0  0  0  0  0  2  0  0  0  0  0  0
  190.7900  177.6510  143.8970 C   0  0  1  0  0  3  0  0  0  0  0  0
  190.2090  177.4390  145.2600 C   0  0  2  0  0  3  0  0  0  0  0  0
  190.3550  176.3870  144.3390 O   0  0  0  0  0  0  0  0  0  0  0  0
  188.7230  177.7590  145.4240 C   0  0  0  0  0  2  0  0  0  0  0  0
  188.2950  177.6720  146.8820 C   0  0  0  0  0  0  0  0  0  0  0  0
  189.4270  177.9430  147.8410 C   0  0  0  0  0  2  0  0  0  0  0  0
  188.8690  176.5350  147.6980 C   0  0  0  0  0  2  0  0  0  0  0  0
  185.9400  177.8640  146.5040 O   0  0  0  0  0  1  0  0  0  0  0  0
  186.9760  178.2540  147.3550 C   0  0  0  0  0  2  0  0  0  0  0  0
  2  1  1  6  0  0  0
  4  2  1  6  0  0  0
  4  6  1  0  0  0  0
  4  7  1  0  0  0  0
  5  8  1  0  0  0  0
  6  3  1  6  0  0  0
  6  7  1  0  0  0  0
  7 10  1  1  0  0  0
  7  9  1  0  0  0  0
  8 13  1  6  0  0  0
  9 11  1  1  0  0  0
  9  8  1  0  0  0  0
 10  5  1  0  0  0  0
 13 12  1  1  0  0  0
 13 14  1  0  0  0  0
 15 18  2  0  0  0  0
 15 21  1  0  0  0  0
 16 19  2  0  0  0  0
 17 21  1  0  0  0  0
 17  2  1  1  0  0  0
 18 16  1  0  0  0  0
 20 23  2  0  0  0  0
 20 17  1  0  0  0  0
 21 22  2  0  0  0  0
 22 19  1  0  0  0  0
 23 15  1  0  0  0  0
 24 25  1  0  0  0  0
 24  1  1  0  0  0  0
 26 25  1  0  0  0  0
 27 30  1  0  0  0  0
 28 27  2  0  0  0  0
 29 28  2  0  0  0  0
 29 26  1  0  0  0  0
 30 31  1  0  0  0  0
 31 34  1  0  0  0  0
 32 37  1  0  0  0  0
 33 34  1  0  0  0  0
 33 35  2  0  0  0  0
 34 36  1  0  0  0  0
 35 32  1  0  0  0  0
 36 32  2  0  0  0  0
 38 37  1  6  0  0  0
 38 40  1  0  0  0  0
 38 39  1  0  0  0  0
 39 41  1  6  0  0  0
 40 39  1  0  0  0  0
 41 42  1  0  0  0  0
 42 46  1  0  0  0  0
 42 44  1  0  0  0  0
 42 43  1  0  0  0  0
 44 43  1  0  0  0  0
 45 46  1  0  0  0  0
M  END
>  <MODEL>
9

>  <REMARK>
 VINA RESULT:      -7.1      2.139      6.652
  Name = 
  16 active torsions:
  status: ('A' for Active; 'I' for Inactive)
    1  A    between atoms: C_1  and  C_12
    2  A    between atoms: C_3  and  C_42
    3  A    between atoms: C_6  and  C_41
    4  A    between atoms: C_7  and  C_42
    5  A    between atoms: C_9  and  C_19
    6  A    between atoms: C_9  and  C_26
    7  A    between atoms: C_10  and  C_41
    8  A    between atoms: C_12  and  C_40
    9  A    between atoms: N_15  and  C_21
   10  A    between atoms: N_15  and  C_42
   11  A    between atoms: C_21  and  C_23
   12  A    between atoms: C_23  and  C_31
   13  A    between atoms: C_25  and  C_38
   14  A    between atoms: C_26  and  C_39
   15  A    between atoms: N_27  and  C_40
   16  A    between atoms: C_28  and  C_31
                            x       y       z     vdW  Elec       q    Type
                         _______ _______ _______ _____ _____    ______ ____

>  <TORSDO>
F 16

$$$$
