=
 OpenBabel11032419593D

 52 59  0  0  1  0  0  0  0  0999 V2000
  185.2760  177.6830  135.6770 C   0  0  0  0  0  3  0  0  0  0  0  0
  187.6010  176.0800  136.8680 C   0  0  0  0  0  0  0  0  0  0  0  0
  187.6170  177.3130  136.4130 C   0  0  0  0  0  0  0  0  0  0  0  0
  183.7100  172.5720  135.8340 C   0  0  2  0  0  3  0  0  0  0  0  0
  185.8450  172.5660  135.5590 C   0  0  1  0  0  3  0  0  0  0  0  0
  185.0290  174.3300  136.9720 C   0  0  1  0  0  3  0  0  0  0  0  0
  182.9170  172.4940  134.6890 O   0  0  0  0  0  1  0  0  0  0  0  0
  184.7660  173.6480  135.6440 C   0  0  2  0  0  3  0  0  0  0  0  0
  186.4110  174.0320  137.3400 N   0  0  0  0  0  0  0  0  0  0  0  0
  188.7830  174.0120  137.0250 C   0  0  0  0  0  2  0  0  0  0  0  0
  186.7180  177.6710  135.2660 C   0  0  0  0  0  2  0  0  0  0  0  0
  188.2010  172.7470  136.4130 C   0  0  0  0  0  2  0  0  0  0  0  0
  184.8160  176.6990  136.3990 C   0  0  0  0  0  0  0  0  0  0  0  0
  186.7250  172.7240  136.8040 C   0  0  2  0  0  3  0  0  0  0  0  0
  184.4810  175.7100  137.1860 C   0  0  0  0  0  0  0  0  0  0  0  0
  184.7860  171.5000  135.7760 C   0  0  0  0  0  2  0  0  0  0  0  0
  187.5910  174.8440  137.2900 C   0  0  0  0  0  0  0  0  0  0  0  0
  183.6360  177.2700  138.8600 N   0  0  0  0  0  0  0  0  0  0  0  0
  182.1030  175.8850  137.8760 C   0  0  0  0  0  0  0  0  0  0  0  0
  181.4960  176.9970  138.1120 N   0  0  0  0  0  0  0  0  0  0  0  0
  181.4190  174.7030  137.2810 C   0  0  0  0  0  1  0  0  0  0  0  0
  183.5260  175.9180  138.3270 C   0  0  1  0  0  3  0  0  0  0  0  0
  182.4770  177.8260  138.7260 C   0  0  0  0  0  0  0  0  0  0  0  0
  181.2950  179.3560  140.3000 C   0  0  0  0  0  0  0  0  0  0  0  0
  181.7070  180.0050  137.8840 C   0  0  0  0  0  2  0  0  0  0  0  0
  180.3220  180.4070  140.3610 N   0  0  0  0  0  2  0  0  0  0  0  0
  182.2240  179.2490  139.1100 C   0  0  2  0  0  3  0  0  0  0  0  0
  179.9330  181.1730  139.1840 C   0  0  0  0  0  2  0  0  0  0  0  0
  181.6710  178.5680  141.6860 S   0  0  0  0  0  0  0  0  0  0  0  0
  181.1450  181.3690  138.2630 C   0  0  2  0  0  3  0  0  0  0  0  0
  181.2110  184.0190  134.9930 O   0  0  0  0  0  0  0  0  0  0  0  0
  179.3310  182.5580  135.2300 C   0  0  0  0  0  2  0  0  0  0  0  0
  180.7260  184.5300  136.2100 C   0  0  1  0  0  3  0  0  0  0  0  0
  179.8060  184.0160  135.1430 C   0  0  1  0  0  3  0  0  0  0  0  0
  181.0370  183.5790  137.3820 C   0  0  0  0  0  2  0  0  0  0  0  0
  180.8500  182.1650  137.0610 N   0  0  2  0  0  0  0  0  0  0  0  0
  179.4710  181.9790  136.6230 C   0  0  0  0  0  2  0  0  0  0  0  0
  188.8920  178.2880  138.2580 C   0  0  0  0  0  0  0  0  0  0  0  0
  189.3310  178.1910  139.4840 C   0  0  0  0  0  3  0  0  0  0  0  0
  188.4510  178.3630  137.0260 C   0  0  0  0  0  3  0  0  0  0  0  0
  190.8490  176.2480  139.0740 C   0  0  0  0  0  1  0  0  0  0  0  0
  189.8270  176.8810  140.0110 C   0  0  1  0  0  3  0  0  0  0  0  0
  190.3910  177.0160  141.4260 C   0  0  0  0  0  2  0  0  0  0  0  0
  189.5200  177.8860  142.3270 C   0  0  2  0  0  3  0  0  0  0  0  0
  191.7280  177.2500  144.0260 O   0  0  0  0  0  1  0  0  0  0  0  0
  190.4310  178.3250  143.8370 P   0  0  1  0  0  0  0  0  0  0  0  0
  190.9630  179.7350  143.7060 O   0  0  0  0  0  0  0  0  0  0  0  0
  189.8560  177.1280  145.9190 C   0  0  0  0  0  1  0  0  0  0  0  0
  189.3930  178.2160  145.1750 O   0  0  0  0  0  0  0  0  0  0  0  0
  188.2490  177.1770  142.6630 C   0  0  0  0  0  0  0  0  0  0  0  0
  188.2650  175.8460  143.0660 O   0  0  0  0  0  1  0  0  0  0  0  0
  187.1530  177.7940  142.5890 O   0  0  0  0  0  0  0  0  0  0  0  0
  1 13  2  0  0  0  0
  2 17  2  0  0  0  0
  3  2  2  0  0  0  0
  3 40  1  0  0  0  0
  4  7  1  6  0  0  0
  5  8  1  0  0  0  0
  5 16  1  1  0  0  0
  5 14  1  0  0  0  0
  6 15  1  6  0  0  0
  6  9  1  0  0  0  0
  8  4  1  0  0  0  0
  8  6  1  0  0  0  0
 10 17  1  0  0  0  0
 11  1  1  0  0  0  0
 11  3  1  0  0  0  0
 12 14  1  0  0  0  0
 12 10  1  0  0  0  0
 13 15  2  0  0  0  0
 14  9  1  0  0  0  0
 15 22  1  0  0  0  0
 16  4  1  0  0  0  0
 17  9  1  0  0  0  0
 19 20  2  0  0  0  0
 19 22  1  0  0  0  0
 20 23  1  0  0  0  0
 21 19  1  0  0  0  0
 22 18  1  0  0  0  0
 23 18  2  0  0  0  0
 23 27  1  0  0  0  0
 24 26  1  0  0  0  0
 24 29  2  0  0  0  0
 25 30  1  0  0  0  0
 25 27  1  0  0  0  0
 27 24  1  0  0  0  0
 28 26  1  0  0  0  0
 30 28  1  0  0  0  0
 31 34  1  0  0  0  0
 31 33  1  0  0  0  0
 32 37  1  0  0  0  0
 33 35  1  0  0  0  0
 34 32  1  0  0  0  0
 34 33  1  0  0  0  0
 36 35  1  0  0  0  0
 36 30  1  0  0  0  0
 37 36  1  0  0  0  0
 38 39  2  0  0  0  0
 39 42  1  0  0  0  0
 40 38  2  0  0  0  0
 41 42  1  0  0  0  0
 42 43  1  0  0  0  0
 43 44  1  0  0  0  0
 44 50  1  0  0  0  0
 44 46  1  0  0  0  0
 46 45  1  0  0  0  0
 46 49  1  0  0  0  0
 47 46  2  0  0  0  0
 49 48  1  0  0  0  0
 50 51  1  0  0  0  0
 52 50  2  0  0  0  0
M  END
>  <MODEL>
1

>  <REMARK>
 VINA RESULT:      -8.2      0.000      0.000
  Name = 
  10 active torsions:
  status: ('A' for Active; 'I' for Inactive)
    1  A    between atoms: C_8  and  C_33
    2  A    between atoms: C_9  and  C_35
    3  A    between atoms: P_23  and  C_35
    4  A    between atoms: P_23  and  O_49
    5  A    between atoms: C_25  and  C_30
    6  A    between atoms: C_25  and  C_45
    7  A    between atoms: C_28  and  C_43
    8  A    between atoms: C_35  and  C_45
    9  A    between atoms: C_36  and  C_44
   10  A    between atoms: C_46  and  N_48
                            x       y       z     vdW  Elec       q    Type
                         _______ _______ _______ _____ _____    ______ ____

>  <TORSDO>
F 10

$$$$
=
 OpenBabel11032419593D

 52 59  0  0  1  0  0  0  0  0999 V2000
  184.3440  175.6780  136.8960 C   0  0  0  0  0  3  0  0  0  0  0  0
  184.0490  172.6270  136.8640 C   0  0  0  0  0  0  0  0  0  0  0  0
  185.1570  173.3330  136.8650 C   0  0  0  0  0  0  0  0  0  0  0  0
  179.2410  174.6320  135.6890 C   0  0  2  0  0  3  0  0  0  0  0  0
  180.4150  173.0030  134.9140 C   0  0  1  0  0  3  0  0  0  0  0  0
  181.2110  173.9010  136.9960 C   0  0  1  0  0  3  0  0  0  0  0  0
  178.9460  175.6800  134.8180 O   0  0  0  0  0  1  0  0  0  0  0  0
  180.7270  174.3240  135.6240 C   0  0  2  0  0  3  0  0  0  0  0  0
  181.6360  172.5080  136.8900 N   0  0  0  0  0  0  0  0  0  0  0  0
  182.9320  170.6950  136.0150 C   0  0  0  0  0  2  0  0  0  0  0  0
  185.1690  174.6610  136.1650 C   0  0  0  0  0  2  0  0  0  0  0  0
  181.6740  170.8450  135.1730 C   0  0  0  0  0  2  0  0  0  0  0  0
  183.1620  175.3400  137.3310 C   0  0  0  0  0  0  0  0  0  0  0  0
  180.8060  171.8820  135.8820 C   0  0  2  0  0  3  0  0  0  0  0  0
  182.0310  174.8730  137.7930 C   0  0  0  0  0  0  0  0  0  0  0  0
  178.9310  173.3080  135.0100 C   0  0  0  0  0  2  0  0  0  0  0  0
  182.9460  171.9270  136.8310 C   0  0  0  0  0  0  0  0  0  0  0  0
  182.4880  176.1110  139.8440 N   0  0  0  0  0  0  0  0  0  0  0  0
  180.3630  176.2530  139.0070 C   0  0  0  0  0  0  0  0  0  0  0  0
  180.6220  177.3930  139.5500 N   0  0  0  0  0  0  0  0  0  0  0  0
  179.0450  175.9330  138.3910 C   0  0  0  0  0  1  0  0  0  0  0  0
  181.5070  175.3010  139.1340 C   0  0  1  0  0  3  0  0  0  0  0  0
  181.9440  177.2630  140.0620 C   0  0  0  0  0  0  0  0  0  0  0  0
  183.5500  179.1410  139.7360 C   0  0  0  0  0  0  0  0  0  0  0  0
  183.4750  177.8250  141.9030 C   0  0  0  0  0  2  0  0  0  0  0  0
  184.8350  179.6310  140.1410 N   0  0  0  0  0  2  0  0  0  0  0  0
  182.6830  178.3840  140.7190 C   0  0  2  0  0  3  0  0  0  0  0  0
  185.5110  179.1430  141.3360 C   0  0  0  0  0  2  0  0  0  0  0  0
  182.8730  179.7690  138.3840 S   0  0  0  0  0  0  0  0  0  0  0  0
  184.4810  178.8400  142.4330 C   0  0  2  0  0  3  0  0  0  0  0  0
  185.3370  177.8280  146.4280 O   0  0  0  0  0  0  0  0  0  0  0  0
  186.9120  177.2040  144.7380 C   0  0  0  0  0  2  0  0  0  0  0  0
  185.6950  179.1240  146.0140 C   0  0  1  0  0  3  0  0  0  0  0  0
  186.6840  177.9960  146.0330 C   0  0  1  0  0  3  0  0  0  0  0  0
  185.0620  179.4740  144.6530 C   0  0  0  0  0  2  0  0  0  0  0  0
  185.0800  178.3720  143.6930 N   0  0  2  0  0  0  0  0  0  0  0  0
  186.4660  177.9600  143.5030 C   0  0  0  0  0  2  0  0  0  0  0  0
  187.5780  173.2320  137.2000 C   0  0  0  0  0  0  0  0  0  0  0  0
  188.7730  173.5960  136.8180 C   0  0  0  0  0  3  0  0  0  0  0  0
  186.3700  172.8850  137.5730 C   0  0  0  0  0  3  0  0  0  0  0  0
  188.5220  175.2350  134.9470 C   0  0  0  0  0  1  0  0  0  0  0  0
  189.0300  174.9990  136.3650 C   0  0  1  0  0  3  0  0  0  0  0  0
  188.4440  176.0250  137.3350 C   0  0  0  0  0  2  0  0  0  0  0  0
  189.4230  177.1450  137.6720 C   0  0  2  0  0  3  0  0  0  0  0  0
  191.3900  175.3150  138.6470 O   0  0  0  0  0  0  0  0  0  0  0  0
  190.4590  176.6610  139.0850 P   0  0  1  0  0  0  0  0  0  0  0  0
  191.3760  177.8090  139.4460 O   0  0  0  0  0  1  0  0  0  0  0  0
  189.7060  177.2650  141.3580 C   0  0  0  0  0  1  0  0  0  0  0  0
  189.4670  176.2710  140.4060 O   0  0  0  0  0  0  0  0  0  0  0  0
  188.6850  178.4100  137.9650 C   0  0  0  0  0  0  0  0  0  0  0  0
  189.1260  179.6240  137.4490 O   0  0  0  0  0  0  0  0  0  0  0  0
  187.6490  178.3750  138.6800 O   0  0  0  0  0  1  0  0  0  0  0  0
  1 13  2  0  0  0  0
  2  3  2  0  0  0  0
  3 40  1  0  0  0  0
  4  7  1  6  0  0  0
  5 16  1  1  0  0  0
  5  8  1  0  0  0  0
  5 14  1  0  0  0  0
  6 15  1  6  0  0  0
  8  4  1  0  0  0  0
  8  6  1  0  0  0  0
  9  6  1  0  0  0  0
 10 17  1  0  0  0  0
 11  3  1  0  0  0  0
 11  1  1  0  0  0  0
 12 14  1  0  0  0  0
 12 10  1  0  0  0  0
 13 15  2  0  0  0  0
 14  9  1  0  0  0  0
 15 22  1  0  0  0  0
 16  4  1  0  0  0  0
 17  2  2  0  0  0  0
 17  9  1  0  0  0  0
 18 23  2  0  0  0  0
 19 22  1  0  0  0  0
 19 20  2  0  0  0  0
 20 23  1  0  0  0  0
 21 19  1  0  0  0  0
 22 18  1  0  0  0  0
 23 27  1  0  0  0  0
 24 26  1  0  0  0  0
 24 27  1  0  0  0  0
 25 30  1  0  0  0  0
 26 28  1  0  0  0  0
 27 25  1  0  0  0  0
 28 30  1  0  0  0  0
 29 24  2  0  0  0  0
 30 36  1  0  0  0  0
 32 34  1  0  0  0  0
 33 34  1  0  0  0  0
 33 31  1  0  0  0  0
 34 31  1  0  0  0  0
 35 33  1  0  0  0  0
 36 35  1  0  0  0  0
 37 36  1  0  0  0  0
 37 32  1  0  0  0  0
 38 40  2  0  0  0  0
 39 38  2  0  0  0  0
 41 42  1  0  0  0  0
 42 39  1  0  0  0  0
 42 43  1  0  0  0  0
 43 44  1  0  0  0  0
 44 50  1  0  0  0  0
 44 46  1  0  0  0  0
 45 46  2  0  0  0  0
 46 47  1  0  0  0  0
 46 49  1  0  0  0  0
 49 48  1  0  0  0  0
 50 52  1  0  0  0  0
 51 50  2  0  0  0  0
M  END
>  <MODEL>
2

>  <REMARK>
 VINA RESULT:      -7.8      3.467      6.144
  Name = 
  10 active torsions:
  status: ('A' for Active; 'I' for Inactive)
    1  A    between atoms: C_8  and  C_33
    2  A    between atoms: C_9  and  C_35
    3  A    between atoms: P_23  and  C_35
    4  A    between atoms: P_23  and  O_49
    5  A    between atoms: C_25  and  C_30
    6  A    between atoms: C_25  and  C_45
    7  A    between atoms: C_28  and  C_43
    8  A    between atoms: C_35  and  C_45
    9  A    between atoms: C_36  and  C_44
   10  A    between atoms: C_46  and  N_48
                            x       y       z     vdW  Elec       q    Type
                         _______ _______ _______ _____ _____    ______ ____

>  <TORSDO>
F 10

$$$$
=
 OpenBabel11032419593D

 52 59  0  0  1  0  0  0  0  0999 V2000
  187.1850  179.3230  141.1520 C   0  0  0  0  0  3  0  0  0  0  0  0
  186.2330  177.6480  143.5370 C   0  0  0  0  0  0  0  0  0  0  0  0
  185.5020  178.3330  142.6850 C   0  0  0  0  0  0  0  0  0  0  0  0
  191.4970  178.3040  144.1450 C   0  0  2  0  0  3  0  0  0  0  0  0
  189.8120  178.3900  145.4820 C   0  0  1  0  0  3  0  0  0  0  0  0
  189.3310  177.4230  143.3350 C   0  0  1  0  0  3  0  0  0  0  0  0
  192.2350  179.4740  143.9690 O   0  0  0  0  0  1  0  0  0  0  0  0
  190.0190  178.6090  143.9810 C   0  0  2  0  0  3  0  0  0  0  0  0
  188.3890  176.8890  144.3150 N   0  0  0  0  0  0  0  0  0  0  0  0
  186.5250  176.9910  145.8130 C   0  0  0  0  0  2  0  0  0  0  0  0
  186.0630  179.5990  142.1080 C   0  0  0  0  0  2  0  0  0  0  0  0
  187.7810  177.3910  146.5710 C   0  0  0  0  0  2  0  0  0  0  0  0
  188.1060  178.4640  141.4900 C   0  0  0  0  0  0  0  0  0  0  0  0
  188.9520  177.1300  145.6270 C   0  0  2  0  0  3  0  0  0  0  0  0
  188.9280  177.5300  141.8940 C   0  0  0  0  0  0  0  0  0  0  0  0
  191.2870  178.0590  145.6300 C   0  0  0  0  0  2  0  0  0  0  0  0
  186.9620  176.9950  144.4010 C   0  0  0  0  0  0  0  0  0  0  0  0
  188.6240  176.3480  139.7820 N   0  0  0  0  0  0  0  0  0  0  0  0
  190.7450  177.0530  140.2710 C   0  0  0  0  0  0  0  0  0  0  0  0
  190.6150  177.1360  138.9920 N   0  0  0  0  0  0  0  0  0  0  0  0
  192.0160  177.3800  140.9770 C   0  0  0  0  0  1  0  0  0  0  0  0
  189.5060  176.5370  140.9260 C   0  0  1  0  0  3  0  0  0  0  0  0
  189.2910  176.6860  138.7280 C   0  0  0  0  0  0  0  0  0  0  0  0
  188.0280  178.0060  137.0320 C   0  0  0  0  0  0  0  0  0  0  0  0
  187.7190  175.4990  137.2560 C   0  0  0  0  0  2  0  0  0  0  0  0
  186.8060  178.0360  136.2840 N   0  0  0  0  0  2  0  0  0  0  0  0
  188.6840  176.6820  137.3620 C   0  0  2  0  0  3  0  0  0  0  0  0
  185.9660  176.8560  136.1210 C   0  0  0  0  0  2  0  0  0  0  0  0
  188.9040  179.3850  137.1390 S   0  0  0  0  0  0  0  0  0  0  0  0
  186.8420  175.6010  136.0140 C   0  0  2  0  0  3  0  0  0  0  0  0
  183.9340  172.5590  135.9150 O   0  0  0  0  0  0  0  0  0  0  0  0
  186.0090  172.1810  134.7850 C   0  0  0  0  0  2  0  0  0  0  0  0
  184.7740  172.5940  137.0430 C   0  0  1  0  0  3  0  0  0  0  0  0
  185.0490  171.6900  135.8780 C   0  0  1  0  0  3  0  0  0  0  0  0
  185.5720  173.9110  137.1090 C   0  0  0  0  0  2  0  0  0  0  0  0
  186.0760  174.3610  135.8120 N   0  0  2  0  0  0  0  0  0  0  0  0
  186.9120  173.3020  135.2590 C   0  0  0  0  0  2  0  0  0  0  0  0
  183.4430  178.5310  141.3800 C   0  0  0  0  0  0  0  0  0  0  0  0
  182.7330  179.2010  140.5120 C   0  0  0  0  0  3  0  0  0  0  0  0
  184.1750  177.8680  142.2420 C   0  0  0  0  0  3  0  0  0  0  0  0
  184.2960  178.8590  138.5910 C   0  0  0  0  0  1  0  0  0  0  0  0
  183.3870  179.8370  139.3260 C   0  0  1  0  0  3  0  0  0  0  0  0
  182.3610  180.4530  138.3750 C   0  0  0  0  0  2  0  0  0  0  0  0
  180.9260  180.2800  138.8630 C   0  0  2  0  0  3  0  0  0  0  0  0
  179.1830  178.0220  138.6890 O   0  0  0  0  0  1  0  0  0  0  0  0
  180.0210  179.1610  137.7540 P   0  0  1  0  0  0  0  0  0  0  0  0
  179.0320  179.9630  136.9360 O   0  0  0  0  0  0  0  0  0  0  0  0
  181.2460  177.0780  137.2460 C   0  0  0  0  0  1  0  0  0  0  0  0
  181.1190  178.3710  136.7290 O   0  0  0  0  0  0  0  0  0  0  0  0
  180.2440  181.6060  138.9490 C   0  0  0  0  0  0  0  0  0  0  0  0
  180.6020  182.6440  138.0940 O   0  0  0  0  0  0  0  0  0  0  0  0
  179.3310  181.7840  139.7980 O   0  0  0  0  0  1  0  0  0  0  0  0
  1 13  2  0  0  0  0
  1 11  1  0  0  0  0
  2 17  2  0  0  0  0
  3  2  2  0  0  0  0
  4  7  1  1  0  0  0
  4 16  1  0  0  0  0
  5 14  1  0  0  0  0
  5 16  1  1  0  0  0
  6 15  1  6  0  0  0
  6  8  1  0  0  0  0
  6  9  1  0  0  0  0
  8  4  1  0  0  0  0
  8  5  1  0  0  0  0
  9 17  1  0  0  0  0
  9 14  1  0  0  0  0
 10 12  1  0  0  0  0
 11  3  1  0  0  0  0
 13 15  2  0  0  0  0
 14 12  1  0  0  0  0
 17 10  1  0  0  0  0
 18 22  1  0  0  0  0
 19 22  1  0  0  0  0
 19 21  1  0  0  0  0
 20 19  2  0  0  0  0
 22 15  1  0  0  0  0
 23 20  1  0  0  0  0
 23 18  2  0  0  0  0
 24 29  2  0  0  0  0
 24 27  1  0  0  0  0
 25 27  1  0  0  0  0
 26 24  1  0  0  0  0
 27 23  1  0  0  0  0
 28 26  1  0  0  0  0
 30 28  1  0  0  0  0
 30 25  1  0  0  0  0
 31 33  1  0  0  0  0
 32 37  1  0  0  0  0
 32 34  1  0  0  0  0
 33 35  1  0  0  0  0
 34 31  1  0  0  0  0
 34 33  1  0  0  0  0
 36 30  1  0  0  0  0
 36 35  1  0  0  0  0
 37 36  1  0  0  0  0
 38 40  2  0  0  0  0
 39 38  2  0  0  0  0
 40  3  1  0  0  0  0
 41 42  1  0  0  0  0
 42 39  1  0  0  0  0
 43 44  1  0  0  0  0
 43 42  1  0  0  0  0
 44 50  1  0  0  0  0
 46 45  1  0  0  0  0
 46 44  1  0  0  0  0
 47 46  2  0  0  0  0
 49 48  1  0  0  0  0
 49 46  1  0  0  0  0
 50 52  1  0  0  0  0
 51 50  2  0  0  0  0
M  END
>  <MODEL>
3

>  <REMARK>
 VINA RESULT:      -7.2      3.473      9.766
  Name = 
  10 active torsions:
  status: ('A' for Active; 'I' for Inactive)
    1  A    between atoms: C_8  and  C_33
    2  A    between atoms: C_9  and  C_35
    3  A    between atoms: P_23  and  C_35
    4  A    between atoms: P_23  and  O_49
    5  A    between atoms: C_25  and  C_30
    6  A    between atoms: C_25  and  C_45
    7  A    between atoms: C_28  and  C_43
    8  A    between atoms: C_35  and  C_45
    9  A    between atoms: C_36  and  C_44
   10  A    between atoms: C_46  and  N_48
                            x       y       z     vdW  Elec       q    Type
                         _______ _______ _______ _____ _____    ______ ____

>  <TORSDO>
F 10

$$$$
=
 OpenBabel11032419593D

 52 59  0  0  1  0  0  0  0  0999 V2000
  185.9860  177.3830  143.2160 C   0  0  0  0  0  3  0  0  0  0  0  0
  183.6290  179.0630  144.2260 C   0  0  0  0  0  0  0  0  0  0  0  0
  184.7140  178.7150  144.8800 C   0  0  0  0  0  0  0  0  0  0  0  0
  182.0160  176.7510  139.6910 C   0  0  2  0  0  3  0  0  0  0  0  0
  181.1020  177.0810  141.6120 C   0  0  1  0  0  3  0  0  0  0  0  0
  183.1230  178.3280  141.2430 C   0  0  1  0  0  3  0  0  0  0  0  0
  182.2110  175.4280  139.2930 O   0  0  0  0  0  1  0  0  0  0  0  0
  182.5390  176.9360  141.1040 C   0  0  2  0  0  3  0  0  0  0  0  0
  182.2970  179.0440  142.2110 N   0  0  0  0  0  0  0  0  0  0  0  0
  181.2690  179.4010  144.3430 C   0  0  0  0  0  2  0  0  0  0  0  0
  185.3490  177.3900  144.5740 C   0  0  0  0  0  2  0  0  0  0  0  0
  180.3310  178.5670  143.4840 C   0  0  0  0  0  2  0  0  0  0  0  0
  185.3280  177.8800  142.2060 C   0  0  0  0  0  0  0  0  0  0  0  0
  180.9490  178.5290  142.0890 C   0  0  2  0  0  3  0  0  0  0  0  0
  184.6160  178.4740  141.2840 C   0  0  0  0  0  0  0  0  0  0  0  0
  180.5910  176.9220  140.1910 C   0  0  0  0  0  2  0  0  0  0  0  0
  182.5370  179.3810  143.5840 C   0  0  0  0  0  0  0  0  0  0  0  0
  186.4290  178.6370  139.6590 N   0  0  0  0  0  0  0  0  0  0  0  0
  184.3960  179.4760  139.0230 C   0  0  0  0  0  0  0  0  0  0  0  0
  184.9460  178.9960  137.9600 N   0  0  0  0  0  0  0  0  0  0  0  0
  183.0740  180.1600  139.0090 C   0  0  0  0  0  1  0  0  0  0  0  0
  185.2690  179.3160  140.2240 C   0  0  1  0  0  3  0  0  0  0  0  0
  186.2040  178.4920  138.3950 C   0  0  0  0  0  0  0  0  0  0  0  0
  186.6620  176.3890  137.1370 C   0  0  0  0  0  0  0  0  0  0  0  0
  188.5400  177.7630  138.1450 C   0  0  0  0  0  2  0  0  0  0  0  0
  187.5890  175.3020  137.0230 N   0  0  0  0  0  2  0  0  0  0  0  0
  187.1560  177.7750  137.4920 C   0  0  2  0  0  3  0  0  0  0  0  0
  188.9370  175.3720  137.5720 C   0  0  0  0  0  2  0  0  0  0  0  0
  185.1760  176.2110  136.4700 S   0  0  0  0  0  0  0  0  0  0  0  0
  189.4850  176.7990  137.4370 C   0  0  2  0  0  3  0  0  0  0  0  0
  193.6550  177.1300  137.9060 O   0  0  0  0  0  0  0  0  0  0  0  0
  192.2680  177.4580  139.8280 C   0  0  0  0  0  2  0  0  0  0  0  0
  193.1130  175.8340  137.9720 C   0  0  1  0  0  3  0  0  0  0  0  0
  193.4050  176.6350  139.2060 C   0  0  1  0  0  3  0  0  0  0  0  0
  191.6500  175.8110  137.4860 C   0  0  0  0  0  2  0  0  0  0  0  0
  190.8600  176.9550  137.9370 N   0  0  2  0  0  0  0  0  0  0  0  0
  190.8960  176.9820  139.3950 C   0  0  0  0  0  2  0  0  0  0  0  0
  186.2850  179.1960  146.6930 C   0  0  0  0  0  0  0  0  0  0  0  0
  187.2190  178.7720  147.5010 C   0  0  0  0  0  3  0  0  0  0  0  0
  185.3530  179.6060  145.8660 C   0  0  0  0  0  3  0  0  0  0  0  0
  187.8570  176.3800  147.1530 C   0  0  0  0  0  1  0  0  0  0  0  0
  188.2800  177.8370  147.0100 C   0  0  1  0  0  3  0  0  0  0  0  0
  188.6910  178.1510  145.5720 C   0  0  0  0  0  2  0  0  0  0  0  0
  189.4570  177.0070  144.9150 C   0  0  2  0  0  3  0  0  0  0  0  0
  192.0440  175.8360  144.5900 O   0  0  0  0  0  0  0  0  0  0  0  0
  191.2290  177.1460  145.2930 P   0  0  1  0  0  0  0  0  0  0  0  0
  191.7620  178.4380  144.7140 O   0  0  0  0  0  1  0  0  0  0  0  0
  191.8370  175.8190  147.2850 C   0  0  0  0  0  1  0  0  0  0  0  0
  191.4510  177.1260  146.9760 O   0  0  0  0  0  0  0  0  0  0  0  0
  189.2300  177.0110  143.4380 C   0  0  0  0  0  0  0  0  0  0  0  0
  189.2620  178.2010  142.7190 O   0  0  0  0  0  0  0  0  0  0  0  0
  189.0140  175.9240  142.8380 O   0  0  0  0  0  1  0  0  0  0  0  0
  1 11  1  0  0  0  0
  2  3  2  0  0  0  0
  3 40  1  0  0  0  0
  4  7  1  1  0  0  0
  4 16  1  0  0  0  0
  4  8  1  0  0  0  0
  5 16  1  6  0  0  0
  5 14  1  0  0  0  0
  6 15  1  1  0  0  0
  6  9  1  0  0  0  0
  8  6  1  0  0  0  0
  8  5  1  0  0  0  0
  9 17  1  0  0  0  0
 11  3  1  0  0  0  0
 12 10  1  0  0  0  0
 13  1  2  0  0  0  0
 14  9  1  0  0  0  0
 14 12  1  0  0  0  0
 15 13  2  0  0  0  0
 17  2  2  0  0  0  0
 17 10  1  0  0  0  0
 18 22  1  0  0  0  0
 19 22  1  0  0  0  0
 20 23  1  0  0  0  0
 20 19  2  0  0  0  0
 21 19  1  0  0  0  0
 22 15  1  0  0  0  0
 23 18  2  0  0  0  0
 24 27  1  0  0  0  0
 26 24  1  0  0  0  0
 26 28  1  0  0  0  0
 27 25  1  0  0  0  0
 27 23  1  0  0  0  0
 29 24  2  0  0  0  0
 30 28  1  0  0  0  0
 30 36  1  0  0  0  0
 30 25  1  0  0  0  0
 31 33  1  0  0  0  0
 31 34  1  0  0  0  0
 33 34  1  0  0  0  0
 34 32  1  0  0  0  0
 35 36  1  0  0  0  0
 35 33  1  0  0  0  0
 36 37  1  0  0  0  0
 37 32  1  0  0  0  0
 38 39  2  0  0  0  0
 40 38  2  0  0  0  0
 42 41  1  0  0  0  0
 42 39  1  0  0  0  0
 43 42  1  0  0  0  0
 44 46  1  0  0  0  0
 44 43  1  0  0  0  0
 45 46  2  0  0  0  0
 46 49  1  0  0  0  0
 47 46  1  0  0  0  0
 49 48  1  0  0  0  0
 50 44  1  0  0  0  0
 51 50  2  0  0  0  0
 52 50  1  0  0  0  0
M  END
>  <MODEL>
4

>  <REMARK>
 VINA RESULT:      -7.1      3.401      8.309
  Name = 
  10 active torsions:
  status: ('A' for Active; 'I' for Inactive)
    1  A    between atoms: C_8  and  C_33
    2  A    between atoms: C_9  and  C_35
    3  A    between atoms: P_23  and  C_35
    4  A    between atoms: P_23  and  O_49
    5  A    between atoms: C_25  and  C_30
    6  A    between atoms: C_25  and  C_45
    7  A    between atoms: C_28  and  C_43
    8  A    between atoms: C_35  and  C_45
    9  A    between atoms: C_36  and  C_44
   10  A    between atoms: C_46  and  N_48
                            x       y       z     vdW  Elec       q    Type
                         _______ _______ _______ _____ _____    ______ ____

>  <TORSDO>
F 10

$$$$
=
 OpenBabel11032419593D

 52 59  0  0  1  0  0  0  0  0999 V2000
  184.5530  175.5360  136.2590 C   0  0  0  0  0  3  0  0  0  0  0  0
  184.4240  172.5110  136.7350 C   0  0  0  0  0  0  0  0  0  0  0  0
  185.4900  173.2550  136.5440 C   0  0  0  0  0  0  0  0  0  0  0  0
  179.4490  174.0860  135.6010 C   0  0  2  0  0  3  0  0  0  0  0  0
  180.6590  172.4050  135.0130 C   0  0  1  0  0  3  0  0  0  0  0  0
  181.5350  173.6650  136.8640 C   0  0  1  0  0  3  0  0  0  0  0  0
  179.0430  174.9640  134.5970 O   0  0  0  0  0  1  0  0  0  0  0  0
  180.9420  173.8360  135.4790 C   0  0  2  0  0  3  0  0  0  0  0  0
  182.0280  172.2920  136.9510 N   0  0  0  0  0  0  0  0  0  0  0  0
  183.3630  170.4200  136.2860 C   0  0  0  0  0  2  0  0  0  0  0  0
  185.3850  174.4510  135.6430 C   0  0  0  0  0  2  0  0  0  0  0  0
  182.0480  170.3750  135.5230 C   0  0  0  0  0  2  0  0  0  0  0  0
  183.4220  175.2220  136.8250 C   0  0  0  0  0  0  0  0  0  0  0  0
  181.1710  171.4750  136.1180 C   0  0  2  0  0  3  0  0  0  0  0  0
  182.3490  174.7880  137.4350 C   0  0  0  0  0  0  0  0  0  0  0  0
  179.1700  172.6570  135.1650 C   0  0  0  0  0  2  0  0  0  0  0  0
  183.3610  171.7680  136.8920 C   0  0  0  0  0  0  0  0  0  0  0  0
  182.9980  176.0360  139.4280 N   0  0  0  0  0  0  0  0  0  0  0  0
  180.9780  176.5660  138.4920 C   0  0  0  0  0  0  0  0  0  0  0  0
  181.4580  177.6590  138.9780 N   0  0  0  0  0  0  0  0  0  0  0  0
  179.6410  176.4910  137.8390 C   0  0  0  0  0  1  0  0  0  0  0  0
  181.8880  175.4050  138.7250 C   0  0  1  0  0  3  0  0  0  0  0  0
  182.7050  177.2880  139.5530 C   0  0  0  0  0  0  0  0  0  0  0  0
  184.8730  178.4960  139.3190 C   0  0  0  0  0  0  0  0  0  0  0  0
  183.9880  177.7950  141.5890 C   0  0  0  0  0  2  0  0  0  0  0  0
  186.1550  178.6750  139.9330 N   0  0  0  0  0  2  0  0  0  0  0  0
  183.6460  178.2700  140.1760 C   0  0  2  0  0  3  0  0  0  0  0  0
  186.4110  178.3040  141.3190 C   0  0  0  0  0  2  0  0  0  0  0  0
  184.6900  178.9630  137.7600 S   0  0  0  0  0  0  0  0  0  0  0  0
  185.1640  178.5720  142.1710 C   0  0  2  0  0  3  0  0  0  0  0  0
  184.7310  177.9710  146.3150 O   0  0  0  0  0  0  0  0  0  0  0  0
  186.7840  177.3050  145.2810 C   0  0  0  0  0  2  0  0  0  0  0  0
  185.1580  179.2460  145.9030 C   0  0  1  0  0  3  0  0  0  0  0  0
  186.1270  178.1910  146.3490 C   0  0  1  0  0  3  0  0  0  0  0  0
  184.9820  179.4330  144.3830 C   0  0  0  0  0  2  0  0  0  0  0  0
  185.3440  178.2550  143.5970 N   0  0  2  0  0  0  0  0  0  0  0  0
  186.7310  177.9200  143.8970 C   0  0  0  0  0  2  0  0  0  0  0  0
  187.8320  173.7300  137.0660 C   0  0  0  0  0  0  0  0  0  0  0  0
  188.8780  174.4940  136.9000 C   0  0  0  0  0  3  0  0  0  0  0  0
  186.7680  172.9820  137.2270 C   0  0  0  0  0  3  0  0  0  0  0  0
  187.5690  176.4690  137.6970 C   0  0  0  0  0  1  0  0  0  0  0  0
  188.7300  175.9820  136.8380 C   0  0  1  0  0  3  0  0  0  0  0  0
  190.0280  176.6970  137.2140 C   0  0  0  0  0  2  0  0  0  0  0  0
  190.8300  175.9460  138.2720 C   0  0  2  0  0  3  0  0  0  0  0  0
  192.5480  177.3150  140.1000 O   0  0  0  0  0  1  0  0  0  0  0  0
  190.9260  176.9310  139.7970 P   0  0  1  0  0  0  0  0  0  0  0  0
  190.1340  178.2070  139.6150 O   0  0  0  0  0  0  0  0  0  0  0  0
  189.7310  176.9730  141.9570 C   0  0  0  0  0  1  0  0  0  0  0  0
  190.2940  176.0320  141.0900 O   0  0  0  0  0  0  0  0  0  0  0  0
  192.1980  175.6310  137.7600 C   0  0  0  0  0  0  0  0  0  0  0  0
  193.0120  176.6360  137.2470 O   0  0  0  0  0  0  0  0  0  0  0  0
  192.6200  174.4450  137.8000 O   0  0  0  0  0  1  0  0  0  0  0  0
  1 13  2  0  0  0  0
  2 17  2  0  0  0  0
  3  2  2  0  0  0  0
  3 40  1  0  0  0  0
  4  7  1  6  0  0  0
  5 16  1  1  0  0  0
  5  8  1  0  0  0  0
  5 14  1  0  0  0  0
  6  9  1  0  0  0  0
  6 15  1  6  0  0  0
  8  4  1  0  0  0  0
  8  6  1  0  0  0  0
 10 17  1  0  0  0  0
 11  1  1  0  0  0  0
 11  3  1  0  0  0  0
 12 14  1  0  0  0  0
 12 10  1  0  0  0  0
 13 15  2  0  0  0  0
 14  9  1  0  0  0  0
 15 22  1  0  0  0  0
 16  4  1  0  0  0  0
 17  9  1  0  0  0  0
 18 23  2  0  0  0  0
 19 22  1  0  0  0  0
 19 20  2  0  0  0  0
 20 23  1  0  0  0  0
 21 19  1  0  0  0  0
 22 18  1  0  0  0  0
 23 27  1  0  0  0  0
 24 26  1  0  0  0  0
 24 27  1  0  0  0  0
 25 30  1  0  0  0  0
 26 28  1  0  0  0  0
 27 25  1  0  0  0  0
 28 30  1  0  0  0  0
 29 24  2  0  0  0  0
 30 36  1  0  0  0  0
 31 34  1  0  0  0  0
 32 34  1  0  0  0  0
 33 31  1  0  0  0  0
 33 34  1  0  0  0  0
 35 33  1  0  0  0  0
 36 37  1  0  0  0  0
 36 35  1  0  0  0  0
 37 32  1  0  0  0  0
 38 40  2  0  0  0  0
 39 38  2  0  0  0  0
 42 39  1  0  0  0  0
 42 43  1  0  0  0  0
 42 41  1  0  0  0  0
 43 44  1  0  0  0  0
 44 46  1  0  0  0  0
 46 45  1  0  0  0  0
 46 49  1  0  0  0  0
 47 46  2  0  0  0  0
 49 48  1  0  0  0  0
 50 52  1  0  0  0  0
 50 44  1  0  0  0  0
 51 50  2  0  0  0  0
M  END
>  <MODEL>
5

>  <REMARK>
 VINA RESULT:      -7.1      3.586      6.148
  Name = 
  10 active torsions:
  status: ('A' for Active; 'I' for Inactive)
    1  A    between atoms: C_8  and  C_33
    2  A    between atoms: C_9  and  C_35
    3  A    between atoms: P_23  and  C_35
    4  A    between atoms: P_23  and  O_49
    5  A    between atoms: C_25  and  C_30
    6  A    between atoms: C_25  and  C_45
    7  A    between atoms: C_28  and  C_43
    8  A    between atoms: C_35  and  C_45
    9  A    between atoms: C_36  and  C_44
   10  A    between atoms: C_46  and  N_48
                            x       y       z     vdW  Elec       q    Type
                         _______ _______ _______ _____ _____    ______ ____

>  <TORSDO>
F 10

$$$$
=
 OpenBabel11032419593D

 52 59  0  0  1  0  0  0  0  0999 V2000
  187.0760  178.5180  137.2500 C   0  0  0  0  0  3  0  0  0  0  0  0
  187.1390  175.4990  136.7220 C   0  0  0  0  0  0  0  0  0  0  0  0
  188.1570  176.3090  136.9130 C   0  0  0  0  0  0  0  0  0  0  0  0
  182.2030  177.1490  135.5260 C   0  0  2  0  0  3  0  0  0  0  0  0
  183.6000  175.8010  134.5940 C   0  0  1  0  0  3  0  0  0  0  0  0
  184.1700  176.4270  136.8440 C   0  0  1  0  0  3  0  0  0  0  0  0
  181.8370  178.2870  134.8100 O   0  0  0  0  0  1  0  0  0  0  0  0
  183.7160  177.0140  135.5220 C   0  0  2  0  0  3  0  0  0  0  0  0
  184.7590  175.1230  136.5530 N   0  0  0  0  0  0  0  0  0  0  0  0
  186.3030  173.6240  135.5030 C   0  0  0  0  0  2  0  0  0  0  0  0
  188.0530  177.7260  136.4320 C   0  0  0  0  0  2  0  0  0  0  0  0
  185.0840  173.7750  134.6060 C   0  0  0  0  0  2  0  0  0  0  0  0
  185.9200  177.9910  137.5400 C   0  0  0  0  0  0  0  0  0  0  0  0
  184.0640  174.5850  135.4020 C   0  0  2  0  0  3  0  0  0  0  0  0
  184.8270  177.3380  137.8390 C   0  0  0  0  0  0  0  0  0  0  0  0
  182.0870  175.9280  134.6280 C   0  0  0  0  0  2  0  0  0  0  0  0
  186.1290  174.7020  136.5000 C   0  0  0  0  0  0  0  0  0  0  0  0
  183.8120  178.8700  139.4430 N   0  0  0  0  0  0  0  0  0  0  0  0
  182.8580  176.7990  139.2520 C   0  0  0  0  0  0  0  0  0  0  0  0
  181.9010  177.6230  139.5070 N   0  0  0  0  0  0  0  0  0  0  0  0
  182.6430  175.3320  139.1060 C   0  0  0  0  0  1  0  0  0  0  0  0
  184.1830  177.4840  139.1890 C   0  0  1  0  0  3  0  0  0  0  0  0
  182.5330  178.8930  139.6240 C   0  0  0  0  0  0  0  0  0  0  0  0
  180.4370  179.9180  140.5030 C   0  0  0  0  0  0  0  0  0  0  0  0
  181.6660  180.9120  138.5190 C   0  0  0  0  0  2  0  0  0  0  0  0
  179.2980  180.6990  140.1200 N   0  0  0  0  0  2  0  0  0  0  0  0
  181.7810  180.1660  139.8500 C   0  0  2  0  0  3  0  0  0  0  0  0
  179.2690  181.4810  138.8900 C   0  0  0  0  0  2  0  0  0  0  0  0
  180.3690  179.0900  141.9130 S   0  0  0  0  0  0  0  0  0  0  0  0
  180.6630  182.0570  138.6040 C   0  0  2  0  0  3  0  0  0  0  0  0
  181.0690  185.1610  135.7900 O   0  0  0  0  0  0  0  0  0  0  0  0
  180.6180  182.9530  134.9850 C   0  0  0  0  0  2  0  0  0  0  0  0
  179.8000  185.0010  136.3750 C   0  0  1  0  0  3  0  0  0  0  0  0
  180.1360  184.4100  135.0380 C   0  0  1  0  0  3  0  0  0  0  0  0
  179.8570  184.0550  137.5910 C   0  0  0  0  0  2  0  0  0  0  0  0
  180.7190  182.8910  137.3940 N   0  0  2  0  0  0  0  0  0  0  0  0
  180.2390  182.1660  136.2230 C   0  0  0  0  0  2  0  0  0  0  0  0
  189.8610  176.5410  138.6520 C   0  0  0  0  0  0  0  0  0  0  0  0
  190.3260  177.2060  139.6750 C   0  0  0  0  0  3  0  0  0  0  0  0
  189.3730  175.8820  137.6300 C   0  0  0  0  0  3  0  0  0  0  0  0
  187.9870  177.9540  140.1450 C   0  0  0  0  0  1  0  0  0  0  0  0
  189.3940  177.7700  140.7020 C   0  0  1  0  0  3  0  0  0  0  0  0
  189.3740  176.9250  141.9750 C   0  0  0  0  0  2  0  0  0  0  0  0
  189.2980  177.7700  143.2430 C   0  0  2  0  0  3  0  0  0  0  0  0
  191.7180  176.2920  143.5980 O   0  0  0  0  0  0  0  0  0  0  0  0
  190.8460  177.6230  144.1830 P   0  0  1  0  0  0  0  0  0  0  0  0
  191.6650  178.8810  143.9930 O   0  0  0  0  0  1  0  0  0  0  0  0
  191.5540  176.6550  146.3410 C   0  0  0  0  0  1  0  0  0  0  0  0
  190.4900  177.4020  145.8270 O   0  0  0  0  0  0  0  0  0  0  0  0
  188.1310  177.3510  144.0770 C   0  0  0  0  0  0  0  0  0  0  0  0
  187.6750  178.1580  145.1140 O   0  0  0  0  0  1  0  0  0  0  0  0
  187.5500  176.2610  143.8330 O   0  0  0  0  0  0  0  0  0  0  0  0
  1 13  2  0  0  0  0
  2  3  2  0  0  0  0
  3 40  1  0  0  0  0
  4  7  1  6  0  0  0
  5 16  1  1  0  0  0
  5 14  1  0  0  0  0
  5  8  1  0  0  0  0
  6 15  1  6  0  0  0
  8  4  1  0  0  0  0
  8  6  1  0  0  0  0
  9  6  1  0  0  0  0
 10 17  1  0  0  0  0
 11  3  1  0  0  0  0
 11  1  1  0  0  0  0
 12 14  1  0  0  0  0
 12 10  1  0  0  0  0
 13 15  2  0  0  0  0
 14  9  1  0  0  0  0
 15 22  1  0  0  0  0
 16  4  1  0  0  0  0
 17  9  1  0  0  0  0
 17  2  2  0  0  0  0
 18 23  2  0  0  0  0
 19 20  2  0  0  0  0
 20 23  1  0  0  0  0
 21 19  1  0  0  0  0
 22 19  1  0  0  0  0
 22 18  1  0  0  0  0
 23 27  1  0  0  0  0
 24 29  2  0  0  0  0
 25 30  1  0  0  0  0
 25 27  1  0  0  0  0
 26 24  1  0  0  0  0
 27 24  1  0  0  0  0
 28 26  1  0  0  0  0
 30 28  1  0  0  0  0
 31 33  1  0  0  0  0
 32 34  1  0  0  0  0
 32 37  1  0  0  0  0
 33 35  1  0  0  0  0
 34 31  1  0  0  0  0
 34 33  1  0  0  0  0
 36 35  1  0  0  0  0
 36 30  1  0  0  0  0
 37 36  1  0  0  0  0
 38 39  2  0  0  0  0
 39 42  1  0  0  0  0
 40 38  2  0  0  0  0
 41 42  1  0  0  0  0
 42 43  1  0  0  0  0
 43 44  1  0  0  0  0
 44 50  1  0  0  0  0
 44 46  1  0  0  0  0
 45 46  2  0  0  0  0
 46 49  1  0  0  0  0
 47 46  1  0  0  0  0
 49 48  1  0  0  0  0
 50 51  1  0  0  0  0
 52 50  2  0  0  0  0
M  END
>  <MODEL>
6

>  <REMARK>
 VINA RESULT:      -7.0      1.603      2.289
  Name = 
  10 active torsions:
  status: ('A' for Active; 'I' for Inactive)
    1  A    between atoms: C_8  and  C_33
    2  A    between atoms: C_9  and  C_35
    3  A    between atoms: P_23  and  C_35
    4  A    between atoms: P_23  and  O_49
    5  A    between atoms: C_25  and  C_30
    6  A    between atoms: C_25  and  C_45
    7  A    between atoms: C_28  and  C_43
    8  A    between atoms: C_35  and  C_45
    9  A    between atoms: C_36  and  C_44
   10  A    between atoms: C_46  and  N_48
                            x       y       z     vdW  Elec       q    Type
                         _______ _______ _______ _____ _____    ______ ____

>  <TORSDO>
F 10

$$$$
=
 OpenBabel11032419593D

 52 59  0  0  1  0  0  0  0  0999 V2000
  186.2490  176.7280  135.6120 C   0  0  0  0  0  3  0  0  0  0  0  0
  187.2280  177.6020  138.3830 C   0  0  0  0  0  0  0  0  0  0  0  0
  186.2060  178.0690  137.7010 C   0  0  0  0  0  0  0  0  0  0  0  0
  191.1380  174.6580  136.2460 C   0  0  2  0  0  3  0  0  0  0  0  0
  191.0870  176.4980  137.3620 C   0  0  1  0  0  3  0  0  0  0  0  0
  189.0250  175.2640  137.3820 C   0  0  1  0  0  3  0  0  0  0  0  0
  191.6300  174.7130  134.9430 O   0  0  0  0  0  1  0  0  0  0  0  0
  190.1090  175.7570  136.4460 C   0  0  2  0  0  3  0  0  0  0  0  0
  189.0960  176.0840  138.5890 N   0  0  0  0  0  0  0  0  0  0  0  0
  189.0540  178.1330  139.8250 C   0  0  0  0  0  2  0  0  0  0  0  0
  186.2930  178.1060  136.2030 C   0  0  0  0  0  2  0  0  0  0  0  0
  190.4840  177.8590  139.3860 C   0  0  0  0  0  2  0  0  0  0  0  0
  186.9810  175.7890  136.1430 C   0  0  0  0  0  0  0  0  0  0  0  0
  190.4820  176.4620  138.7700 C   0  0  2  0  0  3  0  0  0  0  0  0
  187.6890  174.9070  136.8000 C   0  0  0  0  0  0  0  0  0  0  0  0
  192.0970  175.3800  137.1780 C   0  0  0  0  0  2  0  0  0  0  0  0
  188.2640  177.1590  139.0440 C   0  0  0  0  0  0  0  0  0  0  0  0
  185.9070  173.4870  137.6720 N   0  0  0  0  0  0  0  0  0  0  0  0
  186.8520  172.8530  135.6860 C   0  0  0  0  0  0  0  0  0  0  0  0
  185.6100  172.5140  135.6280 N   0  0  0  0  0  0  0  0  0  0  0  0
  187.8210  172.5600  134.5940 C   0  0  0  0  0  1  0  0  0  0  0  0
  187.1940  173.5010  136.9870 C   0  0  1  0  0  3  0  0  0  0  0  0
  185.0610  172.9180  136.8770 C   0  0  0  0  0  0  0  0  0  0  0  0
  182.8940  171.8470  136.2670 C   0  0  0  0  0  0  0  0  0  0  0  0
  182.9840  174.1740  137.2720 C   0  0  0  0  0  2  0  0  0  0  0  0
  181.5520  172.1350  135.8550 N   0  0  0  0  0  2  0  0  0  0  0  0
  183.6120  172.7800  137.2190 C   0  0  2  0  0  3  0  0  0  0  0  0
  180.9560  173.4550  136.0180 C   0  0  0  0  0  2  0  0  0  0  0  0
  183.4610  170.3260  136.0520 S   0  0  0  0  0  0  0  0  0  0  0  0
  181.4620  174.1020  137.3140 C   0  0  2  0  0  3  0  0  0  0  0  0
  179.0850  177.5730  137.4610 O   0  0  0  0  0  0  0  0  0  0  0  0
  181.0370  177.4760  138.8410 C   0  0  0  0  0  2  0  0  0  0  0  0
  180.0420  177.5060  136.4320 C   0  0  1  0  0  3  0  0  0  0  0  0
  180.3100  178.2300  137.7180 C   0  0  1  0  0  3  0  0  0  0  0  0
  180.6230  176.0840  136.2970 C   0  0  0  0  0  2  0  0  0  0  0  0
  180.8840  175.4290  137.5770 N   0  0  2  0  0  0  0  0  0  0  0  0
  181.8020  176.2690  138.3370 C   0  0  0  0  0  2  0  0  0  0  0  0
  184.7040  178.2670  139.6210 C   0  0  0  0  0  0  0  0  0  0  0  0
  184.4710  178.0260  140.8830 C   0  0  0  0  0  3  0  0  0  0  0  0
  184.9620  178.5070  138.3580 C   0  0  0  0  0  3  0  0  0  0  0  0
  186.2590  179.5100  141.8050 C   0  0  0  0  0  1  0  0  0  0  0  0
  185.5650  178.1570  141.8960 C   0  0  1  0  0  3  0  0  0  0  0  0
  185.0590  177.8940  143.3140 C   0  0  0  0  0  2  0  0  0  0  0  0
  185.8980  178.5940  144.3790 C   0  0  2  0  0  3  0  0  0  0  0  0
  188.5810  178.3880  145.3430 O   0  0  0  0  0  0  0  0  0  0  0  0
  187.1990  177.4760  144.9810 P   0  0  1  0  0  0  0  0  0  0  0  0
  186.7150  176.7790  146.2340 O   0  0  0  0  0  1  0  0  0  0  0  0
  188.7980  176.7200  143.2580 C   0  0  0  0  0  1  0  0  0  0  0  0
  187.5610  176.3320  143.7810 O   0  0  0  0  0  0  0  0  0  0  0  0
  185.0310  179.0520  145.5060 C   0  0  0  0  0  0  0  0  0  0  0  0
  183.6460  178.9630  145.4160 O   0  0  0  0  0  0  0  0  0  0  0  0
  185.5600  179.5160  146.5500 O   0  0  0  0  0  1  0  0  0  0  0  0
  1 13  2  0  0  0  0
  1 11  1  0  0  0  0
  2 17  2  0  0  0  0
  3 40  1  0  0  0  0
  3  2  2  0  0  0  0
  4  7  1  6  0  0  0
  4  8  1  0  0  0  0
  4 16  1  0  0  0  0
  5 16  1  1  0  0  0
  5 14  1  0  0  0  0
  6 15  1  6  0  0  0
  6  9  1  0  0  0  0
  8  5  1  0  0  0  0
  8  6  1  0  0  0  0
  9 14  1  0  0  0  0
  9 17  1  0  0  0  0
 11  3  1  0  0  0  0
 12 10  1  0  0  0  0
 13 15  2  0  0  0  0
 14 12  1  0  0  0  0
 15 22  1  0  0  0  0
 17 10  1  0  0  0  0
 19 22  1  0  0  0  0
 20 19  2  0  0  0  0
 20 23  1  0  0  0  0
 21 19  1  0  0  0  0
 22 18  1  0  0  0  0
 23 27  1  0  0  0  0
 23 18  2  0  0  0  0
 24 27  1  0  0  0  0
 25 30  1  0  0  0  0
 26 28  1  0  0  0  0
 26 24  1  0  0  0  0
 27 25  1  0  0  0  0
 28 30  1  0  0  0  0
 29 24  2  0  0  0  0
 30 36  1  0  0  0  0
 31 34  1  0  0  0  0
 33 31  1  0  0  0  0
 33 34  1  0  0  0  0
 34 32  1  0  0  0  0
 35 33  1  0  0  0  0
 35 36  1  0  0  0  0
 36 37  1  0  0  0  0
 37 32  1  0  0  0  0
 38 39  2  0  0  0  0
 39 42  1  0  0  0  0
 40 38  2  0  0  0  0
 41 42  1  0  0  0  0
 42 43  1  0  0  0  0
 43 44  1  0  0  0  0
 44 46  1  0  0  0  0
 44 50  1  0  0  0  0
 46 45  2  0  0  0  0
 46 47  1  0  0  0  0
 48 49  1  0  0  0  0
 49 46  1  0  0  0  0
 50 52  1  0  0  0  0
 51 50  2  0  0  0  0
M  END
>  <MODEL>
7

>  <REMARK>
 VINA RESULT:      -7.0      3.368      5.877
  Name = 
  10 active torsions:
  status: ('A' for Active; 'I' for Inactive)
    1  A    between atoms: C_8  and  C_33
    2  A    between atoms: C_9  and  C_35
    3  A    between atoms: P_23  and  C_35
    4  A    between atoms: P_23  and  O_49
    5  A    between atoms: C_25  and  C_30
    6  A    between atoms: C_25  and  C_45
    7  A    between atoms: C_28  and  C_43
    8  A    between atoms: C_35  and  C_45
    9  A    between atoms: C_36  and  C_44
   10  A    between atoms: C_46  and  N_48
                            x       y       z     vdW  Elec       q    Type
                         _______ _______ _______ _____ _____    ______ ____

>  <TORSDO>
F 10

$$$$
=
 OpenBabel11032419593D

 52 59  0  0  1  0  0  0  0  0999 V2000
  185.7830  176.9580  136.5690 C   0  0  0  0  0  3  0  0  0  0  0  0
  184.4930  174.2330  137.1290 C   0  0  0  0  0  0  0  0  0  0  0  0
  185.7200  174.4810  136.7260 C   0  0  0  0  0  0  0  0  0  0  0  0
  180.5110  177.7840  136.9070 C   0  0  2  0  0  3  0  0  0  0  0  0
  180.7860  175.7910  136.1410 C   0  0  1  0  0  3  0  0  0  0  0  0
  182.4210  176.4670  137.7680 C   0  0  1  0  0  3  0  0  0  0  0  0
  180.3350  178.8080  135.9770 O   0  0  0  0  0  1  0  0  0  0  0  0
  181.7170  176.9480  136.5150 C   0  0  2  0  0  3  0  0  0  0  0  0
  182.3050  175.0120  137.7920 N   0  0  0  0  0  0  0  0  0  0  0  0
  182.5970  172.7970  136.9320 C   0  0  0  0  0  2  0  0  0  0  0  0
  185.9620  175.6630  135.8340 C   0  0  0  0  0  2  0  0  0  0  0  0
  181.2700  173.3430  136.4290 C   0  0  0  0  0  2  0  0  0  0  0  0
  184.7450  177.1070  137.3440 C   0  0  0  0  0  0  0  0  0  0  0  0
  181.0520  174.6700  137.1520 C   0  0  2  0  0  3  0  0  0  0  0  0
  183.7160  177.1190  138.1520 C   0  0  0  0  0  0  0  0  0  0  0  0
  179.5890  176.6260  136.5630 C   0  0  0  0  0  2  0  0  0  0  0  0
  183.2650  173.9880  137.4970 C   0  0  0  0  0  0  0  0  0  0  0  0
  185.0630  177.5130  140.1480 N   0  0  0  0  0  0  0  0  0  0  0  0
  183.8440  179.2830  139.3610 C   0  0  0  0  0  0  0  0  0  0  0  0
  184.9270  179.7740  139.8590 N   0  0  0  0  0  0  0  0  0  0  0  0
  182.7600  180.1310  138.7900 C   0  0  0  0  0  1  0  0  0  0  0  0
  183.7930  177.7960  139.4910 C   0  0  1  0  0  3  0  0  0  0  0  0
  185.6510  178.6470  140.3400 C   0  0  0  0  0  0  0  0  0  0  0  0
  188.0240  177.8950  140.1960 C   0  0  0  0  0  0  0  0  0  0  0  0
  186.9280  178.3980  142.4270 C   0  0  0  0  0  2  0  0  0  0  0  0
  189.0490  177.2000  140.9170 N   0  0  0  0  0  2  0  0  0  0  0  0
  187.0170  178.7470  140.9400 C   0  0  2  0  0  3  0  0  0  0  0  0
  188.9740  176.9790  142.3550 C   0  0  0  0  0  2  0  0  0  0  0  0
  188.2160  178.1020  138.5830 S   0  0  0  0  0  0  0  0  0  0  0  0
  188.3090  178.1830  143.0360 C   0  0  2  0  0  3  0  0  0  0  0  0
  188.9870  178.1900  147.1900 O   0  0  0  0  0  0  0  0  0  0  0  0
  186.8150  177.5760  146.3970 C   0  0  0  0  0  2  0  0  0  0  0  0
  189.3620  177.0290  146.4910 C   0  0  1  0  0  3  0  0  0  0  0  0
  188.0460  177.1360  147.2030 C   0  0  1  0  0  3  0  0  0  0  0  0
  189.3530  177.2620  144.9680 C   0  0  0  0  0  2  0  0  0  0  0  0
  188.2210  178.0610  144.4990 N   0  0  2  0  0  0  0  0  0  0  0  0
  186.9930  177.3860  144.9050 C   0  0  0  0  0  2  0  0  0  0  0  0
  187.9710  173.5610  136.4650 C   0  0  0  0  0  0  0  0  0  0  0  0
  189.0660  173.4780  135.7580 C   0  0  0  0  0  3  0  0  0  0  0  0
  186.8670  173.6660  137.1640 C   0  0  0  0  0  3  0  0  0  0  0  0
  189.2400  175.9710  135.8110 C   0  0  0  0  0  1  0  0  0  0  0  0
  189.6290  174.6890  135.0840 C   0  0  1  0  0  3  0  0  0  0  0  0
  191.1450  174.5920  134.9160 C   0  0  0  0  0  2  0  0  0  0  0  0
  191.7940  173.6680  135.9410 C   0  0  2  0  0  3  0  0  0  0  0  0
  193.0270  176.1340  136.6920 O   0  0  0  0  0  0  0  0  0  0  0  0
  192.4980  174.6440  137.3030 P   0  0  1  0  0  0  0  0  0  0  0  0
  191.4310  174.8810  138.3490 O   0  0  0  0  0  1  0  0  0  0  0  0
  194.9410  174.5440  137.6450 C   0  0  0  0  0  1  0  0  0  0  0  0
  193.8050  173.8030  137.9840 O   0  0  0  0  0  0  0  0  0  0  0  0
  192.8470  172.8300  135.2910 C   0  0  0  0  0  0  0  0  0  0  0  0
  192.8410  171.4470  135.4360 O   0  0  0  0  0  1  0  0  0  0  0  0
  193.7430  173.3810  134.6000 O   0  0  0  0  0  0  0  0  0  0  0  0
  1 13  2  0  0  0  0
  2 17  2  0  0  0  0
  3  2  2  0  0  0  0
  3 40  1  0  0  0  0
  4  7  1  6  0  0  0
  5  8  1  0  0  0  0
  5 16  1  1  0  0  0
  5 14  1  0  0  0  0
  6  9  1  0  0  0  0
  6 15  1  6  0  0  0
  8  4  1  0  0  0  0
  8  6  1  0  0  0  0
 10 17  1  0  0  0  0
 11  1  1  0  0  0  0
 11  3  1  0  0  0  0
 12 10  1  0  0  0  0
 12 14  1  0  0  0  0
 13 15  2  0  0  0  0
 14  9  1  0  0  0  0
 15 22  1  0  0  0  0
 16  4  1  0  0  0  0
 17  9  1  0  0  0  0
 18 23  2  0  0  0  0
 19 22  1  0  0  0  0
 19 20  2  0  0  0  0
 20 23  1  0  0  0  0
 21 19  1  0  0  0  0
 22 18  1  0  0  0  0
 23 27  1  0  0  0  0
 24 26  1  0  0  0  0
 24 27  1  0  0  0  0
 25 30  1  0  0  0  0
 26 28  1  0  0  0  0
 27 25  1  0  0  0  0
 28 30  1  0  0  0  0
 29 24  2  0  0  0  0
 30 36  1  0  0  0  0
 31 34  1  0  0  0  0
 32 34  1  0  0  0  0
 33 31  1  0  0  0  0
 33 34  1  0  0  0  0
 35 33  1  0  0  0  0
 36 37  1  0  0  0  0
 36 35  1  0  0  0  0
 37 32  1  0  0  0  0
 38 40  2  0  0  0  0
 39 38  2  0  0  0  0
 42 39  1  0  0  0  0
 42 41  1  0  0  0  0
 43 42  1  0  0  0  0
 43 44  1  0  0  0  0
 44 46  1  0  0  0  0
 45 46  2  0  0  0  0
 46 49  1  0  0  0  0
 46 47  1  0  0  0  0
 48 49  1  0  0  0  0
 50 51  1  0  0  0  0
 50 44  1  0  0  0  0
 52 50  2  0  0  0  0
M  END
>  <MODEL>
8

>  <REMARK>
 VINA RESULT:      -6.7      3.836      7.928
  Name = 
  10 active torsions:
  status: ('A' for Active; 'I' for Inactive)
    1  A    between atoms: C_8  and  C_33
    2  A    between atoms: C_9  and  C_35
    3  A    between atoms: P_23  and  C_35
    4  A    between atoms: P_23  and  O_49
    5  A    between atoms: C_25  and  C_30
    6  A    between atoms: C_25  and  C_45
    7  A    between atoms: C_28  and  C_43
    8  A    between atoms: C_35  and  C_45
    9  A    between atoms: C_36  and  C_44
   10  A    between atoms: C_46  and  N_48
                            x       y       z     vdW  Elec       q    Type
                         _______ _______ _______ _____ _____    ______ ____

>  <TORSDO>
F 10

$$$$
=
 OpenBabel11032419593D

 52 59  0  0  1  0  0  0  0  0999 V2000
  186.7750  179.3740  141.6710 C   0  0  0  0  0  3  0  0  0  0  0  0
  185.8670  177.9850  144.2480 C   0  0  0  0  0  0  0  0  0  0  0  0
  185.1320  178.6490  143.3840 C   0  0  0  0  0  0  0  0  0  0  0  0
  191.1930  178.2860  144.4780 C   0  0  2  0  0  3  0  0  0  0  0  0
  189.6110  178.6130  145.9000 C   0  0  1  0  0  3  0  0  0  0  0  0
  188.9220  177.5070  143.8810 C   0  0  1  0  0  3  0  0  0  0  0  0
  191.9990  179.3770  144.1540 O   0  0  0  0  0  1  0  0  0  0  0  0
  189.7320  178.6880  144.3760 C   0  0  2  0  0  3  0  0  0  0  0  0
  188.0110  177.1310  144.9600 N   0  0  0  0  0  0  0  0  0  0  0  0
  186.2630  177.5020  146.5520 C   0  0  0  0  0  2  0  0  0  0  0  0
  185.7410  179.8160  142.6630 C   0  0  0  0  0  2  0  0  0  0  0  0
  187.5920  177.8680  147.1950 C   0  0  0  0  0  2  0  0  0  0  0  0
  187.6530  178.4800  142.0280 C   0  0  0  0  0  0  0  0  0  0  0  0
  188.6760  177.4390  146.2090 C   0  0  2  0  0  3  0  0  0  0  0  0
  188.4320  177.5230  142.4630 C   0  0  0  0  0  0  0  0  0  0  0  0
  191.0650  178.1840  145.9890 C   0  0  0  0  0  2  0  0  0  0  0  0
  186.6040  177.3540  145.1220 C   0  0  0  0  0  0  0  0  0  0  0  0
  189.1140  176.9030  140.2040 N   0  0  0  0  0  0  0  0  0  0  0  0
  190.2190  175.8850  141.9310 C   0  0  0  0  0  0  0  0  0  0  0  0
  191.0760  176.0300  140.9790 N   0  0  0  0  0  0  0  0  0  0  0  0
  190.5470  175.2100  143.2170 C   0  0  0  0  0  1  0  0  0  0  0  0
  188.8730  176.4100  141.5550 C   0  0  1  0  0  3  0  0  0  0  0  0
  190.3520  176.6580  139.9270 C   0  0  0  0  0  0  0  0  0  0  0  0
  190.0680  176.8340  137.4570 C   0  0  0  0  0  0  0  0  0  0  0  0
  192.3360  176.3860  138.4990 C   0  0  0  0  0  2  0  0  0  0  0  0
  190.6140  176.3910  136.2080 N   0  0  0  0  0  2  0  0  0  0  0  0
  190.9810  177.0820  138.6380 C   0  0  2  0  0  3  0  0  0  0  0  0
  191.9530  175.8260  136.1030 C   0  0  0  0  0  2  0  0  0  0  0  0
  188.5580  177.4680  137.4600 S   0  0  0  0  0  0  0  0  0  0  0  0
  192.8960  176.5280  137.0890 C   0  0  2  0  0  3  0  0  0  0  0  0
  197.0230  176.0030  136.4450 O   0  0  0  0  0  0  0  0  0  0  0  0
  195.8530  174.3440  137.7110 C   0  0  0  0  0  2  0  0  0  0  0  0
  196.1630  175.5580  135.4250 C   0  0  1  0  0  3  0  0  0  0  0  0
  196.7070  174.6260  136.4660 C   0  0  1  0  0  3  0  0  0  0  0  0
  194.7270  176.0760  135.6350 C   0  0  0  0  0  2  0  0  0  0  0  0
  194.2840  176.0420  137.0270 N   0  0  2  0  0  0  0  0  0  0  0  0
  194.3880  174.6660  137.5010 C   0  0  0  0  0  2  0  0  0  0  0  0
  183.1370  178.6280  141.9680 C   0  0  0  0  0  0  0  0  0  0  0  0
  182.5490  179.0060  140.8650 C   0  0  0  0  0  3  0  0  0  0  0  0
  183.7480  178.2510  143.0650 C   0  0  0  0  0  3  0  0  0  0  0  0
  183.4700  177.6280  138.9930 C   0  0  0  0  0  1  0  0  0  0  0  0
  183.3030  179.0280  139.5720 C   0  0  1  0  0  3  0  0  0  0  0  0
  182.6560  179.9680  138.5550 C   0  0  0  0  0  2  0  0  0  0  0  0
  181.1450  180.0800  138.7320 C   0  0  2  0  0  3  0  0  0  0  0  0
  179.1430  180.2100  136.6970 O   0  0  0  0  0  1  0  0  0  0  0  0
  180.2940  179.1830  137.3990 P   0  0  1  0  0  0  0  0  0  0  0  0
  181.3050  178.7710  136.3520 O   0  0  0  0  0  0  0  0  0  0  0  0
  179.2840  178.1140  139.3830 C   0  0  0  0  0  1  0  0  0  0  0  0
  179.5280  177.8110  138.0410 O   0  0  0  0  0  0  0  0  0  0  0  0
  180.7290  181.5140  138.7530 C   0  0  0  0  0  0  0  0  0  0  0  0
  181.3810  182.4530  137.9610 O   0  0  0  0  0  0  0  0  0  0  0  0
  179.7730  181.8750  139.4900 O   0  0  0  0  0  1  0  0  0  0  0  0
  1 13  2  0  0  0  0
  1 11  1  0  0  0  0
  2 17  2  0  0  0  0
  3  2  2  0  0  0  0
  4  7  1  1  0  0  0
  4 16  1  0  0  0  0
  5 16  1  1  0  0  0
  5 14  1  0  0  0  0
  6 15  1  6  0  0  0
  6  8  1  0  0  0  0
  6  9  1  0  0  0  0
  8  4  1  0  0  0  0
  8  5  1  0  0  0  0
  9 17  1  0  0  0  0
  9 14  1  0  0  0  0
 10 12  1  0  0  0  0
 11  3  1  0  0  0  0
 13 15  2  0  0  0  0
 14 12  1  0  0  0  0
 17 10  1  0  0  0  0
 18 22  1  0  0  0  0
 19 21  1  0  0  0  0
 20 19  2  0  0  0  0
 22 19  1  0  0  0  0
 22 15  1  0  0  0  0
 23 18  2  0  0  0  0
 23 20  1  0  0  0  0
 24 29  2  0  0  0  0
 24 27  1  0  0  0  0
 25 27  1  0  0  0  0
 26 24  1  0  0  0  0
 27 23  1  0  0  0  0
 28 26  1  0  0  0  0
 28 30  1  0  0  0  0
 30 25  1  0  0  0  0
 31 34  1  0  0  0  0
 33 35  1  0  0  0  0
 33 31  1  0  0  0  0
 33 34  1  0  0  0  0
 34 32  1  0  0  0  0
 35 36  1  0  0  0  0
 36 30  1  0  0  0  0
 36 37  1  0  0  0  0
 37 32  1  0  0  0  0
 38 40  2  0  0  0  0
 39 38  2  0  0  0  0
 40  3  1  0  0  0  0
 41 42  1  0  0  0  0
 42 39  1  0  0  0  0
 43 44  1  0  0  0  0
 43 42  1  0  0  0  0
 44 50  1  0  0  0  0
 45 46  1  0  0  0  0
 46 49  1  0  0  0  0
 46 44  1  0  0  0  0
 47 46  2  0  0  0  0
 49 48  1  0  0  0  0
 50 52  1  0  0  0  0
 51 50  2  0  0  0  0
M  END
>  <MODEL>
9

>  <REMARK>
 VINA RESULT:      -6.4      4.536     11.317
  Name = 
  10 active torsions:
  status: ('A' for Active; 'I' for Inactive)
    1  A    between atoms: C_8  and  C_33
    2  A    between atoms: C_9  and  C_35
    3  A    between atoms: P_23  and  C_35
    4  A    between atoms: P_23  and  O_49
    5  A    between atoms: C_25  and  C_30
    6  A    between atoms: C_25  and  C_45
    7  A    between atoms: C_28  and  C_43
    8  A    between atoms: C_35  and  C_45
    9  A    between atoms: C_36  and  C_44
   10  A    between atoms: C_46  and  N_48
                            x       y       z     vdW  Elec       q    Type
                         _______ _______ _______ _____ _____    ______ ____

>  <TORSDO>
F 10

$$$$
