=
 OpenBabel11032419083D

 42 47  0  0  1  0  0  0  0  0999 V2000
  185.0750  178.4250  140.3610 C   0  0  0  0  0  0  0  0  0  0  0  0
  186.8650  177.9600  138.1880 C   0  0  0  0  0  0  0  0  0  0  0  0
  185.4610  177.8690  137.9410 C   0  0  1  0  0  3  0  0  0  0  0  0
  184.1530  178.6550  141.5200 C   0  0  0  0  0  1  0  0  0  0  0  0
  186.4270  178.4990  140.5310 C   0  0  0  0  0  0  0  0  0  0  0  0
  186.5700  177.4730  136.0270 N   0  0  0  0  0  0  0  0  0  0  0  0
  184.5000  178.1080  139.0180 C   0  0  0  0  0  0  0  0  0  0  0  0
  185.2870  177.5860  136.6600 C   0  0  0  0  0  3  0  0  0  0  0  0
  182.9080  178.0850  138.7380 S   0  0  0  0  0  0  0  0  0  0  0  0
  187.4990  177.6910  136.9080 C   0  0  0  0  0  3  0  0  0  0  0  0
  187.3710  178.2550  139.3880 C   0  0  0  0  0  0  0  0  0  0  0  0
  183.2750  180.8060  138.9760 N   0  0  0  0  0  0  0  0  0  0  0  0
  181.4130  180.2710  137.8300 C   0  0  0  0  0  3  0  0  0  0  0  0
  181.5840  181.6380  137.9260 C   0  0  0  0  0  0  0  0  0  0  0  0
  182.7030  181.9400  138.6130 N   0  0  0  0  0  2  0  0  0  0  0  0
  182.5130  179.7980  138.5170 C   0  0  0  0  0  0  0  0  0  0  0  0
  179.3130  184.5640  136.0020 N   0  0  0  0  0  2  0  0  0  0  0  0
  180.6890  184.9660  136.2790 C   0  0  0  0  0  2  0  0  0  0  0  0
  179.3250  183.2940  135.2690 C   0  0  0  0  0  2  0  0  0  0  0  0
  180.2120  182.2250  135.9370 C   0  0  0  0  0  2  0  0  0  0  0  0
  181.3240  184.0350  137.3180 C   0  0  0  0  0  2  0  0  0  0  0  0
  180.6650  182.6510  137.3340 C   0  0  0  0  0  3  0  0  0  0  0  0
  188.8540  178.3490  139.5710 C   0  0  0  0  0  2  0  0  0  0  0  0
  189.4770  176.9670  139.7180 C   0  0  0  0  0  2  0  0  0  0  0  0
  190.8910  177.0010  139.3510 N   0  0  0  0  0  2  0  0  0  0  0  0
  190.3010  175.1460  137.9210 N   0  0  0  0  0  2  0  0  0  0  0  0
  192.5750  174.5170  137.5240 C   0  0  0  0  0  2  0  0  0  0  0  0
  192.5750  175.9900  137.8380 C   0  0  0  0  0  2  0  0  0  0  0  0
  191.1340  174.1840  137.2160 C   0  0  0  0  0  2  0  0  0  0  0  0
  191.1140  176.3500  138.0550 C   0  0  2  0  0  3  0  0  0  0  0  0
  187.0060  178.7860  141.8850 C   0  0  0  0  0  2  0  0  0  0  0  0
  186.8710  177.6160  142.7360 N   0  0  0  0  0  2  0  0  0  0  0  0
  188.3970  177.3430  143.5130 S   0  0  0  0  0  0  0  0  0  0  0  0
  188.8650  175.9460  143.2140 O   0  0  0  0  0  0  0  0  0  0  0  0
  189.3970  178.3260  142.9750 O   0  0  0  0  0  0  0  0  0  0  0  0
  189.1860  177.6040  147.4950 C   0  0  0  0  0  3  0  0  0  0  0  0
  190.6250  177.0340  145.6170 N   0  0  0  0  0  1  0  0  0  0  0  0
  188.2440  177.5710  145.2550 C   0  0  0  0  0  0  0  0  0  0  0  0
  189.3430  177.4010  146.1190 C   0  0  0  0  0  0  0  0  0  0  0  0
  187.0080  177.9580  145.7850 C   0  0  0  0  0  3  0  0  0  0  0  0
  187.9450  177.9800  148.0150 C   0  0  0  0  0  3  0  0  0  0  0  0
  186.8560  178.1580  147.1600 C   0  0  0  0  0  3  0  0  0  0  0  0
  1  5  1  0  0  0  0
  1  4  1  0  0  0  0
  2 11  1  0  0  0  0
  3  8  1  6  0  0  0
  3  2  1  0  0  0  0
  3  7  1  0  0  0  0
  5 31  1  0  0  0  0
  6  8  2  0  0  0  0
  6 10  1  0  0  0  0
  7  1  2  0  0  0  0
  9  7  1  0  0  0  0
 10  2  2  0  0  0  0
 11 23  1  0  0  0  0
 11  5  2  0  0  0  0
 13 14  2  0  0  0  0
 13 16  1  0  0  0  0
 14 15  1  0  0  0  0
 15 12  1  0  0  0  0
 16  9  1  0  0  0  0
 16 12  2  0  0  0  0
 17 18  1  0  0  0  0
 18 21  1  0  0  0  0
 19 20  1  0  0  0  0
 19 17  1  0  0  0  0
 20 22  1  0  0  0  0
 21 22  1  0  0  0  0
 22 14  1  0  0  0  0
 23 24  1  0  0  0  0
 25 24  1  0  0  0  0
 26 30  1  0  0  0  0
 27 28  1  0  0  0  0
 28 30  1  0  0  0  0
 29 27  1  0  0  0  0
 29 26  1  0  0  0  0
 30 25  1  1  0  0  0
 31 32  1  0  0  0  0
 32 33  1  0  0  0  0
 33 38  1  0  0  0  0
 34 33  2  0  0  0  0
 35 33  2  0  0  0  0
 36 41  1  0  0  0  0
 37 39  1  0  0  0  0
 38 40  2  0  0  0  0
 38 39  1  0  0  0  0
 39 36  2  0  0  0  0
 40 42  1  0  0  0  0
 42 41  2  0  0  0  0
M  END
>  <MODEL>
1

>  <REMARK>
 VINA RESULT:      -8.9      0.000      0.000
  Name = 
  10 active torsions:
  status: ('A' for Active; 'I' for Inactive)
    1  A    between atoms: C_1  and  C_10
    2  A    between atoms: C_1  and  N_16
    3  A    between atoms: S_8  and  C_11
    4  A    between atoms: S_8  and  N_30
    5  A    between atoms: C_10  and  C_37
    6  A    between atoms: N_16  and  C_33
    7  A    between atoms: C_19  and  C_36
    8  A    between atoms: C_22  and  C_23
    9  A    between atoms: C_22  and  N_30
   10  A    between atoms: S_34  and  C_38
                            x       y       z     vdW  Elec       q    Type
                         _______ _______ _______ _____ _____    ______ ____

>  <TORSDO>
F 10

$$$$
=
 OpenBabel11032419083D

 42 47  0  0  1  0  0  0  0  0999 V2000
  187.3800  178.1280  139.4670 C   0  0  0  0  0  0  0  0  0  0  0  0
  184.6600  178.8690  139.9080 C   0  0  0  0  0  0  0  0  0  0  0  0
  185.0600  178.5160  138.5830 C   0  0  0  0  0  0  0  0  0  0  0  0
  188.8180  177.7600  139.2530 C   0  0  0  0  0  1  0  0  0  0  0  0
  186.9350  178.4740  140.7100 C   0  0  0  0  0  0  0  0  0  0  0  0
  182.8690  179.0180  138.5800 N   0  0  0  0  0  0  0  0  0  0  0  0
  186.4410  178.1200  138.3050 C   0  0  0  0  0  0  0  0  0  0  0  0
  183.9980  178.6000  137.7980 C   0  0  0  0  0  3  0  0  0  0  0  0
  186.8910  177.6440  136.8260 S   0  0  0  0  0  0  0  0  0  0  0  0
  183.2430  179.1770  139.8140 C   0  0  0  0  0  2  0  0  0  0  0  0
  185.5030  178.8640  140.9440 C   0  0  0  0  0  0  0  0  0  0  0  0
  187.8620  175.0890  137.1760 N   0  0  0  0  0  0  0  0  0  0  0  0
  185.6440  175.1370  136.7970 C   0  0  0  0  0  3  0  0  0  0  0  0
  186.1070  173.8500  136.9820 C   0  0  0  0  0  0  0  0  0  0  0  0
  187.4350  173.8400  137.2080 N   0  0  0  0  0  2  0  0  0  0  0  0
  186.8020  175.8770  136.9270 C   0  0  0  0  0  0  0  0  0  0  0  0
  183.4640  170.6360  136.6490 N   0  0  0  0  0  2  0  0  0  0  0  0
  182.8090  171.9260  136.8520 C   0  0  0  0  0  2  0  0  0  0  0  0
  184.3700  170.7370  135.5000 C   0  0  0  0  0  2  0  0  0  0  0  0
  185.3080  171.9570  135.5810 C   0  0  0  0  0  2  0  0  0  0  0  0
  183.8140  172.9660  137.3620 C   0  0  0  0  0  2  0  0  0  0  0  0
  185.2520  172.6290  136.9540 C   0  0  0  0  0  3  0  0  0  0  0  0
  185.0110  179.2300  142.3100 C   0  0  0  0  0  2  0  0  0  0  0  0
  183.8440  178.3450  142.7270 C   0  0  0  0  0  2  0  0  0  0  0  0
  182.8630  179.1160  143.4870 N   0  0  0  0  0  2  0  0  0  0  0  0
  180.8620  180.0810  142.5400 N   0  0  0  0  0  2  0  0  0  0  0  0
  179.4180  179.1030  144.1780 C   0  0  0  0  0  2  0  0  0  0  0  0
  180.6290  178.2130  144.0730 C   0  0  0  0  0  2  0  0  0  0  0  0
  179.4690  179.9790  142.9480 C   0  0  0  0  0  2  0  0  0  0  0  0
  181.5020  178.8560  143.0060 C   0  0  2  0  0  3  0  0  0  0  0  0
  187.8840  178.5120  141.8710 C   0  0  0  0  0  2  0  0  0  0  0  0
  187.9660  177.1970  142.4830 N   0  0  0  0  0  2  0  0  0  0  0  0
  189.4110  177.1420  143.4390 S   0  0  0  0  0  0  0  0  0  0  0  0
  190.1230  175.8420  143.1900 O   0  0  0  0  0  0  0  0  0  0  0  0
  190.3030  178.2810  143.0340 O   0  0  0  0  0  0  0  0  0  0  0  0
  189.6450  177.2660  147.4990 C   0  0  0  0  0  3  0  0  0  0  0  0
  191.3400  176.8020  145.8150 N   0  0  0  0  0  1  0  0  0  0  0  0
  189.0170  177.2980  145.1510 C   0  0  0  0  0  0  0  0  0  0  0  0
  189.9930  177.1200  146.1510 C   0  0  0  0  0  0  0  0  0  0  0  0
  187.7090  177.6370  145.5200 C   0  0  0  0  0  3  0  0  0  0  0  0
  188.3350  177.5930  147.8570 C   0  0  0  0  0  3  0  0  0  0  0  0
  187.3670  177.7800  146.8680 C   0  0  0  0  0  3  0  0  0  0  0  0
  1  5  1  0  0  0  0
  2 11  1  0  0  0  0
  3  2  2  0  0  0  0
  4  1  1  0  0  0  0
  5 11  2  0  0  0  0
  5 31  1  0  0  0  0
  6 10  1  0  0  0  0
  7  3  1  0  0  0  0
  7  1  2  0  0  0  0
  8  6  2  0  0  0  0
  8  3  1  0  0  0  0
  9 16  1  0  0  0  0
  9  7  1  0  0  0  0
 10  2  1  0  0  0  0
 11 23  1  0  0  0  0
 12 15  1  0  0  0  0
 13 16  1  0  0  0  0
 13 14  2  0  0  0  0
 14 15  1  0  0  0  0
 16 12  2  0  0  0  0
 17 18  1  0  0  0  0
 18 21  1  0  0  0  0
 19 20  1  0  0  0  0
 19 17  1  0  0  0  0
 20 22  1  0  0  0  0
 22 14  1  0  0  0  0
 22 21  1  0  0  0  0
 23 24  1  0  0  0  0
 24 25  1  0  0  0  0
 26 29  1  0  0  0  0
 26 30  1  0  0  0  0
 28 27  1  0  0  0  0
 29 27  1  0  0  0  0
 30 25  1  1  0  0  0
 30 28  1  0  0  0  0
 31 32  1  0  0  0  0
 32 33  1  0  0  0  0
 33 38  1  0  0  0  0
 34 33  2  0  0  0  0
 35 33  2  0  0  0  0
 36 41  1  0  0  0  0
 37 39  1  0  0  0  0
 38 40  2  0  0  0  0
 38 39  1  0  0  0  0
 39 36  2  0  0  0  0
 40 42  1  0  0  0  0
 42 41  2  0  0  0  0
M  END
>  <MODEL>
2

>  <REMARK>
 VINA RESULT:      -8.7      3.207      7.619
  Name = 
  10 active torsions:
  status: ('A' for Active; 'I' for Inactive)
    1  A    between atoms: C_1  and  C_10
    2  A    between atoms: C_1  and  N_16
    3  A    between atoms: S_8  and  C_11
    4  A    between atoms: S_8  and  N_30
    5  A    between atoms: C_10  and  C_37
    6  A    between atoms: N_16  and  C_33
    7  A    between atoms: C_19  and  C_36
    8  A    between atoms: C_22  and  C_23
    9  A    between atoms: C_22  and  N_30
   10  A    between atoms: S_34  and  C_38
                            x       y       z     vdW  Elec       q    Type
                         _______ _______ _______ _____ _____    ______ ____

>  <TORSDO>
F 10

$$$$
=
 OpenBabel11032419083D

 42 47  0  0  1  0  0  0  0  0999 V2000
  187.0750  177.3280  137.8490 C   0  0  0  0  0  0  0  0  0  0  0  0
  188.9350  175.2370  137.2950 C   0  0  0  0  0  0  0  0  0  0  0  0
  189.3490  176.3020  138.1510 C   0  0  0  0  0  0  0  0  0  0  0  0
  186.0890  178.4270  138.1120 C   0  0  0  0  0  1  0  0  0  0  0  0
  186.7400  176.2810  137.0410 C   0  0  0  0  0  0  0  0  0  0  0  0
  191.0320  174.8270  137.9480 N   0  0  0  0  0  0  0  0  0  0  0  0
  188.4300  177.3940  138.4740 C   0  0  2  0  0  3  0  0  0  0  0  0
  190.5890  176.0570  138.5410 C   0  0  0  0  0  3  0  0  0  0  0  0
  188.8580  178.5680  139.5020 S   0  0  0  0  0  0  0  0  0  0  0  0
  190.0740  174.3380  137.2190 C   0  0  0  0  0  3  0  0  0  0  0  0
  187.7170  175.1790  136.7480 C   0  0  0  0  0  0  0  0  0  0  0  0
  188.6800  177.0460  141.7920 N   0  0  0  0  0  0  0  0  0  0  0  0
  187.0420  178.5820  141.6340 C   0  0  0  0  0  3  0  0  0  0  0  0
  186.9420  177.8390  142.7930 C   0  0  0  0  0  0  0  0  0  0  0  0
  187.9300  176.9270  142.8730 N   0  0  0  0  0  2  0  0  0  0  0  0
  188.1600  178.0300  141.0390 C   0  0  0  0  0  0  0  0  0  0  0  0
  184.1920  178.7230  145.8080 N   0  0  0  0  0  2  0  0  0  0  0  0
  185.5860  178.9260  146.1950 C   0  0  0  0  0  2  0  0  0  0  0  0
  183.9280  179.4690  144.5720 C   0  0  0  0  0  2  0  0  0  0  0  0
  184.9740  179.1990  143.4730 C   0  0  0  0  0  2  0  0  0  0  0  0
  186.5270  178.2140  145.2170 C   0  0  0  0  0  2  0  0  0  0  0  0
  185.8920  178.0300  143.8340 C   0  0  0  0  0  3  0  0  0  0  0  0
  187.3450  174.0220  135.8730 C   0  0  0  0  0  2  0  0  0  0  0  0
  186.8600  172.8410  136.7020 C   0  0  0  0  0  2  0  0  0  0  0  0
  186.4740  171.7300  135.8350 N   0  0  0  0  0  2  0  0  0  0  0  0
  184.3080  172.0700  136.8490 N   0  0  0  0  0  2  0  0  0  0  0  0
  183.4630  169.9450  136.1440 C   0  0  0  0  0  2  0  0  0  0  0  0
  184.5340  170.3400  135.1610 C   0  0  0  0  0  2  0  0  0  0  0  0
  183.1310  171.2150  136.8900 C   0  0  0  0  0  2  0  0  0  0  0  0
  185.0220  171.7020  135.6300 C   0  0  2  0  0  3  0  0  0  0  0  0
  185.3900  176.2300  136.3870 C   0  0  0  0  0  2  0  0  0  0  0  0
  184.4370  175.5880  137.2780 N   0  0  0  0  0  2  0  0  0  0  0  0
  182.8970  176.3500  137.0490 S   0  0  0  0  0  0  0  0  0  0  0  0
  182.9800  177.3000  135.8870 O   0  0  0  0  0  0  0  0  0  0  0  0
  181.8720  175.2920  136.7530 O   0  0  0  0  0  0  0  0  0  0  0  0
  180.8690  178.6120  139.7560 C   0  0  0  0  0  3  0  0  0  0  0  0
  180.3360  178.0100  137.4590 N   0  0  0  0  0  1  0  0  0  0  0  0
  182.4230  177.2190  138.5090 C   0  0  0  0  0  0  0  0  0  0  0  0
  181.2180  177.9460  138.5750 C   0  0  0  0  0  0  0  0  0  0  0  0
  183.2500  177.1580  139.6370 C   0  0  0  0  0  3  0  0  0  0  0  0
  181.7080  178.5530  140.8710 C   0  0  0  0  0  3  0  0  0  0  0  0
  182.8980  177.8250  140.8130 C   0  0  0  0  0  3  0  0  0  0  0  0
  1  4  1  0  0  0  0
  1  7  1  0  0  0  0
  2  3  1  0  0  0  0
  3  7  1  0  0  0  0
  3  8  2  0  0  0  0
  5  1  2  0  0  0  0
  6  8  1  0  0  0  0
  7  9  1  1  0  0  0
  9 16  1  0  0  0  0
 10  2  1  0  0  0  0
 10  6  2  0  0  0  0
 11  5  1  0  0  0  0
 11  2  2  0  0  0  0
 12 15  1  0  0  0  0
 13 14  2  0  0  0  0
 14 15  1  0  0  0  0
 14 22  1  0  0  0  0
 16 13  1  0  0  0  0
 16 12  2  0  0  0  0
 17 18  1  0  0  0  0
 19 17  1  0  0  0  0
 20 22  1  0  0  0  0
 20 19  1  0  0  0  0
 21 18  1  0  0  0  0
 22 21  1  0  0  0  0
 23 24  1  0  0  0  0
 23 11  1  0  0  0  0
 25 24  1  0  0  0  0
 26 29  1  0  0  0  0
 27 29  1  0  0  0  0
 28 30  1  0  0  0  0
 28 27  1  0  0  0  0
 30 25  1  1  0  0  0
 30 26  1  0  0  0  0
 31  5  1  0  0  0  0
 31 32  1  0  0  0  0
 33 32  1  0  0  0  0
 33 38  1  0  0  0  0
 34 33  2  0  0  0  0
 35 33  2  0  0  0  0
 36 41  1  0  0  0  0
 37 39  1  0  0  0  0
 38 39  1  0  0  0  0
 38 40  2  0  0  0  0
 39 36  2  0  0  0  0
 40 42  1  0  0  0  0
 42 41  2  0  0  0  0
M  END
>  <MODEL>
3

>  <REMARK>
 VINA RESULT:      -8.4      3.898      8.188
  Name = 
  10 active torsions:
  status: ('A' for Active; 'I' for Inactive)
    1  A    between atoms: C_1  and  C_10
    2  A    between atoms: C_1  and  N_16
    3  A    between atoms: S_8  and  C_11
    4  A    between atoms: S_8  and  N_30
    5  A    between atoms: C_10  and  C_37
    6  A    between atoms: N_16  and  C_33
    7  A    between atoms: C_19  and  C_36
    8  A    between atoms: C_22  and  C_23
    9  A    between atoms: C_22  and  N_30
   10  A    between atoms: S_34  and  C_38
                            x       y       z     vdW  Elec       q    Type
                         _______ _______ _______ _____ _____    ______ ____

>  <TORSDO>
F 10

$$$$
=
 OpenBabel11032419083D

 42 47  0  0  1  0  0  0  0  0999 V2000
  186.3530  177.0390  137.3820 C   0  0  0  0  0  0  0  0  0  0  0  0
  185.7140  174.2750  137.0740 C   0  0  0  0  0  0  0  0  0  0  0  0
  187.0680  174.6840  136.8780 C   0  0  1  0  0  3  0  0  0  0  0  0
  186.6630  178.4990  137.5290 C   0  0  0  0  0  1  0  0  0  0  0  0
  185.0780  176.5850  137.5580 C   0  0  0  0  0  0  0  0  0  0  0  0
  186.9220  172.4600  136.5860 N   0  0  0  0  0  0  0  0  0  0  0  0
  187.4500  176.0880  137.0330 C   0  0  0  0  0  0  0  0  0  0  0  0
  187.7840  173.6080  136.5930 C   0  0  0  0  0  3  0  0  0  0  0  0
  188.9920  176.5540  136.8890 S   0  0  0  0  0  0  0  0  0  0  0  0
  185.7110  172.8370  136.8670 C   0  0  0  0  0  3  0  0  0  0  0  0
  184.7390  175.1300  137.3970 C   0  0  0  0  0  0  0  0  0  0  0  0
  190.6670  175.9920  139.0040 N   0  0  0  0  0  0  0  0  0  0  0  0
  188.9360  177.3080  139.5850 C   0  0  0  0  0  3  0  0  0  0  0  0
  189.7680  177.0490  140.6550 C   0  0  0  0  0  0  0  0  0  0  0  0
  190.7990  176.2630  140.2900 N   0  0  0  0  0  2  0  0  0  0  0  0
  189.5550  176.6080  138.5680 C   0  0  0  0  0  0  0  0  0  0  0  0
  189.3350  178.1760  144.6510 N   0  0  0  0  0  2  0  0  0  0  0  0
  188.8030  176.8510  144.3460 C   0  0  0  0  0  2  0  0  0  0  0  0
  190.7280  178.2470  144.1970 C   0  0  0  0  0  2  0  0  0  0  0  0
  190.9100  177.7730  142.7430 C   0  0  0  0  0  2  0  0  0  0  0  0
  188.6270  176.6760  142.8330 C   0  0  0  0  0  2  0  0  0  0  0  0
  189.5690  177.5830  142.0330 C   0  0  0  0  0  3  0  0  0  0  0  0
  183.3440  174.6290  137.6050 C   0  0  0  0  0  2  0  0  0  0  0  0
  182.5350  174.7130  136.3170 C   0  0  0  0  0  2  0  0  0  0  0  0
  181.1050  174.7630  136.6130 N   0  0  0  0  0  2  0  0  0  0  0  0
  180.0490  173.6660  138.4870 N   0  0  0  0  0  2  0  0  0  0  0  0
  178.9670  175.6580  139.2530 C   0  0  0  0  0  2  0  0  0  0  0  0
  180.2000  176.0890  138.5030 C   0  0  0  0  0  2  0  0  0  0  0  0
  179.1690  174.1860  139.5230 C   0  0  0  0  0  2  0  0  0  0  0  0
  180.8670  174.7960  138.0600 C   0  0  2  0  0  3  0  0  0  0  0  0
  183.9690  177.5440  137.8780 C   0  0  0  0  0  2  0  0  0  0  0  0
  183.5360  177.3530  139.2520 N   0  0  0  0  0  2  0  0  0  0  0  0
  183.3320  178.9190  139.9690 S   0  0  0  0  0  0  0  0  0  0  0  0
  184.2360  179.9020  139.2800 O   0  0  0  0  0  0  0  0  0  0  0  0
  181.9040  179.3510  139.7930 O   0  0  0  0  0  0  0  0  0  0  0  0
  185.2930  178.7440  143.5300 C   0  0  0  0  0  3  0  0  0  0  0  0
  186.1300  178.7480  141.2450 N   0  0  0  0  0  1  0  0  0  0  0  0
  183.7070  178.8550  141.6920 C   0  0  0  0  0  0  0  0  0  0  0  0
  185.0340  178.7790  142.1550 C   0  0  0  0  0  0  0  0  0  0  0  0
  182.6590  178.9110  142.6180 C   0  0  0  0  0  3  0  0  0  0  0  0
  184.2390  178.7890  144.4460 C   0  0  0  0  0  3  0  0  0  0  0  0
  182.9210  178.8740  143.9900 C   0  0  0  0  0  3  0  0  0  0  0  0
  1  4  1  0  0  0  0
  1  5  1  0  0  0  0
  2 11  1  0  0  0  0
  3  8  1  1  0  0  0
  3  7  1  0  0  0  0
  3  2  1  0  0  0  0
  5 31  1  0  0  0  0
  6  8  2  0  0  0  0
  6 10  1  0  0  0  0
  7  1  2  0  0  0  0
  9  7  1  0  0  0  0
  9 16  1  0  0  0  0
 10  2  2  0  0  0  0
 11  5  2  0  0  0  0
 11 23  1  0  0  0  0
 12 15  1  0  0  0  0
 13 14  2  0  0  0  0
 14 22  1  0  0  0  0
 15 14  1  0  0  0  0
 16 12  2  0  0  0  0
 16 13  1  0  0  0  0
 18 17  1  0  0  0  0
 19 17  1  0  0  0  0
 20 19  1  0  0  0  0
 21 18  1  0  0  0  0
 22 20  1  0  0  0  0
 22 21  1  0  0  0  0
 24 25  1  0  0  0  0
 24 23  1  0  0  0  0
 26 29  1  0  0  0  0
 27 29  1  0  0  0  0
 28 27  1  0  0  0  0
 30 25  1  6  0  0  0
 30 26  1  0  0  0  0
 30 28  1  0  0  0  0
 31 32  1  0  0  0  0
 32 33  1  0  0  0  0
 33 38  1  0  0  0  0
 34 33  2  0  0  0  0
 35 33  2  0  0  0  0
 36 41  1  0  0  0  0
 37 39  1  0  0  0  0
 38 39  1  0  0  0  0
 38 40  2  0  0  0  0
 39 36  2  0  0  0  0
 40 42  1  0  0  0  0
 42 41  2  0  0  0  0
M  END
>  <MODEL>
4

>  <REMARK>
 VINA RESULT:      -8.2      4.078      8.586
  Name = 
  10 active torsions:
  status: ('A' for Active; 'I' for Inactive)
    1  A    between atoms: C_1  and  C_10
    2  A    between atoms: C_1  and  N_16
    3  A    between atoms: S_8  and  C_11
    4  A    between atoms: S_8  and  N_30
    5  A    between atoms: C_10  and  C_37
    6  A    between atoms: N_16  and  C_33
    7  A    between atoms: C_19  and  C_36
    8  A    between atoms: C_22  and  C_23
    9  A    between atoms: C_22  and  N_30
   10  A    between atoms: S_34  and  C_38
                            x       y       z     vdW  Elec       q    Type
                         _______ _______ _______ _____ _____    ______ ____

>  <TORSDO>
F 10

$$$$
=
 OpenBabel11032419083D

 42 47  0  0  1  0  0  0  0  0999 V2000
  185.1190  178.8920  140.4590 C   0  0  0  0  0  0  0  0  0  0  0  0
  184.3840  178.7150  143.2110 C   0  0  0  0  0  0  0  0  0  0  0  0
  183.3440  178.8120  142.2360 C   0  0  0  0  0  0  0  0  0  0  0  0
  185.5270  179.0030  139.0210 C   0  0  0  0  0  1  0  0  0  0  0  0
  186.0650  178.7960  141.4380 C   0  0  0  0  0  0  0  0  0  0  0  0
  182.4230  178.6660  144.2810 N   0  0  0  0  0  0  0  0  0  0  0  0
  183.6670  178.8950  140.8120 C   0  0  0  0  0  0  0  0  0  0  0  0
  182.1830  178.7780  142.8700 C   0  0  0  0  0  3  0  0  0  0  0  0
  182.5000  178.9280  139.6920 S   0  0  0  0  0  0  0  0  0  0  0  0
  183.7040  178.6270  144.4920 C   0  0  0  0  0  2  0  0  0  0  0  0
  185.6800  178.7020  142.8870 C   0  0  0  0  0  0  0  0  0  0  0  0
  181.5100  176.3570  139.6960 N   0  0  0  0  0  0  0  0  0  0  0  0
  183.1520  176.6590  138.1870 C   0  0  0  0  0  3  0  0  0  0  0  0
  182.6620  175.3690  138.1630 C   0  0  0  0  0  0  0  0  0  0  0  0
  181.6800  175.2060  139.0710 N   0  0  0  0  0  0  0  0  0  0  0  0
  182.3860  177.2360  139.1800 C   0  0  1  0  0  3  0  0  0  0  0  0
  184.3020  172.6230  135.4810 N   0  0  0  0  0  2  0  0  0  0  0  0
  184.2100  173.9830  134.9570 C   0  0  0  0  0  2  0  0  0  0  0  0
  185.0190  172.6520  136.7610 C   0  0  0  0  0  2  0  0  0  0  0  0
  184.4620  173.7070  137.7360 C   0  0  0  0  0  2  0  0  0  0  0  0
  183.2530  174.8250  135.8090 C   0  0  0  0  0  2  0  0  0  0  0  0
  183.1390  174.2970  137.2440 C   0  0  0  0  0  3  0  0  0  0  0  0
  186.7170  178.5810  143.9610 C   0  0  0  0  0  2  0  0  0  0  0  0
  186.9360  177.1260  144.3500 C   0  0  0  0  0  2  0  0  0  0  0  0
  188.3120  176.7210  144.0670 N   0  0  0  0  0  2  0  0  0  0  0  0
  190.6370  177.0680  144.6220 N   0  0  0  0  0  2  0  0  0  0  0  0
  190.2920  176.7530  146.9690 C   0  0  0  0  0  2  0  0  0  0  0  0
  188.9880  177.2410  146.3950 C   0  0  0  0  0  2  0  0  0  0  0  0
  191.3220  177.0510  145.9060 C   0  0  0  0  0  2  0  0  0  0  0  0
  189.2600  177.4530  144.9140 C   0  0  2  0  0  3  0  0  0  0  0  0
  187.5230  178.8230  141.0880 C   0  0  0  0  0  2  0  0  0  0  0  0
  187.9540  177.4990  140.6710 N   0  0  0  0  0  2  0  0  0  0  0  0
  189.0840  177.6900  139.3710 S   0  0  0  0  0  0  0  0  0  0  0  0
  189.0450  179.1110  138.8830 O   0  0  0  0  0  0  0  0  0  0  0  0
  190.4640  177.3790  139.8790 O   0  0  0  0  0  0  0  0  0  0  0  0
  189.2180  174.6840  136.6320 C   0  0  0  0  0  3  0  0  0  0  0  0
  190.8140  175.3590  138.3420 N   0  0  0  0  0  1  0  0  0  0  0  0
  188.6920  176.5850  138.0540 C   0  0  0  0  0  0  0  0  0  0  0  0
  189.5690  175.5500  137.6740 C   0  0  0  0  0  0  0  0  0  0  0  0
  187.4670  176.7230  137.3910 C   0  0  0  0  0  3  0  0  0  0  0  0
  187.9970  174.8390  135.9710 C   0  0  0  0  0  3  0  0  0  0  0  0
  187.1200  175.8570  136.3510 C   0  0  0  0  0  3  0  0  0  0  0  0
  1  7  2  0  0  0  0
  1  5  1  0  0  0  0
  2 10  1  0  0  0  0
  3  8  1  0  0  0  0
  3  2  2  0  0  0  0
  4  1  1  0  0  0  0
  5 11  2  0  0  0  0
  6 10  1  0  0  0  0
  7  3  1  0  0  0  0
  8  6  2  0  0  0  0
  9  7  1  0  0  0  0
 11  2  1  0  0  0  0
 11 23  1  0  0  0  0
 13 16  1  0  0  0  0
 14 13  2  0  0  0  0
 14 15  1  0  0  0  0
 15 12  2  0  0  0  0
 16  9  1  6  0  0  0
 16 12  1  0  0  0  0
 17 19  1  0  0  0  0
 18 17  1  0  0  0  0
 18 21  1  0  0  0  0
 19 20  1  0  0  0  0
 21 22  1  0  0  0  0
 22 20  1  0  0  0  0
 22 14  1  0  0  0  0
 23 24  1  0  0  0  0
 25 24  1  0  0  0  0
 26 30  1  0  0  0  0
 26 29  1  0  0  0  0
 28 27  1  0  0  0  0
 29 27  1  0  0  0  0
 30 25  1  6  0  0  0
 30 28  1  0  0  0  0
 31  5  1  0  0  0  0
 32 31  1  0  0  0  0
 33 35  2  0  0  0  0
 33 32  1  0  0  0  0
 34 33  2  0  0  0  0
 36 39  1  0  0  0  0
 38 33  1  0  0  0  0
 39 38  2  0  0  0  0
 39 37  1  0  0  0  0
 40 38  1  0  0  0  0
 41 42  1  0  0  0  0
 41 36  2  0  0  0  0
 42 40  2  0  0  0  0
M  END
>  <MODEL>
5

>  <REMARK>
 VINA RESULT:      -8.2      3.717      7.427
  Name = 
  10 active torsions:
  status: ('A' for Active; 'I' for Inactive)
    1  A    between atoms: C_1  and  C_10
    2  A    between atoms: C_1  and  N_16
    3  A    between atoms: S_8  and  C_11
    4  A    between atoms: S_8  and  N_30
    5  A    between atoms: C_10  and  C_37
    6  A    between atoms: N_16  and  C_33
    7  A    between atoms: C_19  and  C_36
    8  A    between atoms: C_22  and  C_23
    9  A    between atoms: C_22  and  N_30
   10  A    between atoms: S_34  and  C_38
                            x       y       z     vdW  Elec       q    Type
                         _______ _______ _______ _____ _____    ______ ____

>  <TORSDO>
F 10

$$$$
=
 OpenBabel11032419083D

 42 47  0  0  1  0  0  0  0  0999 V2000
  184.7770  178.9370  140.5450 C   0  0  0  0  0  0  0  0  0  0  0  0
  183.6770  178.9180  143.1780 C   0  0  0  0  0  0  0  0  0  0  0  0
  182.7800  178.9830  142.0690 C   0  0  0  0  0  0  0  0  0  0  0  0
  185.3760  178.9660  139.1700 C   0  0  0  0  0  1  0  0  0  0  0  0
  185.5810  178.8740  141.6460 C   0  0  0  0  0  0  0  0  0  0  0  0
  181.5910  178.9600  143.9760 N   0  0  0  0  0  0  0  0  0  0  0  0
  183.2910  178.9860  140.6980 C   0  0  0  0  0  0  0  0  0  0  0  0
  181.5440  179.0030  142.5420 C   0  0  0  0  0  3  0  0  0  0  0  0
  182.2860  178.9830  139.4310 S   0  0  0  0  0  0  0  0  0  0  0  0
  182.8310  178.9080  144.3590 C   0  0  0  0  0  2  0  0  0  0  0  0
  185.0040  178.8630  143.0320 C   0  0  0  0  0  0  0  0  0  0  0  0
  181.3340  176.3990  139.5450 N   0  0  0  0  0  0  0  0  0  0  0  0
  182.9730  176.6620  138.0250 C   0  0  0  0  0  3  0  0  0  0  0  0
  182.5020  175.3640  138.0560 C   0  0  0  0  0  0  0  0  0  0  0  0
  181.5220  175.2250  138.9700 N   0  0  0  0  0  0  0  0  0  0  0  0
  182.1970  177.2680  138.9920 C   0  0  1  0  0  3  0  0  0  0  0  0
  183.9550  172.0610  135.9570 N   0  0  0  0  0  2  0  0  0  0  0  0
  184.7560  172.4240  137.1240 C   0  0  0  0  0  2  0  0  0  0  0  0
  182.5580  171.8900  136.3730 C   0  0  0  0  0  2  0  0  0  0  0  0
  182.0310  173.0760  137.2030 C   0  0  0  0  0  2  0  0  0  0  0  0
  184.4150  173.8430  137.5920 C   0  0  0  0  0  2  0  0  0  0  0  0
  182.9970  174.2610  137.1840 C   0  0  0  0  0  3  0  0  0  0  0  0
  185.8850  178.7790  144.2400 C   0  0  0  0  0  2  0  0  0  0  0  0
  186.1980  177.3310  144.5900 C   0  0  0  0  0  2  0  0  0  0  0  0
  186.4660  177.1960  146.0210 N   0  0  0  0  0  2  0  0  0  0  0  0
  188.8740  177.1360  146.1930 N   0  0  0  0  0  2  0  0  0  0  0  0
  188.8920  177.8630  148.4730 C   0  0  0  0  0  2  0  0  0  0  0  0
  187.6290  178.3980  147.8510 C   0  0  0  0  0  2  0  0  0  0  0  0
  189.7580  177.4520  147.3050 C   0  0  0  0  0  2  0  0  0  0  0  0
  187.6730  177.9370  146.4030 C   0  0  2  0  0  3  0  0  0  0  0  0
  187.0730  178.8570  141.4940 C   0  0  0  0  0  2  0  0  0  0  0  0
  187.5240  177.5010  141.2250 N   0  0  0  0  0  2  0  0  0  0  0  0
  189.0390  177.2720  142.0350 S   0  0  0  0  0  0  0  0  0  0  0  0
  189.2940  178.4360  142.9510 O   0  0  0  0  0  0  0  0  0  0  0  0
  188.9690  176.0100  142.8470 O   0  0  0  0  0  0  0  0  0  0  0  0
  192.7040  177.1480  140.2730 C   0  0  0  0  0  3  0  0  0  0  0  0
  192.0560  177.5620  142.5830 N   0  0  0  0  0  1  0  0  0  0  0  0
  190.3460  177.1290  140.8590 C   0  0  0  0  0  0  0  0  0  0  0  0
  191.6950  177.2820  141.2330 C   0  0  0  0  0  0  0  0  0  0  0  0
  190.0330  176.8270  139.5280 C   0  0  0  0  0  3  0  0  0  0  0  0
  192.3800  176.8580  138.9460 C   0  0  0  0  0  3  0  0  0  0  0  0
  191.0450  176.6960  138.5730 C   0  0  0  0  0  3  0  0  0  0  0  0
  1  7  2  0  0  0  0
  1  5  1  0  0  0  0
  2 10  1  0  0  0  0
  3  8  1  0  0  0  0
  3  2  2  0  0  0  0
  4  1  1  0  0  0  0
  5 11  2  0  0  0  0
  6 10  1  0  0  0  0
  7  3  1  0  0  0  0
  8  6  2  0  0  0  0
  9  7  1  0  0  0  0
 11  2  1  0  0  0  0
 11 23  1  0  0  0  0
 13 14  2  0  0  0  0
 13 16  1  0  0  0  0
 14 15  1  0  0  0  0
 15 12  2  0  0  0  0
 16  9  1  6  0  0  0
 16 12  1  0  0  0  0
 17 19  1  0  0  0  0
 17 18  1  0  0  0  0
 18 21  1  0  0  0  0
 19 20  1  0  0  0  0
 22 20  1  0  0  0  0
 22 21  1  0  0  0  0
 22 14  1  0  0  0  0
 23 24  1  0  0  0  0
 24 25  1  0  0  0  0
 26 30  1  0  0  0  0
 26 29  1  0  0  0  0
 28 27  1  0  0  0  0
 29 27  1  0  0  0  0
 30 25  1  1  0  0  0
 30 28  1  0  0  0  0
 31  5  1  0  0  0  0
 32 31  1  0  0  0  0
 32 33  1  0  0  0  0
 33 35  2  0  0  0  0
 33 34  2  0  0  0  0
 36 39  1  0  0  0  0
 38 39  2  0  0  0  0
 38 33  1  0  0  0  0
 39 37  1  0  0  0  0
 40 38  1  0  0  0  0
 41 36  2  0  0  0  0
 42 41  1  0  0  0  0
 42 40  2  0  0  0  0
M  END
>  <MODEL>
6

>  <REMARK>
 VINA RESULT:      -8.2      3.600      7.388
  Name = 
  10 active torsions:
  status: ('A' for Active; 'I' for Inactive)
    1  A    between atoms: C_1  and  C_10
    2  A    between atoms: C_1  and  N_16
    3  A    between atoms: S_8  and  C_11
    4  A    between atoms: S_8  and  N_30
    5  A    between atoms: C_10  and  C_37
    6  A    between atoms: N_16  and  C_33
    7  A    between atoms: C_19  and  C_36
    8  A    between atoms: C_22  and  C_23
    9  A    between atoms: C_22  and  N_30
   10  A    between atoms: S_34  and  C_38
                            x       y       z     vdW  Elec       q    Type
                         _______ _______ _______ _____ _____    ______ ____

>  <TORSDO>
F 10

$$$$
=
 OpenBabel11032419083D

 42 47  0  0  1  0  0  0  0  0999 V2000
  184.5760  178.9250  140.6720 C   0  0  0  0  0  0  0  0  0  0  0  0
  183.2900  178.9250  143.2190 C   0  0  0  0  0  0  0  0  0  0  0  0
  182.4730  178.9290  142.0470 C   0  0  0  0  0  0  0  0  0  0  0  0
  185.2720  178.9440  139.3440 C   0  0  0  0  0  1  0  0  0  0  0  0
  185.3000  178.9190  141.8290 C   0  0  0  0  0  0  0  0  0  0  0  0
  181.1510  178.9060  143.8640 N   0  0  0  0  0  0  0  0  0  0  0  0
  183.0830  178.9200  140.7170 C   0  0  0  0  0  0  0  0  0  0  0  0
  181.2070  178.9130  142.4300 C   0  0  0  0  0  3  0  0  0  0  0  0
  182.1730  178.8470  139.3820 S   0  0  0  0  0  0  0  0  0  0  0  0
  182.3610  178.9120  144.3360 C   0  0  0  0  0  2  0  0  0  0  0  0
  184.6250  178.9190  143.1710 C   0  0  0  0  0  0  0  0  0  0  0  0
  181.4460  176.2010  139.6330 N   0  0  0  0  0  0  0  0  0  0  0  0
  182.9060  176.5520  137.9560 C   0  0  0  0  0  3  0  0  0  0  0  0
  182.5450  175.2230  138.0560 C   0  0  0  0  0  0  0  0  0  0  0  0
  181.6710  175.0310  139.0620 N   0  0  0  0  0  2  0  0  0  0  0  0
  182.1800  177.1210  138.9840 C   0  0  0  0  0  0  0  0  0  0  0  0
  183.9840  171.9630  135.8820 N   0  0  0  0  0  2  0  0  0  0  0  0
  184.7570  172.2640  137.0830 C   0  0  0  0  0  2  0  0  0  0  0  0
  182.5720  171.8120  136.2490 C   0  0  0  0  0  2  0  0  0  0  0  0
  182.0470  172.9790  137.1060 C   0  0  0  0  0  2  0  0  0  0  0  0
  184.4350  173.6740  137.5930 C   0  0  0  0  0  2  0  0  0  0  0  0
  183.0410  174.1400  137.1580 C   0  0  0  0  0  3  0  0  0  0  0  0
  185.4190  178.8980  144.4410 C   0  0  0  0  0  2  0  0  0  0  0  0
  186.0550  177.5330  144.6670 C   0  0  0  0  0  2  0  0  0  0  0  0
  187.4260  177.6810  145.1500 N   0  0  0  0  0  2  0  0  0  0  0  0
  187.0420  178.2800  147.4580 N   0  0  0  0  0  2  0  0  0  0  0  0
  189.2740  177.7490  148.1380 C   0  0  0  0  0  2  0  0  0  0  0  0
  188.9700  176.9040  146.9280 C   0  0  0  0  0  2  0  0  0  0  0  0
  187.9300  178.2500  148.6110 C   0  0  0  0  0  2  0  0  0  0  0  0
  187.5390  177.2530  146.5490 C   0  0  2  0  0  3  0  0  0  0  0  0
  186.8000  178.9560  141.7850 C   0  0  0  0  0  2  0  0  0  0  0  0
  187.3200  177.6060  141.6370 N   0  0  0  0  0  2  0  0  0  0  0  0
  188.9860  177.7250  141.1750 S   0  0  0  0  0  0  0  0  0  0  0  0
  189.3470  176.5520  140.3090 O   0  0  0  0  0  0  0  0  0  0  0  0
  189.1840  178.9950  140.3970 O   0  0  0  0  0  0  0  0  0  0  0  0
  191.2280  176.6460  144.3940 C   0  0  0  0  0  3  0  0  0  0  0  0
  189.9650  175.3030  142.8060 N   0  0  0  0  0  1  0  0  0  0  0  0
  190.0160  177.7610  142.6070 C   0  0  0  0  0  0  0  0  0  0  0  0
  190.3990  176.5780  143.2690 C   0  0  0  0  0  0  0  0  0  0  0  0
  190.4860  178.9930  143.0770 C   0  0  0  0  0  3  0  0  0  0  0  0
  191.6820  177.8810  144.8610 C   0  0  0  0  0  3  0  0  0  0  0  0
  191.3120  179.0550  144.2020 C   0  0  0  0  0  3  0  0  0  0  0  0
  1  7  2  0  0  0  0
  1  5  1  0  0  0  0
  2 10  1  0  0  0  0
  3  8  1  0  0  0  0
  3  2  2  0  0  0  0
  4  1  1  0  0  0  0
  5 11  2  0  0  0  0
  6 10  1  0  0  0  0
  7  3  1  0  0  0  0
  8  6  2  0  0  0  0
  9  7  1  0  0  0  0
 11  2  1  0  0  0  0
 11 23  1  0  0  0  0
 13 14  2  0  0  0  0
 13 16  1  0  0  0  0
 14 15  1  0  0  0  0
 15 12  1  0  0  0  0
 16  9  1  0  0  0  0
 16 12  2  0  0  0  0
 17 19  1  0  0  0  0
 17 18  1  0  0  0  0
 18 21  1  0  0  0  0
 19 20  1  0  0  0  0
 20 22  1  0  0  0  0
 22 21  1  0  0  0  0
 22 14  1  0  0  0  0
 23 24  1  0  0  0  0
 24 25  1  0  0  0  0
 26 29  1  0  0  0  0
 27 29  1  0  0  0  0
 28 27  1  0  0  0  0
 30 25  1  6  0  0  0
 30 28  1  0  0  0  0
 30 26  1  0  0  0  0
 31  5  1  0  0  0  0
 32 31  1  0  0  0  0
 33 32  1  0  0  0  0
 33 38  1  0  0  0  0
 34 33  2  0  0  0  0
 35 33  2  0  0  0  0
 36 41  1  0  0  0  0
 37 39  1  0  0  0  0
 38 40  2  0  0  0  0
 38 39  1  0  0  0  0
 39 36  2  0  0  0  0
 40 42  1  0  0  0  0
 42 41  2  0  0  0  0
M  END
>  <MODEL>
7

>  <REMARK>
 VINA RESULT:      -8.1      4.170      7.082
  Name = 
  10 active torsions:
  status: ('A' for Active; 'I' for Inactive)
    1  A    between atoms: C_1  and  C_10
    2  A    between atoms: C_1  and  N_16
    3  A    between atoms: S_8  and  C_11
    4  A    between atoms: S_8  and  N_30
    5  A    between atoms: C_10  and  C_37
    6  A    between atoms: N_16  and  C_33
    7  A    between atoms: C_19  and  C_36
    8  A    between atoms: C_22  and  C_23
    9  A    between atoms: C_22  and  N_30
   10  A    between atoms: S_34  and  C_38
                            x       y       z     vdW  Elec       q    Type
                         _______ _______ _______ _____ _____    ______ ____

>  <TORSDO>
F 10

$$$$
=
 OpenBabel11032419083D

 42 47  0  0  1  0  0  0  0  0999 V2000
  186.1400  178.5750  139.7900 C   0  0  0  0  0  0  0  0  0  0  0  0
  186.0460  178.4270  142.6380 C   0  0  0  0  0  0  0  0  0  0  0  0
  184.8210  178.6130  141.9290 C   0  0  0  0  0  0  0  0  0  0  0  0
  186.2130  178.6700  138.2950 C   0  0  0  0  0  1  0  0  0  0  0  0
  187.2750  178.3970  140.5260 C   0  0  0  0  0  0  0  0  0  0  0  0
  184.3870  178.5160  144.1320 N   0  0  0  0  0  0  0  0  0  0  0  0
  184.8120  178.6860  140.4670 C   0  0  0  0  0  0  0  0  0  0  0  0
  183.8380  178.6610  142.8130 C   0  0  0  0  0  3  0  0  0  0  0  0
  183.4250  178.8200  139.6460 S   0  0  0  0  0  0  0  0  0  0  0  0
  185.6750  178.3780  144.0420 C   0  0  0  0  0  2  0  0  0  0  0  0
  187.2280  178.3180  142.0250 C   0  0  0  0  0  0  0  0  0  0  0  0
  182.1930  176.3630  139.8420 N   0  0  0  0  0  0  0  0  0  0  0  0
  183.6160  176.4910  138.1030 C   0  0  0  0  0  3  0  0  0  0  0  0
  183.0000  175.2580  138.1750 C   0  0  0  0  0  0  0  0  0  0  0  0
  182.1510  175.1990  139.2190 N   0  0  0  0  0  2  0  0  0  0  0  0
  183.0670  177.1460  139.1870 C   0  0  0  0  0  0  0  0  0  0  0  0
  183.9560  172.3400  135.3460 N   0  0  0  0  0  2  0  0  0  0  0  0
  183.9960  173.7050  134.8300 C   0  0  0  0  0  2  0  0  0  0  0  0
  184.8010  172.2580  136.5430 C   0  0  0  0  0  2  0  0  0  0  0  0
  184.5000  173.3700  137.5670 C   0  0  0  0  0  2  0  0  0  0  0  0
  183.2590  174.6620  135.7740 C   0  0  0  0  0  2  0  0  0  0  0  0
  183.2260  174.1400  137.2150 C   0  0  0  0  0  3  0  0  0  0  0  0
  188.4720  178.1070  142.8320 C   0  0  0  0  0  2  0  0  0  0  0  0
  188.5640  176.6720  143.3310 C   0  0  0  0  0  2  0  0  0  0  0  0
  189.9410  176.3440  143.6960 N   0  0  0  0  0  2  0  0  0  0  0  0
  191.6290  176.6170  145.4020 N   0  0  0  0  0  2  0  0  0  0  0  0
  190.0380  176.7280  147.1870 C   0  0  0  0  0  2  0  0  0  0  0  0
  189.3350  177.2020  145.9410 C   0  0  0  0  0  2  0  0  0  0  0  0
  191.5090  176.7710  146.8440 C   0  0  0  0  0  2  0  0  0  0  0  0
  190.3860  177.1400  144.8440 C   0  0  2  0  0  3  0  0  0  0  0  0
  188.6120  178.3170  139.8490 C   0  0  0  0  0  2  0  0  0  0  0  0
  188.8790  176.9440  139.4500 N   0  0  0  0  0  2  0  0  0  0  0  0
  189.6280  176.9800  137.8870 S   0  0  0  0  0  0  0  0  0  0  0  0
  189.4380  178.3390  137.2750 O   0  0  0  0  0  0  0  0  0  0  0  0
  191.0970  176.7090  138.0470 O   0  0  0  0  0  0  0  0  0  0  0  0
  188.8520  173.4770  135.9690 C   0  0  0  0  0  3  0  0  0  0  0  0
  190.5680  174.0620  137.5910 N   0  0  0  0  0  1  0  0  0  0  0  0
  188.9240  175.7420  136.8450 C   0  0  0  0  0  0  0  0  0  0  0  0
  189.4460  174.4350  136.7980 C   0  0  0  0  0  0  0  0  0  0  0  0
  187.8030  176.0620  136.0700 C   0  0  0  0  0  3  0  0  0  0  0  0
  187.7400  173.8100  135.1910 C   0  0  0  0  0  3  0  0  0  0  0  0
  187.2140  175.1020  135.2430 C   0  0  0  0  0  3  0  0  0  0  0  0
  1  7  2  0  0  0  0
  1  5  1  0  0  0  0
  2 10  1  0  0  0  0
  3  2  2  0  0  0  0
  3  8  1  0  0  0  0
  4  1  1  0  0  0  0
  5 11  2  0  0  0  0
  7  3  1  0  0  0  0
  8  6  2  0  0  0  0
  9  7  1  0  0  0  0
 10  6  1  0  0  0  0
 11  2  1  0  0  0  0
 11 23  1  0  0  0  0
 13 14  2  0  0  0  0
 13 16  1  0  0  0  0
 14 15  1  0  0  0  0
 15 12  1  0  0  0  0
 16  9  1  0  0  0  0
 16 12  2  0  0  0  0
 17 19  1  0  0  0  0
 18 17  1  0  0  0  0
 18 21  1  0  0  0  0
 19 20  1  0  0  0  0
 21 22  1  0  0  0  0
 22 20  1  0  0  0  0
 22 14  1  0  0  0  0
 23 24  1  0  0  0  0
 24 25  1  0  0  0  0
 26 29  1  0  0  0  0
 28 27  1  0  0  0  0
 29 27  1  0  0  0  0
 30 25  1  6  0  0  0
 30 26  1  0  0  0  0
 30 28  1  0  0  0  0
 31  5  1  0  0  0  0
 32 31  1  0  0  0  0
 33 35  2  0  0  0  0
 33 32  1  0  0  0  0
 34 33  2  0  0  0  0
 36 39  1  0  0  0  0
 38 33  1  0  0  0  0
 39 38  2  0  0  0  0
 39 37  1  0  0  0  0
 40 38  1  0  0  0  0
 41 42  1  0  0  0  0
 41 36  2  0  0  0  0
 42 40  2  0  0  0  0
M  END
>  <MODEL>
8

>  <REMARK>
 VINA RESULT:      -8.0      4.001      7.705
  Name = 
  10 active torsions:
  status: ('A' for Active; 'I' for Inactive)
    1  A    between atoms: C_1  and  C_10
    2  A    between atoms: C_1  and  N_16
    3  A    between atoms: S_8  and  C_11
    4  A    between atoms: S_8  and  N_30
    5  A    between atoms: C_10  and  C_37
    6  A    between atoms: N_16  and  C_33
    7  A    between atoms: C_19  and  C_36
    8  A    between atoms: C_22  and  C_23
    9  A    between atoms: C_22  and  N_30
   10  A    between atoms: S_34  and  C_38
                            x       y       z     vdW  Elec       q    Type
                         _______ _______ _______ _____ _____    ______ ____

>  <TORSDO>
F 10

$$$$
=
 OpenBabel11032419083D

 42 47  0  0  1  0  0  0  0  0999 V2000
  186.8750  177.1610  137.1020 C   0  0  0  0  0  0  0  0  0  0  0  0
  186.2280  174.3820  137.1080 C   0  0  0  0  0  0  0  0  0  0  0  0
  187.5820  174.7620  136.8610 C   0  0  0  0  0  0  0  0  0  0  0  0
  187.1890  178.6270  137.0850 C   0  0  0  0  0  1  0  0  0  0  0  0
  185.6000  176.7320  137.3340 C   0  0  0  0  0  0  0  0  0  0  0  0
  187.4300  172.5200  136.8200 N   0  0  0  0  0  0  0  0  0  0  0  0
  187.9690  176.1730  136.8570 C   0  0  0  0  0  0  0  0  0  0  0  0
  188.2950  173.6590  136.6950 C   0  0  0  0  0  3  0  0  0  0  0  0
  189.5110  176.6160  136.6540 S   0  0  0  0  0  0  0  0  0  0  0  0
  186.2210  172.9290  137.0620 C   0  0  0  0  0  2  0  0  0  0  0  0
  185.2570  175.2700  137.3390 C   0  0  0  0  0  0  0  0  0  0  0  0
  191.3790  176.8680  138.6640 N   0  0  0  0  0  0  0  0  0  0  0  0
  189.2650  177.0860  139.4030 C   0  0  0  0  0  3  0  0  0  0  0  0
  190.1850  177.2280  140.4230 C   0  0  0  0  0  0  0  0  0  0  0  0
  191.4440  177.0960  139.9630 N   0  0  0  0  0  2  0  0  0  0  0  0
  190.0820  176.8560  138.3140 C   0  0  0  0  0  0  0  0  0  0  0  0
  189.0060  177.6580  144.4050 N   0  0  0  0  0  2  0  0  0  0  0  0
  187.9350  177.2230  143.5110 C   0  0  0  0  0  2  0  0  0  0  0  0
  190.1500  176.7520  144.2540 C   0  0  0  0  0  2  0  0  0  0  0  0
  190.5540  176.5360  142.7830 C   0  0  0  0  0  2  0  0  0  0  0  0
  188.3180  177.4760  142.0480 C   0  0  0  0  0  2  0  0  0  0  0  0
  189.8370  177.5090  141.8460 C   0  0  0  0  0  3  0  0  0  0  0  0
  183.8620  174.7990  137.6070 C   0  0  0  0  0  2  0  0  0  0  0  0
  183.0630  174.6890  136.3150 C   0  0  0  0  0  2  0  0  0  0  0  0
  181.6630  175.0390  136.5470 N   0  0  0  0  0  2  0  0  0  0  0  0
  180.4530  173.3250  137.7430 N   0  0  0  0  0  2  0  0  0  0  0  0
  181.4130  171.5350  136.4780 C   0  0  0  0  0  2  0  0  0  0  0  0
  181.4410  172.7590  135.6000 C   0  0  0  0  0  2  0  0  0  0  0  0
  180.4530  171.8780  137.5930 C   0  0  0  0  0  2  0  0  0  0  0  0
  180.7990  173.8590  136.4310 C   0  0  2  0  0  3  0  0  0  0  0  0
  184.4950  177.7240  137.5500 C   0  0  0  0  0  2  0  0  0  0  0  0
  183.9800  177.5990  138.9040 N   0  0  0  0  0  2  0  0  0  0  0  0
  184.5500  178.9570  139.8190 S   0  0  0  0  0  0  0  0  0  0  0  0
  186.0450  178.8790  139.9450 O   0  0  0  0  0  0  0  0  0  0  0  0
  184.1790  180.2200  139.0940 O   0  0  0  0  0  0  0  0  0  0  0  0
  181.8540  178.9990  142.8660 C   0  0  0  0  0  3  0  0  0  0  0  0
  181.5370  179.0280  140.4530 N   0  0  0  0  0  1  0  0  0  0  0  0
  183.8060  178.9710  141.4180 C   0  0  0  0  0  0  0  0  0  0  0  0
  182.4070  179.0030  141.5800 C   0  0  0  0  0  0  0  0  0  0  0  0
  184.6270  178.9200  142.5510 C   0  0  0  0  0  3  0  0  0  0  0  0
  182.6830  178.9590  143.9890 C   0  0  0  0  0  3  0  0  0  0  0  0
  184.0700  178.9180  143.8320 C   0  0  0  0  0  3  0  0  0  0  0  0
  1  5  1  0  0  0  0
  2 11  1  0  0  0  0
  3  2  2  0  0  0  0
  4  1  1  0  0  0  0
  5 11  2  0  0  0  0
  5 31  1  0  0  0  0
  6 10  1  0  0  0  0
  7  3  1  0  0  0  0
  7  1  2  0  0  0  0
  8  6  2  0  0  0  0
  8  3  1  0  0  0  0
  9  7  1  0  0  0  0
  9 16  1  0  0  0  0
 10  2  1  0  0  0  0
 11 23  1  0  0  0  0
 12 15  1  0  0  0  0
 13 14  2  0  0  0  0
 14 22  1  0  0  0  0
 15 14  1  0  0  0  0
 16 12  2  0  0  0  0
 16 13  1  0  0  0  0
 18 17  1  0  0  0  0
 19 17  1  0  0  0  0
 20 19  1  0  0  0  0
 21 18  1  0  0  0  0
 22 21  1  0  0  0  0
 22 20  1  0  0  0  0
 24 25  1  0  0  0  0
 24 23  1  0  0  0  0
 27 29  1  0  0  0  0
 28 30  1  0  0  0  0
 28 27  1  0  0  0  0
 29 26  1  0  0  0  0
 30 25  1  1  0  0  0
 30 26  1  0  0  0  0
 31 32  1  0  0  0  0
 32 33  1  0  0  0  0
 33 34  2  0  0  0  0
 33 38  1  0  0  0  0
 35 33  2  0  0  0  0
 36 41  1  0  0  0  0
 37 39  1  0  0  0  0
 38 39  1  0  0  0  0
 38 40  2  0  0  0  0
 39 36  2  0  0  0  0
 40 42  1  0  0  0  0
 42 41  2  0  0  0  0
M  END
>  <MODEL>
9

>  <REMARK>
 VINA RESULT:      -8.0      3.806      8.537
  Name = 
  10 active torsions:
  status: ('A' for Active; 'I' for Inactive)
    1  A    between atoms: C_1  and  C_10
    2  A    between atoms: C_1  and  N_16
    3  A    between atoms: S_8  and  C_11
    4  A    between atoms: S_8  and  N_30
    5  A    between atoms: C_10  and  C_37
    6  A    between atoms: N_16  and  C_33
    7  A    between atoms: C_19  and  C_36
    8  A    between atoms: C_22  and  C_23
    9  A    between atoms: C_22  and  N_30
   10  A    between atoms: S_34  and  C_38
                            x       y       z     vdW  Elec       q    Type
                         _______ _______ _______ _____ _____    ______ ____

>  <TORSDO>
F 10

$$$$
