=
 OpenBabel11042413173D

 61 67  0  0  1  0  0  0  0  0999 V2000
  181.9530  176.8500  136.2750 C   0  0  0  0  0  3  0  0  0  0  0  0
  182.2360  175.7190  135.5980 C   0  0  0  0  0  0  0  0  0  0  0  0
  183.6090  175.2160  135.6430 C   0  0  0  0  0  0  0  0  0  0  0  0
  184.2510  174.1220  135.0630 C   0  0  0  0  0  3  0  0  0  0  0  0
  184.3990  177.0330  137.0470 C   0  0  0  0  0  0  0  0  0  0  0  0
  184.5680  175.8660  136.3320 C   0  0  2  0  0  3  0  0  0  0  0  0
  186.8100  176.8840  137.5330 C   0  0  0  0  0  0  0  0  0  0  0  0
  182.9960  177.6270  137.0890 C   0  0  0  0  0  3  0  0  0  0  0  0
  185.7280  175.2350  136.1990 N   0  0  0  0  0  0  0  0  0  0  0  0
  188.0920  174.9790  136.6000 N   0  0  0  0  0  1  0  0  0  0  0  0
  185.5580  177.5780  137.6700 C   0  0  0  0  0  0  0  0  0  0  0  0
  186.8660  175.6870  136.7750 C   0  0  0  0  0  0  0  0  0  0  0  0
  185.5640  174.1650  135.4320 N   0  0  0  0  0  0  0  0  0  0  0  0
  189.1700  177.6670  137.1670 C   0  0  2  0  0  3  0  0  0  0  0  0
  188.0850  177.3860  138.1630 C   0  0  2  0  0  3  0  0  0  0  0  0
  188.7110  176.3930  139.0910 C   0  0  0  0  0  2  0  0  0  0  0  0
  190.4350  177.3010  137.7960 N   0  0  0  0  0  0  0  0  0  0  0  0
  190.1560  176.5450  138.9650 N   0  0  0  0  0  0  0  0  0  0  0  0
  189.1780  179.1450  136.8170 C   0  0  0  0  0  1  0  0  0  0  0  0
  191.1300  176.4210  136.8640 C   0  0  0  0  0  2  0  0  0  0  0  0
  192.2080  172.5860  135.6970 C   0  0  0  0  0  3  0  0  0  0  0  0
  193.4850  175.9250  136.2450 C   0  0  0  0  0  2  0  0  0  0  0  0
  192.5050  176.0480  137.4010 C   0  0  2  0  0  3  0  0  0  0  0  0
  194.0360  173.9570  137.8090 C   0  0  1  0  0  3  0  0  0  0  0  0
  192.9930  174.6720  136.9370 C   0  0  2  0  0  0  0  0  0  0  0  0
  195.0130  173.2360  136.9080 C   0  0  0  0  0  2  0  0  0  0  0  0
  193.2960  171.6330  135.9970 C   0  0  0  0  0  3  0  0  0  0  0  0
  194.4910  171.8840  136.5380 C   0  0  0  0  0  3  0  0  0  0  0  0
  192.0660  173.8590  136.0850 C   0  0  0  0  0  3  0  0  0  0  0  0
  194.8030  174.8720  138.7500 C   0  0  0  0  0  1  0  0  0  0  0  0
  190.5910  177.3440  140.1040 C   0  0  0  0  0  2  0  0  0  0  0  0
  190.6250  176.4880  141.3570 C   0  0  0  0  0  2  0  0  0  0  0  0
  188.2400  176.5420  142.5690 O   0  0  0  0  0  0  0  0  0  0  0  0
  189.5800  177.2140  142.5990 S   0  0  0  0  0  0  0  0  0  0  0  0
  189.4060  178.6770  142.3040 O   0  0  0  0  0  0  0  0  0  0  0  0
  190.3450  177.0050  144.2070 C   0  0  1  0  0  3  0  0  0  0  0  0
  191.8340  175.3610  144.4080 C   0  0  0  0  0  1  0  0  0  0  0  0
  191.7140  176.7130  144.0760 O   0  0  0  0  0  0  0  0  0  0  0  0
  190.1330  178.1710  145.0800 N   0  0  0  0  0  2  0  0  0  0  0  0
  190.1960  176.9250  147.0550 O   0  0  0  0  0  1  0  0  0  0  0  0
  188.1780  177.1240  145.9300 N   0  0  0  0  0  1  0  0  0  0  0  0
  189.4150  177.7900  146.2930 C   0  0  2  0  0  3  0  0  0  0  0  0
  185.5220  178.7990  138.4300 N   0  0  0  0  0  2  0  0  0  0  0  0
  184.5270  179.1480  139.4280 C   0  0  2  0  0  3  0  0  0  0  0  0
  183.9590  180.3840  139.1140 O   0  0  0  0  0  1  0  0  0  0  0  0
  185.1550  179.1260  140.8220 C   0  0  2  0  0  3  0  0  0  0  0  0
  186.5220  178.8730  140.7370 O   0  0  0  0  0  1  0  0  0  0  0  0
  184.4730  178.1850  141.8190 C   0  0  0  0  0  2  0  0  0  0  0  0
  182.9650  178.3870  141.8570 C   0  0  0  0  0  2  0  0  0  0  0  0
  182.5020  179.1320  143.1130 C   0  0  1  0  0  3  0  0  0  0  0  0
  180.9840  179.2000  143.2130 C   0  0  0  0  0  1  0  0  0  0  0  0
  183.0380  178.5430  144.2680 O   0  0  0  0  0  1  0  0  0  0  0  0
  181.1830  175.0140  134.8110 C   0  0  0  0  0  2  0  0  0  0  0  0
  181.1160  171.6260  136.4040 C   0  0  2  0  0  3  0  0  0  0  0  0
  179.6460  174.7430  137.3210 O   0  0  0  0  0  0  0  0  0  0  0  0
  180.2080  172.3960  137.3690 C   0  0  2  0  0  3  0  0  0  0  0  0
  178.9310  171.8560  137.3850 F   0  0  0  0  0  0  0  0  0  0  0  0
  180.7640  173.7960  135.4830 N   0  0  0  0  0  0  0  0  0  0  0  0
  181.3000  172.4960  135.1490 C   0  0  0  0  0  2  0  0  0  0  0  0
  180.1630  173.7430  136.7600 C   0  0  0  0  0  0  0  0  0  0  0  0
  180.5800  170.3930  136.0710 F   0  0  0  0  0  0  0  0  0  0  0  0
  1  8  2  0  0  0  0
  2  3  2  0  0  0  0
  2  1  1  0  0  0  0
  4 13  2  0  0  0  0
  4  3  1  0  0  0  0
  5  8  1  0  0  0  0
  5 11  2  0  0  0  0
  6  3  1  6  0  0  0
  6  5  1  0  0  0  0
  7 11  1  0  0  0  0
  9  6  1  0  0  0  0
  9 12  1  0  0  0  0
 10 12  1  0  0  0  0
 11 43  1  0  0  0  0
 12  7  2  0  0  0  0
 13  9  1  0  0  0  0
 14 19  1  1  0  0  0
 14 17  1  0  0  0  0
 14 15  1  0  0  0  0
 15  7  1  6  0  0  0
 15 16  1  0  0  0  0
 17 18  1  0  0  0  0
 18 16  1  0  0  0  0
 18 31  1  0  0  0  0
 20 17  1  0  0  0  0
 21 27  1  0  0  0  0
 21 29  2  0  0  0  0
 22 25  1  0  0  0  0
 22 23  1  0  0  0  0
 23 20  1  6  0  0  0
 24 30  1  6  0  0  0
 25 29  1  6  0  0  0
 25 23  1  0  0  0  0
 25 24  1  0  0  0  0
 26 24  1  0  0  0  0
 27 28  2  0  0  0  0
 28 26  1  0  0  0  0
 31 32  1  0  0  0  0
 32 34  1  0  0  0  0
 33 34  2  0  0  0  0
 34 36  1  0  0  0  0
 35 34  2  0  0  0  0
 36 38  1  6  0  0  0
 36 39  1  0  0  0  0
 38 37  1  0  0  0  0
 39 42  1  0  0  0  0
 42 41  1  6  0  0  0
 42 40  1  0  0  0  0
 43 44  1  0  0  0  0
 44 45  1  6  0  0  0
 44 46  1  0  0  0  0
 46 47  1  6  0  0  0
 46 48  1  0  0  0  0
 48 49  1  0  0  0  0
 49 50  1  0  0  0  0
 50 51  1  1  0  0  0
 50 52  1  0  0  0  0
 53 58  1  0  0  0  0
 53  2  1  0  0  0  0
 54 61  1  6  0  0  0
 54 56  1  0  0  0  0
 56 57  1  6  0  0  0
 58 60  1  0  0  0  0
 59 58  1  0  0  0  0
 59 54  1  0  0  0  0
 60 55  2  0  0  0  0
 60 56  1  0  0  0  0
M  END
>  <MODEL>
1

>  <REMARK>
 VINA RESULT:      -7.4      0.000      0.000
  Name = 
  18 active torsions:
  status: ('A' for Active; 'I' for Inactive)
    1  A    between atoms: C_2  and  N_9
    2  A    between atoms: C_2  and  C_29
    3  A    between atoms: C_3  and  C_30
    4  A    between atoms: C_3  and  C_58
    5  A    between atoms: C_4  and  C_8
    6  A    between atoms: C_4  and  N_44
    7  A    between atoms: N_9  and  C_51
    8  A    between atoms: C_12  and  S_16
    9  A    between atoms: C_12  and  C_26
   10  A    between atoms: O_13  and  C_15
   11  A    between atoms: C_15  and  S_16
   12  A    between atoms: C_15  and  N_35
   13  A    between atoms: C_18  and  C_19
   14  A    between atoms: C_18  and  N_41
   15  A    between atoms: C_23  and  C_37
   16  A    between atoms: C_26  and  N_45
   17  A    between atoms: C_29  and  C_58
   18  A    between atoms: N_35  and  C_40
                            x       y       z     vdW  Elec       q    Type
                         _______ _______ _______ _____ _____    ______ ____

>  <TORSDO>
F 18

$$$$
=
 OpenBabel11042413173D

 61 67  0  0  1  0  0  0  0  0999 V2000
  187.0810  177.7520  143.2150 C   0  0  0  0  0  3  0  0  0  0  0  0
  186.7110  177.9870  144.4910 C   0  0  0  0  0  0  0  0  0  0  0  0
  185.3130  178.3370  144.7490 C   0  0  0  0  0  0  0  0  0  0  0  0
  184.6010  178.6570  145.9030 C   0  0  0  0  0  3  0  0  0  0  0  0
  184.6880  178.2270  142.4040 C   0  0  0  0  0  0  0  0  0  0  0  0
  184.4210  178.4310  143.7420 C   0  0  0  0  0  0  0  0  0  0  0  0
  182.3200  178.7920  142.0230 C   0  0  0  0  0  0  0  0  0  0  0  0
  186.1110  177.8290  142.0300 C   0  0  0  0  0  2  0  0  0  0  0  0
  183.2350  178.7850  144.2200 N   0  0  0  0  0  0  0  0  0  0  0  0
  180.9060  179.3590  143.9780 N   0  0  0  0  0  1  0  0  0  0  0  0
  183.6060  178.4200  141.4980 C   0  0  0  0  0  0  0  0  0  0  0  0
  182.1600  178.9720  143.4200 C   0  0  0  0  0  0  0  0  0  0  0  0
  183.3150  178.9290  145.5370 N   0  0  0  0  0  0  0  0  0  0  0  0
  180.5820  177.7440  140.5400 C   0  0  2  0  0  3  0  0  0  0  0  0
  181.1180  179.0110  141.1370 C   0  0  2  0  0  3  0  0  0  0  0  0
  181.4160  179.8610  139.9430 C   0  0  0  0  0  2  0  0  0  0  0  0
  180.1090  178.0680  139.1990 N   0  0  0  0  0  0  0  0  0  0  0  0
  180.6020  179.3530  138.8450 N   0  0  0  0  0  0  0  0  0  0  0  0
  179.4260  177.2270  141.3810 C   0  0  0  0  0  1  0  0  0  0  0  0
  180.7210  177.1040  138.2920 C   0  0  0  0  0  2  0  0  0  0  0  0
  179.7160  174.3380  135.3650 C   0  0  0  0  0  3  0  0  0  0  0  0
  181.7680  174.8500  138.2980 C   0  0  0  0  0  2  0  0  0  0  0  0
  180.6400  175.6980  138.8680 C   0  0  2  0  0  3  0  0  0  0  0  0
  179.7050  173.3130  138.3030 C   0  0  1  0  0  3  0  0  0  0  0  0
  180.3510  174.6200  137.8190 C   0  0  2  0  0  0  0  0  0  0  0  0
  180.2970  172.1590  137.5270 C   0  0  0  0  0  2  0  0  0  0  0  0
  179.3560  172.9060  135.3120 C   0  0  0  0  0  3  0  0  0  0  0  0
  179.5710  171.9630  136.2340 C   0  0  0  0  0  3  0  0  0  0  0  0
  180.1320  175.0690  136.4070 C   0  0  0  0  0  3  0  0  0  0  0  0
  179.8600  173.0480  139.7920 C   0  0  0  0  0  1  0  0  0  0  0  0
  179.4470  180.2380  138.7390 C   0  0  0  0  0  2  0  0  0  0  0  0
  178.9620  180.2890  137.3020 C   0  0  0  0  0  2  0  0  0  0  0  0
  178.9340  182.0820  135.3150 O   0  0  0  0  0  0  0  0  0  0  0  0
  179.7990  181.6020  136.4420 S   0  0  0  0  0  0  0  0  0  0  0  0
  181.0930  181.0810  135.8850 O   0  0  0  0  0  0  0  0  0  0  0  0
  180.1260  182.9410  137.5880 C   0  0  1  0  0  3  0  0  0  0  0  0
  182.2970  183.3570  137.8540 C   0  0  0  0  0  1  0  0  0  0  0  0
  181.2300  182.6430  138.4050 O   0  0  0  0  0  0  0  0  0  0  0  0
  180.3090  184.2300  136.9010 N   0  0  0  0  0  2  0  0  0  0  0  0
  178.9390  185.9980  136.2250 O   0  0  0  0  0  1  0  0  0  0  0  0
  179.7920  186.0120  138.3830 N   0  0  0  0  0  1  0  0  0  0  0  0
  179.2820  185.1860  137.3040 C   0  0  2  0  0  3  0  0  0  0  0  0
  183.7530  178.2560  140.0760 N   0  0  0  0  0  2  0  0  0  0  0  0
  184.7350  178.9260  139.2420 C   0  0  2  0  0  3  0  0  0  0  0  0
  184.3610  180.2580  139.0520 O   0  0  0  0  0  1  0  0  0  0  0  0
  184.9050  178.1690  137.9250 C   0  0  2  0  0  3  0  0  0  0  0  0
  184.4390  176.8620  138.0500 O   0  0  0  0  0  1  0  0  0  0  0  0
  186.3200  178.2050  137.3420 C   0  0  0  0  0  2  0  0  0  0  0  0
  187.3510  177.6320  138.3050 C   0  0  0  0  0  2  0  0  0  0  0  0
  188.7640  178.1560  138.0350 C   0  0  1  0  0  3  0  0  0  0  0  0
  188.9180  178.6810  136.6140 C   0  0  0  0  0  1  0  0  0  0  0  0
  189.1120  179.1510  138.9600 O   0  0  0  0  0  1  0  0  0  0  0  0
  187.7030  177.9120  145.6020 C   0  0  0  0  0  2  0  0  0  0  0  0
  191.1160  178.3640  144.1280 C   0  0  2  0  0  3  0  0  0  0  0  0
  189.9130  176.3900  146.8440 O   0  0  0  0  0  0  0  0  0  0  0  0
  191.4250  177.3250  145.2120 C   0  0  2  0  0  3  0  0  0  0  0  0
  191.9060  176.1520  144.6500 F   0  0  0  0  0  0  0  0  0  0  0  0
  189.0420  177.6830  145.0840 N   0  0  0  0  0  0  0  0  0  0  0  0
  189.5880  178.4290  143.9730 C   0  0  0  0  0  2  0  0  0  0  0  0
  190.0930  177.0730  145.8030 C   0  0  0  0  0  0  0  0  0  0  0  0
  191.7180  178.0410  142.9240 F   0  0  0  0  0  0  0  0  0  0  0  0
  1  2  2  0  0  0  0
  2  3  1  0  0  0  0
  2 53  1  0  0  0  0
  3  4  1  0  0  0  0
  5  6  1  0  0  0  0
  6  9  1  0  0  0  0
  6  3  2  0  0  0  0
  7 12  2  0  0  0  0
  8  5  1  0  0  0  0
  8  1  1  0  0  0  0
  9 13  1  0  0  0  0
 11  7  1  0  0  0  0
 11  5  2  0  0  0  0
 12 10  1  0  0  0  0
 12  9  1  0  0  0  0
 13  4  2  0  0  0  0
 14 15  1  0  0  0  0
 14 19  1  1  0  0  0
 15  7  1  6  0  0  0
 16 15  1  0  0  0  0
 17 14  1  0  0  0  0
 18 17  1  0  0  0  0
 18 16  1  0  0  0  0
 20 17  1  0  0  0  0
 21 29  2  0  0  0  0
 22 23  1  0  0  0  0
 23 20  1  6  0  0  0
 24 30  1  1  0  0  0
 25 29  1  6  0  0  0
 25 22  1  0  0  0  0
 25 24  1  0  0  0  0
 25 23  1  0  0  0  0
 26 24  1  0  0  0  0
 27 21  1  0  0  0  0
 27 28  2  0  0  0  0
 28 26  1  0  0  0  0
 31 18  1  0  0  0  0
 32 31  1  0  0  0  0
 33 34  2  0  0  0  0
 34 32  1  0  0  0  0
 34 36  1  0  0  0  0
 35 34  2  0  0  0  0
 36 39  1  6  0  0  0
 36 38  1  0  0  0  0
 37 38  1  0  0  0  0
 39 42  1  0  0  0  0
 42 40  1  6  0  0  0
 42 41  1  0  0  0  0
 43 11  1  0  0  0  0
 44 45  1  6  0  0  0
 44 43  1  0  0  0  0
 46 47  1  1  0  0  0
 46 44  1  0  0  0  0
 48 46  1  0  0  0  0
 48 49  1  0  0  0  0
 50 51  1  6  0  0  0
 50 49  1  0  0  0  0
 50 52  1  0  0  0  0
 54 61  1  6  0  0  0
 54 56  1  0  0  0  0
 56 57  1  6  0  0  0
 56 60  1  0  0  0  0
 58 53  1  0  0  0  0
 58 60  1  0  0  0  0
 59 54  1  0  0  0  0
 59 58  1  0  0  0  0
 60 55  2  0  0  0  0
M  END
>  <MODEL>
2

>  <REMARK>
 VINA RESULT:      -7.3      5.048     11.369
  Name = 
  18 active torsions:
  status: ('A' for Active; 'I' for Inactive)
    1  A    between atoms: C_2  and  N_9
    2  A    between atoms: C_2  and  C_29
    3  A    between atoms: C_3  and  C_30
    4  A    between atoms: C_3  and  C_58
    5  A    between atoms: C_4  and  C_8
    6  A    between atoms: C_4  and  N_44
    7  A    between atoms: N_9  and  C_51
    8  A    between atoms: C_12  and  S_16
    9  A    between atoms: C_12  and  C_26
   10  A    between atoms: O_13  and  C_15
   11  A    between atoms: C_15  and  S_16
   12  A    between atoms: C_15  and  N_35
   13  A    between atoms: C_18  and  C_19
   14  A    between atoms: C_18  and  N_41
   15  A    between atoms: C_23  and  C_37
   16  A    between atoms: C_26  and  N_45
   17  A    between atoms: C_29  and  C_58
   18  A    between atoms: N_35  and  C_40
                            x       y       z     vdW  Elec       q    Type
                         _______ _______ _______ _____ _____    ______ ____

>  <TORSDO>
F 18

$$$$
=
 OpenBabel11042413173D

 61 67  0  0  1  0  0  0  0  0999 V2000
  188.3720  177.5490  144.7440 C   0  0  0  0  0  3  0  0  0  0  0  0
  187.6120  177.8310  145.8220 C   0  0  0  0  0  0  0  0  0  0  0  0
  186.2110  178.1920  145.6010 C   0  0  0  0  0  0  0  0  0  0  0  0
  185.1680  178.5570  146.4510 C   0  0  0  0  0  3  0  0  0  0  0  0
  186.3760  177.9980  143.1860 C   0  0  0  0  0  0  0  0  0  0  0  0
  185.6940  178.2510  144.3570 C   0  0  0  0  0  0  0  0  0  0  0  0
  184.2670  178.5520  142.0390 C   0  0  0  0  0  0  0  0  0  0  0  0
  187.8380  177.5840  143.3060 C   0  0  0  0  0  2  0  0  0  0  0  0
  184.4220  178.6250  144.4140 N   0  0  0  0  0  0  0  0  0  0  0  0
  182.3050  179.1930  143.4100 N   0  0  0  0  0  1  0  0  0  0  0  0
  185.6480  178.1580  141.9720 C   0  0  0  0  0  0  0  0  0  0  0  0
  183.6660  178.7830  143.3020 C   0  0  0  0  0  0  0  0  0  0  0  0
  184.0730  178.8170  145.6790 N   0  0  0  0  0  0  0  0  0  0  0  0
  182.7570  177.4760  140.3420 C   0  0  2  0  0  3  0  0  0  0  0  0
  183.4190  178.7400  140.8050 C   0  0  2  0  0  3  0  0  0  0  0  0
  184.2080  179.1790  139.6130 C   0  0  0  0  0  2  0  0  0  0  0  0
  182.7330  177.5150  138.8840 N   0  0  0  0  0  0  0  0  0  0  0  0
  183.5980  178.5520  138.4450 N   0  0  0  0  0  0  0  0  0  0  0  0
  181.3360  177.4140  140.8780 C   0  0  0  0  0  1  0  0  0  0  0  0
  183.2970  176.2530  138.4190 C   0  0  0  0  0  2  0  0  0  0  0  0
  185.0940  172.7210  137.1840 C   0  0  0  0  0  3  0  0  0  0  0  0
  183.4380  175.7100  135.9980 C   0  0  0  0  0  2  0  0  0  0  0  0
  184.1010  176.4620  137.1430 C   0  0  2  0  0  3  0  0  0  0  0  0
  185.9630  175.3120  135.6960 C   0  0  1  0  0  3  0  0  0  0  0  0
  184.7230  175.1750  136.5920 C   0  0  2  0  0  0  0  0  0  0  0  0
  185.8850  174.2800  134.5940 C   0  0  0  0  0  2  0  0  0  0  0  0
  186.0720  172.3100  136.1560 C   0  0  0  0  0  3  0  0  0  0  0  0
  186.4450  172.9710  135.0560 C   0  0  0  0  0  3  0  0  0  0  0  0
  184.5220  173.9160  137.3800 C   0  0  0  0  0  3  0  0  0  0  0  0
  186.1430  176.6900  135.0790 C   0  0  0  0  0  1  0  0  0  0  0  0
  182.7620  179.5690  137.8170 C   0  0  0  0  0  2  0  0  0  0  0  0
  182.3240  180.5910  138.8500 C   0  0  0  0  0  2  0  0  0  0  0  0
  180.0540  181.5740  139.8720 O   0  0  0  0  0  0  0  0  0  0  0  0
  180.6040  180.9740  138.6120 S   0  0  0  0  0  0  0  0  0  0  0  0
  179.8550  179.7100  138.2990 O   0  0  0  0  0  0  0  0  0  0  0  0
  180.4410  182.1300  137.2510 C   0  0  1  0  0  3  0  0  0  0  0  0
  180.3210  181.1830  135.2390 C   0  0  0  0  0  1  0  0  0  0  0  0
  179.5310  181.6500  136.2930 O   0  0  0  0  0  0  0  0  0  0  0  0
  180.0680  183.4790  137.7080 N   0  0  0  0  0  2  0  0  0  0  0  0
  181.9110  184.8580  137.3120 O   0  0  0  0  0  1  0  0  0  0  0  0
  179.7910  185.6710  136.8390 N   0  0  0  0  0  1  0  0  0  0  0  0
  180.6500  184.5010  136.8440 C   0  0  2  0  0  3  0  0  0  0  0  0
  186.2450  177.9420  140.6810 N   0  0  0  0  0  2  0  0  0  0  0  0
  187.6150  178.2570  140.3160 C   0  0  2  0  0  3  0  0  0  0  0  0
  187.9250  179.5550  140.7280 O   0  0  0  0  0  1  0  0  0  0  0  0
  187.8160  178.0530  138.8140 C   0  0  2  0  0  3  0  0  0  0  0  0
  187.3190  176.8120  138.4200 O   0  0  0  0  0  1  0  0  0  0  0  0
  189.2510  178.2610  138.3240 C   0  0  0  0  0  2  0  0  0  0  0  0
  190.1890  177.1680  138.8170 C   0  0  0  0  0  2  0  0  0  0  0  0
  190.2700  175.9830  137.8500 C   0  0  1  0  0  3  0  0  0  0  0  0
  190.9350  176.3630  136.5330 C   0  0  0  0  0  1  0  0  0  0  0  0
  190.9440  174.9040  138.4390 O   0  0  0  0  0  1  0  0  0  0  0  0
  188.1910  177.7960  147.1960 C   0  0  0  0  0  2  0  0  0  0  0  0
  191.5560  176.5120  146.1720 C   0  0  2  0  0  3  0  0  0  0  0  0
  190.4110  178.1760  149.1110 O   0  0  0  0  0  0  0  0  0  0  0  0
  191.8820  177.0350  147.5750 C   0  0  2  0  0  3  0  0  0  0  0  0
  192.3170  176.0070  148.3980 F   0  0  0  0  0  0  0  0  0  0  0  0
  189.5040  177.1730  147.1880 N   0  0  0  0  0  0  0  0  0  0  0  0
  190.0250  176.4640  146.0410 C   0  0  0  0  0  2  0  0  0  0  0  0
  190.5680  177.5190  148.0500 C   0  0  0  0  0  0  0  0  0  0  0  0
  192.1060  175.2600  145.9520 F   0  0  0  0  0  0  0  0  0  0  0  0
  1  2  2  0  0  0  0
  2 53  1  0  0  0  0
  3  2  1  0  0  0  0
  3  4  1  0  0  0  0
  5  8  1  0  0  0  0
  5  6  1  0  0  0  0
  6  9  1  0  0  0  0
  6  3  2  0  0  0  0
  7 12  2  0  0  0  0
  8  1  1  0  0  0  0
  9 13  1  0  0  0  0
 11  7  1  0  0  0  0
 11  5  2  0  0  0  0
 12 10  1  0  0  0  0
 12  9  1  0  0  0  0
 13  4  2  0  0  0  0
 14 15  1  0  0  0  0
 14 19  1  1  0  0  0
 15  7  1  1  0  0  0
 16 15  1  0  0  0  0
 17 14  1  0  0  0  0
 18 17  1  0  0  0  0
 18 16  1  0  0  0  0
 20 17  1  0  0  0  0
 21 29  2  0  0  0  0
 22 23  1  0  0  0  0
 23 20  1  1  0  0  0
 24 30  1  6  0  0  0
 24 25  1  0  0  0  0
 25 22  1  6  0  0  0
 25 23  1  0  0  0  0
 25 29  1  0  0  0  0
 26 28  1  0  0  0  0
 26 24  1  0  0  0  0
 27 21  1  0  0  0  0
 28 27  2  0  0  0  0
 31 18  1  0  0  0  0
 31 32  1  0  0  0  0
 34 32  1  0  0  0  0
 34 33  2  0  0  0  0
 35 34  2  0  0  0  0
 36 38  1  6  0  0  0
 36 39  1  0  0  0  0
 36 34  1  0  0  0  0
 37 38  1  0  0  0  0
 42 41  1  1  0  0  0
 42 40  1  0  0  0  0
 42 39  1  0  0  0  0
 43 11  1  0  0  0  0
 44 43  1  0  0  0  0
 44 45  1  6  0  0  0
 46 47  1  1  0  0  0
 46 44  1  0  0  0  0
 48 46  1  0  0  0  0
 48 49  1  0  0  0  0
 50 51  1  6  0  0  0
 50 52  1  0  0  0  0
 50 49  1  0  0  0  0
 54 61  1  1  0  0  0
 54 56  1  0  0  0  0
 56 60  1  0  0  0  0
 56 57  1  1  0  0  0
 58 53  1  0  0  0  0
 58 60  1  0  0  0  0
 59 54  1  0  0  0  0
 59 58  1  0  0  0  0
 60 55  2  0  0  0  0
M  END
>  <MODEL>
3

>  <REMARK>
 VINA RESULT:      -6.5      4.629     10.655
  Name = 
  18 active torsions:
  status: ('A' for Active; 'I' for Inactive)
    1  A    between atoms: C_2  and  N_9
    2  A    between atoms: C_2  and  C_29
    3  A    between atoms: C_3  and  C_30
    4  A    between atoms: C_3  and  C_58
    5  A    between atoms: C_4  and  C_8
    6  A    between atoms: C_4  and  N_44
    7  A    between atoms: N_9  and  C_51
    8  A    between atoms: C_12  and  S_16
    9  A    between atoms: C_12  and  C_26
   10  A    between atoms: O_13  and  C_15
   11  A    between atoms: C_15  and  S_16
   12  A    between atoms: C_15  and  N_35
   13  A    between atoms: C_18  and  C_19
   14  A    between atoms: C_18  and  N_41
   15  A    between atoms: C_23  and  C_37
   16  A    between atoms: C_26  and  N_45
   17  A    between atoms: C_29  and  C_58
   18  A    between atoms: N_35  and  C_40
                            x       y       z     vdW  Elec       q    Type
                         _______ _______ _______ _____ _____    ______ ____

>  <TORSDO>
F 18

$$$$
=
 OpenBabel11042413173D

 61 67  0  0  1  0  0  0  0  0999 V2000
  187.4930  177.1790  143.6390 C   0  0  0  0  0  3  0  0  0  0  0  0
  188.6570  177.1800  144.3190 C   0  0  0  0  0  0  0  0  0  0  0  0
  189.9030  177.2180  143.5520 C   0  0  0  0  0  0  0  0  0  0  0  0
  191.2510  177.2080  143.9070 C   0  0  0  0  0  3  0  0  0  0  0  0
  188.7660  177.2320  141.4050 C   0  0  0  0  0  0  0  0  0  0  0  0
  189.8910  177.2430  142.2040 C   0  0  0  0  0  0  0  0  0  0  0  0
  190.3280  177.2370  139.5000 C   0  0  0  0  0  0  0  0  0  0  0  0
  187.4130  177.2210  142.1080 C   0  0  0  0  0  2  0  0  0  0  0  0
  191.1340  177.2470  141.7400 N   0  0  0  0  0  0  0  0  0  0  0  0
  192.7630  177.2490  139.9620 N   0  0  0  0  0  1  0  0  0  0  0  0
  188.9790  177.2200  139.9970 C   0  0  0  0  0  0  0  0  0  0  0  0
  191.4110  177.2510  140.4150 C   0  0  0  0  0  0  0  0  0  0  0  0
  191.9860  177.2280  142.7570 N   0  0  0  0  0  0  0  0  0  0  0  0
  189.4760  177.6060  137.1640 C   0  0  2  0  0  3  0  0  0  0  0  0
  190.6460  177.2320  138.0250 C   0  0  2  0  0  3  0  0  0  0  0  0
  191.0390  175.8820  137.5140 C   0  0  0  0  0  2  0  0  0  0  0  0
  189.5660  176.8060  135.9480 N   0  0  0  0  0  0  0  0  0  0  0  0
  190.5200  175.7740  136.1550 N   0  0  0  0  0  0  0  0  0  0  0  0
  189.5460  179.0830  136.8140 C   0  0  0  0  0  1  0  0  0  0  0  0
  188.2680  176.1670  135.7660 C   0  0  0  0  0  2  0  0  0  0  0  0
  184.4980  174.4370  135.9110 C   0  0  0  0  0  3  0  0  0  0  0  0
  187.9080  173.8880  134.8400 C   0  0  0  0  0  2  0  0  0  0  0  0
  188.3570  174.6760  136.0620 C   0  0  2  0  0  3  0  0  0  0  0  0
  186.8730  172.6620  136.8520 C   0  0  1  0  0  3  0  0  0  0  0  0
  187.0010  173.9650  136.0490 C   0  0  2  0  0  0  0  0  0  0  0  0
  185.9940  171.7000  136.0850 C   0  0  0  0  0  2  0  0  0  0  0  0
  183.9250  173.1260  136.2800 C   0  0  0  0  0  3  0  0  0  0  0  0
  184.5500  171.9500  136.3870 C   0  0  0  0  0  3  0  0  0  0  0  0
  185.7810  174.8040  135.8110 C   0  0  0  0  0  3  0  0  0  0  0  0
  188.1990  171.9870  137.1680 C   0  0  0  0  0  1  0  0  0  0  0  0
  191.6400  176.0430  135.2600 C   0  0  0  0  0  2  0  0  0  0  0  0
  192.6860  174.9510  135.3950 C   0  0  0  0  0  2  0  0  0  0  0  0
  194.0250  176.7710  136.8310 O   0  0  0  0  0  0  0  0  0  0  0  0
  194.2500  175.6810  135.8260 S   0  0  0  0  0  0  0  0  0  0  0  0
  194.8780  176.2670  134.5940 O   0  0  0  0  0  0  0  0  0  0  0  0
  195.3200  174.4160  136.5110 C   0  0  1  0  0  3  0  0  0  0  0  0
  195.1070  172.2200  136.2080 C   0  0  0  0  0  1  0  0  0  0  0  0
  195.5410  173.3880  135.5770 O   0  0  0  0  0  0  0  0  0  0  0  0
  196.5930  174.9690  137.0010 N   0  0  0  0  0  2  0  0  0  0  0  0
  195.6940  174.9970  139.1570 O   0  0  0  0  0  1  0  0  0  0  0  0
  197.9750  175.3270  138.8990 N   0  0  0  0  0  1  0  0  0  0  0  0
  196.8050  174.6260  138.4040 C   0  0  2  0  0  3  0  0  0  0  0  0
  187.8930  177.1910  139.0540 N   0  0  0  0  0  2  0  0  0  0  0  0
  186.9690  178.2800  138.7900 C   0  0  2  0  0  3  0  0  0  0  0  0
  186.5200  178.8190  139.9970 O   0  0  0  0  0  1  0  0  0  0  0  0
  185.8250  177.7900  137.9030 C   0  0  2  0  0  3  0  0  0  0  0  0
  186.0630  178.1230  136.5710 O   0  0  0  0  0  1  0  0  0  0  0  0
  184.4300  178.2380  138.3490 C   0  0  0  0  0  2  0  0  0  0  0  0
  183.4420  177.0800  138.3860 C   0  0  0  0  0  2  0  0  0  0  0  0
  182.9850  176.7420  139.8080 C   0  0  1  0  0  3  0  0  0  0  0  0
  183.0050  177.9610  140.7210 C   0  0  0  0  0  1  0  0  0  0  0  0
  181.7080  176.1640  139.7980 O   0  0  0  0  0  1  0  0  0  0  0  0
  188.6730  177.1220  145.8100 C   0  0  0  0  0  2  0  0  0  0  0  0
  185.3020  178.2090  147.0250 C   0  0  2  0  0  3  0  0  0  0  0  0
  188.5850  178.6160  148.3590 O   0  0  0  0  0  0  0  0  0  0  0  0
  186.1910  178.8120  148.1180 C   0  0  2  0  0  3  0  0  0  0  0  0
  186.0720  180.1930  148.1480 F   0  0  0  0  0  0  0  0  0  0  0  0
  187.5700  177.8870  146.3680 N   0  0  0  0  0  0  0  0  0  0  0  0
  186.2190  177.7890  145.8640 C   0  0  0  0  0  2  0  0  0  0  0  0
  187.5500  178.4480  147.6630 C   0  0  0  0  0  0  0  0  0  0  0  0
  184.3440  179.1100  146.5900 F   0  0  0  0  0  0  0  0  0  0  0  0
  1  2  2  0  0  0  0
  2 53  1  0  0  0  0
  3  4  1  0  0  0  0
  3  2  1  0  0  0  0
  5  8  1  0  0  0  0
  5  6  1  0  0  0  0
  6  3  2  0  0  0  0
  7 11  1  0  0  0  0
  7 12  2  0  0  0  0
  8  1  1  0  0  0  0
  9  6  1  0  0  0  0
  9 13  1  0  0  0  0
 10 12  1  0  0  0  0
 11  5  2  0  0  0  0
 12  9  1  0  0  0  0
 13  4  2  0  0  0  0
 14 19  1  6  0  0  0
 14 15  1  0  0  0  0
 15  7  1  1  0  0  0
 16 15  1  0  0  0  0
 17 18  1  0  0  0  0
 17 14  1  0  0  0  0
 18 16  1  0  0  0  0
 20 17  1  0  0  0  0
 21 27  1  0  0  0  0
 22 23  1  0  0  0  0
 23 20  1  6  0  0  0
 24 30  1  6  0  0  0
 25 22  1  6  0  0  0
 25 23  1  0  0  0  0
 25 24  1  0  0  0  0
 26 28  1  0  0  0  0
 26 24  1  0  0  0  0
 27 28  2  0  0  0  0
 29 21  2  0  0  0  0
 29 25  1  0  0  0  0
 31 32  1  0  0  0  0
 31 18  1  0  0  0  0
 32 34  1  0  0  0  0
 34 36  1  0  0  0  0
 34 33  2  0  0  0  0
 35 34  2  0  0  0  0
 36 38  1  6  0  0  0
 36 39  1  0  0  0  0
 38 37  1  0  0  0  0
 39 42  1  0  0  0  0
 42 41  1  1  0  0  0
 42 40  1  0  0  0  0
 43 11  1  0  0  0  0
 44 43  1  0  0  0  0
 44 45  1  1  0  0  0
 46 47  1  6  0  0  0
 46 48  1  0  0  0  0
 46 44  1  0  0  0  0
 48 49  1  0  0  0  0
 49 50  1  0  0  0  0
 50 51  1  1  0  0  0
 52 50  1  0  0  0  0
 53 58  1  0  0  0  0
 54 61  1  6  0  0  0
 54 56  1  0  0  0  0
 56 57  1  6  0  0  0
 58 60  1  0  0  0  0
 59 58  1  0  0  0  0
 59 54  1  0  0  0  0
 60 56  1  0  0  0  0
 60 55  2  0  0  0  0
M  END
>  <MODEL>
4

>  <REMARK>
 VINA RESULT:      -6.5      4.297      8.529
  Name = 
  18 active torsions:
  status: ('A' for Active; 'I' for Inactive)
    1  A    between atoms: C_2  and  N_9
    2  A    between atoms: C_2  and  C_29
    3  A    between atoms: C_3  and  C_30
    4  A    between atoms: C_3  and  C_58
    5  A    between atoms: C_4  and  C_8
    6  A    between atoms: C_4  and  N_44
    7  A    between atoms: N_9  and  C_51
    8  A    between atoms: C_12  and  S_16
    9  A    between atoms: C_12  and  C_26
   10  A    between atoms: O_13  and  C_15
   11  A    between atoms: C_15  and  S_16
   12  A    between atoms: C_15  and  N_35
   13  A    between atoms: C_18  and  C_19
   14  A    between atoms: C_18  and  N_41
   15  A    between atoms: C_23  and  C_37
   16  A    between atoms: C_26  and  N_45
   17  A    between atoms: C_29  and  C_58
   18  A    between atoms: N_35  and  C_40
                            x       y       z     vdW  Elec       q    Type
                         _______ _______ _______ _____ _____    ______ ____

>  <TORSDO>
F 18

$$$$
=
 OpenBabel11042413173D

 61 67  0  0  1  0  0  0  0  0999 V2000
  193.5560  175.9290  137.0710 C   0  0  0  0  0  3  0  0  0  0  0  0
  193.7190  174.6820  136.5850 C   0  0  0  0  0  0  0  0  0  0  0  0
  192.5400  173.9840  136.0690 C   0  0  0  0  0  0  0  0  0  0  0  0
  192.3340  172.7170  135.5260 C   0  0  0  0  0  3  0  0  0  0  0  0
  191.0360  175.8240  136.5700 C   0  0  0  0  0  0  0  0  0  0  0  0
  191.3230  174.5650  136.0860 C   0  0  2  0  0  3  0  0  0  0  0  0
  188.6940  175.3270  135.9870 C   0  0  0  0  0  0  0  0  0  0  0  0
  192.2010  176.6480  137.1050 C   0  0  0  0  0  3  0  0  0  0  0  0
  190.4170  173.7310  135.5950 N   0  0  0  0  0  0  0  0  0  0  0  0
  188.1640  173.1230  134.9850 N   0  0  0  0  0  1  0  0  0  0  0  0
  189.6710  176.2300  136.5320 C   0  0  0  0  0  0  0  0  0  0  0  0
  189.1050  174.0540  135.5150 C   0  0  0  0  0  0  0  0  0  0  0  0
  191.0050  172.5950  135.2430 N   0  0  0  0  0  0  0  0  0  0  0  0
  186.9520  177.1350  136.1150 C   0  0  2  0  0  3  0  0  0  0  0  0
  187.2290  175.6760  135.9030 C   0  0  2  0  0  3  0  0  0  0  0  0
  186.4050  175.0060  136.9560 C   0  0  0  0  0  2  0  0  0  0  0  0
  185.6870  177.2310  136.8340 N   0  0  0  0  0  0  0  0  0  0  0  0
  185.3500  175.9430  137.3300 N   0  0  0  0  0  0  0  0  0  0  0  0
  186.8350  177.8370  134.7730 C   0  0  0  0  0  1  0  0  0  0  0  0
  185.9220  178.0910  137.9880 C   0  0  0  0  0  2  0  0  0  0  0  0
  186.7720  178.2670  142.0470 C   0  0  0  0  0  3  0  0  0  0  0  0
  184.6350  179.6210  139.4640 C   0  0  0  0  0  2  0  0  0  0  0  0
  184.6510  178.2470  138.8100 C   0  0  2  0  0  3  0  0  0  0  0  0
  183.7710  178.0050  141.2700 C   0  0  1  0  0  3  0  0  0  0  0  0
  184.9060  178.3990  140.3130 C   0  0  2  0  0  0  0  0  0  0  0  0
  183.7530  178.9730  142.4310 C   0  0  0  0  0  2  0  0  0  0  0  0
  186.0070  178.2670  143.3110 C   0  0  0  0  0  3  0  0  0  0  0  0
  184.7120  178.5390  143.4940 C   0  0  0  0  0  3  0  0  0  0  0  0
  186.3260  178.3200  140.7860 C   0  0  0  0  0  3  0  0  0  0  0  0
  182.3930  177.9670  140.6280 C   0  0  0  0  0  1  0  0  0  0  0  0
  184.1460  175.5160  136.6250 C   0  0  0  0  0  2  0  0  0  0  0  0
  183.0930  175.0660  137.6210 C   0  0  0  0  0  2  0  0  0  0  0  0
  181.9200  172.6950  137.2180 O   0  0  0  0  0  0  0  0  0  0  0  0
  181.8430  174.1260  136.7750 S   0  0  0  0  0  0  0  0  0  0  0  0
  182.0860  174.1990  135.2950 O   0  0  0  0  0  0  0  0  0  0  0  0
  180.2310  174.8090  137.1610 C   0  0  1  0  0  3  0  0  0  0  0  0
  178.9340  173.8710  135.6130 C   0  0  0  0  0  1  0  0  0  0  0  0
  179.5120  175.0880  135.9860 O   0  0  0  0  0  0  0  0  0  0  0  0
  179.4580  173.9380  138.0620 N   0  0  0  0  0  2  0  0  0  0  0  0
  179.8640  175.8230  139.3810 O   0  0  0  0  0  1  0  0  0  0  0  0
  179.5970  173.7690  140.4270 N   0  0  0  0  0  1  0  0  0  0  0  0
  179.1750  174.6140  139.3240 C   0  0  2  0  0  3  0  0  0  0  0  0
  189.2340  177.5110  137.0200 N   0  0  0  0  0  2  0  0  0  0  0  0
  188.9410  177.8370  138.4040 C   0  0  2  0  0  3  0  0  0  0  0  0
  189.0570  179.2150  138.5980 O   0  0  0  0  0  1  0  0  0  0  0  0
  189.8520  177.0340  139.3340 C   0  0  2  0  0  3  0  0  0  0  0  0
  189.1270  176.0420  139.9900 O   0  0  0  0  0  1  0  0  0  0  0  0
  190.6660  177.8760  140.3200 C   0  0  0  0  0  2  0  0  0  0  0  0
  191.5000  177.0130  141.2570 C   0  0  0  0  0  2  0  0  0  0  0  0
  191.4630  177.5120  142.7050 C   0  0  1  0  0  3  0  0  0  0  0  0
  190.1600  178.2300  143.0300 C   0  0  0  0  0  1  0  0  0  0  0  0
  191.6710  176.4550  143.6020 O   0  0  0  0  0  1  0  0  0  0  0  0
  195.0590  174.0260  136.5920 C   0  0  0  0  0  2  0  0  0  0  0  0
  196.6660  174.5060  139.9400 C   0  0  2  0  0  3  0  0  0  0  0  0
  197.9550  174.6200  136.6160 O   0  0  0  0  0  0  0  0  0  0  0  0
  197.8670  174.7690  139.0240 C   0  0  2  0  0  3  0  0  0  0  0  0
  198.3430  176.0610  139.1900 F   0  0  0  0  0  0  0  0  0  0  0  0
  195.8680  174.5190  137.6940 N   0  0  0  0  0  0  0  0  0  0  0  0
  195.4040  174.5230  139.0630 C   0  0  0  0  0  2  0  0  0  0  0  0
  197.2750  174.6350  137.6750 C   0  0  0  0  0  0  0  0  0  0  0  0
  196.5750  175.4520  140.9480 F   0  0  0  0  0  0  0  0  0  0  0  0
  1  8  2  0  0  0  0
  2 53  1  0  0  0  0
  2  1  1  0  0  0  0
  3  2  2  0  0  0  0
  4  3  1  0  0  0  0
  5  8  1  0  0  0  0
  6  3  1  1  0  0  0
  6  5  1  0  0  0  0
  7 11  1  0  0  0  0
  9  6  1  0  0  0  0
 10 12  1  0  0  0  0
 11  5  2  0  0  0  0
 11 43  1  0  0  0  0
 12  9  1  0  0  0  0
 12  7  2  0  0  0  0
 13  4  2  0  0  0  0
 13  9  1  0  0  0  0
 14 19  1  6  0  0  0
 14 17  1  0  0  0  0
 15  7  1  1  0  0  0
 15 14  1  0  0  0  0
 15 16  1  0  0  0  0
 16 18  1  0  0  0  0
 17 18  1  0  0  0  0
 17 20  1  0  0  0  0
 21 27  1  0  0  0  0
 23 20  1  6  0  0  0
 23 22  1  0  0  0  0
 23 25  1  0  0  0  0
 24 30  1  6  0  0  0
 24 26  1  0  0  0  0
 25 22  1  1  0  0  0
 25 29  1  0  0  0  0
 25 24  1  0  0  0  0
 26 28  1  0  0  0  0
 27 28  2  0  0  0  0
 29 21  2  0  0  0  0
 31 18  1  0  0  0  0
 31 32  1  0  0  0  0
 34 36  1  0  0  0  0
 34 33  2  0  0  0  0
 34 32  1  0  0  0  0
 35 34  2  0  0  0  0
 36 38  1  6  0  0  0
 36 39  1  0  0  0  0
 37 38  1  0  0  0  0
 39 42  1  0  0  0  0
 42 40  1  6  0  0  0
 42 41  1  0  0  0  0
 43 44  1  0  0  0  0
 44 45  1  6  0  0  0
 44 46  1  0  0  0  0
 46 47  1  1  0  0  0
 46 48  1  0  0  0  0
 48 49  1  0  0  0  0
 49 50  1  0  0  0  0
 50 51  1  1  0  0  0
 50 52  1  0  0  0  0
 53 58  1  0  0  0  0
 54 61  1  1  0  0  0
 55 60  2  0  0  0  0
 56 57  1  6  0  0  0
 56 54  1  0  0  0  0
 58 59  1  0  0  0  0
 59 54  1  0  0  0  0
 60 58  1  0  0  0  0
 60 56  1  0  0  0  0
M  END
>  <MODEL>
5

>  <REMARK>
 VINA RESULT:      -5.6      4.368     10.567
  Name = 
  18 active torsions:
  status: ('A' for Active; 'I' for Inactive)
    1  A    between atoms: C_2  and  N_9
    2  A    between atoms: C_2  and  C_29
    3  A    between atoms: C_3  and  C_30
    4  A    between atoms: C_3  and  C_58
    5  A    between atoms: C_4  and  C_8
    6  A    between atoms: C_4  and  N_44
    7  A    between atoms: N_9  and  C_51
    8  A    between atoms: C_12  and  S_16
    9  A    between atoms: C_12  and  C_26
   10  A    between atoms: O_13  and  C_15
   11  A    between atoms: C_15  and  S_16
   12  A    between atoms: C_15  and  N_35
   13  A    between atoms: C_18  and  C_19
   14  A    between atoms: C_18  and  N_41
   15  A    between atoms: C_23  and  C_37
   16  A    between atoms: C_26  and  N_45
   17  A    between atoms: C_29  and  C_58
   18  A    between atoms: N_35  and  C_40
                            x       y       z     vdW  Elec       q    Type
                         _______ _______ _______ _____ _____    ______ ____

>  <TORSDO>
F 18

$$$$
=
 OpenBabel11042413173D

 61 67  0  0  1  0  0  0  0  0999 V2000
  189.7710  177.5580  139.5390 C   0  0  0  0  0  3  0  0  0  0  0  0
  190.1780  177.3950  138.2640 C   0  0  0  0  0  0  0  0  0  0  0  0
  189.1560  177.3420  137.2180 C   0  0  0  0  0  0  0  0  0  0  0  0
  189.2040  177.1670  135.8350 C   0  0  0  0  0  3  0  0  0  0  0  0
  187.3150  177.5990  138.7810 C   0  0  0  0  0  0  0  0  0  0  0  0
  187.8450  177.4440  137.5170 C   0  0  2  0  0  3  0  0  0  0  0  0
  185.1130  177.5440  137.6780 C   0  0  0  0  0  0  0  0  0  0  0  0
  188.2980  177.6950  139.9420 C   0  0  0  0  0  3  0  0  0  0  0  0
  187.1190  177.3410  136.4120 N   0  0  0  0  0  0  0  0  0  0  0  0
  185.0260  177.2670  135.2160 N   0  0  0  0  0  1  0  0  0  0  0  0
  185.8950  177.6440  138.8800 C   0  0  0  0  0  0  0  0  0  0  0  0
  185.7660  177.3890  136.4290 C   0  0  0  0  0  0  0  0  0  0  0  0
  187.9220  177.1720  135.3690 N   0  0  0  0  0  0  0  0  0  0  0  0
  182.9700  176.2290  137.7120 C   0  0  2  0  0  3  0  0  0  0  0  0
  183.6050  177.5880  137.6880 C   0  0  2  0  0  3  0  0  0  0  0  0
  183.0280  178.2220  136.4630 C   0  0  0  0  0  2  0  0  0  0  0  0
  181.7560  176.3090  136.9080 N   0  0  0  0  0  0  0  0  0  0  0  0
  181.7840  177.5190  136.1650 N   0  0  0  0  0  0  0  0  0  0  0  0
  182.6170  175.8510  139.1410 C   0  0  0  0  0  1  0  0  0  0  0  0
  181.8110  175.2100  135.9510 C   0  0  0  0  0  2  0  0  0  0  0  0
  181.1240  171.1740  135.2690 C   0  0  0  0  0  3  0  0  0  0  0  0
  183.5300  173.8330  134.7990 C   0  0  0  0  0  2  0  0  0  0  0  0
  183.0830  174.3960  136.1400 C   0  0  2  0  0  3  0  0  0  0  0  0
  183.8880  171.9230  136.4850 C   0  0  1  0  0  3  0  0  0  0  0  0
  182.9110  172.9070  135.8240 C   0  0  2  0  0  0  0  0  0  0  0  0
  184.2200  170.8270  135.4980 C   0  0  0  0  0  2  0  0  0  0  0  0
  181.8730  169.9110  135.4230 C   0  0  0  0  0  3  0  0  0  0  0  0
  183.1930  169.7410  135.5500 C   0  0  0  0  0  3  0  0  0  0  0  0
  181.5430  172.4350  135.4340 C   0  0  0  0  0  3  0  0  0  0  0  0
  185.1770  172.5560  136.9840 C   0  0  0  0  0  1  0  0  0  0  0  0
  180.7020  178.3560  136.6710 C   0  0  0  0  0  2  0  0  0  0  0  0
  180.7500  179.7210  136.0090 C   0  0  0  0  0  2  0  0  0  0  0  0
  181.9100  181.0760  138.0050 O   0  0  0  0  0  0  0  0  0  0  0  0
  180.6150  180.9860  137.2530 S   0  0  0  0  0  0  0  0  0  0  0  0
  179.5130  180.6250  138.2070 O   0  0  0  0  0  0  0  0  0  0  0  0
  180.2460  182.5520  136.4620 C   0  0  1  0  0  3  0  0  0  0  0  0
  179.5590  183.5590  134.5980 C   0  0  0  0  0  1  0  0  0  0  0  0
  179.4690  182.3580  135.3070 O   0  0  0  0  0  0  0  0  0  0  0  0
  179.6000  183.5010  137.3820 N   0  0  0  0  0  2  0  0  0  0  0  0
  180.0160  185.7750  137.0480 O   0  0  0  0  0  1  0  0  0  0  0  0
  181.8200  184.3240  137.1970 N   0  0  0  0  0  1  0  0  0  0  0  0
  180.4840  184.6250  137.6780 C   0  0  2  0  0  3  0  0  0  0  0  0
  185.2140  177.7860  140.1390 N   0  0  0  0  0  2  0  0  0  0  0  0
  184.5970  179.0020  140.6380 C   0  0  2  0  0  3  0  0  0  0  0  0
  184.7310  180.0200  139.6920 O   0  0  0  0  0  1  0  0  0  0  0  0
  185.2000  179.3760  141.9930 C   0  0  2  0  0  3  0  0  0  0  0  0
  186.5630  179.6320  141.8660 O   0  0  0  0  0  1  0  0  0  0  0  0
  184.9230  178.3740  143.1180 C   0  0  0  0  0  2  0  0  0  0  0  0
  185.8180  178.6080  144.3260 C   0  0  0  0  0  2  0  0  0  0  0  0
  185.1350  178.2360  145.6450 C   0  0  1  0  0  3  0  0  0  0  0  0
  186.0910  178.3160  146.8280 C   0  0  0  0  0  1  0  0  0  0  0  0
  184.0140  179.0460  145.8730 O   0  0  0  0  0  1  0  0  0  0  0  0
  191.6250  177.2510  137.9340 C   0  0  0  0  0  2  0  0  0  0  0  0
  191.9290  173.9120  136.2650 C   0  0  2  0  0  3  0  0  0  0  0  0
  194.2550  175.9090  138.0890 O   0  0  0  0  0  0  0  0  0  0  0  0
  193.3340  174.0440  136.8650 C   0  0  2  0  0  3  0  0  0  0  0  0
  193.5800  173.0290  137.7780 F   0  0  0  0  0  0  0  0  0  0  0  0
  191.9500  175.8680  137.6280 N   0  0  0  0  0  0  0  0  0  0  0  0
  191.0480  174.9940  136.9120 C   0  0  0  0  0  2  0  0  0  0  0  0
  193.2570  175.3370  137.5790 C   0  0  0  0  0  0  0  0  0  0  0  0
  191.3960  172.6530  136.4830 F   0  0  0  0  0  0  0  0  0  0  0  0
  1  8  2  0  0  0  0
  2  1  1  0  0  0  0
  3  2  2  0  0  0  0
  4  3  1  0  0  0  0
  5 11  2  0  0  0  0
  5  8  1  0  0  0  0
  6  3  1  1  0  0  0
  6  5  1  0  0  0  0
  7 11  1  0  0  0  0
  9 12  1  0  0  0  0
  9  6  1  0  0  0  0
 10 12  1  0  0  0  0
 11 43  1  0  0  0  0
 12  7  2  0  0  0  0
 13  4  2  0  0  0  0
 13  9  1  0  0  0  0
 14 19  1  1  0  0  0
 15  7  1  6  0  0  0
 15 14  1  0  0  0  0
 16 15  1  0  0  0  0
 17 14  1  0  0  0  0
 18 16  1  0  0  0  0
 18 31  1  0  0  0  0
 18 17  1  0  0  0  0
 20 17  1  0  0  0  0
 21 27  1  0  0  0  0
 21 29  2  0  0  0  0
 22 23  1  0  0  0  0
 23 20  1  6  0  0  0
 24 30  1  6  0  0  0
 25 22  1  6  0  0  0
 25 23  1  0  0  0  0
 25 24  1  0  0  0  0
 26 28  1  0  0  0  0
 26 24  1  0  0  0  0
 27 28  2  0  0  0  0
 29 25  1  0  0  0  0
 32 31  1  0  0  0  0
 32 34  1  0  0  0  0
 34 33  2  0  0  0  0
 34 35  2  0  0  0  0
 36 38  1  6  0  0  0
 36 34  1  0  0  0  0
 36 39  1  0  0  0  0
 37 38  1  0  0  0  0
 39 42  1  0  0  0  0
 41 42  1  0  0  0  0
 42 40  1  6  0  0  0
 43 44  1  0  0  0  0
 44 45  1  6  0  0  0
 44 46  1  0  0  0  0
 46 47  1  6  0  0  0
 46 48  1  0  0  0  0
 48 49  1  0  0  0  0
 49 50  1  0  0  0  0
 50 52  1  0  0  0  0
 50 51  1  1  0  0  0
 53  2  1  0  0  0  0
 54 61  1  1  0  0  0
 54 56  1  0  0  0  0
 54 59  1  0  0  0  0
 56 60  1  0  0  0  0
 56 57  1  1  0  0  0
 58 53  1  0  0  0  0
 59 58  1  0  0  0  0
 60 58  1  0  0  0  0
 60 55  2  0  0  0  0
M  END
>  <MODEL>
6

>  <REMARK>
 VINA RESULT:      -5.4      4.059      9.527
  Name = 
  18 active torsions:
  status: ('A' for Active; 'I' for Inactive)
    1  A    between atoms: C_2  and  N_9
    2  A    between atoms: C_2  and  C_29
    3  A    between atoms: C_3  and  C_30
    4  A    between atoms: C_3  and  C_58
    5  A    between atoms: C_4  and  C_8
    6  A    between atoms: C_4  and  N_44
    7  A    between atoms: N_9  and  C_51
    8  A    between atoms: C_12  and  S_16
    9  A    between atoms: C_12  and  C_26
   10  A    between atoms: O_13  and  C_15
   11  A    between atoms: C_15  and  S_16
   12  A    between atoms: C_15  and  N_35
   13  A    between atoms: C_18  and  C_19
   14  A    between atoms: C_18  and  N_41
   15  A    between atoms: C_23  and  C_37
   16  A    between atoms: C_26  and  N_45
   17  A    between atoms: C_29  and  C_58
   18  A    between atoms: N_35  and  C_40
                            x       y       z     vdW  Elec       q    Type
                         _______ _______ _______ _____ _____    ______ ____

>  <TORSDO>
F 18

$$$$
=
 OpenBabel11042413173D

 61 67  0  0  1  0  0  0  0  0999 V2000
  190.7180  178.0290  142.3320 C   0  0  0  0  0  3  0  0  0  0  0  0
  190.3820  178.0330  143.6380 C   0  0  0  0  0  0  0  0  0  0  0  0
  188.9620  178.1100  143.9830 C   0  0  0  0  0  0  0  0  0  0  0  0
  188.2670  178.1570  145.1910 C   0  0  0  0  0  3  0  0  0  0  0  0
  188.2410  178.2000  141.6650 C   0  0  0  0  0  0  0  0  0  0  0  0
  188.0150  178.1830  143.0260 C   0  0  0  0  0  0  0  0  0  0  0  0
  185.7970  178.4090  141.4350 C   0  0  0  0  0  0  0  0  0  0  0  0
  189.6880  178.0950  141.1980 C   0  0  0  0  0  2  0  0  0  0  0  0
  186.8140  178.2720  143.5830 N   0  0  0  0  0  0  0  0  0  0  0  0
  184.4140  178.4770  143.4900 N   0  0  0  0  0  1  0  0  0  0  0  0
  187.0970  178.3250  140.8260 C   0  0  0  0  0  0  0  0  0  0  0  0
  185.6830  178.3780  142.8480 C   0  0  0  0  0  0  0  0  0  0  0  0
  186.9370  178.2560  144.9040 N   0  0  0  0  0  0  0  0  0  0  0  0
  184.0780  177.2400  140.0210 C   0  0  2  0  0  3  0  0  0  0  0  0
  184.5310  178.5370  140.6230 C   0  0  2  0  0  3  0  0  0  0  0  0
  184.6820  179.4390  139.4400 C   0  0  0  0  0  2  0  0  0  0  0  0
  183.5020  177.5510  138.7180 N   0  0  0  0  0  0  0  0  0  0  0  0
  183.8550  178.8830  138.3740 N   0  0  0  0  0  0  0  0  0  0  0  0
  183.0240  176.6010  140.9100 C   0  0  0  0  0  1  0  0  0  0  0  0
  184.1450  176.6680  137.7510 C   0  0  0  0  0  2  0  0  0  0  0  0
  185.5210  172.7910  137.2040 C   0  0  0  0  0  3  0  0  0  0  0  0
  182.5830  174.7490  137.9850 C   0  0  0  0  0  2  0  0  0  0  0  0
  183.1100  175.8130  137.0340 C   0  0  2  0  0  3  0  0  0  0  0  0
  182.8880  173.5470  135.7300 C   0  0  1  0  0  3  0  0  0  0  0  0
  183.5290  174.3480  136.8740 C   0  0  2  0  0  0  0  0  0  0  0  0
  182.6350  172.1350  136.2060 C   0  0  0  0  0  2  0  0  0  0  0  0
  185.0770  171.5800  136.4840 C   0  0  0  0  0  3  0  0  0  0  0  0
  183.8560  171.2900  136.0250 C   0  0  0  0  0  3  0  0  0  0  0  0
  184.8860  173.9570  137.3740 C   0  0  0  0  0  3  0  0  0  0  0  0
  181.5910  174.1370  135.1990 C   0  0  0  0  0  1  0  0  0  0  0  0
  182.6210  179.6610  138.3570 C   0  0  0  0  0  2  0  0  0  0  0  0
  181.7600  179.2420  137.1790 C   0  0  0  0  0  2  0  0  0  0  0  0
  179.3950  179.9520  136.1460 O   0  0  0  0  0  0  0  0  0  0  0  0
  180.0800  179.7510  137.4650 S   0  0  0  0  0  0  0  0  0  0  0  0
  180.0790  181.0470  138.2240 O   0  0  0  0  0  0  0  0  0  0  0  0
  179.2360  178.4880  138.4170 C   0  0  1  0  0  3  0  0  0  0  0  0
  178.9320  176.2940  138.6440 C   0  0  0  0  0  1  0  0  0  0  0  0
  179.8900  177.2490  138.2940 O   0  0  0  0  0  0  0  0  0  0  0  0
  179.0810  178.8670  139.8310 N   0  0  0  0  0  2  0  0  0  0  0  0
  179.8570  177.6750  141.6840 O   0  0  0  0  0  1  0  0  0  0  0  0
  180.9220  179.6540  141.1080 N   0  0  0  0  0  1  0  0  0  0  0  0
  180.2500  178.4680  140.6090 C   0  0  2  0  0  3  0  0  0  0  0  0
  187.1950  178.3720  139.3920 N   0  0  0  0  0  2  0  0  0  0  0  0
  188.4090  178.1830  138.6180 C   0  0  2  0  0  3  0  0  0  0  0  0
  189.0400  179.4140  138.4230 O   0  0  0  0  0  1  0  0  0  0  0  0
  188.0840  177.4740  137.3020 C   0  0  2  0  0  3  0  0  0  0  0  0
  186.8180  177.8400  136.8510 O   0  0  0  0  0  1  0  0  0  0  0  0
  188.2470  175.9520  137.3360 C   0  0  0  0  0  2  0  0  0  0  0  0
  189.1570  175.4490  136.2240 C   0  0  0  0  0  2  0  0  0  0  0  0
  190.4850  174.9020  136.7530 C   0  0  1  0  0  3  0  0  0  0  0  0
  191.2110  175.9110  137.6330 C   0  0  0  0  0  1  0  0  0  0  0  0
  190.2880  173.7020  137.4530 O   0  0  0  0  0  1  0  0  0  0  0  0
  191.4300  177.9820  144.6990 C   0  0  0  0  0  2  0  0  0  0  0  0
  192.4780  174.4490  145.3680 C   0  0  2  0  0  3  0  0  0  0  0  0
  191.6820  177.1720  147.5310 O   0  0  0  0  0  0  0  0  0  0  0  0
  192.2770  174.9480  146.8040 C   0  0  2  0  0  3  0  0  0  0  0  0
  191.2820  174.2250  147.4450 F   0  0  0  0  0  0  0  0  0  0  0  0
  191.5460  176.6400  145.2450 N   0  0  0  0  0  0  0  0  0  0  0  0
  191.8450  175.4870  144.4260 C   0  0  0  0  0  2  0  0  0  0  0  0
  191.8160  176.3390  146.5980 C   0  0  0  0  0  0  0  0  0  0  0  0
  191.9080  173.2020  145.1770 F   0  0  0  0  0  0  0  0  0  0  0  0
  1  2  2  0  0  0  0
  2  3  1  0  0  0  0
  2 53  1  0  0  0  0
  3  4  1  0  0  0  0
  5  6  1  0  0  0  0
  6  9  1  0  0  0  0
  6  3  2  0  0  0  0
  7 12  2  0  0  0  0
  8  5  1  0  0  0  0
  8  1  1  0  0  0  0
  9 13  1  0  0  0  0
 11  7  1  0  0  0  0
 11  5  2  0  0  0  0
 12 10  1  0  0  0  0
 12  9  1  0  0  0  0
 13  4  2  0  0  0  0
 14 15  1  0  0  0  0
 14 19  1  1  0  0  0
 15  7  1  6  0  0  0
 16 15  1  0  0  0  0
 17 14  1  0  0  0  0
 18 17  1  0  0  0  0
 18 16  1  0  0  0  0
 20 17  1  0  0  0  0
 21 29  2  0  0  0  0
 23 20  1  1  0  0  0
 23 22  1  0  0  0  0
 24 30  1  1  0  0  0
 24 26  1  0  0  0  0
 24 25  1  0  0  0  0
 25 23  1  0  0  0  0
 25 29  1  1  0  0  0
 25 22  1  0  0  0  0
 27 21  1  0  0  0  0
 28 26  1  0  0  0  0
 28 27  2  0  0  0  0
 31 18  1  0  0  0  0
 32 34  1  0  0  0  0
 32 31  1  0  0  0  0
 33 34  2  0  0  0  0
 34 35  2  0  0  0  0
 34 36  1  0  0  0  0
 36 38  1  1  0  0  0
 36 39  1  0  0  0  0
 38 37  1  0  0  0  0
 39 42  1  0  0  0  0
 42 41  1  1  0  0  0
 42 40  1  0  0  0  0
 43 11  1  0  0  0  0
 44 45  1  6  0  0  0
 44 43  1  0  0  0  0
 46 47  1  1  0  0  0
 46 48  1  0  0  0  0
 46 44  1  0  0  0  0
 49 50  1  0  0  0  0
 49 48  1  0  0  0  0
 50 52  1  0  0  0  0
 50 51  1  1  0  0  0
 53 58  1  0  0  0  0
 54 61  1  1  0  0  0
 54 56  1  0  0  0  0
 56 57  1  6  0  0  0
 58 60  1  0  0  0  0
 59 58  1  0  0  0  0
 59 54  1  0  0  0  0
 60 56  1  0  0  0  0
 60 55  2  0  0  0  0
M  END
>  <MODEL>
7

>  <REMARK>
 VINA RESULT:      -5.3      4.113     10.355
  Name = 
  18 active torsions:
  status: ('A' for Active; 'I' for Inactive)
    1  A    between atoms: C_2  and  N_9
    2  A    between atoms: C_2  and  C_29
    3  A    between atoms: C_3  and  C_30
    4  A    between atoms: C_3  and  C_58
    5  A    between atoms: C_4  and  C_8
    6  A    between atoms: C_4  and  N_44
    7  A    between atoms: N_9  and  C_51
    8  A    between atoms: C_12  and  S_16
    9  A    between atoms: C_12  and  C_26
   10  A    between atoms: O_13  and  C_15
   11  A    between atoms: C_15  and  S_16
   12  A    between atoms: C_15  and  N_35
   13  A    between atoms: C_18  and  C_19
   14  A    between atoms: C_18  and  N_41
   15  A    between atoms: C_23  and  C_37
   16  A    between atoms: C_26  and  N_45
   17  A    between atoms: C_29  and  C_58
   18  A    between atoms: N_35  and  C_40
                            x       y       z     vdW  Elec       q    Type
                         _______ _______ _______ _____ _____    ______ ____

>  <TORSDO>
F 18

$$$$
=
 OpenBabel11042413173D

 61 67  0  0  1  0  0  0  0  0999 V2000
  182.8510  177.8070  136.4390 C   0  0  0  0  0  3  0  0  0  0  0  0
  182.1920  178.2100  137.5440 C   0  0  0  0  0  0  0  0  0  0  0  0
  182.9770  178.5160  138.7400 C   0  0  0  0  0  0  0  0  0  0  0  0
  182.6430  178.9260  140.0310 C   0  0  0  0  0  3  0  0  0  0  0  0
  185.0960  177.9770  137.6810 C   0  0  0  0  0  0  0  0  0  0  0  0
  184.3200  178.3920  138.7440 C   0  0  0  0  0  0  0  0  0  0  0  0
  187.0140  178.2180  139.2090 C   0  0  0  0  0  0  0  0  0  0  0  0
  184.3770  177.6600  136.3750 C   0  0  0  0  0  2  0  0  0  0  0  0
  184.8000  178.6970  139.9420 N   0  0  0  0  0  0  0  0  0  0  0  0
  186.5910  178.9680  141.5330 N   0  0  0  0  0  1  0  0  0  0  0  0
  186.4970  177.8750  137.9120 C   0  0  0  0  0  0  0  0  0  0  0  0
  186.1210  178.6360  140.2280 C   0  0  0  0  0  0  0  0  0  0  0  0
  183.7990  179.0290  140.7480 N   0  0  0  0  0  0  0  0  0  0  0  0
  189.3490  177.8750  138.3440 C   0  0  2  0  0  3  0  0  0  0  0  0
  188.4840  178.1450  139.5390 C   0  0  2  0  0  3  0  0  0  0  0  0
  188.8200  177.0270  140.4740 C   0  0  0  0  0  2  0  0  0  0  0  0
  190.4480  177.0270  138.7930 N   0  0  0  0  0  0  0  0  0  0  0  0
  190.1340  176.5270  140.0850 N   0  0  0  0  0  0  0  0  0  0  0  0
  189.8970  179.1830  137.7990 C   0  0  0  0  0  1  0  0  0  0  0  0
  190.4980  175.8860  137.8870 C   0  0  0  0  0  2  0  0  0  0  0  0
  190.6920  172.7860  135.1330 C   0  0  0  0  0  3  0  0  0  0  0  0
  192.3380  175.8180  136.2170 C   0  0  0  0  0  2  0  0  0  0  0  0
  191.9380  175.4580  137.6410 C   0  0  2  0  0  3  0  0  0  0  0  0
  193.3310  173.4800  136.6270 C   0  0  1  0  0  3  0  0  0  0  0  0
  192.0810  174.3700  136.5720 C   0  0  2  0  0  0  0  0  0  0  0  0
  193.7890  173.1930  135.2150 C   0  0  0  0  0  2  0  0  0  0  0  0
  191.7280  171.8750  134.6050 C   0  0  0  0  0  3  0  0  0  0  0  0
  193.0560  172.0160  134.6530 C   0  0  0  0  0  3  0  0  0  0  0  0
  190.8240  173.8320  135.9580 C   0  0  0  0  0  3  0  0  0  0  0  0
  194.4890  174.0700  137.4180 C   0  0  0  0  0  1  0  0  0  0  0  0
  191.0940  177.1140  141.0140 C   0  0  0  0  0  2  0  0  0  0  0  0
  190.3850  177.5550  142.2820 C   0  0  0  0  0  2  0  0  0  0  0  0
  192.1880  176.2380  143.7580 O   0  0  0  0  0  0  0  0  0  0  0  0
  190.7050  176.3800  143.5770 S   0  0  0  0  0  0  0  0  0  0  0  0
  190.1250  175.0490  143.1920 O   0  0  0  0  0  0  0  0  0  0  0  0
  189.9470  176.9570  145.0960 C   0  0  1  0  0  3  0  0  0  0  0  0
  191.6340  176.3600  146.4220 C   0  0  0  0  0  1  0  0  0  0  0  0
  190.9170  177.4730  145.9740 O   0  0  0  0  0  0  0  0  0  0  0  0
  188.8810  177.9410  144.8470 N   0  0  0  0  0  2  0  0  0  0  0  0
  187.1590  176.5800  144.0480 O   0  0  0  0  0  1  0  0  0  0  0  0
  186.6080  178.4360  145.3240 N   0  0  0  0  0  1  0  0  0  0  0  0
  187.5670  177.3660  145.1210 C   0  0  2  0  0  3  0  0  0  0  0  0
  187.4160  177.4390  136.8940 N   0  0  0  0  0  2  0  0  0  0  0  0
  187.2760  176.2450  136.0790 C   0  0  2  0  0  3  0  0  0  0  0  0
  186.5930  176.5560  134.9010 O   0  0  0  0  0  1  0  0  0  0  0  0
  186.5870  175.1420  136.8840 C   0  0  2  0  0  3  0  0  0  0  0  0
  187.5320  174.3020  137.4690 O   0  0  0  0  0  1  0  0  0  0  0  0
  185.5340  174.3440  136.1090 C   0  0  0  0  0  2  0  0  0  0  0  0
  184.5490  173.6460  137.0370 C   0  0  0  0  0  2  0  0  0  0  0  0
  183.2610  173.2280  136.3200 C   0  0  1  0  0  3  0  0  0  0  0  0
  182.2670  174.3760  136.2130 C   0  0  0  0  0  1  0  0  0  0  0  0
  183.5440  172.7110  135.0470 O   0  0  0  0  0  1  0  0  0  0  0  0
  180.7040  178.3200  137.5510 C   0  0  0  0  0  2  0  0  0  0  0  0
  179.1240  181.2990  135.9230 C   0  0  2  0  0  3  0  0  0  0  0  0
  179.5370  180.3640  139.3400 O   0  0  0  0  0  0  0  0  0  0  0  0
  178.9440  181.6710  137.3990 C   0  0  2  0  0  3  0  0  0  0  0  0
  179.6190  182.8440  137.7000 F   0  0  0  0  0  0  0  0  0  0  0  0
  180.2840  179.6720  137.2210 N   0  0  0  0  0  0  0  0  0  0  0  0
  180.1170  180.1270  135.8600 C   0  0  0  0  0  2  0  0  0  0  0  0
  179.5950  180.5400  138.0960 C   0  0  0  0  0  0  0  0  0  0  0  0
  179.5840  182.3720  135.1780 F   0  0  0  0  0  0  0  0  0  0  0  0
  1  2  2  0  0  0  0
  2 53  1  0  0  0  0
  2  3  1  0  0  0  0
  3  6  2  0  0  0  0
  3  4  1  0  0  0  0
  4 13  2  0  0  0  0
  5 11  2  0  0  0  0
  5  6  1  0  0  0  0
  6  9  1  0  0  0  0
  7 12  2  0  0  0  0
  8  1  1  0  0  0  0
  8  5  1  0  0  0  0
  9 12  1  0  0  0  0
  9 13  1  0  0  0  0
 11  7  1  0  0  0  0
 12 10  1  0  0  0  0
 14 19  1  1  0  0  0
 14 17  1  0  0  0  0
 14 15  1  0  0  0  0
 15  7  1  6  0  0  0
 15 16  1  0  0  0  0
 17 18  1  0  0  0  0
 18 16  1  0  0  0  0
 18 31  1  0  0  0  0
 20 17  1  0  0  0  0
 21 29  2  0  0  0  0
 22 25  1  0  0  0  0
 22 23  1  0  0  0  0
 23 20  1  6  0  0  0
 24 30  1  1  0  0  0
 25 29  1  6  0  0  0
 25 24  1  0  0  0  0
 25 23  1  0  0  0  0
 26 24  1  0  0  0  0
 27 28  2  0  0  0  0
 27 21  1  0  0  0  0
 28 26  1  0  0  0  0
 31 32  1  0  0  0  0
 32 34  1  0  0  0  0
 34 33  2  0  0  0  0
 34 36  1  0  0  0  0
 35 34  2  0  0  0  0
 36 39  1  6  0  0  0
 36 38  1  0  0  0  0
 38 37  1  0  0  0  0
 39 42  1  0  0  0  0
 42 40  1  6  0  0  0
 42 41  1  0  0  0  0
 43 11  1  0  0  0  0
 44 45  1  6  0  0  0
 44 46  1  0  0  0  0
 44 43  1  0  0  0  0
 46 47  1  6  0  0  0
 48 46  1  0  0  0  0
 48 49  1  0  0  0  0
 50 51  1  6  0  0  0
 50 49  1  0  0  0  0
 52 50  1  0  0  0  0
 54 61  1  6  0  0  0
 54 56  1  0  0  0  0
 56 57  1  6  0  0  0
 56 60  1  0  0  0  0
 58 53  1  0  0  0  0
 58 60  1  0  0  0  0
 59 54  1  0  0  0  0
 59 58  1  0  0  0  0
 60 55  2  0  0  0  0
M  END
>  <MODEL>
8

>  <REMARK>
 VINA RESULT:      -5.1      3.147      5.011
  Name = 
  18 active torsions:
  status: ('A' for Active; 'I' for Inactive)
    1  A    between atoms: C_2  and  N_9
    2  A    between atoms: C_2  and  C_29
    3  A    between atoms: C_3  and  C_30
    4  A    between atoms: C_3  and  C_58
    5  A    between atoms: C_4  and  C_8
    6  A    between atoms: C_4  and  N_44
    7  A    between atoms: N_9  and  C_51
    8  A    between atoms: C_12  and  S_16
    9  A    between atoms: C_12  and  C_26
   10  A    between atoms: O_13  and  C_15
   11  A    between atoms: C_15  and  S_16
   12  A    between atoms: C_15  and  N_35
   13  A    between atoms: C_18  and  C_19
   14  A    between atoms: C_18  and  N_41
   15  A    between atoms: C_23  and  C_37
   16  A    between atoms: C_26  and  N_45
   17  A    between atoms: C_29  and  C_58
   18  A    between atoms: N_35  and  C_40
                            x       y       z     vdW  Elec       q    Type
                         _______ _______ _______ _____ _____    ______ ____

>  <TORSDO>
F 18

$$$$
=
 OpenBabel11042413173D

 61 67  0  0  1  0  0  0  0  0999 V2000
  182.7990  177.1000  136.2540 C   0  0  0  0  0  3  0  0  0  0  0  0
  182.0440  177.5070  137.2940 C   0  0  0  0  0  0  0  0  0  0  0  0
  182.7280  177.9990  138.4900 C   0  0  0  0  0  0  0  0  0  0  0  0
  182.2850  178.4670  139.7270 C   0  0  0  0  0  3  0  0  0  0  0  0
  184.9450  177.6390  137.5650 C   0  0  0  0  0  0  0  0  0  0  0  0
  184.0740  178.0390  138.5570 C   0  0  0  0  0  0  0  0  0  0  0  0
  186.7430  178.2310  139.1410 C   0  0  0  0  0  0  0  0  0  0  0  0
  184.3330  177.1340  136.2630 C   0  0  0  0  0  2  0  0  0  0  0  0
  184.4550  178.4950  139.7430 N   0  0  0  0  0  0  0  0  0  0  0  0
  186.1220  179.1060  141.3750 N   0  0  0  0  0  1  0  0  0  0  0  0
  186.3350  177.7260  137.8580 C   0  0  0  0  0  0  0  0  0  0  0  0
  185.7590  178.6170  140.0850 C   0  0  0  0  0  0  0  0  0  0  0  0
  183.3840  178.7660  140.4780 N   0  0  0  0  0  0  0  0  0  0  0  0
  189.1420  178.1020  138.4010 C   0  0  2  0  0  3  0  0  0  0  0  0
  188.1940  178.3630  139.5340 C   0  0  2  0  0  3  0  0  0  0  0  0
  188.6120  177.3740  140.5750 C   0  0  0  0  0  2  0  0  0  0  0  0
  190.3090  177.4330  138.9660 N   0  0  0  0  0  0  0  0  0  0  0  0
  189.9930  177.0070  140.2830 N   0  0  0  0  0  0  0  0  0  0  0  0
  189.5600  179.4180  137.7670 C   0  0  0  0  0  1  0  0  0  0  0  0
  190.5370  176.2360  138.1650 C   0  0  0  0  0  2  0  0  0  0  0  0
  191.2400  172.9320  135.7530 C   0  0  0  0  0  3  0  0  0  0  0  0
  192.5520  176.1630  136.7120 C   0  0  0  0  0  2  0  0  0  0  0  0
  192.0210  175.8980  138.1130 C   0  0  2  0  0  3  0  0  0  0  0  0
  193.6460  173.9510  137.4420 C   0  0  1  0  0  3  0  0  0  0  0  0
  192.3530  174.7350  137.1730 C   0  0  2  0  0  0  0  0  0  0  0  0
  194.2750  173.5780  136.1200 C   0  0  0  0  0  2  0  0  0  0  0  0
  192.3870  172.0600  135.4250 C   0  0  0  0  0  3  0  0  0  0  0  0
  193.6890  172.3040  135.5970 C   0  0  0  0  0  3  0  0  0  0  0  0
  191.2100  174.0530  136.4840 C   0  0  0  0  0  3  0  0  0  0  0  0
  194.6660  174.6940  138.2900 C   0  0  0  0  0  1  0  0  0  0  0  0
  190.8300  177.7790  141.1940 C   0  0  0  0  0  2  0  0  0  0  0  0
  191.2280  176.9240  142.3840 C   0  0  0  0  0  2  0  0  0  0  0  0
  191.3610  179.2970  143.6150 O   0  0  0  0  0  0  0  0  0  0  0  0
  191.0190  177.8610  143.8810 S   0  0  0  0  0  0  0  0  0  0  0  0
  191.9430  177.3200  144.9350 O   0  0  0  0  0  0  0  0  0  0  0  0
  189.3190  177.7190  144.4310 C   0  0  1  0  0  3  0  0  0  0  0  0
  187.7560  176.4240  143.5130 C   0  0  0  0  0  1  0  0  0  0  0  0
  188.8760  176.3870  144.3490 O   0  0  0  0  0  0  0  0  0  0  0  0
  189.1250  178.2590  145.7860 N   0  0  0  0  0  2  0  0  0  0  0  0
  187.7900  177.5480  147.5670 O   0  0  0  0  0  1  0  0  0  0  0  0
  190.0320  176.9520  147.5500 N   0  0  0  0  0  1  0  0  0  0  0  0
  188.8510  177.1880  146.7400 C   0  0  2  0  0  3  0  0  0  0  0  0
  187.3480  177.3250  136.9180 N   0  0  0  0  0  2  0  0  0  0  0  0
  187.2690  176.1860  136.0200 C   0  0  2  0  0  3  0  0  0  0  0  0
  186.4560  176.5030  134.9290 O   0  0  0  0  0  1  0  0  0  0  0  0
  186.7770  174.9540  136.7810 C   0  0  2  0  0  3  0  0  0  0  0  0
  187.8560  174.2270  137.2800 O   0  0  0  0  0  1  0  0  0  0  0  0
  185.8140  174.0580  135.9980 C   0  0  0  0  0  2  0  0  0  0  0  0
  186.5380  172.9180  135.2930 C   0  0  0  0  0  2  0  0  0  0  0  0
  186.0630  171.5400  135.7640 C   0  0  1  0  0  3  0  0  0  0  0  0
  184.5900  171.3070  135.4600 C   0  0  0  0  0  1  0  0  0  0  0  0
  186.8430  170.5230  135.1940 O   0  0  0  0  0  1  0  0  0  0  0  0
  180.5550  177.4350  137.2340 C   0  0  0  0  0  2  0  0  0  0  0  0
  179.9960  173.8470  136.3180 C   0  0  2  0  0  3  0  0  0  0  0  0
  180.5760  175.4690  139.4410 O   0  0  0  0  0  0  0  0  0  0  0  0
  180.1060  173.7230  137.8410 C   0  0  2  0  0  3  0  0  0  0  0  0
  178.9300  173.2270  138.3840 F   0  0  0  0  0  0  0  0  0  0  0  0
  180.1050  176.0530  137.2140 N   0  0  0  0  0  0  0  0  0  0  0  0
  179.8300  175.3400  135.9870 C   0  0  0  0  0  2  0  0  0  0  0  0
  180.2860  175.1290  138.2650 C   0  0  0  0  0  0  0  0  0  0  0  0
  178.9320  173.1140  135.8210 F   0  0  0  0  0  0  0  0  0  0  0  0
  1  8  1  0  0  0  0
  1  2  2  0  0  0  0
  2  3  1  0  0  0  0
  3  6  2  0  0  0  0
  3  4  1  0  0  0  0
  4 13  2  0  0  0  0
  5 11  2  0  0  0  0
  5  6  1  0  0  0  0
  6  9  1  0  0  0  0
  7 12  2  0  0  0  0
  8  5  1  0  0  0  0
  9 12  1  0  0  0  0
  9 13  1  0  0  0  0
 11  7  1  0  0  0  0
 12 10  1  0  0  0  0
 14 19  1  1  0  0  0
 14 17  1  0  0  0  0
 14 15  1  0  0  0  0
 15  7  1  6  0  0  0
 15 16  1  0  0  0  0
 17 18  1  0  0  0  0
 18 16  1  0  0  0  0
 18 31  1  0  0  0  0
 20 17  1  0  0  0  0
 21 29  2  0  0  0  0
 22 25  1  0  0  0  0
 22 23  1  0  0  0  0
 23 20  1  6  0  0  0
 24 30  1  1  0  0  0
 25 29  1  6  0  0  0
 25 24  1  0  0  0  0
 25 23  1  0  0  0  0
 26 24  1  0  0  0  0
 27 28  2  0  0  0  0
 27 21  1  0  0  0  0
 28 26  1  0  0  0  0
 31 32  1  0  0  0  0
 32 34  1  0  0  0  0
 33 34  2  0  0  0  0
 34 36  1  0  0  0  0
 34 35  2  0  0  0  0
 36 38  1  1  0  0  0
 36 39  1  0  0  0  0
 37 38  1  0  0  0  0
 39 42  1  0  0  0  0
 42 41  1  1  0  0  0
 42 40  1  0  0  0  0
 43 11  1  0  0  0  0
 44 45  1  6  0  0  0
 44 46  1  0  0  0  0
 44 43  1  0  0  0  0
 46 47  1  6  0  0  0
 48 46  1  0  0  0  0
 49 50  1  0  0  0  0
 49 48  1  0  0  0  0
 50 51  1  6  0  0  0
 52 50  1  0  0  0  0
 53  2  1  0  0  0  0
 54 61  1  1  0  0  0
 54 56  1  0  0  0  0
 56 60  1  0  0  0  0
 56 57  1  1  0  0  0
 58 53  1  0  0  0  0
 58 60  1  0  0  0  0
 59 54  1  0  0  0  0
 59 58  1  0  0  0  0
 60 55  2  0  0  0  0
M  END
>  <MODEL>
9

>  <REMARK>
 VINA RESULT:      -5.1      2.279      4.253
  Name = 
  18 active torsions:
  status: ('A' for Active; 'I' for Inactive)
    1  A    between atoms: C_2  and  N_9
    2  A    between atoms: C_2  and  C_29
    3  A    between atoms: C_3  and  C_30
    4  A    between atoms: C_3  and  C_58
    5  A    between atoms: C_4  and  C_8
    6  A    between atoms: C_4  and  N_44
    7  A    between atoms: N_9  and  C_51
    8  A    between atoms: C_12  and  S_16
    9  A    between atoms: C_12  and  C_26
   10  A    between atoms: O_13  and  C_15
   11  A    between atoms: C_15  and  S_16
   12  A    between atoms: C_15  and  N_35
   13  A    between atoms: C_18  and  C_19
   14  A    between atoms: C_18  and  N_41
   15  A    between atoms: C_23  and  C_37
   16  A    between atoms: C_26  and  N_45
   17  A    between atoms: C_29  and  C_58
   18  A    between atoms: N_35  and  C_40
                            x       y       z     vdW  Elec       q    Type
                         _______ _______ _______ _____ _____    ______ ____

>  <TORSDO>
F 18

$$$$
