=
 OpenBabel11042412253D

 26 28  0  0  1  0  0  0  0  0999 V2000
  187.5650  177.2570  145.3380 C   0  0  0  0  0  0  0  0  0  0  0  0
  185.7030  180.2040  142.9590 C   0  0  0  0  0  3  0  0  0  0  0  0
  185.5280  178.2750  146.1740 C   0  0  0  0  0  0  0  0  0  0  0  0
  189.5840  177.4460  146.8060 C   0  0  0  0  0  2  0  0  0  0  0  0
  186.7750  177.9520  146.3820 C   0  0  0  0  0  0  0  0  0  0  0  0
  189.6160  176.3380  144.5820 O   0  0  0  0  0  1  0  0  0  0  0  0
  186.9510  177.5260  143.0100 C   0  0  0  0  0  0  0  0  0  0  0  0
  183.7950  178.0080  141.6950 C   0  0  0  0  0  2  0  0  0  0  0  0
  184.7340  178.9540  140.9370 C   0  0  0  0  0  2  0  0  0  0  0  0
  187.4170  178.3390  147.6400 C   0  0  0  0  0  3  0  0  0  0  0  0
  184.8560  179.7430  143.8320 C   0  0  0  0  0  0  0  0  0  0  0  0
  184.2910  178.5770  145.8730 C   0  0  0  0  0  3  0  0  0  0  0  0
  182.6910  178.6450  143.8990 C   0  0  0  0  0  2  0  0  0  0  0  0
  186.9140  176.7980  144.0940 C   0  0  0  0  0  3  0  0  0  0  0  0
  183.9440  179.1560  144.5640 C   0  0  0  0  0  0  0  0  0  0  0  0
  188.7110  178.1000  147.8470 C   0  0  0  0  0  0  0  0  0  0  0  0
  186.9950  178.2700  141.9270 C   0  0  0  0  0  0  0  0  0  0  0  0
  189.2790  178.4770  149.0560 O   0  0  0  0  0  1  0  0  0  0  0  0
  188.8710  177.0110  145.5460 C   0  0  0  0  0  0  0  0  0  0  0  0
  185.9870  179.3830  141.7290 C   0  0  2  0  0  3  0  0  0  0  0  0
  182.6660  178.7940  142.3670 C   0  0  2  0  0  3  0  0  0  0  0  0
  181.3320  178.3100  141.8370 C   0  0  0  0  0  1  0  0  0  0  0  0
  189.3890  177.7180  141.3250 C   0  0  0  0  0  1  0  0  0  0  0  0
  188.0230  178.0450  140.9380 N   0  0  0  0  0  0  0  0  0  0  0  0
  187.7710  178.2640  139.5200 C   0  0  0  0  0  2  0  0  0  0  0  0
  189.0620  178.6140  138.8060 C   0  0  0  0  0  1  0  0  0  0  0  0
  1 19  2  0  0  0  0
  1  5  1  0  0  0  0
  2 11  2  0  0  0  0
  3  5  2  0  0  0  0
  4 16  1  0  0  0  0
  5 10  1  0  0  0  0
  6 19  1  0  0  0  0
  7 14  2  0  0  0  0
  8 21  1  0  0  0  0
  9  8  1  0  0  0  0
 10 16  2  0  0  0  0
 11 15  2  0  0  0  0
 12  3  2  0  0  0  0
 13 15  1  0  0  0  0
 14  1  1  0  0  0  0
 15 12  1  0  0  0  0
 16 18  1  0  0  0  0
 17  7  2  0  0  0  0
 19  4  1  0  0  0  0
 20  9  1  1  0  0  0
 20 17  1  0  0  0  0
 20  2  1  0  0  0  0
 21 22  1  6  0  0  0
 21 13  1  0  0  0  0
 24 23  1  0  0  0  0
 24 17  1  0  0  0  0
 25 24  1  0  0  0  0
 26 25  1  0  0  0  0
M  END
>  <MODEL>
1

>  <REMARK>
 VINA RESULT:      -9.6      0.000      0.000
  Name = 
  2 active torsions:
  status: ('A' for Active; 'I' for Inactive)
    1  A    between atoms: C_18  and  N_22
    2  A    between atoms: C_19  and  N_22
                            x       y       z     vdW  Elec       q    Type
                         _______ _______ _______ _____ _____    ______ ____

>  <TORSDO>
F 2

$$$$
=
 OpenBabel11042412253D

 26 28  0  0  1  0  0  0  0  0999 V2000
  185.2730  178.9620  141.6730 C   0  0  0  0  0  0  0  0  0  0  0  0
  187.4600  175.9240  143.6230 C   0  0  0  0  0  3  0  0  0  0  0  0
  184.7640  178.5060  144.0010 C   0  0  0  0  0  0  0  0  0  0  0  0
  183.3710  178.7590  140.0600 C   0  0  0  0  0  2  0  0  0  0  0  0
  184.3340  178.6520  142.7770 C   0  0  0  0  0  0  0  0  0  0  0  0
  185.6860  179.3360  139.3690 O   0  0  0  0  0  1  0  0  0  0  0  0
  187.5950  178.3000  141.8720 C   0  0  0  0  0  0  0  0  0  0  0  0
  189.4960  178.0820  144.7470 C   0  0  0  0  0  2  0  0  0  0  0  0
  189.8390  176.8500  143.9010 C   0  0  0  0  0  2  0  0  0  0  0  0
  182.9140  178.4460  142.4850 C   0  0  0  0  0  3  0  0  0  0  0  0
  186.9020  176.6990  144.5060 C   0  0  0  0  0  0  0  0  0  0  0  0
  185.2830  178.3580  145.1920 C   0  0  0  0  0  3  0  0  0  0  0  0
  187.5290  178.1320  146.3620 C   0  0  0  0  0  2  0  0  0  0  0  0
  186.6940  179.2420  141.9630 C   0  0  0  0  0  3  0  0  0  0  0  0
  186.5130  177.5760  145.3960 C   0  0  0  0  0  0  0  0  0  0  0  0
  182.4600  178.5030  141.2340 C   0  0  0  0  0  0  0  0  0  0  0  0
  188.4910  177.3430  141.7790 C   0  0  0  0  0  0  0  0  0  0  0  0
  181.1060  178.3070  141.0000 O   0  0  0  0  0  1  0  0  0  0  0  0
  184.8170  179.0240  140.4100 C   0  0  0  0  0  0  0  0  0  0  0  0
  188.7170  176.3990  142.9420 C   0  0  2  0  0  3  0  0  0  0  0  0
  188.9750  177.6620  146.1240 C   0  0  2  0  0  3  0  0  0  0  0  0
  189.8740  178.2360  147.1980 C   0  0  0  0  0  1  0  0  0  0  0  0
  190.6810  176.9600  140.5730 C   0  0  0  0  0  1  0  0  0  0  0  0
  189.2400  177.1720  140.5560 N   0  0  0  0  0  0  0  0  0  0  0  0
  188.6100  177.3350  139.2530 C   0  0  0  0  0  2  0  0  0  0  0  0
  189.1580  178.5650  138.5550 C   0  0  0  0  0  1  0  0  0  0  0  0
  1 14  1  0  0  0  0
  1  5  1  0  0  0  0
  2 11  2  0  0  0  0
  3 12  2  0  0  0  0
  4 19  1  0  0  0  0
  4 16  1  0  0  0  0
  5  3  2  0  0  0  0
  6 19  1  0  0  0  0
  7 14  2  0  0  0  0
  8 21  1  0  0  0  0
  9  8  1  0  0  0  0
 10  5  1  0  0  0  0
 11 15  2  0  0  0  0
 12 15  1  0  0  0  0
 15 13  1  0  0  0  0
 16 10  2  0  0  0  0
 17  7  2  0  0  0  0
 17 20  1  0  0  0  0
 18 16  1  0  0  0  0
 19  1  2  0  0  0  0
 20  2  1  1  0  0  0
 20  9  1  0  0  0  0
 21 13  1  0  0  0  0
 21 22  1  1  0  0  0
 24 23  1  0  0  0  0
 24 17  1  0  0  0  0
 25 24  1  0  0  0  0
 26 25  1  0  0  0  0
M  END
>  <MODEL>
2

>  <REMARK>
 VINA RESULT:      -9.0      2.696      5.710
  Name = 
  2 active torsions:
  status: ('A' for Active; 'I' for Inactive)
    1  A    between atoms: C_18  and  N_22
    2  A    between atoms: C_19  and  N_22
                            x       y       z     vdW  Elec       q    Type
                         _______ _______ _______ _____ _____    ______ ____

>  <TORSDO>
F 2

$$$$
=
 OpenBabel11042412253D

 26 28  0  0  1  0  0  0  0  0999 V2000
  186.0830  178.6290  140.8980 C   0  0  0  0  0  0  0  0  0  0  0  0
  187.9430  175.7760  143.3910 C   0  0  0  0  0  3  0  0  0  0  0  0
  185.1280  178.2400  143.0940 C   0  0  0  0  0  0  0  0  0  0  0  0
  184.5590  178.2750  138.9450 C   0  0  0  0  0  2  0  0  0  0  0  0
  184.9510  178.3190  141.8030 C   0  0  0  0  0  0  0  0  0  0  0  0
  186.9420  178.9340  138.7100 O   0  0  0  0  0  1  0  0  0  0  0  0
  188.3400  178.0870  141.5930 C   0  0  0  0  0  0  0  0  0  0  0  0
  189.6220  178.0700  144.7990 C   0  0  0  0  0  2  0  0  0  0  0  0
  190.1770  176.8240  144.0990 C   0  0  0  0  0  2  0  0  0  0  0  0
  183.6300  178.0330  141.2410 C   0  0  0  0  0  3  0  0  0  0  0  0
  187.1870  176.5570  144.1050 C   0  0  0  0  0  0  0  0  0  0  0  0
  185.3990  178.1630  144.3710 C   0  0  0  0  0  3  0  0  0  0  0  0
  187.3670  178.0890  145.9790 C   0  0  0  0  0  2  0  0  0  0  0  0
  187.4040  178.9880  141.4550 C   0  0  0  0  0  3  0  0  0  0  0  0
  186.5920  177.4480  144.8560 C   0  0  0  0  0  0  0  0  0  0  0  0
  183.4380  178.0210  139.9220 C   0  0  0  0  0  0  0  0  0  0  0  0
  189.2730  177.1700  141.7280 C   0  0  0  0  0  0  0  0  0  0  0  0
  182.1690  177.7520  139.4300 O   0  0  0  0  0  1  0  0  0  0  0  0
  185.8920  178.6220  139.5670 C   0  0  0  0  0  0  0  0  0  0  0  0
  189.2930  176.2840  142.9560 C   0  0  2  0  0  3  0  0  0  0  0  0
  188.8480  177.6790  146.0610 C   0  0  2  0  0  3  0  0  0  0  0  0
  189.4860  178.3360  147.2660 C   0  0  0  0  0  1  0  0  0  0  0  0
  191.6400  177.4190  140.8730 C   0  0  0  0  0  1  0  0  0  0  0  0
  190.2610  176.9880  140.6910 N   0  0  0  0  0  0  0  0  0  0  0  0
  189.8930  176.4870  139.3740 C   0  0  0  0  0  2  0  0  0  0  0  0
  190.1240  177.5550  138.3220 C   0  0  0  0  0  1  0  0  0  0  0  0
  1 14  1  0  0  0  0
  1  5  1  0  0  0  0
  2 11  2  0  0  0  0
  3 12  2  0  0  0  0
  4 19  1  0  0  0  0
  4 16  1  0  0  0  0
  5  3  2  0  0  0  0
  6 19  1  0  0  0  0
  7 17  2  0  0  0  0
  8 21  1  0  0  0  0
  9  8  1  0  0  0  0
 10  5  1  0  0  0  0
 11 15  2  0  0  0  0
 12 15  1  0  0  0  0
 13 21  1  0  0  0  0
 14  7  2  0  0  0  0
 15 13  1  0  0  0  0
 16 10  2  0  0  0  0
 17 20  1  0  0  0  0
 18 16  1  0  0  0  0
 19  1  2  0  0  0  0
 20  2  1  1  0  0  0
 20  9  1  0  0  0  0
 21 22  1  1  0  0  0
 24 23  1  0  0  0  0
 24 17  1  0  0  0  0
 25 24  1  0  0  0  0
 26 25  1  0  0  0  0
M  END
>  <MODEL>
3

>  <REMARK>
 VINA RESULT:      -8.7      2.905      5.932
  Name = 
  2 active torsions:
  status: ('A' for Active; 'I' for Inactive)
    1  A    between atoms: C_18  and  N_22
    2  A    between atoms: C_19  and  N_22
                            x       y       z     vdW  Elec       q    Type
                         _______ _______ _______ _____ _____    ______ ____

>  <TORSDO>
F 2

$$$$
=
 OpenBabel11042412253D

 26 28  0  0  1  0  0  0  0  0999 V2000
  185.3090  179.1580  141.9490 C   0  0  0  0  0  0  0  0  0  0  0  0
  188.0630  176.0850  142.8320 C   0  0  0  0  0  3  0  0  0  0  0  0
  185.5300  178.4570  144.2610 C   0  0  0  0  0  0  0  0  0  0  0  0
  183.0180  178.9960  140.9550 C   0  0  0  0  0  2  0  0  0  0  0  0
  184.7500  178.6920  143.2410 C   0  0  0  0  0  0  0  0  0  0  0  0
  185.0040  179.7710  139.6800 O   0  0  0  0  0  1  0  0  0  0  0  0
  187.6020  178.6190  141.3850 C   0  0  0  0  0  0  0  0  0  0  0  0
  190.2790  178.2440  143.5330 C   0  0  0  0  0  2  0  0  0  0  0  0
  190.3890  177.1200  142.4960 C   0  0  0  0  0  2  0  0  0  0  0  0
  183.3150  178.4300  143.3590 C   0  0  0  0  0  3  0  0  0  0  0  0
  187.7720  176.7390  143.9180 C   0  0  0  0  0  0  0  0  0  0  0  0
  186.3850  178.2280  145.2240 C   0  0  0  0  0  3  0  0  0  0  0  0
  188.8830  178.0270  145.6500 C   0  0  0  0  0  2  0  0  0  0  0  0
  186.7430  179.4940  141.8360 C   0  0  0  0  0  3  0  0  0  0  0  0
  187.6420  177.5040  144.9720 C   0  0  0  0  0  0  0  0  0  0  0  0
  182.5060  178.5770  142.3100 C   0  0  0  0  0  0  0  0  0  0  0  0
  188.4560  177.7290  140.9300 C   0  0  0  0  0  0  0  0  0  0  0  0
  181.1510  178.3250  142.4650 O   0  0  0  0  0  1  0  0  0  0  0  0
  184.4940  179.3120  140.8900 C   0  0  0  0  0  0  0  0  0  0  0  0
  189.0450  176.6950  141.8670 C   0  0  2  0  0  3  0  0  0  0  0  0
  190.2050  177.6670  144.9490 C   0  0  2  0  0  3  0  0  0  0  0  0
  191.3670  178.1900  145.7660 C   0  0  0  0  0  1  0  0  0  0  0  0
  189.2060  178.9370  138.8380 C   0  0  0  0  0  1  0  0  0  0  0  0
  188.8110  177.7180  139.5300 N   0  0  0  0  0  0  0  0  0  0  0  0
  188.6610  176.5160  138.7210 C   0  0  0  0  0  2  0  0  0  0  0  0
  190.0190  176.0230  138.2580 C   0  0  0  0  0  1  0  0  0  0  0  0
  1  5  1  0  0  0  0
  2 11  2  0  0  0  0
  3 12  2  0  0  0  0
  4 16  1  0  0  0  0
  5 10  1  0  0  0  0
  5  3  2  0  0  0  0
  6 19  1  0  0  0  0
  7 14  2  0  0  0  0
  8 21  1  0  0  0  0
  9  8  1  0  0  0  0
 11 15  2  0  0  0  0
 14  1  1  0  0  0  0
 15 12  1  0  0  0  0
 15 13  1  0  0  0  0
 16 18  1  0  0  0  0
 16 10  2  0  0  0  0
 17  7  2  0  0  0  0
 17 20  1  0  0  0  0
 19  4  1  0  0  0  0
 19  1  2  0  0  0  0
 20  9  1  1  0  0  0
 20  2  1  0  0  0  0
 21 13  1  0  0  0  0
 21 22  1  1  0  0  0
 23 24  1  0  0  0  0
 24 17  1  0  0  0  0
 25 24  1  0  0  0  0
 26 25  1  0  0  0  0
M  END
>  <MODEL>
4

>  <REMARK>
 VINA RESULT:      -7.9      2.832      5.760
  Name = 
  2 active torsions:
  status: ('A' for Active; 'I' for Inactive)
    1  A    between atoms: C_18  and  N_22
    2  A    between atoms: C_19  and  N_22
                            x       y       z     vdW  Elec       q    Type
                         _______ _______ _______ _____ _____    ______ ____

>  <TORSDO>
F 2

$$$$
=
 OpenBabel11042412253D

 26 28  0  0  1  0  0  0  0  0999 V2000
  190.4100  177.5570  146.2150 C   0  0  0  0  0  0  0  0  0  0  0  0
  187.9300  175.9180  143.2190 C   0  0  0  0  0  3  0  0  0  0  0  0
  191.4730  176.5740  144.2680 C   0  0  0  0  0  0  0  0  0  0  0  0
  191.0580  176.6000  148.4350 C   0  0  0  0  0  2  0  0  0  0  0  0
  191.3790  176.6400  145.5680 C   0  0  0  0  0  0  0  0  0  0  0  0
  189.3840  178.4170  148.1710 O   0  0  0  0  0  1  0  0  0  0  0  0
  188.4170  178.2190  145.0070 C   0  0  0  0  0  0  0  0  0  0  0  0
  188.0480  178.6440  141.6010 C   0  0  0  0  0  2  0  0  0  0  0  0
  186.7880  177.9220  142.0900 C   0  0  0  0  0  2  0  0  0  0  0  0
  192.1970  175.7500  146.3940 C   0  0  0  0  0  3  0  0  0  0  0  0
  189.1170  176.1400  142.7340 C   0  0  0  0  0  0  0  0  0  0  0  0
  191.4870  176.5590  142.9600 C   0  0  0  0  0  3  0  0  0  0  0  0
  190.1760  177.4060  140.9540 C   0  0  0  0  0  2  0  0  0  0  0  0
  189.6290  178.5090  145.3990 C   0  0  0  0  0  3  0  0  0  0  0  0
  190.2360  176.5360  142.1840 C   0  0  0  0  0  0  0  0  0  0  0  0
  192.0620  175.7330  147.7190 C   0  0  0  0  0  0  0  0  0  0  0  0
  187.1990  177.9140  144.6180 C   0  0  0  0  0  0  0  0  0  0  0  0
  192.8620  174.8790  148.4660 O   0  0  0  0  0  1  0  0  0  0  0  0
  190.2740  177.5440  147.5530 C   0  0  0  0  0  0  0  0  0  0  0  0
  186.9870  177.0830  143.3700 C   0  0  2  0  0  3  0  0  0  0  0  0
  188.7580  177.8200  140.5230 C   0  0  2  0  0  3  0  0  0  0  0  0
  188.8360  178.6270  139.2440 C   0  0  0  0  0  1  0  0  0  0  0  0
  186.1810  178.6200  146.8240 C   0  0  0  0  0  1  0  0  0  0  0  0
  186.0620  178.3450  145.3980 N   0  0  0  0  0  0  0  0  0  0  0  0
  184.7250  178.3970  144.8230 C   0  0  0  0  0  2  0  0  0  0  0  0
  184.4780  179.7530  144.1900 C   0  0  0  0  0  1  0  0  0  0  0  0
  1 19  2  0  0  0  0
  2 20  1  0  0  0  0
  3  5  2  0  0  0  0
  5  1  1  0  0  0  0
  5 10  1  0  0  0  0
  7 14  2  0  0  0  0
  8  9  1  0  0  0  0
 10 16  2  0  0  0  0
 11  2  2  0  0  0  0
 12  3  2  0  0  0  0
 13 15  1  0  0  0  0
 14  1  1  0  0  0  0
 15 11  2  0  0  0  0
 15 12  1  0  0  0  0
 16  4  1  0  0  0  0
 16 18  1  0  0  0  0
 17  7  2  0  0  0  0
 17 24  1  0  0  0  0
 19  6  1  0  0  0  0
 19  4  1  0  0  0  0
 20  9  1  6  0  0  0
 20 17  1  0  0  0  0
 21 22  1  6  0  0  0
 21 13  1  0  0  0  0
 21  8  1  0  0  0  0
 24 23  1  0  0  0  0
 25 24  1  0  0  0  0
 26 25  1  0  0  0  0
M  END
>  <MODEL>
5

>  <REMARK>
 VINA RESULT:      -7.9      2.173      5.315
  Name = 
  2 active torsions:
  status: ('A' for Active; 'I' for Inactive)
    1  A    between atoms: C_18  and  N_22
    2  A    between atoms: C_19  and  N_22
                            x       y       z     vdW  Elec       q    Type
                         _______ _______ _______ _____ _____    ______ ____

>  <TORSDO>
F 2

$$$$
=
 OpenBabel11042412253D

 26 28  0  0  1  0  0  0  0  0999 V2000
  190.2080  178.2570  142.5490 C   0  0  0  0  0  0  0  0  0  0  0  0
  186.8070  176.2850  144.0840 C   0  0  0  0  0  3  0  0  0  0  0  0
  188.1740  178.2990  141.2270 C   0  0  0  0  0  0  0  0  0  0  0  0
  192.2340  177.2930  141.4390 C   0  0  0  0  0  2  0  0  0  0  0  0
  189.4540  178.0510  141.2890 C   0  0  0  0  0  0  0  0  0  0  0  0
  192.2300  178.1250  143.7800 O   0  0  0  0  0  1  0  0  0  0  0  0
  189.0360  178.1350  144.6660 C   0  0  0  0  0  0  0  0  0  0  0  0
  185.7620  179.0100  145.3270 C   0  0  0  0  0  2  0  0  0  0  0  0
  186.0250  177.6990  146.0790 C   0  0  0  0  0  2  0  0  0  0  0  0
  190.1380  177.5040  140.1160 C   0  0  0  0  0  3  0  0  0  0  0  0
  186.4470  177.1280  143.1610 C   0  0  0  0  0  0  0  0  0  0  0  0
  186.8920  178.5540  141.2600 C   0  0  0  0  0  3  0  0  0  0  0  0
  185.0140  179.0690  142.8950 C   0  0  0  0  0  2  0  0  0  0  0  0
  189.5490  178.8740  143.7180 C   0  0  0  0  0  3  0  0  0  0  0  0
  186.0530  178.1030  142.3830 C   0  0  0  0  0  0  0  0  0  0  0  0
  191.4240  177.1600  140.1740 C   0  0  0  0  0  0  0  0  0  0  0  0
  188.5230  177.3790  145.6110 C   0  0  0  0  0  0  0  0  0  0  0  0
  192.0360  176.6510  139.0380 O   0  0  0  0  0  1  0  0  0  0  0  0
  191.5080  177.9150  142.6100 C   0  0  0  0  0  0  0  0  0  0  0  0
  187.1260  176.8140  145.4570 C   0  0  2  0  0  3  0  0  0  0  0  0
  184.5890  178.8480  144.3570 C   0  0  2  0  0  3  0  0  0  0  0  0
  183.4990  179.8350  144.7180 C   0  0  0  0  0  1  0  0  0  0  0  0
  190.7250  176.7600  146.6920 C   0  0  0  0  0  1  0  0  0  0  0  0
  189.3030  177.0620  146.7850 N   0  0  0  0  0  0  0  0  0  0  0  0
  188.6760  176.9030  148.0900 C   0  0  0  0  0  2  0  0  0  0  0  0
  188.5100  178.2530  148.7610 C   0  0  0  0  0  1  0  0  0  0  0  0
  1 19  2  0  0  0  0
  1 14  1  0  0  0  0
  3 12  2  0  0  0  0
  3  5  2  0  0  0  0
  4 19  1  0  0  0  0
  5  1  1  0  0  0  0
  7 17  2  0  0  0  0
  8  9  1  0  0  0  0
 10 16  2  0  0  0  0
 10  5  1  0  0  0  0
 11  2  2  0  0  0  0
 12 15  1  0  0  0  0
 13 21  1  0  0  0  0
 14  7  2  0  0  0  0
 15 13  1  0  0  0  0
 15 11  2  0  0  0  0
 16  4  1  0  0  0  0
 17 24  1  0  0  0  0
 18 16  1  0  0  0  0
 19  6  1  0  0  0  0
 20  2  1  6  0  0  0
 20 17  1  0  0  0  0
 20  9  1  0  0  0  0
 21 22  1  1  0  0  0
 21  8  1  0  0  0  0
 23 24  1  0  0  0  0
 24 25  1  0  0  0  0
 25 26  1  0  0  0  0
M  END
>  <MODEL>
6

>  <REMARK>
 VINA RESULT:      -7.8      2.314      5.653
  Name = 
  2 active torsions:
  status: ('A' for Active; 'I' for Inactive)
    1  A    between atoms: C_18  and  N_22
    2  A    between atoms: C_19  and  N_22
                            x       y       z     vdW  Elec       q    Type
                         _______ _______ _______ _____ _____    ______ ____

>  <TORSDO>
F 2

$$$$
=
 OpenBabel11042412253D

 26 28  0  0  1  0  0  0  0  0999 V2000
  186.2080  177.6980  144.0920 C   0  0  0  0  0  0  0  0  0  0  0  0
  189.8820  179.2960  142.7650 C   0  0  0  0  0  3  0  0  0  0  0  0
  186.3630  178.4340  141.7850 C   0  0  0  0  0  0  0  0  0  0  0  0
  184.4230  178.7680  145.4820 C   0  0  0  0  0  2  0  0  0  0  0  0
  185.7300  178.4780  142.9260 C   0  0  0  0  0  0  0  0  0  0  0  0
  186.0140  177.0810  146.3730 O   0  0  0  0  0  1  0  0  0  0  0  0
  188.5540  177.1100  144.2440 C   0  0  0  0  0  0  0  0  0  0  0  0
  190.7430  176.4520  141.6560 C   0  0  0  0  0  2  0  0  0  0  0  0
  191.5080  177.3120  142.6690 C   0  0  0  0  0  2  0  0  0  0  0  0
  184.5700  179.3590  143.0700 C   0  0  0  0  0  3  0  0  0  0  0  0
  189.1620  178.9410  141.7420 C   0  0  0  0  0  0  0  0  0  0  0  0
  187.0690  178.3460  140.6880 C   0  0  0  0  0  3  0  0  0  0  0  0
  189.2890  177.4560  139.8250 C   0  0  0  0  0  2  0  0  0  0  0  0
  187.3340  176.7530  143.9430 C   0  0  0  0  0  3  0  0  0  0  0  0
  188.5400  178.4110  140.7190 C   0  0  0  0  0  0  0  0  0  0  0  0
  183.9540  179.4910  144.2440 C   0  0  0  0  0  0  0  0  0  0  0  0
  189.7770  177.4840  144.5480 C   0  0  0  0  0  0  0  0  0  0  0  0
  182.8540  180.3320  144.3370 O   0  0  0  0  0  1  0  0  0  0  0  0
  185.5870  177.8260  145.2780 C   0  0  0  0  0  0  0  0  0  0  0  0
  190.6180  178.2290  143.5320 C   0  0  2  0  0  3  0  0  0  0  0  0
  190.7210  177.1280  140.2830 C   0  0  2  0  0  3  0  0  0  0  0  0
  191.3780  176.2200  139.2650 C   0  0  0  0  0  1  0  0  0  0  0  0
  189.5450  177.5030  147.0670 C   0  0  0  0  0  1  0  0  0  0  0  0
  190.3090  177.2100  145.8620 N   0  0  0  0  0  0  0  0  0  0  0  0
  191.6810  176.7530  146.0430 C   0  0  0  0  0  2  0  0  0  0  0  0
  191.8100  175.9830  147.3430 C   0  0  0  0  0  1  0  0  0  0  0  0
  1 19  2  0  0  0  0
  2 20  1  0  0  0  0
  3  5  2  0  0  0  0
  5 10  1  0  0  0  0
  5  1  1  0  0  0  0
  7 17  2  0  0  0  0
  8  9  1  0  0  0  0
 10 16  2  0  0  0  0
 11  2  2  0  0  0  0
 12 15  1  0  0  0  0
 12  3  2  0  0  0  0
 13 21  1  0  0  0  0
 13 15  1  0  0  0  0
 14  1  1  0  0  0  0
 14  7  2  0  0  0  0
 15 11  2  0  0  0  0
 16 18  1  0  0  0  0
 16  4  1  0  0  0  0
 17 24  1  0  0  0  0
 19  4  1  0  0  0  0
 19  6  1  0  0  0  0
 20  9  1  6  0  0  0
 20 17  1  0  0  0  0
 21 22  1  6  0  0  0
 21  8  1  0  0  0  0
 24 25  1  0  0  0  0
 24 23  1  0  0  0  0
 25 26  1  0  0  0  0
M  END
>  <MODEL>
7

>  <REMARK>
 VINA RESULT:      -7.7      2.588      6.035
  Name = 
  2 active torsions:
  status: ('A' for Active; 'I' for Inactive)
    1  A    between atoms: C_18  and  N_22
    2  A    between atoms: C_19  and  N_22
                            x       y       z     vdW  Elec       q    Type
                         _______ _______ _______ _____ _____    ______ ____

>  <TORSDO>
F 2

$$$$
=
 OpenBabel11042412253D

 26 28  0  0  1  0  0  0  0  0999 V2000
  188.1530  177.3370  142.2200 C   0  0  0  0  0  0  0  0  0  0  0  0
  190.3680  178.8550  145.4750 C   0  0  0  0  0  3  0  0  0  0  0  0
  190.5380  176.8990  142.2770 C   0  0  0  0  0  0  0  0  0  0  0  0
  187.2910  178.5290  140.1950 C   0  0  0  0  0  2  0  0  0  0  0  0
  189.5060  177.3440  141.6140 C   0  0  0  0  0  0  0  0  0  0  0  0
  185.8430  177.8560  142.0980 O   0  0  0  0  0  1  0  0  0  0  0  0
  187.9330  177.4110  144.6310 C   0  0  0  0  0  0  0  0  0  0  0  0
  190.0730  176.0850  146.9940 C   0  0  0  0  0  2  0  0  0  0  0  0
  189.6510  177.4650  147.5120 C   0  0  0  0  0  2  0  0  0  0  0  0
  189.7000  177.9150  140.2800 C   0  0  0  0  0  3  0  0  0  0  0  0
  191.0420  177.9100  144.8880 C   0  0  0  0  0  0  0  0  0  0  0  0
  191.5180  176.4520  143.0190 C   0  0  0  0  0  3  0  0  0  0  0  0
  192.0380  175.7580  145.4090 C   0  0  0  0  0  2  0  0  0  0  0  0
  187.9290  176.7010  143.5340 C   0  0  0  0  0  3  0  0  0  0  0  0
  191.6400  176.8380  144.4340 C   0  0  0  0  0  0  0  0  0  0  0  0
  188.6810  178.4560  139.6140 C   0  0  0  0  0  0  0  0  0  0  0  0
  187.9400  178.1360  145.7270 C   0  0  0  0  0  0  0  0  0  0  0  0
  188.9060  178.9800  138.3490 O   0  0  0  0  0  1  0  0  0  0  0  0
  187.1210  177.8780  141.5480 C   0  0  0  0  0  0  0  0  0  0  0  0
  189.2510  178.4680  146.4090 C   0  0  2  0  0  3  0  0  0  0  0  0
  191.5970  176.0030  146.8620 C   0  0  2  0  0  3  0  0  0  0  0  0
  192.1170  174.8850  147.7410 C   0  0  0  0  0  1  0  0  0  0  0  0
  186.4320  178.6280  147.6970 C   0  0  0  0  0  1  0  0  0  0  0  0
  186.6990  178.6430  146.2660 N   0  0  0  0  0  0  0  0  0  0  0  0
  185.6130  179.0670  145.3930 C   0  0  0  0  0  2  0  0  0  0  0  0
  184.2780  178.6280  145.9650 C   0  0  0  0  0  1  0  0  0  0  0  0
  1 14  1  0  0  0  0
  3 12  2  0  0  0  0
  4 19  1  0  0  0  0
  5  1  1  0  0  0  0
  5  3  2  0  0  0  0
  7 17  2  0  0  0  0
  8  9  1  0  0  0  0
 10  5  1  0  0  0  0
 11  2  2  0  0  0  0
 12 15  1  0  0  0  0
 13 21  1  0  0  0  0
 14  7  2  0  0  0  0
 15 11  2  0  0  0  0
 15 13  1  0  0  0  0
 16  4  1  0  0  0  0
 16 10  2  0  0  0  0
 17 24  1  0  0  0  0
 17 20  1  0  0  0  0
 18 16  1  0  0  0  0
 19  6  1  0  0  0  0
 19  1  2  0  0  0  0
 20  2  1  6  0  0  0
 20  9  1  0  0  0  0
 21  8  1  0  0  0  0
 21 22  1  1  0  0  0
 24 23  1  0  0  0  0
 25 26  1  0  0  0  0
 25 24  1  0  0  0  0
M  END
>  <MODEL>
8

>  <REMARK>
 VINA RESULT:      -7.5      2.848      7.280
  Name = 
  2 active torsions:
  status: ('A' for Active; 'I' for Inactive)
    1  A    between atoms: C_18  and  N_22
    2  A    between atoms: C_19  and  N_22
                            x       y       z     vdW  Elec       q    Type
                         _______ _______ _______ _____ _____    ______ ____

>  <TORSDO>
F 2

$$$$
=
 OpenBabel11042412253D

 26 28  0  0  1  0  0  0  0  0999 V2000
  187.5730  178.6320  140.3800 C   0  0  0  0  0  0  0  0  0  0  0  0
  186.9250  176.2370  143.7940 C   0  0  0  0  0  3  0  0  0  0  0  0
  185.4060  178.7560  141.4650 C   0  0  0  0  0  0  0  0  0  0  0  0
  187.5690  177.9820  137.9630 C   0  0  0  0  0  2  0  0  0  0  0  0
  186.0910  178.5810  140.3670 C   0  0  0  0  0  0  0  0  0  0  0  0
  189.6470  178.4330  139.2490 O   0  0  0  0  0  1  0  0  0  0  0  0
  188.7590  178.1060  142.4260 C   0  0  0  0  0  0  0  0  0  0  0  0
  187.7290  178.6620  145.6740 C   0  0  0  0  0  2  0  0  0  0  0  0
  188.3680  177.2690  145.6500 C   0  0  0  0  0  2  0  0  0  0  0  0
  185.3870  178.2690  139.1230 C   0  0  0  0  0  3  0  0  0  0  0  0
  186.0420  177.1910  143.7530 C   0  0  0  0  0  0  0  0  0  0  0  0
  184.8010  178.9230  142.6120 C   0  0  0  0  0  3  0  0  0  0  0  0
  185.2800  179.0580  145.1050 C   0  0  0  0  0  2  0  0  0  0  0  0
  188.2930  179.0150  141.6120 C   0  0  0  0  0  3  0  0  0  0  0  0
  185.2780  178.2510  143.8320 C   0  0  0  0  0  0  0  0  0  0  0  0
  186.0620  178.0000  138.0060 C   0  0  0  0  0  0  0  0  0  0  0  0
  189.2220  177.1810  143.2370 C   0  0  0  0  0  0  0  0  0  0  0  0
  185.3570  177.7150  136.8450 O   0  0  0  0  0  1  0  0  0  0  0  0
  188.2570  178.3660  139.2540 C   0  0  0  0  0  0  0  0  0  0  0  0
  188.3130  176.5620  144.2800 C   0  0  2  0  0  3  0  0  0  0  0  0
  186.2830  178.5830  146.1710 C   0  0  2  0  0  3  0  0  0  0  0  0
  186.1330  179.4320  147.4160 C   0  0  0  0  0  1  0  0  0  0  0  0
  190.9480  175.3330  143.3050 C   0  0  0  0  0  1  0  0  0  0  0  0
  190.5890  176.7320  143.1150 N   0  0  0  0  0  0  0  0  0  0  0  0
  191.6820  177.6760  142.9280 C   0  0  0  0  0  2  0  0  0  0  0  0
  191.7030  178.6860  144.0590 C   0  0  0  0  0  1  0  0  0  0  0  0
  1 14  1  0  0  0  0
  3 12  2  0  0  0  0
  4 16  1  0  0  0  0
  4 19  1  0  0  0  0
  5  1  1  0  0  0  0
  5  3  2  0  0  0  0
  6 19  1  0  0  0  0
  7 17  2  0  0  0  0
  8 21  1  0  0  0  0
  9  8  1  0  0  0  0
 10  5  1  0  0  0  0
 11  2  2  0  0  0  0
 11 15  2  0  0  0  0
 12 15  1  0  0  0  0
 13 21  1  0  0  0  0
 14  7  2  0  0  0  0
 15 13  1  0  0  0  0
 16 10  2  0  0  0  0
 17 20  1  0  0  0  0
 18 16  1  0  0  0  0
 19  1  2  0  0  0  0
 20  2  1  6  0  0  0
 20  9  1  0  0  0  0
 21 22  1  1  0  0  0
 24 17  1  0  0  0  0
 24 23  1  0  0  0  0
 25 24  1  0  0  0  0
 25 26  1  0  0  0  0
M  END
>  <MODEL>
9

>  <REMARK>
 VINA RESULT:      -7.4      2.773      5.954
  Name = 
  2 active torsions:
  status: ('A' for Active; 'I' for Inactive)
    1  A    between atoms: C_18  and  N_22
    2  A    between atoms: C_19  and  N_22
                            x       y       z     vdW  Elec       q    Type
                         _______ _______ _______ _____ _____    ______ ____

>  <TORSDO>
F 2

$$$$
