=
 OpenBabel11042411413D

 65 77  0  0  1  0  0  0  0  0999 V2000
  188.5620  177.4980  144.0520 C   0  0  0  0  0  0  0  0  0  0  0  0
  187.7870  177.9610  141.9060 N   0  0  0  0  0  2  0  0  0  0  0  0
  183.3670  177.9160  144.3140 C   0  0  0  0  0  3  0  0  0  0  0  0
  186.7190  179.1570  143.7380 C   0  0  0  0  0  2  0  0  0  0  0  0
  185.7160  178.9400  144.8200 C   0  0  0  0  0  0  0  0  0  0  0  0
  187.3240  177.8260  143.2880 C   0  0  2  0  0  3  0  0  0  0  0  0
  187.5510  177.2420  146.3030 C   0  0  0  0  0  2  0  0  0  0  0  0
  186.0520  179.2740  146.2420 C   0  0  0  0  0  2  0  0  0  0  0  0
  184.5470  178.4210  144.5520 C   0  0  0  0  0  0  0  0  0  0  0  0
  189.2410  178.0800  142.0200 C   0  0  1  0  0  3  0  0  0  0  0  0
  188.6280  177.0820  145.3870 O   0  0  0  0  0  0  0  0  0  0  0  0
  189.6190  177.5970  143.3320 N   0  0  0  0  0  0  0  0  0  0  0  0
  187.4180  178.7130  146.6580 C   0  0  0  0  0  2  0  0  0  0  0  0
  190.3820  176.6540  140.0820 C   0  0  0  0  0  0  0  0  0  0  0  0
  189.9080  177.3190  140.9660 C   0  0  0  0  0  0  0  0  0  0  0  0
  190.8700  175.8450  139.0490 N   0  0  0  0  0  2  0  0  0  0  0  0
  186.6380  176.0360  137.7820 O   0  0  0  0  0  1  0  0  0  0  0  0
  189.9650  176.7980  135.7710 C   0  0  2  0  0  3  0  0  0  0  0  0
  191.4850  173.7350  134.5960 C   0  0  0  0  0  2  0  0  0  0  0  0
  190.7410  173.7090  135.6980 C   0  0  0  0  0  0  0  0  0  0  0  0
  188.4380  173.3940  134.8870 C   0  0  0  0  0  2  0  0  0  0  0  0
  191.0700  177.1040  136.8050 C   0  0  1  0  0  0  0  0  0  0  0  0
  189.5440  172.8210  135.7510 C   0  0  0  0  0  2  0  0  0  0  0  0
  191.8030  175.7250  136.7730 C   0  0  1  0  0  0  0  0  0  0  0  0
  187.4730  176.8590  135.6910 C   0  0  0  0  0  2  0  0  0  0  0  0
  187.1190  173.3430  135.5950 C   0  0  0  0  0  0  0  0  0  0  0  0
  186.3490  174.6180  135.8320 C   0  0  1  0  0  3  0  0  0  0  0  0
  188.7460  177.6590  136.0150 C   0  0  1  0  0  3  0  0  0  0  0  0
  191.7580  176.4610  138.0630 C   0  0  2  0  0  3  0  0  0  0  0  0
  186.6290  172.2580  135.8710 O   0  0  0  0  0  0  0  0  0  0  0  0
  191.0210  174.5210  136.8060 O   0  0  0  0  0  0  0  0  0  0  0  0
  189.5680  177.1120  137.1630 C   0  0  1  0  0  3  0  0  0  0  0  0
  185.1540  174.3670  136.5160 O   0  0  0  0  0  1  0  0  0  0  0  0
  187.2150  175.6380  136.5750 C   0  0  2  0  0  3  0  0  0  0  0  0
  193.8110  173.7540  137.8200 C   0  0  0  0  0  2  0  0  0  0  0  0
  196.2620  173.6490  138.3940 C   0  0  0  0  0  2  0  0  0  0  0  0
  194.1410  174.7780  136.7680 C   0  0  0  0  0  0  0  0  0  0  0  0
  196.5590  174.7350  137.3430 C   0  0  0  0  0  2  0  0  0  0  0  0
  195.0000  172.8330  138.0880 C   0  0  0  0  0  2  0  0  0  0  0  0
  195.5320  174.8260  136.2130 C   0  0  0  0  0  2  0  0  0  0  0  0
  193.2250  175.6350  136.2950 C   0  0  0  0  0  3  0  0  0  0  0  0
  182.2730  180.0160  144.2190 O   0  0  0  0  0  0  0  0  0  0  0  0
  182.1650  178.7600  144.2130 C   0  0  0  0  0  0  0  0  0  0  0  0
  180.0410  182.0670  137.0220 C   0  0  2  0  0  3  0  0  0  0  0  0
  179.7750  179.1330  144.1570 O   0  0  0  0  0  0  0  0  0  0  0  0
  179.6710  178.3430  140.0420 C   0  0  1  0  0  3  0  0  0  0  0  0
  181.1730  182.8880  137.5870 C   0  0  0  0  0  2  0  0  0  0  0  0
  182.1120  182.0250  138.1780 O   0  0  0  0  0  0  0  0  0  0  0  0
  180.7920  178.1560  144.1060 C   0  0  1  0  0  3  0  0  0  0  0  0
  179.8820  179.6360  137.0750 N   0  0  0  0  0  2  0  0  0  0  0  0
  181.7620  179.6540  138.5530 C   0  0  1  0  0  3  0  0  0  0  0  0
  180.0610  178.5980  142.8880 C   0  0  2  0  0  0  0  0  0  0  0  0
  181.1560  180.1860  139.7130 O   0  0  0  0  0  0  0  0  0  0  0  0
  180.7890  178.7590  137.7940 C   0  0  1  0  0  3  0  0  0  0  0  0
  180.7150  180.7730  136.6810 C   0  0  2  0  0  3  0  0  0  0  0  0
  180.5670  179.6960  141.9590 C   0  0  0  0  0  2  0  0  0  0  0  0
  181.9650  180.7750  137.5450 C   0  0  1  0  0  3  0  0  0  0  0  0
  178.9310  177.7260  142.3750 C   0  0  0  0  0  2  0  0  0  0  0  0
  180.8760  179.1230  140.5850 C   0  0  1  0  0  3  0  0  0  0  0  0
  180.0490  177.7530  138.6870 C   0  0  0  0  0  2  0  0  0  0  0  0
  179.2980  177.2010  140.9870 C   0  0  0  0  0  2  0  0  0  0  0  0
  179.5400  182.7060  135.8190 N   0  0  0  0  0  2  0  0  0  0  0  0
  179.3300  184.8350  134.6850 C   0  0  0  0  0  2  0  0  0  0  0  0
  180.7870  184.6340  135.0450 C   0  0  0  0  0  2  0  0  0  0  0  0
  179.7040  184.1460  135.9820 C   0  0  0  0  0  3  0  0  0  0  0  0
  1 11  1  0  0  0  0
  2 10  1  0  0  0  0
  2  6  1  0  0  0  0
  3  9  2  0  0  0  0
  4  5  1  0  0  0  0
  5  8  1  0  0  0  0
  6  4  1  1  0  0  0
  6  1  1  0  0  0  0
  7 13  1  0  0  0  0
  8 13  1  0  0  0  0
  9  5  2  0  0  0  0
 10 15  1  6  0  0  0
 10 12  1  0  0  0  0
 11  7  1  0  0  0  0
 12  1  2  0  0  0  0
 14 15  3  0  0  0  0
 16 14  1  0  0  0  0
 18 28  1  0  0  0  0
 18 22  1  0  0  0  0
 18 32  1  0  0  0  0
 19 20  2  0  0  0  0
 20 23  1  0  0  0  0
 20 31  1  0  0  0  0
 21 26  1  0  0  0  0
 21 23  1  0  0  0  0
 22 32  1  0  0  0  0
 22 29  1  0  0  0  0
 24 22  1  0  0  0  0
 24 31  1  0  0  0  0
 24 29  1  0  0  0  0
 25 28  1  0  0  0  0
 25 34  1  0  0  0  0
 26 27  1  0  0  0  0
 26 30  2  0  0  0  0
 27 33  1  0  0  0  0
 27 34  1  0  0  0  0
 28 32  1  0  0  0  0
 29 16  1  0  0  0  0
 34 17  1  0  0  0  0
 35 39  1  0  0  0  0
 37 35  1  0  0  0  0
 38 36  1  0  0  0  0
 39 36  1  0  0  0  0
 40 37  1  0  0  0  0
 40 38  1  0  0  0  0
 41 37  2  0  0  0  0
 41 24  1  0  0  0  0
 43 42  2  0  0  0  0
 43  3  1  0  0  0  0
 44 47  1  0  0  0  0
 46 59  1  0  0  0  0
 46 61  1  0  0  0  0
 47 48  1  0  0  0  0
 49 45  1  0  0  0  0
 49 43  1  0  0  0  0
 50 54  1  0  0  0  0
 51 53  1  0  0  0  0
 52 49  1  0  0  0  0
 52 45  1  0  0  0  0
 53 59  1  0  0  0  0
 54 51  1  0  0  0  0
 54 60  1  0  0  0  0
 55 44  1  0  0  0  0
 55 50  1  0  0  0  0
 55 57  1  0  0  0  0
 56 52  1  0  0  0  0
 57 48  1  0  0  0  0
 57 51  1  0  0  0  0
 58 52  1  0  0  0  0
 59 56  1  0  0  0  0
 60 46  1  0  0  0  0
 61 58  1  0  0  0  0
 62 65  1  0  0  0  0
 62 44  1  0  0  0  0
 63 64  1  0  0  0  0
 63 65  1  0  0  0  0
 64 65  1  0  0  0  0
M  END
>  <MODEL>
1

>  <REMARK>
 VINA RESULT:      -7.0      0.000      0.000
  Name = 
  8 active torsions:
  status: ('A' for Active; 'I' for Inactive)
    1  A    between atoms: C_2  and  N_16
    2  A    between atoms: C_7  and  N_60
    3  A    between atoms: N_16  and  C_58
    4  A    between atoms: C_17  and  C_19
    5  A    between atoms: C_19  and  C_21
    6  A    between atoms: C_27  and  C_50
    7  A    between atoms: C_29  and  C_62
    8  A    between atoms: C_45  and  N_60
                            x       y       z     vdW  Elec       q    Type
                         _______ _______ _______ _____ _____    ______ ____

>  <TORSDO>
F 8

$$$$
=
 OpenBabel11042411413D

 65 77  0  0  1  0  0  0  0  0999 V2000
  188.3330  175.2860  136.8080 C   0  0  0  0  0  0  0  0  0  0  0  0
  187.5600  177.3770  137.4770 N   0  0  0  0  0  2  0  0  0  0  0  0
  191.1620  176.7600  140.9380 C   0  0  0  0  0  3  0  0  0  0  0  0
  189.9690  177.0320  137.5310 C   0  0  0  0  0  2  0  0  0  0  0  0
  191.0150  176.3670  138.3600 C   0  0  0  0  0  0  0  0  0  0  0  0
  188.6010  176.3920  137.7720 C   0  0  2  0  0  3  0  0  0  0  0  0
  190.1270  173.7290  137.5230 C   0  0  0  0  0  2  0  0  0  0  0  0
  191.9920  175.4210  137.7310 C   0  0  0  0  0  2  0  0  0  0  0  0
  191.0720  176.5690  139.6500 C   0  0  0  0  0  0  0  0  0  0  0  0
  187.0310  176.9690  136.1750 C   0  0  1  0  0  3  0  0  0  0  0  0
  188.9320  174.0200  136.8100 O   0  0  0  0  0  0  0  0  0  0  0  0
  187.4300  175.5950  135.9510 N   0  0  0  0  0  0  0  0  0  0  0  0
  191.2980  174.3960  136.8230 C   0  0  0  0  0  2  0  0  0  0  0  0
  184.3880  177.2910  136.1620 C   0  0  0  0  0  0  0  0  0  0  0  0
  185.5780  177.1090  136.1380 C   0  0  0  0  0  0  0  0  0  0  0  0
  183.0150  177.5530  136.2400 N   0  0  0  0  0  2  0  0  0  0  0  0
  180.9650  181.4630  136.4830 O   0  0  0  0  0  1  0  0  0  0  0  0
  179.4940  177.8000  136.1510 C   0  0  2  0  0  3  0  0  0  0  0  0
  179.4230  176.1480  139.3670 C   0  0  0  0  0  2  0  0  0  0  0  0
  180.3350  177.0880  139.1400 C   0  0  0  0  0  0  0  0  0  0  0  0
  179.2080  179.2010  139.7080 C   0  0  0  0  0  2  0  0  0  0  0  0
  180.6090  176.9050  135.5690 C   0  0  1  0  0  0  0  0  0  0  0  0
  180.3800  178.2920  140.0200 C   0  0  0  0  0  2  0  0  0  0  0  0
  181.0580  176.2080  136.8930 C   0  0  1  0  0  0  0  0  0  0  0  0
  178.9320  180.2290  136.1800 C   0  0  0  0  0  2  0  0  0  0  0  0
  179.6440  180.6310  139.6190 C   0  0  0  0  0  0  0  0  0  0  0  0
  179.4080  181.4060  138.3460 C   0  0  1  0  0  3  0  0  0  0  0  0
  179.2820  179.0240  135.2900 C   0  0  1  0  0  3  0  0  0  0  0  0
  182.0940  176.4810  135.8630 C   0  0  2  0  0  3  0  0  0  0  0  0
  180.0820  181.1880  140.6150 O   0  0  0  0  0  0  0  0  0  0  0  0
  181.2410  177.0070  138.0720 O   0  0  0  0  0  0  0  0  0  0  0  0
  180.6630  178.4470  135.5130 C   0  0  1  0  0  3  0  0  0  0  0  0
  179.8940  182.7130  138.4530 O   0  0  0  0  0  1  0  0  0  0  0  0
  180.0250  180.6760  137.1510 C   0  0  2  0  0  3  0  0  0  0  0  0
  183.3340  174.3040  137.3530 C   0  0  0  0  0  2  0  0  0  0  0  0
  184.0440  171.9810  136.6820 C   0  0  0  0  0  2  0  0  0  0  0  0
  181.9020  173.8560  137.2420 C   0  0  0  0  0  0  0  0  0  0  0  0
  182.5680  171.5690  136.5290 C   0  0  0  0  0  2  0  0  0  0  0  0
  184.2570  173.1310  137.6760 C   0  0  0  0  0  2  0  0  0  0  0  0
  181.5860  172.3960  137.3620 C   0  0  0  0  0  2  0  0  0  0  0  0
  180.8950  174.7230  137.0590 C   0  0  0  0  0  3  0  0  0  0  0  0
  192.8880  178.3760  140.7700 O   0  0  0  0  0  0  0  0  0  0  0  0
  192.1560  177.6760  141.5210 C   0  0  0  0  0  0  0  0  0  0  0  0
  184.4330  179.6960  143.3760 C   0  0  2  0  0  3  0  0  0  0  0  0
  192.1310  179.1220  143.4610 O   0  0  0  0  0  0  0  0  0  0  0  0
  188.4850  177.4870  144.7270 C   0  0  1  0  0  3  0  0  0  0  0  0
  184.6420  179.9840  141.9100 C   0  0  0  0  0  2  0  0  0  0  0  0
  185.4160  178.9540  141.3490 O   0  0  0  0  0  0  0  0  0  0  0  0
  192.3270  177.8000  143.0100 C   0  0  1  0  0  3  0  0  0  0  0  0
  185.2550  177.7390  144.5730 N   0  0  0  0  0  2  0  0  0  0  0  0
  186.5360  177.2200  142.6210 C   0  0  1  0  0  3  0  0  0  0  0  0
  191.0790  178.2210  143.7020 C   0  0  2  0  0  0  0  0  0  0  0  0
  187.5050  178.2460  142.6840 O   0  0  0  0  0  0  0  0  0  0  0  0
  186.1570  176.7450  144.0190 C   0  0  1  0  0  3  0  0  0  0  0  0
  184.4750  178.1990  143.4230 C   0  0  2  0  0  3  0  0  0  0  0  0
  189.8230  178.6710  142.9630 C   0  0  0  0  0  2  0  0  0  0  0  0
  185.2170  177.8150  142.1540 C   0  0  1  0  0  3  0  0  0  0  0  0
  190.9350  177.9010  145.1770 C   0  0  0  0  0  2  0  0  0  0  0  0
  188.6820  177.7010  143.2210 C   0  0  1  0  0  3  0  0  0  0  0  0
  187.3630  176.4740  144.9290 C   0  0  0  0  0  2  0  0  0  0  0  0
  189.7610  176.9390  145.3660 C   0  0  0  0  0  2  0  0  0  0  0  0
  183.1230  180.1770  143.7760 N   0  0  0  0  0  2  0  0  0  0  0  0
  180.7440  179.8200  143.5030 C   0  0  0  0  0  2  0  0  0  0  0  0
  181.3020  178.6760  144.3240 C   0  0  0  0  0  2  0  0  0  0  0  0
  182.1280  179.2760  143.2080 C   0  0  0  0  0  3  0  0  0  0  0  0
  1 11  1  0  0  0  0
  1  6  1  0  0  0  0
  2  6  1  0  0  0  0
  3 43  1  0  0  0  0
  4  5  1  0  0  0  0
  5  9  2  0  0  0  0
  6  4  1  6  0  0  0
  8  5  1  0  0  0  0
  9  3  2  0  0  0  0
 10 15  1  1  0  0  0
 10  2  1  0  0  0  0
 11  7  1  0  0  0  0
 12 10  1  0  0  0  0
 12  1  2  0  0  0  0
 13  7  1  0  0  0  0
 13  8  1  0  0  0  0
 14 16  1  0  0  0  0
 15 14  3  0  0  0  0
 17 34  1  0  0  0  0
 20 19  2  0  0  0  0
 20 23  1  0  0  0  0
 21 23  1  0  0  0  0
 22 29  1  0  0  0  0
 22 18  1  0  0  0  0
 22 24  1  0  0  0  0
 24 41  1  0  0  0  0
 24 31  1  0  0  0  0
 25 34  1  0  0  0  0
 26 21  1  0  0  0  0
 26 30  2  0  0  0  0
 27 33  1  0  0  0  0
 27 26  1  0  0  0  0
 28 32  1  0  0  0  0
 28 18  1  0  0  0  0
 28 25  1  0  0  0  0
 29 16  1  0  0  0  0
 29 24  1  0  0  0  0
 31 20  1  0  0  0  0
 32 22  1  0  0  0  0
 32 18  1  0  0  0  0
 34 27  1  0  0  0  0
 35 39  1  0  0  0  0
 36 39  1  0  0  0  0
 37 35  1  0  0  0  0
 37 40  1  0  0  0  0
 38 36  1  0  0  0  0
 38 40  1  0  0  0  0
 41 37  2  0  0  0  0
 42 43  2  0  0  0  0
 43 49  1  0  0  0  0
 44 55  1  0  0  0  0
 44 62  1  0  0  0  0
 45 52  1  0  0  0  0
 46 60  1  0  0  0  0
 46 61  1  0  0  0  0
 47 44  1  0  0  0  0
 48 47  1  0  0  0  0
 48 57  1  0  0  0  0
 49 45  1  0  0  0  0
 49 52  1  0  0  0  0
 51 53  1  0  0  0  0
 51 54  1  0  0  0  0
 52 58  1  0  0  0  0
 53 59  1  0  0  0  0
 54 50  1  0  0  0  0
 54 60  1  0  0  0  0
 55 50  1  0  0  0  0
 56 59  1  0  0  0  0
 56 52  1  0  0  0  0
 57 51  1  0  0  0  0
 57 55  1  0  0  0  0
 58 61  1  0  0  0  0
 59 46  1  0  0  0  0
 63 64  1  0  0  0  0
 65 63  1  0  0  0  0
 65 62  1  0  0  0  0
 65 64  1  0  0  0  0
M  END
>  <MODEL>
2

>  <REMARK>
 VINA RESULT:      -6.0      2.728      9.877
  Name = 
  8 active torsions:
  status: ('A' for Active; 'I' for Inactive)
    1  A    between atoms: C_2  and  N_16
    2  A    between atoms: C_7  and  N_60
    3  A    between atoms: N_16  and  C_58
    4  A    between atoms: C_17  and  C_19
    5  A    between atoms: C_19  and  C_21
    6  A    between atoms: C_27  and  C_50
    7  A    between atoms: C_29  and  C_62
    8  A    between atoms: C_45  and  N_60
                            x       y       z     vdW  Elec       q    Type
                         _______ _______ _______ _____ _____    ______ ____

>  <TORSDO>
F 8

$$$$
=
 OpenBabel11042411413D

 65 77  0  0  1  0  0  0  0  0999 V2000
  187.6950  177.8300  143.4790 C   0  0  0  0  0  0  0  0  0  0  0  0
  187.3610  178.0380  141.1850 N   0  0  0  0  0  2  0  0  0  0  0  0
  182.5500  178.1340  142.6630 C   0  0  0  0  0  3  0  0  0  0  0  0
  185.9440  179.3950  142.6250 C   0  0  0  0  0  2  0  0  0  0  0  0
  184.7470  179.2690  143.5050 C   0  0  0  0  0  0  0  0  0  0  0  0
  186.6330  178.0410  142.4540 C   0  0  2  0  0  3  0  0  0  0  0  0
  186.2580  177.7910  145.5000 C   0  0  0  0  0  2  0  0  0  0  0  0
  184.7900  179.7640  144.9190 C   0  0  0  0  0  2  0  0  0  0  0  0
  183.6570  178.6930  143.0720 C   0  0  0  0  0  0  0  0  0  0  0  0
  188.7630  178.2080  141.5690 C   0  0  1  0  0  3  0  0  0  0  0  0
  187.4960  177.5630  144.8390 O   0  0  0  0  0  0  0  0  0  0  0  0
  188.8740  177.8800  142.9750 N   0  0  0  0  0  0  0  0  0  0  0  0
  186.0490  179.2880  145.6570 C   0  0  0  0  0  2  0  0  0  0  0  0
  190.2740  176.6330  140.0450 C   0  0  0  0  0  0  0  0  0  0  0  0
  189.6300  177.3560  140.7590 C   0  0  0  0  0  0  0  0  0  0  0  0
  190.9630  175.7700  139.1830 N   0  0  0  0  0  2  0  0  0  0  0  0
  186.7660  176.3810  137.9330 O   0  0  0  0  0  1  0  0  0  0  0  0
  190.1510  176.9760  135.9650 C   0  0  2  0  0  3  0  0  0  0  0  0
  191.4180  173.8680  134.6190 C   0  0  0  0  0  2  0  0  0  0  0  0
  190.6700  173.8430  135.7180 C   0  0  0  0  0  0  0  0  0  0  0  0
  188.3520  173.7650  134.8930 C   0  0  0  0  0  2  0  0  0  0  0  0
  191.2750  177.1320  137.0130 C   0  0  1  0  0  0  0  0  0  0  0  0
  189.4030  173.0550  135.7230 C   0  0  0  0  0  2  0  0  0  0  0  0
  191.8910  175.7000  136.9030 C   0  0  1  0  0  0  0  0  0  0  0  0
  187.6740  177.2470  135.8910 C   0  0  0  0  0  2  0  0  0  0  0  0
  187.0310  173.7840  135.5980 C   0  0  0  0  0  0  0  0  0  0  0  0
  186.3680  175.1030  135.9070 C   0  0  1  0  0  3  0  0  0  0  0  0
  189.0080  177.9200  136.2580 C   0  0  1  0  0  3  0  0  0  0  0  0
  191.9030  176.3640  138.2330 C   0  0  2  0  0  3  0  0  0  0  0  0
  186.4510  172.7300  135.8140 O   0  0  0  0  0  0  0  0  0  0  0  0
  191.0120  174.5660  136.8710 O   0  0  0  0  0  0  0  0  0  0  0  0
  189.7770  177.2440  137.3730 C   0  0  1  0  0  3  0  0  0  0  0  0
  185.1540  174.9140  136.5770 O   0  0  0  0  0  1  0  0  0  0  0  0
  187.3120  176.0040  136.7050 C   0  0  2  0  0  3  0  0  0  0  0  0
  193.8340  173.7320  138.0730 C   0  0  0  0  0  2  0  0  0  0  0  0
  196.2860  173.5720  138.6290 C   0  0  0  0  0  2  0  0  0  0  0  0
  194.1910  174.6630  136.9450 C   0  0  0  0  0  0  0  0  0  0  0  0
  196.6120  174.5670  137.5000 C   0  0  0  0  0  2  0  0  0  0  0  0
  194.9890  172.7870  138.3960 C   0  0  0  0  0  2  0  0  0  0  0  0
  195.5750  174.6160  136.3750 C   0  0  0  0  0  2  0  0  0  0  0  0
  193.3020  175.5200  136.4200 C   0  0  0  0  0  3  0  0  0  0  0  0
  180.2710  178.7700  142.7950 O   0  0  0  0  0  0  0  0  0  0  0  0
  181.3880  178.9300  142.2340 C   0  0  0  0  0  0  0  0  0  0  0  0
  181.3900  173.6970  135.9270 C   0  0  2  0  0  3  0  0  0  0  0  0
  182.7170  179.8300  140.4230 O   0  0  0  0  0  0  0  0  0  0  0  0
  180.1960  178.0490  137.5870 C   0  0  1  0  0  3  0  0  0  0  0  0
  181.7710  172.9230  137.1640 C   0  0  0  0  0  2  0  0  0  0  0  0
  180.9810  173.3650  138.2400 O   0  0  0  0  0  0  0  0  0  0  0  0
  181.4990  179.9410  141.1270 C   0  0  1  0  0  3  0  0  0  0  0  0
  179.6540  175.4010  135.7930 N   0  0  0  0  0  2  0  0  0  0  0  0
  179.5320  175.3080  138.1800 C   0  0  1  0  0  3  0  0  0  0  0  0
  181.5770  179.3160  139.7790 C   0  0  2  0  0  0  0  0  0  0  0  0
  180.7610  175.9200  138.5120 O   0  0  0  0  0  0  0  0  0  0  0  0
  178.9310  175.9420  136.9300 C   0  0  1  0  0  3  0  0  0  0  0  0
  179.9480  174.0200  136.1750 C   0  0  2  0  0  3  0  0  0  0  0  0
  181.7310  177.8150  139.5600 C   0  0  0  0  0  2  0  0  0  0  0  0
  179.8010  173.8960  137.6820 C   0  0  1  0  0  3  0  0  0  0  0  0
  181.1810  180.1520  138.5770 C   0  0  0  0  0  2  0  0  0  0  0  0
  180.5030  177.2540  138.8620 C   0  0  1  0  0  3  0  0  0  0  0  0
  178.9320  177.4770  136.9530 C   0  0  0  0  0  2  0  0  0  0  0  0
  179.9560  179.5220  137.9140 C   0  0  0  0  0  2  0  0  0  0  0  0
  181.5210  172.8370  134.7650 N   0  0  0  0  0  2  0  0  0  0  0  0
  182.1650  170.8940  136.0590 C   0  0  0  0  0  2  0  0  0  0  0  0
  182.0880  170.4870  134.6040 C   0  0  0  0  0  2  0  0  0  0  0  0
  181.1060  171.4950  135.1570 C   0  0  0  0  0  3  0  0  0  0  0  0
  1 11  1  0  0  0  0
  2 10  1  0  0  0  0
  2  6  1  0  0  0  0
  3  9  2  0  0  0  0
  4  5  1  0  0  0  0
  5  8  1  0  0  0  0
  6  4  1  1  0  0  0
  6  1  1  0  0  0  0
  7 13  1  0  0  0  0
  8 13  1  0  0  0  0
  9  5  2  0  0  0  0
 10 15  1  6  0  0  0
 10 12  1  0  0  0  0
 11  7  1  0  0  0  0
 12  1  2  0  0  0  0
 14 15  3  0  0  0  0
 16 14  1  0  0  0  0
 18 28  1  0  0  0  0
 18 22  1  0  0  0  0
 18 32  1  0  0  0  0
 19 20  2  0  0  0  0
 20 23  1  0  0  0  0
 20 31  1  0  0  0  0
 21 26  1  0  0  0  0
 21 23  1  0  0  0  0
 22 32  1  0  0  0  0
 22 29  1  0  0  0  0
 24 22  1  0  0  0  0
 24 29  1  0  0  0  0
 25 28  1  0  0  0  0
 25 34  1  0  0  0  0
 26 30  2  0  0  0  0
 26 27  1  0  0  0  0
 27 33  1  0  0  0  0
 27 34  1  0  0  0  0
 28 32  1  0  0  0  0
 29 16  1  0  0  0  0
 31 24  1  0  0  0  0
 34 17  1  0  0  0  0
 35 39  1  0  0  0  0
 37 35  1  0  0  0  0
 38 36  1  0  0  0  0
 39 36  1  0  0  0  0
 40 37  1  0  0  0  0
 40 38  1  0  0  0  0
 41 24  1  0  0  0  0
 41 37  2  0  0  0  0
 43  3  1  0  0  0  0
 43 42  2  0  0  0  0
 44 55  1  0  0  0  0
 44 47  1  0  0  0  0
 45 49  1  0  0  0  0
 46 61  1  0  0  0  0
 46 59  1  0  0  0  0
 47 48  1  0  0  0  0
 49 43  1  0  0  0  0
 50 55  1  0  0  0  0
 50 54  1  0  0  0  0
 51 53  1  0  0  0  0
 52 45  1  0  0  0  0
 52 49  1  0  0  0  0
 53 59  1  0  0  0  0
 54 60  1  0  0  0  0
 54 51  1  0  0  0  0
 55 57  1  0  0  0  0
 56 52  1  0  0  0  0
 57 51  1  0  0  0  0
 57 48  1  0  0  0  0
 58 52  1  0  0  0  0
 59 56  1  0  0  0  0
 60 46  1  0  0  0  0
 61 58  1  0  0  0  0
 62 65  1  0  0  0  0
 62 44  1  0  0  0  0
 64 65  1  0  0  0  0
 64 63  1  0  0  0  0
 65 63  1  0  0  0  0
M  END
>  <MODEL>
3

>  <REMARK>
 VINA RESULT:      -5.8      2.355      4.391
  Name = 
  8 active torsions:
  status: ('A' for Active; 'I' for Inactive)
    1  A    between atoms: C_2  and  N_16
    2  A    between atoms: C_7  and  N_60
    3  A    between atoms: N_16  and  C_58
    4  A    between atoms: C_17  and  C_19
    5  A    between atoms: C_19  and  C_21
    6  A    between atoms: C_27  and  C_50
    7  A    between atoms: C_29  and  C_62
    8  A    between atoms: C_45  and  N_60
                            x       y       z     vdW  Elec       q    Type
                         _______ _______ _______ _____ _____    ______ ____

>  <TORSDO>
F 8

$$$$
=
 OpenBabel11042411413D

 65 77  0  0  1  0  0  0  0  0999 V2000
  189.1740  176.9470  143.9160 C   0  0  0  0  0  0  0  0  0  0  0  0
  188.4670  177.5480  141.7810 N   0  0  0  0  0  2  0  0  0  0  0  0
  184.0290  177.7800  144.1430 C   0  0  0  0  0  3  0  0  0  0  0  0
  187.4770  178.7620  143.6450 C   0  0  0  0  0  2  0  0  0  0  0  0
  186.4470  178.5900  144.7080 C   0  0  0  0  0  0  0  0  0  0  0  0
  187.9770  177.4030  143.1530 C   0  0  2  0  0  3  0  0  0  0  0  0
  188.1190  176.6960  146.1470 C   0  0  0  0  0  2  0  0  0  0  0  0
  186.7910  178.8460  146.1450 C   0  0  0  0  0  2  0  0  0  0  0  0
  185.2430  178.1780  144.4110 C   0  0  0  0  0  0  0  0  0  0  0  0
  189.9250  177.5430  141.9130 C   0  0  1  0  0  3  0  0  0  0  0  0
  189.1900  176.4810  145.2370 O   0  0  0  0  0  0  0  0  0  0  0  0
  190.2450  176.9850  143.2110 N   0  0  0  0  0  0  0  0  0  0  0  0
  188.1010  178.1600  146.5540 C   0  0  0  0  0  2  0  0  0  0  0  0
  190.9810  176.0740  139.9600 C   0  0  0  0  0  0  0  0  0  0  0  0
  190.5400  176.7680  140.8390 C   0  0  0  0  0  0  0  0  0  0  0  0
  191.4390  175.2210  138.9490 N   0  0  0  0  0  2  0  0  0  0  0  0
  195.0340  172.6520  138.7710 O   0  0  0  0  0  1  0  0  0  0  0  0
  192.4170  173.6190  135.9580 C   0  0  2  0  0  3  0  0  0  0  0  0
  193.1460  176.8880  134.5940 C   0  0  0  0  0  2  0  0  0  0  0  0
  193.4990  176.6130  135.8460 C   0  0  0  0  0  0  0  0  0  0  0  0
  195.7130  175.5540  135.6530 C   0  0  0  0  0  2  0  0  0  0  0  0
  191.1180  174.0600  136.6660 C   0  0  1  0  0  0  0  0  0  0  0  0
  194.9350  176.7140  136.2410 C   0  0  0  0  0  2  0  0  0  0  0  0
  191.2910  175.6060  136.5210 C   0  0  1  0  0  0  0  0  0  0  0  0
  194.4050  172.2140  136.4990 C   0  0  0  0  0  2  0  0  0  0  0  0
  196.6340  174.9530  136.6690 C   0  0  0  0  0  0  0  0  0  0  0  0
  196.5010  173.4940  137.0270 C   0  0  1  0  0  3  0  0  0  0  0  0
  192.8680  172.2640  136.4550 C   0  0  1  0  0  3  0  0  0  0  0  0
  190.6210  175.0910  137.7440 C   0  0  2  0  0  3  0  0  0  0  0  0
  197.5560  175.6210  137.1120 O   0  0  0  0  0  0  0  0  0  0  0  0
  192.5700  176.1920  136.8090 O   0  0  0  0  0  0  0  0  0  0  0  0
  192.2370  173.2760  137.3870 C   0  0  1  0  0  3  0  0  0  0  0  0
  197.4370  173.1240  137.9990 O   0  0  0  0  0  1  0  0  0  0  0  0
  195.0720  173.1810  137.4790 C   0  0  2  0  0  3  0  0  0  0  0  0
  189.5930  177.8210  137.6280 C   0  0  0  0  0  2  0  0  0  0  0  0
  187.2610  178.7410  137.3840 C   0  0  0  0  0  2  0  0  0  0  0  0
  189.5270  177.3790  136.1910 C   0  0  0  0  0  0  0  0  0  0  0  0
  187.2060  178.2320  135.9320 C   0  0  0  0  0  2  0  0  0  0  0  0
  188.6850  179.0220  137.8800 C   0  0  0  0  0  2  0  0  0  0  0  0
  188.5730  178.0670  135.2640 C   0  0  0  0  0  2  0  0  0  0  0  0
  190.3100  176.4030  135.7090 C   0  0  0  0  0  3  0  0  0  0  0  0
  183.1130  179.9440  143.8290 O   0  0  0  0  0  0  0  0  0  0  0  0
  182.9010  178.7240  144.0620 C   0  0  0  0  0  0  0  0  0  0  0  0
  179.6880  182.1340  137.3390 C   0  0  2  0  0  3  0  0  0  0  0  0
  180.5990  179.3430  144.4780 O   0  0  0  0  0  0  0  0  0  0  0  0
  179.5770  178.5110  140.4980 C   0  0  1  0  0  3  0  0  0  0  0  0
  180.9870  182.8410  137.6340 C   0  0  0  0  0  2  0  0  0  0  0  0
  181.9360  181.8930  138.0530 O   0  0  0  0  0  0  0  0  0  0  0  0
  181.4820  178.2650  144.2560 C   0  0  1  0  0  3  0  0  0  0  0  0
  179.3020  179.7350  137.5070 N   0  0  0  0  0  2  0  0  0  0  0  0
  181.4370  179.5780  138.5730 C   0  0  1  0  0  3  0  0  0  0  0  0
  180.5640  178.7630  143.1970 C   0  0  2  0  0  0  0  0  0  0  0  0
  181.1370  180.1860  139.8120 O   0  0  0  0  0  0  0  0  0  0  0  0
  180.2460  178.7780  138.0580 C   0  0  1  0  0  3  0  0  0  0  0  0
  180.1450  180.7730  136.9140 C   0  0  2  0  0  3  0  0  0  0  0  0
  180.9760  179.7890  142.1460 C   0  0  0  0  0  2  0  0  0  0  0  0
  181.5400  180.6560  137.5060 C   0  0  1  0  0  3  0  0  0  0  0  0
  179.2730  178.0060  142.9530 C   0  0  0  0  0  2  0  0  0  0  0  0
  180.9380  179.1690  140.7590 C   0  0  1  0  0  3  0  0  0  0  0  0
  179.6090  177.8670  139.1160 C   0  0  0  0  0  2  0  0  0  0  0  0
  179.2930  177.4280  141.5380 C   0  0  0  0  0  2  0  0  0  0  0  0
  179.0160  182.8060  136.2410 N   0  0  0  0  0  2  0  0  0  0  0  0
  178.9540  185.2090  135.9500 C   0  0  0  0  0  2  0  0  0  0  0  0
  179.2620  184.5800  134.6090 C   0  0  0  0  0  2  0  0  0  0  0  0
  179.8190  183.9670  135.8750 C   0  0  0  0  0  3  0  0  0  0  0  0
  1 11  1  0  0  0  0
  2 10  1  0  0  0  0
  2  6  1  0  0  0  0
  3  9  2  0  0  0  0
  4  5  1  0  0  0  0
  5  8  1  0  0  0  0
  6  4  1  1  0  0  0
  6  1  1  0  0  0  0
  7 13  1  0  0  0  0
  8 13  1  0  0  0  0
  9  5  2  0  0  0  0
 10 15  1  6  0  0  0
 10 12  1  0  0  0  0
 11  7  1  0  0  0  0
 12  1  2  0  0  0  0
 14 15  3  0  0  0  0
 16 14  1  0  0  0  0
 18 28  1  0  0  0  0
 18 22  1  0  0  0  0
 18 32  1  0  0  0  0
 19 20  2  0  0  0  0
 20 23  1  0  0  0  0
 20 31  1  0  0  0  0
 21 23  1  0  0  0  0
 21 26  1  0  0  0  0
 22 32  1  0  0  0  0
 22 29  1  0  0  0  0
 24 22  1  0  0  0  0
 24 31  1  0  0  0  0
 24 29  1  0  0  0  0
 25 34  1  0  0  0  0
 26 27  1  0  0  0  0
 26 30  2  0  0  0  0
 27 34  1  0  0  0  0
 27 33  1  0  0  0  0
 28 25  1  0  0  0  0
 28 32  1  0  0  0  0
 29 16  1  0  0  0  0
 34 17  1  0  0  0  0
 35 39  1  0  0  0  0
 36 39  1  0  0  0  0
 37 35  1  0  0  0  0
 38 36  1  0  0  0  0
 40 38  1  0  0  0  0
 40 37  1  0  0  0  0
 41 37  2  0  0  0  0
 41 24  1  0  0  0  0
 42 43  2  0  0  0  0
 43  3  1  0  0  0  0
 43 49  1  0  0  0  0
 44 47  1  0  0  0  0
 46 59  1  0  0  0  0
 46 61  1  0  0  0  0
 47 48  1  0  0  0  0
 49 45  1  0  0  0  0
 50 54  1  0  0  0  0
 51 53  1  0  0  0  0
 52 49  1  0  0  0  0
 52 45  1  0  0  0  0
 53 59  1  0  0  0  0
 54 51  1  0  0  0  0
 54 60  1  0  0  0  0
 55 44  1  0  0  0  0
 55 57  1  0  0  0  0
 55 50  1  0  0  0  0
 56 52  1  0  0  0  0
 57 48  1  0  0  0  0
 57 51  1  0  0  0  0
 58 52  1  0  0  0  0
 59 56  1  0  0  0  0
 60 46  1  0  0  0  0
 61 58  1  0  0  0  0
 62 44  1  0  0  0  0
 64 65  1  0  0  0  0
 64 63  1  0  0  0  0
 65 63  1  0  0  0  0
 65 62  1  0  0  0  0
M  END
>  <MODEL>
4

>  <REMARK>
 VINA RESULT:      -5.5      1.963      4.616
  Name = 
  8 active torsions:
  status: ('A' for Active; 'I' for Inactive)
    1  A    between atoms: C_2  and  N_16
    2  A    between atoms: C_7  and  N_60
    3  A    between atoms: N_16  and  C_58
    4  A    between atoms: C_17  and  C_19
    5  A    between atoms: C_19  and  C_21
    6  A    between atoms: C_27  and  C_50
    7  A    between atoms: C_29  and  C_62
    8  A    between atoms: C_45  and  N_60
                            x       y       z     vdW  Elec       q    Type
                         _______ _______ _______ _____ _____    ______ ____

>  <TORSDO>
F 8

$$$$
=
 OpenBabel11042411413D

 65 77  0  0  1  0  0  0  0  0999 V2000
  182.5820  179.0610  140.1580 C   0  0  0  0  0  0  0  0  0  0  0  0
  184.1930  177.9280  138.9160 N   0  0  0  0  0  2  0  0  0  0  0  0
  180.1890  175.1350  137.6900 C   0  0  0  0  0  3  0  0  0  0  0  0
  182.0240  178.2520  137.8600 C   0  0  0  0  0  2  0  0  0  0  0  0
  180.6390  177.7010  137.8920 C   0  0  0  0  0  0  0  0  0  0  0  0
  182.7520  177.9560  139.1710 C   0  0  2  0  0  3  0  0  0  0  0  0
  180.1320  178.8800  140.5000 C   0  0  0  0  0  2  0  0  0  0  0  0
  179.4640  178.6130  138.0780 C   0  0  0  0  0  2  0  0  0  0  0  0
  180.4290  176.4140  137.7960 C   0  0  0  0  0  0  0  0  0  0  0  0
  184.6800  179.2030  139.4440 C   0  0  1  0  0  3  0  0  0  0  0  0
  181.4160  179.3670  140.8690 O   0  0  0  0  0  0  0  0  0  0  0  0
  183.6660  179.7230  140.3390 N   0  0  0  0  0  0  0  0  0  0  0  0
  179.6750  179.5940  139.2390 C   0  0  0  0  0  2  0  0  0  0  0  0
  187.0130  178.9640  140.7050 C   0  0  0  0  0  0  0  0  0  0  0  0
  185.9540  179.0250  140.1380 C   0  0  0  0  0  0  0  0  0  0  0  0
  188.2530  178.9640  141.3550 N   0  0  0  0  0  2  0  0  0  0  0  0
  185.6280  177.7390  144.6950 O   0  0  0  0  0  1  0  0  0  0  0  0
  188.9150  176.0620  143.2550 C   0  0  2  0  0  3  0  0  0  0  0  0
  191.8660  177.7200  144.5260 C   0  0  0  0  0  2  0  0  0  0  0  0
  190.7330  178.4070  144.4120 C   0  0  0  0  0  0  0  0  0  0  0  0
  189.5300  177.9800  146.5170 C   0  0  0  0  0  2  0  0  0  0  0  0
  189.0950  176.5660  141.8070 C   0  0  1  0  0  0  0  0  0  0  0  0
  190.1390  179.0430  145.6230 C   0  0  0  0  0  2  0  0  0  0  0  0
  190.2000  177.6380  142.0740 C   0  0  1  0  0  0  0  0  0  0  0  0
  187.0410  175.8110  144.8810 C   0  0  0  0  0  2  0  0  0  0  0  0
  188.1770  178.3970  147.0060 C   0  0  0  0  0  0  0  0  0  0  0  0
  186.9770  177.5360  146.7050 C   0  0  1  0  0  3  0  0  0  0  0  0
  187.5300  175.4910  143.4570 C   0  0  1  0  0  3  0  0  0  0  0  0
  189.2070  177.9120  141.0020 C   0  0  2  0  0  3  0  0  0  0  0  0
  188.0780  179.3700  147.7390 O   0  0  0  0  0  0  0  0  0  0  0  0
  190.0520  178.5260  143.1920 O   0  0  0  0  0  0  0  0  0  0  0  0
  187.7630  176.7000  142.5770 C   0  0  1  0  0  3  0  0  0  0  0  0
  185.8080  178.0950  147.2310 O   0  0  0  0  0  1  0  0  0  0  0  0
  186.8520  177.2950  145.1990 C   0  0  2  0  0  3  0  0  0  0  0  0
  190.6950  177.0910  139.1630 C   0  0  0  0  0  2  0  0  0  0  0  0
  192.2540  175.7470  137.7120 C   0  0  0  0  0  2  0  0  0  0  0  0
  191.8040  177.2160  140.1720 C   0  0  0  0  0  0  0  0  0  0  0  0
  193.3520  175.8500  138.7870 C   0  0  0  0  0  2  0  0  0  0  0  0
  191.2480  176.9040  137.7520 C   0  0  0  0  0  2  0  0  0  0  0  0
  193.2220  177.0600  139.7140 C   0  0  0  0  0  2  0  0  0  0  0  0
  191.5650  177.4840  141.4640 C   0  0  0  0  0  3  0  0  0  0  0  0
  179.1170  175.2240  135.5780 O   0  0  0  0  0  0  0  0  0  0  0  0
  179.7420  174.5300  136.4250 C   0  0  0  0  0  0  0  0  0  0  0  0
  187.7840  175.1750  134.9850 C   0  0  2  0  0  3  0  0  0  0  0  0
  180.4120  172.8950  134.7710 O   0  0  0  0  0  0  0  0  0  0  0  0
  184.1570  172.4640  136.6040 C   0  0  1  0  0  3  0  0  0  0  0  0
  187.1830  176.5510  134.8500 C   0  0  0  0  0  2  0  0  0  0  0  0
  186.2180  176.7280  135.8560 O   0  0  0  0  0  0  0  0  0  0  0  0
  180.0120  173.0840  136.1110 C   0  0  1  0  0  3  0  0  0  0  0  0
  187.2170  173.5350  136.6960 N   0  0  0  0  0  2  0  0  0  0  0  0
  185.4010  174.9660  137.3090 C   0  0  1  0  0  3  0  0  0  0  0  0
  181.4300  172.8290  135.7400 C   0  0  2  0  0  0  0  0  0  0  0  0
  184.5570  174.7830  136.1910 O   0  0  0  0  0  0  0  0  0  0  0  0
  186.1340  173.6740  137.6530 C   0  0  1  0  0  3  0  0  0  0  0  0
  187.6630  174.9070  136.4540 C   0  0  2  0  0  3  0  0  0  0  0  0
  182.4480  173.9400  135.5060 C   0  0  0  0  0  2  0  0  0  0  0  0
  186.5670  175.8570  136.9070 C   0  0  1  0  0  3  0  0  0  0  0  0
  181.9700  171.4210  135.8980 C   0  0  0  0  0  2  0  0  0  0  0  0
  183.5510  173.8720  136.5490 C   0  0  1  0  0  3  0  0  0  0  0  0
  185.2240  172.4390  137.6940 C   0  0  0  0  0  2  0  0  0  0  0  0
  183.0860  171.4280  136.9430 C   0  0  0  0  0  2  0  0  0  0  0  0
  189.1810  175.2220  134.5940 N   0  0  0  0  0  2  0  0  0  0  0  0
  191.3590  174.2450  134.9990 C   0  0  0  0  0  2  0  0  0  0  0  0
  190.4100  173.1340  134.6050 C   0  0  0  0  0  2  0  0  0  0  0  0
  189.9110  174.2900  135.4440 C   0  0  0  0  0  3  0  0  0  0  0  0
  1 12  2  0  0  0  0
  1 11  1  0  0  0  0
  2  6  1  0  0  0  0
  2 10  1  0  0  0  0
  3  9  2  0  0  0  0
  4  5  1  0  0  0  0
  5  8  1  0  0  0  0
  6  4  1  6  0  0  0
  6  1  1  0  0  0  0
  7 11  1  0  0  0  0
  8 13  1  0  0  0  0
  9  5  2  0  0  0  0
 10 15  1  1  0  0  0
 10 12  1  0  0  0  0
 13  7  1  0  0  0  0
 14 16  1  0  0  0  0
 15 14  3  0  0  0  0
 17 34  1  0  0  0  0
 18 28  1  0  0  0  0
 20 19  2  0  0  0  0
 20 23  1  0  0  0  0
 21 26  1  0  0  0  0
 22 24  1  0  0  0  0
 22 32  1  0  0  0  0
 22 18  1  0  0  0  0
 23 21  1  0  0  0  0
 24 31  1  0  0  0  0
 25 34  1  0  0  0  0
 26 30  2  0  0  0  0
 27 26  1  0  0  0  0
 27 33  1  0  0  0  0
 28 25  1  0  0  0  0
 29 16  1  0  0  0  0
 29 22  1  0  0  0  0
 29 24  1  0  0  0  0
 31 20  1  0  0  0  0
 32 18  1  0  0  0  0
 32 28  1  0  0  0  0
 34 27  1  0  0  0  0
 35 37  1  0  0  0  0
 36 39  1  0  0  0  0
 36 38  1  0  0  0  0
 37 41  2  0  0  0  0
 38 40  1  0  0  0  0
 39 35  1  0  0  0  0
 40 37  1  0  0  0  0
 41 24  1  0  0  0  0
 42 43  2  0  0  0  0
 43  3  1  0  0  0  0
 44 55  1  0  0  0  0
 45 52  1  0  0  0  0
 45 49  1  0  0  0  0
 46 61  1  0  0  0  0
 46 60  1  0  0  0  0
 47 44  1  0  0  0  0
 47 48  1  0  0  0  0
 48 57  1  0  0  0  0
 49 43  1  0  0  0  0
 50 54  1  0  0  0  0
 51 54  1  0  0  0  0
 52 58  1  0  0  0  0
 52 49  1  0  0  0  0
 53 59  1  0  0  0  0
 53 51  1  0  0  0  0
 54 60  1  0  0  0  0
 55 50  1  0  0  0  0
 55 57  1  0  0  0  0
 56 52  1  0  0  0  0
 56 59  1  0  0  0  0
 57 51  1  0  0  0  0
 58 61  1  0  0  0  0
 59 46  1  0  0  0  0
 62 44  1  0  0  0  0
 62 65  1  0  0  0  0
 63 65  1  0  0  0  0
 64 63  1  0  0  0  0
 64 65  1  0  0  0  0
M  END
>  <MODEL>
5

>  <REMARK>
 VINA RESULT:      -4.7      2.933      8.803
  Name = 
  8 active torsions:
  status: ('A' for Active; 'I' for Inactive)
    1  A    between atoms: C_2  and  N_16
    2  A    between atoms: C_7  and  N_60
    3  A    between atoms: N_16  and  C_58
    4  A    between atoms: C_17  and  C_19
    5  A    between atoms: C_19  and  C_21
    6  A    between atoms: C_27  and  C_50
    7  A    between atoms: C_29  and  C_62
    8  A    between atoms: C_45  and  N_60
                            x       y       z     vdW  Elec       q    Type
                         _______ _______ _______ _____ _____    ______ ____

>  <TORSDO>
F 8

$$$$
